ligand
 OpenBabel11021811513D
libRbt.so/2013.1/901 2013/11/27
 14 13  0  0  0  0  0  0  0  0999 V2000
   26.1376   53.3418   41.6069 N   0  0  0  0  0  0  0  0  0  0  0  0
   25.5276   52.0270   41.4915 C   0  0  0  0  0  0  0  0  0  0  0  0
   26.5720   50.9915   41.0879 C   0  0  0  0  0  0  0  0  0  0  0  0
   27.1100   51.2692   39.6887 C   0  0  0  0  0  0  0  0  0  0  0  0
   28.1028   50.2897   39.2574 N   0  0  0  0  0  0  0  0  0  0  0  0
   28.7691   50.4265   37.9732 C   0  0  0  0  0  0  0  0  0  0  0  0
   29.6431   49.2254   37.6293 C   0  0  0  0  0  0  0  0  0  0  0  0
   30.7566   49.0779   38.6602 C   0  0  0  0  0  0  0  0  0  0  0  0
   31.6053   47.8543   38.3323 C   0  0  0  0  0  0  0  0  0  0  0  0
   30.8483   46.6193   38.4430 N   0  0  0  0  0  0  0  0  0  0  0  0
   31.4107   45.3847   37.9119 C   0  0  0  0  0  0  0  0  0  0  0  0
   32.0324   44.4638   38.9597 C   0  0  0  0  0  0  0  0  0  0  0  0
   33.2477   45.1278   39.6093 C   0  0  0  0  0  0  0  0  0  0  0  0
   33.8654   44.2221   40.5629 N   0  0  0  0  0  0  0  0  0  0  0  0
  1  2  1  0  0  0  0
  2  3  1  0  0  0  0
  3  4  1  0  0  0  0
  4  5  1  0  0  0  0
  5  6  1  0  0  0  0
  6  7  1  0  0  0  0
  7  8  1  0  0  0  0
  8  9  1  0  0  0  0
  9 10  1  0  0  0  0
 10 11  1  0  0  0  0
 11 12  1  0  0  0  0
 12 13  1  0  0  0  0
 13 14  1  0  0  0  0
M  END
>  <CHROM.1>
-65.29986744,-179.32340292,-177.30781952,-173.14120599,-62.14738735,178.51714779
-64.58940130,167.71260604,100.73193861,-64.67508779,-177.57766111,29.68774582
48.59435056,39.37219702,3.07844272,0.85073669,-1.26513751

>  <Name>
ligand

>  <RI>
0

>  <Rbt.Current_Directory>
/home/itssahil/PROJECTS/Mol_Feturizer/New_Systems/rnas/4P5J

>  <Rbt.Executable>
rbdock ($Id: //depot/dev/client3/rdock/2013.1/src/exe/rbdock.cxx#4 $)

>  <Rbt.Library>
libRbt.so (2013.1, Build901 2013/11/27)

>  <Rbt.Parameter_File>
/export/apps/rDock/src/rDock_2013.1_src/data/scripts/dock_solv.prm

>  <Rbt.Receptor>
prm/pocket_docking_2.prm

>  <SCORE>
2.16586

>  <SCORE.INTER>
11.0085

>  <SCORE.INTER.CONST>
1

>  <SCORE.INTER.POLAR>
0

>  <SCORE.INTER.ROT>
11

>  <SCORE.INTER.SOLV>
3.5526

>  <SCORE.INTER.VDW>
-4.77852

>  <SCORE.INTER.norm>
0.786323

>  <SCORE.INTRA>
-8.84599

>  <SCORE.INTRA.DIHEDRAL>
-16.1217

>  <SCORE.INTRA.DIHEDRAL.0>
17.5233

>  <SCORE.INTRA.POLAR>
0

>  <SCORE.INTRA.POLAR.0>
0

>  <SCORE.INTRA.REPUL>
0

>  <SCORE.INTRA.REPUL.0>
0

>  <SCORE.INTRA.SOLV>
-0.818261

>  <SCORE.INTRA.SOLV.lig_0>
-46.1043

>  <SCORE.INTRA.VDW>
-0.376009

>  <SCORE.INTRA.VDW.0>
-0.545445

>  <SCORE.INTRA.norm>
-0.631856

>  <SCORE.RESTR>
0.00332183

>  <SCORE.RESTR.CAVITY>
0.00332183

>  <SCORE.RESTR.norm>
0.000237274

>  <SCORE.SYSTEM>
0

>  <SCORE.SYSTEM.CONST>
0

>  <SCORE.SYSTEM.DIHEDRAL>
0

>  <SCORE.SYSTEM.SOLV>
0

>  <SCORE.SYSTEM.norm>
0

>  <SCORE.heavy>
14

>  <SCORE.norm>
0.154704

>  <RMSD>
1.375

$$$$
ligand
 OpenBabel11021811513D
libRbt.so/2013.1/901 2013/11/27
 14 13  0  0  0  0  0  0  0  0999 V2000
   33.5791   43.6125   38.4580 N   0  0  0  0  0  0  0  0  0  0  0  0
   33.0824   44.9703   38.6119 C   0  0  0  0  0  0  0  0  0  0  0  0
   31.5784   44.9594   38.8640 C   0  0  0  0  0  0  0  0  0  0  0  0
   31.0290   46.3771   38.9759 C   0  0  0  0  0  0  0  0  0  0  0  0
   31.0867   47.1097   37.7145 N   0  0  0  0  0  0  0  0  0  0  0  0
   31.5931   48.4711   37.6710 C   0  0  0  0  0  0  0  0  0  0  0  0
   30.9197   49.3187   36.5972 C   0  0  0  0  0  0  0  0  0  0  0  0
   29.4393   49.4893   36.9191 C   0  0  0  0  0  0  0  0  0  0  0  0
   29.2775   50.3631   38.1582 C   0  0  0  0  0  0  0  0  0  0  0  0
   27.8836   50.5246   38.5343 N   0  0  0  0  0  0  0  0  0  0  0  0
   27.5458   51.3221   39.7058 C   0  0  0  0  0  0  0  0  0  0  0  0
   26.0611   51.3343   40.0633 C   0  0  0  0  0  0  0  0  0  0  0  0
   25.8054   52.2286   41.2776 C   0  0  0  0  0  0  0  0  0  0  0  0
   24.4012   52.1835   41.6483 N   0  0  0  0  0  0  0  0  0  0  0  0
  1  2  1  0  0  0  0
  2  3  1  0  0  0  0
  3  4  1  0  0  0  0
  4  5  1  0  0  0  0
  5  6  1  0  0  0  0
  6  7  1  0  0  0  0
  7  8  1  0  0  0  0
  8  9  1  0  0  0  0
  9 10  1  0  0  0  0
 10 11  1  0  0  0  0
 11 12  1  0  0  0  0
 12 13  1  0  0  0  0
 13 14  1  0  0  0  0
M  END
>  <CHROM.1>
-177.85939216,67.71852852,-133.45903870,-147.97335799,64.51041052,68.58326453
-178.23321296,179.47068267,-175.62079172,-178.33605883,-177.30642906,29.52027503
48.73332226,38.79981489,0.35486009,-0.74582239,2.39600969

>  <Name>
ligand

>  <RI>
0

>  <Rbt.Current_Directory>
/home/itssahil/PROJECTS/Mol_Feturizer/New_Systems/rnas/4P5J

>  <Rbt.Executable>
rbdock ($Id: //depot/dev/client3/rdock/2013.1/src/exe/rbdock.cxx#4 $)

>  <Rbt.Library>
libRbt.so (2013.1, Build901 2013/11/27)

>  <Rbt.Parameter_File>
/export/apps/rDock/src/rDock_2013.1_src/data/scripts/dock_solv.prm

>  <Rbt.Receptor>
prm/pocket_docking_2.prm

>  <SCORE>
2.35979

>  <SCORE.INTER>
10.7169

>  <SCORE.INTER.CONST>
1

>  <SCORE.INTER.POLAR>
0

>  <SCORE.INTER.ROT>
11

>  <SCORE.INTER.SOLV>
3.16556

>  <SCORE.INTER.VDW>
-4.84391

>  <SCORE.INTER.norm>
0.765494

>  <SCORE.INTRA>
-8.35713

>  <SCORE.INTRA.DIHEDRAL>
-15.1169

>  <SCORE.INTRA.DIHEDRAL.0>
17.5233

>  <SCORE.INTRA.POLAR>
0

>  <SCORE.INTRA.POLAR.0>
0

>  <SCORE.INTRA.REPUL>
0

>  <SCORE.INTRA.REPUL.0>
0

>  <SCORE.INTRA.SOLV>
-1.63358

>  <SCORE.INTRA.SOLV.lig_0>
-46.1043

>  <SCORE.INTRA.VDW>
0.0181207

>  <SCORE.INTRA.VDW.0>
-0.545445

>  <SCORE.INTRA.norm>
-0.596938

>  <SCORE.RESTR>
0

>  <SCORE.RESTR.CAVITY>
0

>  <SCORE.RESTR.norm>
0

>  <SCORE.SYSTEM>
0

>  <SCORE.SYSTEM.CONST>
0

>  <SCORE.SYSTEM.DIHEDRAL>
0

>  <SCORE.SYSTEM.SOLV>
0

>  <SCORE.SYSTEM.norm>
0

>  <SCORE.heavy>
14

>  <SCORE.norm>
0.168556

>  <RMSD>
1.378

$$$$
ligand
 OpenBabel11021811513D
libRbt.so/2013.1/901 2013/11/27
 14 13  0  0  0  0  0  0  0  0999 V2000
   26.1317   52.3602   42.0439 N   0  0  0  0  0  0  0  0  0  0  0  0
   25.4694   51.1728   41.5290 C   0  0  0  0  0  0  0  0  0  0  0  0
   25.8637   50.9339   40.0753 C   0  0  0  0  0  0  0  0  0  0  0  0
   27.3420   50.5805   39.9572 C   0  0  0  0  0  0  0  0  0  0  0  0
   27.7759   50.4078   38.5741 N   0  0  0  0  0  0  0  0  0  0  0  0
   29.1548   50.0664   38.2674 C   0  0  0  0  0  0  0  0  0  0  0  0
   29.3952   49.8593   36.7760 C   0  0  0  0  0  0  0  0  0  0  0  0
   30.8733   49.5886   36.5183 C   0  0  0  0  0  0  0  0  0  0  0  0
   31.2100   48.1521   36.9034 C   0  0  0  0  0  0  0  0  0  0  0  0
   31.1396   47.9408   38.3389 N   0  0  0  0  0  0  0  0  0  0  0  0
   31.0759   46.5819   38.8604 C   0  0  0  0  0  0  0  0  0  0  0  0
   32.3502   45.7630   38.6656 C   0  0  0  0  0  0  0  0  0  0  0  0
   32.1419   44.3209   39.1313 C   0  0  0  0  0  0  0  0  0  0  0  0
   33.3668   43.5572   38.9653 N   0  0  0  0  0  0  0  0  0  0  0  0
  1  2  1  0  0  0  0
  2  3  1  0  0  0  0
  3  4  1  0  0  0  0
  4  5  1  0  0  0  0
  5  6  1  0  0  0  0
  6  7  1  0  0  0  0
  7  8  1  0  0  0  0
  8  9  1  0  0  0  0
  9 10  1  0  0  0  0
 10 11  1  0  0  0  0
 11 12  1  0  0  0  0
 12 13  1  0  0  0  0
 13 14  1  0  0  0  0
M  END
>  <CHROM.1>
66.37085025,-177.18863150,-179.92584330,177.04574777,176.58616312,76.91262603
-68.78650780,163.72171883,68.19175647,-174.96760378,-178.93118604,29.52071753
48.66328515,38.90019600,2.87536345,0.77940123,-0.86499470

>  <Name>
ligand

>  <RI>
0

>  <Rbt.Current_Directory>
/home/itssahil/PROJECTS/Mol_Feturizer/New_Systems/rnas/4P5J

>  <Rbt.Executable>
rbdock ($Id: //depot/dev/client3/rdock/2013.1/src/exe/rbdock.cxx#4 $)

>  <Rbt.Library>
libRbt.so (2013.1, Build901 2013/11/27)

>  <Rbt.Parameter_File>
/export/apps/rDock/src/rDock_2013.1_src/data/scripts/dock_solv.prm

>  <Rbt.Receptor>
prm/pocket_docking_2.prm

>  <SCORE>
2.18884

>  <SCORE.INTER>
10.0177

>  <SCORE.INTER.CONST>
1

>  <SCORE.INTER.POLAR>
0

>  <SCORE.INTER.ROT>
11

>  <SCORE.INTER.SOLV>
3.04911

>  <SCORE.INTER.VDW>
-5.27124

>  <SCORE.INTER.norm>
0.71555

>  <SCORE.INTRA>
-7.83364

>  <SCORE.INTRA.DIHEDRAL>
-15.5208

>  <SCORE.INTRA.DIHEDRAL.0>
17.5233

>  <SCORE.INTRA.POLAR>
0

>  <SCORE.INTRA.POLAR.0>
0

>  <SCORE.INTRA.REPUL>
0

>  <SCORE.INTRA.REPUL.0>
0

>  <SCORE.INTRA.SOLV>
-0.795325

>  <SCORE.INTRA.SOLV.lig_0>
-46.1043

>  <SCORE.INTRA.VDW>
0.324408

>  <SCORE.INTRA.VDW.0>
-0.545445

>  <SCORE.INTRA.norm>
-0.559546

>  <SCORE.RESTR>
0.00478466

>  <SCORE.RESTR.CAVITY>
0.00478466

>  <SCORE.RESTR.norm>
0.000341761

>  <SCORE.SYSTEM>
0

>  <SCORE.SYSTEM.CONST>
0

>  <SCORE.SYSTEM.DIHEDRAL>
0

>  <SCORE.SYSTEM.SOLV>
0

>  <SCORE.SYSTEM.norm>
0

>  <SCORE.heavy>
14

>  <SCORE.norm>
0.156346

>  <RMSD>
1.385

$$$$
ligand
 OpenBabel11021811513D
libRbt.so/2013.1/901 2013/11/27
 14 13  0  0  0  0  0  0  0  0999 V2000
   25.6537   53.1874   42.1313 N   0  0  0  0  0  0  0  0  0  0  0  0
   24.8576   52.5156   41.1170 C   0  0  0  0  0  0  0  0  0  0  0  0
   25.5778   51.2671   40.6185 C   0  0  0  0  0  0  0  0  0  0  0  0
   26.8608   51.6303   39.8794 C   0  0  0  0  0  0  0  0  0  0  0  0
   27.5735   50.4620   39.3711 N   0  0  0  0  0  0  0  0  0  0  0  0
   28.8331   50.6131   38.6624 C   0  0  0  0  0  0  0  0  0  0  0  0
   29.3993   49.2848   38.1726 C   0  0  0  0  0  0  0  0  0  0  0  0
   30.7268   49.5147   37.4589 C   0  0  0  0  0  0  0  0  0  0  0  0
   31.2732   48.1874   36.9443 C   0  0  0  0  0  0  0  0  0  0  0  0
   31.5230   47.2453   38.0215 N   0  0  0  0  0  0  0  0  0  0  0  0
   31.8075   45.8524   37.7030 C   0  0  0  0  0  0  0  0  0  0  0  0
   32.2449   45.0018   38.8935 C   0  0  0  0  0  0  0  0  0  0  0  0
   32.4960   43.5561   38.4611 C   0  0  0  0  0  0  0  0  0  0  0  0
   32.9903   42.7749   39.5820 N   0  0  0  0  0  0  0  0  0  0  0  0
  1  2  1  0  0  0  0
  2  3  1  0  0  0  0
  3  4  1  0  0  0  0
  4  5  1  0  0  0  0
  5  6  1  0  0  0  0
  6  7  1  0  0  0  0
  7  8  1  0  0  0  0
  8  9  1  0  0  0  0
  9 10  1  0  0  0  0
 10 11  1  0  0  0  0
 11 12  1  0  0  0  0
 12 13  1  0  0  0  0
 13 14  1  0  0  0  0
M  END
>  <CHROM.1>
-65.82507674,-179.30532562,-178.76002952,-178.17928338,-179.15372555,-178.74796548
-61.01589799,168.65116152,171.81640294,179.05237205,176.50041088,29.41554246
48.64958949,39.07233666,2.67468192,0.77715143,-0.64857559

>  <Name>
ligand

>  <RI>
0

>  <Rbt.Current_Directory>
/home/itssahil/PROJECTS/Mol_Feturizer/New_Systems/rnas/4P5J

>  <Rbt.Executable>
rbdock ($Id: //depot/dev/client3/rdock/2013.1/src/exe/rbdock.cxx#4 $)

>  <Rbt.Library>
libRbt.so (2013.1, Build901 2013/11/27)

>  <Rbt.Parameter_File>
/export/apps/rDock/src/rDock_2013.1_src/data/scripts/dock_solv.prm

>  <Rbt.Receptor>
prm/pocket_docking_2.prm

>  <SCORE>
1.53939

>  <SCORE.INTER>
11.378

>  <SCORE.INTER.CONST>
1

>  <SCORE.INTER.POLAR>
0

>  <SCORE.INTER.ROT>
11

>  <SCORE.INTER.SOLV>
3.05747

>  <SCORE.INTER.VDW>
-4.36714

>  <SCORE.INTER.norm>
0.812716

>  <SCORE.INTRA>
-9.8393

>  <SCORE.INTRA.DIHEDRAL>
-17.1702

>  <SCORE.INTRA.DIHEDRAL.0>
17.5233

>  <SCORE.INTRA.POLAR>
0

>  <SCORE.INTRA.POLAR.0>
0

>  <SCORE.INTRA.REPUL>
0

>  <SCORE.INTRA.REPUL.0>
0

>  <SCORE.INTRA.SOLV>
-1.54234

>  <SCORE.INTRA.SOLV.lig_0>
-46.1043

>  <SCORE.INTRA.VDW>
-0.483026

>  <SCORE.INTRA.VDW.0>
-0.545445

>  <SCORE.INTRA.norm>
-0.702807

>  <SCORE.RESTR>
0.000661075

>  <SCORE.RESTR.CAVITY>
0.000661075

>  <SCORE.RESTR.norm>
4.72196e-05

>  <SCORE.SYSTEM>
0

>  <SCORE.SYSTEM.CONST>
0

>  <SCORE.SYSTEM.DIHEDRAL>
0

>  <SCORE.SYSTEM.SOLV>
0

>  <SCORE.SYSTEM.norm>
0

>  <SCORE.heavy>
14

>  <SCORE.norm>
0.109956

>  <RMSD>
1.389

$$$$
ligand
 OpenBabel11021811513D
libRbt.so/2013.1/901 2013/11/27
 14 13  0  0  0  0  0  0  0  0999 V2000
   33.6588   43.6438   38.3864 N   0  0  0  0  0  0  0  0  0  0  0  0
   32.2086   43.7041   38.4723 C   0  0  0  0  0  0  0  0  0  0  0  0
   31.7771   44.8838   39.3370 C   0  0  0  0  0  0  0  0  0  0  0  0
   32.0892   46.2103   38.6533 C   0  0  0  0  0  0  0  0  0  0  0  0
   31.7633   47.3669   39.4822 N   0  0  0  0  0  0  0  0  0  0  0  0
   31.5259   48.6674   38.8789 C   0  0  0  0  0  0  0  0  0  0  0  0
   30.0706   48.8749   38.4739 C   0  0  0  0  0  0  0  0  0  0  0  0
   29.8870   50.2682   37.8826 C   0  0  0  0  0  0  0  0  0  0  0  0
   28.4167   50.4987   37.5506 C   0  0  0  0  0  0  0  0  0  0  0  0
   27.5693   50.3989   38.7264 N   0  0  0  0  0  0  0  0  0  0  0  0
   27.4879   51.5244   39.6479 C   0  0  0  0  0  0  0  0  0  0  0  0
   26.5709   52.6575   39.1923 C   0  0  0  0  0  0  0  0  0  0  0  0
   26.5870   53.8051   40.2034 C   0  0  0  0  0  0  0  0  0  0  0  0
   26.0100   53.3719   41.4646 N   0  0  0  0  0  0  0  0  0  0  0  0
  1  2  1  0  0  0  0
  2  3  1  0  0  0  0
  3  4  1  0  0  0  0
  4  5  1  0  0  0  0
  5  6  1  0  0  0  0
  6  7  1  0  0  0  0
  7  8  1  0  0  0  0
  8  9  1  0  0  0  0
  9 10  1  0  0  0  0
 10 11  1  0  0  0  0
 11 12  1  0  0  0  0
 12 13  1  0  0  0  0
 13 14  1  0  0  0  0
M  END
>  <CHROM.1>
68.52730370,-176.62031920,-157.66780075,88.00080260,178.56721072,-176.88971770
60.16852978,79.16518297,79.24596205,-178.27280456,-65.51384023,29.68728491
48.99125937,39.02492815,0.25433499,-0.92011788,2.02905707

>  <Name>
ligand

>  <RI>
0

>  <Rbt.Current_Directory>
/home/itssahil/PROJECTS/Mol_Feturizer/New_Systems/rnas/4P5J

>  <Rbt.Executable>
rbdock ($Id: //depot/dev/client3/rdock/2013.1/src/exe/rbdock.cxx#4 $)

>  <Rbt.Library>
libRbt.so (2013.1, Build901 2013/11/27)

>  <Rbt.Parameter_File>
/export/apps/rDock/src/rDock_2013.1_src/data/scripts/dock_solv.prm

>  <Rbt.Receptor>
prm/pocket_docking_2.prm

>  <SCORE>
3.43828

>  <SCORE.INTER>
11.5142

>  <SCORE.INTER.CONST>
1

>  <SCORE.INTER.POLAR>
0

>  <SCORE.INTER.ROT>
11

>  <SCORE.INTER.SOLV>
2.26319

>  <SCORE.INTER.VDW>
-4.01161

>  <SCORE.INTER.norm>
0.822441

>  <SCORE.INTRA>
-8.08021

>  <SCORE.INTRA.DIHEDRAL>
-15.5756

>  <SCORE.INTRA.DIHEDRAL.0>
17.5233

>  <SCORE.INTRA.POLAR>
0

>  <SCORE.INTRA.POLAR.0>
0

>  <SCORE.INTRA.REPUL>
0

>  <SCORE.INTRA.REPUL.0>
0

>  <SCORE.INTRA.SOLV>
-0.77469

>  <SCORE.INTRA.SOLV.lig_0>
-46.1043

>  <SCORE.INTRA.VDW>
0.0949395

>  <SCORE.INTRA.VDW.0>
-0.545445

>  <SCORE.INTRA.norm>
-0.577158

>  <SCORE.RESTR>
0.00430853

>  <SCORE.RESTR.CAVITY>
0.00430853

>  <SCORE.RESTR.norm>
0.000307752

>  <SCORE.SYSTEM>
0

>  <SCORE.SYSTEM.CONST>
0

>  <SCORE.SYSTEM.DIHEDRAL>
0

>  <SCORE.SYSTEM.SOLV>
0

>  <SCORE.SYSTEM.norm>
0

>  <SCORE.heavy>
14

>  <SCORE.norm>
0.245591

>  <RMSD>
1.397

$$$$
ligand
 OpenBabel11021811513D
libRbt.so/2013.1/901 2013/11/27
 14 13  0  0  0  0  0  0  0  0999 V2000
   32.8661   43.0767   40.3726 N   0  0  0  0  0  0  0  0  0  0  0  0
   33.0353   44.4869   40.0615 C   0  0  0  0  0  0  0  0  0  0  0  0
   31.9729   44.9415   39.0663 C   0  0  0  0  0  0  0  0  0  0  0  0
   32.1899   46.3934   38.6549 C   0  0  0  0  0  0  0  0  0  0  0  0
   31.2238   46.8526   37.6614 N   0  0  0  0  0  0  0  0  0  0  0  0
   31.3859   48.1420   37.0112 C   0  0  0  0  0  0  0  0  0  0  0  0
   30.9706   49.3092   37.9000 C   0  0  0  0  0  0  0  0  0  0  0  0
   29.4856   49.2104   38.2311 C   0  0  0  0  0  0  0  0  0  0  0  0
   29.0663   50.4025   39.0844 C   0  0  0  0  0  0  0  0  0  0  0  0
   27.6423   50.3942   39.3720 N   0  0  0  0  0  0  0  0  0  0  0  0
   27.0478   51.5215   40.0778 C   0  0  0  0  0  0  0  0  0  0  0  0
   25.5559   51.3765   40.3705 C   0  0  0  0  0  0  0  0  0  0  0  0
   25.0095   52.6433   41.0311 C   0  0  0  0  0  0  0  0  0  0  0  0
   25.6071   52.8237   42.3432 N   0  0  0  0  0  0  0  0  0  0  0  0
  1  2  1  0  0  0  0
  2  3  1  0  0  0  0
  3  4  1  0  0  0  0
  4  5  1  0  0  0  0
  5  6  1  0  0  0  0
  6  7  1  0  0  0  0
  7  8  1  0  0  0  0
  8  9  1  0  0  0  0
  9 10  1  0  0  0  0
 10 11  1  0  0  0  0
 11 12  1  0  0  0  0
 12 13  1  0  0  0  0
 13 14  1  0  0  0  0
M  END
>  <CHROM.1>
-176.16898878,177.72964643,-171.25823121,-77.35888859,-62.77883285,-178.26862195
177.04931431,-174.68922736,-177.76306706,-176.39486095,-65.60275831,29.50428418
48.68403885,39.37391780,0.34118100,-0.78225354,2.27273064

>  <Name>
ligand

>  <RI>
0

>  <Rbt.Current_Directory>
/home/itssahil/PROJECTS/Mol_Feturizer/New_Systems/rnas/4P5J

>  <Rbt.Executable>
rbdock ($Id: //depot/dev/client3/rdock/2013.1/src/exe/rbdock.cxx#4 $)

>  <Rbt.Library>
libRbt.so (2013.1, Build901 2013/11/27)

>  <Rbt.Parameter_File>
/export/apps/rDock/src/rDock_2013.1_src/data/scripts/dock_solv.prm

>  <Rbt.Receptor>
prm/pocket_docking_2.prm

>  <SCORE>
2.40464

>  <SCORE.INTER>
11.9773

>  <SCORE.INTER.CONST>
1

>  <SCORE.INTER.POLAR>
0

>  <SCORE.INTER.ROT>
11

>  <SCORE.INTER.SOLV>
3.30955

>  <SCORE.INTER.VDW>
-4.05164

>  <SCORE.INTER.norm>
0.855523

>  <SCORE.INTRA>
-9.57268

>  <SCORE.INTRA.DIHEDRAL>
-16.8868

>  <SCORE.INTRA.DIHEDRAL.0>
17.5233

>  <SCORE.INTRA.POLAR>
0

>  <SCORE.INTRA.POLAR.0>
0

>  <SCORE.INTRA.REPUL>
0

>  <SCORE.INTRA.REPUL.0>
0

>  <SCORE.INTRA.SOLV>
-1.57291

>  <SCORE.INTRA.SOLV.lig_0>
-46.1043

>  <SCORE.INTRA.VDW>
-0.342842

>  <SCORE.INTRA.VDW.0>
-0.545445

>  <SCORE.INTRA.norm>
-0.683763

>  <SCORE.RESTR>
0

>  <SCORE.RESTR.CAVITY>
0

>  <SCORE.RESTR.norm>
0

>  <SCORE.SYSTEM>
0

>  <SCORE.SYSTEM.CONST>
0

>  <SCORE.SYSTEM.DIHEDRAL>
0

>  <SCORE.SYSTEM.SOLV>
0

>  <SCORE.SYSTEM.norm>
0

>  <SCORE.heavy>
14

>  <SCORE.norm>
0.17176

>  <RMSD>
1.404

$$$$
ligand
 OpenBabel11021811513D
libRbt.so/2013.1/901 2013/11/27
 14 13  0  0  0  0  0  0  0  0999 V2000
   32.5631   44.7832   40.0565 N   0  0  0  0  0  0  0  0  0  0  0  0
   31.3569   45.5618   40.2861 C   0  0  0  0  0  0  0  0  0  0  0  0
   31.4346   46.8915   39.5432 C   0  0  0  0  0  0  0  0  0  0  0  0
   31.4310   46.6792   38.0335 C   0  0  0  0  0  0  0  0  0  0  0  0
   31.5511   47.9265   37.2845 N   0  0  0  0  0  0  0  0  0  0  0  0
   30.4751   48.9032   37.2945 C   0  0  0  0  0  0  0  0  0  0  0  0
   30.7189   50.0419   38.2788 C   0  0  0  0  0  0  0  0  0  0  0  0
   29.4965   50.9509   38.3385 C   0  0  0  0  0  0  0  0  0  0  0  0
   28.3522   50.2319   39.0447 C   0  0  0  0  0  0  0  0  0  0  0  0
   27.1820   51.0802   39.1912 N   0  0  0  0  0  0  0  0  0  0  0  0
   27.1637   52.1019   40.2296 C   0  0  0  0  0  0  0  0  0  0  0  0
   25.9644   53.0459   40.1754 C   0  0  0  0  0  0  0  0  0  0  0  0
   26.0480   54.0899   41.2903 C   0  0  0  0  0  0  0  0  0  0  0  0
   24.9072   54.9873   41.2251 N   0  0  0  0  0  0  0  0  0  0  0  0
  1  2  1  0  0  0  0
  2  3  1  0  0  0  0
  3  4  1  0  0  0  0
  4  5  1  0  0  0  0
  5  6  1  0  0  0  0
  6  7  1  0  0  0  0
  7  8  1  0  0  0  0
  8  9  1  0  0  0  0
  9 10  1  0  0  0  0
 10 11  1  0  0  0  0
 11 12  1  0  0  0  0
 12 13  1  0  0  0  0
 13 14  1  0  0  0  0
M  END
>  <CHROM.1>
66.08468186,-178.00416200,-67.99389225,98.86742580,-174.43691016,70.90682523
177.00270649,-77.41429613,172.54709362,-179.18985116,179.66743609,29.18894404
49.80542401,39.30507338,0.33095139,-0.86375393,2.21755769

>  <Name>
ligand

>  <RI>
0

>  <Rbt.Current_Directory>
/home/itssahil/PROJECTS/Mol_Feturizer/New_Systems/rnas/4P5J

>  <Rbt.Executable>
rbdock ($Id: //depot/dev/client3/rdock/2013.1/src/exe/rbdock.cxx#4 $)

>  <Rbt.Library>
libRbt.so (2013.1, Build901 2013/11/27)

>  <Rbt.Parameter_File>
/export/apps/rDock/src/rDock_2013.1_src/data/scripts/dock_solv.prm

>  <Rbt.Receptor>
prm/pocket_docking_2.prm

>  <SCORE>
3.57433

>  <SCORE.INTER>
11.6074

>  <SCORE.INTER.CONST>
1

>  <SCORE.INTER.POLAR>
0

>  <SCORE.INTER.ROT>
11

>  <SCORE.INTER.SOLV>
2.41667

>  <SCORE.INTER.VDW>
-4.00061

>  <SCORE.INTER.norm>
0.829101

>  <SCORE.INTRA>
-8.03309

>  <SCORE.INTRA.DIHEDRAL>
-15.5325

>  <SCORE.INTRA.DIHEDRAL.0>
17.5233

>  <SCORE.INTRA.POLAR>
0

>  <SCORE.INTRA.POLAR.0>
0

>  <SCORE.INTRA.REPUL>
0

>  <SCORE.INTRA.REPUL.0>
0

>  <SCORE.INTRA.SOLV>
-1.70216

>  <SCORE.INTRA.SOLV.lig_0>
-46.1043

>  <SCORE.INTRA.VDW>
0.584242

>  <SCORE.INTRA.VDW.0>
-0.545445

>  <SCORE.INTRA.norm>
-0.573792

>  <SCORE.RESTR>
0

>  <SCORE.RESTR.CAVITY>
0

>  <SCORE.RESTR.norm>
0

>  <SCORE.SYSTEM>
0

>  <SCORE.SYSTEM.CONST>
0

>  <SCORE.SYSTEM.DIHEDRAL>
0

>  <SCORE.SYSTEM.SOLV>
0

>  <SCORE.SYSTEM.norm>
0

>  <SCORE.heavy>
14

>  <SCORE.norm>
0.25531

>  <RMSD>
1.408

$$$$
ligand
 OpenBabel11021811513D
libRbt.so/2013.1/901 2013/11/27
 14 13  0  0  0  0  0  0  0  0999 V2000
   31.9854   44.5362   40.5312 N   0  0  0  0  0  0  0  0  0  0  0  0
   32.3748   44.7281   39.1435 C   0  0  0  0  0  0  0  0  0  0  0  0
   31.3714   45.6287   38.4309 C   0  0  0  0  0  0  0  0  0  0  0  0
   31.3459   47.0217   39.0499 C   0  0  0  0  0  0  0  0  0  0  0  0
   30.5038   47.9567   38.3096 N   0  0  0  0  0  0  0  0  0  0  0  0
   31.0504   48.7365   37.2119 C   0  0  0  0  0  0  0  0  0  0  0  0
   29.9777   49.4762   36.4201 C   0  0  0  0  0  0  0  0  0  0  0  0
   29.3792   50.5924   37.2686 C   0  0  0  0  0  0  0  0  0  0  0  0
   28.3977   50.0051   38.2770 C   0  0  0  0  0  0  0  0  0  0  0  0
   27.6444   51.0360   38.9699 N   0  0  0  0  0  0  0  0  0  0  0  0
   26.6239   50.6503   39.9355 C   0  0  0  0  0  0  0  0  0  0  0  0
   25.6070   51.7424   40.2604 C   0  0  0  0  0  0  0  0  0  0  0  0
   26.2929   52.9399   40.9201 C   0  0  0  0  0  0  0  0  0  0  0  0
   25.3143   53.9637   41.2447 N   0  0  0  0  0  0  0  0  0  0  0  0
  1  2  1  0  0  0  0
  2  3  1  0  0  0  0
  3  4  1  0  0  0  0
  4  5  1  0  0  0  0
  5  6  1  0  0  0  0
  6  7  1  0  0  0  0
  7  8  1  0  0  0  0
  8  9  1  0  0  0  0
  9 10  1  0  0  0  0
 10 11  1  0  0  0  0
 11 12  1  0  0  0  0
 12 13  1  0  0  0  0
 13 14  1  0  0  0  0
M  END
>  <CHROM.1>
63.00540661,173.89679769,-88.48208746,170.49822013,69.16447022,-77.36486003
-171.07054493,177.74579286,-161.16116095,-63.21155510,-179.07961468,29.13360666
49.21521387,38.99777869,0.31457218,-0.83914140,2.19290498

>  <Name>
ligand

>  <RI>
0

>  <Rbt.Current_Directory>
/home/itssahil/PROJECTS/Mol_Feturizer/New_Systems/rnas/4P5J

>  <Rbt.Executable>
rbdock ($Id: //depot/dev/client3/rdock/2013.1/src/exe/rbdock.cxx#4 $)

>  <Rbt.Library>
libRbt.so (2013.1, Build901 2013/11/27)

>  <Rbt.Parameter_File>
/export/apps/rDock/src/rDock_2013.1_src/data/scripts/dock_solv.prm

>  <Rbt.Receptor>
prm/pocket_docking_2.prm

>  <SCORE>
2.63937

>  <SCORE.INTER>
10.09

>  <SCORE.INTER.CONST>
1

>  <SCORE.INTER.POLAR>
0

>  <SCORE.INTER.ROT>
11

>  <SCORE.INTER.SOLV>
4.75571

>  <SCORE.INTER.VDW>
-5.7919

>  <SCORE.INTER.norm>
0.720715

>  <SCORE.INTRA>
-7.45236

>  <SCORE.INTRA.DIHEDRAL>
-14.6211

>  <SCORE.INTRA.DIHEDRAL.0>
17.5233

>  <SCORE.INTRA.POLAR>
0

>  <SCORE.INTRA.POLAR.0>
0

>  <SCORE.INTRA.REPUL>
0

>  <SCORE.INTRA.REPUL.0>
0

>  <SCORE.INTRA.SOLV>
-0.547633

>  <SCORE.INTRA.SOLV.lig_0>
-46.1043

>  <SCORE.INTRA.VDW>
0.132001

>  <SCORE.INTRA.VDW.0>
-0.545445

>  <SCORE.INTRA.norm>
-0.532311

>  <SCORE.RESTR>
0.00172063

>  <SCORE.RESTR.CAVITY>
0.00172063

>  <SCORE.RESTR.norm>
0.000122902

>  <SCORE.SYSTEM>
0

>  <SCORE.SYSTEM.CONST>
0

>  <SCORE.SYSTEM.DIHEDRAL>
0

>  <SCORE.SYSTEM.SOLV>
0

>  <SCORE.SYSTEM.norm>
0

>  <SCORE.heavy>
14

>  <SCORE.norm>
0.188526

>  <RMSD>
1.428

$$$$
ligand
 OpenBabel11021811513D
libRbt.so/2013.1/901 2013/11/27
 14 13  0  0  0  0  0  0  0  0999 V2000
   25.3595   52.7190   40.6108 N   0  0  0  0  0  0  0  0  0  0  0  0
   26.3466   52.1697   41.5263 C   0  0  0  0  0  0  0  0  0  0  0  0
   27.2822   51.2178   40.7886 C   0  0  0  0  0  0  0  0  0  0  0  0
   28.1096   51.9588   39.7444 C   0  0  0  0  0  0  0  0  0  0  0  0
   28.9816   51.0736   38.9780 N   0  0  0  0  0  0  0  0  0  0  0  0
   28.4371   50.2134   37.9410 C   0  0  0  0  0  0  0  0  0  0  0  0
   29.5130   49.6273   37.0334 C   0  0  0  0  0  0  0  0  0  0  0  0
   30.4269   48.7066   37.8344 C   0  0  0  0  0  0  0  0  0  0  0  0
   31.5004   48.1232   36.9221 C   0  0  0  0  0  0  0  0  0  0  0  0
   32.3081   47.1235   37.5993 N   0  0  0  0  0  0  0  0  0  0  0  0
   32.2381   45.7339   37.1673 C   0  0  0  0  0  0  0  0  0  0  0  0
   31.3561   44.8391   38.0355 C   0  0  0  0  0  0  0  0  0  0  0  0
   31.9453   44.6996   39.4402 C   0  0  0  0  0  0  0  0  0  0  0  0
   33.2089   43.9844   39.3866 N   0  0  0  0  0  0  0  0  0  0  0  0
  1  2  1  0  0  0  0
  2  3  1  0  0  0  0
  3  4  1  0  0  0  0
  4  5  1  0  0  0  0
  5  6  1  0  0  0  0
  6  7  1  0  0  0  0
  7  8  1  0  0  0  0
  8  9  1  0  0  0  0
  9 10  1  0  0  0  0
 10 11  1  0  0  0  0
 11 12  1  0  0  0  0
 12 13  1  0  0  0  0
 13 14  1  0  0  0  0
M  END
>  <CHROM.1>
64.83235570,-177.72123687,75.33936468,165.96317400,64.34888859,179.98982624
-173.58369972,113.65359586,-100.31471052,-65.57726924,-66.00316673,29.78660493
48.72786474,38.78612883,2.85086398,0.87840887,-0.89775841

>  <Name>
ligand

>  <RI>
0

>  <Rbt.Current_Directory>
/home/itssahil/PROJECTS/Mol_Feturizer/New_Systems/rnas/4P5J

>  <Rbt.Executable>
rbdock ($Id: //depot/dev/client3/rdock/2013.1/src/exe/rbdock.cxx#4 $)

>  <Rbt.Library>
libRbt.so (2013.1, Build901 2013/11/27)

>  <Rbt.Parameter_File>
/export/apps/rDock/src/rDock_2013.1_src/data/scripts/dock_solv.prm

>  <Rbt.Receptor>
prm/pocket_docking_2.prm

>  <SCORE>
2.2846

>  <SCORE.INTER>
9.70826

>  <SCORE.INTER.CONST>
1

>  <SCORE.INTER.POLAR>
0

>  <SCORE.INTER.ROT>
11

>  <SCORE.INTER.SOLV>
2.79445

>  <SCORE.INTER.VDW>
-5.39265

>  <SCORE.INTER.norm>
0.693447

>  <SCORE.INTRA>
-7.42366

>  <SCORE.INTRA.DIHEDRAL>
-14.5242

>  <SCORE.INTRA.DIHEDRAL.0>
17.5233

>  <SCORE.INTRA.POLAR>
0

>  <SCORE.INTRA.POLAR.0>
0

>  <SCORE.INTRA.REPUL>
0

>  <SCORE.INTRA.REPUL.0>
0

>  <SCORE.INTRA.SOLV>
0.145009

>  <SCORE.INTRA.SOLV.lig_0>
-46.1043

>  <SCORE.INTRA.VDW>
-0.234047

>  <SCORE.INTRA.VDW.0>
-0.545445

>  <SCORE.INTRA.norm>
-0.530261

>  <SCORE.RESTR>
0

>  <SCORE.RESTR.CAVITY>
0

>  <SCORE.RESTR.norm>
0

>  <SCORE.SYSTEM>
0

>  <SCORE.SYSTEM.CONST>
0

>  <SCORE.SYSTEM.DIHEDRAL>
0

>  <SCORE.SYSTEM.SOLV>
0

>  <SCORE.SYSTEM.norm>
0

>  <SCORE.heavy>
14

>  <SCORE.norm>
0.163185

>  <RMSD>
1.442

$$$$
ligand
 OpenBabel11021811513D
libRbt.so/2013.1/901 2013/11/27
 14 13  0  0  0  0  0  0  0  0999 V2000
   25.2571   53.2381   40.9185 N   0  0  0  0  0  0  0  0  0  0  0  0
   24.8498   51.8433   40.8676 C   0  0  0  0  0  0  0  0  0  0  0  0
   26.0432   50.9542   40.5344 C   0  0  0  0  0  0  0  0  0  0  0  0
   26.5722   51.2451   39.1345 C   0  0  0  0  0  0  0  0  0  0  0  0
   27.7078   50.4032   38.7702 N   0  0  0  0  0  0  0  0  0  0  0  0
   28.3937   50.5922   37.5030 C   0  0  0  0  0  0  0  0  0  0  0  0
   29.4214   49.5023   37.2184 C   0  0  0  0  0  0  0  0  0  0  0  0
   30.5675   49.5913   38.2198 C   0  0  0  0  0  0  0  0  0  0  0  0
   31.6272   48.5470   37.8860 C   0  0  0  0  0  0  0  0  0  0  0  0
   31.1225   47.1921   38.0278 N   0  0  0  0  0  0  0  0  0  0  0  0
   32.0434   46.0692   37.9119 C   0  0  0  0  0  0  0  0  0  0  0  0
   31.5153   44.7502   38.4721 C   0  0  0  0  0  0  0  0  0  0  0  0
   32.6001   43.6725   38.4294 C   0  0  0  0  0  0  0  0  0  0  0  0
   33.6985   44.0298   39.3108 N   0  0  0  0  0  0  0  0  0  0  0  0
  1  2  1  0  0  0  0
  2  3  1  0  0  0  0
  3  4  1  0  0  0  0
  4  5  1  0  0  0  0
  5  6  1  0  0  0  0
  6  7  1  0  0  0  0
  7  8  1  0  0  0  0
  8  9  1  0  0  0  0
  9 10  1  0  0  0  0
 10 11  1  0  0  0  0
 11 12  1  0  0  0  0
 12 13  1  0  0  0  0
 13 14  1  0  0  0  0
M  END
>  <CHROM.1>
-64.70813226,-179.36445282,-176.37281817,-172.05597306,-66.65213837,-177.04003503
-64.24841824,-172.36800091,162.84138260,-174.42455944,64.82489235,29.38709560
48.68787829,38.80013019,2.65238205,0.68771013,-0.64078058

>  <Name>
ligand

>  <RI>
0

>  <Rbt.Current_Directory>
/home/itssahil/PROJECTS/Mol_Feturizer/New_Systems/rnas/4P5J

>  <Rbt.Executable>
rbdock ($Id: //depot/dev/client3/rdock/2013.1/src/exe/rbdock.cxx#4 $)

>  <Rbt.Library>
libRbt.so (2013.1, Build901 2013/11/27)

>  <Rbt.Parameter_File>
/export/apps/rDock/src/rDock_2013.1_src/data/scripts/dock_solv.prm

>  <Rbt.Receptor>
prm/pocket_docking_2.prm

>  <SCORE>
1.78805

>  <SCORE.INTER>
10.5587

>  <SCORE.INTER.CONST>
1

>  <SCORE.INTER.POLAR>
0

>  <SCORE.INTER.ROT>
11

>  <SCORE.INTER.SOLV>
3.20419

>  <SCORE.INTER.VDW>
-4.96226

>  <SCORE.INTER.norm>
0.754193

>  <SCORE.INTRA>
-8.77694

>  <SCORE.INTRA.DIHEDRAL>
-16.628

>  <SCORE.INTRA.DIHEDRAL.0>
17.5233

>  <SCORE.INTRA.POLAR>
0

>  <SCORE.INTRA.POLAR.0>
0

>  <SCORE.INTRA.REPUL>
0

>  <SCORE.INTRA.REPUL.0>
0

>  <SCORE.INTRA.SOLV>
-0.339196

>  <SCORE.INTRA.SOLV.lig_0>
-46.1043

>  <SCORE.INTRA.VDW>
-0.293339

>  <SCORE.INTRA.VDW.0>
-0.545445

>  <SCORE.INTRA.norm>
-0.626924

>  <SCORE.RESTR>
0.00629099

>  <SCORE.RESTR.CAVITY>
0.00629099

>  <SCORE.RESTR.norm>
0.000449357

>  <SCORE.SYSTEM>
0

>  <SCORE.SYSTEM.CONST>
0

>  <SCORE.SYSTEM.DIHEDRAL>
0

>  <SCORE.SYSTEM.SOLV>
0

>  <SCORE.SYSTEM.norm>
0

>  <SCORE.heavy>
14

>  <SCORE.norm>
0.127718

>  <RMSD>
1.443

$$$$
ligand
 OpenBabel11021811513D
libRbt.so/2013.1/901 2013/11/27
 14 13  0  0  0  0  0  0  0  0999 V2000
   25.0329   53.4083   40.1953 N   0  0  0  0  0  0  0  0  0  0  0  0
   25.8066   52.6797   41.1875 C   0  0  0  0  0  0  0  0  0  0  0  0
   27.2867   52.6930   40.8201 C   0  0  0  0  0  0  0  0  0  0  0  0
   27.5399   51.9234   39.5286 C   0  0  0  0  0  0  0  0  0  0  0  0
   28.9539   51.8650   39.1703 N   0  0  0  0  0  0  0  0  0  0  0  0
   29.3758   51.2671   37.9148 C   0  0  0  0  0  0  0  0  0  0  0  0
   29.3476   49.7429   37.9464 C   0  0  0  0  0  0  0  0  0  0  0  0
   30.2811   49.2262   39.0354 C   0  0  0  0  0  0  0  0  0  0  0  0
   30.2605   47.7016   39.0526 C   0  0  0  0  0  0  0  0  0  0  0  0
   31.1269   47.1554   40.0830 N   0  0  0  0  0  0  0  0  0  0  0  0
   31.3388   45.7156   40.1512 C   0  0  0  0  0  0  0  0  0  0  0  0
   32.4385   45.1880   39.2321 C   0  0  0  0  0  0  0  0  0  0  0  0
   32.5677   43.6693   39.3612 C   0  0  0  0  0  0  0  0  0  0  0  0
   33.6269   43.1795   38.4956 N   0  0  0  0  0  0  0  0  0  0  0  0
  1  2  1  0  0  0  0
  2  3  1  0  0  0  0
  3  4  1  0  0  0  0
  4  5  1  0  0  0  0
  5  6  1  0  0  0  0
  6  7  1  0  0  0  0
  7  8  1  0  0  0  0
  8  9  1  0  0  0  0
  9 10  1  0  0  0  0
 10 11  1  0  0  0  0
 11 12  1  0  0  0  0
 12 13  1  0  0  0  0
 13 14  1  0  0  0  0
M  END
>  <CHROM.1>
-65.53064434,-177.62772467,-174.95305776,-76.81425108,-60.02723478,-179.39024526
-179.50022268,-173.56180647,84.71231693,-179.12766154,-179.30236125,29.64168994
48.95823813,39.44099393,2.53704620,0.79132560,-0.69402305

>  <Name>
ligand

>  <RI>
0

>  <Rbt.Current_Directory>
/home/itssahil/PROJECTS/Mol_Feturizer/New_Systems/rnas/4P5J

>  <Rbt.Executable>
rbdock ($Id: //depot/dev/client3/rdock/2013.1/src/exe/rbdock.cxx#4 $)

>  <Rbt.Library>
libRbt.so (2013.1, Build901 2013/11/27)

>  <Rbt.Parameter_File>
/export/apps/rDock/src/rDock_2013.1_src/data/scripts/dock_solv.prm

>  <Rbt.Receptor>
prm/pocket_docking_2.prm

>  <SCORE>
2.25898

>  <SCORE.INTER>
11.5846

>  <SCORE.INTER.CONST>
1

>  <SCORE.INTER.POLAR>
0

>  <SCORE.INTER.ROT>
11

>  <SCORE.INTER.SOLV>
2.16441

>  <SCORE.INTER.VDW>
-3.93172

>  <SCORE.INTER.norm>
0.827473

>  <SCORE.INTRA>
-9.32565

>  <SCORE.INTRA.DIHEDRAL>
-16.6714

>  <SCORE.INTRA.DIHEDRAL.0>
17.5233

>  <SCORE.INTRA.POLAR>
0

>  <SCORE.INTRA.POLAR.0>
0

>  <SCORE.INTRA.REPUL>
0

>  <SCORE.INTRA.REPUL.0>
0

>  <SCORE.INTRA.SOLV>
-1.54902

>  <SCORE.INTRA.SOLV.lig_0>
-46.1043

>  <SCORE.INTRA.VDW>
-0.215448

>  <SCORE.INTRA.VDW.0>
-0.545445

>  <SCORE.INTRA.norm>
-0.666118

>  <SCORE.RESTR>
0

>  <SCORE.RESTR.CAVITY>
0

>  <SCORE.RESTR.norm>
0

>  <SCORE.SYSTEM>
0

>  <SCORE.SYSTEM.CONST>
0

>  <SCORE.SYSTEM.DIHEDRAL>
0

>  <SCORE.SYSTEM.SOLV>
0

>  <SCORE.SYSTEM.norm>
0

>  <SCORE.heavy>
14

>  <SCORE.norm>
0.161355

>  <RMSD>
1.462

$$$$
ligand
 OpenBabel11021811513D
libRbt.so/2013.1/901 2013/11/27
 14 13  0  0  0  0  0  0  0  0999 V2000
   33.5379   42.9641   40.5295 N   0  0  0  0  0  0  0  0  0  0  0  0
   32.7606   43.5617   39.4560 C   0  0  0  0  0  0  0  0  0  0  0  0
   32.2887   44.9558   39.8554 C   0  0  0  0  0  0  0  0  0  0  0  0
   31.4968   45.6121   38.7301 C   0  0  0  0  0  0  0  0  0  0  0  0
   31.0824   46.9754   39.0475 N   0  0  0  0  0  0  0  0  0  0  0  0
   30.7448   47.9124   37.9892 C   0  0  0  0  0  0  0  0  0  0  0  0
   29.8900   49.0758   38.4796 C   0  0  0  0  0  0  0  0  0  0  0  0
   29.4661   49.9452   37.3011 C   0  0  0  0  0  0  0  0  0  0  0  0
   28.6898   51.1567   37.8058 C   0  0  0  0  0  0  0  0  0  0  0  0
   27.4695   50.7747   38.4953 N   0  0  0  0  0  0  0  0  0  0  0  0
   26.8912   51.6784   39.4809 C   0  0  0  0  0  0  0  0  0  0  0  0
   25.7762   51.0695   40.3286 C   0  0  0  0  0  0  0  0  0  0  0  0
   25.2747   52.0764   41.3651 C   0  0  0  0  0  0  0  0  0  0  0  0
   24.6555   53.2124   40.7038 N   0  0  0  0  0  0  0  0  0  0  0  0
  1  2  1  0  0  0  0
  2  3  1  0  0  0  0
  3  4  1  0  0  0  0
  4  5  1  0  0  0  0
  5  6  1  0  0  0  0
  6  7  1  0  0  0  0
  7  8  1  0  0  0  0
  8  9  1  0  0  0  0
  9 10  1  0  0  0  0
 10 11  1  0  0  0  0
 11 12  1  0  0  0  0
 12 13  1  0  0  0  0
 13 14  1  0  0  0  0
M  END
>  <CHROM.1>
178.75707598,-177.16664277,158.50972334,159.74645745,-174.75735656,-176.28263906
-61.90415418,155.45837200,-168.79199569,177.79206198,64.68705083,29.28748536
48.64081403,39.25466308,0.47586542,-0.74499665,2.27790349

>  <Name>
ligand

>  <RI>
0

>  <Rbt.Current_Directory>
/home/itssahil/PROJECTS/Mol_Feturizer/New_Systems/rnas/4P5J

>  <Rbt.Executable>
rbdock ($Id: //depot/dev/client3/rdock/2013.1/src/exe/rbdock.cxx#4 $)

>  <Rbt.Library>
libRbt.so (2013.1, Build901 2013/11/27)

>  <Rbt.Parameter_File>
/export/apps/rDock/src/rDock_2013.1_src/data/scripts/dock_solv.prm

>  <Rbt.Receptor>
prm/pocket_docking_2.prm

>  <SCORE>
1.92604

>  <SCORE.INTER>
11.2122

>  <SCORE.INTER.CONST>
1

>  <SCORE.INTER.POLAR>
0

>  <SCORE.INTER.ROT>
11

>  <SCORE.INTER.SOLV>
3.38901

>  <SCORE.INTER.VDW>
-4.58818

>  <SCORE.INTER.norm>
0.800874

>  <SCORE.INTRA>
-9.28619

>  <SCORE.INTRA.DIHEDRAL>
-16.0316

>  <SCORE.INTRA.DIHEDRAL.0>
17.5233

>  <SCORE.INTRA.POLAR>
0

>  <SCORE.INTRA.POLAR.0>
0

>  <SCORE.INTRA.REPUL>
0

>  <SCORE.INTRA.REPUL.0>
0

>  <SCORE.INTRA.SOLV>
-1.54058

>  <SCORE.INTRA.SOLV.lig_0>
-46.1043

>  <SCORE.INTRA.VDW>
-0.500103

>  <SCORE.INTRA.VDW.0>
-0.545445

>  <SCORE.INTRA.norm>
-0.6633

>  <SCORE.RESTR>
0

>  <SCORE.RESTR.CAVITY>
0

>  <SCORE.RESTR.norm>
0

>  <SCORE.SYSTEM>
0

>  <SCORE.SYSTEM.CONST>
0

>  <SCORE.SYSTEM.DIHEDRAL>
0

>  <SCORE.SYSTEM.SOLV>
0

>  <SCORE.SYSTEM.norm>
0

>  <SCORE.heavy>
14

>  <SCORE.norm>
0.137574

>  <RMSD>
1.474

$$$$
ligand
 OpenBabel11021811513D
libRbt.so/2013.1/901 2013/11/27
 14 13  0  0  0  0  0  0  0  0999 V2000
   24.9936   51.8541   42.2519 N   0  0  0  0  0  0  0  0  0  0  0  0
   25.2812   51.3868   40.9054 C   0  0  0  0  0  0  0  0  0  0  0  0
   26.7721   51.5093   40.6088 C   0  0  0  0  0  0  0  0  0  0  0  0
   27.0907   51.0476   39.1912 C   0  0  0  0  0  0  0  0  0  0  0  0
   28.4963   51.2244   38.8388 N   0  0  0  0  0  0  0  0  0  0  0  0
   28.9285   51.1441   37.4536 C   0  0  0  0  0  0  0  0  0  0  0  0
   29.4098   49.7508   37.0640 C   0  0  0  0  0  0  0  0  0  0  0  0
   30.5787   49.3355   37.9503 C   0  0  0  0  0  0  0  0  0  0  0  0
   31.1084   47.9772   37.5038 C   0  0  0  0  0  0  0  0  0  0  0  0
   32.1370   47.4719   38.3965 N   0  0  0  0  0  0  0  0  0  0  0  0
   32.6081   46.1017   38.2434 C   0  0  0  0  0  0  0  0  0  0  0  0
   31.5828   45.0299   38.6070 C   0  0  0  0  0  0  0  0  0  0  0  0
   32.1765   43.6316   38.4274 C   0  0  0  0  0  0  0  0  0  0  0  0
   33.2718   43.4270   39.3600 N   0  0  0  0  0  0  0  0  0  0  0  0
  1  2  1  0  0  0  0
  2  3  1  0  0  0  0
  3  4  1  0  0  0  0
  4  5  1  0  0  0  0
  5  6  1  0  0  0  0
  6  7  1  0  0  0  0
  7  8  1  0  0  0  0
  8  9  1  0  0  0  0
  9 10  1  0  0  0  0
 10 11  1  0  0  0  0
 11 12  1  0  0  0  0
 12 13  1  0  0  0  0
 13 14  1  0  0  0  0
M  END
>  <CHROM.1>
-178.96622212,176.52367850,-165.37413874,-94.13070332,-59.16691187,-176.71021200
-174.29185752,170.56563305,-68.46726668,-179.40150993,64.59770740,29.60246718
48.63519802,38.91410025,2.66906731,0.73172685,-0.64740333

>  <Name>
ligand

>  <RI>
0

>  <Rbt.Current_Directory>
/home/itssahil/PROJECTS/Mol_Feturizer/New_Systems/rnas/4P5J

>  <Rbt.Executable>
rbdock ($Id: //depot/dev/client3/rdock/2013.1/src/exe/rbdock.cxx#4 $)

>  <Rbt.Library>
libRbt.so (2013.1, Build901 2013/11/27)

>  <Rbt.Parameter_File>
/export/apps/rDock/src/rDock_2013.1_src/data/scripts/dock_solv.prm

>  <Rbt.Receptor>
prm/pocket_docking_2.prm

>  <SCORE>
2.15156

>  <SCORE.INTER>
11.0888

>  <SCORE.INTER.CONST>
1

>  <SCORE.INTER.POLAR>
0

>  <SCORE.INTER.ROT>
11

>  <SCORE.INTER.SOLV>
2.38191

>  <SCORE.INTER.VDW>
-4.33474

>  <SCORE.INTER.norm>
0.792061

>  <SCORE.INTRA>
-8.93843

>  <SCORE.INTRA.DIHEDRAL>
-16.1964

>  <SCORE.INTRA.DIHEDRAL.0>
17.5233

>  <SCORE.INTRA.POLAR>
0

>  <SCORE.INTRA.POLAR.0>
0

>  <SCORE.INTRA.REPUL>
0

>  <SCORE.INTRA.REPUL.0>
0

>  <SCORE.INTRA.SOLV>
-1.50555

>  <SCORE.INTRA.SOLV.lig_0>
-46.1043

>  <SCORE.INTRA.VDW>
-0.087438

>  <SCORE.INTRA.VDW.0>
-0.545445

>  <SCORE.INTRA.norm>
-0.638459

>  <SCORE.RESTR>
0.00113491

>  <SCORE.RESTR.CAVITY>
0.00113491

>  <SCORE.RESTR.norm>
8.1065e-05

>  <SCORE.SYSTEM>
0

>  <SCORE.SYSTEM.CONST>
0

>  <SCORE.SYSTEM.DIHEDRAL>
0

>  <SCORE.SYSTEM.SOLV>
0

>  <SCORE.SYSTEM.norm>
0

>  <SCORE.heavy>
14

>  <SCORE.norm>
0.153683

>  <RMSD>
1.480

$$$$
ligand
 OpenBabel11021811513D
libRbt.so/2013.1/901 2013/11/27
 14 13  0  0  0  0  0  0  0  0999 V2000
   25.8582   53.3899   42.4661 N   0  0  0  0  0  0  0  0  0  0  0  0
   26.5788   52.2920   41.8421 C   0  0  0  0  0  0  0  0  0  0  0  0
   25.7550   51.6949   40.7059 C   0  0  0  0  0  0  0  0  0  0  0  0
   26.4762   50.5145   40.0649 C   0  0  0  0  0  0  0  0  0  0  0  0
   27.7339   50.8949   39.4288 N   0  0  0  0  0  0  0  0  0  0  0  0
   28.4262   49.9718   38.5455 C   0  0  0  0  0  0  0  0  0  0  0  0
   29.1058   50.6715   37.3736 C   0  0  0  0  0  0  0  0  0  0  0  0
   29.6463   49.6386   36.3911 C   0  0  0  0  0  0  0  0  0  0  0  0
   30.9406   49.0400   36.9310 C   0  0  0  0  0  0  0  0  0  0  0  0
   30.6975   48.0907   38.0035 N   0  0  0  0  0  0  0  0  0  0  0  0
   31.4420   46.8387   38.0339 C   0  0  0  0  0  0  0  0  0  0  0  0
   31.3138   46.0513   39.3361 C   0  0  0  0  0  0  0  0  0  0  0  0
   32.1943   44.8009   39.3000 C   0  0  0  0  0  0  0  0  0  0  0  0
   32.1557   44.1218   40.5840 N   0  0  0  0  0  0  0  0  0  0  0  0
  1  2  1  0  0  0  0
  2  3  1  0  0  0  0
  3  4  1  0  0  0  0
  4  5  1  0  0  0  0
  5  6  1  0  0  0  0
  6  7  1  0  0  0  0
  7  8  1  0  0  0  0
  8  9  1  0  0  0  0
  9 10  1  0  0  0  0
 10 11  1  0  0  0  0
 11 12  1  0  0  0  0
 12 13  1  0  0  0  0
 13 14  1  0  0  0  0
M  END
>  <CHROM.1>
-178.31858678,-63.51677007,-167.73847804,143.90026140,-172.31092676,-77.59452713
75.41311042,137.36608510,168.40922174,-176.62099495,175.06428289,29.16603406
49.14369314,39.21438052,2.98581022,0.87857044,-1.04799508

>  <Name>
ligand

>  <RI>
0

>  <Rbt.Current_Directory>
/home/itssahil/PROJECTS/Mol_Feturizer/New_Systems/rnas/4P5J

>  <Rbt.Executable>
rbdock ($Id: //depot/dev/client3/rdock/2013.1/src/exe/rbdock.cxx#4 $)

>  <Rbt.Library>
libRbt.so (2013.1, Build901 2013/11/27)

>  <Rbt.Parameter_File>
/export/apps/rDock/src/rDock_2013.1_src/data/scripts/dock_solv.prm

>  <Rbt.Receptor>
prm/pocket_docking_2.prm

>  <SCORE>
2.666

>  <SCORE.INTER>
10.1132

>  <SCORE.INTER.CONST>
1

>  <SCORE.INTER.POLAR>
0

>  <SCORE.INTER.ROT>
11

>  <SCORE.INTER.SOLV>
4.57525

>  <SCORE.INTER.VDW>
-5.7163

>  <SCORE.INTER.norm>
0.722369

>  <SCORE.INTRA>
-7.45606

>  <SCORE.INTRA.DIHEDRAL>
-13.0667

>  <SCORE.INTRA.DIHEDRAL.0>
17.5233

>  <SCORE.INTRA.POLAR>
0

>  <SCORE.INTRA.POLAR.0>
0

>  <SCORE.INTRA.REPUL>
0

>  <SCORE.INTRA.REPUL.0>
0

>  <SCORE.INTRA.SOLV>
-1.37841

>  <SCORE.INTRA.SOLV.lig_0>
-46.1043

>  <SCORE.INTRA.VDW>
-0.233525

>  <SCORE.INTRA.VDW.0>
-0.545445

>  <SCORE.INTRA.norm>
-0.532576

>  <SCORE.RESTR>
0.00888126

>  <SCORE.RESTR.CAVITY>
0.00888126

>  <SCORE.RESTR.norm>
0.000634376

>  <SCORE.SYSTEM>
0

>  <SCORE.SYSTEM.CONST>
0

>  <SCORE.SYSTEM.DIHEDRAL>
0

>  <SCORE.SYSTEM.SOLV>
0

>  <SCORE.SYSTEM.norm>
0

>  <SCORE.heavy>
14

>  <SCORE.norm>
0.190428

>  <RMSD>
1.481

$$$$
ligand
 OpenBabel11021811513D
libRbt.so/2013.1/901 2013/11/27
 14 13  0  0  0  0  0  0  0  0999 V2000
   27.0206   54.8936   40.7452 N   0  0  0  0  0  0  0  0  0  0  0  0
   26.3260   53.7915   40.0994 C   0  0  0  0  0  0  0  0  0  0  0  0
   27.3133   52.6938   39.7169 C   0  0  0  0  0  0  0  0  0  0  0  0
   26.6043   51.5298   39.0338 C   0  0  0  0  0  0  0  0  0  0  0  0
   27.5027   50.4223   38.7213 N   0  0  0  0  0  0  0  0  0  0  0  0
   28.4884   50.5448   37.6605 C   0  0  0  0  0  0  0  0  0  0  0  0
   29.8979   50.7894   38.1882 C   0  0  0  0  0  0  0  0  0  0  0  0
   30.3465   49.6105   39.0446 C   0  0  0  0  0  0  0  0  0  0  0  0
   30.5518   48.3819   38.1652 C   0  0  0  0  0  0  0  0  0  0  0  0
   30.7731   47.1795   38.9500 N   0  0  0  0  0  0  0  0  0  0  0  0
   31.3116   45.9908   38.3023 C   0  0  0  0  0  0  0  0  0  0  0  0
   31.7820   44.8991   39.2611 C   0  0  0  0  0  0  0  0  0  0  0  0
   32.3489   43.7079   38.4869 C   0  0  0  0  0  0  0  0  0  0  0  0
   32.9109   42.7327   39.4058 N   0  0  0  0  0  0  0  0  0  0  0  0
  1  2  1  0  0  0  0
  2  3  1  0  0  0  0
  3  4  1  0  0  0  0
  4  5  1  0  0  0  0
  5  6  1  0  0  0  0
  6  7  1  0  0  0  0
  7  8  1  0  0  0  0
  8  9  1  0  0  0  0
  9 10  1  0  0  0  0
 10 11  1  0  0  0  0
 11 12  1  0  0  0  0
 12 13  1  0  0  0  0
 13 14  1  0  0  0  0
M  END
>  <CHROM.1>
-179.82851788,-176.63516254,-71.53237410,102.77109744,61.86069274,68.75810065
-170.89473095,-164.82321568,167.44648965,-179.07193664,174.50303909,29.51270301
49.08351857,38.98417130,3.10371844,1.04439423,-1.43450244

>  <Name>
ligand

>  <RI>
0

>  <Rbt.Current_Directory>
/home/itssahil/PROJECTS/Mol_Feturizer/New_Systems/rnas/4P5J

>  <Rbt.Executable>
rbdock ($Id: //depot/dev/client3/rdock/2013.1/src/exe/rbdock.cxx#4 $)

>  <Rbt.Library>
libRbt.so (2013.1, Build901 2013/11/27)

>  <Rbt.Parameter_File>
/export/apps/rDock/src/rDock_2013.1_src/data/scripts/dock_solv.prm

>  <Rbt.Receptor>
prm/pocket_docking_2.prm

>  <SCORE>
2.90078

>  <SCORE.INTER>
11.2085

>  <SCORE.INTER.CONST>
1

>  <SCORE.INTER.POLAR>
0

>  <SCORE.INTER.ROT>
11

>  <SCORE.INTER.SOLV>
4.62186

>  <SCORE.INTER.VDW>
-5.00164

>  <SCORE.INTER.norm>
0.800605

>  <SCORE.INTRA>
-8.30769

>  <SCORE.INTRA.DIHEDRAL>
-15.3439

>  <SCORE.INTRA.DIHEDRAL.0>
17.5233

>  <SCORE.INTRA.POLAR>
0

>  <SCORE.INTRA.POLAR.0>
0

>  <SCORE.INTRA.REPUL>
0

>  <SCORE.INTRA.REPUL.0>
0

>  <SCORE.INTRA.SOLV>
-1.93146

>  <SCORE.INTRA.SOLV.lig_0>
-46.1043

>  <SCORE.INTRA.VDW>
0.329984

>  <SCORE.INTRA.VDW.0>
-0.545445

>  <SCORE.INTRA.norm>
-0.593406

>  <SCORE.RESTR>
0

>  <SCORE.RESTR.CAVITY>
0

>  <SCORE.RESTR.norm>
0

>  <SCORE.SYSTEM>
0

>  <SCORE.SYSTEM.CONST>
0

>  <SCORE.SYSTEM.DIHEDRAL>
0

>  <SCORE.SYSTEM.SOLV>
0

>  <SCORE.SYSTEM.norm>
0

>  <SCORE.heavy>
14

>  <SCORE.norm>
0.207199

>  <RMSD>
1.494

$$$$
ligand
 OpenBabel11021811513D
libRbt.so/2013.1/901 2013/11/27
 14 13  0  0  0  0  0  0  0  0999 V2000
   33.2020   43.5732   38.4182 N   0  0  0  0  0  0  0  0  0  0  0  0
   32.5309   44.6066   39.1899 C   0  0  0  0  0  0  0  0  0  0  0  0
   31.5149   45.3412   38.3217 C   0  0  0  0  0  0  0  0  0  0  0  0
   30.8248   46.4532   39.1037 C   0  0  0  0  0  0  0  0  0  0  0  0
   31.7474   47.4967   39.5410 N   0  0  0  0  0  0  0  0  0  0  0  0
   32.1511   48.5568   38.6328 C   0  0  0  0  0  0  0  0  0  0  0  0
   31.0970   49.6496   38.4932 C   0  0  0  0  0  0  0  0  0  0  0  0
   29.9425   49.1539   37.6295 C   0  0  0  0  0  0  0  0  0  0  0  0
   28.8337   50.2001   37.5995 C   0  0  0  0  0  0  0  0  0  0  0  0
   28.2456   50.4103   38.9112 N   0  0  0  0  0  0  0  0  0  0  0  0
   27.0171   51.1845   39.0293 C   0  0  0  0  0  0  0  0  0  0  0  0
   26.5316   51.3968   40.4617 C   0  0  0  0  0  0  0  0  0  0  0  0
   25.2458   52.2252   40.4789 C   0  0  0  0  0  0  0  0  0  0  0  0
   24.8037   52.4388   41.8464 N   0  0  0  0  0  0  0  0  0  0  0  0
  1  2  1  0  0  0  0
  2  3  1  0  0  0  0
  3  4  1  0  0  0  0
  4  5  1  0  0  0  0
  5  6  1  0  0  0  0
  6  7  1  0  0  0  0
  7  8  1  0  0  0  0
  8  9  1  0  0  0  0
  9 10  1  0  0  0  0
 10 11  1  0  0  0  0
 11 12  1  0  0  0  0
 12 13  1  0  0  0  0
 13 14  1  0  0  0  0
M  END
>  <CHROM.1>
-178.56893635,63.17921190,81.83827465,79.10826570,-74.84771786,174.76888553
-64.21563240,-168.73495108,-177.11201394,179.63436312,-179.13040374,29.54918359
48.76345558,39.11812379,0.53792729,-0.64220751,2.60101132

>  <Name>
ligand

>  <RI>
0

>  <Rbt.Current_Directory>
/home/itssahil/PROJECTS/Mol_Feturizer/New_Systems/rnas/4P5J

>  <Rbt.Executable>
rbdock ($Id: //depot/dev/client3/rdock/2013.1/src/exe/rbdock.cxx#4 $)

>  <Rbt.Library>
libRbt.so (2013.1, Build901 2013/11/27)

>  <Rbt.Parameter_File>
/export/apps/rDock/src/rDock_2013.1_src/data/scripts/dock_solv.prm

>  <Rbt.Receptor>
prm/pocket_docking_2.prm

>  <SCORE>
1.58705

>  <SCORE.INTER>
10.4219

>  <SCORE.INTER.CONST>
1

>  <SCORE.INTER.POLAR>
0

>  <SCORE.INTER.ROT>
11

>  <SCORE.INTER.SOLV>
2.47342

>  <SCORE.INTER.VDW>
-4.8099

>  <SCORE.INTER.norm>
0.744418

>  <SCORE.INTRA>
-8.83481

>  <SCORE.INTRA.DIHEDRAL>
-15.7645

>  <SCORE.INTRA.DIHEDRAL.0>
17.5233

>  <SCORE.INTRA.POLAR>
0

>  <SCORE.INTRA.POLAR.0>
0

>  <SCORE.INTRA.REPUL>
0

>  <SCORE.INTRA.REPUL.0>
0

>  <SCORE.INTRA.SOLV>
-1.57174

>  <SCORE.INTRA.SOLV.lig_0>
-46.1043

>  <SCORE.INTRA.VDW>
-0.166701

>  <SCORE.INTRA.VDW.0>
-0.545445

>  <SCORE.INTRA.norm>
-0.631058

>  <SCORE.RESTR>
0

>  <SCORE.RESTR.CAVITY>
0

>  <SCORE.RESTR.norm>
0

>  <SCORE.SYSTEM>
0

>  <SCORE.SYSTEM.CONST>
0

>  <SCORE.SYSTEM.DIHEDRAL>
0

>  <SCORE.SYSTEM.SOLV>
0

>  <SCORE.SYSTEM.norm>
0

>  <SCORE.heavy>
14

>  <SCORE.norm>
0.113361

>  <RMSD>
1.508

$$$$
ligand
 OpenBabel11021811513D
libRbt.so/2013.1/901 2013/11/27
 14 13  0  0  0  0  0  0  0  0999 V2000
   33.9922   43.0500   39.9900 N   0  0  0  0  0  0  0  0  0  0  0  0
   33.0680   44.0745   40.4485 C   0  0  0  0  0  0  0  0  0  0  0  0
   32.3641   44.7234   39.2614 C   0  0  0  0  0  0  0  0  0  0  0  0
   31.3878   45.8000   39.7219 C   0  0  0  0  0  0  0  0  0  0  0  0
   30.7242   46.4772   38.6119 N   0  0  0  0  0  0  0  0  0  0  0  0
   31.4142   47.5070   37.8534 C   0  0  0  0  0  0  0  0  0  0  0  0
   31.0942   48.9156   38.3415 C   0  0  0  0  0  0  0  0  0  0  0  0
   29.6098   49.2085   38.1534 C   0  0  0  0  0  0  0  0  0  0  0  0
   29.2997   50.6261   38.6218 C   0  0  0  0  0  0  0  0  0  0  0  0
   27.8825   50.9328   38.5329 N   0  0  0  0  0  0  0  0  0  0  0  0
   26.9744   50.4236   39.5521 C   0  0  0  0  0  0  0  0  0  0  0  0
   25.7262   51.2742   39.7775 C   0  0  0  0  0  0  0  0  0  0  0  0
   26.1047   52.6597   40.3039 C   0  0  0  0  0  0  0  0  0  0  0  0
   24.9115   53.4638   40.5059 N   0  0  0  0  0  0  0  0  0  0  0  0
  1  2  1  0  0  0  0
  2  3  1  0  0  0  0
  3  4  1  0  0  0  0
  4  5  1  0  0  0  0
  5  6  1  0  0  0  0
  6  7  1  0  0  0  0
  7  8  1  0  0  0  0
  8  9  1  0  0  0  0
  9 10  1  0  0  0  0
 10 11  1  0  0  0  0
 11 12  1  0  0  0  0
 12 13  1  0  0  0  0
 13 14  1  0  0  0  0
M  END
>  <CHROM.1>
179.90433347,178.11761437,-78.38675477,-95.99346823,-62.89741165,-179.07944132
-176.84433012,77.98505812,152.28819084,-63.61795464,179.59751127,29.61105304
48.50976104,39.26251981,0.57069579,-0.67502246,2.39919026

>  <Name>
ligand

>  <RI>
0

>  <Rbt.Current_Directory>
/home/itssahil/PROJECTS/Mol_Feturizer/New_Systems/rnas/4P5J

>  <Rbt.Executable>
rbdock ($Id: //depot/dev/client3/rdock/2013.1/src/exe/rbdock.cxx#4 $)

>  <Rbt.Library>
libRbt.so (2013.1, Build901 2013/11/27)

>  <Rbt.Parameter_File>
/export/apps/rDock/src/rDock_2013.1_src/data/scripts/dock_solv.prm

>  <Rbt.Receptor>
prm/pocket_docking_2.prm

>  <SCORE>
1.94478

>  <SCORE.INTER>
10.8944

>  <SCORE.INTER.CONST>
1

>  <SCORE.INTER.POLAR>
0

>  <SCORE.INTER.ROT>
11

>  <SCORE.INTER.SOLV>
3.57329

>  <SCORE.INTER.VDW>
-4.86151

>  <SCORE.INTER.norm>
0.77817

>  <SCORE.INTRA>
-8.9496

>  <SCORE.INTRA.DIHEDRAL>
-15.5693

>  <SCORE.INTRA.DIHEDRAL.0>
17.5233

>  <SCORE.INTRA.POLAR>
0

>  <SCORE.INTRA.POLAR.0>
0

>  <SCORE.INTRA.REPUL>
0

>  <SCORE.INTRA.REPUL.0>
0

>  <SCORE.INTRA.SOLV>
-1.9727

>  <SCORE.INTRA.SOLV.lig_0>
-46.1043

>  <SCORE.INTRA.VDW>
-0.178577

>  <SCORE.INTRA.VDW.0>
-0.545445

>  <SCORE.INTRA.norm>
-0.639257

>  <SCORE.RESTR>
0

>  <SCORE.RESTR.CAVITY>
0

>  <SCORE.RESTR.norm>
0

>  <SCORE.SYSTEM>
0

>  <SCORE.SYSTEM.CONST>
0

>  <SCORE.SYSTEM.DIHEDRAL>
0

>  <SCORE.SYSTEM.SOLV>
0

>  <SCORE.SYSTEM.norm>
0

>  <SCORE.heavy>
14

>  <SCORE.norm>
0.138913

>  <RMSD>
1.519

$$$$
ligand
 OpenBabel11021811513D
libRbt.so/2013.1/901 2013/11/27
 14 13  0  0  0  0  0  0  0  0999 V2000
   25.1298   53.1774   41.0082 N   0  0  0  0  0  0  0  0  0  0  0  0
   26.1389   53.0048   39.9757 C   0  0  0  0  0  0  0  0  0  0  0  0
   27.4058   52.3972   40.5687 C   0  0  0  0  0  0  0  0  0  0  0  0
   28.4831   52.2237   39.5041 C   0  0  0  0  0  0  0  0  0  0  0  0
   28.1088   51.2656   38.4683 N   0  0  0  0  0  0  0  0  0  0  0  0
   29.0869   50.8043   37.4975 C   0  0  0  0  0  0  0  0  0  0  0  0
   29.4226   49.3251   37.6531 C   0  0  0  0  0  0  0  0  0  0  0  0
   30.0411   49.0716   39.0234 C   0  0  0  0  0  0  0  0  0  0  0  0
   30.3325   47.5844   39.1914 C   0  0  0  0  0  0  0  0  0  0  0  0
   31.2737   47.0968   38.1980 N   0  0  0  0  0  0  0  0  0  0  0  0
   31.4774   45.6620   38.0481 C   0  0  0  0  0  0  0  0  0  0  0  0
   32.2856   45.0114   39.1688 C   0  0  0  0  0  0  0  0  0  0  0  0
   32.5094   43.5259   38.8810 C   0  0  0  0  0  0  0  0  0  0  0  0
   33.2941   42.9206   39.9436 N   0  0  0  0  0  0  0  0  0  0  0  0
  1  2  1  0  0  0  0
  2  3  1  0  0  0  0
  3  4  1  0  0  0  0
  4  5  1  0  0  0  0
  5  6  1  0  0  0  0
  6  7  1  0  0  0  0
  7  8  1  0  0  0  0
  8  9  1  0  0  0  0
  9 10  1  0  0  0  0
 10 11  1  0  0  0  0
 11 12  1  0  0  0  0
 12 13  1  0  0  0  0
 13 14  1  0  0  0  0
M  END
>  <CHROM.1>
-179.31011732,-64.65432178,-169.76464424,113.02022458,-61.93556566,178.14809386
60.95694089,-168.63733605,-73.75138837,-176.86397500,179.23573379,29.64220428
48.79083840,39.08058238,2.72187089,0.91133880,-0.95253560

>  <Name>
ligand

>  <RI>
0

>  <Rbt.Current_Directory>
/home/itssahil/PROJECTS/Mol_Feturizer/New_Systems/rnas/4P5J

>  <Rbt.Executable>
rbdock ($Id: //depot/dev/client3/rdock/2013.1/src/exe/rbdock.cxx#4 $)

>  <Rbt.Library>
libRbt.so (2013.1, Build901 2013/11/27)

>  <Rbt.Parameter_File>
/export/apps/rDock/src/rDock_2013.1_src/data/scripts/dock_solv.prm

>  <Rbt.Receptor>
prm/pocket_docking_2.prm

>  <SCORE>
1.75656

>  <SCORE.INTER>
10.7729

>  <SCORE.INTER.CONST>
1

>  <SCORE.INTER.POLAR>
0

>  <SCORE.INTER.ROT>
11

>  <SCORE.INTER.SOLV>
3.55092

>  <SCORE.INTER.VDW>
-4.93502

>  <SCORE.INTER.norm>
0.769495

>  <SCORE.INTRA>
-9.01637

>  <SCORE.INTRA.DIHEDRAL>
-15.8721

>  <SCORE.INTRA.DIHEDRAL.0>
17.5233

>  <SCORE.INTRA.POLAR>
0

>  <SCORE.INTRA.POLAR.0>
0

>  <SCORE.INTRA.REPUL>
0

>  <SCORE.INTRA.REPUL.0>
0

>  <SCORE.INTRA.SOLV>
-1.53821

>  <SCORE.INTRA.SOLV.lig_0>
-46.1043

>  <SCORE.INTRA.VDW>
-0.31122

>  <SCORE.INTRA.VDW.0>
-0.545445

>  <SCORE.INTRA.norm>
-0.644026

>  <SCORE.RESTR>
0

>  <SCORE.RESTR.CAVITY>
0

>  <SCORE.RESTR.norm>
0

>  <SCORE.SYSTEM>
0

>  <SCORE.SYSTEM.CONST>
0

>  <SCORE.SYSTEM.DIHEDRAL>
0

>  <SCORE.SYSTEM.SOLV>
0

>  <SCORE.SYSTEM.norm>
0

>  <SCORE.heavy>
14

>  <SCORE.norm>
0.125469

>  <RMSD>
1.521

$$$$
ligand
 OpenBabel11021811513D
libRbt.so/2013.1/901 2013/11/27
 14 13  0  0  0  0  0  0  0  0999 V2000
   24.8326   52.4100   42.2277 N   0  0  0  0  0  0  0  0  0  0  0  0
   25.7995   53.4678   41.9828 C   0  0  0  0  0  0  0  0  0  0  0  0
   27.0752   52.8907   41.3784 C   0  0  0  0  0  0  0  0  0  0  0  0
   26.8242   52.3524   39.9743 C   0  0  0  0  0  0  0  0  0  0  0  0
   28.0129   51.7534   39.3749 N   0  0  0  0  0  0  0  0  0  0  0  0
   28.0490   51.4392   37.9565 C   0  0  0  0  0  0  0  0  0  0  0  0
   29.3231   50.7102   37.5443 C   0  0  0  0  0  0  0  0  0  0  0  0
   29.4063   49.3631   38.2535 C   0  0  0  0  0  0  0  0  0  0  0  0
   30.6328   48.5984   37.7675 C   0  0  0  0  0  0  0  0  0  0  0  0
   30.7214   47.2751   38.3602 N   0  0  0  0  0  0  0  0  0  0  0  0
   31.6078   46.2827   37.7668 C   0  0  0  0  0  0  0  0  0  0  0  0
   31.6917   44.9633   38.5313 C   0  0  0  0  0  0  0  0  0  0  0  0
   32.2916   45.1819   39.9214 C   0  0  0  0  0  0  0  0  0  0  0  0
   32.4885   43.9070   40.5901 N   0  0  0  0  0  0  0  0  0  0  0  0
  1  2  1  0  0  0  0
  2  3  1  0  0  0  0
  3  4  1  0  0  0  0
  4  5  1  0  0  0  0
  5  6  1  0  0  0  0
  6  7  1  0  0  0  0
  7  8  1  0  0  0  0
  8  9  1  0  0  0  0
  9 10  1  0  0  0  0
 10 11  1  0  0  0  0
 11 12  1  0  0  0  0
 12 13  1  0  0  0  0
 13 14  1  0  0  0  0
M  END
>  <CHROM.1>
67.34761746,-178.25692816,-167.19977990,-174.94806952,62.90762376,176.21648560
-176.94512961,164.05944685,175.90801877,-63.70850144,-174.44665302,29.19697482
49.32841935,39.40181945,2.89672192,0.91528197,-1.01285298

>  <Name>
ligand

>  <RI>
0

>  <Rbt.Current_Directory>
/home/itssahil/PROJECTS/Mol_Feturizer/New_Systems/rnas/4P5J

>  <Rbt.Executable>
rbdock ($Id: //depot/dev/client3/rdock/2013.1/src/exe/rbdock.cxx#4 $)

>  <Rbt.Library>
libRbt.so (2013.1, Build901 2013/11/27)

>  <Rbt.Parameter_File>
/export/apps/rDock/src/rDock_2013.1_src/data/scripts/dock_solv.prm

>  <Rbt.Receptor>
prm/pocket_docking_2.prm

>  <SCORE>
1.99744

>  <SCORE.INTER>
11.4718

>  <SCORE.INTER.CONST>
1

>  <SCORE.INTER.POLAR>
0

>  <SCORE.INTER.ROT>
11

>  <SCORE.INTER.SOLV>
4.25054

>  <SCORE.INTER.VDW>
-4.70231

>  <SCORE.INTER.norm>
0.819415

>  <SCORE.INTRA>
-9.47437

>  <SCORE.INTRA.DIHEDRAL>
-16.6538

>  <SCORE.INTRA.DIHEDRAL.0>
17.5233

>  <SCORE.INTRA.POLAR>
0

>  <SCORE.INTRA.POLAR.0>
0

>  <SCORE.INTRA.REPUL>
0

>  <SCORE.INTRA.REPUL.0>
0

>  <SCORE.INTRA.SOLV>
-1.26441

>  <SCORE.INTRA.SOLV.lig_0>
-46.1043

>  <SCORE.INTRA.VDW>
-0.515262

>  <SCORE.INTRA.VDW.0>
-0.545445

>  <SCORE.INTRA.norm>
-0.676741

>  <SCORE.RESTR>
0

>  <SCORE.RESTR.CAVITY>
0

>  <SCORE.RESTR.norm>
0

>  <SCORE.SYSTEM>
0

>  <SCORE.SYSTEM.CONST>
0

>  <SCORE.SYSTEM.DIHEDRAL>
0

>  <SCORE.SYSTEM.SOLV>
0

>  <SCORE.SYSTEM.norm>
0

>  <SCORE.heavy>
14

>  <SCORE.norm>
0.142674

>  <RMSD>
1.528

$$$$
ligand
 OpenBabel11021811513D
libRbt.so/2013.1/901 2013/11/27
 14 13  0  0  0  0  0  0  0  0999 V2000
   25.2947   52.5360   41.4315 N   0  0  0  0  0  0  0  0  0  0  0  0
   26.4932   51.8149   41.8285 C   0  0  0  0  0  0  0  0  0  0  0  0
   26.9603   50.9012   40.7004 C   0  0  0  0  0  0  0  0  0  0  0  0
   27.4947   51.7094   39.5233 C   0  0  0  0  0  0  0  0  0  0  0  0
   27.9608   50.8703   38.4233 N   0  0  0  0  0  0  0  0  0  0  0  0
   29.2621   50.2261   38.4829 C   0  0  0  0  0  0  0  0  0  0  0  0
   29.6051   49.4664   37.2062 C   0  0  0  0  0  0  0  0  0  0  0  0
   30.9483   48.7623   37.3627 C   0  0  0  0  0  0  0  0  0  0  0  0
   30.8053   47.5840   38.3199 C   0  0  0  0  0  0  0  0  0  0  0  0
   31.9933   46.7480   38.3380 N   0  0  0  0  0  0  0  0  0  0  0  0
   31.9099   45.3969   38.8767 C   0  0  0  0  0  0  0  0  0  0  0  0
   33.0964   44.4986   38.5338 C   0  0  0  0  0  0  0  0  0  0  0  0
   32.8877   43.0908   39.0946 C   0  0  0  0  0  0  0  0  0  0  0  0
   32.9178   43.1187   40.5470 N   0  0  0  0  0  0  0  0  0  0  0  0
  1  2  1  0  0  0  0
  2  3  1  0  0  0  0
  3  4  1  0  0  0  0
  4  5  1  0  0  0  0
  5  6  1  0  0  0  0
  6  7  1  0  0  0  0
  7  8  1  0  0  0  0
  8  9  1  0  0  0  0
  9 10  1  0  0  0  0
 10 11  1  0  0  0  0
 11 12  1  0  0  0  0
 12 13  1  0  0  0  0
 13 14  1  0  0  0  0
M  END
>  <CHROM.1>
69.21513548,179.64188463,-79.00782659,-176.37269309,-177.28546385,71.69618511
170.58542808,-162.43206050,165.38749748,-177.69098905,-67.08797161,29.83080196
48.33741250,39.19042715,2.76113790,0.84072461,-0.89915308

>  <Name>
ligand

>  <RI>
0

>  <Rbt.Current_Directory>
/home/itssahil/PROJECTS/Mol_Feturizer/New_Systems/rnas/4P5J

>  <Rbt.Executable>
rbdock ($Id: //depot/dev/client3/rdock/2013.1/src/exe/rbdock.cxx#4 $)

>  <Rbt.Library>
libRbt.so (2013.1, Build901 2013/11/27)

>  <Rbt.Parameter_File>
/export/apps/rDock/src/rDock_2013.1_src/data/scripts/dock_solv.prm

>  <Rbt.Receptor>
prm/pocket_docking_2.prm

>  <SCORE>
3.46176

>  <SCORE.INTER>
11.3838

>  <SCORE.INTER.CONST>
1

>  <SCORE.INTER.POLAR>
0

>  <SCORE.INTER.ROT>
11

>  <SCORE.INTER.SOLV>
2.52953

>  <SCORE.INTER.VDW>
-4.18732

>  <SCORE.INTER.norm>
0.813127

>  <SCORE.INTRA>
-7.92202

>  <SCORE.INTRA.DIHEDRAL>
-15.3993

>  <SCORE.INTRA.DIHEDRAL.0>
17.5233

>  <SCORE.INTRA.POLAR>
0

>  <SCORE.INTRA.POLAR.0>
0

>  <SCORE.INTRA.REPUL>
0

>  <SCORE.INTRA.REPUL.0>
0

>  <SCORE.INTRA.SOLV>
-1.05691

>  <SCORE.INTRA.SOLV.lig_0>
-46.1043

>  <SCORE.INTRA.VDW>
0.306061

>  <SCORE.INTRA.VDW.0>
-0.545445

>  <SCORE.INTRA.norm>
-0.565858

>  <SCORE.RESTR>
0

>  <SCORE.RESTR.CAVITY>
0

>  <SCORE.RESTR.norm>
0

>  <SCORE.SYSTEM>
0

>  <SCORE.SYSTEM.CONST>
0

>  <SCORE.SYSTEM.DIHEDRAL>
0

>  <SCORE.SYSTEM.SOLV>
0

>  <SCORE.SYSTEM.norm>
0

>  <SCORE.heavy>
14

>  <SCORE.norm>
0.247269

>  <RMSD>
1.533

$$$$
ligand
 OpenBabel11021811513D
libRbt.so/2013.1/901 2013/11/27
 14 13  0  0  0  0  0  0  0  0999 V2000
   34.0837   45.2157   39.7734 N   0  0  0  0  0  0  0  0  0  0  0  0
   33.4018   45.8482   38.6559 C   0  0  0  0  0  0  0  0  0  0  0  0
   31.9383   45.4211   38.6173 C   0  0  0  0  0  0  0  0  0  0  0  0
   31.1724   45.9731   39.8144 C   0  0  0  0  0  0  0  0  0  0  0  0
   31.0490   47.4275   39.7881 N   0  0  0  0  0  0  0  0  0  0  0  0
   29.9328   48.0641   39.1095 C   0  0  0  0  0  0  0  0  0  0  0  0
   30.0580   49.5829   39.0615 C   0  0  0  0  0  0  0  0  0  0  0  0
   28.8700   50.1813   38.3165 C   0  0  0  0  0  0  0  0  0  0  0  0
   29.0374   51.6929   38.2066 C   0  0  0  0  0  0  0  0  0  0  0  0
   29.0006   52.3421   39.5057 N   0  0  0  0  0  0  0  0  0  0  0  0
   27.7141   52.6415   40.1204 C   0  0  0  0  0  0  0  0  0  0  0  0
   27.1495   51.5246   40.9956 C   0  0  0  0  0  0  0  0  0  0  0  0
   25.7808   51.9164   41.5550 C   0  0  0  0  0  0  0  0  0  0  0  0
   24.8045   52.0003   40.4821 N   0  0  0  0  0  0  0  0  0  0  0  0
  1  2  1  0  0  0  0
  2  3  1  0  0  0  0
  3  4  1  0  0  0  0
  4  5  1  0  0  0  0
  5  6  1  0  0  0  0
  6  7  1  0  0  0  0
  7  8  1  0  0  0  0
  8  9  1  0  0  0  0
  9 10  1  0  0  0  0
 10 11  1  0  0  0  0
 11 12  1  0  0  0  0
 12 13  1  0  0  0  0
 13 14  1  0  0  0  0
M  END
>  <CHROM.1>
67.41071217,66.84799675,88.51993966,-173.77459722,178.99021635,-177.00168186
-64.95088601,-82.28192338,89.24432015,-178.12337652,67.27370722,29.57085668
49.27370159,39.57143484,0.64658526,-0.55530266,2.70729975

>  <Name>
ligand

>  <RI>
0

>  <Rbt.Current_Directory>
/home/itssahil/PROJECTS/Mol_Feturizer/New_Systems/rnas/4P5J

>  <Rbt.Executable>
rbdock ($Id: //depot/dev/client3/rdock/2013.1/src/exe/rbdock.cxx#4 $)

>  <Rbt.Library>
libRbt.so (2013.1, Build901 2013/11/27)

>  <Rbt.Parameter_File>
/export/apps/rDock/src/rDock_2013.1_src/data/scripts/dock_solv.prm

>  <Rbt.Receptor>
prm/pocket_docking_2.prm

>  <SCORE>
4.19928

>  <SCORE.INTER>
12.1022

>  <SCORE.INTER.CONST>
1

>  <SCORE.INTER.POLAR>
0

>  <SCORE.INTER.ROT>
11

>  <SCORE.INTER.SOLV>
1.83348

>  <SCORE.INTER.VDW>
-3.47633

>  <SCORE.INTER.norm>
0.864446

>  <SCORE.INTRA>
-7.91246

>  <SCORE.INTRA.DIHEDRAL>
-15.2723

>  <SCORE.INTRA.DIHEDRAL.0>
17.5233

>  <SCORE.INTRA.POLAR>
0

>  <SCORE.INTRA.POLAR.0>
0

>  <SCORE.INTRA.REPUL>
0

>  <SCORE.INTRA.REPUL.0>
0

>  <SCORE.INTRA.SOLV>
0.0436329

>  <SCORE.INTRA.SOLV.lig_0>
-46.1043

>  <SCORE.INTRA.VDW>
-0.298117

>  <SCORE.INTRA.VDW.0>
-0.545445

>  <SCORE.INTRA.norm>
-0.565176

>  <SCORE.RESTR>
0.0095012

>  <SCORE.RESTR.CAVITY>
0.0095012

>  <SCORE.RESTR.norm>
0.000678657

>  <SCORE.SYSTEM>
0

>  <SCORE.SYSTEM.CONST>
0

>  <SCORE.SYSTEM.DIHEDRAL>
0

>  <SCORE.SYSTEM.SOLV>
0

>  <SCORE.SYSTEM.norm>
0

>  <SCORE.heavy>
14

>  <SCORE.norm>
0.299949

>  <RMSD>
1.547

$$$$
ligand
 OpenBabel11021811513D
libRbt.so/2013.1/901 2013/11/27
 14 13  0  0  0  0  0  0  0  0999 V2000
   33.4634   43.0920   39.9498 N   0  0  0  0  0  0  0  0  0  0  0  0
   32.5541   43.6503   38.9622 C   0  0  0  0  0  0  0  0  0  0  0  0
   32.1260   45.0560   39.3703 C   0  0  0  0  0  0  0  0  0  0  0  0
   31.1860   45.6666   38.3370 C   0  0  0  0  0  0  0  0  0  0  0  0
   30.7694   47.0231   38.6798 N   0  0  0  0  0  0  0  0  0  0  0  0
   31.5845   48.1658   38.3031 C   0  0  0  0  0  0  0  0  0  0  0  0
   31.1969   48.7479   36.9482 C   0  0  0  0  0  0  0  0  0  0  0  0
   29.7774   49.3013   37.0046 C   0  0  0  0  0  0  0  0  0  0  0  0
   29.7510   50.5702   37.8497 C   0  0  0  0  0  0  0  0  0  0  0  0
   28.4108   51.1175   37.9711 N   0  0  0  0  0  0  0  0  0  0  0  0
   27.4307   50.4335   38.8043 C   0  0  0  0  0  0  0  0  0  0  0  0
   27.6458   50.5966   40.3075 C   0  0  0  0  0  0  0  0  0  0  0  0
   27.4831   52.0604   40.7206 C   0  0  0  0  0  0  0  0  0  0  0  0
   26.1024   52.4801   40.5509 N   0  0  0  0  0  0  0  0  0  0  0  0
  1  2  1  0  0  0  0
  2  3  1  0  0  0  0
  3  4  1  0  0  0  0
  4  5  1  0  0  0  0
  5  6  1  0  0  0  0
  6  7  1  0  0  0  0
  7  8  1  0  0  0  0
  8  9  1  0  0  0  0
  9 10  1  0  0  0  0
 10 11  1  0  0  0  0
 11 12  1  0  0  0  0
 12 13  1  0  0  0  0
 13 14  1  0  0  0  0
M  END
>  <CHROM.1>
179.23560210,-179.04845390,86.13212478,91.50667548,64.03228961,71.09825732
-178.20980425,72.19421487,74.39423406,64.12656993,67.20902207,29.96308193
48.42580977,38.83975385,0.49562451,-0.85280887,2.26512542

>  <Name>
ligand

>  <RI>
0

>  <Rbt.Current_Directory>
/home/itssahil/PROJECTS/Mol_Feturizer/New_Systems/rnas/4P5J

>  <Rbt.Executable>
rbdock ($Id: //depot/dev/client3/rdock/2013.1/src/exe/rbdock.cxx#4 $)

>  <Rbt.Library>
libRbt.so (2013.1, Build901 2013/11/27)

>  <Rbt.Parameter_File>
/export/apps/rDock/src/rDock_2013.1_src/data/scripts/dock_solv.prm

>  <Rbt.Receptor>
prm/pocket_docking_2.prm

>  <SCORE>
3.13365

>  <SCORE.INTER>
10.1809

>  <SCORE.INTER.CONST>
1

>  <SCORE.INTER.POLAR>
0

>  <SCORE.INTER.ROT>
11

>  <SCORE.INTER.SOLV>
3.9588

>  <SCORE.INTER.VDW>
-5.46567

>  <SCORE.INTER.norm>
0.727206

>  <SCORE.INTRA>
-7.04724

>  <SCORE.INTRA.DIHEDRAL>
-15.2762

>  <SCORE.INTRA.DIHEDRAL.0>
17.5233

>  <SCORE.INTRA.POLAR>
0

>  <SCORE.INTRA.POLAR.0>
0

>  <SCORE.INTRA.REPUL>
0

>  <SCORE.INTRA.REPUL.0>
0

>  <SCORE.INTRA.SOLV>
-0.310705

>  <SCORE.INTRA.SOLV.lig_0>
-46.1043

>  <SCORE.INTRA.VDW>
0.746208

>  <SCORE.INTRA.VDW.0>
-0.545445

>  <SCORE.INTRA.norm>
-0.503375

>  <SCORE.RESTR>
0

>  <SCORE.RESTR.CAVITY>
0

>  <SCORE.RESTR.norm>
0

>  <SCORE.SYSTEM>
0

>  <SCORE.SYSTEM.CONST>
0

>  <SCORE.SYSTEM.DIHEDRAL>
0

>  <SCORE.SYSTEM.SOLV>
0

>  <SCORE.SYSTEM.norm>
0

>  <SCORE.heavy>
14

>  <SCORE.norm>
0.223832

>  <RMSD>
1.550

$$$$
ligand
 OpenBabel11021811513D
libRbt.so/2013.1/901 2013/11/27
 14 13  0  0  0  0  0  0  0  0999 V2000
   24.5290   51.4247   41.8890 N   0  0  0  0  0  0  0  0  0  0  0  0
   25.6017   51.9970   41.0917 C   0  0  0  0  0  0  0  0  0  0  0  0
   26.2865   50.9120   40.2672 C   0  0  0  0  0  0  0  0  0  0  0  0
   27.3803   51.5008   39.3833 C   0  0  0  0  0  0  0  0  0  0  0  0
   28.0557   50.4945   38.5694 N   0  0  0  0  0  0  0  0  0  0  0  0
   29.0667   50.8823   37.6002 C   0  0  0  0  0  0  0  0  0  0  0  0
   29.7146   49.6866   36.9107 C   0  0  0  0  0  0  0  0  0  0  0  0
   30.4700   48.8421   37.9308 C   0  0  0  0  0  0  0  0  0  0  0  0
   31.3605   47.8357   37.2102 C   0  0  0  0  0  0  0  0  0  0  0  0
   31.9762   46.8947   38.1299 N   0  0  0  0  0  0  0  0  0  0  0  0
   31.2917   45.6473   38.4428 C   0  0  0  0  0  0  0  0  0  0  0  0
   32.2106   44.5045   38.8693 C   0  0  0  0  0  0  0  0  0  0  0  0
   32.9250   44.8457   40.1782 C   0  0  0  0  0  0  0  0  0  0  0  0
   33.8036   43.7568   40.5700 N   0  0  0  0  0  0  0  0  0  0  0  0
  1  2  1  0  0  0  0
  2  3  1  0  0  0  0
  3  4  1  0  0  0  0
  4  5  1  0  0  0  0
  5  6  1  0  0  0  0
  6  7  1  0  0  0  0
  7  8  1  0  0  0  0
  8  9  1  0  0  0  0
  9 10  1  0  0  0  0
 10 11  1  0  0  0  0
 11 12  1  0  0  0  0
 12 13  1  0  0  0  0
 13 14  1  0  0  0  0
M  END
>  <CHROM.1>
177.82561635,-179.60663501,175.92351321,176.52193271,-63.81149895,-167.61966814
-172.82344239,90.32199954,154.00335871,63.87480660,-179.58615625,29.61945332
48.51619183,39.07417512,2.80463686,0.72763166,-0.92250356

>  <Name>
ligand

>  <RI>
0

>  <Rbt.Current_Directory>
/home/itssahil/PROJECTS/Mol_Feturizer/New_Systems/rnas/4P5J

>  <Rbt.Executable>
rbdock ($Id: //depot/dev/client3/rdock/2013.1/src/exe/rbdock.cxx#4 $)

>  <Rbt.Library>
libRbt.so (2013.1, Build901 2013/11/27)

>  <Rbt.Parameter_File>
/export/apps/rDock/src/rDock_2013.1_src/data/scripts/dock_solv.prm

>  <Rbt.Receptor>
prm/pocket_docking_2.prm

>  <SCORE>
1.24588

>  <SCORE.INTER>
10.5125

>  <SCORE.INTER.CONST>
1

>  <SCORE.INTER.POLAR>
0

>  <SCORE.INTER.ROT>
11

>  <SCORE.INTER.SOLV>
2.42742

>  <SCORE.INTER.VDW>
-4.73411

>  <SCORE.INTER.norm>
0.750896

>  <SCORE.INTRA>
-9.26666

>  <SCORE.INTRA.DIHEDRAL>
-15.4707

>  <SCORE.INTRA.DIHEDRAL.0>
17.5233

>  <SCORE.INTRA.POLAR>
0

>  <SCORE.INTRA.POLAR.0>
0

>  <SCORE.INTRA.REPUL>
0

>  <SCORE.INTRA.REPUL.0>
0

>  <SCORE.INTRA.SOLV>
-2.01271

>  <SCORE.INTRA.SOLV.lig_0>
-46.1043

>  <SCORE.INTRA.VDW>
-0.524956

>  <SCORE.INTRA.VDW.0>
-0.545445

>  <SCORE.INTRA.norm>
-0.661904

>  <SCORE.RESTR>
0

>  <SCORE.RESTR.CAVITY>
0

>  <SCORE.RESTR.norm>
0

>  <SCORE.SYSTEM>
0

>  <SCORE.SYSTEM.CONST>
0

>  <SCORE.SYSTEM.DIHEDRAL>
0

>  <SCORE.SYSTEM.SOLV>
0

>  <SCORE.SYSTEM.norm>
0

>  <SCORE.heavy>
14

>  <SCORE.norm>
0.0889913

>  <RMSD>
1.560

$$$$
ligand
 OpenBabel11021811513D
libRbt.so/2013.1/901 2013/11/27
 14 13  0  0  0  0  0  0  0  0999 V2000
   24.1449   52.4615   41.5862 N   0  0  0  0  0  0  0  0  0  0  0  0
   25.3593   53.2506   41.7145 C   0  0  0  0  0  0  0  0  0  0  0  0
   26.5878   52.3705   41.5094 C   0  0  0  0  0  0  0  0  0  0  0  0
   26.6445   51.8281   40.0858 C   0  0  0  0  0  0  0  0  0  0  0  0
   27.8306   51.0148   39.8348 N   0  0  0  0  0  0  0  0  0  0  0  0
   28.1528   50.5703   38.4893 C   0  0  0  0  0  0  0  0  0  0  0  0
   29.4693   49.8043   38.4187 C   0  0  0  0  0  0  0  0  0  0  0  0
   29.7807   49.4337   36.9730 C   0  0  0  0  0  0  0  0  0  0  0  0
   31.0770   48.6330   36.9128 C   0  0  0  0  0  0  0  0  0  0  0  0
   30.9845   47.3877   37.6550 N   0  0  0  0  0  0  0  0  0  0  0  0
   32.1046   46.4562   37.6331 C   0  0  0  0  0  0  0  0  0  0  0  0
   31.9068   45.1999   38.4786 C   0  0  0  0  0  0  0  0  0  0  0  0
   33.1473   44.3071   38.4177 C   0  0  0  0  0  0  0  0  0  0  0  0
   32.9661   43.1367   39.2595 N   0  0  0  0  0  0  0  0  0  0  0  0
  1  2  1  0  0  0  0
  2  3  1  0  0  0  0
  3  4  1  0  0  0  0
  4  5  1  0  0  0  0
  5  6  1  0  0  0  0
  6  7  1  0  0  0  0
  7  8  1  0  0  0  0
  8  9  1  0  0  0  0
  9 10  1  0  0  0  0
 10 11  1  0  0  0  0
 11 12  1  0  0  0  0
 12 13  1  0  0  0  0
 13 14  1  0  0  0  0
M  END
>  <CHROM.1>
64.97036993,178.11244783,-171.28029226,176.60071827,-177.01772313,-178.35810287
61.47345846,176.07215385,178.47457713,-178.56352814,178.14173423,29.29698857
48.98980003,39.06895439,2.86541033,0.83523255,-0.84128311

>  <Name>
ligand

>  <RI>
0

>  <Rbt.Current_Directory>
/home/itssahil/PROJECTS/Mol_Feturizer/New_Systems/rnas/4P5J

>  <Rbt.Executable>
rbdock ($Id: //depot/dev/client3/rdock/2013.1/src/exe/rbdock.cxx#4 $)

>  <Rbt.Library>
libRbt.so (2013.1, Build901 2013/11/27)

>  <Rbt.Parameter_File>
/export/apps/rDock/src/rDock_2013.1_src/data/scripts/dock_solv.prm

>  <Rbt.Receptor>
prm/pocket_docking_2.prm

>  <SCORE>
1.52518

>  <SCORE.INTER>
11.3735

>  <SCORE.INTER.CONST>
1

>  <SCORE.INTER.POLAR>
0

>  <SCORE.INTER.ROT>
11

>  <SCORE.INTER.SOLV>
2.87142

>  <SCORE.INTER.VDW>
-4.30812

>  <SCORE.INTER.norm>
0.812395

>  <SCORE.INTRA>
-9.84835

>  <SCORE.INTRA.DIHEDRAL>
-17.2574

>  <SCORE.INTRA.DIHEDRAL.0>
17.5233

>  <SCORE.INTRA.POLAR>
0

>  <SCORE.INTRA.POLAR.0>
0

>  <SCORE.INTRA.REPUL>
0

>  <SCORE.INTRA.REPUL.0>
0

>  <SCORE.INTRA.SOLV>
-1.53293

>  <SCORE.INTRA.SOLV.lig_0>
-46.1043

>  <SCORE.INTRA.VDW>
-0.453165

>  <SCORE.INTRA.VDW.0>
-0.545445

>  <SCORE.INTRA.norm>
-0.703453

>  <SCORE.RESTR>
0

>  <SCORE.RESTR.CAVITY>
0

>  <SCORE.RESTR.norm>
0

>  <SCORE.SYSTEM>
0

>  <SCORE.SYSTEM.CONST>
0

>  <SCORE.SYSTEM.DIHEDRAL>
0

>  <SCORE.SYSTEM.SOLV>
0

>  <SCORE.SYSTEM.norm>
0

>  <SCORE.heavy>
14

>  <SCORE.norm>
0.108942

>  <RMSD>
1.561

$$$$
ligand
 OpenBabel11021811513D
libRbt.so/2013.1/901 2013/11/27
 14 13  0  0  0  0  0  0  0  0999 V2000
   33.2982   43.3433   38.4445 N   0  0  0  0  0  0  0  0  0  0  0  0
   32.9914   44.7645   38.4597 C   0  0  0  0  0  0  0  0  0  0  0  0
   31.4877   44.9809   38.5942 C   0  0  0  0  0  0  0  0  0  0  0  0
   31.1475   46.4664   38.6386 C   0  0  0  0  0  0  0  0  0  0  0  0
   31.4546   47.1569   37.3896 N   0  0  0  0  0  0  0  0  0  0  0  0
   31.3599   48.6043   37.3007 C   0  0  0  0  0  0  0  0  0  0  0  0
   29.9277   49.1122   37.4256 C   0  0  0  0  0  0  0  0  0  0  0  0
   29.9002   50.6316   37.3028 C   0  0  0  0  0  0  0  0  0  0  0  0
   28.4672   51.1349   37.4387 C   0  0  0  0  0  0  0  0  0  0  0  0
   27.9360   50.9165   38.7731 N   0  0  0  0  0  0  0  0  0  0  0  0
   26.5657   51.3110   39.0717 C   0  0  0  0  0  0  0  0  0  0  0  0
   26.2255   51.3607   40.5597 C   0  0  0  0  0  0  0  0  0  0  0  0
   24.7921   51.8517   40.7698 C   0  0  0  0  0  0  0  0  0  0  0  0
   24.4917   51.9332   42.1891 N   0  0  0  0  0  0  0  0  0  0  0  0
  1  2  1  0  0  0  0
  2  3  1  0  0  0  0
  3  4  1  0  0  0  0
  4  5  1  0  0  0  0
  5  6  1  0  0  0  0
  6  7  1  0  0  0  0
  7  8  1  0  0  0  0
  8  9  1  0  0  0  0
  9 10  1  0  0  0  0
 10 11  1  0  0  0  0
 11 12  1  0  0  0  0
 12 13  1  0  0  0  0
 13 14  1  0  0  0  0
M  END
>  <CHROM.1>
178.92479225,65.51946044,-172.03500213,-67.15389979,-179.15198012,-179.58527809
66.72935530,-178.63838480,-165.53209613,177.12670881,-178.31529345,29.28895212
48.82648279,38.73965350,0.41807406,-0.71081455,2.48908364

>  <Name>
ligand

>  <RI>
0

>  <Rbt.Current_Directory>
/home/itssahil/PROJECTS/Mol_Feturizer/New_Systems/rnas/4P5J

>  <Rbt.Executable>
rbdock ($Id: //depot/dev/client3/rdock/2013.1/src/exe/rbdock.cxx#4 $)

>  <Rbt.Library>
libRbt.so (2013.1, Build901 2013/11/27)

>  <Rbt.Parameter_File>
/export/apps/rDock/src/rDock_2013.1_src/data/scripts/dock_solv.prm

>  <Rbt.Receptor>
prm/pocket_docking_2.prm

>  <SCORE>
1.0768

>  <SCORE.INTER>
10.8034

>  <SCORE.INTER.CONST>
1

>  <SCORE.INTER.POLAR>
0

>  <SCORE.INTER.ROT>
11

>  <SCORE.INTER.SOLV>
2.69104

>  <SCORE.INTER.VDW>
-4.62807

>  <SCORE.INTER.norm>
0.771673

>  <SCORE.INTRA>
-9.72662

>  <SCORE.INTRA.DIHEDRAL>
-16.9309

>  <SCORE.INTRA.DIHEDRAL.0>
17.5233

>  <SCORE.INTRA.POLAR>
0

>  <SCORE.INTRA.POLAR.0>
0

>  <SCORE.INTRA.REPUL>
0

>  <SCORE.INTRA.REPUL.0>
0

>  <SCORE.INTRA.SOLV>
-1.98797

>  <SCORE.INTRA.SOLV.lig_0>
-46.1043

>  <SCORE.INTRA.VDW>
-0.267183

>  <SCORE.INTRA.VDW.0>
-0.545445

>  <SCORE.INTRA.norm>
-0.694759

>  <SCORE.RESTR>
0

>  <SCORE.RESTR.CAVITY>
0

>  <SCORE.RESTR.norm>
0

>  <SCORE.SYSTEM>
0

>  <SCORE.SYSTEM.CONST>
0

>  <SCORE.SYSTEM.DIHEDRAL>
0

>  <SCORE.SYSTEM.SOLV>
0

>  <SCORE.SYSTEM.norm>
0

>  <SCORE.heavy>
14

>  <SCORE.norm>
0.0769142

>  <RMSD>
1.569

$$$$
ligand
 OpenBabel11021811513D
libRbt.so/2013.1/901 2013/11/27
 14 13  0  0  0  0  0  0  0  0999 V2000
   33.2496   45.3195   39.6367 N   0  0  0  0  0  0  0  0  0  0  0  0
   32.0573   44.8178   38.9729 C   0  0  0  0  0  0  0  0  0  0  0  0
   31.1750   45.9766   38.5203 C   0  0  0  0  0  0  0  0  0  0  0  0
   31.8625   46.8014   37.4380 C   0  0  0  0  0  0  0  0  0  0  0  0
   31.0531   47.9275   36.9822 N   0  0  0  0  0  0  0  0  0  0  0  0
   30.9333   49.1291   37.7908 C   0  0  0  0  0  0  0  0  0  0  0  0
   29.6579   49.1555   38.6258 C   0  0  0  0  0  0  0  0  0  0  0  0
   29.6138   50.4233   39.4714 C   0  0  0  0  0  0  0  0  0  0  0  0
   28.3314   50.4499   40.2960 C   0  0  0  0  0  0  0  0  0  0  0  0
   27.1503   50.6015   39.4639 N   0  0  0  0  0  0  0  0  0  0  0  0
   26.6661   51.9381   39.1447 C   0  0  0  0  0  0  0  0  0  0  0  0
   26.0981   52.7119   40.3326 C   0  0  0  0  0  0  0  0  0  0  0  0
   25.6557   54.1118   39.9034 C   0  0  0  0  0  0  0  0  0  0  0  0
   25.1472   54.8507   41.0464 N   0  0  0  0  0  0  0  0  0  0  0  0
  1  2  1  0  0  0  0
  2  3  1  0  0  0  0
  3  4  1  0  0  0  0
  4  5  1  0  0  0  0
  5  6  1  0  0  0  0
  6  7  1  0  0  0  0
  7  8  1  0  0  0  0
  8  9  1  0  0  0  0
  9 10  1  0  0  0  0
 10 11  1  0  0  0  0
 11 12  1  0  0  0  0
 12 13  1  0  0  0  0
 13 14  1  0  0  0  0
M  END
>  <CHROM.1>
65.84235966,-179.64963918,76.64231445,-97.85697408,178.64468301,179.55585307
-67.42858928,-89.45231556,-68.05564859,178.36966167,-178.62665595,29.18940520
49.58671780,39.11601762,0.17700359,-0.87583578,2.03993686

>  <Name>
ligand

>  <RI>
0

>  <Rbt.Current_Directory>
/home/itssahil/PROJECTS/Mol_Feturizer/New_Systems/rnas/4P5J

>  <Rbt.Executable>
rbdock ($Id: //depot/dev/client3/rdock/2013.1/src/exe/rbdock.cxx#4 $)

>  <Rbt.Library>
libRbt.so (2013.1, Build901 2013/11/27)

>  <Rbt.Parameter_File>
/export/apps/rDock/src/rDock_2013.1_src/data/scripts/dock_solv.prm

>  <Rbt.Receptor>
prm/pocket_docking_2.prm

>  <SCORE>
2.87396

>  <SCORE.INTER>
11.3785

>  <SCORE.INTER.CONST>
1

>  <SCORE.INTER.POLAR>
0

>  <SCORE.INTER.ROT>
11

>  <SCORE.INTER.SOLV>
2.52567

>  <SCORE.INTER.VDW>
-4.18958

>  <SCORE.INTER.norm>
0.812747

>  <SCORE.INTRA>
-8.5045

>  <SCORE.INTRA.DIHEDRAL>
-15.4745

>  <SCORE.INTRA.DIHEDRAL.0>
17.5233

>  <SCORE.INTRA.POLAR>
0

>  <SCORE.INTRA.POLAR.0>
0

>  <SCORE.INTRA.REPUL>
0

>  <SCORE.INTRA.REPUL.0>
0

>  <SCORE.INTRA.SOLV>
-1.56776

>  <SCORE.INTRA.SOLV.lig_0>
-46.1043

>  <SCORE.INTRA.VDW>
0.0166359

>  <SCORE.INTRA.VDW.0>
-0.545445

>  <SCORE.INTRA.norm>
-0.607464

>  <SCORE.RESTR>
0

>  <SCORE.RESTR.CAVITY>
0

>  <SCORE.RESTR.norm>
0

>  <SCORE.SYSTEM>
0

>  <SCORE.SYSTEM.CONST>
0

>  <SCORE.SYSTEM.DIHEDRAL>
0

>  <SCORE.SYSTEM.SOLV>
0

>  <SCORE.SYSTEM.norm>
0

>  <SCORE.heavy>
14

>  <SCORE.norm>
0.205283

>  <RMSD>
1.605

$$$$
ligand
 OpenBabel11021811513D
libRbt.so/2013.1/901 2013/11/27
 14 13  0  0  0  0  0  0  0  0999 V2000
   25.8038   54.1726   41.6887 N   0  0  0  0  0  0  0  0  0  0  0  0
   26.9557   53.7133   40.9296 C   0  0  0  0  0  0  0  0  0  0  0  0
   26.6398   52.3941   40.2327 C   0  0  0  0  0  0  0  0  0  0  0  0
   27.8512   51.8716   39.4688 C   0  0  0  0  0  0  0  0  0  0  0  0
   27.5724   50.6405   38.7354 N   0  0  0  0  0  0  0  0  0  0  0  0
   28.6367   49.9333   38.0432 C   0  0  0  0  0  0  0  0  0  0  0  0
   29.4540   49.0403   38.9702 C   0  0  0  0  0  0  0  0  0  0  0  0
   30.6021   48.3992   38.1987 C   0  0  0  0  0  0  0  0  0  0  0  0
   31.3278   47.3975   39.0904 C   0  0  0  0  0  0  0  0  0  0  0  0
   32.4327   46.7534   38.4014 N   0  0  0  0  0  0  0  0  0  0  0  0
   32.1557   45.7099   37.4231 C   0  0  0  0  0  0  0  0  0  0  0  0
   31.4858   44.4616   37.9935 C   0  0  0  0  0  0  0  0  0  0  0  0
   32.3775   43.8045   39.0484 C   0  0  0  0  0  0  0  0  0  0  0  0
   33.6036   43.3189   38.4384 N   0  0  0  0  0  0  0  0  0  0  0  0
  1  2  1  0  0  0  0
  2  3  1  0  0  0  0
  3  4  1  0  0  0  0
  4  5  1  0  0  0  0
  5  6  1  0  0  0  0
  6  7  1  0  0  0  0
  7  8  1  0  0  0  0
  8  9  1  0  0  0  0
  9 10  1  0  0  0  0
 10 11  1  0  0  0  0
 11 12  1  0  0  0  0
 12 13  1  0  0  0  0
 13 14  1  0  0  0  0
M  END
>  <CHROM.1>
-178.09107630,-177.32522656,-174.65620091,81.90566704,-176.47558951,-174.14986846
179.87339637,-75.84317626,-63.43869344,-60.86664676,-64.64464514,29.77845449
48.68647274,39.04720676,-2.88982328,0.95775282,-1.62480969

>  <Name>
ligand

>  <RI>
0

>  <Rbt.Current_Directory>
/home/itssahil/PROJECTS/Mol_Feturizer/New_Systems/rnas/4P5J

>  <Rbt.Executable>
rbdock ($Id: //depot/dev/client3/rdock/2013.1/src/exe/rbdock.cxx#4 $)

>  <Rbt.Library>
libRbt.so (2013.1, Build901 2013/11/27)

>  <Rbt.Parameter_File>
/export/apps/rDock/src/rDock_2013.1_src/data/scripts/dock_solv.prm

>  <Rbt.Receptor>
prm/pocket_docking_2.prm

>  <SCORE>
1.323

>  <SCORE.INTER>
9.88828

>  <SCORE.INTER.CONST>
1

>  <SCORE.INTER.POLAR>
0

>  <SCORE.INTER.ROT>
11

>  <SCORE.INTER.SOLV>
2.32385

>  <SCORE.INTER.VDW>
-5.11576

>  <SCORE.INTER.norm>
0.706306

>  <SCORE.INTRA>
-8.56528

>  <SCORE.INTRA.DIHEDRAL>
-16.6279

>  <SCORE.INTRA.DIHEDRAL.0>
17.5233

>  <SCORE.INTRA.POLAR>
0

>  <SCORE.INTRA.POLAR.0>
0

>  <SCORE.INTRA.REPUL>
0

>  <SCORE.INTRA.REPUL.0>
0

>  <SCORE.INTRA.SOLV>
-0.930315

>  <SCORE.INTRA.SOLV.lig_0>
-46.1043

>  <SCORE.INTRA.VDW>
0.213828

>  <SCORE.INTRA.VDW.0>
-0.545445

>  <SCORE.INTRA.norm>
-0.611806

>  <SCORE.RESTR>
0

>  <SCORE.RESTR.CAVITY>
0

>  <SCORE.RESTR.norm>
0

>  <SCORE.SYSTEM>
0

>  <SCORE.SYSTEM.CONST>
0

>  <SCORE.SYSTEM.DIHEDRAL>
0

>  <SCORE.SYSTEM.SOLV>
0

>  <SCORE.SYSTEM.norm>
0

>  <SCORE.heavy>
14

>  <SCORE.norm>
0.0944997

>  <RMSD>
1.612

$$$$
ligand
 OpenBabel11021811513D
libRbt.so/2013.1/901 2013/11/27
 14 13  0  0  0  0  0  0  0  0999 V2000
   24.3428   52.5017   41.3979 N   0  0  0  0  0  0  0  0  0  0  0  0
   24.9731   51.4453   40.6227 C   0  0  0  0  0  0  0  0  0  0  0  0
   26.1399   52.0041   39.8152 C   0  0  0  0  0  0  0  0  0  0  0  0
   26.8096   50.9123   38.9884 C   0  0  0  0  0  0  0  0  0  0  0  0
   27.9567   51.3990   38.2279 N   0  0  0  0  0  0  0  0  0  0  0  0
   28.7369   50.4924   37.4025 C   0  0  0  0  0  0  0  0  0  0  0  0
   29.6654   49.6000   38.2188 C   0  0  0  0  0  0  0  0  0  0  0  0
   30.5258   48.7524   37.2883 C   0  0  0  0  0  0  0  0  0  0  0  0
   31.4171   47.8269   38.1094 C   0  0  0  0  0  0  0  0  0  0  0  0
   30.6458   46.8553   38.8654 N   0  0  0  0  0  0  0  0  0  0  0  0
   31.2563   46.1897   40.0086 C   0  0  0  0  0  0  0  0  0  0  0  0
   31.8732   44.8273   39.6995 C   0  0  0  0  0  0  0  0  0  0  0  0
   33.0590   44.9755   38.7447 C   0  0  0  0  0  0  0  0  0  0  0  0
   33.6375   43.6743   38.4559 N   0  0  0  0  0  0  0  0  0  0  0  0
  1  2  1  0  0  0  0
  2  3  1  0  0  0  0
  3  4  1  0  0  0  0
  4  5  1  0  0  0  0
  5  6  1  0  0  0  0
  6  7  1  0  0  0  0
  7  8  1  0  0  0  0
  8  9  1  0  0  0  0
  9 10  1  0  0  0  0
 10 11  1  0  0  0  0
 11 12  1  0  0  0  0
 12 13  1  0  0  0  0
 13 14  1  0  0  0  0
M  END
>  <CHROM.1>
-179.66690985,-178.39779566,178.72350560,-75.88862385,-175.75101975,-178.01449182
64.68692546,-160.34250794,-95.17583551,65.17676157,-179.93408221,29.36001037
48.67545821,38.98883485,2.71706019,0.68673604,-0.78775387

>  <Name>
ligand

>  <RI>
0

>  <Rbt.Current_Directory>
/home/itssahil/PROJECTS/Mol_Feturizer/New_Systems/rnas/4P5J

>  <Rbt.Executable>
rbdock ($Id: //depot/dev/client3/rdock/2013.1/src/exe/rbdock.cxx#4 $)

>  <Rbt.Library>
libRbt.so (2013.1, Build901 2013/11/27)

>  <Rbt.Parameter_File>
/export/apps/rDock/src/rDock_2013.1_src/data/scripts/dock_solv.prm

>  <Rbt.Receptor>
prm/pocket_docking_2.prm

>  <SCORE>
1.43371

>  <SCORE.INTER>
10.778

>  <SCORE.INTER.CONST>
1

>  <SCORE.INTER.POLAR>
0

>  <SCORE.INTER.ROT>
11

>  <SCORE.INTER.SOLV>
3.21345

>  <SCORE.INTER.VDW>
-4.81917

>  <SCORE.INTER.norm>
0.769855

>  <SCORE.INTRA>
-9.34534

>  <SCORE.INTRA.DIHEDRAL>
-15.9965

>  <SCORE.INTRA.DIHEDRAL.0>
17.5233

>  <SCORE.INTRA.POLAR>
0

>  <SCORE.INTRA.POLAR.0>
0

>  <SCORE.INTRA.REPUL>
0

>  <SCORE.INTRA.REPUL.0>
0

>  <SCORE.INTRA.SOLV>
-1.99592

>  <SCORE.INTRA.SOLV.lig_0>
-46.1043

>  <SCORE.INTRA.VDW>
-0.349119

>  <SCORE.INTRA.VDW.0>
-0.545445

>  <SCORE.INTRA.norm>
-0.667524

>  <SCORE.RESTR>
0.0010782

>  <SCORE.RESTR.CAVITY>
0.0010782

>  <SCORE.RESTR.norm>
7.70145e-05

>  <SCORE.SYSTEM>
0

>  <SCORE.SYSTEM.CONST>
0

>  <SCORE.SYSTEM.DIHEDRAL>
0

>  <SCORE.SYSTEM.SOLV>
0

>  <SCORE.SYSTEM.norm>
0

>  <SCORE.heavy>
14

>  <SCORE.norm>
0.102408

>  <RMSD>
1.613

$$$$
ligand
 OpenBabel11021811513D
libRbt.so/2013.1/901 2013/11/27
 14 13  0  0  0  0  0  0  0  0999 V2000
   33.7151   43.6201   39.3119 N   0  0  0  0  0  0  0  0  0  0  0  0
   32.6346   43.2748   38.4023 C   0  0  0  0  0  0  0  0  0  0  0  0
   31.6147   44.4068   38.3365 C   0  0  0  0  0  0  0  0  0  0  0  0
   32.2304   45.6681   37.7412 C   0  0  0  0  0  0  0  0  0  0  0  0
   31.3347   46.8194   37.8000 N   0  0  0  0  0  0  0  0  0  0  0  0
   31.1349   47.5397   39.0462 C   0  0  0  0  0  0  0  0  0  0  0  0
   29.8165   48.3048   39.0824 C   0  0  0  0  0  0  0  0  0  0  0  0
   29.7933   49.3570   37.9794 C   0  0  0  0  0  0  0  0  0  0  0  0
   28.4344   50.0483   37.9536 C   0  0  0  0  0  0  0  0  0  0  0  0
   28.1574   50.7543   39.1927 N   0  0  0  0  0  0  0  0  0  0  0  0
   26.9411   50.4488   39.9343 C   0  0  0  0  0  0  0  0  0  0  0  0
   26.5609   51.4835   40.9912 C   0  0  0  0  0  0  0  0  0  0  0  0
   26.2692   52.8372   40.3413 C   0  0  0  0  0  0  0  0  0  0  0  0
   25.9197   53.8169   41.3558 N   0  0  0  0  0  0  0  0  0  0  0  0
  1  2  1  0  0  0  0
  2  3  1  0  0  0  0
  3  4  1  0  0  0  0
  4  5  1  0  0  0  0
  5  6  1  0  0  0  0
  6  7  1  0  0  0  0
  7  8  1  0  0  0  0
  8  9  1  0  0  0  0
  9 10  1  0  0  0  0
 10 11  1  0  0  0  0
 11 12  1  0  0  0  0
 12 13  1  0  0  0  0
 13 14  1  0  0  0  0
M  END
>  <CHROM.1>
64.40449594,-173.44417216,76.98087097,-156.91335960,-61.81086425,175.82719759
62.23959373,-124.36555998,-164.27864770,62.66914972,-179.51770557,29.61113277
48.45558508,39.10478657,0.19532587,-0.91952073,2.05988655

>  <Name>
ligand

>  <RI>
0

>  <Rbt.Current_Directory>
/home/itssahil/PROJECTS/Mol_Feturizer/New_Systems/rnas/4P5J

>  <Rbt.Executable>
rbdock ($Id: //depot/dev/client3/rdock/2013.1/src/exe/rbdock.cxx#4 $)

>  <Rbt.Library>
libRbt.so (2013.1, Build901 2013/11/27)

>  <Rbt.Parameter_File>
/export/apps/rDock/src/rDock_2013.1_src/data/scripts/dock_solv.prm

>  <Rbt.Receptor>
prm/pocket_docking_2.prm

>  <SCORE>
1.52166

>  <SCORE.INTER>
9.67574

>  <SCORE.INTER.CONST>
1

>  <SCORE.INTER.POLAR>
0

>  <SCORE.INTER.ROT>
11

>  <SCORE.INTER.SOLV>
3.06286

>  <SCORE.INTER.VDW>
-5.50379

>  <SCORE.INTER.norm>
0.691124

>  <SCORE.INTRA>
-8.15837

>  <SCORE.INTRA.DIHEDRAL>
-15.1714

>  <SCORE.INTRA.DIHEDRAL.0>
17.5233

>  <SCORE.INTRA.POLAR>
0

>  <SCORE.INTRA.POLAR.0>
0

>  <SCORE.INTRA.REPUL>
0

>  <SCORE.INTRA.REPUL.0>
0

>  <SCORE.INTRA.SOLV>
-0.70921

>  <SCORE.INTRA.SOLV.lig_0>
-46.1043

>  <SCORE.INTRA.VDW>
-0.218072

>  <SCORE.INTRA.VDW.0>
-0.545445

>  <SCORE.INTRA.norm>
-0.582741

>  <SCORE.RESTR>
0.0042956

>  <SCORE.RESTR.CAVITY>
0.0042956

>  <SCORE.RESTR.norm>
0.000306829

>  <SCORE.SYSTEM>
0

>  <SCORE.SYSTEM.CONST>
0

>  <SCORE.SYSTEM.DIHEDRAL>
0

>  <SCORE.SYSTEM.SOLV>
0

>  <SCORE.SYSTEM.norm>
0

>  <SCORE.heavy>
14

>  <SCORE.norm>
0.10869

>  <RMSD>
1.615

$$$$
ligand
 OpenBabel11021811513D
libRbt.so/2013.1/901 2013/11/27
 14 13  0  0  0  0  0  0  0  0999 V2000
   33.8010   43.0100   39.7373 N   0  0  0  0  0  0  0  0  0  0  0  0
   33.0593   43.3778   38.5421 C   0  0  0  0  0  0  0  0  0  0  0  0
   31.9836   44.4045   38.8805 C   0  0  0  0  0  0  0  0  0  0  0  0
   32.6024   45.7063   39.3771 C   0  0  0  0  0  0  0  0  0  0  0  0
   31.6058   46.7282   39.6834 N   0  0  0  0  0  0  0  0  0  0  0  0
   30.8405   47.3586   38.6210 C   0  0  0  0  0  0  0  0  0  0  0  0
   30.3153   48.7367   39.0079 C   0  0  0  0  0  0  0  0  0  0  0  0
   29.5700   49.3600   37.8330 C   0  0  0  0  0  0  0  0  0  0  0  0
   29.1789   50.7943   38.1717 C   0  0  0  0  0  0  0  0  0  0  0  0
   28.2369   50.8571   39.2759 N   0  0  0  0  0  0  0  0  0  0  0  0
   26.8096   50.7429   39.0069 C   0  0  0  0  0  0  0  0  0  0  0  0
   25.9133   50.9164   40.2312 C   0  0  0  0  0  0  0  0  0  0  0  0
   26.0607   52.3233   40.8133 C   0  0  0  0  0  0  0  0  0  0  0  0
   25.6128   53.3151   39.8506 N   0  0  0  0  0  0  0  0  0  0  0  0
  1  2  1  0  0  0  0
  2  3  1  0  0  0  0
  3  4  1  0  0  0  0
  4  5  1  0  0  0  0
  5  6  1  0  0  0  0
  6  7  1  0  0  0  0
  7  8  1  0  0  0  0
  8  9  1  0  0  0  0
  9 10  1  0  0  0  0
 10 11  1  0  0  0  0
 11 12  1  0  0  0  0
 12 13  1  0  0  0  0
 13 14  1  0  0  0  0
M  END
>  <CHROM.1>
63.93034129,178.68116479,-69.32923099,-155.80334963,177.85315858,-173.88594469
-64.27750462,-86.57738491,-176.09879038,63.11298134,63.27267260,29.68497426
48.40218874,39.21640032,0.60293116,-0.68474299,2.47731658

>  <Name>
ligand

>  <RI>
0

>  <Rbt.Current_Directory>
/home/itssahil/PROJECTS/Mol_Feturizer/New_Systems/rnas/4P5J

>  <Rbt.Executable>
rbdock ($Id: //depot/dev/client3/rdock/2013.1/src/exe/rbdock.cxx#4 $)

>  <Rbt.Library>
libRbt.so (2013.1, Build901 2013/11/27)

>  <Rbt.Parameter_File>
/export/apps/rDock/src/rDock_2013.1_src/data/scripts/dock_solv.prm

>  <Rbt.Receptor>
prm/pocket_docking_2.prm

>  <SCORE>
2.97624

>  <SCORE.INTER>
10.7893

>  <SCORE.INTER.CONST>
1

>  <SCORE.INTER.POLAR>
0

>  <SCORE.INTER.ROT>
11

>  <SCORE.INTER.SOLV>
1.71712

>  <SCORE.INTER.VDW>
-4.31286

>  <SCORE.INTER.norm>
0.770662

>  <SCORE.INTRA>
-7.81303

>  <SCORE.INTRA.DIHEDRAL>
-16.1435

>  <SCORE.INTRA.DIHEDRAL.0>
17.5233

>  <SCORE.INTRA.POLAR>
0

>  <SCORE.INTRA.POLAR.0>
0

>  <SCORE.INTRA.REPUL>
0

>  <SCORE.INTRA.REPUL.0>
0

>  <SCORE.INTRA.SOLV>
0.237155

>  <SCORE.INTRA.SOLV.lig_0>
-46.1043

>  <SCORE.INTRA.VDW>
0.140131

>  <SCORE.INTRA.VDW.0>
-0.545445

>  <SCORE.INTRA.norm>
-0.558073

>  <SCORE.RESTR>
0

>  <SCORE.RESTR.CAVITY>
0

>  <SCORE.RESTR.norm>
0

>  <SCORE.SYSTEM>
0

>  <SCORE.SYSTEM.CONST>
0

>  <SCORE.SYSTEM.DIHEDRAL>
0

>  <SCORE.SYSTEM.SOLV>
0

>  <SCORE.SYSTEM.norm>
0

>  <SCORE.heavy>
14

>  <SCORE.norm>
0.212589

>  <RMSD>
1.616

$$$$
ligand
 OpenBabel11021811513D
libRbt.so/2013.1/901 2013/11/27
 14 13  0  0  0  0  0  0  0  0999 V2000
   25.1082   52.2915   41.4618 N   0  0  0  0  0  0  0  0  0  0  0  0
   25.4614   51.3674   40.3964 C   0  0  0  0  0  0  0  0  0  0  0  0
   26.9239   51.5460   40.0026 C   0  0  0  0  0  0  0  0  0  0  0  0
   27.3134   50.5870   38.8834 C   0  0  0  0  0  0  0  0  0  0  0  0
   28.7225   50.6866   38.5149 N   0  0  0  0  0  0  0  0  0  0  0  0
   29.3588   49.6416   37.7306 C   0  0  0  0  0  0  0  0  0  0  0  0
   30.8781   49.7663   37.7010 C   0  0  0  0  0  0  0  0  0  0  0  0
   31.4884   48.5491   37.0152 C   0  0  0  0  0  0  0  0  0  0  0  0
   31.2994   47.3145   37.8900 C   0  0  0  0  0  0  0  0  0  0  0  0
   31.7822   46.1072   37.2422 N   0  0  0  0  0  0  0  0  0  0  0  0
   31.4012   44.8065   37.7767 C   0  0  0  0  0  0  0  0  0  0  0  0
   32.0828   44.4318   39.0909 C   0  0  0  0  0  0  0  0  0  0  0  0
   33.5978   44.3322   38.9044 C   0  0  0  0  0  0  0  0  0  0  0  0
   34.2322   43.9313   40.1486 N   0  0  0  0  0  0  0  0  0  0  0  0
  1  2  1  0  0  0  0
  2  3  1  0  0  0  0
  3  4  1  0  0  0  0
  4  5  1  0  0  0  0
  5  6  1  0  0  0  0
  6  7  1  0  0  0  0
  7  8  1  0  0  0  0
  8  9  1  0  0  0  0
  9 10  1  0  0  0  0
 10 11  1  0  0  0  0
 11 12  1  0  0  0  0
 12 13  1  0  0  0  0
 13 14  1  0  0  0  0
M  END
>  <CHROM.1>
-179.87218089,-177.57132906,164.07008520,-167.62455453,172.87431839,-69.00131428
176.06109846,-165.39450883,-72.57305740,-62.44530985,-178.07768760,29.97502761
48.23992967,38.76823275,2.75174918,0.73591164,-0.82008869

>  <Name>
ligand

>  <RI>
0

>  <Rbt.Current_Directory>
/home/itssahil/PROJECTS/Mol_Feturizer/New_Systems/rnas/4P5J

>  <Rbt.Executable>
rbdock ($Id: //depot/dev/client3/rdock/2013.1/src/exe/rbdock.cxx#4 $)

>  <Rbt.Library>
libRbt.so (2013.1, Build901 2013/11/27)

>  <Rbt.Parameter_File>
/export/apps/rDock/src/rDock_2013.1_src/data/scripts/dock_solv.prm

>  <Rbt.Receptor>
prm/pocket_docking_2.prm

>  <SCORE>
1.29009

>  <SCORE.INTER>
10.2017

>  <SCORE.INTER.CONST>
1

>  <SCORE.INTER.POLAR>
0

>  <SCORE.INTER.ROT>
11

>  <SCORE.INTER.SOLV>
2.87337

>  <SCORE.INTER.VDW>
-5.09

>  <SCORE.INTER.norm>
0.728691

>  <SCORE.INTRA>
-8.92039

>  <SCORE.INTRA.DIHEDRAL>
-16.2714

>  <SCORE.INTRA.DIHEDRAL.0>
17.5233

>  <SCORE.INTRA.POLAR>
0

>  <SCORE.INTRA.POLAR.0>
0

>  <SCORE.INTRA.REPUL>
0

>  <SCORE.INTRA.REPUL.0>
0

>  <SCORE.INTRA.SOLV>
-2.10554

>  <SCORE.INTRA.SOLV.lig_0>
-46.1043

>  <SCORE.INTRA.VDW>
0.268091

>  <SCORE.INTRA.VDW.0>
-0.545445

>  <SCORE.INTRA.norm>
-0.637171

>  <SCORE.RESTR>
0.00880982

>  <SCORE.RESTR.CAVITY>
0.00880982

>  <SCORE.RESTR.norm>
0.000629273

>  <SCORE.SYSTEM>
0

>  <SCORE.SYSTEM.CONST>
0

>  <SCORE.SYSTEM.DIHEDRAL>
0

>  <SCORE.SYSTEM.SOLV>
0

>  <SCORE.SYSTEM.norm>
0

>  <SCORE.heavy>
14

>  <SCORE.norm>
0.0921495

>  <RMSD>
1.632

$$$$
ligand
 OpenBabel11021811513D
libRbt.so/2013.1/901 2013/11/27
 14 13  0  0  0  0  0  0  0  0999 V2000
   24.5232   51.4332   41.4998 N   0  0  0  0  0  0  0  0  0  0  0  0
   25.7504   51.5213   40.7251 C   0  0  0  0  0  0  0  0  0  0  0  0
   25.4334   51.7949   39.2587 C   0  0  0  0  0  0  0  0  0  0  0  0
   26.7097   51.9599   38.4414 C   0  0  0  0  0  0  0  0  0  0  0  0
   27.5613   50.7746   38.4727 N   0  0  0  0  0  0  0  0  0  0  0  0
   28.7911   50.7255   37.7001 C   0  0  0  0  0  0  0  0  0  0  0  0
   29.4742   49.3636   37.7613 C   0  0  0  0  0  0  0  0  0  0  0  0
   30.7776   49.3975   36.9712 C   0  0  0  0  0  0  0  0  0  0  0  0
   31.4176   48.0135   36.9711 C   0  0  0  0  0  0  0  0  0  0  0  0
   31.7527   47.5668   38.3122 N   0  0  0  0  0  0  0  0  0  0  0  0
   30.8352   46.6870   39.0240 C   0  0  0  0  0  0  0  0  0  0  0  0
   31.5082   45.6854   39.9601 C   0  0  0  0  0  0  0  0  0  0  0  0
   32.3742   44.7040   39.1684 C   0  0  0  0  0  0  0  0  0  0  0  0
   32.9405   43.7034   40.0570 N   0  0  0  0  0  0  0  0  0  0  0  0
  1  2  1  0  0  0  0
  2  3  1  0  0  0  0
  3  4  1  0  0  0  0
  4  5  1  0  0  0  0
  5  6  1  0  0  0  0
  6  7  1  0  0  0  0
  7  8  1  0  0  0  0
  8  9  1  0  0  0  0
  9 10  1  0  0  0  0
 10 11  1  0  0  0  0
 11 12  1  0  0  0  0
 12 13  1  0  0  0  0
 13 14  1  0  0  0  0
M  END
>  <CHROM.1>
177.17052451,60.12689979,177.12719128,-174.73886220,-178.06210510,-176.88738501
-61.54988409,97.05027095,147.02274007,-64.23024997,-176.32504265,29.27498323
48.80951006,38.87993430,2.69479428,0.65756895,-0.80427896

>  <Name>
ligand

>  <RI>
0

>  <Rbt.Current_Directory>
/home/itssahil/PROJECTS/Mol_Feturizer/New_Systems/rnas/4P5J

>  <Rbt.Executable>
rbdock ($Id: //depot/dev/client3/rdock/2013.1/src/exe/rbdock.cxx#4 $)

>  <Rbt.Library>
libRbt.so (2013.1, Build901 2013/11/27)

>  <Rbt.Parameter_File>
/export/apps/rDock/src/rDock_2013.1_src/data/scripts/dock_solv.prm

>  <Rbt.Receptor>
prm/pocket_docking_2.prm

>  <SCORE>
1.50252

>  <SCORE.INTER>
10.5093

>  <SCORE.INTER.CONST>
1

>  <SCORE.INTER.POLAR>
0

>  <SCORE.INTER.ROT>
11

>  <SCORE.INTER.SOLV>
3.23177

>  <SCORE.INTER.VDW>
-5.00442

>  <SCORE.INTER.norm>
0.750661

>  <SCORE.INTRA>
-9.00674

>  <SCORE.INTRA.DIHEDRAL>
-15.7717

>  <SCORE.INTRA.DIHEDRAL.0>
17.5233

>  <SCORE.INTRA.POLAR>
0

>  <SCORE.INTRA.POLAR.0>
0

>  <SCORE.INTRA.REPUL>
0

>  <SCORE.INTRA.REPUL.0>
0

>  <SCORE.INTRA.SOLV>
-1.61126

>  <SCORE.INTRA.SOLV.lig_0>
-46.1043

>  <SCORE.INTRA.VDW>
-0.315233

>  <SCORE.INTRA.VDW.0>
-0.545445

>  <SCORE.INTRA.norm>
-0.643338

>  <SCORE.RESTR>
0

>  <SCORE.RESTR.CAVITY>
0

>  <SCORE.RESTR.norm>
0

>  <SCORE.SYSTEM>
0

>  <SCORE.SYSTEM.CONST>
0

>  <SCORE.SYSTEM.DIHEDRAL>
0

>  <SCORE.SYSTEM.SOLV>
0

>  <SCORE.SYSTEM.norm>
0

>  <SCORE.heavy>
14

>  <SCORE.norm>
0.107323

>  <RMSD>
1.652

$$$$
ligand
 OpenBabel11021811513D
libRbt.so/2013.1/901 2013/11/27
 14 13  0  0  0  0  0  0  0  0999 V2000
   34.2616   43.9539   38.1344 N   0  0  0  0  0  0  0  0  0  0  0  0
   33.4111   45.0390   38.5961 C   0  0  0  0  0  0  0  0  0  0  0  0
   32.1637   44.4830   39.2749 C   0  0  0  0  0  0  0  0  0  0  0  0
   31.2514   45.6063   39.7546 C   0  0  0  0  0  0  0  0  0  0  0  0
   30.7142   46.4084   38.6595 N   0  0  0  0  0  0  0  0  0  0  0  0
   31.3753   47.6345   38.2456 C   0  0  0  0  0  0  0  0  0  0  0  0
   30.3960   48.7070   37.7815 C   0  0  0  0  0  0  0  0  0  0  0  0
   29.4638   49.0925   38.9246 C   0  0  0  0  0  0  0  0  0  0  0  0
   28.4250   50.0926   38.4290 C   0  0  0  0  0  0  0  0  0  0  0  0
   27.5093   50.4959   39.4823 N   0  0  0  0  0  0  0  0  0  0  0  0
   26.1693   50.9479   39.1319 C   0  0  0  0  0  0  0  0  0  0  0  0
   25.3367   51.4501   40.3095 C   0  0  0  0  0  0  0  0  0  0  0  0
   25.9590   52.7109   40.9121 C   0  0  0  0  0  0  0  0  0  0  0  0
   25.1679   53.1719   42.0404 N   0  0  0  0  0  0  0  0  0  0  0  0
  1  2  1  0  0  0  0
  2  3  1  0  0  0  0
  3  4  1  0  0  0  0
  4  5  1  0  0  0  0
  5  6  1  0  0  0  0
  6  7  1  0  0  0  0
  7  8  1  0  0  0  0
  8  9  1  0  0  0  0
  9 10  1  0  0  0  0
 10 11  1  0  0  0  0
 11 12  1  0  0  0  0
 12 13  1  0  0  0  0
 13 14  1  0  0  0  0
M  END
>  <CHROM.1>
-179.45148083,64.23380871,-94.45176551,-145.49386566,61.64520740,-176.05595968
-179.92629908,-153.70397000,-175.35907981,64.88072384,-179.36902379,29.40029934
48.55671475,39.26246921,0.23039059,-0.78495803,2.15402320

>  <Name>
ligand

>  <RI>
0

>  <Rbt.Current_Directory>
/home/itssahil/PROJECTS/Mol_Feturizer/New_Systems/rnas/4P5J

>  <Rbt.Executable>
rbdock ($Id: //depot/dev/client3/rdock/2013.1/src/exe/rbdock.cxx#4 $)

>  <Rbt.Library>
libRbt.so (2013.1, Build901 2013/11/27)

>  <Rbt.Parameter_File>
/export/apps/rDock/src/rDock_2013.1_src/data/scripts/dock_solv.prm

>  <Rbt.Receptor>
prm/pocket_docking_2.prm

>  <SCORE>
1.33143

>  <SCORE.INTER>
10.2552

>  <SCORE.INTER.CONST>
1

>  <SCORE.INTER.POLAR>
0

>  <SCORE.INTER.ROT>
11

>  <SCORE.INTER.SOLV>
3.97308

>  <SCORE.INTER.VDW>
-5.42087

>  <SCORE.INTER.norm>
0.732517

>  <SCORE.INTRA>
-8.93285

>  <SCORE.INTRA.DIHEDRAL>
-15.3074

>  <SCORE.INTRA.DIHEDRAL.0>
17.5233

>  <SCORE.INTRA.POLAR>
0

>  <SCORE.INTRA.POLAR.0>
0

>  <SCORE.INTRA.REPUL>
0

>  <SCORE.INTRA.REPUL.0>
0

>  <SCORE.INTRA.SOLV>
-1.58768

>  <SCORE.INTRA.SOLV.lig_0>
-46.1043

>  <SCORE.INTRA.VDW>
-0.485337

>  <SCORE.INTRA.VDW.0>
-0.545445

>  <SCORE.INTRA.norm>
-0.638061

>  <SCORE.RESTR>
0.00904774

>  <SCORE.RESTR.CAVITY>
0.00904774

>  <SCORE.RESTR.norm>
0.000646267

>  <SCORE.SYSTEM>
0

>  <SCORE.SYSTEM.CONST>
0

>  <SCORE.SYSTEM.DIHEDRAL>
0

>  <SCORE.SYSTEM.SOLV>
0

>  <SCORE.SYSTEM.norm>
0

>  <SCORE.heavy>
14

>  <SCORE.norm>
0.0951018

>  <RMSD>
1.663

$$$$
ligand
 OpenBabel11021811513D
libRbt.so/2013.1/901 2013/11/27
 14 13  0  0  0  0  0  0  0  0999 V2000
   34.9779   44.0987   38.9297 N   0  0  0  0  0  0  0  0  0  0  0  0
   33.7383   43.4852   38.4812 C   0  0  0  0  0  0  0  0  0  0  0  0
   32.5390   44.2588   39.0187 C   0  0  0  0  0  0  0  0  0  0  0  0
   32.4525   45.6454   38.3909 C   0  0  0  0  0  0  0  0  0  0  0  0
   31.3464   46.4393   38.9176 N   0  0  0  0  0  0  0  0  0  0  0  0
   31.0133   47.7265   38.3312 C   0  0  0  0  0  0  0  0  0  0  0  0
   29.8730   48.4306   39.0584 C   0  0  0  0  0  0  0  0  0  0  0  0
   29.4735   49.6935   38.3035 C   0  0  0  0  0  0  0  0  0  0  0  0
   28.2477   50.3208   38.9586 C   0  0  0  0  0  0  0  0  0  0  0  0
   27.8182   51.5265   38.2713 N   0  0  0  0  0  0  0  0  0  0  0  0
   26.4677   52.0297   38.4847 C   0  0  0  0  0  0  0  0  0  0  0  0
   26.2073   52.5863   39.8828 C   0  0  0  0  0  0  0  0  0  0  0  0
   27.0650   53.8267   40.1387 C   0  0  0  0  0  0  0  0  0  0  0  0
   26.8263   54.3352   41.4787 N   0  0  0  0  0  0  0  0  0  0  0  0
  1  2  1  0  0  0  0
  2  3  1  0  0  0  0
  3  4  1  0  0  0  0
  4  5  1  0  0  0  0
  5  6  1  0  0  0  0
  6  7  1  0  0  0  0
  7  8  1  0  0  0  0
  8  9  1  0  0  0  0
  9 10  1  0  0  0  0
 10 11  1  0  0  0  0
 11 12  1  0  0  0  0
 12 13  1  0  0  0  0
 13 14  1  0  0  0  0
M  END
>  <CHROM.1>
67.55265661,-177.76559510,-172.91797087,-177.33101583,-173.73446194,174.58185321
-179.62009339,161.52543903,68.82918789,64.74054313,-179.06280114,29.86029183
48.88585625,39.04599192,-0.65230395,-0.70540534,0.83375749

>  <Name>
ligand

>  <RI>
0

>  <Rbt.Current_Directory>
/home/itssahil/PROJECTS/Mol_Feturizer/New_Systems/rnas/4P5J

>  <Rbt.Executable>
rbdock ($Id: //depot/dev/client3/rdock/2013.1/src/exe/rbdock.cxx#4 $)

>  <Rbt.Library>
libRbt.so (2013.1, Build901 2013/11/27)

>  <Rbt.Parameter_File>
/export/apps/rDock/src/rDock_2013.1_src/data/scripts/dock_solv.prm

>  <Rbt.Receptor>
prm/pocket_docking_2.prm

>  <SCORE>
2.11519

>  <SCORE.INTER>
11.5495

>  <SCORE.INTER.CONST>
1

>  <SCORE.INTER.POLAR>
0

>  <SCORE.INTER.ROT>
11

>  <SCORE.INTER.SOLV>
1.9983

>  <SCORE.INTER.VDW>
-3.89977

>  <SCORE.INTER.norm>
0.824964

>  <SCORE.INTRA>
-9.43431

>  <SCORE.INTRA.DIHEDRAL>
-16.5643

>  <SCORE.INTRA.DIHEDRAL.0>
17.5233

>  <SCORE.INTRA.POLAR>
0

>  <SCORE.INTRA.POLAR.0>
0

>  <SCORE.INTRA.REPUL>
0

>  <SCORE.INTRA.REPUL.0>
0

>  <SCORE.INTRA.SOLV>
-1.64255

>  <SCORE.INTRA.SOLV.lig_0>
-46.1043

>  <SCORE.INTRA.VDW>
-0.330869

>  <SCORE.INTRA.VDW.0>
-0.545445

>  <SCORE.INTRA.norm>
-0.673879

>  <SCORE.RESTR>
0

>  <SCORE.RESTR.CAVITY>
0

>  <SCORE.RESTR.norm>
0

>  <SCORE.SYSTEM>
0

>  <SCORE.SYSTEM.CONST>
0

>  <SCORE.SYSTEM.DIHEDRAL>
0

>  <SCORE.SYSTEM.SOLV>
0

>  <SCORE.SYSTEM.norm>
0

>  <SCORE.heavy>
14

>  <SCORE.norm>
0.151085

>  <RMSD>
1.678

$$$$
ligand
 OpenBabel11021811513D
libRbt.so/2013.1/901 2013/11/27
 14 13  0  0  0  0  0  0  0  0999 V2000
   27.0212   54.6124   41.8479 N   0  0  0  0  0  0  0  0  0  0  0  0
   26.8889   54.6516   40.4005 C   0  0  0  0  0  0  0  0  0  0  0  0
   26.1972   53.3892   39.8968 C   0  0  0  0  0  0  0  0  0  0  0  0
   27.0561   52.1546   40.1458 C   0  0  0  0  0  0  0  0  0  0  0  0
   28.3146   52.1798   39.4063 N   0  0  0  0  0  0  0  0  0  0  0  0
   29.2394   51.0612   39.4795 C   0  0  0  0  0  0  0  0  0  0  0  0
   28.8386   49.9021   38.5736 C   0  0  0  0  0  0  0  0  0  0  0  0
   29.4852   48.6105   39.0617 C   0  0  0  0  0  0  0  0  0  0  0  0
   30.9316   48.5442   38.5835 C   0  0  0  0  0  0  0  0  0  0  0  0
   31.0399   47.9831   37.2479 N   0  0  0  0  0  0  0  0  0  0  0  0
   32.0547   46.9739   36.9753 C   0  0  0  0  0  0  0  0  0  0  0  0
   31.6558   45.5491   37.3535 C   0  0  0  0  0  0  0  0  0  0  0  0
   31.6328   45.3801   38.8736 C   0  0  0  0  0  0  0  0  0  0  0  0
   32.9778   45.4900   39.4120 N   0  0  0  0  0  0  0  0  0  0  0  0
  1  2  1  0  0  0  0
  2  3  1  0  0  0  0
  3  4  1  0  0  0  0
  4  5  1  0  0  0  0
  5  6  1  0  0  0  0
  6  7  1  0  0  0  0
  7  8  1  0  0  0  0
  8  9  1  0  0  0  0
  9 10  1  0  0  0  0
 10 11  1  0  0  0  0
 11 12  1  0  0  0  0
 12 13  1  0  0  0  0
 13 14  1  0  0  0  0
M  END
>  <CHROM.1>
-65.60649499,-63.87030119,-177.60467742,80.08734119,-158.41771502,-80.50123344
-85.86769150,-134.41258823,83.30669988,-71.65889791,-67.01615586,29.52371616
49.74858518,39.08967903,-2.74055299,0.95784288,-1.74171539

>  <Name>
ligand

>  <RI>
0

>  <Rbt.Current_Directory>
/home/itssahil/PROJECTS/Mol_Feturizer/New_Systems/rnas/4P5J

>  <Rbt.Executable>
rbdock ($Id: //depot/dev/client3/rdock/2013.1/src/exe/rbdock.cxx#4 $)

>  <Rbt.Library>
libRbt.so (2013.1, Build901 2013/11/27)

>  <Rbt.Parameter_File>
/export/apps/rDock/src/rDock_2013.1_src/data/scripts/dock_solv.prm

>  <Rbt.Receptor>
prm/pocket_docking_2.prm

>  <SCORE>
7.40586

>  <SCORE.INTER>
11.2518

>  <SCORE.INTER.CONST>
1

>  <SCORE.INTER.POLAR>
0

>  <SCORE.INTER.ROT>
11

>  <SCORE.INTER.SOLV>
2.32634

>  <SCORE.INTER.VDW>
-4.20757

>  <SCORE.INTER.norm>
0.803701

>  <SCORE.INTRA>
-3.84596

>  <SCORE.INTRA.DIHEDRAL>
-9.5778

>  <SCORE.INTRA.DIHEDRAL.0>
17.5233

>  <SCORE.INTRA.POLAR>
0

>  <SCORE.INTRA.POLAR.0>
0

>  <SCORE.INTRA.REPUL>
0

>  <SCORE.INTRA.REPUL.0>
0

>  <SCORE.INTRA.SOLV>
1.66716

>  <SCORE.INTRA.SOLV.lig_0>
-46.1043

>  <SCORE.INTRA.VDW>
0.109365

>  <SCORE.INTRA.VDW.0>
-0.545445

>  <SCORE.INTRA.norm>
-0.274711

>  <SCORE.RESTR>
0

>  <SCORE.RESTR.CAVITY>
0

>  <SCORE.RESTR.norm>
0

>  <SCORE.SYSTEM>
0

>  <SCORE.SYSTEM.CONST>
0

>  <SCORE.SYSTEM.DIHEDRAL>
0

>  <SCORE.SYSTEM.SOLV>
0

>  <SCORE.SYSTEM.norm>
0

>  <SCORE.heavy>
14

>  <SCORE.norm>
0.52899

>  <RMSD>
1.684

$$$$
ligand
 OpenBabel11021811513D
libRbt.so/2013.1/901 2013/11/27
 14 13  0  0  0  0  0  0  0  0999 V2000
   24.6192   52.1151   42.5642 N   0  0  0  0  0  0  0  0  0  0  0  0
   24.7516   52.1011   41.1164 C   0  0  0  0  0  0  0  0  0  0  0  0
   25.9792   51.2957   40.7038 C   0  0  0  0  0  0  0  0  0  0  0  0
   26.1590   51.3034   39.1899 C   0  0  0  0  0  0  0  0  0  0  0  0
   27.3130   50.5243   38.7512 N   0  0  0  0  0  0  0  0  0  0  0  0
   28.6600   51.0505   38.8947 C   0  0  0  0  0  0  0  0  0  0  0  0
   29.7028   50.2151   38.1602 C   0  0  0  0  0  0  0  0  0  0  0  0
   29.8025   48.8313   38.7922 C   0  0  0  0  0  0  0  0  0  0  0  0
   30.8442   47.9993   38.0521 C   0  0  0  0  0  0  0  0  0  0  0  0
   30.9354   46.6472   38.5754 N   0  0  0  0  0  0  0  0  0  0  0  0
   31.6754   45.6387   37.8285 C   0  0  0  0  0  0  0  0  0  0  0  0
   31.8639   44.3121   38.5612 C   0  0  0  0  0  0  0  0  0  0  0  0
   32.6740   44.5135   39.8430 C   0  0  0  0  0  0  0  0  0  0  0  0
   32.8855   43.2397   40.5093 N   0  0  0  0  0  0  0  0  0  0  0  0
  1  2  1  0  0  0  0
  2  3  1  0  0  0  0
  3  4  1  0  0  0  0
  4  5  1  0  0  0  0
  5  6  1  0  0  0  0
  6  7  1  0  0  0  0
  7  8  1  0  0  0  0
  8  9  1  0  0  0  0
  9 10  1  0  0  0  0
 10 11  1  0  0  0  0
 11 12  1  0  0  0  0
 12 13  1  0  0  0  0
 13 14  1  0  0  0  0
M  END
>  <CHROM.1>
-178.32236594,-179.07751002,-76.49067829,-169.65319418,-65.44040049,179.87717571
-177.32350964,167.79533789,172.09911262,-61.97808329,-178.12024513,29.13333987
48.55637677,39.39557308,2.75186309,0.75702474,-0.81772903

>  <Name>
ligand

>  <RI>
0

>  <Rbt.Current_Directory>
/home/itssahil/PROJECTS/Mol_Feturizer/New_Systems/rnas/4P5J

>  <Rbt.Executable>
rbdock ($Id: //depot/dev/client3/rdock/2013.1/src/exe/rbdock.cxx#4 $)

>  <Rbt.Library>
libRbt.so (2013.1, Build901 2013/11/27)

>  <Rbt.Parameter_File>
/export/apps/rDock/src/rDock_2013.1_src/data/scripts/dock_solv.prm

>  <Rbt.Receptor>
prm/pocket_docking_2.prm

>  <SCORE>
1.33325

>  <SCORE.INTER>
11.1945

>  <SCORE.INTER.CONST>
1

>  <SCORE.INTER.POLAR>
0

>  <SCORE.INTER.ROT>
11

>  <SCORE.INTER.SOLV>
4.46164

>  <SCORE.INTER.VDW>
-4.95756

>  <SCORE.INTER.norm>
0.799606

>  <SCORE.INTRA>
-9.86123

>  <SCORE.INTRA.DIHEDRAL>
-16.8779

>  <SCORE.INTRA.DIHEDRAL.0>
17.5233

>  <SCORE.INTRA.POLAR>
0

>  <SCORE.INTRA.POLAR.0>
0

>  <SCORE.INTRA.REPUL>
0

>  <SCORE.INTRA.REPUL.0>
0

>  <SCORE.INTRA.SOLV>
-1.98944

>  <SCORE.INTRA.SOLV.lig_0>
-46.1043

>  <SCORE.INTRA.VDW>
-0.427565

>  <SCORE.INTRA.VDW.0>
-0.545445

>  <SCORE.INTRA.norm>
-0.704374

>  <SCORE.RESTR>
0

>  <SCORE.RESTR.CAVITY>
0

>  <SCORE.RESTR.norm>
0

>  <SCORE.SYSTEM>
0

>  <SCORE.SYSTEM.CONST>
0

>  <SCORE.SYSTEM.DIHEDRAL>
0

>  <SCORE.SYSTEM.SOLV>
0

>  <SCORE.SYSTEM.norm>
0

>  <SCORE.heavy>
14

>  <SCORE.norm>
0.0952325

>  <RMSD>
1.685

$$$$
ligand
 OpenBabel11021811513D
libRbt.so/2013.1/901 2013/11/27
 14 13  0  0  0  0  0  0  0  0999 V2000
   32.4289   43.1391   39.0225 N   0  0  0  0  0  0  0  0  0  0  0  0
   32.7458   44.4137   38.3988 C   0  0  0  0  0  0  0  0  0  0  0  0
   31.5343   45.3392   38.4383 C   0  0  0  0  0  0  0  0  0  0  0  0
   31.8538   46.6907   37.8093 C   0  0  0  0  0  0  0  0  0  0  0  0
   30.7271   47.6180   37.8530 N   0  0  0  0  0  0  0  0  0  0  0  0
   30.8147   48.9209   37.2154 C   0  0  0  0  0  0  0  0  0  0  0  0
   29.4674   49.6296   37.1301 C   0  0  0  0  0  0  0  0  0  0  0  0
   28.9343   49.9075   38.5312 C   0  0  0  0  0  0  0  0  0  0  0  0
   27.5316   50.4989   38.4421 C   0  0  0  0  0  0  0  0  0  0  0  0
   26.9843   50.8059   39.7524 N   0  0  0  0  0  0  0  0  0  0  0  0
   25.5767   51.1611   39.8750 C   0  0  0  0  0  0  0  0  0  0  0  0
   25.2482   52.0691   41.0582 C   0  0  0  0  0  0  0  0  0  0  0  0
   25.9619   53.4150   40.9205 C   0  0  0  0  0  0  0  0  0  0  0  0
   25.6656   54.2605   42.0644 N   0  0  0  0  0  0  0  0  0  0  0  0
  1  2  1  0  0  0  0
  2  3  1  0  0  0  0
  3  4  1  0  0  0  0
  4  5  1  0  0  0  0
  5  6  1  0  0  0  0
  6  7  1  0  0  0  0
  7  8  1  0  0  0  0
  8  9  1  0  0  0  0
  9 10  1  0  0  0  0
 10 11  1  0  0  0  0
 11 12  1  0  0  0  0
 12 13  1  0  0  0  0
 13 14  1  0  0  0  0
M  END
>  <CHROM.1>
179.05020018,-178.75430920,-175.56327970,168.77976864,62.96161659,-174.81871726
-178.96636548,-169.55208849,-152.21714724,62.57373274,-178.79905081,28.96247154
49.13359381,39.03626325,0.37704479,-0.84397458,2.38367227

>  <Name>
ligand

>  <RI>
0

>  <Rbt.Current_Directory>
/home/itssahil/PROJECTS/Mol_Feturizer/New_Systems/rnas/4P5J

>  <Rbt.Executable>
rbdock ($Id: //depot/dev/client3/rdock/2013.1/src/exe/rbdock.cxx#4 $)

>  <Rbt.Library>
libRbt.so (2013.1, Build901 2013/11/27)

>  <Rbt.Parameter_File>
/export/apps/rDock/src/rDock_2013.1_src/data/scripts/dock_solv.prm

>  <Rbt.Receptor>
prm/pocket_docking_2.prm

>  <SCORE>
0.576596

>  <SCORE.INTER>
10.4982

>  <SCORE.INTER.CONST>
1

>  <SCORE.INTER.POLAR>
0

>  <SCORE.INTER.ROT>
11

>  <SCORE.INTER.SOLV>
4.36164

>  <SCORE.INTER.VDW>
-5.38843

>  <SCORE.INTER.norm>
0.74987

>  <SCORE.INTRA>
-9.92159

>  <SCORE.INTRA.DIHEDRAL>
-16.5997

>  <SCORE.INTRA.DIHEDRAL.0>
17.5233

>  <SCORE.INTRA.POLAR>
0

>  <SCORE.INTRA.POLAR.0>
0

>  <SCORE.INTRA.REPUL>
0

>  <SCORE.INTRA.REPUL.0>
0

>  <SCORE.INTRA.SOLV>
-1.95068

>  <SCORE.INTRA.SOLV.lig_0>
-46.1043

>  <SCORE.INTRA.VDW>
-0.646413

>  <SCORE.INTRA.VDW.0>
-0.545445

>  <SCORE.INTRA.norm>
-0.708685

>  <SCORE.RESTR>
0

>  <SCORE.RESTR.CAVITY>
0

>  <SCORE.RESTR.norm>
0

>  <SCORE.SYSTEM>
0

>  <SCORE.SYSTEM.CONST>
0

>  <SCORE.SYSTEM.DIHEDRAL>
0

>  <SCORE.SYSTEM.SOLV>
0

>  <SCORE.SYSTEM.norm>
0

>  <SCORE.heavy>
14

>  <SCORE.norm>
0.0411854

>  <RMSD>
1.708

$$$$
ligand
 OpenBabel11021811513D
libRbt.so/2013.1/901 2013/11/27
 14 13  0  0  0  0  0  0  0  0999 V2000
   33.0444   42.9739   40.0488 N   0  0  0  0  0  0  0  0  0  0  0  0
   32.4075   43.3489   38.7967 C   0  0  0  0  0  0  0  0  0  0  0  0
   32.3566   44.8671   38.6614 C   0  0  0  0  0  0  0  0  0  0  0  0
   31.4568   45.4844   39.7261 C   0  0  0  0  0  0  0  0  0  0  0  0
   31.3726   46.9383   39.6251 N   0  0  0  0  0  0  0  0  0  0  0  0
   30.7153   47.5652   38.4907 C   0  0  0  0  0  0  0  0  0  0  0  0
   30.3571   49.0250   38.7472 C   0  0  0  0  0  0  0  0  0  0  0  0
   29.6991   49.6260   37.5102 C   0  0  0  0  0  0  0  0  0  0  0  0
   29.3592   51.0903   37.7659 C   0  0  0  0  0  0  0  0  0  0  0  0
   28.3769   51.2459   38.8248 N   0  0  0  0  0  0  0  0  0  0  0  0
   26.9859   50.8973   38.5680 C   0  0  0  0  0  0  0  0  0  0  0  0
   25.9892   51.4623   39.5778 C   0  0  0  0  0  0  0  0  0  0  0  0
   26.2904   50.9405   40.9838 C   0  0  0  0  0  0  0  0  0  0  0  0
   25.3690   51.5233   41.9443 N   0  0  0  0  0  0  0  0  0  0  0  0
  1  2  1  0  0  0  0
  2  3  1  0  0  0  0
  3  4  1  0  0  0  0
  4  5  1  0  0  0  0
  5  6  1  0  0  0  0
  6  7  1  0  0  0  0
  7  8  1  0  0  0  0
  8  9  1  0  0  0  0
  9 10  1  0  0  0  0
 10 11  1  0  0  0  0
 11 12  1  0  0  0  0
 12 13  1  0  0  0  0
 13 14  1  0  0  0  0
M  END
>  <CHROM.1>
-65.40665230,-179.56280540,67.62272168,162.83136125,178.83482841,-179.28444666
-63.82054386,-73.34957039,-163.21559075,-60.69784039,177.83460616,29.55572361
48.35639252,39.23325963,0.57976428,-0.72294881,2.43622965

>  <Name>
ligand

>  <RI>
0

>  <Rbt.Current_Directory>
/home/itssahil/PROJECTS/Mol_Feturizer/New_Systems/rnas/4P5J

>  <Rbt.Executable>
rbdock ($Id: //depot/dev/client3/rdock/2013.1/src/exe/rbdock.cxx#4 $)

>  <Rbt.Library>
libRbt.so (2013.1, Build901 2013/11/27)

>  <Rbt.Parameter_File>
/export/apps/rDock/src/rDock_2013.1_src/data/scripts/dock_solv.prm

>  <Rbt.Receptor>
prm/pocket_docking_2.prm

>  <SCORE>
1.96522

>  <SCORE.INTER>
10.7191

>  <SCORE.INTER.CONST>
1

>  <SCORE.INTER.POLAR>
0

>  <SCORE.INTER.ROT>
11

>  <SCORE.INTER.SOLV>
3.25051

>  <SCORE.INTER.VDW>
-4.87078

>  <SCORE.INTER.norm>
0.765649

>  <SCORE.INTRA>
-8.75386

>  <SCORE.INTRA.DIHEDRAL>
-16.6992

>  <SCORE.INTRA.DIHEDRAL.0>
17.5233

>  <SCORE.INTRA.POLAR>
0

>  <SCORE.INTRA.POLAR.0>
0

>  <SCORE.INTRA.REPUL>
0

>  <SCORE.INTRA.REPUL.0>
0

>  <SCORE.INTRA.SOLV>
-1.17836

>  <SCORE.INTRA.SOLV.lig_0>
-46.1043

>  <SCORE.INTRA.VDW>
0.184949

>  <SCORE.INTRA.VDW.0>
-0.545445

>  <SCORE.INTRA.norm>
-0.625275

>  <SCORE.RESTR>
0

>  <SCORE.RESTR.CAVITY>
0

>  <SCORE.RESTR.norm>
0

>  <SCORE.SYSTEM>
0

>  <SCORE.SYSTEM.CONST>
0

>  <SCORE.SYSTEM.DIHEDRAL>
0

>  <SCORE.SYSTEM.SOLV>
0

>  <SCORE.SYSTEM.norm>
0

>  <SCORE.heavy>
14

>  <SCORE.norm>
0.140373

>  <RMSD>
1.723

$$$$
ligand
 OpenBabel11021811513D
libRbt.so/2013.1/901 2013/11/27
 14 13  0  0  0  0  0  0  0  0999 V2000
   32.4910   42.9117   39.8986 N   0  0  0  0  0  0  0  0  0  0  0  0
   32.8328   43.8588   38.8498 C   0  0  0  0  0  0  0  0  0  0  0  0
   31.7833   44.9623   38.7692 C   0  0  0  0  0  0  0  0  0  0  0  0
   32.1567   46.0009   37.7174 C   0  0  0  0  0  0  0  0  0  0  0  0
   31.2002   47.1011   37.6412 N   0  0  0  0  0  0  0  0  0  0  0  0
   31.5414   48.3329   36.9496 C   0  0  0  0  0  0  0  0  0  0  0  0
   30.3172   49.1656   36.5855 C   0  0  0  0  0  0  0  0  0  0  0  0
   29.6018   49.6232   37.8517 C   0  0  0  0  0  0  0  0  0  0  0  0
   28.4095   50.4994   37.4833 C   0  0  0  0  0  0  0  0  0  0  0  0
   27.7383   51.0299   38.6574 N   0  0  0  0  0  0  0  0  0  0  0  0
   26.6208   51.9494   38.4890 C   0  0  0  0  0  0  0  0  0  0  0  0
   26.0199   52.4694   39.7932 C   0  0  0  0  0  0  0  0  0  0  0  0
   25.4385   51.3187   40.6164 C   0  0  0  0  0  0  0  0  0  0  0  0
   24.8364   51.8278   41.8368 N   0  0  0  0  0  0  0  0  0  0  0  0
  1  2  1  0  0  0  0
  2  3  1  0  0  0  0
  3  4  1  0  0  0  0
  4  5  1  0  0  0  0
  5  6  1  0  0  0  0
  6  7  1  0  0  0  0
  7  8  1  0  0  0  0
  8  9  1  0  0  0  0
  9 10  1  0  0  0  0
 10 11  1  0  0  0  0
 11 12  1  0  0  0  0
 12 13  1  0  0  0  0
 13 14  1  0  0  0  0
M  END
>  <CHROM.1>
177.41109962,-177.97717083,164.82719541,161.59640270,63.69099586,177.84942962
-176.53247840,176.60439180,-178.42548238,-62.45012674,-178.40998457,29.35637895
48.64668056,38.65244123,0.46048463,-0.74616075,2.38823773

>  <Name>
ligand

>  <RI>
0

>  <Rbt.Current_Directory>
/home/itssahil/PROJECTS/Mol_Feturizer/New_Systems/rnas/4P5J

>  <Rbt.Executable>
rbdock ($Id: //depot/dev/client3/rdock/2013.1/src/exe/rbdock.cxx#4 $)

>  <Rbt.Library>
libRbt.so (2013.1, Build901 2013/11/27)

>  <Rbt.Parameter_File>
/export/apps/rDock/src/rDock_2013.1_src/data/scripts/dock_solv.prm

>  <Rbt.Receptor>
prm/pocket_docking_2.prm

>  <SCORE>
0.928984

>  <SCORE.INTER>
10.9893

>  <SCORE.INTER.CONST>
1

>  <SCORE.INTER.POLAR>
0

>  <SCORE.INTER.ROT>
11

>  <SCORE.INTER.SOLV>
4.35506

>  <SCORE.INTER.VDW>
-5.05885

>  <SCORE.INTER.norm>
0.784947

>  <SCORE.INTRA>
-10.0663

>  <SCORE.INTRA.DIHEDRAL>
-16.8854

>  <SCORE.INTRA.DIHEDRAL.0>
17.5233

>  <SCORE.INTRA.POLAR>
0

>  <SCORE.INTRA.POLAR.0>
0

>  <SCORE.INTRA.REPUL>
0

>  <SCORE.INTRA.REPUL.0>
0

>  <SCORE.INTRA.SOLV>
-1.99323

>  <SCORE.INTRA.SOLV.lig_0>
-46.1043

>  <SCORE.INTRA.VDW>
-0.626951

>  <SCORE.INTRA.VDW.0>
-0.545445

>  <SCORE.INTRA.norm>
-0.719018

>  <SCORE.RESTR>
0.00598389

>  <SCORE.RESTR.CAVITY>
0.00598389

>  <SCORE.RESTR.norm>
0.000427421

>  <SCORE.SYSTEM>
0

>  <SCORE.SYSTEM.CONST>
0

>  <SCORE.SYSTEM.DIHEDRAL>
0

>  <SCORE.SYSTEM.SOLV>
0

>  <SCORE.SYSTEM.norm>
0

>  <SCORE.heavy>
14

>  <SCORE.norm>
0.066356

>  <RMSD>
1.733

$$$$
ligand
 OpenBabel11021811513D
libRbt.so/2013.1/901 2013/11/27
 14 13  0  0  0  0  0  0  0  0999 V2000
   34.9057   44.1692   39.6766 N   0  0  0  0  0  0  0  0  0  0  0  0
   33.5888   43.5535   39.6553 C   0  0  0  0  0  0  0  0  0  0  0  0
   32.6455   44.2860   40.6037 C   0  0  0  0  0  0  0  0  0  0  0  0
   32.3755   45.7071   40.1223 C   0  0  0  0  0  0  0  0  0  0  0  0
   31.6390   45.7496   38.8625 N   0  0  0  0  0  0  0  0  0  0  0  0
   31.3476   47.0187   38.2173 C   0  0  0  0  0  0  0  0  0  0  0  0
   30.3264   47.8516   38.9843 C   0  0  0  0  0  0  0  0  0  0  0  0
   29.9449   49.0854   38.1741 C   0  0  0  0  0  0  0  0  0  0  0  0
   28.9112   49.9057   38.9381 C   0  0  0  0  0  0  0  0  0  0  0  0
   28.4384   51.0428   38.1674 N   0  0  0  0  0  0  0  0  0  0  0  0
   27.2730   51.7855   38.6285 C   0  0  0  0  0  0  0  0  0  0  0  0
   27.5481   52.7597   39.7720 C   0  0  0  0  0  0  0  0  0  0  0  0
   26.2560   53.4441   40.2211 C   0  0  0  0  0  0  0  0  0  0  0  0
   26.5371   54.4107   41.2689 N   0  0  0  0  0  0  0  0  0  0  0  0
  1  2  1  0  0  0  0
  2  3  1  0  0  0  0
  3  4  1  0  0  0  0
  4  5  1  0  0  0  0
  5  6  1  0  0  0  0
  6  7  1  0  0  0  0
  7  8  1  0  0  0  0
  8  9  1  0  0  0  0
  9 10  1  0  0  0  0
 10 11  1  0  0  0  0
 11 12  1  0  0  0  0
 12 13  1  0  0  0  0
 13 14  1  0  0  0  0
M  END
>  <CHROM.1>
66.03191218,65.88866974,-177.00703979,-69.47101481,-173.30802256,179.31644221
-175.75878205,168.34712973,78.18303315,-177.62477719,-177.52469200,30.12397924
48.62630393,39.37794735,-0.17826297,-0.92328353,1.36629067

>  <Name>
ligand

>  <RI>
0

>  <Rbt.Current_Directory>
/home/itssahil/PROJECTS/Mol_Feturizer/New_Systems/rnas/4P5J

>  <Rbt.Executable>
rbdock ($Id: //depot/dev/client3/rdock/2013.1/src/exe/rbdock.cxx#4 $)

>  <Rbt.Library>
libRbt.so (2013.1, Build901 2013/11/27)

>  <Rbt.Parameter_File>
/export/apps/rDock/src/rDock_2013.1_src/data/scripts/dock_solv.prm

>  <Rbt.Receptor>
prm/pocket_docking_2.prm

>  <SCORE>
2.4522

>  <SCORE.INTER>
11.3439

>  <SCORE.INTER.CONST>
1

>  <SCORE.INTER.POLAR>
0

>  <SCORE.INTER.ROT>
11

>  <SCORE.INTER.SOLV>
2.08793

>  <SCORE.INTER.VDW>
-4.06672

>  <SCORE.INTER.norm>
0.810278

>  <SCORE.INTRA>
-8.8917

>  <SCORE.INTRA.DIHEDRAL>
-16.5348

>  <SCORE.INTRA.DIHEDRAL.0>
17.5233

>  <SCORE.INTRA.POLAR>
0

>  <SCORE.INTRA.POLAR.0>
0

>  <SCORE.INTRA.REPUL>
0

>  <SCORE.INTRA.REPUL.0>
0

>  <SCORE.INTRA.SOLV>
-1.05099

>  <SCORE.INTRA.SOLV.lig_0>
-46.1043

>  <SCORE.INTRA.VDW>
-0.0987857

>  <SCORE.INTRA.VDW.0>
-0.545445

>  <SCORE.INTRA.norm>
-0.635121

>  <SCORE.RESTR>
0

>  <SCORE.RESTR.CAVITY>
0

>  <SCORE.RESTR.norm>
0

>  <SCORE.SYSTEM>
0

>  <SCORE.SYSTEM.CONST>
0

>  <SCORE.SYSTEM.DIHEDRAL>
0

>  <SCORE.SYSTEM.SOLV>
0

>  <SCORE.SYSTEM.norm>
0

>  <SCORE.heavy>
14

>  <SCORE.norm>
0.175157

>  <RMSD>
1.771

$$$$
ligand
 OpenBabel11021811513D
libRbt.so/2013.1/901 2013/11/27
 14 13  0  0  0  0  0  0  0  0999 V2000
   35.3005   43.9351   39.4604 N   0  0  0  0  0  0  0  0  0  0  0  0
   34.3999   44.8774   38.8162 C   0  0  0  0  0  0  0  0  0  0  0  0
   33.0467   44.2242   38.5558 C   0  0  0  0  0  0  0  0  0  0  0  0
   32.1101   45.1742   37.8179 C   0  0  0  0  0  0  0  0  0  0  0  0
   31.7881   46.3693   38.5920 N   0  0  0  0  0  0  0  0  0  0  0  0
   31.1307   47.5034   37.9648 C   0  0  0  0  0  0  0  0  0  0  0  0
   30.2411   48.2795   38.9298 C   0  0  0  0  0  0  0  0  0  0  0  0
   29.4689   49.3566   38.1762 C   0  0  0  0  0  0  0  0  0  0  0  0
   28.5613   50.1120   39.1411 C   0  0  0  0  0  0  0  0  0  0  0  0
   27.7189   51.0771   38.4560 N   0  0  0  0  0  0  0  0  0  0  0  0
   26.7355   51.8365   39.2168 C   0  0  0  0  0  0  0  0  0  0  0  0
   25.5498   51.0182   39.7236 C   0  0  0  0  0  0  0  0  0  0  0  0
   24.5598   51.9100   40.4748 C   0  0  0  0  0  0  0  0  0  0  0  0
   25.1623   52.4098   41.6990 N   0  0  0  0  0  0  0  0  0  0  0  0
  1  2  1  0  0  0  0
  2  3  1  0  0  0  0
  3  4  1  0  0  0  0
  4  5  1  0  0  0  0
  5  6  1  0  0  0  0
  6  7  1  0  0  0  0
  7  8  1  0  0  0  0
  8  9  1  0  0  0  0
  9 10  1  0  0  0  0
 10 11  1  0  0  0  0
 11 12  1  0  0  0  0
 12 13  1  0  0  0  0
 13 14  1  0  0  0  0
M  END
>  <CHROM.1>
-177.17732857,-63.31507852,167.86804220,149.49688811,-173.86991674,178.92883990
-175.20651870,176.63380736,-70.22597847,-178.48574090,-66.58622743,29.69798978
48.43451048,39.07297991,0.08427045,-0.73073558,1.89621619

>  <Name>
ligand

>  <RI>
0

>  <Rbt.Current_Directory>
/home/itssahil/PROJECTS/Mol_Feturizer/New_Systems/rnas/4P5J

>  <Rbt.Executable>
rbdock ($Id: //depot/dev/client3/rdock/2013.1/src/exe/rbdock.cxx#4 $)

>  <Rbt.Library>
libRbt.so (2013.1, Build901 2013/11/27)

>  <Rbt.Parameter_File>
/export/apps/rDock/src/rDock_2013.1_src/data/scripts/dock_solv.prm

>  <Rbt.Receptor>
prm/pocket_docking_2.prm

>  <SCORE>
1.77848

>  <SCORE.INTER>
11.0001

>  <SCORE.INTER.CONST>
1

>  <SCORE.INTER.POLAR>
0

>  <SCORE.INTER.ROT>
11

>  <SCORE.INTER.SOLV>
1.33632

>  <SCORE.INTER.VDW>
-4.04535

>  <SCORE.INTER.norm>
0.785724

>  <SCORE.INTRA>
-9.22165

>  <SCORE.INTRA.DIHEDRAL>
-16.2222

>  <SCORE.INTRA.DIHEDRAL.0>
17.5233

>  <SCORE.INTRA.POLAR>
0

>  <SCORE.INTRA.POLAR.0>
0

>  <SCORE.INTRA.REPUL>
0

>  <SCORE.INTRA.REPUL.0>
0

>  <SCORE.INTRA.SOLV>
-1.62016

>  <SCORE.INTRA.SOLV.lig_0>
-46.1043

>  <SCORE.INTRA.VDW>
-0.300468

>  <SCORE.INTRA.VDW.0>
-0.545445

>  <SCORE.INTRA.norm>
-0.658689

>  <SCORE.RESTR>
0

>  <SCORE.RESTR.CAVITY>
0

>  <SCORE.RESTR.norm>
0

>  <SCORE.SYSTEM>
0

>  <SCORE.SYSTEM.CONST>
0

>  <SCORE.SYSTEM.DIHEDRAL>
0

>  <SCORE.SYSTEM.SOLV>
0

>  <SCORE.SYSTEM.norm>
0

>  <SCORE.heavy>
14

>  <SCORE.norm>
0.127034

>  <RMSD>
1.799

$$$$
ligand
 OpenBabel11021811513D
libRbt.so/2013.1/901 2013/11/27
 14 13  0  0  0  0  0  0  0  0999 V2000
   24.5435   53.1649   42.3325 N   0  0  0  0  0  0  0  0  0  0  0  0
   25.2322   52.5152   41.2291 C   0  0  0  0  0  0  0  0  0  0  0  0
   25.7895   53.5571   40.2648 C   0  0  0  0  0  0  0  0  0  0  0  0
   26.5068   52.8949   39.0938 C   0  0  0  0  0  0  0  0  0  0  0  0
   27.6715   52.1180   39.5073 N   0  0  0  0  0  0  0  0  0  0  0  0
   28.1917   51.0562   38.6624 C   0  0  0  0  0  0  0  0  0  0  0  0
   29.0596   50.0630   39.4274 C   0  0  0  0  0  0  0  0  0  0  0  0
   29.5460   48.9641   38.4892 C   0  0  0  0  0  0  0  0  0  0  0  0
   30.3385   47.9262   39.2765 C   0  0  0  0  0  0  0  0  0  0  0  0
   30.8265   46.8529   38.4277 N   0  0  0  0  0  0  0  0  0  0  0  0
   31.6547   45.8030   39.0060 C   0  0  0  0  0  0  0  0  0  0  0  0
   32.4375   44.9747   37.9894 C   0  0  0  0  0  0  0  0  0  0  0  0
   33.3485   43.9706   38.6977 C   0  0  0  0  0  0  0  0  0  0  0  0
   32.5527   42.9835   39.4074 N   0  0  0  0  0  0  0  0  0  0  0  0
  1  2  1  0  0  0  0
  2  3  1  0  0  0  0
  3  4  1  0  0  0  0
  4  5  1  0  0  0  0
  5  6  1  0  0  0  0
  6  7  1  0  0  0  0
  7  8  1  0  0  0  0
  8  9  1  0  0  0  0
  9 10  1  0  0  0  0
 10 11  1  0  0  0  0
 11 12  1  0  0  0  0
 12 13  1  0  0  0  0
 13 14  1  0  0  0  0
M  END
>  <CHROM.1>
-179.55626073,-62.89114609,157.84561548,-160.00310652,178.82326241,-176.39626690
179.97904816,177.34192733,-162.93356094,175.94042516,65.81840631,29.12146194
49.06041710,39.41489070,2.64484431,0.80366186,-0.70972161

>  <Name>
ligand

>  <RI>
0

>  <Rbt.Current_Directory>
/home/itssahil/PROJECTS/Mol_Feturizer/New_Systems/rnas/4P5J

>  <Rbt.Executable>
rbdock ($Id: //depot/dev/client3/rdock/2013.1/src/exe/rbdock.cxx#4 $)

>  <Rbt.Library>
libRbt.so (2013.1, Build901 2013/11/27)

>  <Rbt.Parameter_File>
/export/apps/rDock/src/rDock_2013.1_src/data/scripts/dock_solv.prm

>  <Rbt.Receptor>
prm/pocket_docking_2.prm

>  <SCORE>
2.54127

>  <SCORE.INTER>
12.0939

>  <SCORE.INTER.CONST>
1

>  <SCORE.INTER.POLAR>
0

>  <SCORE.INTER.ROT>
11

>  <SCORE.INTER.SOLV>
4.19054

>  <SCORE.INTER.VDW>
-4.26757

>  <SCORE.INTER.norm>
0.863852

>  <SCORE.INTRA>
-9.55276

>  <SCORE.INTRA.DIHEDRAL>
-16.3521

>  <SCORE.INTRA.DIHEDRAL.0>
17.5233

>  <SCORE.INTRA.POLAR>
0

>  <SCORE.INTRA.POLAR.0>
0

>  <SCORE.INTRA.REPUL>
0

>  <SCORE.INTRA.REPUL.0>
0

>  <SCORE.INTRA.SOLV>
-1.60905

>  <SCORE.INTRA.SOLV.lig_0>
-46.1043

>  <SCORE.INTRA.VDW>
-0.572199

>  <SCORE.INTRA.VDW.0>
-0.545445

>  <SCORE.INTRA.norm>
-0.68234

>  <SCORE.RESTR>
0.00010423

>  <SCORE.RESTR.CAVITY>
0.00010423

>  <SCORE.RESTR.norm>
7.44501e-06

>  <SCORE.SYSTEM>
0

>  <SCORE.SYSTEM.CONST>
0

>  <SCORE.SYSTEM.DIHEDRAL>
0

>  <SCORE.SYSTEM.SOLV>
0

>  <SCORE.SYSTEM.norm>
0

>  <SCORE.heavy>
14

>  <SCORE.norm>
0.181519

>  <RMSD>
1.811

$$$$
ligand
 OpenBabel11021811513D
libRbt.so/2013.1/901 2013/11/27
 14 13  0  0  0  0  0  0  0  0999 V2000
   25.5218   50.9326   39.6697 N   0  0  0  0  0  0  0  0  0  0  0  0
   25.6547   52.3409   40.0060 C   0  0  0  0  0  0  0  0  0  0  0  0
   27.1197   52.6944   40.2395 C   0  0  0  0  0  0  0  0  0  0  0  0
   27.9236   52.5890   38.9483 C   0  0  0  0  0  0  0  0  0  0  0  0
   28.0883   51.2118   38.4928 N   0  0  0  0  0  0  0  0  0  0  0  0
   29.0390   50.8876   37.4427 C   0  0  0  0  0  0  0  0  0  0  0  0
   29.4587   49.4218   37.4565 C   0  0  0  0  0  0  0  0  0  0  0  0
   30.1336   49.0846   38.7813 C   0  0  0  0  0  0  0  0  0  0  0  0
   30.5666   47.6226   38.7829 C   0  0  0  0  0  0  0  0  0  0  0  0
   31.0704   47.2038   40.0795 N   0  0  0  0  0  0  0  0  0  0  0  0
   30.9314   45.8117   40.4861 C   0  0  0  0  0  0  0  0  0  0  0  0
   32.1417   44.9327   40.1780 C   0  0  0  0  0  0  0  0  0  0  0  0
   32.3330   44.7874   38.6674 C   0  0  0  0  0  0  0  0  0  0  0  0
   33.4729   43.9316   38.3851 N   0  0  0  0  0  0  0  0  0  0  0  0
  1  2  1  0  0  0  0
  2  3  1  0  0  0  0
  3  4  1  0  0  0  0
  4  5  1  0  0  0  0
  5  6  1  0  0  0  0
  6  7  1  0  0  0  0
  7  8  1  0  0  0  0
  8  9  1  0  0  0  0
  9 10  1  0  0  0  0
 10 11  1  0  0  0  0
 11 12  1  0  0  0  0
 12 13  1  0  0  0  0
 13 14  1  0  0  0  0
M  END
>  <CHROM.1>
67.11057729,-69.67580685,-167.60090678,158.41501912,-60.85504815,-179.29991442
-173.08824774,150.82695405,94.00479938,-66.10073803,-179.04574080,29.53252104
48.81823370,39.11540001,2.56070448,0.74977089,-0.79502095

>  <Name>
ligand

>  <RI>
0

>  <Rbt.Current_Directory>
/home/itssahil/PROJECTS/Mol_Feturizer/New_Systems/rnas/4P5J

>  <Rbt.Executable>
rbdock ($Id: //depot/dev/client3/rdock/2013.1/src/exe/rbdock.cxx#4 $)

>  <Rbt.Library>
libRbt.so (2013.1, Build901 2013/11/27)

>  <Rbt.Parameter_File>
/export/apps/rDock/src/rDock_2013.1_src/data/scripts/dock_solv.prm

>  <Rbt.Receptor>
prm/pocket_docking_2.prm

>  <SCORE>
2.89923

>  <SCORE.INTER>
10.4541

>  <SCORE.INTER.CONST>
1

>  <SCORE.INTER.POLAR>
0

>  <SCORE.INTER.ROT>
11

>  <SCORE.INTER.SOLV>
2.49327

>  <SCORE.INTER.VDW>
-4.795

>  <SCORE.INTER.norm>
0.746724

>  <SCORE.INTRA>
-7.56443

>  <SCORE.INTRA.DIHEDRAL>
-14.8958

>  <SCORE.INTRA.DIHEDRAL.0>
17.5233

>  <SCORE.INTRA.POLAR>
0

>  <SCORE.INTRA.POLAR.0>
0

>  <SCORE.INTRA.REPUL>
0

>  <SCORE.INTRA.REPUL.0>
0

>  <SCORE.INTRA.SOLV>
0.878472

>  <SCORE.INTRA.SOLV.lig_0>
-46.1043

>  <SCORE.INTRA.VDW>
-0.555792

>  <SCORE.INTRA.VDW.0>
-0.545445

>  <SCORE.INTRA.norm>
-0.540317

>  <SCORE.RESTR>
0.00952651

>  <SCORE.RESTR.CAVITY>
0.00952651

>  <SCORE.RESTR.norm>
0.000680465

>  <SCORE.SYSTEM>
0

>  <SCORE.SYSTEM.CONST>
0

>  <SCORE.SYSTEM.DIHEDRAL>
0

>  <SCORE.SYSTEM.SOLV>
0

>  <SCORE.SYSTEM.norm>
0

>  <SCORE.heavy>
14

>  <SCORE.norm>
0.207088

>  <RMSD>
1.818

$$$$
ligand
 OpenBabel11021811513D
libRbt.so/2013.1/901 2013/11/27
 14 13  0  0  0  0  0  0  0  0999 V2000
   25.2479   52.1134   41.6394 N   0  0  0  0  0  0  0  0  0  0  0  0
   26.1896   52.1925   40.5345 C   0  0  0  0  0  0  0  0  0  0  0  0
   26.1926   50.8872   39.7458 C   0  0  0  0  0  0  0  0  0  0  0  0
   27.1635   50.9556   38.5724 C   0  0  0  0  0  0  0  0  0  0  0  0
   28.5526   51.1123   38.9932 N   0  0  0  0  0  0  0  0  0  0  0  0
   29.3039   49.9787   39.5055 C   0  0  0  0  0  0  0  0  0  0  0  0
   29.9324   49.1374   38.4000 C   0  0  0  0  0  0  0  0  0  0  0  0
   30.7310   47.9896   39.0077 C   0  0  0  0  0  0  0  0  0  0  0  0
   31.4140   47.1930   37.9014 C   0  0  0  0  0  0  0  0  0  0  0  0
   32.2196   46.1054   38.4293 N   0  0  0  0  0  0  0  0  0  0  0  0
   31.5716   44.8635   38.8299 C   0  0  0  0  0  0  0  0  0  0  0  0
   32.3043   43.5940   38.4010 C   0  0  0  0  0  0  0  0  0  0  0  0
   33.6968   43.5351   39.0313 C   0  0  0  0  0  0  0  0  0  0  0  0
   33.5904   43.3684   40.4708 N   0  0  0  0  0  0  0  0  0  0  0  0
  1  2  1  0  0  0  0
  2  3  1  0  0  0  0
  3  4  1  0  0  0  0
  4  5  1  0  0  0  0
  5  6  1  0  0  0  0
  6  7  1  0  0  0  0
  7  8  1  0  0  0  0
  8  9  1  0  0  0  0
  9 10  1  0  0  0  0
 10 11  1  0  0  0  0
 11 12  1  0  0  0  0
 12 13  1  0  0  0  0
 13 14  1  0  0  0  0
M  END
>  <CHROM.1>
179.37759315,63.78792484,77.22093852,84.66400319,178.60893430,-177.19462295
178.46866726,80.14935328,137.24109247,61.44099993,67.20619450,29.86500524
48.07323701,39.24704650,2.68762348,0.77053639,-0.81741129

>  <Name>
ligand

>  <RI>
0

>  <Rbt.Current_Directory>
/home/itssahil/PROJECTS/Mol_Feturizer/New_Systems/rnas/4P5J

>  <Rbt.Executable>
rbdock ($Id: //depot/dev/client3/rdock/2013.1/src/exe/rbdock.cxx#4 $)

>  <Rbt.Library>
libRbt.so (2013.1, Build901 2013/11/27)

>  <Rbt.Parameter_File>
/export/apps/rDock/src/rDock_2013.1_src/data/scripts/dock_solv.prm

>  <Rbt.Receptor>
prm/pocket_docking_2.prm

>  <SCORE>
2.44913

>  <SCORE.INTER>
10.4342

>  <SCORE.INTER.CONST>
1

>  <SCORE.INTER.POLAR>
0

>  <SCORE.INTER.ROT>
11

>  <SCORE.INTER.SOLV>
2.26549

>  <SCORE.INTER.VDW>
-4.73239

>  <SCORE.INTER.norm>
0.745298

>  <SCORE.INTRA>
-7.98503

>  <SCORE.INTRA.DIHEDRAL>
-15.2785

>  <SCORE.INTRA.DIHEDRAL.0>
17.5233

>  <SCORE.INTRA.POLAR>
0

>  <SCORE.INTRA.POLAR.0>
0

>  <SCORE.INTRA.REPUL>
0

>  <SCORE.INTRA.REPUL.0>
0

>  <SCORE.INTRA.SOLV>
-0.638867

>  <SCORE.INTRA.SOLV.lig_0>
-46.1043

>  <SCORE.INTRA.VDW>
-0.0263711

>  <SCORE.INTRA.VDW.0>
-0.545445

>  <SCORE.INTRA.norm>
-0.57036

>  <SCORE.RESTR>
0

>  <SCORE.RESTR.CAVITY>
0

>  <SCORE.RESTR.norm>
0

>  <SCORE.SYSTEM>
0

>  <SCORE.SYSTEM.CONST>
0

>  <SCORE.SYSTEM.DIHEDRAL>
0

>  <SCORE.SYSTEM.SOLV>
0

>  <SCORE.SYSTEM.norm>
0

>  <SCORE.heavy>
14

>  <SCORE.norm>
0.174938

>  <RMSD>
1.831

$$$$
ligand
 OpenBabel11021811513D
libRbt.so/2013.1/901 2013/11/27
 14 13  0  0  0  0  0  0  0  0999 V2000
   32.4973   45.7742   40.1396 N   0  0  0  0  0  0  0  0  0  0  0  0
   31.3088   45.4345   39.3741 C   0  0  0  0  0  0  0  0  0  0  0  0
   31.5646   45.6290   37.8833 C   0  0  0  0  0  0  0  0  0  0  0  0
   31.7822   47.1006   37.5498 C   0  0  0  0  0  0  0  0  0  0  0  0
   30.6144   47.9273   37.8399 N   0  0  0  0  0  0  0  0  0  0  0  0
   30.5041   49.2704   37.2960 C   0  0  0  0  0  0  0  0  0  0  0  0
   29.1445   49.9068   37.5629 C   0  0  0  0  0  0  0  0  0  0  0  0
   28.8785   49.9598   39.0632 C   0  0  0  0  0  0  0  0  0  0  0  0
   27.4645   50.4699   39.3193 C   0  0  0  0  0  0  0  0  0  0  0  0
   27.3004   51.8536   38.9084 N   0  0  0  0  0  0  0  0  0  0  0  0
   25.9679   52.4424   38.8917 C   0  0  0  0  0  0  0  0  0  0  0  0
   25.6248   53.2803   40.1216 C   0  0  0  0  0  0  0  0  0  0  0  0
   25.6227   52.4137   41.3820 C   0  0  0  0  0  0  0  0  0  0  0  0
   25.1856   53.1935   42.5275 N   0  0  0  0  0  0  0  0  0  0  0  0
  1  2  1  0  0  0  0
  2  3  1  0  0  0  0
  3  4  1  0  0  0  0
  4  5  1  0  0  0  0
  5  6  1  0  0  0  0
  6  7  1  0  0  0  0
  7  8  1  0  0  0  0
  8  9  1  0  0  0  0
  9 10  1  0  0  0  0
 10 11  1  0  0  0  0
 11 12  1  0  0  0  0
 12 13  1  0  0  0  0
 13 14  1  0  0  0  0
M  END
>  <CHROM.1>
-66.22332704,-62.51449373,-164.80944405,172.78620250,58.25050308,-174.49018738
-66.12930039,170.81152706,98.33762283,-63.08739973,-175.19516562,28.81855133
49.61825388,39.13251520,0.05392548,-0.85079811,1.96464222

>  <Name>
ligand

>  <RI>
0

>  <Rbt.Current_Directory>
/home/itssahil/PROJECTS/Mol_Feturizer/New_Systems/rnas/4P5J

>  <Rbt.Executable>
rbdock ($Id: //depot/dev/client3/rdock/2013.1/src/exe/rbdock.cxx#4 $)

>  <Rbt.Library>
libRbt.so (2013.1, Build901 2013/11/27)

>  <Rbt.Parameter_File>
/export/apps/rDock/src/rDock_2013.1_src/data/scripts/dock_solv.prm

>  <Rbt.Receptor>
prm/pocket_docking_2.prm

>  <SCORE>
2.24992

>  <SCORE.INTER>
10.3633

>  <SCORE.INTER.CONST>
1

>  <SCORE.INTER.POLAR>
0

>  <SCORE.INTER.ROT>
11

>  <SCORE.INTER.SOLV>
3.05429

>  <SCORE.INTER.VDW>
-5.04254

>  <SCORE.INTER.norm>
0.740238

>  <SCORE.INTRA>
-8.12168

>  <SCORE.INTRA.DIHEDRAL>
-15.8083

>  <SCORE.INTRA.DIHEDRAL.0>
17.5233

>  <SCORE.INTRA.POLAR>
0

>  <SCORE.INTRA.POLAR.0>
0

>  <SCORE.INTRA.REPUL>
0

>  <SCORE.INTRA.REPUL.0>
0

>  <SCORE.INTRA.SOLV>
0.131291

>  <SCORE.INTRA.SOLV.lig_0>
-46.1043

>  <SCORE.INTRA.VDW>
-0.283202

>  <SCORE.INTRA.VDW.0>
-0.545445

>  <SCORE.INTRA.norm>
-0.58012

>  <SCORE.RESTR>
0.0082666

>  <SCORE.RESTR.CAVITY>
0.0082666

>  <SCORE.RESTR.norm>
0.000590471

>  <SCORE.SYSTEM>
0

>  <SCORE.SYSTEM.CONST>
0

>  <SCORE.SYSTEM.DIHEDRAL>
0

>  <SCORE.SYSTEM.SOLV>
0

>  <SCORE.SYSTEM.norm>
0

>  <SCORE.heavy>
14

>  <SCORE.norm>
0.160709

>  <RMSD>
1.842

$$$$
ligand
 OpenBabel11021811513D
libRbt.so/2013.1/901 2013/11/27
 14 13  0  0  0  0  0  0  0  0999 V2000
   25.4748   53.4739   41.0232 N   0  0  0  0  0  0  0  0  0  0  0  0
   26.7494   52.9715   40.5365 C   0  0  0  0  0  0  0  0  0  0  0  0
   26.8180   53.0828   39.0170 C   0  0  0  0  0  0  0  0  0  0  0  0
   28.1176   52.4937   38.4803 C   0  0  0  0  0  0  0  0  0  0  0  0
   28.2150   51.0517   38.6858 N   0  0  0  0  0  0  0  0  0  0  0  0
   29.5097   50.3920   38.7058 C   0  0  0  0  0  0  0  0  0  0  0  0
   29.4097   48.9021   39.0141 C   0  0  0  0  0  0  0  0  0  0  0  0
   30.8049   48.3029   39.1520 C   0  0  0  0  0  0  0  0  0  0  0  0
   30.6991   46.8273   39.5214 C   0  0  0  0  0  0  0  0  0  0  0  0
   32.0032   46.1961   39.6274 N   0  0  0  0  0  0  0  0  0  0  0  0
   32.0876   44.7532   39.8102 C   0  0  0  0  0  0  0  0  0  0  0  0
   33.5077   44.1914   39.8085 C   0  0  0  0  0  0  0  0  0  0  0  0
   34.2254   44.5415   38.5038 C   0  0  0  0  0  0  0  0  0  0  0  0
   35.5803   44.0169   38.5190 N   0  0  0  0  0  0  0  0  0  0  0  0
  1  2  1  0  0  0  0
  2  3  1  0  0  0  0
  3  4  1  0  0  0  0
  4  5  1  0  0  0  0
  5  6  1  0  0  0  0
  6  7  1  0  0  0  0
  7  8  1  0  0  0  0
  8  9  1  0  0  0  0
  9 10  1  0  0  0  0
 10 11  1  0  0  0  0
 11 12  1  0  0  0  0
 12 13  1  0  0  0  0
 13 14  1  0  0  0  0
M  END
>  <CHROM.1>
-177.02354026,65.97935609,-157.41818495,176.60964945,-174.56822022,177.49582778
178.32590077,-172.47912273,175.83931318,-57.70566962,179.30414483,30.22870217
48.65691429,39.31458053,2.53890760,0.68052068,-0.67448277

>  <Name>
ligand

>  <RI>
0

>  <Rbt.Current_Directory>
/home/itssahil/PROJECTS/Mol_Feturizer/New_Systems/rnas/4P5J

>  <Rbt.Executable>
rbdock ($Id: //depot/dev/client3/rdock/2013.1/src/exe/rbdock.cxx#4 $)

>  <Rbt.Library>
libRbt.so (2013.1, Build901 2013/11/27)

>  <Rbt.Parameter_File>
/export/apps/rDock/src/rDock_2013.1_src/data/scripts/dock_solv.prm

>  <Rbt.Receptor>
prm/pocket_docking_2.prm

>  <SCORE>
2.1118

>  <SCORE.INTER>
12.1301

>  <SCORE.INTER.CONST>
1

>  <SCORE.INTER.POLAR>
0

>  <SCORE.INTER.ROT>
11

>  <SCORE.INTER.SOLV>
1.62372

>  <SCORE.INTER.VDW>
-3.38785

>  <SCORE.INTER.norm>
0.866435

>  <SCORE.INTRA>
-10.0212

>  <SCORE.INTRA.DIHEDRAL>
-16.7439

>  <SCORE.INTRA.DIHEDRAL.0>
17.5233

>  <SCORE.INTRA.POLAR>
0

>  <SCORE.INTRA.POLAR.0>
0

>  <SCORE.INTRA.REPUL>
0

>  <SCORE.INTRA.REPUL.0>
0

>  <SCORE.INTRA.SOLV>
-1.95791

>  <SCORE.INTRA.SOLV.lig_0>
-46.1043

>  <SCORE.INTRA.VDW>
-0.670284

>  <SCORE.INTRA.VDW.0>
-0.545445

>  <SCORE.INTRA.norm>
-0.7158

>  <SCORE.RESTR>
0.00290678

>  <SCORE.RESTR.CAVITY>
0.00290678

>  <SCORE.RESTR.norm>
0.000207627

>  <SCORE.SYSTEM>
0

>  <SCORE.SYSTEM.CONST>
0

>  <SCORE.SYSTEM.DIHEDRAL>
0

>  <SCORE.SYSTEM.SOLV>
0

>  <SCORE.SYSTEM.norm>
0

>  <SCORE.heavy>
14

>  <SCORE.norm>
0.150843

>  <RMSD>
1.935

$$$$
ligand
 OpenBabel11021811513D
libRbt.so/2013.1/901 2013/11/27
 14 13  0  0  0  0  0  0  0  0999 V2000
   35.3063   44.1773   39.7345 N   0  0  0  0  0  0  0  0  0  0  0  0
   34.8711   44.0634   38.3519 C   0  0  0  0  0  0  0  0  0  0  0  0
   33.9677   45.2351   37.9820 C   0  0  0  0  0  0  0  0  0  0  0  0
   32.6492   45.1756   38.7450 C   0  0  0  0  0  0  0  0  0  0  0  0
   31.7928   46.3299   38.4898 N   0  0  0  0  0  0  0  0  0  0  0  0
   30.6859   46.6419   39.3782 C   0  0  0  0  0  0  0  0  0  0  0  0
   30.4810   48.1414   39.5641 C   0  0  0  0  0  0  0  0  0  0  0  0
   30.0313   48.7734   38.2516 C   0  0  0  0  0  0  0  0  0  0  0  0
   29.8248   50.2719   38.4440 C   0  0  0  0  0  0  0  0  0  0  0  0
   28.7653   50.5593   39.3954 N   0  0  0  0  0  0  0  0  0  0  0  0
   27.3751   50.4129   38.9848 C   0  0  0  0  0  0  0  0  0  0  0  0
   26.6198   51.7284   38.8080 C   0  0  0  0  0  0  0  0  0  0  0  0
   26.6055   52.5229   40.1150 C   0  0  0  0  0  0  0  0  0  0  0  0
   25.8939   53.7767   39.9334 N   0  0  0  0  0  0  0  0  0  0  0  0
  1  2  1  0  0  0  0
  2  3  1  0  0  0  0
  3  4  1  0  0  0  0
  4  5  1  0  0  0  0
  5  6  1  0  0  0  0
  6  7  1  0  0  0  0
  7  8  1  0  0  0  0
  8  9  1  0  0  0  0
  9 10  1  0  0  0  0
 10 11  1  0  0  0  0
 11 12  1  0  0  0  0
 12 13  1  0  0  0  0
 13 14  1  0  0  0  0
M  END
>  <CHROM.1>
-67.15484079,175.99244817,-163.03074759,143.49186450,66.49492966,179.86534561
-63.14018679,-76.39696945,-108.41057351,-59.47557499,179.55790634,30.34779804
48.41489217,39.01253308,-0.32144384,-0.75178447,1.21217036

>  <Name>
ligand

>  <RI>
0

>  <Rbt.Current_Directory>
/home/itssahil/PROJECTS/Mol_Feturizer/New_Systems/rnas/4P5J

>  <Rbt.Executable>
rbdock ($Id: //depot/dev/client3/rdock/2013.1/src/exe/rbdock.cxx#4 $)

>  <Rbt.Library>
libRbt.so (2013.1, Build901 2013/11/27)

>  <Rbt.Parameter_File>
/export/apps/rDock/src/rDock_2013.1_src/data/scripts/dock_solv.prm

>  <Rbt.Receptor>
prm/pocket_docking_2.prm

>  <SCORE>
3.6818

>  <SCORE.INTER>
11.5786

>  <SCORE.INTER.CONST>
1

>  <SCORE.INTER.POLAR>
0

>  <SCORE.INTER.ROT>
11

>  <SCORE.INTER.SOLV>
1.5926

>  <SCORE.INTER.VDW>
-3.74515

>  <SCORE.INTER.norm>
0.827041

>  <SCORE.INTRA>
-7.89678

>  <SCORE.INTRA.DIHEDRAL>
-14.7512

>  <SCORE.INTRA.DIHEDRAL.0>
17.5233

>  <SCORE.INTRA.POLAR>
0

>  <SCORE.INTRA.POLAR.0>
0

>  <SCORE.INTRA.REPUL>
0

>  <SCORE.INTRA.REPUL.0>
0

>  <SCORE.INTRA.SOLV>
-0.783542

>  <SCORE.INTRA.SOLV.lig_0>
-46.1043

>  <SCORE.INTRA.VDW>
-0.129387

>  <SCORE.INTRA.VDW.0>
-0.545445

>  <SCORE.INTRA.norm>
-0.564056

>  <SCORE.RESTR>
0

>  <SCORE.RESTR.CAVITY>
0

>  <SCORE.RESTR.norm>
0

>  <SCORE.SYSTEM>
0

>  <SCORE.SYSTEM.CONST>
0

>  <SCORE.SYSTEM.DIHEDRAL>
0

>  <SCORE.SYSTEM.SOLV>
0

>  <SCORE.SYSTEM.norm>
0

>  <SCORE.heavy>
14

>  <SCORE.norm>
0.262985

>  <RMSD>
2.005

$$$$
ligand
 OpenBabel11021811513D
libRbt.so/2013.1/901 2013/11/27
 14 13  0  0  0  0  0  0  0  0999 V2000
   32.2754   43.2199   38.5957 N   0  0  0  0  0  0  0  0  0  0  0  0
   33.3028   43.1949   39.6242 C   0  0  0  0  0  0  0  0  0  0  0  0
   33.1992   44.4337   40.5076 C   0  0  0  0  0  0  0  0  0  0  0  0
   33.5603   45.6950   39.7309 C   0  0  0  0  0  0  0  0  0  0  0  0
   32.4710   46.1717   38.8840 N   0  0  0  0  0  0  0  0  0  0  0  0
   31.4158   47.0060   39.4339 C   0  0  0  0  0  0  0  0  0  0  0  0
   30.8375   47.9787   38.4120 C   0  0  0  0  0  0  0  0  0  0  0  0
   29.8139   48.8900   39.0799 C   0  0  0  0  0  0  0  0  0  0  0  0
   29.2302   49.8524   38.0512 C   0  0  0  0  0  0  0  0  0  0  0  0
   28.3446   50.8303   38.6592 N   0  0  0  0  0  0  0  0  0  0  0  0
   26.9856   50.4428   39.0135 C   0  0  0  0  0  0  0  0  0  0  0  0
   26.2682   51.4139   39.9488 C   0  0  0  0  0  0  0  0  0  0  0  0
   26.1138   52.7851   39.2886 C   0  0  0  0  0  0  0  0  0  0  0  0
   25.4575   53.7095   40.1974 N   0  0  0  0  0  0  0  0  0  0  0  0
  1  2  1  0  0  0  0
  2  3  1  0  0  0  0
  3  4  1  0  0  0  0
  4  5  1  0  0  0  0
  5  6  1  0  0  0  0
  6  7  1  0  0  0  0
  7  8  1  0  0  0  0
  8  9  1  0  0  0  0
  9 10  1  0  0  0  0
 10 11  1  0  0  0  0
 11 12  1  0  0  0  0
 12 13  1  0  0  0  0
 13 14  1  0  0  0  0
M  END
>  <CHROM.1>
-67.63765694,79.23977322,83.61908475,149.38632096,-175.77788515,-179.52242212
-174.40572753,-78.59244340,165.30711900,62.17069506,-178.71801724,29.94839056
48.25876084,39.24484229,0.67497885,-0.60155739,2.52548451

>  <Name>
ligand

>  <RI>
0

>  <Rbt.Current_Directory>
/home/itssahil/PROJECTS/Mol_Feturizer/New_Systems/rnas/4P5J

>  <Rbt.Executable>
rbdock ($Id: //depot/dev/client3/rdock/2013.1/src/exe/rbdock.cxx#4 $)

>  <Rbt.Library>
libRbt.so (2013.1, Build901 2013/11/27)

>  <Rbt.Parameter_File>
/export/apps/rDock/src/rDock_2013.1_src/data/scripts/dock_solv.prm

>  <Rbt.Receptor>
prm/pocket_docking_2.prm

>  <SCORE>
4.33767

>  <SCORE.INTER>
11.6496

>  <SCORE.INTER.CONST>
1

>  <SCORE.INTER.POLAR>
0

>  <SCORE.INTER.ROT>
11

>  <SCORE.INTER.SOLV>
2.42622

>  <SCORE.INTER.VDW>
-3.97565

>  <SCORE.INTER.norm>
0.832117

>  <SCORE.INTRA>
-7.31369

>  <SCORE.INTRA.DIHEDRAL>
-14.3558

>  <SCORE.INTRA.DIHEDRAL.0>
17.5233

>  <SCORE.INTRA.POLAR>
0

>  <SCORE.INTRA.POLAR.0>
0

>  <SCORE.INTRA.REPUL>
0

>  <SCORE.INTRA.REPUL.0>
0

>  <SCORE.INTRA.SOLV>
0.502175

>  <SCORE.INTRA.SOLV.lig_0>
-46.1043

>  <SCORE.INTRA.VDW>
-0.386886

>  <SCORE.INTRA.VDW.0>
-0.545445

>  <SCORE.INTRA.norm>
-0.522407

>  <SCORE.RESTR>
0.00172419

>  <SCORE.RESTR.CAVITY>
0.00172419

>  <SCORE.RESTR.norm>
0.000123156

>  <SCORE.SYSTEM>
0

>  <SCORE.SYSTEM.CONST>
0

>  <SCORE.SYSTEM.DIHEDRAL>
0

>  <SCORE.SYSTEM.SOLV>
0

>  <SCORE.SYSTEM.norm>
0

>  <SCORE.heavy>
14

>  <SCORE.norm>
0.309834

>  <RMSD>
2.053

$$$$
ligand
 OpenBabel11021811513D
libRbt.so/2013.1/901 2013/11/27
 14 13  0  0  0  0  0  0  0  0999 V2000
   25.2085   50.4247   42.0440 N   0  0  0  0  0  0  0  0  0  0  0  0
   26.0112   49.9066   40.9480 C   0  0  0  0  0  0  0  0  0  0  0  0
   25.5119   50.4597   39.6173 C   0  0  0  0  0  0  0  0  0  0  0  0
   26.3463   49.9334   38.4550 C   0  0  0  0  0  0  0  0  0  0  0  0
   27.7560   50.2991   38.5565 N   0  0  0  0  0  0  0  0  0  0  0  0
   28.6648   50.0611   37.4478 C   0  0  0  0  0  0  0  0  0  0  0  0
   30.1261   50.2811   37.8230 C   0  0  0  0  0  0  0  0  0  0  0  0
   30.5839   49.1994   38.7951 C   0  0  0  0  0  0  0  0  0  0  0  0
   30.8246   47.8959   38.0414 C   0  0  0  0  0  0  0  0  0  0  0  0
   31.2214   46.8170   38.9295 N   0  0  0  0  0  0  0  0  0  0  0  0
   31.4585   45.4884   38.3807 C   0  0  0  0  0  0  0  0  0  0  0  0
   32.1736   44.5254   39.3260 C   0  0  0  0  0  0  0  0  0  0  0  0
   32.4336   43.1850   38.6364 C   0  0  0  0  0  0  0  0  0  0  0  0
   33.1399   42.2867   39.5339 N   0  0  0  0  0  0  0  0  0  0  0  0
  1  2  1  0  0  0  0
  2  3  1  0  0  0  0
  3  4  1  0  0  0  0
  4  5  1  0  0  0  0
  5  6  1  0  0  0  0
  6  7  1  0  0  0  0
  7  8  1  0  0  0  0
  8  9  1  0  0  0  0
  9 10  1  0  0  0  0
 10 11  1  0  0  0  0
 11 12  1  0  0  0  0
 12 13  1  0  0  0  0
 13 14  1  0  0  0  0
M  END
>  <CHROM.1>
179.70021843,-60.24983610,-170.72876255,-170.03713389,68.64554407,76.28426232
-178.11239629,178.39792678,166.47431986,-177.31962877,178.75455362,29.39004107
47.91186800,39.03789575,2.54868138,0.59996769,-0.56671918

>  <Name>
ligand

>  <RI>
0

>  <Rbt.Current_Directory>
/home/itssahil/PROJECTS/Mol_Feturizer/New_Systems/rnas/4P5J

>  <Rbt.Executable>
rbdock ($Id: //depot/dev/client3/rdock/2013.1/src/exe/rbdock.cxx#4 $)

>  <Rbt.Library>
libRbt.so (2013.1, Build901 2013/11/27)

>  <Rbt.Parameter_File>
/export/apps/rDock/src/rDock_2013.1_src/data/scripts/dock_solv.prm

>  <Rbt.Receptor>
prm/pocket_docking_3.prm

>  <SCORE>
-0.0886484

>  <SCORE.INTER>
8.90322

>  <SCORE.INTER.CONST>
1

>  <SCORE.INTER.POLAR>
0

>  <SCORE.INTER.ROT>
11

>  <SCORE.INTER.SOLV>
4.81509

>  <SCORE.INTER.VDW>
-6.60288

>  <SCORE.INTER.norm>
0.635944

>  <SCORE.INTRA>
-8.99187

>  <SCORE.INTRA.DIHEDRAL>
-15.8562

>  <SCORE.INTRA.DIHEDRAL.0>
17.5233

>  <SCORE.INTRA.POLAR>
0

>  <SCORE.INTRA.POLAR.0>
0

>  <SCORE.INTRA.REPUL>
0

>  <SCORE.INTRA.REPUL.0>
0

>  <SCORE.INTRA.SOLV>
-1.68421

>  <SCORE.INTRA.SOLV.lig_0>
-46.1043

>  <SCORE.INTRA.VDW>
-0.221665

>  <SCORE.INTRA.VDW.0>
-0.545445

>  <SCORE.INTRA.norm>
-0.642276

>  <SCORE.RESTR>
0

>  <SCORE.RESTR.CAVITY>
0

>  <SCORE.RESTR.norm>
0

>  <SCORE.SYSTEM>
0

>  <SCORE.SYSTEM.CONST>
0

>  <SCORE.SYSTEM.DIHEDRAL>
0

>  <SCORE.SYSTEM.SOLV>
0

>  <SCORE.SYSTEM.norm>
0

>  <SCORE.heavy>
14

>  <SCORE.norm>
-0.00633203

>  <RMSD>
2.130

$$$$
ligand
 OpenBabel11021811513D
libRbt.so/2013.1/901 2013/11/27
 14 13  0  0  0  0  0  0  0  0999 V2000
   23.7832   51.6433   41.0983 N   0  0  0  0  0  0  0  0  0  0  0  0
   24.5745   51.4664   39.8914 C   0  0  0  0  0  0  0  0  0  0  0  0
   25.1704   50.0632   39.8489 C   0  0  0  0  0  0  0  0  0  0  0  0
   26.0262   49.8664   38.6027 C   0  0  0  0  0  0  0  0  0  0  0  0
   27.2103   50.7202   38.5864 N   0  0  0  0  0  0  0  0  0  0  0  0
   28.0416   50.8113   37.3979 C   0  0  0  0  0  0  0  0  0  0  0  0
   29.0939   49.7102   37.3263 C   0  0  0  0  0  0  0  0  0  0  0  0
   30.0113   49.7852   38.5416 C   0  0  0  0  0  0  0  0  0  0  0  0
   31.1647   48.8010   38.3796 C   0  0  0  0  0  0  0  0  0  0  0  0
   30.7012   47.4274   38.2854 N   0  0  0  0  0  0  0  0  0  0  0  0
   31.6552   46.3690   37.9815 C   0  0  0  0  0  0  0  0  0  0  0  0
   31.3876   45.0446   38.6934 C   0  0  0  0  0  0  0  0  0  0  0  0
   32.4507   44.0086   38.3242 C   0  0  0  0  0  0  0  0  0  0  0  0
   32.3392   43.6525   36.9199 N   0  0  0  0  0  0  0  0  0  0  0  0
  1  2  1  0  0  0  0
  2  3  1  0  0  0  0
  3  4  1  0  0  0  0
  4  5  1  0  0  0  0
  5  6  1  0  0  0  0
  6  7  1  0  0  0  0
  7  8  1  0  0  0  0
  8  9  1  0  0  0  0
  9 10  1  0  0  0  0
 10 11  1  0  0  0  0
 11 12  1  0  0  0  0
 12 13  1  0  0  0  0
 13 14  1  0  0  0  0
M  END
>  <CHROM.1>
-178.91762193,65.13467524,-171.21954655,-85.67079244,-59.66100683,-172.84400088
-61.39502501,173.34960304,144.01694315,-179.23981560,-66.74354544,28.82940968
48.52645529,38.56261233,2.53657665,0.46124072,-0.28781471

>  <Name>
ligand

>  <RI>
0

>  <Rbt.Current_Directory>
/home/itssahil/PROJECTS/Mol_Feturizer/New_Systems/rnas/4P5J

>  <Rbt.Executable>
rbdock ($Id: //depot/dev/client3/rdock/2013.1/src/exe/rbdock.cxx#4 $)

>  <Rbt.Library>
libRbt.so (2013.1, Build901 2013/11/27)

>  <Rbt.Parameter_File>
/export/apps/rDock/src/rDock_2013.1_src/data/scripts/dock_solv.prm

>  <Rbt.Receptor>
prm/pocket_docking_3.prm

>  <SCORE>
-0.158205

>  <SCORE.INTER>
8.30646

>  <SCORE.INTER.CONST>
1

>  <SCORE.INTER.POLAR>
0

>  <SCORE.INTER.ROT>
11

>  <SCORE.INTER.SOLV>
4.10725

>  <SCORE.INTER.VDW>
-6.76478

>  <SCORE.INTER.norm>
0.593319

>  <SCORE.INTRA>
-8.46521

>  <SCORE.INTRA.DIHEDRAL>
-15.6788

>  <SCORE.INTRA.DIHEDRAL.0>
17.5233

>  <SCORE.INTRA.POLAR>
0

>  <SCORE.INTRA.POLAR.0>
0

>  <SCORE.INTRA.REPUL>
0

>  <SCORE.INTRA.REPUL.0>
0

>  <SCORE.INTRA.SOLV>
-0.800028

>  <SCORE.INTRA.SOLV.lig_0>
-46.1043

>  <SCORE.INTRA.VDW>
-0.225807

>  <SCORE.INTRA.VDW.0>
-0.545445

>  <SCORE.INTRA.norm>
-0.604658

>  <SCORE.RESTR>
0.000549643

>  <SCORE.RESTR.CAVITY>
0.000549643

>  <SCORE.RESTR.norm>
3.92602e-05

>  <SCORE.SYSTEM>
0

>  <SCORE.SYSTEM.CONST>
0

>  <SCORE.SYSTEM.DIHEDRAL>
0

>  <SCORE.SYSTEM.SOLV>
0

>  <SCORE.SYSTEM.norm>
0

>  <SCORE.heavy>
14

>  <SCORE.norm>
-0.0113004

>  <RMSD>
2.174

$$$$
ligand
 OpenBabel11021811513D
libRbt.so/2013.1/901 2013/11/27
 14 13  0  0  0  0  0  0  0  0999 V2000
   33.1847   45.1083   40.0187 N   0  0  0  0  0  0  0  0  0  0  0  0
   31.7753   44.9849   39.6838 C   0  0  0  0  0  0  0  0  0  0  0  0
   31.5551   45.2722   38.2023 C   0  0  0  0  0  0  0  0  0  0  0  0
   31.8880   46.7219   37.8676 C   0  0  0  0  0  0  0  0  0  0  0  0
   31.7372   47.0259   36.4478 N   0  0  0  0  0  0  0  0  0  0  0  0
   31.8645   48.3906   35.9648 C   0  0  0  0  0  0  0  0  0  0  0  0
   30.5232   49.1077   35.8577 C   0  0  0  0  0  0  0  0  0  0  0  0
   29.9097   49.2769   37.2431 C   0  0  0  0  0  0  0  0  0  0  0  0
   28.5011   49.8474   37.1181 C   0  0  0  0  0  0  0  0  0  0  0  0
   27.8536   49.9914   38.4105 N   0  0  0  0  0  0  0  0  0  0  0  0
   26.4049   50.1323   38.4739 C   0  0  0  0  0  0  0  0  0  0  0  0
   25.8784   50.7357   39.7743 C   0  0  0  0  0  0  0  0  0  0  0  0
   24.3557   50.8734   39.7281 C   0  0  0  0  0  0  0  0  0  0  0  0
   23.8674   51.4695   40.9599 N   0  0  0  0  0  0  0  0  0  0  0  0
  1  2  1  0  0  0  0
  2  3  1  0  0  0  0
  3  4  1  0  0  0  0
  4  5  1  0  0  0  0
  5  6  1  0  0  0  0
  6  7  1  0  0  0  0
  7  8  1  0  0  0  0
  8  9  1  0  0  0  0
  9 10  1  0  0  0  0
 10 11  1  0  0  0  0
 11 12  1  0  0  0  0
 12 13  1  0  0  0  0
 13 14  1  0  0  0  0
M  END
>  <CHROM.1>
-65.16181735,177.88940692,173.04607913,-94.29373498,65.01019617,-173.51641860
178.26818631,-161.74225523,-160.31579393,178.59099239,-179.01432178,29.23566615
48.49561812,38.26761659,0.17043386,-0.60173479,2.19014907

>  <Name>
ligand

>  <RI>
0

>  <Rbt.Current_Directory>
/home/itssahil/PROJECTS/Mol_Feturizer/New_Systems/rnas/4P5J

>  <Rbt.Executable>
rbdock ($Id: //depot/dev/client3/rdock/2013.1/src/exe/rbdock.cxx#4 $)

>  <Rbt.Library>
libRbt.so (2013.1, Build901 2013/11/27)

>  <Rbt.Parameter_File>
/export/apps/rDock/src/rDock_2013.1_src/data/scripts/dock_solv.prm

>  <Rbt.Receptor>
prm/pocket_docking_3.prm

>  <SCORE>
-1.58847

>  <SCORE.INTER>
7.50204

>  <SCORE.INTER.CONST>
1

>  <SCORE.INTER.POLAR>
0

>  <SCORE.INTER.ROT>
11

>  <SCORE.INTER.SOLV>
4.92296

>  <SCORE.INTER.VDW>
-7.57296

>  <SCORE.INTER.norm>
0.53586

>  <SCORE.INTRA>
-9.09051

>  <SCORE.INTRA.DIHEDRAL>
-15.7962

>  <SCORE.INTRA.DIHEDRAL.0>
17.5233

>  <SCORE.INTRA.POLAR>
0

>  <SCORE.INTRA.POLAR.0>
0

>  <SCORE.INTRA.REPUL>
0

>  <SCORE.INTRA.REPUL.0>
0

>  <SCORE.INTRA.SOLV>
-1.52643

>  <SCORE.INTRA.SOLV.lig_0>
-46.1043

>  <SCORE.INTRA.VDW>
-0.429186

>  <SCORE.INTRA.VDW.0>
-0.545445

>  <SCORE.INTRA.norm>
-0.649322

>  <SCORE.RESTR>
0

>  <SCORE.RESTR.CAVITY>
0

>  <SCORE.RESTR.norm>
0

>  <SCORE.SYSTEM>
0

>  <SCORE.SYSTEM.CONST>
0

>  <SCORE.SYSTEM.DIHEDRAL>
0

>  <SCORE.SYSTEM.SOLV>
0

>  <SCORE.SYSTEM.norm>
0

>  <SCORE.heavy>
14

>  <SCORE.norm>
-0.113462

>  <RMSD>
2.221

$$$$
ligand
 OpenBabel11021811513D
libRbt.so/2013.1/901 2013/11/27
 14 13  0  0  0  0  0  0  0  0999 V2000
   24.5593   52.3148   40.8097 N   0  0  0  0  0  0  0  0  0  0  0  0
   25.3609   51.1801   41.2384 C   0  0  0  0  0  0  0  0  0  0  0  0
   24.9655   49.9281   40.4625 C   0  0  0  0  0  0  0  0  0  0  0  0
   25.3819   50.0329   38.9997 C   0  0  0  0  0  0  0  0  0  0  0  0
   26.8290   50.1160   38.8257 N   0  0  0  0  0  0  0  0  0  0  0  0
   27.4144   50.1537   37.4962 C   0  0  0  0  0  0  0  0  0  0  0  0
   28.9382   50.1984   37.5218 C   0  0  0  0  0  0  0  0  0  0  0  0
   29.4821   49.0097   38.3064 C   0  0  0  0  0  0  0  0  0  0  0  0
   30.9992   48.9487   38.1660 C   0  0  0  0  0  0  0  0  0  0  0  0
   31.5667   47.8077   38.8636 N   0  0  0  0  0  0  0  0  0  0  0  0
   31.2945   46.4623   38.3755 C   0  0  0  0  0  0  0  0  0  0  0  0
   31.8602   45.3412   39.2447 C   0  0  0  0  0  0  0  0  0  0  0  0
   31.2592   45.3923   40.6505 C   0  0  0  0  0  0  0  0  0  0  0  0
   31.9239   44.4334   41.5164 N   0  0  0  0  0  0  0  0  0  0  0  0
  1  2  1  0  0  0  0
  2  3  1  0  0  0  0
  3  4  1  0  0  0  0
  4  5  1  0  0  0  0
  5  6  1  0  0  0  0
  6  7  1  0  0  0  0
  7  8  1  0  0  0  0
  8  9  1  0  0  0  0
  9 10  1  0  0  0  0
 10 11  1  0  0  0  0
 11 12  1  0  0  0  0
 12 13  1  0  0  0  0
 13 14  1  0  0  0  0
M  END
>  <CHROM.1>
69.13554969,63.48932605,176.89126175,-178.28475910,56.31916034,172.12686718
-178.27678034,67.96901664,-175.84326101,60.93281538,-172.82855616,28.70248031
48.66566267,39.31950445,2.75832968,0.58190103,-0.89914433

>  <Name>
ligand

>  <RI>
0

>  <Rbt.Current_Directory>
/home/itssahil/PROJECTS/Mol_Feturizer/New_Systems/rnas/4P5J

>  <Rbt.Executable>
rbdock ($Id: //depot/dev/client3/rdock/2013.1/src/exe/rbdock.cxx#4 $)

>  <Rbt.Library>
libRbt.so (2013.1, Build901 2013/11/27)

>  <Rbt.Parameter_File>
/export/apps/rDock/src/rDock_2013.1_src/data/scripts/dock_solv.prm

>  <Rbt.Receptor>
prm/pocket_docking_3.prm

>  <SCORE>
-0.0522398

>  <SCORE.INTER>
8.36678

>  <SCORE.INTER.CONST>
1

>  <SCORE.INTER.POLAR>
0

>  <SCORE.INTER.ROT>
11

>  <SCORE.INTER.SOLV>
5.04495

>  <SCORE.INTER.VDW>
-7.03713

>  <SCORE.INTER.norm>
0.597627

>  <SCORE.INTRA>
-8.41902

>  <SCORE.INTRA.DIHEDRAL>
-16.5773

>  <SCORE.INTRA.DIHEDRAL.0>
17.5233

>  <SCORE.INTRA.POLAR>
0

>  <SCORE.INTRA.POLAR.0>
0

>  <SCORE.INTRA.REPUL>
0

>  <SCORE.INTRA.REPUL.0>
0

>  <SCORE.INTRA.SOLV>
-0.257837

>  <SCORE.INTRA.SOLV.lig_0>
-46.1043

>  <SCORE.INTRA.VDW>
-0.00144148

>  <SCORE.INTRA.VDW.0>
-0.545445

>  <SCORE.INTRA.norm>
-0.601359

>  <SCORE.RESTR>
0

>  <SCORE.RESTR.CAVITY>
0

>  <SCORE.RESTR.norm>
0

>  <SCORE.SYSTEM>
0

>  <SCORE.SYSTEM.CONST>
0

>  <SCORE.SYSTEM.DIHEDRAL>
0

>  <SCORE.SYSTEM.SOLV>
0

>  <SCORE.SYSTEM.norm>
0

>  <SCORE.heavy>
14

>  <SCORE.norm>
-0.00373141

>  <RMSD>
2.224

$$$$
ligand
 OpenBabel11021811513D
libRbt.so/2013.1/901 2013/11/27
 14 13  0  0  0  0  0  0  0  0999 V2000
   23.5359   53.4897   41.2879 N   0  0  0  0  0  0  0  0  0  0  0  0
   23.8677   52.5088   40.2672 C   0  0  0  0  0  0  0  0  0  0  0  0
   25.3539   52.1710   40.3195 C   0  0  0  0  0  0  0  0  0  0  0  0
   25.7336   51.1872   39.2184 C   0  0  0  0  0  0  0  0  0  0  0  0
   27.1429   50.8083   39.2567 N   0  0  0  0  0  0  0  0  0  0  0  0
   27.7042   49.9390   38.2364 C   0  0  0  0  0  0  0  0  0  0  0  0
   29.0844   49.4070   38.6064 C   0  0  0  0  0  0  0  0  0  0  0  0
   28.9791   48.4730   39.8068 C   0  0  0  0  0  0  0  0  0  0  0  0
   30.2933   47.7229   39.9945 C   0  0  0  0  0  0  0  0  0  0  0  0
   30.6193   46.8966   38.8450 N   0  0  0  0  0  0  0  0  0  0  0  0
   31.3295   45.6402   39.0447 C   0  0  0  0  0  0  0  0  0  0  0  0
   31.3950   44.7411   37.8120 C   0  0  0  0  0  0  0  0  0  0  0  0
   32.1009   43.4245   38.1409 C   0  0  0  0  0  0  0  0  0  0  0  0
   33.4931   43.6706   38.4761 N   0  0  0  0  0  0  0  0  0  0  0  0
  1  2  1  0  0  0  0
  2  3  1  0  0  0  0
  3  4  1  0  0  0  0
  4  5  1  0  0  0  0
  5  6  1  0  0  0  0
  6  7  1  0  0  0  0
  7  8  1  0  0  0  0
  8  9  1  0  0  0  0
  9 10  1  0  0  0  0
 10 11  1  0  0  0  0
 11 12  1  0  0  0  0
 12 13  1  0  0  0  0
 13 14  1  0  0  0  0
M  END
>  <CHROM.1>
-177.61997027,-178.38533377,-176.38171235,-167.12456124,66.45457483,168.32126523
-61.39942789,-146.94976004,169.44328149,-177.37038105,-65.28747002,28.61659321
48.57707892,39.23652233,-2.92314545,0.80514265,-1.64809956

>  <Name>
ligand

>  <RI>
0

>  <Rbt.Current_Directory>
/home/itssahil/PROJECTS/Mol_Feturizer/New_Systems/rnas/4P5J

>  <Rbt.Executable>
rbdock ($Id: //depot/dev/client3/rdock/2013.1/src/exe/rbdock.cxx#4 $)

>  <Rbt.Library>
libRbt.so (2013.1, Build901 2013/11/27)

>  <Rbt.Parameter_File>
/export/apps/rDock/src/rDock_2013.1_src/data/scripts/dock_solv.prm

>  <Rbt.Receptor>
prm/pocket_docking_3.prm

>  <SCORE>
-1.2274

>  <SCORE.INTER>
7.63085

>  <SCORE.INTER.CONST>
1

>  <SCORE.INTER.POLAR>
0

>  <SCORE.INTER.ROT>
11

>  <SCORE.INTER.SOLV>
4.65343

>  <SCORE.INTER.VDW>
-7.39724

>  <SCORE.INTER.norm>
0.545061

>  <SCORE.INTRA>
-8.85825

>  <SCORE.INTRA.DIHEDRAL>
-15.716

>  <SCORE.INTRA.DIHEDRAL.0>
17.5233

>  <SCORE.INTRA.POLAR>
0

>  <SCORE.INTRA.POLAR.0>
0

>  <SCORE.INTRA.REPUL>
0

>  <SCORE.INTRA.REPUL.0>
0

>  <SCORE.INTRA.SOLV>
-1.14165

>  <SCORE.INTRA.SOLV.lig_0>
-46.1043

>  <SCORE.INTRA.VDW>
-0.429425

>  <SCORE.INTRA.VDW.0>
-0.545445

>  <SCORE.INTRA.norm>
-0.632732

>  <SCORE.RESTR>
0

>  <SCORE.RESTR.CAVITY>
0

>  <SCORE.RESTR.norm>
0

>  <SCORE.SYSTEM>
0

>  <SCORE.SYSTEM.CONST>
0

>  <SCORE.SYSTEM.DIHEDRAL>
0

>  <SCORE.SYSTEM.SOLV>
0

>  <SCORE.SYSTEM.norm>
0

>  <SCORE.heavy>
14

>  <SCORE.norm>
-0.0876712

>  <RMSD>
2.230

$$$$
ligand
 OpenBabel11021811513D
libRbt.so/2013.1/901 2013/11/27
 14 13  0  0  0  0  0  0  0  0999 V2000
   32.6553   43.4408   37.0045 N   0  0  0  0  0  0  0  0  0  0  0  0
   32.7317   44.7633   37.6036 C   0  0  0  0  0  0  0  0  0  0  0  0
   31.3718   45.1733   38.1590 C   0  0  0  0  0  0  0  0  0  0  0  0
   31.4360   46.5501   38.8106 C   0  0  0  0  0  0  0  0  0  0  0  0
   30.1331   47.0225   39.2693 N   0  0  0  0  0  0  0  0  0  0  0  0
   30.0119   48.2801   39.9874 C   0  0  0  0  0  0  0  0  0  0  0  0
   28.7524   49.0547   39.6154 C   0  0  0  0  0  0  0  0  0  0  0  0
   28.8171   49.4855   38.1543 C   0  0  0  0  0  0  0  0  0  0  0  0
   27.5347   50.2179   37.7745 C   0  0  0  0  0  0  0  0  0  0  0  0
   27.4794   51.5531   38.3441 N   0  0  0  0  0  0  0  0  0  0  0  0
   27.0030   51.7300   39.7095 C   0  0  0  0  0  0  0  0  0  0  0  0
   25.4847   51.6830   39.8670 C   0  0  0  0  0  0  0  0  0  0  0  0
   25.0894   51.8330   41.3371 C   0  0  0  0  0  0  0  0  0  0  0  0
   23.6459   51.7496   41.4805 N   0  0  0  0  0  0  0  0  0  0  0  0
  1  2  1  0  0  0  0
  2  3  1  0  0  0  0
  3  4  1  0  0  0  0
  4  5  1  0  0  0  0
  5  6  1  0  0  0  0
  6  7  1  0  0  0  0
  7  8  1  0  0  0  0
  8  9  1  0  0  0  0
  9 10  1  0  0  0  0
 10 11  1  0  0  0  0
 11 12  1  0  0  0  0
 12 13  1  0  0  0  0
 13 14  1  0  0  0  0
M  END
>  <CHROM.1>
179.15569067,175.81995207,176.28898476,142.27577869,-65.04495794,178.06974549
73.68500825,-83.96315957,-78.67323433,178.18403716,-178.41264161,28.72484648
48.75275412,39.07979392,0.27882769,-0.78953518,2.29398647

>  <Name>
ligand

>  <RI>
0

>  <Rbt.Current_Directory>
/home/itssahil/PROJECTS/Mol_Feturizer/New_Systems/rnas/4P5J

>  <Rbt.Executable>
rbdock ($Id: //depot/dev/client3/rdock/2013.1/src/exe/rbdock.cxx#4 $)

>  <Rbt.Library>
libRbt.so (2013.1, Build901 2013/11/27)

>  <Rbt.Parameter_File>
/export/apps/rDock/src/rDock_2013.1_src/data/scripts/dock_solv.prm

>  <Rbt.Receptor>
prm/pocket_docking_3.prm

>  <SCORE>
0.202123

>  <SCORE.INTER>
8.98417

>  <SCORE.INTER.CONST>
1

>  <SCORE.INTER.POLAR>
0

>  <SCORE.INTER.ROT>
11

>  <SCORE.INTER.SOLV>
3.9763

>  <SCORE.INTER.VDW>
-6.26932

>  <SCORE.INTER.norm>
0.641726

>  <SCORE.INTRA>
-8.78205

>  <SCORE.INTRA.DIHEDRAL>
-15.1171

>  <SCORE.INTRA.DIHEDRAL.0>
17.5233

>  <SCORE.INTRA.POLAR>
0

>  <SCORE.INTRA.POLAR.0>
0

>  <SCORE.INTRA.REPUL>
0

>  <SCORE.INTRA.REPUL.0>
0

>  <SCORE.INTRA.SOLV>
-1.96962

>  <SCORE.INTRA.SOLV.lig_0>
-46.1043

>  <SCORE.INTRA.VDW>
-0.238674

>  <SCORE.INTRA.VDW.0>
-0.545445

>  <SCORE.INTRA.norm>
-0.627289

>  <SCORE.RESTR>
0

>  <SCORE.RESTR.CAVITY>
0

>  <SCORE.RESTR.norm>
0

>  <SCORE.SYSTEM>
0

>  <SCORE.SYSTEM.CONST>
0

>  <SCORE.SYSTEM.DIHEDRAL>
0

>  <SCORE.SYSTEM.SOLV>
0

>  <SCORE.SYSTEM.norm>
0

>  <SCORE.heavy>
14

>  <SCORE.norm>
0.0144374

>  <RMSD>
2.231

$$$$
ligand
 OpenBabel11021811513D
libRbt.so/2013.1/901 2013/11/27
 14 13  0  0  0  0  0  0  0  0999 V2000
   35.0932   44.1891   37.0727 N   0  0  0  0  0  0  0  0  0  0  0  0
   33.7240   43.8554   37.4305 C   0  0  0  0  0  0  0  0  0  0  0  0
   32.9435   45.1190   37.7770 C   0  0  0  0  0  0  0  0  0  0  0  0
   31.5079   44.7886   38.1695 C   0  0  0  0  0  0  0  0  0  0  0  0
   30.7153   45.9758   38.4755 N   0  0  0  0  0  0  0  0  0  0  0  0
   30.7981   46.6051   39.7828 C   0  0  0  0  0  0  0  0  0  0  0  0
   29.6505   47.5737   40.0468 C   0  0  0  0  0  0  0  0  0  0  0  0
   29.6703   48.6990   39.0184 C   0  0  0  0  0  0  0  0  0  0  0  0
   28.4553   49.5993   39.2145 C   0  0  0  0  0  0  0  0  0  0  0  0
   28.4874   50.2888   40.4928 N   0  0  0  0  0  0  0  0  0  0  0  0
   27.4444   51.2549   40.8116 C   0  0  0  0  0  0  0  0  0  0  0  0
   27.6883   52.0603   42.0860 C   0  0  0  0  0  0  0  0  0  0  0  0
   26.5337   53.0308   42.3406 C   0  0  0  0  0  0  0  0  0  0  0  0
   26.4756   54.0303   41.2876 N   0  0  0  0  0  0  0  0  0  0  0  0
  1  2  1  0  0  0  0
  2  3  1  0  0  0  0
  3  4  1  0  0  0  0
  4  5  1  0  0  0  0
  5  6  1  0  0  0  0
  6  7  1  0  0  0  0
  7  8  1  0  0  0  0
  8  9  1  0  0  0  0
  9 10  1  0  0  0  0
 10 11  1  0  0  0  0
 11 12  1  0  0  0  0
 12 13  1  0  0  0  0
 13 14  1  0  0  0  0
M  END
>  <CHROM.1>
-179.40791933,-178.49003910,-81.71414261,-164.40372921,-61.04425343,175.30795231
64.87492601,176.23812029,-171.60022319,-179.33578472,-65.03403061,29.94186615
48.36203985,39.57196334,-0.90753294,0.37418849,0.16479055

>  <Name>
ligand

>  <RI>
0

>  <Rbt.Current_Directory>
/home/itssahil/PROJECTS/Mol_Feturizer/New_Systems/rnas/4P5J

>  <Rbt.Executable>
rbdock ($Id: //depot/dev/client3/rdock/2013.1/src/exe/rbdock.cxx#4 $)

>  <Rbt.Library>
libRbt.so (2013.1, Build901 2013/11/27)

>  <Rbt.Parameter_File>
/export/apps/rDock/src/rDock_2013.1_src/data/scripts/dock_solv.prm

>  <Rbt.Receptor>
prm/pocket_docking_3.prm

>  <SCORE>
1.04692

>  <SCORE.INTER>
10.134

>  <SCORE.INTER.CONST>
1

>  <SCORE.INTER.POLAR>
0

>  <SCORE.INTER.ROT>
11

>  <SCORE.INTER.SOLV>
4.5391

>  <SCORE.INTER.VDW>
-5.69039

>  <SCORE.INTER.norm>
0.723855

>  <SCORE.INTRA>
-9.08704

>  <SCORE.INTRA.DIHEDRAL>
-16.6252

>  <SCORE.INTRA.DIHEDRAL.0>
17.5233

>  <SCORE.INTRA.POLAR>
0

>  <SCORE.INTRA.POLAR.0>
0

>  <SCORE.INTRA.REPUL>
0

>  <SCORE.INTRA.REPUL.0>
0

>  <SCORE.INTRA.SOLV>
-1.11666

>  <SCORE.INTRA.SOLV.lig_0>
-46.1043

>  <SCORE.INTRA.VDW>
-0.21609

>  <SCORE.INTRA.VDW.0>
-0.545445

>  <SCORE.INTRA.norm>
-0.649074

>  <SCORE.RESTR>
0

>  <SCORE.RESTR.CAVITY>
0

>  <SCORE.RESTR.norm>
0

>  <SCORE.SYSTEM>
0

>  <SCORE.SYSTEM.CONST>
0

>  <SCORE.SYSTEM.DIHEDRAL>
0

>  <SCORE.SYSTEM.SOLV>
0

>  <SCORE.SYSTEM.norm>
0

>  <SCORE.heavy>
14

>  <SCORE.norm>
0.0747802

>  <RMSD>
2.236

$$$$
ligand
 OpenBabel11021811513D
libRbt.so/2013.1/901 2013/11/27
 14 13  0  0  0  0  0  0  0  0999 V2000
   33.1436   43.1281   38.1302 N   0  0  0  0  0  0  0  0  0  0  0  0
   31.8450   43.2484   37.4874 C   0  0  0  0  0  0  0  0  0  0  0  0
   31.4965   44.7167   37.2669 C   0  0  0  0  0  0  0  0  0  0  0  0
   31.3001   45.4408   38.5940 C   0  0  0  0  0  0  0  0  0  0  0  0
   30.8698   46.8258   38.4270 N   0  0  0  0  0  0  0  0  0  0  0  0
   30.2319   47.5403   39.5199 C   0  0  0  0  0  0  0  0  0  0  0  0
   29.4896   48.7890   39.0568 C   0  0  0  0  0  0  0  0  0  0  0  0
   28.7910   49.4498   40.2399 C   0  0  0  0  0  0  0  0  0  0  0  0
   28.0373   50.6887   39.7686 C   0  0  0  0  0  0  0  0  0  0  0  0
   27.3868   51.3827   40.8665 N   0  0  0  0  0  0  0  0  0  0  0  0
   26.6229   52.5935   40.5960 C   0  0  0  0  0  0  0  0  0  0  0  0
   26.1146   53.3189   41.8401 C   0  0  0  0  0  0  0  0  0  0  0  0
   25.1099   52.4504   42.5990 C   0  0  0  0  0  0  0  0  0  0  0  0
   23.9096   52.2581   41.8031 N   0  0  0  0  0  0  0  0  0  0  0  0
  1  2  1  0  0  0  0
  2  3  1  0  0  0  0
  3  4  1  0  0  0  0
  4  5  1  0  0  0  0
  5  6  1  0  0  0  0
  6  7  1  0  0  0  0
  7  8  1  0  0  0  0
  8  9  1  0  0  0  0
  9 10  1  0  0  0  0
 10 11  1  0  0  0  0
 11 12  1  0  0  0  0
 12 13  1  0  0  0  0
 13 14  1  0  0  0  0
M  END
>  <CHROM.1>
-65.98260626,-175.82058636,160.36415459,-162.79230592,177.29010487,-179.35756271
-178.15828690,179.83255173,-173.59320551,-64.40633103,-66.05344473,28.88206517
48.70236170,39.72821219,0.87199229,-0.47112741,-3.08367383

>  <Name>
ligand

>  <RI>
0

>  <Rbt.Current_Directory>
/home/itssahil/PROJECTS/Mol_Feturizer/New_Systems/rnas/4P5J

>  <Rbt.Executable>
rbdock ($Id: //depot/dev/client3/rdock/2013.1/src/exe/rbdock.cxx#4 $)

>  <Rbt.Library>
libRbt.so (2013.1, Build901 2013/11/27)

>  <Rbt.Parameter_File>
/export/apps/rDock/src/rDock_2013.1_src/data/scripts/dock_solv.prm

>  <Rbt.Receptor>
prm/pocket_docking_3.prm

>  <SCORE>
0.546478

>  <SCORE.INTER>
9.43316

>  <SCORE.INTER.CONST>
1

>  <SCORE.INTER.POLAR>
0

>  <SCORE.INTER.ROT>
11

>  <SCORE.INTER.SOLV>
4.40331

>  <SCORE.INTER.VDW>
-6.11233

>  <SCORE.INTER.norm>
0.673797

>  <SCORE.INTRA>
-8.88669

>  <SCORE.INTRA.DIHEDRAL>
-16.5191

>  <SCORE.INTRA.DIHEDRAL.0>
17.5233

>  <SCORE.INTRA.POLAR>
0

>  <SCORE.INTRA.POLAR.0>
0

>  <SCORE.INTRA.REPUL>
0

>  <SCORE.INTRA.REPUL.0>
0

>  <SCORE.INTRA.SOLV>
-0.305862

>  <SCORE.INTRA.SOLV.lig_0>
-46.1043

>  <SCORE.INTRA.VDW>
-0.474189

>  <SCORE.INTRA.VDW.0>
-0.545445

>  <SCORE.INTRA.norm>
-0.634763

>  <SCORE.RESTR>
0

>  <SCORE.RESTR.CAVITY>
0

>  <SCORE.RESTR.norm>
0

>  <SCORE.SYSTEM>
0

>  <SCORE.SYSTEM.CONST>
0

>  <SCORE.SYSTEM.DIHEDRAL>
0

>  <SCORE.SYSTEM.SOLV>
0

>  <SCORE.SYSTEM.norm>
0

>  <SCORE.heavy>
14

>  <SCORE.norm>
0.0390341

>  <RMSD>
2.247

$$$$
ligand
 OpenBabel11021811513D
libRbt.so/2013.1/901 2013/11/27
 14 13  0  0  0  0  0  0  0  0999 V2000
   23.8356   53.5141   40.4536 N   0  0  0  0  0  0  0  0  0  0  0  0
   25.2312   53.4488   40.0512 C   0  0  0  0  0  0  0  0  0  0  0  0
   25.4094   52.4458   38.9162 C   0  0  0  0  0  0  0  0  0  0  0  0
   26.8721   52.3410   38.4992 C   0  0  0  0  0  0  0  0  0  0  0  0
   27.0876   51.3823   37.4196 N   0  0  0  0  0  0  0  0  0  0  0  0
   28.4216   50.8883   37.1228 C   0  0  0  0  0  0  0  0  0  0  0  0
   28.7252   49.5584   37.8041 C   0  0  0  0  0  0  0  0  0  0  0  0
   28.8324   49.7570   39.3120 C   0  0  0  0  0  0  0  0  0  0  0  0
   28.9640   48.4041   40.0030 C   0  0  0  0  0  0  0  0  0  0  0  0
   30.1776   47.7075   39.6128 N   0  0  0  0  0  0  0  0  0  0  0  0
   30.4752   46.4060   40.1962 C   0  0  0  0  0  0  0  0  0  0  0  0
   31.6692   45.6854   39.5738 C   0  0  0  0  0  0  0  0  0  0  0  0
   31.3723   45.3018   38.1231 C   0  0  0  0  0  0  0  0  0  0  0  0
   32.5103   44.6090   37.5434 N   0  0  0  0  0  0  0  0  0  0  0  0
  1  2  1  0  0  0  0
  2  3  1  0  0  0  0
  3  4  1  0  0  0  0
  4  5  1  0  0  0  0
  5  6  1  0  0  0  0
  6  7  1  0  0  0  0
  7  8  1  0  0  0  0
  8  9  1  0  0  0  0
  9 10  1  0  0  0  0
 10 11  1  0  0  0  0
 11 12  1  0  0  0  0
 12 13  1  0  0  0  0
 13 14  1  0  0  0  0
M  END
>  <CHROM.1>
-178.80437257,179.57948309,-163.95569663,95.35327572,-68.70319672,173.05561170
62.94115353,178.97903055,171.99196806,-66.20147051,-179.60201029,28.54175662
49.38928689,38.90228311,2.88601845,0.84456573,-1.16549174

>  <Name>
ligand

>  <RI>
0

>  <Rbt.Current_Directory>
/home/itssahil/PROJECTS/Mol_Feturizer/New_Systems/rnas/4P5J

>  <Rbt.Executable>
rbdock ($Id: //depot/dev/client3/rdock/2013.1/src/exe/rbdock.cxx#4 $)

>  <Rbt.Library>
libRbt.so (2013.1, Build901 2013/11/27)

>  <Rbt.Parameter_File>
/export/apps/rDock/src/rDock_2013.1_src/data/scripts/dock_solv.prm

>  <Rbt.Receptor>
prm/pocket_docking_3.prm

>  <SCORE>
-0.427057

>  <SCORE.INTER>
8.9571

>  <SCORE.INTER.CONST>
1

>  <SCORE.INTER.POLAR>
0

>  <SCORE.INTER.ROT>
11

>  <SCORE.INTER.SOLV>
4.49854

>  <SCORE.INTER.VDW>
-6.46145

>  <SCORE.INTER.norm>
0.639793

>  <SCORE.INTRA>
-9.38416

>  <SCORE.INTRA.DIHEDRAL>
-15.8396

>  <SCORE.INTRA.DIHEDRAL.0>
17.5233

>  <SCORE.INTRA.POLAR>
0

>  <SCORE.INTRA.POLAR.0>
0

>  <SCORE.INTRA.REPUL>
0

>  <SCORE.INTRA.REPUL.0>
0

>  <SCORE.INTRA.SOLV>
-1.63948

>  <SCORE.INTRA.SOLV.lig_0>
-46.1043

>  <SCORE.INTRA.VDW>
-0.644603

>  <SCORE.INTRA.VDW.0>
-0.545445

>  <SCORE.INTRA.norm>
-0.670297

>  <SCORE.RESTR>
0

>  <SCORE.RESTR.CAVITY>
0

>  <SCORE.RESTR.norm>
0

>  <SCORE.SYSTEM>
0

>  <SCORE.SYSTEM.CONST>
0

>  <SCORE.SYSTEM.DIHEDRAL>
0

>  <SCORE.SYSTEM.SOLV>
0

>  <SCORE.SYSTEM.norm>
0

>  <SCORE.heavy>
14

>  <SCORE.norm>
-0.0305041

>  <RMSD>
2.259

$$$$
ligand
 OpenBabel11021811513D
libRbt.so/2013.1/901 2013/11/27
 14 13  0  0  0  0  0  0  0  0999 V2000
   25.3477   50.1936   42.2835 N   0  0  0  0  0  0  0  0  0  0  0  0
   25.8650   50.6087   40.9896 C   0  0  0  0  0  0  0  0  0  0  0  0
   25.4907   49.5906   39.9175 C   0  0  0  0  0  0  0  0  0  0  0  0
   26.0772   49.9761   38.5641 C   0  0  0  0  0  0  0  0  0  0  0  0
   27.5368   50.0004   38.5639 N   0  0  0  0  0  0  0  0  0  0  0  0
   28.2738   50.2265   37.3320 C   0  0  0  0  0  0  0  0  0  0  0  0
   29.6967   50.7171   37.5754 C   0  0  0  0  0  0  0  0  0  0  0  0
   30.5279   49.6109   38.2155 C   0  0  0  0  0  0  0  0  0  0  0  0
   30.8511   48.5415   37.1778 C   0  0  0  0  0  0  0  0  0  0  0  0
   31.6392   47.4573   37.7382 N   0  0  0  0  0  0  0  0  0  0  0  0
   30.9865   46.4505   38.5646 C   0  0  0  0  0  0  0  0  0  0  0  0
   31.6484   45.0745   38.5364 C   0  0  0  0  0  0  0  0  0  0  0  0
   31.6137   44.4873   37.1244 C   0  0  0  0  0  0  0  0  0  0  0  0
   32.3210   43.2186   37.0901 N   0  0  0  0  0  0  0  0  0  0  0  0
  1  2  1  0  0  0  0
  2  3  1  0  0  0  0
  3  4  1  0  0  0  0
  4  5  1  0  0  0  0
  5  6  1  0  0  0  0
  6  7  1  0  0  0  0
  7  8  1  0  0  0  0
  8  9  1  0  0  0  0
  9 10  1  0  0  0  0
 10 11  1  0  0  0  0
 11 12  1  0  0  0  0
 12 13  1  0  0  0  0
 13 14  1  0  0  0  0
M  END
>  <CHROM.1>
-177.46769823,62.49920527,174.32990035,159.08238198,67.94750556,73.40542795
-179.74782365,77.03503636,151.45001780,-62.25075270,176.33272457,29.13394679
48.29693029,38.54791949,2.64728026,0.64626739,-0.38071739

>  <Name>
ligand

>  <RI>
0

>  <Rbt.Current_Directory>
/home/itssahil/PROJECTS/Mol_Feturizer/New_Systems/rnas/4P5J

>  <Rbt.Executable>
rbdock ($Id: //depot/dev/client3/rdock/2013.1/src/exe/rbdock.cxx#4 $)

>  <Rbt.Library>
libRbt.so (2013.1, Build901 2013/11/27)

>  <Rbt.Parameter_File>
/export/apps/rDock/src/rDock_2013.1_src/data/scripts/dock_solv.prm

>  <Rbt.Receptor>
prm/pocket_docking_3.prm

>  <SCORE>
-0.721612

>  <SCORE.INTER>
7.43334

>  <SCORE.INTER.CONST>
1

>  <SCORE.INTER.POLAR>
0

>  <SCORE.INTER.ROT>
11

>  <SCORE.INTER.SOLV>
4.6589

>  <SCORE.INTER.VDW>
-7.53074

>  <SCORE.INTER.norm>
0.530953

>  <SCORE.INTRA>
-8.15495

>  <SCORE.INTRA.DIHEDRAL>
-15.3172

>  <SCORE.INTRA.DIHEDRAL.0>
17.5233

>  <SCORE.INTRA.POLAR>
0

>  <SCORE.INTRA.POLAR.0>
0

>  <SCORE.INTRA.REPUL>
0

>  <SCORE.INTRA.REPUL.0>
0

>  <SCORE.INTRA.SOLV>
-1.28607

>  <SCORE.INTRA.SOLV.lig_0>
-46.1043

>  <SCORE.INTRA.VDW>
0.146662

>  <SCORE.INTRA.VDW.0>
-0.545445

>  <SCORE.INTRA.norm>
-0.582497

>  <SCORE.RESTR>
0

>  <SCORE.RESTR.CAVITY>
0

>  <SCORE.RESTR.norm>
0

>  <SCORE.SYSTEM>
0

>  <SCORE.SYSTEM.CONST>
0

>  <SCORE.SYSTEM.DIHEDRAL>
0

>  <SCORE.SYSTEM.SOLV>
0

>  <SCORE.SYSTEM.norm>
0

>  <SCORE.heavy>
14

>  <SCORE.norm>
-0.0515437

>  <RMSD>
2.269

$$$$
ligand
 OpenBabel11021811513D
libRbt.so/2013.1/901 2013/11/27
 14 13  0  0  0  0  0  0  0  0999 V2000
   33.1128   42.8515   37.8083 N   0  0  0  0  0  0  0  0  0  0  0  0
   32.1919   43.5864   36.9564 C   0  0  0  0  0  0  0  0  0  0  0  0
   31.3047   44.4984   37.7972 C   0  0  0  0  0  0  0  0  0  0  0  0
   32.1313   45.5556   38.5205 C   0  0  0  0  0  0  0  0  0  0  0  0
   31.3366   46.3703   39.4348 N   0  0  0  0  0  0  0  0  0  0  0  0
   30.5989   47.5240   38.9485 C   0  0  0  0  0  0  0  0  0  0  0  0
   29.5095   47.9793   39.9132 C   0  0  0  0  0  0  0  0  0  0  0  0
   28.7750   49.1858   39.3393 C   0  0  0  0  0  0  0  0  0  0  0  0
   27.6606   49.6117   40.2889 C   0  0  0  0  0  0  0  0  0  0  0  0
   26.9557   50.7885   39.8107 N   0  0  0  0  0  0  0  0  0  0  0  0
   26.2229   51.6184   40.7577 C   0  0  0  0  0  0  0  0  0  0  0  0
   25.5918   52.8711   40.1537 C   0  0  0  0  0  0  0  0  0  0  0  0
   24.9175   53.7128   41.2385 C   0  0  0  0  0  0  0  0  0  0  0  0
   24.3504   54.9186   40.6592 N   0  0  0  0  0  0  0  0  0  0  0  0
  1  2  1  0  0  0  0
  2  3  1  0  0  0  0
  3  4  1  0  0  0  0
  4  5  1  0  0  0  0
  5  6  1  0  0  0  0
  6  7  1  0  0  0  0
  7  8  1  0  0  0  0
  8  9  1  0  0  0  0
  9 10  1  0  0  0  0
 10 11  1  0  0  0  0
 11 12  1  0  0  0  0
 12 13  1  0  0  0  0
 13 14  1  0  0  0  0
M  END
>  <CHROM.1>
63.04192688,-174.57433780,-84.08210854,161.98751761,-179.78864397,178.36428891
178.05431948,-157.72735443,176.55007139,-176.72013781,178.53958110,28.90424724
48.64798200,39.40191107,-0.69208829,-0.69126398,0.94908428

>  <Name>
ligand

>  <RI>
0

>  <Rbt.Current_Directory>
/home/itssahil/PROJECTS/Mol_Feturizer/New_Systems/rnas/4P5J

>  <Rbt.Executable>
rbdock ($Id: //depot/dev/client3/rdock/2013.1/src/exe/rbdock.cxx#4 $)

>  <Rbt.Library>
libRbt.so (2013.1, Build901 2013/11/27)

>  <Rbt.Parameter_File>
/export/apps/rDock/src/rDock_2013.1_src/data/scripts/dock_solv.prm

>  <Rbt.Receptor>
prm/pocket_docking_3.prm

>  <SCORE>
-0.669293

>  <SCORE.INTER>
8.85613

>  <SCORE.INTER.CONST>
1

>  <SCORE.INTER.POLAR>
0

>  <SCORE.INTER.ROT>
11

>  <SCORE.INTER.SOLV>
3.37768

>  <SCORE.INTER.VDW>
-6.15514

>  <SCORE.INTER.norm>
0.632581

>  <SCORE.INTRA>
-9.52542

>  <SCORE.INTRA.DIHEDRAL>
-16.2651

>  <SCORE.INTRA.DIHEDRAL.0>
17.5233

>  <SCORE.INTRA.POLAR>
0

>  <SCORE.INTRA.POLAR.0>
0

>  <SCORE.INTRA.REPUL>
0

>  <SCORE.INTRA.REPUL.0>
0

>  <SCORE.INTRA.SOLV>
-1.88195

>  <SCORE.INTRA.SOLV.lig_0>
-46.1043

>  <SCORE.INTRA.VDW>
-0.451897

>  <SCORE.INTRA.VDW.0>
-0.545445

>  <SCORE.INTRA.norm>
-0.680387

>  <SCORE.RESTR>
0

>  <SCORE.RESTR.CAVITY>
0

>  <SCORE.RESTR.norm>
0

>  <SCORE.SYSTEM>
0

>  <SCORE.SYSTEM.CONST>
0

>  <SCORE.SYSTEM.DIHEDRAL>
0

>  <SCORE.SYSTEM.SOLV>
0

>  <SCORE.SYSTEM.norm>
0

>  <SCORE.heavy>
14

>  <SCORE.norm>
-0.0478067

>  <RMSD>
2.283

$$$$
ligand
 OpenBabel11021811513D
libRbt.so/2013.1/901 2013/11/27
 14 13  0  0  0  0  0  0  0  0999 V2000
   24.9710   51.1173   40.4489 N   0  0  0  0  0  0  0  0  0  0  0  0
   24.9990   49.8999   39.6545 C   0  0  0  0  0  0  0  0  0  0  0  0
   26.2622   49.8524   38.8013 C   0  0  0  0  0  0  0  0  0  0  0  0
   26.2896   50.9970   37.7947 C   0  0  0  0  0  0  0  0  0  0  0  0
   27.4805   50.9823   36.9504 N   0  0  0  0  0  0  0  0  0  0  0  0
   28.7360   51.5345   37.4308 C   0  0  0  0  0  0  0  0  0  0  0  0
   29.6572   50.4768   38.0287 C   0  0  0  0  0  0  0  0  0  0  0  0
   30.0504   49.4629   36.9602 C   0  0  0  0  0  0  0  0  0  0  0  0
   31.0036   48.4310   37.5532 C   0  0  0  0  0  0  0  0  0  0  0  0
   30.3729   47.6412   38.5967 N   0  0  0  0  0  0  0  0  0  0  0  0
   31.1787   46.7113   39.3768 C   0  0  0  0  0  0  0  0  0  0  0  0
   31.3142   45.3175   38.7675 C   0  0  0  0  0  0  0  0  0  0  0  0
   32.1252   45.3710   37.4716 C   0  0  0  0  0  0  0  0  0  0  0  0
   32.3055   44.0325   36.9358 N   0  0  0  0  0  0  0  0  0  0  0  0
  1  2  1  0  0  0  0
  2  3  1  0  0  0  0
  3  4  1  0  0  0  0
  4  5  1  0  0  0  0
  5  6  1  0  0  0  0
  6  7  1  0  0  0  0
  7  8  1  0  0  0  0
  8  9  1  0  0  0  0
  9 10  1  0  0  0  0
 10 11  1  0  0  0  0
 11 12  1  0  0  0  0
 12 13  1  0  0  0  0
 13 14  1  0  0  0  0
M  END
>  <CHROM.1>
-63.29496673,-179.60129768,-81.60372518,95.44583644,62.91420946,178.36053054
64.07153364,-173.11110497,-87.50970923,67.13511482,177.14735051,29.05340470
48.70206771,38.19791817,2.56288874,0.51927016,-0.47623370

>  <Name>
ligand

>  <RI>
0

>  <Rbt.Current_Directory>
/home/itssahil/PROJECTS/Mol_Feturizer/New_Systems/rnas/4P5J

>  <Rbt.Executable>
rbdock ($Id: //depot/dev/client3/rdock/2013.1/src/exe/rbdock.cxx#4 $)

>  <Rbt.Library>
libRbt.so (2013.1, Build901 2013/11/27)

>  <Rbt.Parameter_File>
/export/apps/rDock/src/rDock_2013.1_src/data/scripts/dock_solv.prm

>  <Rbt.Receptor>
prm/pocket_docking_3.prm

>  <SCORE>
-0.702861

>  <SCORE.INTER>
7.54668

>  <SCORE.INTER.CONST>
1

>  <SCORE.INTER.POLAR>
0

>  <SCORE.INTER.ROT>
11

>  <SCORE.INTER.SOLV>
4.75613

>  <SCORE.INTER.VDW>
-7.48759

>  <SCORE.INTER.norm>
0.539049

>  <SCORE.INTRA>
-8.24962

>  <SCORE.INTRA.DIHEDRAL>
-15.4808

>  <SCORE.INTRA.DIHEDRAL.0>
17.5233

>  <SCORE.INTRA.POLAR>
0

>  <SCORE.INTRA.POLAR.0>
0

>  <SCORE.INTRA.REPUL>
0

>  <SCORE.INTRA.REPUL.0>
0

>  <SCORE.INTRA.SOLV>
-0.750919

>  <SCORE.INTRA.SOLV.lig_0>
-46.1043

>  <SCORE.INTRA.VDW>
-0.133777

>  <SCORE.INTRA.VDW.0>
-0.545445

>  <SCORE.INTRA.norm>
-0.589259

>  <SCORE.RESTR>
7.48646e-05

>  <SCORE.RESTR.CAVITY>
7.48646e-05

>  <SCORE.RESTR.norm>
5.34747e-06

>  <SCORE.SYSTEM>
0

>  <SCORE.SYSTEM.CONST>
0

>  <SCORE.SYSTEM.DIHEDRAL>
0

>  <SCORE.SYSTEM.SOLV>
0

>  <SCORE.SYSTEM.norm>
0

>  <SCORE.heavy>
14

>  <SCORE.norm>
-0.0502044

>  <RMSD>
2.289

$$$$
ligand
 OpenBabel11021811513D
libRbt.so/2013.1/901 2013/11/27
 14 13  0  0  0  0  0  0  0  0999 V2000
   32.3400   43.1169   37.6456 N   0  0  0  0  0  0  0  0  0  0  0  0
   32.5326   44.5190   37.3125 C   0  0  0  0  0  0  0  0  0  0  0  0
   31.5599   45.3898   38.1008 C   0  0  0  0  0  0  0  0  0  0  0  0
   31.7665   46.8675   37.7877 C   0  0  0  0  0  0  0  0  0  0  0  0
   31.5379   47.1873   36.3818 N   0  0  0  0  0  0  0  0  0  0  0  0
   31.6374   48.5576   35.9082 C   0  0  0  0  0  0  0  0  0  0  0  0
   30.2965   49.2835   35.9116 C   0  0  0  0  0  0  0  0  0  0  0  0
   29.7951   49.4467   37.3421 C   0  0  0  0  0  0  0  0  0  0  0  0
   28.4678   50.1973   37.3417 C   0  0  0  0  0  0  0  0  0  0  0  0
   28.0120   50.5013   38.6872 N   0  0  0  0  0  0  0  0  0  0  0  0
   27.1765   49.5399   39.3944 C   0  0  0  0  0  0  0  0  0  0  0  0
   25.6826   49.8563   39.3749 C   0  0  0  0  0  0  0  0  0  0  0  0
   25.3969   51.1600   40.1222 C   0  0  0  0  0  0  0  0  0  0  0  0
   23.9721   51.4448   40.1094 N   0  0  0  0  0  0  0  0  0  0  0  0
  1  2  1  0  0  0  0
  2  3  1  0  0  0  0
  3  4  1  0  0  0  0
  4  5  1  0  0  0  0
  5  6  1  0  0  0  0
  6  7  1  0  0  0  0
  7  8  1  0  0  0  0
  8  9  1  0  0  0  0
  9 10  1  0  0  0  0
 10 11  1  0  0  0  0
 11 12  1  0  0  0  0
 12 13  1  0  0  0  0
 13 14  1  0  0  0  0
M  END
>  <CHROM.1>
178.77688869,61.25186280,177.58499561,-93.03978932,65.42222911,178.88803959
-174.09840136,-89.25157952,-99.67557929,-64.51458176,-179.42262770,29.29825727
48.36210886,37.95847722,0.43510626,-0.62205850,2.65218642

>  <Name>
ligand

>  <RI>
0

>  <Rbt.Current_Directory>
/home/itssahil/PROJECTS/Mol_Feturizer/New_Systems/rnas/4P5J

>  <Rbt.Executable>
rbdock ($Id: //depot/dev/client3/rdock/2013.1/src/exe/rbdock.cxx#4 $)

>  <Rbt.Library>
libRbt.so (2013.1, Build901 2013/11/27)

>  <Rbt.Parameter_File>
/export/apps/rDock/src/rDock_2013.1_src/data/scripts/dock_solv.prm

>  <Rbt.Receptor>
prm/pocket_docking_3.prm

>  <SCORE>
-1.59629

>  <SCORE.INTER>
7.00794

>  <SCORE.INTER.CONST>
1

>  <SCORE.INTER.POLAR>
0

>  <SCORE.INTER.ROT>
11

>  <SCORE.INTER.SOLV>
4.40585

>  <SCORE.INTER.VDW>
-7.72999

>  <SCORE.INTER.norm>
0.500567

>  <SCORE.INTRA>
-8.60424

>  <SCORE.INTRA.DIHEDRAL>
-15.0198

>  <SCORE.INTRA.DIHEDRAL.0>
17.5233

>  <SCORE.INTRA.POLAR>
0

>  <SCORE.INTRA.POLAR.0>
0

>  <SCORE.INTRA.REPUL>
0

>  <SCORE.INTRA.REPUL.0>
0

>  <SCORE.INTRA.SOLV>
-1.63502

>  <SCORE.INTRA.SOLV.lig_0>
-46.1043

>  <SCORE.INTRA.VDW>
-0.276836

>  <SCORE.INTRA.VDW.0>
-0.545445

>  <SCORE.INTRA.norm>
-0.614588

>  <SCORE.RESTR>
0

>  <SCORE.RESTR.CAVITY>
0

>  <SCORE.RESTR.norm>
0

>  <SCORE.SYSTEM>
0

>  <SCORE.SYSTEM.CONST>
0

>  <SCORE.SYSTEM.DIHEDRAL>
0

>  <SCORE.SYSTEM.SOLV>
0

>  <SCORE.SYSTEM.norm>
0

>  <SCORE.heavy>
14

>  <SCORE.norm>
-0.114021

>  <RMSD>
2.292

$$$$
ligand
 OpenBabel11021811513D
libRbt.so/2013.1/901 2013/11/27
 14 13  0  0  0  0  0  0  0  0999 V2000
   25.2504   50.0818   41.9894 N   0  0  0  0  0  0  0  0  0  0  0  0
   26.3627   50.0563   41.0535 C   0  0  0  0  0  0  0  0  0  0  0  0
   26.2767   51.2396   40.0952 C   0  0  0  0  0  0  0  0  0  0  0  0
   27.4219   51.2171   39.0891 C   0  0  0  0  0  0  0  0  0  0  0  0
   27.3938   50.0423   38.2229 N   0  0  0  0  0  0  0  0  0  0  0  0
   28.4462   49.8165   37.2465 C   0  0  0  0  0  0  0  0  0  0  0  0
   29.7297   49.2824   37.8729 C   0  0  0  0  0  0  0  0  0  0  0  0
   30.7706   49.0232   36.7895 C   0  0  0  0  0  0  0  0  0  0  0  0
   32.0419   48.4634   37.4181 C   0  0  0  0  0  0  0  0  0  0  0  0
   31.8140   47.1809   38.0614 N   0  0  0  0  0  0  0  0  0  0  0  0
   31.8567   45.9623   37.2640 C   0  0  0  0  0  0  0  0  0  0  0  0
   31.7116   44.6700   38.0647 C   0  0  0  0  0  0  0  0  0  0  0  0
   31.8376   43.4507   37.1498 C   0  0  0  0  0  0  0  0  0  0  0  0
   31.7773   42.2273   37.9314 N   0  0  0  0  0  0  0  0  0  0  0  0
  1  2  1  0  0  0  0
  2  3  1  0  0  0  0
  3  4  1  0  0  0  0
  4  5  1  0  0  0  0
  5  6  1  0  0  0  0
  6  7  1  0  0  0  0
  7  8  1  0  0  0  0
  8  9  1  0  0  0  0
  9 10  1  0  0  0  0
 10 11  1  0  0  0  0
 11 12  1  0  0  0  0
 12 13  1  0  0  0  0
 13 14  1  0  0  0  0
M  END
>  <CHROM.1>
-179.00306370,62.93678659,-176.88034360,77.19314871,178.02800097,-178.88327318
62.76811085,84.39489584,175.43576810,-177.22538648,176.64414051,29.47810058
48.05127123,38.44606998,2.52596848,0.68720805,-0.33661474

>  <Name>
ligand

>  <RI>
0

>  <Rbt.Current_Directory>
/home/itssahil/PROJECTS/Mol_Feturizer/New_Systems/rnas/4P5J

>  <Rbt.Executable>
rbdock ($Id: //depot/dev/client3/rdock/2013.1/src/exe/rbdock.cxx#4 $)

>  <Rbt.Library>
libRbt.so (2013.1, Build901 2013/11/27)

>  <Rbt.Parameter_File>
/export/apps/rDock/src/rDock_2013.1_src/data/scripts/dock_solv.prm

>  <Rbt.Receptor>
prm/pocket_docking_3.prm

>  <SCORE>
-0.240183

>  <SCORE.INTER>
9.34918

>  <SCORE.INTER.CONST>
1

>  <SCORE.INTER.POLAR>
0

>  <SCORE.INTER.ROT>
11

>  <SCORE.INTER.SOLV>
5.99632

>  <SCORE.INTER.VDW>
-6.69932

>  <SCORE.INTER.norm>
0.667799

>  <SCORE.INTRA>
-9.58937

>  <SCORE.INTRA.DIHEDRAL>
-16.6879

>  <SCORE.INTRA.DIHEDRAL.0>
17.5233

>  <SCORE.INTRA.POLAR>
0

>  <SCORE.INTRA.POLAR.0>
0

>  <SCORE.INTRA.REPUL>
0

>  <SCORE.INTRA.REPUL.0>
0

>  <SCORE.INTRA.SOLV>
-1.91804

>  <SCORE.INTRA.SOLV.lig_0>
-46.1043

>  <SCORE.INTRA.VDW>
-0.286395

>  <SCORE.INTRA.VDW.0>
-0.545445

>  <SCORE.INTRA.norm>
-0.684955

>  <SCORE.RESTR>
0

>  <SCORE.RESTR.CAVITY>
0

>  <SCORE.RESTR.norm>
0

>  <SCORE.SYSTEM>
0

>  <SCORE.SYSTEM.CONST>
0

>  <SCORE.SYSTEM.DIHEDRAL>
0

>  <SCORE.SYSTEM.SOLV>
0

>  <SCORE.SYSTEM.norm>
0

>  <SCORE.heavy>
14

>  <SCORE.norm>
-0.0171559

>  <RMSD>
2.301

$$$$
ligand
 OpenBabel11021811513D
libRbt.so/2013.1/901 2013/11/27
 14 13  0  0  0  0  0  0  0  0999 V2000
   24.2658   53.4488   42.9531 N   0  0  0  0  0  0  0  0  0  0  0  0
   24.7614   52.9515   41.6799 C   0  0  0  0  0  0  0  0  0  0  0  0
   25.7018   51.7714   41.9013 C   0  0  0  0  0  0  0  0  0  0  0  0
   26.2370   51.2385   40.5771 C   0  0  0  0  0  0  0  0  0  0  0  0
   27.1568   50.1175   40.7462 N   0  0  0  0  0  0  0  0  0  0  0  0
   28.1109   49.7783   39.7039 C   0  0  0  0  0  0  0  0  0  0  0  0
   28.9457   48.5484   40.0434 C   0  0  0  0  0  0  0  0  0  0  0  0
   29.9551   48.2799   38.9329 C   0  0  0  0  0  0  0  0  0  0  0  0
   30.7083   46.9858   39.2213 C   0  0  0  0  0  0  0  0  0  0  0  0
   31.6476   46.6535   38.1641 N   0  0  0  0  0  0  0  0  0  0  0  0
   31.6742   45.2984   37.6298 C   0  0  0  0  0  0  0  0  0  0  0  0
   32.2699   44.2530   38.5703 C   0  0  0  0  0  0  0  0  0  0  0  0
   32.2838   42.8749   37.9067 C   0  0  0  0  0  0  0  0  0  0  0  0
   32.9063   41.8998   38.7859 N   0  0  0  0  0  0  0  0  0  0  0  0
  1  2  1  0  0  0  0
  2  3  1  0  0  0  0
  3  4  1  0  0  0  0
  4  5  1  0  0  0  0
  5  6  1  0  0  0  0
  6  7  1  0  0  0  0
  7  8  1  0  0  0  0
  8  9  1  0  0  0  0
  9 10  1  0  0  0  0
 10 11  1  0  0  0  0
 11 12  1  0  0  0  0
 12 13  1  0  0  0  0
 13 14  1  0  0  0  0
M  END
>  <CHROM.1>
-179.78069688,179.22807143,-158.39040066,-177.82787121,-178.02054434,-175.37947647
177.67764577,-132.41617690,-71.97438833,-178.62311876,177.46934261,29.04463220
48.15003727,39.77241609,2.60418525,0.78904646,-0.47972795

>  <Name>
ligand

>  <RI>
0

>  <Rbt.Current_Directory>
/home/itssahil/PROJECTS/Mol_Feturizer/New_Systems/rnas/4P5J

>  <Rbt.Executable>
rbdock ($Id: //depot/dev/client3/rdock/2013.1/src/exe/rbdock.cxx#4 $)

>  <Rbt.Library>
libRbt.so (2013.1, Build901 2013/11/27)

>  <Rbt.Parameter_File>
/export/apps/rDock/src/rDock_2013.1_src/data/scripts/dock_solv.prm

>  <Rbt.Receptor>
prm/pocket_docking_3.prm

>  <SCORE>
-0.187458

>  <SCORE.INTER>
9.56361

>  <SCORE.INTER.CONST>
1

>  <SCORE.INTER.POLAR>
0

>  <SCORE.INTER.ROT>
11

>  <SCORE.INTER.SOLV>
4.02058

>  <SCORE.INTER.VDW>
-5.89779

>  <SCORE.INTER.norm>
0.683115

>  <SCORE.INTRA>
-9.75125

>  <SCORE.INTRA.DIHEDRAL>
-15.8248

>  <SCORE.INTRA.DIHEDRAL.0>
17.5233

>  <SCORE.INTRA.POLAR>
0

>  <SCORE.INTRA.POLAR.0>
0

>  <SCORE.INTRA.REPUL>
0

>  <SCORE.INTRA.REPUL.0>
0

>  <SCORE.INTRA.SOLV>
-2.73005

>  <SCORE.INTRA.SOLV.lig_0>
-46.1043

>  <SCORE.INTRA.VDW>
-0.473843

>  <SCORE.INTRA.VDW.0>
-0.545445

>  <SCORE.INTRA.norm>
-0.696518

>  <SCORE.RESTR>
0.000184992

>  <SCORE.RESTR.CAVITY>
0.000184992

>  <SCORE.RESTR.norm>
1.32137e-05

>  <SCORE.SYSTEM>
0

>  <SCORE.SYSTEM.CONST>
0

>  <SCORE.SYSTEM.DIHEDRAL>
0

>  <SCORE.SYSTEM.SOLV>
0

>  <SCORE.SYSTEM.norm>
0

>  <SCORE.heavy>
14

>  <SCORE.norm>
-0.0133899

>  <RMSD>
2.328

$$$$
ligand
 OpenBabel11021811513D
libRbt.so/2013.1/901 2013/11/27
 14 13  0  0  0  0  0  0  0  0999 V2000
   32.3367   43.3083   38.8214 N   0  0  0  0  0  0  0  0  0  0  0  0
   32.0044   44.7213   38.9046 C   0  0  0  0  0  0  0  0  0  0  0  0
   31.9063   45.3261   37.5081 C   0  0  0  0  0  0  0  0  0  0  0  0
   31.6670   46.8303   37.5755 C   0  0  0  0  0  0  0  0  0  0  0  0
   31.5951   47.4535   36.2574 N   0  0  0  0  0  0  0  0  0  0  0  0
   31.5931   48.9003   36.1211 C   0  0  0  0  0  0  0  0  0  0  0  0
   30.1871   49.4892   36.0852 C   0  0  0  0  0  0  0  0  0  0  0  0
   29.5500   49.4038   37.4677 C   0  0  0  0  0  0  0  0  0  0  0  0
   28.1323   49.9628   37.4185 C   0  0  0  0  0  0  0  0  0  0  0  0
   27.4578   49.8546   38.7006 N   0  0  0  0  0  0  0  0  0  0  0  0
   26.0206   50.0817   38.7751 C   0  0  0  0  0  0  0  0  0  0  0  0
   25.5434   50.7315   40.0721 C   0  0  0  0  0  0  0  0  0  0  0  0
   24.0290   50.9453   40.0437 C   0  0  0  0  0  0  0  0  0  0  0  0
   23.5876   51.5787   41.2746 N   0  0  0  0  0  0  0  0  0  0  0  0
  1  2  1  0  0  0  0
  2  3  1  0  0  0  0
  3  4  1  0  0  0  0
  4  5  1  0  0  0  0
  5  6  1  0  0  0  0
  6  7  1  0  0  0  0
  7  8  1  0  0  0  0
  8  9  1  0  0  0  0
  9 10  1  0  0  0  0
 10 11  1  0  0  0  0
 11 12  1  0  0  0  0
 12 13  1  0  0  0  0
 13 14  1  0  0  0  0
M  END
>  <CHROM.1>
-175.53225168,178.77613715,-169.80571810,-92.44202782,71.62327379,-178.63388796
177.62441258,-167.52360165,-146.20888997,179.17626683,-179.29555132,28.97226414
48.47069759,38.21588934,0.30549080,-0.61624831,2.48755307

>  <Name>
ligand

>  <RI>
0

>  <Rbt.Current_Directory>
/home/itssahil/PROJECTS/Mol_Feturizer/New_Systems/rnas/4P5J

>  <Rbt.Executable>
rbdock ($Id: //depot/dev/client3/rdock/2013.1/src/exe/rbdock.cxx#4 $)

>  <Rbt.Library>
libRbt.so (2013.1, Build901 2013/11/27)

>  <Rbt.Parameter_File>
/export/apps/rDock/src/rDock_2013.1_src/data/scripts/dock_solv.prm

>  <Rbt.Receptor>
prm/pocket_docking_3.prm

>  <SCORE>
-1.28884

>  <SCORE.INTER>
8.17721

>  <SCORE.INTER.CONST>
1

>  <SCORE.INTER.POLAR>
0

>  <SCORE.INTER.ROT>
11

>  <SCORE.INTER.SOLV>
6.38341

>  <SCORE.INTER.VDW>
-7.60967

>  <SCORE.INTER.norm>
0.584086

>  <SCORE.INTRA>
-9.46604

>  <SCORE.INTRA.DIHEDRAL>
-15.3115

>  <SCORE.INTRA.DIHEDRAL.0>
17.5233

>  <SCORE.INTRA.POLAR>
0

>  <SCORE.INTRA.POLAR.0>
0

>  <SCORE.INTRA.REPUL>
0

>  <SCORE.INTRA.REPUL.0>
0

>  <SCORE.INTRA.SOLV>
-2.3673

>  <SCORE.INTRA.SOLV.lig_0>
-46.1043

>  <SCORE.INTRA.VDW>
-0.626656

>  <SCORE.INTRA.VDW.0>
-0.545445

>  <SCORE.INTRA.norm>
-0.676146

>  <SCORE.RESTR>
0

>  <SCORE.RESTR.CAVITY>
0

>  <SCORE.RESTR.norm>
0

>  <SCORE.SYSTEM>
0

>  <SCORE.SYSTEM.CONST>
0

>  <SCORE.SYSTEM.DIHEDRAL>
0

>  <SCORE.SYSTEM.SOLV>
0

>  <SCORE.SYSTEM.norm>
0

>  <SCORE.heavy>
14

>  <SCORE.norm>
-0.0920597

>  <RMSD>
2.331

$$$$
ligand
 OpenBabel11021811513D
libRbt.so/2013.1/901 2013/11/27
 14 13  0  0  0  0  0  0  0  0999 V2000
   33.2821   45.1611   38.3458 N   0  0  0  0  0  0  0  0  0  0  0  0
   31.8528   44.9430   38.1931 C   0  0  0  0  0  0  0  0  0  0  0  0
   31.0720   46.1145   38.7794 C   0  0  0  0  0  0  0  0  0  0  0  0
   31.2867   47.3831   37.9615 C   0  0  0  0  0  0  0  0  0  0  0  0
   30.4975   48.5116   38.4462 N   0  0  0  0  0  0  0  0  0  0  0  0
   29.7314   49.3310   37.5223 C   0  0  0  0  0  0  0  0  0  0  0  0
   28.7627   50.2722   38.2297 C   0  0  0  0  0  0  0  0  0  0  0  0
   27.6959   49.4677   38.9641 C   0  0  0  0  0  0  0  0  0  0  0  0
   26.7429   50.4130   39.6875 C   0  0  0  0  0  0  0  0  0  0  0  0
   26.0059   51.2578   38.7636 N   0  0  0  0  0  0  0  0  0  0  0  0
   25.3057   52.4311   39.2692 C   0  0  0  0  0  0  0  0  0  0  0  0
   24.0350   52.1251   40.0592 C   0  0  0  0  0  0  0  0  0  0  0  0
   23.3997   53.4149   40.5811 C   0  0  0  0  0  0  0  0  0  0  0  0
   24.2403   54.0103   41.6059 N   0  0  0  0  0  0  0  0  0  0  0  0
  1  2  1  0  0  0  0
  2  3  1  0  0  0  0
  3  4  1  0  0  0  0
  4  5  1  0  0  0  0
  5  6  1  0  0  0  0
  6  7  1  0  0  0  0
  7  8  1  0  0  0  0
  8  9  1  0  0  0  0
  9 10  1  0  0  0  0
 10 11  1  0  0  0  0
 11 12  1  0  0  0  0
 12 13  1  0  0  0  0
 13 14  1  0  0  0  0
M  END
>  <CHROM.1>
67.65970600,176.80455870,-132.72322657,168.46128043,-64.87445874,179.11972464
63.76387491,-165.00462961,-73.18884576,178.26092187,-68.56821573,28.13632206
49.63114372,39.02908224,0.39803051,-0.65978148,2.47176236

>  <Name>
ligand

>  <RI>
0

>  <Rbt.Current_Directory>
/home/itssahil/PROJECTS/Mol_Feturizer/New_Systems/rnas/4P5J

>  <Rbt.Executable>
rbdock ($Id: //depot/dev/client3/rdock/2013.1/src/exe/rbdock.cxx#4 $)

>  <Rbt.Library>
libRbt.so (2013.1, Build901 2013/11/27)

>  <Rbt.Parameter_File>
/export/apps/rDock/src/rDock_2013.1_src/data/scripts/dock_solv.prm

>  <Rbt.Receptor>
prm/pocket_docking_3.prm

>  <SCORE>
1.06104

>  <SCORE.INTER>
9.13286

>  <SCORE.INTER.CONST>
1

>  <SCORE.INTER.POLAR>
0

>  <SCORE.INTER.ROT>
11

>  <SCORE.INTER.SOLV>
2.65786

>  <SCORE.INTER.VDW>
-5.73071

>  <SCORE.INTER.norm>
0.652347

>  <SCORE.INTRA>
-8.07209

>  <SCORE.INTRA.DIHEDRAL>
-15.3441

>  <SCORE.INTRA.DIHEDRAL.0>
17.5233

>  <SCORE.INTRA.POLAR>
0

>  <SCORE.INTRA.POLAR.0>
0

>  <SCORE.INTRA.REPUL>
0

>  <SCORE.INTRA.REPUL.0>
0

>  <SCORE.INTRA.SOLV>
-0.461933

>  <SCORE.INTRA.SOLV.lig_0>
-46.1043

>  <SCORE.INTRA.VDW>
-0.169095

>  <SCORE.INTRA.VDW.0>
-0.545445

>  <SCORE.INTRA.norm>
-0.576578

>  <SCORE.RESTR>
0.000267193

>  <SCORE.RESTR.CAVITY>
0.000267193

>  <SCORE.RESTR.norm>
1.90852e-05

>  <SCORE.SYSTEM>
0

>  <SCORE.SYSTEM.CONST>
0

>  <SCORE.SYSTEM.DIHEDRAL>
0

>  <SCORE.SYSTEM.SOLV>
0

>  <SCORE.SYSTEM.norm>
0

>  <SCORE.heavy>
14

>  <SCORE.norm>
0.0757884

>  <RMSD>
2.336

$$$$
ligand
 OpenBabel11021811513D
libRbt.so/2013.1/901 2013/11/27
 14 13  0  0  0  0  0  0  0  0999 V2000
   33.9606   43.9921   37.1151 N   0  0  0  0  0  0  0  0  0  0  0  0
   33.3673   44.6210   38.2841 C   0  0  0  0  0  0  0  0  0  0  0  0
   31.8833   44.8828   38.0497 C   0  0  0  0  0  0  0  0  0  0  0  0
   31.2274   45.4798   39.2897 C   0  0  0  0  0  0  0  0  0  0  0  0
   31.7717   46.7865   39.6466 N   0  0  0  0  0  0  0  0  0  0  0  0
   31.5305   47.9450   38.8030 C   0  0  0  0  0  0  0  0  0  0  0  0
   30.0747   48.3979   38.8221 C   0  0  0  0  0  0  0  0  0  0  0  0
   29.8603   49.5086   37.7999 C   0  0  0  0  0  0  0  0  0  0  0  0
   28.3690   49.7849   37.6426 C   0  0  0  0  0  0  0  0  0  0  0  0
   27.7576   50.2087   38.8905 N   0  0  0  0  0  0  0  0  0  0  0  0
   26.4425   49.6974   39.2535 C   0  0  0  0  0  0  0  0  0  0  0  0
   25.2843   50.2886   38.4526 C   0  0  0  0  0  0  0  0  0  0  0  0
   25.1490   51.7877   38.7251 C   0  0  0  0  0  0  0  0  0  0  0  0
   24.1094   52.3592   37.8862 N   0  0  0  0  0  0  0  0  0  0  0  0
  1  2  1  0  0  0  0
  2  3  1  0  0  0  0
  3  4  1  0  0  0  0
  4  5  1  0  0  0  0
  5  6  1  0  0  0  0
  6  7  1  0  0  0  0
  7  8  1  0  0  0  0
  8  9  1  0  0  0  0
  9 10  1  0  0  0  0
 10 11  1  0  0  0  0
 11 12  1  0  0  0  0
 12 13  1  0  0  0  0
 13 14  1  0  0  0  0
M  END
>  <CHROM.1>
177.21965007,63.22119121,68.78160106,68.94936366,-173.52789395,169.91315435
60.34443282,-138.96838667,-73.57156269,-64.39397330,175.84409919,29.34195205
48.26712102,38.47579825,-0.67384558,0.20558125,-0.22310059

>  <Name>
ligand

>  <RI>
0

>  <Rbt.Current_Directory>
/home/itssahil/PROJECTS/Mol_Feturizer/New_Systems/rnas/4P5J

>  <Rbt.Executable>
rbdock ($Id: //depot/dev/client3/rdock/2013.1/src/exe/rbdock.cxx#4 $)

>  <Rbt.Library>
libRbt.so (2013.1, Build901 2013/11/27)

>  <Rbt.Parameter_File>
/export/apps/rDock/src/rDock_2013.1_src/data/scripts/dock_solv.prm

>  <Rbt.Receptor>
prm/pocket_docking_4.prm

>  <SCORE>
-0.644871

>  <SCORE.INTER>
7.67283

>  <SCORE.INTER.CONST>
1

>  <SCORE.INTER.POLAR>
0

>  <SCORE.INTER.ROT>
11

>  <SCORE.INTER.SOLV>
3.66763

>  <SCORE.INTER.VDW>
-7.04066

>  <SCORE.INTER.norm>
0.548059

>  <SCORE.INTRA>
-8.3177

>  <SCORE.INTRA.DIHEDRAL>
-15.5429

>  <SCORE.INTRA.DIHEDRAL.0>
17.5233

>  <SCORE.INTRA.POLAR>
0

>  <SCORE.INTRA.POLAR.0>
0

>  <SCORE.INTRA.REPUL>
0

>  <SCORE.INTRA.REPUL.0>
0

>  <SCORE.INTRA.SOLV>
-1.59466

>  <SCORE.INTRA.SOLV.lig_0>
-46.1043

>  <SCORE.INTRA.VDW>
0.251094

>  <SCORE.INTRA.VDW.0>
-0.545445

>  <SCORE.INTRA.norm>
-0.594121

>  <SCORE.RESTR>
0

>  <SCORE.RESTR.CAVITY>
0

>  <SCORE.RESTR.norm>
0

>  <SCORE.SYSTEM>
0

>  <SCORE.SYSTEM.CONST>
0

>  <SCORE.SYSTEM.DIHEDRAL>
0

>  <SCORE.SYSTEM.SOLV>
0

>  <SCORE.SYSTEM.norm>
0

>  <SCORE.heavy>
14

>  <SCORE.norm>
-0.0460622

>  <RMSD>
2.389

$$$$
ligand
 OpenBabel11021811513D
libRbt.so/2013.1/901 2013/11/27
 14 13  0  0  0  0  0  0  0  0999 V2000
   34.2989   43.9356   40.9495 N   0  0  0  0  0  0  0  0  0  0  0  0
   33.5657   44.8823   40.1247 C   0  0  0  0  0  0  0  0  0  0  0  0
   32.0636   44.6690   40.2805 C   0  0  0  0  0  0  0  0  0  0  0  0
   31.2773   45.6187   39.3838 C   0  0  0  0  0  0  0  0  0  0  0  0
   31.5059   47.0241   39.7063 N   0  0  0  0  0  0  0  0  0  0  0  0
   30.7675   48.0711   39.0205 C   0  0  0  0  0  0  0  0  0  0  0  0
   29.4216   48.3697   39.6719 C   0  0  0  0  0  0  0  0  0  0  0  0
   28.6373   49.3606   38.8190 C   0  0  0  0  0  0  0  0  0  0  0  0
   27.2526   49.5763   39.4198 C   0  0  0  0  0  0  0  0  0  0  0  0
   26.4191   50.4205   38.5812 N   0  0  0  0  0  0  0  0  0  0  0  0
   25.0658   50.7448   39.0124 C   0  0  0  0  0  0  0  0  0  0  0  0
   24.9701   51.9153   39.9887 C   0  0  0  0  0  0  0  0  0  0  0  0
   23.5130   52.1828   40.3700 C   0  0  0  0  0  0  0  0  0  0  0  0
   23.4318   53.3064   41.2877 N   0  0  0  0  0  0  0  0  0  0  0  0
  1  2  1  0  0  0  0
  2  3  1  0  0  0  0
  3  4  1  0  0  0  0
  4  5  1  0  0  0  0
  5  6  1  0  0  0  0
  6  7  1  0  0  0  0
  7  8  1  0  0  0  0
  8  9  1  0  0  0  0
  9 10  1  0  0  0  0
 10 11  1  0  0  0  0
 11 12  1  0  0  0  0
 12 13  1  0  0  0  0
 13 14  1  0  0  0  0
M  END
>  <CHROM.1>
-177.90934417,-61.75192738,-175.54992683,86.16227548,-173.75570515,175.82344546
-174.86983364,-179.24677231,83.24403446,179.51773369,-179.41295495,28.72778371
48.57691334,39.75813143,0.12667179,-0.67581035,1.75860583

>  <Name>
ligand

>  <RI>
0

>  <Rbt.Current_Directory>
/home/itssahil/PROJECTS/Mol_Feturizer/New_Systems/rnas/4P5J

>  <Rbt.Executable>
rbdock ($Id: //depot/dev/client3/rdock/2013.1/src/exe/rbdock.cxx#4 $)

>  <Rbt.Library>
libRbt.so (2013.1, Build901 2013/11/27)

>  <Rbt.Parameter_File>
/export/apps/rDock/src/rDock_2013.1_src/data/scripts/dock_solv.prm

>  <Rbt.Receptor>
prm/pocket_docking_3.prm

>  <SCORE>
-0.68092

>  <SCORE.INTER>
9.09122

>  <SCORE.INTER.CONST>
1

>  <SCORE.INTER.POLAR>
0

>  <SCORE.INTER.ROT>
11

>  <SCORE.INTER.SOLV>
3.21416

>  <SCORE.INTER.VDW>
-5.94391

>  <SCORE.INTER.norm>
0.649373

>  <SCORE.INTRA>
-9.77214

>  <SCORE.INTRA.DIHEDRAL>
-16.2858

>  <SCORE.INTRA.DIHEDRAL.0>
17.5233

>  <SCORE.INTRA.POLAR>
0

>  <SCORE.INTRA.POLAR.0>
0

>  <SCORE.INTRA.REPUL>
0

>  <SCORE.INTRA.REPUL.0>
0

>  <SCORE.INTRA.SOLV>
-2.34961

>  <SCORE.INTRA.SOLV.lig_0>
-46.1043

>  <SCORE.INTRA.VDW>
-0.454418

>  <SCORE.INTRA.VDW.0>
-0.545445

>  <SCORE.INTRA.norm>
-0.69801

>  <SCORE.RESTR>
0

>  <SCORE.RESTR.CAVITY>
0

>  <SCORE.RESTR.norm>
0

>  <SCORE.SYSTEM>
0

>  <SCORE.SYSTEM.CONST>
0

>  <SCORE.SYSTEM.DIHEDRAL>
0

>  <SCORE.SYSTEM.SOLV>
0

>  <SCORE.SYSTEM.norm>
0

>  <SCORE.heavy>
14

>  <SCORE.norm>
-0.0486371

>  <RMSD>
2.390

$$$$
ligand
 OpenBabel11021811513D
libRbt.so/2013.1/901 2013/11/27
 14 13  0  0  0  0  0  0  0  0999 V2000
   32.4876   41.9539   37.9729 N   0  0  0  0  0  0  0  0  0  0  0  0
   32.9458   43.2927   37.6387 C   0  0  0  0  0  0  0  0  0  0  0  0
   31.8240   44.3046   37.8475 C   0  0  0  0  0  0  0  0  0  0  0  0
   32.2961   45.7209   37.5385 C   0  0  0  0  0  0  0  0  0  0  0  0
   31.2462   46.7201   37.7129 N   0  0  0  0  0  0  0  0  0  0  0  0
   31.4667   48.1023   37.3219 C   0  0  0  0  0  0  0  0  0  0  0  0
   30.2603   48.9939   37.5949 C   0  0  0  0  0  0  0  0  0  0  0  0
   29.9410   48.9980   39.0857 C   0  0  0  0  0  0  0  0  0  0  0  0
   28.6929   49.8349   39.3443 C   0  0  0  0  0  0  0  0  0  0  0  0
   27.5086   49.2506   38.7389 N   0  0  0  0  0  0  0  0  0  0  0  0
   26.3710   50.1040   38.4226 C   0  0  0  0  0  0  0  0  0  0  0  0
   25.5333   50.5240   39.6285 C   0  0  0  0  0  0  0  0  0  0  0  0
   24.4057   51.4653   39.2014 C   0  0  0  0  0  0  0  0  0  0  0  0
   23.5957   51.8331   40.3502 N   0  0  0  0  0  0  0  0  0  0  0  0
  1  2  1  0  0  0  0
  2  3  1  0  0  0  0
  3  4  1  0  0  0  0
  4  5  1  0  0  0  0
  5  6  1  0  0  0  0
  6  7  1  0  0  0  0
  7  8  1  0  0  0  0
  8  9  1  0  0  0  0
  9 10  1  0  0  0  0
 10 11  1  0  0  0  0
 11 12  1  0  0  0  0
 12 13  1  0  0  0  0
 13 14  1  0  0  0  0
M  END
>  <CHROM.1>
178.45382667,179.40402178,-173.08200432,-179.42401810,60.59781385,-177.19926027
65.24134496,-156.32922184,-75.51202722,177.43590526,178.63102091,29.18412419
47.93578749,38.45696739,0.72626332,-0.31861472,3.05574470

>  <Name>
ligand

>  <RI>
0

>  <Rbt.Current_Directory>
/home/itssahil/PROJECTS/Mol_Feturizer/New_Systems/rnas/4P5J

>  <Rbt.Executable>
rbdock ($Id: //depot/dev/client3/rdock/2013.1/src/exe/rbdock.cxx#4 $)

>  <Rbt.Library>
libRbt.so (2013.1, Build901 2013/11/27)

>  <Rbt.Parameter_File>
/export/apps/rDock/src/rDock_2013.1_src/data/scripts/dock_solv.prm

>  <Rbt.Receptor>
prm/pocket_docking_3.prm

>  <SCORE>
-0.809906

>  <SCORE.INTER>
8.85192

>  <SCORE.INTER.CONST>
1

>  <SCORE.INTER.POLAR>
0

>  <SCORE.INTER.ROT>
11

>  <SCORE.INTER.SOLV>
5.6188

>  <SCORE.INTER.VDW>
-6.90498

>  <SCORE.INTER.norm>
0.63228

>  <SCORE.INTRA>
-9.66183

>  <SCORE.INTRA.DIHEDRAL>
-16.7122

>  <SCORE.INTRA.DIHEDRAL.0>
17.5233

>  <SCORE.INTRA.POLAR>
0

>  <SCORE.INTRA.POLAR.0>
0

>  <SCORE.INTRA.REPUL>
0

>  <SCORE.INTRA.REPUL.0>
0

>  <SCORE.INTRA.SOLV>
-1.87986

>  <SCORE.INTRA.SOLV.lig_0>
-46.1043

>  <SCORE.INTRA.VDW>
-0.36578

>  <SCORE.INTRA.VDW.0>
-0.545445

>  <SCORE.INTRA.norm>
-0.690131

>  <SCORE.RESTR>
0

>  <SCORE.RESTR.CAVITY>
0

>  <SCORE.RESTR.norm>
0

>  <SCORE.SYSTEM>
0

>  <SCORE.SYSTEM.CONST>
0

>  <SCORE.SYSTEM.DIHEDRAL>
0

>  <SCORE.SYSTEM.SOLV>
0

>  <SCORE.SYSTEM.norm>
0

>  <SCORE.heavy>
14

>  <SCORE.norm>
-0.0578505

>  <RMSD>
2.401

$$$$
ligand
 OpenBabel11021811513D
libRbt.so/2013.1/901 2013/11/27
 14 13  0  0  0  0  0  0  0  0999 V2000
   24.9120   51.8790   40.9731 N   0  0  0  0  0  0  0  0  0  0  0  0
   25.4562   51.0891   39.8805 C   0  0  0  0  0  0  0  0  0  0  0  0
   26.9704   51.2562   39.8081 C   0  0  0  0  0  0  0  0  0  0  0  0
   27.5633   50.4172   38.6818 C   0  0  0  0  0  0  0  0  0  0  0  0
   29.0144   50.5429   38.5834 N   0  0  0  0  0  0  0  0  0  0  0  0
   29.8118   49.4800   37.9950 C   0  0  0  0  0  0  0  0  0  0  0  0
   30.1018   48.3471   38.9735 C   0  0  0  0  0  0  0  0  0  0  0  0
   31.0201   47.3182   38.3235 C   0  0  0  0  0  0  0  0  0  0  0  0
   31.2732   46.1674   39.2912 C   0  0  0  0  0  0  0  0  0  0  0  0
   32.1877   45.1820   38.7406 N   0  0  0  0  0  0  0  0  0  0  0  0
   32.4755   43.9707   39.4972 C   0  0  0  0  0  0  0  0  0  0  0  0
   33.6692   43.1670   38.9856 C   0  0  0  0  0  0  0  0  0  0  0  0
   34.9725   43.9372   39.2045 C   0  0  0  0  0  0  0  0  0  0  0  0
   35.0196   45.1022   38.3375 N   0  0  0  0  0  0  0  0  0  0  0  0
  1  2  1  0  0  0  0
  2  3  1  0  0  0  0
  3  4  1  0  0  0  0
  4  5  1  0  0  0  0
  5  6  1  0  0  0  0
  6  7  1  0  0  0  0
  7  8  1  0  0  0  0
  8  9  1  0  0  0  0
  9 10  1  0  0  0  0
 10 11  1  0  0  0  0
 11 12  1  0  0  0  0
 12 13  1  0  0  0  0
 13 14  1  0  0  0  0
M  END
>  <CHROM.1>
179.07699426,-179.65567368,154.74136697,-81.58847673,-176.04261399,-178.32666958
-177.69861185,-176.11467074,-166.86505909,67.62359557,-68.70021916,30.31771066
47.70383748,39.09107705,2.53200286,0.48611616,-0.47552635

>  <Name>
ligand

>  <RI>
0

>  <Rbt.Current_Directory>
/home/itssahil/PROJECTS/Mol_Feturizer/New_Systems/rnas/4P5J

>  <Rbt.Executable>
rbdock ($Id: //depot/dev/client3/rdock/2013.1/src/exe/rbdock.cxx#4 $)

>  <Rbt.Library>
libRbt.so (2013.1, Build901 2013/11/27)

>  <Rbt.Parameter_File>
/export/apps/rDock/src/rDock_2013.1_src/data/scripts/dock_solv.prm

>  <Rbt.Receptor>
prm/pocket_docking_2.prm

>  <SCORE>
1.89906

>  <SCORE.INTER>
10.3703

>  <SCORE.INTER.CONST>
1

>  <SCORE.INTER.POLAR>
0

>  <SCORE.INTER.ROT>
11

>  <SCORE.INTER.SOLV>
2.31422

>  <SCORE.INTER.VDW>
-4.79124

>  <SCORE.INTER.norm>
0.740733

>  <SCORE.INTRA>
-8.47119

>  <SCORE.INTRA.DIHEDRAL>
-15.9848

>  <SCORE.INTRA.DIHEDRAL.0>
17.5233

>  <SCORE.INTRA.POLAR>
0

>  <SCORE.INTRA.POLAR.0>
0

>  <SCORE.INTRA.REPUL>
0

>  <SCORE.INTRA.REPUL.0>
0

>  <SCORE.INTRA.SOLV>
0.337273

>  <SCORE.INTRA.SOLV.lig_0>
-46.1043

>  <SCORE.INTRA.VDW>
-0.647411

>  <SCORE.INTRA.VDW.0>
-0.545445

>  <SCORE.INTRA.norm>
-0.605085

>  <SCORE.RESTR>
0

>  <SCORE.RESTR.CAVITY>
0

>  <SCORE.RESTR.norm>
0

>  <SCORE.SYSTEM>
0

>  <SCORE.SYSTEM.CONST>
0

>  <SCORE.SYSTEM.DIHEDRAL>
0

>  <SCORE.SYSTEM.SOLV>
0

>  <SCORE.SYSTEM.norm>
0

>  <SCORE.heavy>
14

>  <SCORE.norm>
0.135647

>  <RMSD>
2.436

$$$$
ligand
 OpenBabel11021811513D
libRbt.so/2013.1/901 2013/11/27
 14 13  0  0  0  0  0  0  0  0999 V2000
   24.2007   51.6126   42.4660 N   0  0  0  0  0  0  0  0  0  0  0  0
   24.8968   50.4676   41.9018 C   0  0  0  0  0  0  0  0  0  0  0  0
   25.3557   50.7739   40.4800 C   0  0  0  0  0  0  0  0  0  0  0  0
   26.0755   49.5790   39.8648 C   0  0  0  0  0  0  0  0  0  0  0  0
   26.5974   49.8562   38.5299 N   0  0  0  0  0  0  0  0  0  0  0  0
   27.8857   50.5065   38.3586 C   0  0  0  0  0  0  0  0  0  0  0  0
   29.0252   49.5155   38.1480 C   0  0  0  0  0  0  0  0  0  0  0  0
   29.2621   48.7140   39.4230 C   0  0  0  0  0  0  0  0  0  0  0  0
   30.3392   47.6625   39.1794 C   0  0  0  0  0  0  0  0  0  0  0  0
   30.5775   46.8425   40.3547 N   0  0  0  0  0  0  0  0  0  0  0  0
   31.3888   45.6383   40.2351 C   0  0  0  0  0  0  0  0  0  0  0  0
   31.6353   44.9014   41.5499 C   0  0  0  0  0  0  0  0  0  0  0  0
   32.4873   43.6525   41.3174 C   0  0  0  0  0  0  0  0  0  0  0  0
   33.8169   44.0276   40.8674 N   0  0  0  0  0  0  0  0  0  0  0  0
  1  2  1  0  0  0  0
  2  3  1  0  0  0  0
  3  4  1  0  0  0  0
  4  5  1  0  0  0  0
  5  6  1  0  0  0  0
  6  7  1  0  0  0  0
  7  8  1  0  0  0  0
  8  9  1  0  0  0  0
  9 10  1  0  0  0  0
 10 11  1  0  0  0  0
 11 12  1  0  0  0  0
 12 13  1  0  0  0  0
 13 14  1  0  0  0  0
M  END
>  <CHROM.1>
-179.38906403,-176.77067938,83.99533985,95.23468443,-67.67424662,176.28772822
-178.33911835,168.81084321,176.71249433,179.70519236,65.38173327,28.82458079
48.12500590,40.19099397,2.78006564,0.63462309,-1.04395825

>  <Name>
ligand

>  <RI>
0

>  <Rbt.Current_Directory>
/home/itssahil/PROJECTS/Mol_Feturizer/New_Systems/rnas/4P5J

>  <Rbt.Executable>
rbdock ($Id: //depot/dev/client3/rdock/2013.1/src/exe/rbdock.cxx#4 $)

>  <Rbt.Library>
libRbt.so (2013.1, Build901 2013/11/27)

>  <Rbt.Parameter_File>
/export/apps/rDock/src/rDock_2013.1_src/data/scripts/dock_solv.prm

>  <Rbt.Receptor>
prm/pocket_docking_3.prm

>  <SCORE>
-0.0107402

>  <SCORE.INTER>
9.00316

>  <SCORE.INTER.CONST>
1

>  <SCORE.INTER.POLAR>
0

>  <SCORE.INTER.ROT>
11

>  <SCORE.INTER.SOLV>
4.85901

>  <SCORE.INTER.VDW>
-6.5509

>  <SCORE.INTER.norm>
0.643083

>  <SCORE.INTRA>
-9.0171

>  <SCORE.INTRA.DIHEDRAL>
-15.7997

>  <SCORE.INTRA.DIHEDRAL.0>
17.5233

>  <SCORE.INTRA.POLAR>
0

>  <SCORE.INTRA.POLAR.0>
0

>  <SCORE.INTRA.REPUL>
0

>  <SCORE.INTRA.REPUL.0>
0

>  <SCORE.INTRA.SOLV>
-1.55709

>  <SCORE.INTRA.SOLV.lig_0>
-46.1043

>  <SCORE.INTRA.VDW>
-0.338726

>  <SCORE.INTRA.VDW.0>
-0.545445

>  <SCORE.INTRA.norm>
-0.644079

>  <SCORE.RESTR>
0.00319877

>  <SCORE.RESTR.CAVITY>
0.00319877

>  <SCORE.RESTR.norm>
0.000228483

>  <SCORE.SYSTEM>
0

>  <SCORE.SYSTEM.CONST>
0

>  <SCORE.SYSTEM.DIHEDRAL>
0

>  <SCORE.SYSTEM.SOLV>
0

>  <SCORE.SYSTEM.norm>
0

>  <SCORE.heavy>
14

>  <SCORE.norm>
-0.000767156

>  <RMSD>
2.439

$$$$
ligand
 OpenBabel11021811513D
libRbt.so/2013.1/901 2013/11/27
 14 13  0  0  0  0  0  0  0  0999 V2000
   32.0089   44.7453   41.5569 N   0  0  0  0  0  0  0  0  0  0  0  0
   31.4359   45.4553   40.4249 C   0  0  0  0  0  0  0  0  0  0  0  0
   32.5408   45.9886   39.5190 C   0  0  0  0  0  0  0  0  0  0  0  0
   31.9608   46.7714   38.3463 C   0  0  0  0  0  0  0  0  0  0  0  0
   31.1587   47.9157   38.7685 N   0  0  0  0  0  0  0  0  0  0  0  0
   30.4102   48.6947   37.7966 C   0  0  0  0  0  0  0  0  0  0  0  0
   29.2199   49.4223   38.4119 C   0  0  0  0  0  0  0  0  0  0  0  0
   28.3979   50.0958   37.3186 C   0  0  0  0  0  0  0  0  0  0  0  0
   27.1512   50.7295   37.9262 C   0  0  0  0  0  0  0  0  0  0  0  0
   26.2925   49.7450   38.5617 N   0  0  0  0  0  0  0  0  0  0  0  0
   24.9576   50.1336   38.9971 C   0  0  0  0  0  0  0  0  0  0  0  0
   24.9268   51.0702   40.2030 C   0  0  0  0  0  0  0  0  0  0  0  0
   23.4862   51.4290   40.5714 C   0  0  0  0  0  0  0  0  0  0  0  0
   23.4693   52.3483   41.6966 N   0  0  0  0  0  0  0  0  0  0  0  0
  1  2  1  0  0  0  0
  2  3  1  0  0  0  0
  3  4  1  0  0  0  0
  4  5  1  0  0  0  0
  5  6  1  0  0  0  0
  6  7  1  0  0  0  0
  7  8  1  0  0  0  0
  8  9  1  0  0  0  0
  9 10  1  0  0  0  0
 10 11  1  0  0  0  0
 11 12  1  0  0  0  0
 12 13  1  0  0  0  0
 13 14  1  0  0  0  0
M  END
>  <CHROM.1>
-178.36849644,59.49958689,-173.42594343,155.56804904,-174.02802877,175.62112713
-61.07625766,-169.83184591,-70.53088208,179.42943540,-178.47155542,28.38696784
48.89613428,39.29241798,0.26059587,-0.55375170,2.12168036

>  <Name>
ligand

>  <RI>
0

>  <Rbt.Current_Directory>
/home/itssahil/PROJECTS/Mol_Feturizer/New_Systems/rnas/4P5J

>  <Rbt.Executable>
rbdock ($Id: //depot/dev/client3/rdock/2013.1/src/exe/rbdock.cxx#4 $)

>  <Rbt.Library>
libRbt.so (2013.1, Build901 2013/11/27)

>  <Rbt.Parameter_File>
/export/apps/rDock/src/rDock_2013.1_src/data/scripts/dock_solv.prm

>  <Rbt.Receptor>
prm/pocket_docking_3.prm

>  <SCORE>
-0.543451

>  <SCORE.INTER>
8.94198

>  <SCORE.INTER.CONST>
1

>  <SCORE.INTER.POLAR>
0

>  <SCORE.INTER.ROT>
11

>  <SCORE.INTER.SOLV>
4.65601

>  <SCORE.INTER.VDW>
-6.52402

>  <SCORE.INTER.norm>
0.638713

>  <SCORE.INTRA>
-9.48543

>  <SCORE.INTRA.DIHEDRAL>
-16.6492

>  <SCORE.INTRA.DIHEDRAL.0>
17.5233

>  <SCORE.INTRA.POLAR>
0

>  <SCORE.INTRA.POLAR.0>
0

>  <SCORE.INTRA.REPUL>
0

>  <SCORE.INTRA.REPUL.0>
0

>  <SCORE.INTRA.SOLV>
-1.85425

>  <SCORE.INTRA.SOLV.lig_0>
-46.1043

>  <SCORE.INTRA.VDW>
-0.233703

>  <SCORE.INTRA.VDW.0>
-0.545445

>  <SCORE.INTRA.norm>
-0.677531

>  <SCORE.RESTR>
0

>  <SCORE.RESTR.CAVITY>
0

>  <SCORE.RESTR.norm>
0

>  <SCORE.SYSTEM>
0

>  <SCORE.SYSTEM.CONST>
0

>  <SCORE.SYSTEM.DIHEDRAL>
0

>  <SCORE.SYSTEM.SOLV>
0

>  <SCORE.SYSTEM.norm>
0

>  <SCORE.heavy>
14

>  <SCORE.norm>
-0.0388179

>  <RMSD>
2.444

$$$$
ligand
 OpenBabel11021811513D
libRbt.so/2013.1/901 2013/11/27
 14 13  0  0  0  0  0  0  0  0999 V2000
   33.0268   43.5223   38.3843 N   0  0  0  0  0  0  0  0  0  0  0  0
   31.7173   43.8668   37.8547 C   0  0  0  0  0  0  0  0  0  0  0  0
   31.4224   45.3446   38.0894 C   0  0  0  0  0  0  0  0  0  0  0  0
   31.4544   45.6827   39.5757 C   0  0  0  0  0  0  0  0  0  0  0  0
   31.0785   47.0661   39.8516 N   0  0  0  0  0  0  0  0  0  0  0  0
   29.6798   47.4481   39.9498 C   0  0  0  0  0  0  0  0  0  0  0  0
   29.4218   48.8750   39.4782 C   0  0  0  0  0  0  0  0  0  0  0  0
   27.9350   49.1970   39.5786 C   0  0  0  0  0  0  0  0  0  0  0  0
   27.6841   50.6281   39.1157 C   0  0  0  0  0  0  0  0  0  0  0  0
   26.2680   50.9504   39.0810 N   0  0  0  0  0  0  0  0  0  0  0  0
   25.8367   52.3129   39.3644 C   0  0  0  0  0  0  0  0  0  0  0  0
   24.3233   52.5179   39.3570 C   0  0  0  0  0  0  0  0  0  0  0  0
   23.6621   51.7000   40.4677 C   0  0  0  0  0  0  0  0  0  0  0  0
   23.9813   52.2664   41.7671 N   0  0  0  0  0  0  0  0  0  0  0  0
  1  2  1  0  0  0  0
  2  3  1  0  0  0  0
  3  4  1  0  0  0  0
  4  5  1  0  0  0  0
  5  6  1  0  0  0  0
  6  7  1  0  0  0  0
  7  8  1  0  0  0  0
  8  9  1  0  0  0  0
  9 10  1  0  0  0  0
 10 11  1  0  0  0  0
 11 12  1  0  0  0  0
 12 13  1  0  0  0  0
 13 14  1  0  0  0  0
M  END
>  <CHROM.1>
-59.25902542,-175.68068801,83.16504470,-148.22816982,178.72245622,179.58221969
175.02318770,147.75670807,-177.51064100,63.55948099,70.58595249,28.39217050
48.66996164,39.42237650,0.07834414,-0.79620690,1.88009667

>  <Name>
ligand

>  <RI>
0

>  <Rbt.Current_Directory>
/home/itssahil/PROJECTS/Mol_Feturizer/New_Systems/rnas/4P5J

>  <Rbt.Executable>
rbdock ($Id: //depot/dev/client3/rdock/2013.1/src/exe/rbdock.cxx#4 $)

>  <Rbt.Library>
libRbt.so (2013.1, Build901 2013/11/27)

>  <Rbt.Parameter_File>
/export/apps/rDock/src/rDock_2013.1_src/data/scripts/dock_solv.prm

>  <Rbt.Receptor>
prm/pocket_docking_3.prm

>  <SCORE>
0.0278496

>  <SCORE.INTER>
8.0841

>  <SCORE.INTER.CONST>
1

>  <SCORE.INTER.POLAR>
0

>  <SCORE.INTER.ROT>
11

>  <SCORE.INTER.SOLV>
3.93912

>  <SCORE.INTER.VDW>
-6.85697

>  <SCORE.INTER.norm>
0.577436

>  <SCORE.INTRA>
-8.05625

>  <SCORE.INTRA.DIHEDRAL>
-15.169

>  <SCORE.INTRA.DIHEDRAL.0>
17.5233

>  <SCORE.INTRA.POLAR>
0

>  <SCORE.INTRA.POLAR.0>
0

>  <SCORE.INTRA.REPUL>
0

>  <SCORE.INTRA.REPUL.0>
0

>  <SCORE.INTRA.SOLV>
-0.288009

>  <SCORE.INTRA.SOLV.lig_0>
-46.1043

>  <SCORE.INTRA.VDW>
-0.327748

>  <SCORE.INTRA.VDW.0>
-0.545445

>  <SCORE.INTRA.norm>
-0.575447

>  <SCORE.RESTR>
0

>  <SCORE.RESTR.CAVITY>
0

>  <SCORE.RESTR.norm>
0

>  <SCORE.SYSTEM>
0

>  <SCORE.SYSTEM.CONST>
0

>  <SCORE.SYSTEM.DIHEDRAL>
0

>  <SCORE.SYSTEM.SOLV>
0

>  <SCORE.SYSTEM.norm>
0

>  <SCORE.heavy>
14

>  <SCORE.norm>
0.00198926

>  <RMSD>
2.448

$$$$
ligand
 OpenBabel11021811513D
libRbt.so/2013.1/901 2013/11/27
 14 13  0  0  0  0  0  0  0  0999 V2000
   32.6147   44.6998   37.3781 N   0  0  0  0  0  0  0  0  0  0  0  0
   31.2667   44.7748   37.9179 C   0  0  0  0  0  0  0  0  0  0  0  0
   31.2784   45.4608   39.2799 C   0  0  0  0  0  0  0  0  0  0  0  0
   31.5005   46.9624   39.1378 C   0  0  0  0  0  0  0  0  0  0  0  0
   30.3433   47.6575   38.5820 N   0  0  0  0  0  0  0  0  0  0  0  0
   30.2890   49.1096   38.5654 C   0  0  0  0  0  0  0  0  0  0  0  0
   28.9516   49.6459   38.0667 C   0  0  0  0  0  0  0  0  0  0  0  0
   27.8564   49.3442   39.0836 C   0  0  0  0  0  0  0  0  0  0  0  0
   26.5676   50.0521   38.6799 C   0  0  0  0  0  0  0  0  0  0  0  0
   25.4970   49.8236   39.6349 N   0  0  0  0  0  0  0  0  0  0  0  0
   25.5705   50.4386   40.9536 C   0  0  0  0  0  0  0  0  0  0  0  0
   25.2324   51.9276   40.9834 C   0  0  0  0  0  0  0  0  0  0  0  0
   23.7935   52.1640   40.5213 C   0  0  0  0  0  0  0  0  0  0  0  0
   23.4427   53.5665   40.6673 N   0  0  0  0  0  0  0  0  0  0  0  0
  1  2  1  0  0  0  0
  2  3  1  0  0  0  0
  3  4  1  0  0  0  0
  4  5  1  0  0  0  0
  5  6  1  0  0  0  0
  6  7  1  0  0  0  0
  7  8  1  0  0  0  0
  8  9  1  0  0  0  0
  9 10  1  0  0  0  0
 10 11  1  0  0  0  0
 11 12  1  0  0  0  0
 12 13  1  0  0  0  0
 13 14  1  0  0  0  0
M  END
>  <CHROM.1>
73.77545555,71.52873986,170.42098130,-174.65788534,68.92876653,171.92173099
-178.62124722,70.38006331,76.63629650,61.68051910,174.88086398,28.15752696
48.97339963,39.24664055,0.58486163,-0.49453698,2.86289102

>  <Name>
ligand

>  <RI>
0

>  <Rbt.Current_Directory>
/home/itssahil/PROJECTS/Mol_Feturizer/New_Systems/rnas/4P5J

>  <Rbt.Executable>
rbdock ($Id: //depot/dev/client3/rdock/2013.1/src/exe/rbdock.cxx#4 $)

>  <Rbt.Library>
libRbt.so (2013.1, Build901 2013/11/27)

>  <Rbt.Parameter_File>
/export/apps/rDock/src/rDock_2013.1_src/data/scripts/dock_solv.prm

>  <Rbt.Receptor>
prm/pocket_docking_3.prm

>  <SCORE>
0.0848478

>  <SCORE.INTER>
8.15073

>  <SCORE.INTER.CONST>
1

>  <SCORE.INTER.POLAR>
0

>  <SCORE.INTER.ROT>
11

>  <SCORE.INTER.SOLV>
5.14474

>  <SCORE.INTER.VDW>
-7.21443

>  <SCORE.INTER.norm>
0.582195

>  <SCORE.INTRA>
-8.09496

>  <SCORE.INTRA.DIHEDRAL>
-15.2686

>  <SCORE.INTRA.DIHEDRAL.0>
17.5233

>  <SCORE.INTRA.POLAR>
0

>  <SCORE.INTRA.POLAR.0>
0

>  <SCORE.INTRA.REPUL>
0

>  <SCORE.INTRA.REPUL.0>
0

>  <SCORE.INTRA.SOLV>
-0.676999

>  <SCORE.INTRA.SOLV.lig_0>
-46.1043

>  <SCORE.INTRA.VDW>
-0.122145

>  <SCORE.INTRA.VDW.0>
-0.545445

>  <SCORE.INTRA.norm>
-0.578212

>  <SCORE.RESTR>
0.0290778

>  <SCORE.RESTR.CAVITY>
0.0290778

>  <SCORE.RESTR.norm>
0.00207699

>  <SCORE.SYSTEM>
0

>  <SCORE.SYSTEM.CONST>
0

>  <SCORE.SYSTEM.DIHEDRAL>
0

>  <SCORE.SYSTEM.SOLV>
0

>  <SCORE.SYSTEM.norm>
0

>  <SCORE.heavy>
14

>  <SCORE.norm>
0.00606056

>  <RMSD>
2.455

$$$$
ligand
 OpenBabel11021811513D
libRbt.so/2013.1/901 2013/11/27
 14 13  0  0  0  0  0  0  0  0999 V2000
   33.5453   42.1426   39.4011 N   0  0  0  0  0  0  0  0  0  0  0  0
   32.9215   42.8843   38.3172 C   0  0  0  0  0  0  0  0  0  0  0  0
   32.1983   44.1116   38.8619 C   0  0  0  0  0  0  0  0  0  0  0  0
   31.5533   44.9141   37.7375 C   0  0  0  0  0  0  0  0  0  0  0  0
   30.9211   46.1431   38.2075 N   0  0  0  0  0  0  0  0  0  0  0  0
   31.7272   47.2774   38.6264 C   0  0  0  0  0  0  0  0  0  0  0  0
   30.9287   48.5740   38.7043 C   0  0  0  0  0  0  0  0  0  0  0  0
   30.4555   48.9800   37.3130 C   0  0  0  0  0  0  0  0  0  0  0  0
   29.8706   50.3875   37.3566 C   0  0  0  0  0  0  0  0  0  0  0  0
   28.6678   50.4541   38.1686 N   0  0  0  0  0  0  0  0  0  0  0  0
   27.4084   49.9640   37.6242 C   0  0  0  0  0  0  0  0  0  0  0  0
   26.1697   50.3606   38.4246 C   0  0  0  0  0  0  0  0  0  0  0  0
   26.2095   49.7422   39.8231 C   0  0  0  0  0  0  0  0  0  0  0  0
   25.0246   50.1209   40.5741 N   0  0  0  0  0  0  0  0  0  0  0  0
  1  2  1  0  0  0  0
  2  3  1  0  0  0  0
  3  4  1  0  0  0  0
  4  5  1  0  0  0  0
  5  6  1  0  0  0  0
  6  7  1  0  0  0  0
  7  8  1  0  0  0  0
  8  9  1  0  0  0  0
  9 10  1  0  0  0  0
 10 11  1  0  0  0  0
 11 12  1  0  0  0  0
 12 13  1  0  0  0  0
 13 14  1  0  0  0  0
M  END
>  <CHROM.1>
179.21058170,-176.39968499,72.77452729,163.79011329,-65.42129969,-170.27073803
-65.02159416,-77.52177863,-167.02174235,-63.76593678,-179.76865218,29.82879723
47.57559407,38.50977777,0.73890887,-0.45706542,2.72593513

>  <Name>
ligand

>  <RI>
0

>  <Rbt.Current_Directory>
/home/itssahil/PROJECTS/Mol_Feturizer/New_Systems/rnas/4P5J

>  <Rbt.Executable>
rbdock ($Id: //depot/dev/client3/rdock/2013.1/src/exe/rbdock.cxx#4 $)

>  <Rbt.Library>
libRbt.so (2013.1, Build901 2013/11/27)

>  <Rbt.Parameter_File>
/export/apps/rDock/src/rDock_2013.1_src/data/scripts/dock_solv.prm

>  <Rbt.Receptor>
prm/pocket_docking_3.prm

>  <SCORE>
-0.58489

>  <SCORE.INTER>
8.39977

>  <SCORE.INTER.CONST>
1

>  <SCORE.INTER.POLAR>
0

>  <SCORE.INTER.ROT>
11

>  <SCORE.INTER.SOLV>
5.62065

>  <SCORE.INTER.VDW>
-7.20704

>  <SCORE.INTER.norm>
0.599983

>  <SCORE.INTRA>
-8.98466

>  <SCORE.INTRA.DIHEDRAL>
-16.1232

>  <SCORE.INTRA.DIHEDRAL.0>
17.5233

>  <SCORE.INTRA.POLAR>
0

>  <SCORE.INTRA.POLAR.0>
0

>  <SCORE.INTRA.REPUL>
0

>  <SCORE.INTRA.REPUL.0>
0

>  <SCORE.INTRA.SOLV>
-1.6409

>  <SCORE.INTRA.SOLV.lig_0>
-46.1043

>  <SCORE.INTRA.VDW>
-0.102608

>  <SCORE.INTRA.VDW.0>
-0.545445

>  <SCORE.INTRA.norm>
-0.641761

>  <SCORE.RESTR>
0

>  <SCORE.RESTR.CAVITY>
0

>  <SCORE.RESTR.norm>
0

>  <SCORE.SYSTEM>
0

>  <SCORE.SYSTEM.CONST>
0

>  <SCORE.SYSTEM.DIHEDRAL>
0

>  <SCORE.SYSTEM.SOLV>
0

>  <SCORE.SYSTEM.norm>
0

>  <SCORE.heavy>
14

>  <SCORE.norm>
-0.0417779

>  <RMSD>
2.461

$$$$
ligand
 OpenBabel11021811513D
libRbt.so/2013.1/901 2013/11/27
 14 13  0  0  0  0  0  0  0  0999 V2000
   32.5962   44.6030   41.6010 N   0  0  0  0  0  0  0  0  0  0  0  0
   31.5779   45.1572   40.7235 C   0  0  0  0  0  0  0  0  0  0  0  0
   32.1743   45.4820   39.3580 C   0  0  0  0  0  0  0  0  0  0  0  0
   31.1249   46.0798   38.4275 C   0  0  0  0  0  0  0  0  0  0  0  0
   31.6564   46.4065   37.1076 N   0  0  0  0  0  0  0  0  0  0  0  0
   32.1985   47.7267   36.8334 C   0  0  0  0  0  0  0  0  0  0  0  0
   31.1473   48.7018   36.3147 C   0  0  0  0  0  0  0  0  0  0  0  0
   30.1560   49.0386   37.4230 C   0  0  0  0  0  0  0  0  0  0  0  0
   29.0510   49.9339   36.8729 C   0  0  0  0  0  0  0  0  0  0  0  0
   28.0919   50.3095   37.8974 N   0  0  0  0  0  0  0  0  0  0  0  0
   26.8271   50.9173   37.5058 C   0  0  0  0  0  0  0  0  0  0  0  0
   25.8754   51.2127   38.6630 C   0  0  0  0  0  0  0  0  0  0  0  0
   25.4744   49.9201   39.3760 C   0  0  0  0  0  0  0  0  0  0  0  0
   24.5312   50.2066   40.4434 N   0  0  0  0  0  0  0  0  0  0  0  0
  1  2  1  0  0  0  0
  2  3  1  0  0  0  0
  3  4  1  0  0  0  0
  4  5  1  0  0  0  0
  5  6  1  0  0  0  0
  6  7  1  0  0  0  0
  7  8  1  0  0  0  0
  8  9  1  0  0  0  0
  9 10  1  0  0  0  0
 10 11  1  0  0  0  0
 11 12  1  0  0  0  0
 12 13  1  0  0  0  0
 13 14  1  0  0  0  0
M  END
>  <CHROM.1>
-179.34590521,179.95118918,-91.18315015,-90.13619687,68.89177355,-175.95969340
-178.76702389,-166.98889704,177.44634370,-62.08796717,-177.91139853,29.46313522
48.26413103,38.46732589,0.43797016,-0.54241662,2.19909613

>  <Name>
ligand

>  <RI>
0

>  <Rbt.Current_Directory>
/home/itssahil/PROJECTS/Mol_Feturizer/New_Systems/rnas/4P5J

>  <Rbt.Executable>
rbdock ($Id: //depot/dev/client3/rdock/2013.1/src/exe/rbdock.cxx#4 $)

>  <Rbt.Library>
libRbt.so (2013.1, Build901 2013/11/27)

>  <Rbt.Parameter_File>
/export/apps/rDock/src/rDock_2013.1_src/data/scripts/dock_solv.prm

>  <Rbt.Receptor>
prm/pocket_docking_3.prm

>  <SCORE>
-1.16023

>  <SCORE.INTER>
8.1454

>  <SCORE.INTER.CONST>
1

>  <SCORE.INTER.POLAR>
0

>  <SCORE.INTER.ROT>
11

>  <SCORE.INTER.SOLV>
5.11188

>  <SCORE.INTER.VDW>
-7.20703

>  <SCORE.INTER.norm>
0.581814

>  <SCORE.INTRA>
-9.30662

>  <SCORE.INTRA.DIHEDRAL>
-15.7402

>  <SCORE.INTRA.DIHEDRAL.0>
17.5233

>  <SCORE.INTRA.POLAR>
0

>  <SCORE.INTRA.POLAR.0>
0

>  <SCORE.INTRA.REPUL>
0

>  <SCORE.INTRA.REPUL.0>
0

>  <SCORE.INTRA.SOLV>
-1.99897

>  <SCORE.INTRA.SOLV.lig_0>
-46.1043

>  <SCORE.INTRA.VDW>
-0.437006

>  <SCORE.INTRA.VDW.0>
-0.545445

>  <SCORE.INTRA.norm>
-0.664758

>  <SCORE.RESTR>
0.000987992

>  <SCORE.RESTR.CAVITY>
0.000987992

>  <SCORE.RESTR.norm>
7.05708e-05

>  <SCORE.SYSTEM>
0

>  <SCORE.SYSTEM.CONST>
0

>  <SCORE.SYSTEM.DIHEDRAL>
0

>  <SCORE.SYSTEM.SOLV>
0

>  <SCORE.SYSTEM.norm>
0

>  <SCORE.heavy>
14

>  <SCORE.norm>
-0.0828734

>  <RMSD>
2.471

$$$$
ligand
 OpenBabel11021811513D
libRbt.so/2013.1/901 2013/11/27
 14 13  0  0  0  0  0  0  0  0999 V2000
   23.4069   53.2696   41.0241 N   0  0  0  0  0  0  0  0  0  0  0  0
   23.8103   52.1396   40.2029 C   0  0  0  0  0  0  0  0  0  0  0  0
   25.2039   52.3721   39.6287 C   0  0  0  0  0  0  0  0  0  0  0  0
   25.6665   51.1752   38.8055 C   0  0  0  0  0  0  0  0  0  0  0  0
   26.9969   51.3596   38.2334 N   0  0  0  0  0  0  0  0  0  0  0  0
   27.6201   50.3044   37.4523 C   0  0  0  0  0  0  0  0  0  0  0  0
   28.8298   49.6896   38.1475 C   0  0  0  0  0  0  0  0  0  0  0  0
   28.4047   49.0458   39.4625 C   0  0  0  0  0  0  0  0  0  0  0  0
   29.5990   48.3508   40.1072 C   0  0  0  0  0  0  0  0  0  0  0  0
   30.0842   47.2417   39.3042 N   0  0  0  0  0  0  0  0  0  0  0  0
   31.1142   46.3638   39.8436 C   0  0  0  0  0  0  0  0  0  0  0  0
   31.4513   45.1604   38.9658 C   0  0  0  0  0  0  0  0  0  0  0  0
   31.9657   45.6160   37.5992 C   0  0  0  0  0  0  0  0  0  0  0  0
   32.2944   44.4644   36.7764 N   0  0  0  0  0  0  0  0  0  0  0  0
  1  2  1  0  0  0  0
  2  3  1  0  0  0  0
  3  4  1  0  0  0  0
  4  5  1  0  0  0  0
  5  6  1  0  0  0  0
  6  7  1  0  0  0  0
  7  8  1  0  0  0  0
  8  9  1  0  0  0  0
  9 10  1  0  0  0  0
 10 11  1  0  0  0  0
 11 12  1  0  0  0  0
 12 13  1  0  0  0  0
 13 14  1  0  0  0  0
M  END
>  <CHROM.1>
177.91855935,179.81427056,178.05014529,-111.89012887,61.78522832,176.17297595
-64.54008903,-172.54438470,174.56935895,60.37817606,179.50245873,28.31775076
49.03948070,38.96815912,3.10839890,0.78190129,-1.30153296

>  <Name>
ligand

>  <RI>
0

>  <Rbt.Current_Directory>
/home/itssahil/PROJECTS/Mol_Feturizer/New_Systems/rnas/4P5J

>  <Rbt.Executable>
rbdock ($Id: //depot/dev/client3/rdock/2013.1/src/exe/rbdock.cxx#4 $)

>  <Rbt.Library>
libRbt.so (2013.1, Build901 2013/11/27)

>  <Rbt.Parameter_File>
/export/apps/rDock/src/rDock_2013.1_src/data/scripts/dock_solv.prm

>  <Rbt.Receptor>
prm/pocket_docking_3.prm

>  <SCORE>
-1.57508

>  <SCORE.INTER>
7.86289

>  <SCORE.INTER.CONST>
1

>  <SCORE.INTER.POLAR>
0

>  <SCORE.INTER.ROT>
11

>  <SCORE.INTER.SOLV>
5.16335

>  <SCORE.INTER.VDW>
-7.41252

>  <SCORE.INTER.norm>
0.561635

>  <SCORE.INTRA>
-9.4393

>  <SCORE.INTRA.DIHEDRAL>
-16.1353

>  <SCORE.INTRA.DIHEDRAL.0>
17.5233

>  <SCORE.INTRA.POLAR>
0

>  <SCORE.INTRA.POLAR.0>
0

>  <SCORE.INTRA.REPUL>
0

>  <SCORE.INTRA.REPUL.0>
0

>  <SCORE.INTRA.SOLV>
-1.55337

>  <SCORE.INTRA.SOLV.lig_0>
-46.1043

>  <SCORE.INTRA.VDW>
-0.594945

>  <SCORE.INTRA.VDW.0>
-0.545445

>  <SCORE.INTRA.norm>
-0.674235

>  <SCORE.RESTR>
0.0013229

>  <SCORE.RESTR.CAVITY>
0.0013229

>  <SCORE.RESTR.norm>
9.4493e-05

>  <SCORE.SYSTEM>
0

>  <SCORE.SYSTEM.CONST>
0

>  <SCORE.SYSTEM.DIHEDRAL>
0

>  <SCORE.SYSTEM.SOLV>
0

>  <SCORE.SYSTEM.norm>
0

>  <SCORE.heavy>
14

>  <SCORE.norm>
-0.112506

>  <RMSD>
2.472

$$$$
ligand
 OpenBabel11021811513D
libRbt.so/2013.1/901 2013/11/27
 14 13  0  0  0  0  0  0  0  0999 V2000
   32.5194   43.6775   37.0093 N   0  0  0  0  0  0  0  0  0  0  0  0
   31.6602   44.2031   38.0579 C   0  0  0  0  0  0  0  0  0  0  0  0
   31.7404   45.7255   38.0958 C   0  0  0  0  0  0  0  0  0  0  0  0
   30.8685   46.2948   39.2093 C   0  0  0  0  0  0  0  0  0  0  0  0
   30.8309   47.7542   39.2112 N   0  0  0  0  0  0  0  0  0  0  0  0
   29.5773   48.4627   39.4070 C   0  0  0  0  0  0  0  0  0  0  0  0
   29.6494   49.9231   38.9745 C   0  0  0  0  0  0  0  0  0  0  0  0
   28.3010   50.5997   39.1944 C   0  0  0  0  0  0  0  0  0  0  0  0
   27.3166   50.1509   38.1199 C   0  0  0  0  0  0  0  0  0  0  0  0
   25.9866   50.6936   38.3370 N   0  0  0  0  0  0  0  0  0  0  0  0
   25.0022   49.9060   39.0672 C   0  0  0  0  0  0  0  0  0  0  0  0
   25.1298   49.9752   40.5875 C   0  0  0  0  0  0  0  0  0  0  0  0
   24.7062   51.3517   41.1029 C   0  0  0  0  0  0  0  0  0  0  0  0
   24.7627   51.3842   42.5544 N   0  0  0  0  0  0  0  0  0  0  0  0
  1  2  1  0  0  0  0
  2  3  1  0  0  0  0
  3  4  1  0  0  0  0
  4  5  1  0  0  0  0
  5  6  1  0  0  0  0
  6  7  1  0  0  0  0
  7  8  1  0  0  0  0
  8  9  1  0  0  0  0
  9 10  1  0  0  0  0
 10 11  1  0  0  0  0
 11 12  1  0  0  0  0
 12 13  1  0  0  0  0
 13 14  1  0  0  0  0
M  END
>  <CHROM.1>
-178.79109969,-175.30346618,136.56442406,-162.95002977,179.46426517,-75.02303067
175.95401104,-94.07717701,81.54804829,70.90462959,176.95661310,28.43219535
48.57880997,39.20914182,0.30977544,-0.71187028,2.42160752

>  <Name>
ligand

>  <RI>
0

>  <Rbt.Current_Directory>
/home/itssahil/PROJECTS/Mol_Feturizer/New_Systems/rnas/4P5J

>  <Rbt.Executable>
rbdock ($Id: //depot/dev/client3/rdock/2013.1/src/exe/rbdock.cxx#4 $)

>  <Rbt.Library>
libRbt.so (2013.1, Build901 2013/11/27)

>  <Rbt.Parameter_File>
/export/apps/rDock/src/rDock_2013.1_src/data/scripts/dock_solv.prm

>  <Rbt.Receptor>
prm/pocket_docking_3.prm

>  <SCORE>
-0.567884

>  <SCORE.INTER>
7.64043

>  <SCORE.INTER.CONST>
1

>  <SCORE.INTER.POLAR>
0

>  <SCORE.INTER.ROT>
11

>  <SCORE.INTER.SOLV>
3.98921

>  <SCORE.INTER.VDW>
-7.16945

>  <SCORE.INTER.norm>
0.545745

>  <SCORE.INTRA>
-8.21658

>  <SCORE.INTRA.DIHEDRAL>
-13.7184

>  <SCORE.INTRA.DIHEDRAL.0>
17.5233

>  <SCORE.INTRA.POLAR>
0

>  <SCORE.INTRA.POLAR.0>
0

>  <SCORE.INTRA.REPUL>
0

>  <SCORE.INTRA.REPUL.0>
0

>  <SCORE.INTRA.SOLV>
-2.21605

>  <SCORE.INTRA.SOLV.lig_0>
-46.1043

>  <SCORE.INTRA.VDW>
-0.249363

>  <SCORE.INTRA.VDW.0>
-0.545445

>  <SCORE.INTRA.norm>
-0.586898

>  <SCORE.RESTR>
0.00826171

>  <SCORE.RESTR.CAVITY>
0.00826171

>  <SCORE.RESTR.norm>
0.000590122

>  <SCORE.SYSTEM>
0

>  <SCORE.SYSTEM.CONST>
0

>  <SCORE.SYSTEM.DIHEDRAL>
0

>  <SCORE.SYSTEM.SOLV>
0

>  <SCORE.SYSTEM.norm>
0

>  <SCORE.heavy>
14

>  <SCORE.norm>
-0.0405631

>  <RMSD>
2.487

$$$$
ligand
 OpenBabel11021811513D
libRbt.so/2013.1/901 2013/11/27
 14 13  0  0  0  0  0  0  0  0999 V2000
   24.4838   50.1651   40.3674 N   0  0  0  0  0  0  0  0  0  0  0  0
   24.6502   51.2666   39.4331 C   0  0  0  0  0  0  0  0  0  0  0  0
   26.1307   51.5145   39.1638 C   0  0  0  0  0  0  0  0  0  0  0  0
   26.7420   50.3734   38.3585 C   0  0  0  0  0  0  0  0  0  0  0  0
   28.1506   50.5916   38.0435 N   0  0  0  0  0  0  0  0  0  0  0  0
   28.8262   49.7641   37.0583 C   0  0  0  0  0  0  0  0  0  0  0  0
   30.3201   49.6230   37.3287 C   0  0  0  0  0  0  0  0  0  0  0  0
   30.9551   48.7092   36.2865 C   0  0  0  0  0  0  0  0  0  0  0  0
   32.4354   48.5195   36.5992 C   0  0  0  0  0  0  0  0  0  0  0  0
   32.6488   48.0118   37.9436 N   0  0  0  0  0  0  0  0  0  0  0  0
   32.5465   46.5801   38.1929 C   0  0  0  0  0  0  0  0  0  0  0  0
   31.1322   46.0820   38.4827 C   0  0  0  0  0  0  0  0  0  0  0  0
   30.5529   46.7858   39.7111 C   0  0  0  0  0  0  0  0  0  0  0  0
   31.3031   46.4200   40.9004 N   0  0  0  0  0  0  0  0  0  0  0  0
  1  2  1  0  0  0  0
  2  3  1  0  0  0  0
  3  4  1  0  0  0  0
  4  5  1  0  0  0  0
  5  6  1  0  0  0  0
  6  7  1  0  0  0  0
  7  8  1  0  0  0  0
  8  9  1  0  0  0  0
  9 10  1  0  0  0  0
 10 11  1  0  0  0  0
 11 12  1  0  0  0  0
 12 13  1  0  0  0  0
 13 14  1  0  0  0  0
M  END
>  <CHROM.1>
69.43357227,178.22827932,-167.06079367,-151.30349343,178.19138402,-177.37657650
55.86383273,83.20545772,-86.24537912,-59.15250070,-65.59008462,29.34848919
48.88622306,38.41889411,2.93284646,0.49533054,-0.86691191

>  <Name>
ligand

>  <RI>
0

>  <Rbt.Current_Directory>
/home/itssahil/PROJECTS/Mol_Feturizer/New_Systems/rnas/4P5J

>  <Rbt.Executable>
rbdock ($Id: //depot/dev/client3/rdock/2013.1/src/exe/rbdock.cxx#4 $)

>  <Rbt.Library>
libRbt.so (2013.1, Build901 2013/11/27)

>  <Rbt.Parameter_File>
/export/apps/rDock/src/rDock_2013.1_src/data/scripts/dock_solv.prm

>  <Rbt.Receptor>
prm/pocket_docking_3.prm

>  <SCORE>
0.756834

>  <SCORE.INTER>
8.77359

>  <SCORE.INTER.CONST>
1

>  <SCORE.INTER.POLAR>
0

>  <SCORE.INTER.ROT>
11

>  <SCORE.INTER.SOLV>
3.21083

>  <SCORE.INTER.VDW>
-6.15455

>  <SCORE.INTER.norm>
0.626685

>  <SCORE.INTRA>
-8.01676

>  <SCORE.INTRA.DIHEDRAL>
-15.3903

>  <SCORE.INTRA.DIHEDRAL.0>
17.5233

>  <SCORE.INTRA.POLAR>
0

>  <SCORE.INTRA.POLAR.0>
0

>  <SCORE.INTRA.REPUL>
0

>  <SCORE.INTRA.REPUL.0>
0

>  <SCORE.INTRA.SOLV>
0.210872

>  <SCORE.INTRA.SOLV.lig_0>
-46.1043

>  <SCORE.INTRA.VDW>
-0.427025

>  <SCORE.INTRA.VDW.0>
-0.545445

>  <SCORE.INTRA.norm>
-0.572626

>  <SCORE.RESTR>
0

>  <SCORE.RESTR.CAVITY>
0

>  <SCORE.RESTR.norm>
0

>  <SCORE.SYSTEM>
0

>  <SCORE.SYSTEM.CONST>
0

>  <SCORE.SYSTEM.DIHEDRAL>
0

>  <SCORE.SYSTEM.SOLV>
0

>  <SCORE.SYSTEM.norm>
0

>  <SCORE.heavy>
14

>  <SCORE.norm>
0.0540596

>  <RMSD>
2.487

$$$$
ligand
 OpenBabel11021811513D
libRbt.so/2013.1/901 2013/11/27
 14 13  0  0  0  0  0  0  0  0999 V2000
   32.6543   45.6730   39.9803 N   0  0  0  0  0  0  0  0  0  0  0  0
   31.3190   45.7571   39.4113 C   0  0  0  0  0  0  0  0  0  0  0  0
   31.2829   45.0868   38.0419 C   0  0  0  0  0  0  0  0  0  0  0  0
   32.1149   45.8630   37.0273 C   0  0  0  0  0  0  0  0  0  0  0  0
   31.5992   47.2058   36.7784 N   0  0  0  0  0  0  0  0  0  0  0  0
   31.9572   47.9242   35.5670 C   0  0  0  0  0  0  0  0  0  0  0  0
   31.7249   49.4269   35.6797 C   0  0  0  0  0  0  0  0  0  0  0  0
   30.2332   49.7166   35.8038 C   0  0  0  0  0  0  0  0  0  0  0  0
   29.7810   49.4901   37.2422 C   0  0  0  0  0  0  0  0  0  0  0  0
   28.3757   49.8074   37.4292 N   0  0  0  0  0  0  0  0  0  0  0  0
   27.7600   49.5915   38.7318 C   0  0  0  0  0  0  0  0  0  0  0  0
   26.3143   50.0713   38.8420 C   0  0  0  0  0  0  0  0  0  0  0  0
   25.7683   49.8220   40.2490 C   0  0  0  0  0  0  0  0  0  0  0  0
   24.4072   50.3193   40.3554 N   0  0  0  0  0  0  0  0  0  0  0  0
  1  2  1  0  0  0  0
  2  3  1  0  0  0  0
  3  4  1  0  0  0  0
  4  5  1  0  0  0  0
  5  6  1  0  0  0  0
  6  7  1  0  0  0  0
  7  8  1  0  0  0  0
  8  9  1  0  0  0  0
  9 10  1  0  0  0  0
 10 11  1  0  0  0  0
 11 12  1  0  0  0  0
 12 13  1  0  0  0  0
 13 14  1  0  0  0  0
M  END
>  <CHROM.1>
-67.34904735,-63.50609192,-159.55834403,-161.06103998,-66.32423859,80.40340456
177.55411592,177.27912977,175.01715148,-179.05380214,178.23660476,29.66388634
48.26821802,37.93823561,0.12241767,-0.58233801,2.30731442

>  <Name>
ligand

>  <RI>
0

>  <Rbt.Current_Directory>
/home/itssahil/PROJECTS/Mol_Feturizer/New_Systems/rnas/4P5J

>  <Rbt.Executable>
rbdock ($Id: //depot/dev/client3/rdock/2013.1/src/exe/rbdock.cxx#4 $)

>  <Rbt.Library>
libRbt.so (2013.1, Build901 2013/11/27)

>  <Rbt.Parameter_File>
/export/apps/rDock/src/rDock_2013.1_src/data/scripts/dock_solv.prm

>  <Rbt.Receptor>
prm/pocket_docking_3.prm

>  <SCORE>
-1.35621

>  <SCORE.INTER>
6.33691

>  <SCORE.INTER.CONST>
1

>  <SCORE.INTER.POLAR>
0

>  <SCORE.INTER.ROT>
11

>  <SCORE.INTER.SOLV>
5.69313

>  <SCORE.INTER.VDW>
-8.60644

>  <SCORE.INTER.norm>
0.452637

>  <SCORE.INTRA>
-7.69312

>  <SCORE.INTRA.DIHEDRAL>
-14.891

>  <SCORE.INTRA.DIHEDRAL.0>
17.5233

>  <SCORE.INTRA.POLAR>
0

>  <SCORE.INTRA.POLAR.0>
0

>  <SCORE.INTRA.REPUL>
0

>  <SCORE.INTRA.REPUL.0>
0

>  <SCORE.INTRA.SOLV>
0.0176578

>  <SCORE.INTRA.SOLV.lig_0>
-46.1043

>  <SCORE.INTRA.VDW>
-0.256453

>  <SCORE.INTRA.VDW.0>
-0.545445

>  <SCORE.INTRA.norm>
-0.549509

>  <SCORE.RESTR>
0

>  <SCORE.RESTR.CAVITY>
0

>  <SCORE.RESTR.norm>
0

>  <SCORE.SYSTEM>
0

>  <SCORE.SYSTEM.CONST>
0

>  <SCORE.SYSTEM.DIHEDRAL>
0

>  <SCORE.SYSTEM.SOLV>
0

>  <SCORE.SYSTEM.norm>
0

>  <SCORE.heavy>
14

>  <SCORE.norm>
-0.0968722

>  <RMSD>
2.498

$$$$
ligand
 OpenBabel11021811513D
libRbt.so/2013.1/901 2013/11/27
 14 13  0  0  0  0  0  0  0  0999 V2000
   32.3863   41.9436   37.9945 N   0  0  0  0  0  0  0  0  0  0  0  0
   33.0079   43.2353   37.7513 C   0  0  0  0  0  0  0  0  0  0  0  0
   31.9445   44.2893   37.4611 C   0  0  0  0  0  0  0  0  0  0  0  0
   32.5792   45.6397   37.1485 C   0  0  0  0  0  0  0  0  0  0  0  0
   31.5944   46.6722   36.8397 N   0  0  0  0  0  0  0  0  0  0  0  0
   32.0173   48.0135   36.4738 C   0  0  0  0  0  0  0  0  0  0  0  0
   30.8478   48.9287   36.1279 C   0  0  0  0  0  0  0  0  0  0  0  0
   29.9664   49.1355   37.3546 C   0  0  0  0  0  0  0  0  0  0  0  0
   28.7412   49.9609   36.9770 C   0  0  0  0  0  0  0  0  0  0  0  0
   27.8521   50.1669   38.1073 N   0  0  0  0  0  0  0  0  0  0  0  0
   26.6040   50.8931   37.9135 C   0  0  0  0  0  0  0  0  0  0  0  0
   25.7297   51.0041   39.1608 C   0  0  0  0  0  0  0  0  0  0  0  0
   24.4635   51.8088   38.8628 C   0  0  0  0  0  0  0  0  0  0  0  0
   23.6640   51.9523   40.0676 N   0  0  0  0  0  0  0  0  0  0  0  0
  1  2  1  0  0  0  0
  2  3  1  0  0  0  0
  3  4  1  0  0  0  0
  4  5  1  0  0  0  0
  5  6  1  0  0  0  0
  6  7  1  0  0  0  0
  7  8  1  0  0  0  0
  8  9  1  0  0  0  0
  9 10  1  0  0  0  0
 10 11  1  0  0  0  0
 11 12  1  0  0  0  0
 12 13  1  0  0  0  0
 13 14  1  0  0  0  0
M  END
>  <CHROM.1>
-177.74265695,178.91713715,-177.97810718,177.40876666,64.08463925,-175.59404984
178.92443151,-177.67778417,177.93181423,178.66919686,-177.81851263,29.38580386
48.11759593,37.73123871,0.63732375,-0.51892233,2.75972850

>  <Name>
ligand

>  <RI>
0

>  <Rbt.Current_Directory>
/home/itssahil/PROJECTS/Mol_Feturizer/New_Systems/rnas/4P5J

>  <Rbt.Executable>
rbdock ($Id: //depot/dev/client3/rdock/2013.1/src/exe/rbdock.cxx#4 $)

>  <Rbt.Library>
libRbt.so (2013.1, Build901 2013/11/27)

>  <Rbt.Parameter_File>
/export/apps/rDock/src/rDock_2013.1_src/data/scripts/dock_solv.prm

>  <Rbt.Receptor>
prm/pocket_docking_3.prm

>  <SCORE>
-1.28117

>  <SCORE.INTER>
9.19897

>  <SCORE.INTER.CONST>
1

>  <SCORE.INTER.POLAR>
0

>  <SCORE.INTER.ROT>
11

>  <SCORE.INTER.SOLV>
4.60588

>  <SCORE.INTER.VDW>
-6.33598

>  <SCORE.INTER.norm>
0.65707

>  <SCORE.INTRA>
-10.4801

>  <SCORE.INTRA.DIHEDRAL>
-17.3098

>  <SCORE.INTRA.DIHEDRAL.0>
17.5233

>  <SCORE.INTRA.POLAR>
0

>  <SCORE.INTRA.POLAR.0>
0

>  <SCORE.INTRA.REPUL>
0

>  <SCORE.INTRA.REPUL.0>
0

>  <SCORE.INTRA.SOLV>
-2.32008

>  <SCORE.INTRA.SOLV.lig_0>
-46.1043

>  <SCORE.INTRA.VDW>
-0.665216

>  <SCORE.INTRA.VDW.0>
-0.545445

>  <SCORE.INTRA.norm>
-0.748581

>  <SCORE.RESTR>
0

>  <SCORE.RESTR.CAVITY>
0

>  <SCORE.RESTR.norm>
0

>  <SCORE.SYSTEM>
0

>  <SCORE.SYSTEM.CONST>
0

>  <SCORE.SYSTEM.DIHEDRAL>
0

>  <SCORE.SYSTEM.SOLV>
0

>  <SCORE.SYSTEM.norm>
0

>  <SCORE.heavy>
14

>  <SCORE.norm>
-0.0915118

>  <RMSD>
2.502

$$$$
ligand
 OpenBabel11021811513D
libRbt.so/2013.1/901 2013/11/27
 14 13  0  0  0  0  0  0  0  0999 V2000
   32.2880   43.2711   37.0580 N   0  0  0  0  0  0  0  0  0  0  0  0
   31.6054   44.5547   37.0348 C   0  0  0  0  0  0  0  0  0  0  0  0
   32.4077   45.5960   37.8079 C   0  0  0  0  0  0  0  0  0  0  0  0
   31.7541   46.9705   37.7201 C   0  0  0  0  0  0  0  0  0  0  0  0
   31.6922   47.4838   36.3549 N   0  0  0  0  0  0  0  0  0  0  0  0
   31.6570   48.9145   36.1022 C   0  0  0  0  0  0  0  0  0  0  0  0
   30.2388   49.4726   36.0576 C   0  0  0  0  0  0  0  0  0  0  0  0
   29.6095   49.4101   37.4448 C   0  0  0  0  0  0  0  0  0  0  0  0
   28.1952   49.9781   37.3965 C   0  0  0  0  0  0  0  0  0  0  0  0
   27.5299   49.8972   38.6854 N   0  0  0  0  0  0  0  0  0  0  0  0
   26.0805   50.0283   38.7525 C   0  0  0  0  0  0  0  0  0  0  0  0
   25.4715   49.6936   40.1124 C   0  0  0  0  0  0  0  0  0  0  0  0
   26.0321   50.6154   41.1968 C   0  0  0  0  0  0  0  0  0  0  0  0
   25.4687   50.2700   42.4908 N   0  0  0  0  0  0  0  0  0  0  0  0
  1  2  1  0  0  0  0
  2  3  1  0  0  0  0
  3  4  1  0  0  0  0
  4  5  1  0  0  0  0
  5  6  1  0  0  0  0
  6  7  1  0  0  0  0
  7  8  1  0  0  0  0
  8  9  1  0  0  0  0
  9 10  1  0  0  0  0
 10 11  1  0  0  0  0
 11 12  1  0  0  0  0
 12 13  1  0  0  0  0
 13 14  1  0  0  0  0
M  END
>  <CHROM.1>
176.35459611,-62.50773107,-153.56355159,-89.83272611,68.21620621,179.61364158
177.88670408,-162.59088812,170.12533993,59.97275468,-178.76383674,29.28791397
48.29710329,38.15799303,0.22390712,-0.73526713,2.55441779

>  <Name>
ligand

>  <RI>
0

>  <Rbt.Current_Directory>
/home/itssahil/PROJECTS/Mol_Feturizer/New_Systems/rnas/4P5J

>  <Rbt.Executable>
rbdock ($Id: //depot/dev/client3/rdock/2013.1/src/exe/rbdock.cxx#4 $)

>  <Rbt.Library>
libRbt.so (2013.1, Build901 2013/11/27)

>  <Rbt.Parameter_File>
/export/apps/rDock/src/rDock_2013.1_src/data/scripts/dock_solv.prm

>  <Rbt.Receptor>
prm/pocket_docking_3.prm

>  <SCORE>
-2.07222

>  <SCORE.INTER>
6.98004

>  <SCORE.INTER.CONST>
1

>  <SCORE.INTER.POLAR>
0

>  <SCORE.INTER.ROT>
11

>  <SCORE.INTER.SOLV>
4.2119

>  <SCORE.INTER.VDW>
-7.68394

>  <SCORE.INTER.norm>
0.498575

>  <SCORE.INTRA>
-9.05227

>  <SCORE.INTRA.DIHEDRAL>
-15.7803

>  <SCORE.INTRA.DIHEDRAL.0>
17.5233

>  <SCORE.INTRA.POLAR>
0

>  <SCORE.INTRA.POLAR.0>
0

>  <SCORE.INTRA.REPUL>
0

>  <SCORE.INTRA.REPUL.0>
0

>  <SCORE.INTRA.SOLV>
-1.5712

>  <SCORE.INTRA.SOLV.lig_0>
-46.1043

>  <SCORE.INTRA.VDW>
-0.376527

>  <SCORE.INTRA.VDW.0>
-0.545445

>  <SCORE.INTRA.norm>
-0.64659

>  <SCORE.RESTR>
0

>  <SCORE.RESTR.CAVITY>
0

>  <SCORE.RESTR.norm>
0

>  <SCORE.SYSTEM>
0

>  <SCORE.SYSTEM.CONST>
0

>  <SCORE.SYSTEM.DIHEDRAL>
0

>  <SCORE.SYSTEM.SOLV>
0

>  <SCORE.SYSTEM.norm>
0

>  <SCORE.heavy>
14

>  <SCORE.norm>
-0.148016

>  <RMSD>
2.502

$$$$
ligand
 OpenBabel11021811513D
libRbt.so/2013.1/901 2013/11/27
 14 13  0  0  0  0  0  0  0  0999 V2000
   33.7984   42.6630   39.2965 N   0  0  0  0  0  0  0  0  0  0  0  0
   32.5655   43.3264   38.9041 C   0  0  0  0  0  0  0  0  0  0  0  0
   32.8583   44.4433   37.9078 C   0  0  0  0  0  0  0  0  0  0  0  0
   31.5776   45.1565   37.4888 C   0  0  0  0  0  0  0  0  0  0  0  0
   31.8136   46.2294   36.5274 N   0  0  0  0  0  0  0  0  0  0  0  0
   32.3866   47.4946   36.9551 C   0  0  0  0  0  0  0  0  0  0  0  0
   31.3286   48.5275   37.3270 C   0  0  0  0  0  0  0  0  0  0  0  0
   30.5622   48.9610   36.0823 C   0  0  0  0  0  0  0  0  0  0  0  0
   29.4950   49.9817   36.4622 C   0  0  0  0  0  0  0  0  0  0  0  0
   28.5412   49.4445   37.4174 N   0  0  0  0  0  0  0  0  0  0  0  0
   27.5665   50.3348   38.0337 C   0  0  0  0  0  0  0  0  0  0  0  0
   26.7523   49.7065   39.1627 C   0  0  0  0  0  0  0  0  0  0  0  0
   25.8477   50.7494   39.8213 C   0  0  0  0  0  0  0  0  0  0  0  0
   24.8820   51.2556   38.8609 N   0  0  0  0  0  0  0  0  0  0  0  0
  1  2  1  0  0  0  0
  2  3  1  0  0  0  0
  3  4  1  0  0  0  0
  4  5  1  0  0  0  0
  5  6  1  0  0  0  0
  6  7  1  0  0  0  0
  7  8  1  0  0  0  0
  8  9  1  0  0  0  0
  9 10  1  0  0  0  0
 10 11  1  0  0  0  0
 11 12  1  0  0  0  0
 12 13  1  0  0  0  0
 13 14  1  0  0  0  0
M  END
>  <CHROM.1>
-179.71980295,-179.64350500,-75.14843371,-91.97748676,-68.04538355,179.34559872
-59.75346529,171.40781091,-171.63393337,175.13022942,62.91073560,29.99836374
47.73400550,37.87472140,0.55321655,-0.59531039,2.47158954

>  <Name>
ligand

>  <RI>
0

>  <Rbt.Current_Directory>
/home/itssahil/PROJECTS/Mol_Feturizer/New_Systems/rnas/4P5J

>  <Rbt.Executable>
rbdock ($Id: //depot/dev/client3/rdock/2013.1/src/exe/rbdock.cxx#4 $)

>  <Rbt.Library>
libRbt.so (2013.1, Build901 2013/11/27)

>  <Rbt.Parameter_File>
/export/apps/rDock/src/rDock_2013.1_src/data/scripts/dock_solv.prm

>  <Rbt.Receptor>
prm/pocket_docking_3.prm

>  <SCORE>
-0.203256

>  <SCORE.INTER>
8.55341

>  <SCORE.INTER.CONST>
1

>  <SCORE.INTER.POLAR>
0

>  <SCORE.INTER.ROT>
11

>  <SCORE.INTER.SOLV>
5.5799

>  <SCORE.INTER.VDW>
-7.09103

>  <SCORE.INTER.norm>
0.610958

>  <SCORE.INTRA>
-8.75666

>  <SCORE.INTRA.DIHEDRAL>
-16.2005

>  <SCORE.INTRA.DIHEDRAL.0>
17.5233

>  <SCORE.INTRA.POLAR>
0

>  <SCORE.INTRA.POLAR.0>
0

>  <SCORE.INTRA.REPUL>
0

>  <SCORE.INTRA.REPUL.0>
0

>  <SCORE.INTRA.SOLV>
-1.11374

>  <SCORE.INTRA.SOLV.lig_0>
-46.1043

>  <SCORE.INTRA.VDW>
-0.0995172

>  <SCORE.INTRA.VDW.0>
-0.545445

>  <SCORE.INTRA.norm>
-0.625476

>  <SCORE.RESTR>
0

>  <SCORE.RESTR.CAVITY>
0

>  <SCORE.RESTR.norm>
0

>  <SCORE.SYSTEM>
0

>  <SCORE.SYSTEM.CONST>
0

>  <SCORE.SYSTEM.DIHEDRAL>
0

>  <SCORE.SYSTEM.SOLV>
0

>  <SCORE.SYSTEM.norm>
0

>  <SCORE.heavy>
14

>  <SCORE.norm>
-0.0145183

>  <RMSD>
2.512

$$$$
ligand
 OpenBabel11021811513D
libRbt.so/2013.1/901 2013/11/27
 14 13  0  0  0  0  0  0  0  0999 V2000
   24.9427   50.2732   40.8791 N   0  0  0  0  0  0  0  0  0  0  0  0
   24.4635   50.2427   39.5068 C   0  0  0  0  0  0  0  0  0  0  0  0
   25.4716   50.9112   38.5781 C   0  0  0  0  0  0  0  0  0  0  0  0
   26.7551   50.0943   38.4798 C   0  0  0  0  0  0  0  0  0  0  0  0
   27.7590   50.7151   37.6209 N   0  0  0  0  0  0  0  0  0  0  0  0
   28.7478   49.9037   36.9310 C   0  0  0  0  0  0  0  0  0  0  0  0
   29.9877   49.6359   37.7769 C   0  0  0  0  0  0  0  0  0  0  0  0
   29.6144   48.8111   39.0037 C   0  0  0  0  0  0  0  0  0  0  0  0
   30.8654   48.5032   39.8193 C   0  0  0  0  0  0  0  0  0  0  0  0
   30.5600   47.7532   41.0254 N   0  0  0  0  0  0  0  0  0  0  0  0
   30.1177   46.3694   40.9153 C   0  0  0  0  0  0  0  0  0  0  0  0
   31.2405   45.3547   40.7107 C   0  0  0  0  0  0  0  0  0  0  0  0
   31.8086   45.4563   39.2941 C   0  0  0  0  0  0  0  0  0  0  0  0
   32.8134   44.4287   39.0806 N   0  0  0  0  0  0  0  0  0  0  0  0
  1  2  1  0  0  0  0
  2  3  1  0  0  0  0
  3  4  1  0  0  0  0
  4  5  1  0  0  0  0
  5  6  1  0  0  0  0
  6  7  1  0  0  0  0
  7  8  1  0  0  0  0
  8  9  1  0  0  0  0
  9 10  1  0  0  0  0
 10 11  1  0  0  0  0
 11 12  1  0  0  0  0
 12 13  1  0  0  0  0
 13 14  1  0  0  0  0
M  END
>  <CHROM.1>
67.76419888,-178.78562436,-152.69772039,-87.13303084,64.02150971,177.95452129
178.17366310,69.51676275,80.67327059,-72.64671471,-176.20862410,28.93907292
48.46097492,39.25852232,2.63036805,0.49197297,-0.89427347

>  <Name>
ligand

>  <RI>
0

>  <Rbt.Current_Directory>
/home/itssahil/PROJECTS/Mol_Feturizer/New_Systems/rnas/4P5J

>  <Rbt.Executable>
rbdock ($Id: //depot/dev/client3/rdock/2013.1/src/exe/rbdock.cxx#4 $)

>  <Rbt.Library>
libRbt.so (2013.1, Build901 2013/11/27)

>  <Rbt.Parameter_File>
/export/apps/rDock/src/rDock_2013.1_src/data/scripts/dock_solv.prm

>  <Rbt.Receptor>
prm/pocket_docking_3.prm

>  <SCORE>
-0.381001

>  <SCORE.INTER>
7.36024

>  <SCORE.INTER.CONST>
1

>  <SCORE.INTER.POLAR>
0

>  <SCORE.INTER.ROT>
11

>  <SCORE.INTER.SOLV>
4.41667

>  <SCORE.INTER.VDW>
-7.49873

>  <SCORE.INTER.norm>
0.525731

>  <SCORE.INTRA>
-7.74124

>  <SCORE.INTRA.DIHEDRAL>
-15.1469

>  <SCORE.INTRA.DIHEDRAL.0>
17.5233

>  <SCORE.INTRA.POLAR>
0

>  <SCORE.INTRA.POLAR.0>
0

>  <SCORE.INTRA.REPUL>
0

>  <SCORE.INTRA.REPUL.0>
0

>  <SCORE.INTRA.SOLV>
-1.18618

>  <SCORE.INTRA.SOLV.lig_0>
-46.1043

>  <SCORE.INTRA.VDW>
0.425291

>  <SCORE.INTRA.VDW.0>
-0.545445

>  <SCORE.INTRA.norm>
-0.552946

>  <SCORE.RESTR>
0

>  <SCORE.RESTR.CAVITY>
0

>  <SCORE.RESTR.norm>
0

>  <SCORE.SYSTEM>
0

>  <SCORE.SYSTEM.CONST>
0

>  <SCORE.SYSTEM.DIHEDRAL>
0

>  <SCORE.SYSTEM.SOLV>
0

>  <SCORE.SYSTEM.norm>
0

>  <SCORE.heavy>
14

>  <SCORE.norm>
-0.0272143

>  <RMSD>
2.526

$$$$
ligand
 OpenBabel11021811513D
libRbt.so/2013.1/901 2013/11/27
 14 13  0  0  0  0  0  0  0  0999 V2000
   24.6800   51.4052   43.3053 N   0  0  0  0  0  0  0  0  0  0  0  0
   25.3333   50.4800   42.3936 C   0  0  0  0  0  0  0  0  0  0  0  0
   24.9051   50.7601   40.9569 C   0  0  0  0  0  0  0  0  0  0  0  0
   25.5698   49.7909   39.9858 C   0  0  0  0  0  0  0  0  0  0  0  0
   27.0256   49.9001   39.9818 N   0  0  0  0  0  0  0  0  0  0  0  0
   27.7801   49.7002   38.7560 C   0  0  0  0  0  0  0  0  0  0  0  0
   29.2274   49.2944   39.0118 C   0  0  0  0  0  0  0  0  0  0  0  0
   29.2726   47.9757   39.7755 C   0  0  0  0  0  0  0  0  0  0  0  0
   30.6764   47.3848   39.7031 C   0  0  0  0  0  0  0  0  0  0  0  0
   31.0887   47.1229   38.3349 N   0  0  0  0  0  0  0  0  0  0  0  0
   31.9158   45.9586   38.0467 C   0  0  0  0  0  0  0  0  0  0  0  0
   31.1360   44.6812   37.7427 C   0  0  0  0  0  0  0  0  0  0  0  0
   32.0844   43.5563   37.3242 C   0  0  0  0  0  0  0  0  0  0  0  0
   32.9901   43.2313   38.4129 N   0  0  0  0  0  0  0  0  0  0  0  0
  1  2  1  0  0  0  0
  2  3  1  0  0  0  0
  3  4  1  0  0  0  0
  4  5  1  0  0  0  0
  5  6  1  0  0  0  0
  6  7  1  0  0  0  0
  7  8  1  0  0  0  0
  8  9  1  0  0  0  0
  9 10  1  0  0  0  0
 10 11  1  0  0  0  0
 11 12  1  0  0  0  0
 12 13  1  0  0  0  0
 13 14  1  0  0  0  0
M  END
>  <CHROM.1>
-179.46066787,-61.94953763,-145.45439573,-156.73272406,60.91092844,164.79836950
-60.08996182,-144.49609804,89.12884829,174.58464555,62.71090291,28.83462088
47.94585026,39.55204540,3.00713776,0.80383088,-0.86038750

>  <Name>
ligand

>  <RI>
0

>  <Rbt.Current_Directory>
/home/itssahil/PROJECTS/Mol_Feturizer/New_Systems/rnas/4P5J

>  <Rbt.Executable>
rbdock ($Id: //depot/dev/client3/rdock/2013.1/src/exe/rbdock.cxx#4 $)

>  <Rbt.Library>
libRbt.so (2013.1, Build901 2013/11/27)

>  <Rbt.Parameter_File>
/export/apps/rDock/src/rDock_2013.1_src/data/scripts/dock_solv.prm

>  <Rbt.Receptor>
prm/pocket_docking_3.prm

>  <SCORE>
0.19551

>  <SCORE.INTER>
7.77226

>  <SCORE.INTER.CONST>
1

>  <SCORE.INTER.POLAR>
0

>  <SCORE.INTER.ROT>
11

>  <SCORE.INTER.SOLV>
4.79801

>  <SCORE.INTER.VDW>
-7.35116

>  <SCORE.INTER.norm>
0.555162

>  <SCORE.INTRA>
-7.57675

>  <SCORE.INTRA.DIHEDRAL>
-13.97

>  <SCORE.INTRA.DIHEDRAL.0>
17.5233

>  <SCORE.INTRA.POLAR>
0

>  <SCORE.INTRA.POLAR.0>
0

>  <SCORE.INTRA.REPUL>
0

>  <SCORE.INTRA.REPUL.0>
0

>  <SCORE.INTRA.SOLV>
-0.691272

>  <SCORE.INTRA.SOLV.lig_0>
-46.1043

>  <SCORE.INTRA.VDW>
-0.246121

>  <SCORE.INTRA.VDW.0>
-0.545445

>  <SCORE.INTRA.norm>
-0.541197

>  <SCORE.RESTR>
0

>  <SCORE.RESTR.CAVITY>
0

>  <SCORE.RESTR.norm>
0

>  <SCORE.SYSTEM>
0

>  <SCORE.SYSTEM.CONST>
0

>  <SCORE.SYSTEM.DIHEDRAL>
0

>  <SCORE.SYSTEM.SOLV>
0

>  <SCORE.SYSTEM.norm>
0

>  <SCORE.heavy>
14

>  <SCORE.norm>
0.013965

>  <RMSD>
2.528

$$$$
ligand
 OpenBabel11021811513D
libRbt.so/2013.1/901 2013/11/27
 14 13  0  0  0  0  0  0  0  0999 V2000
   24.3491   51.6585   41.2920 N   0  0  0  0  0  0  0  0  0  0  0  0
   25.2689   51.5476   40.1715 C   0  0  0  0  0  0  0  0  0  0  0  0
   25.1776   50.1598   39.5458 C   0  0  0  0  0  0  0  0  0  0  0  0
   26.1885   49.9980   38.4162 C   0  0  0  0  0  0  0  0  0  0  0  0
   27.5704   50.1322   38.8673 N   0  0  0  0  0  0  0  0  0  0  0  0
   28.2440   49.0279   39.5297 C   0  0  0  0  0  0  0  0  0  0  0  0
   29.7537   49.2230   39.6175 C   0  0  0  0  0  0  0  0  0  0  0  0
   30.3736   48.1213   40.4699 C   0  0  0  0  0  0  0  0  0  0  0  0
   30.3510   46.8022   39.7053 C   0  0  0  0  0  0  0  0  0  0  0  0
   31.2296   46.8265   38.5486 N   0  0  0  0  0  0  0  0  0  0  0  0
   31.5117   45.5866   37.8376 C   0  0  0  0  0  0  0  0  0  0  0  0
   32.8488   44.9384   38.1902 C   0  0  0  0  0  0  0  0  0  0  0  0
   33.0139   43.6069   37.4557 C   0  0  0  0  0  0  0  0  0  0  0  0
   32.0546   42.6358   37.9537 N   0  0  0  0  0  0  0  0  0  0  0  0
  1  2  1  0  0  0  0
  2  3  1  0  0  0  0
  3  4  1  0  0  0  0
  4  5  1  0  0  0  0
  5  6  1  0  0  0  0
  6  7  1  0  0  0  0
  7  8  1  0  0  0  0
  8  9  1  0  0  0  0
  9 10  1  0  0  0  0
 10 11  1  0  0  0  0
 11 12  1  0  0  0  0
 12 13  1  0  0  0  0
 13 14  1  0  0  0  0
M  END
>  <CHROM.1>
-176.93238778,61.68807708,79.23943474,165.89542212,173.00048211,72.20809909
67.14291076,169.44261507,-99.68417398,176.69620636,-67.39562686,29.13836716
47.87607650,39.11434643,-2.39831911,0.29056314,-2.55195706

>  <Name>
ligand

>  <RI>
0

>  <Rbt.Current_Directory>
/home/itssahil/PROJECTS/Mol_Feturizer/New_Systems/rnas/4P5J

>  <Rbt.Executable>
rbdock ($Id: //depot/dev/client3/rdock/2013.1/src/exe/rbdock.cxx#4 $)

>  <Rbt.Library>
libRbt.so (2013.1, Build901 2013/11/27)

>  <Rbt.Parameter_File>
/export/apps/rDock/src/rDock_2013.1_src/data/scripts/dock_solv.prm

>  <Rbt.Receptor>
prm/pocket_docking_3.prm

>  <SCORE>
1.00501

>  <SCORE.INTER>
8.57971

>  <SCORE.INTER.CONST>
1

>  <SCORE.INTER.POLAR>
0

>  <SCORE.INTER.ROT>
11

>  <SCORE.INTER.SOLV>
5.66676

>  <SCORE.INTER.VDW>
-7.10245

>  <SCORE.INTER.norm>
0.612836

>  <SCORE.INTRA>
-7.5747

>  <SCORE.INTRA.DIHEDRAL>
-14.8366

>  <SCORE.INTRA.DIHEDRAL.0>
17.5233

>  <SCORE.INTRA.POLAR>
0

>  <SCORE.INTRA.POLAR.0>
0

>  <SCORE.INTRA.REPUL>
0

>  <SCORE.INTRA.REPUL.0>
0

>  <SCORE.INTRA.SOLV>
-0.852538

>  <SCORE.INTRA.SOLV.lig_0>
-46.1043

>  <SCORE.INTRA.VDW>
0.269867

>  <SCORE.INTRA.VDW.0>
-0.545445

>  <SCORE.INTRA.norm>
-0.54105

>  <SCORE.RESTR>
0

>  <SCORE.RESTR.CAVITY>
0

>  <SCORE.RESTR.norm>
0

>  <SCORE.SYSTEM>
0

>  <SCORE.SYSTEM.CONST>
0

>  <SCORE.SYSTEM.DIHEDRAL>
0

>  <SCORE.SYSTEM.SOLV>
0

>  <SCORE.SYSTEM.norm>
0

>  <SCORE.heavy>
14

>  <SCORE.norm>
0.0717863

>  <RMSD>
2.539

$$$$
ligand
 OpenBabel11021811513D
libRbt.so/2013.1/901 2013/11/27
 14 13  0  0  0  0  0  0  0  0999 V2000
   25.1072   49.9711   41.0856 N   0  0  0  0  0  0  0  0  0  0  0  0
   26.0111   50.6688   40.1856 C   0  0  0  0  0  0  0  0  0  0  0  0
   25.8646   50.1320   38.7657 C   0  0  0  0  0  0  0  0  0  0  0  0
   26.7843   50.8713   37.8003 C   0  0  0  0  0  0  0  0  0  0  0  0
   28.1994   50.6477   38.0805 N   0  0  0  0  0  0  0  0  0  0  0  0
   28.9248   49.5754   37.4203 C   0  0  0  0  0  0  0  0  0  0  0  0
   30.0063   48.9619   38.3028 C   0  0  0  0  0  0  0  0  0  0  0  0
   29.3918   48.4472   39.5997 C   0  0  0  0  0  0  0  0  0  0  0  0
   30.4000   47.5731   40.3376 C   0  0  0  0  0  0  0  0  0  0  0  0
   30.5189   46.2539   39.7408 N   0  0  0  0  0  0  0  0  0  0  0  0
   31.4645   46.0428   38.6528 C   0  0  0  0  0  0  0  0  0  0  0  0
   31.3749   44.6718   37.9861 C   0  0  0  0  0  0  0  0  0  0  0  0
   32.3401   44.5826   36.8028 C   0  0  0  0  0  0  0  0  0  0  0  0
   33.7145   44.6541   37.2687 N   0  0  0  0  0  0  0  0  0  0  0  0
  1  2  1  0  0  0  0
  2  3  1  0  0  0  0
  3  4  1  0  0  0  0
  4  5  1  0  0  0  0
  5  6  1  0  0  0  0
  6  7  1  0  0  0  0
  7  8  1  0  0  0  0
  8  9  1  0  0  0  0
  9 10  1  0  0  0  0
 10 11  1  0  0  0  0
 11 12  1  0  0  0  0
 12 13  1  0  0  0  0
 13 14  1  0  0  0  0
M  END
>  <CHROM.1>
178.82005085,65.35850400,92.35941362,-146.67033717,57.02496491,167.70996857
-76.52433812,87.59306575,-172.45042770,176.28014163,65.65523575,29.29298865
48.07535212,38.71623491,2.92863725,0.72719544,-0.98432182

>  <Name>
ligand

>  <RI>
0

>  <Rbt.Current_Directory>
/home/itssahil/PROJECTS/Mol_Feturizer/New_Systems/rnas/4P5J

>  <Rbt.Executable>
rbdock ($Id: //depot/dev/client3/rdock/2013.1/src/exe/rbdock.cxx#4 $)

>  <Rbt.Library>
libRbt.so (2013.1, Build901 2013/11/27)

>  <Rbt.Parameter_File>
/export/apps/rDock/src/rDock_2013.1_src/data/scripts/dock_solv.prm

>  <Rbt.Receptor>
prm/pocket_docking_3.prm

>  <SCORE>
-1.40266

>  <SCORE.INTER>
6.36677

>  <SCORE.INTER.CONST>
1

>  <SCORE.INTER.POLAR>
0

>  <SCORE.INTER.ROT>
11

>  <SCORE.INTER.SOLV>
5.46546

>  <SCORE.INTER.VDW>
-8.51064

>  <SCORE.INTER.norm>
0.454769

>  <SCORE.INTRA>
-7.76943

>  <SCORE.INTRA.DIHEDRAL>
-13.6733

>  <SCORE.INTRA.DIHEDRAL.0>
17.5233

>  <SCORE.INTRA.POLAR>
0

>  <SCORE.INTRA.POLAR.0>
0

>  <SCORE.INTRA.REPUL>
0

>  <SCORE.INTRA.REPUL.0>
0

>  <SCORE.INTRA.SOLV>
-0.852563

>  <SCORE.INTRA.SOLV.lig_0>
-46.1043

>  <SCORE.INTRA.VDW>
-0.506497

>  <SCORE.INTRA.VDW.0>
-0.545445

>  <SCORE.INTRA.norm>
-0.554959

>  <SCORE.RESTR>
0

>  <SCORE.RESTR.CAVITY>
0

>  <SCORE.RESTR.norm>
0

>  <SCORE.SYSTEM>
0

>  <SCORE.SYSTEM.CONST>
0

>  <SCORE.SYSTEM.DIHEDRAL>
0

>  <SCORE.SYSTEM.SOLV>
0

>  <SCORE.SYSTEM.norm>
0

>  <SCORE.heavy>
14

>  <SCORE.norm>
-0.10019

>  <RMSD>
2.557

$$$$
ligand
 OpenBabel11021811513D
libRbt.so/2013.1/901 2013/11/27
 14 13  0  0  0  0  0  0  0  0999 V2000
   24.0417   51.4032   41.2205 N   0  0  0  0  0  0  0  0  0  0  0  0
   25.1598   51.3473   40.2927 C   0  0  0  0  0  0  0  0  0  0  0  0
   25.0701   50.0934   39.4292 C   0  0  0  0  0  0  0  0  0  0  0  0
   26.2340   50.0172   38.4474 C   0  0  0  0  0  0  0  0  0  0  0  0
   27.5214   49.8201   39.1070 N   0  0  0  0  0  0  0  0  0  0  0  0
   28.7151   49.5311   38.3303 C   0  0  0  0  0  0  0  0  0  0  0  0
   29.8767   49.0446   39.1899 C   0  0  0  0  0  0  0  0  0  0  0  0
   29.4826   47.7692   39.9264 C   0  0  0  0  0  0  0  0  0  0  0  0
   30.6930   47.2014   40.6597 C   0  0  0  0  0  0  0  0  0  0  0  0
   31.6701   46.6366   39.7450 N   0  0  0  0  0  0  0  0  0  0  0  0
   31.4170   45.3352   39.1409 C   0  0  0  0  0  0  0  0  0  0  0  0
   31.5556   45.2994   37.6205 C   0  0  0  0  0  0  0  0  0  0  0  0
   31.2905   43.8905   37.0871 C   0  0  0  0  0  0  0  0  0  0  0  0
   32.3311   42.9799   37.5334 N   0  0  0  0  0  0  0  0  0  0  0  0
  1  2  1  0  0  0  0
  2  3  1  0  0  0  0
  3  4  1  0  0  0  0
  4  5  1  0  0  0  0
  5  6  1  0  0  0  0
  6  7  1  0  0  0  0
  7  8  1  0  0  0  0
  8  9  1  0  0  0  0
  9 10  1  0  0  0  0
 10 11  1  0  0  0  0
 11 12  1  0  0  0  0
 12 13  1  0  0  0  0
 13 14  1  0  0  0  0
M  END
>  <CHROM.1>
179.93157792,66.90311152,171.06506699,-166.74865230,59.69707628,173.69121545
-71.25957641,-76.42834531,128.41767222,179.20375913,-66.62780143,28.93277644
47.88358621,39.12345421,-2.49857568,0.49256192,-2.30052714

>  <Name>
ligand

>  <RI>
0

>  <Rbt.Current_Directory>
/home/itssahil/PROJECTS/Mol_Feturizer/New_Systems/rnas/4P5J

>  <Rbt.Executable>
rbdock ($Id: //depot/dev/client3/rdock/2013.1/src/exe/rbdock.cxx#4 $)

>  <Rbt.Library>
libRbt.so (2013.1, Build901 2013/11/27)

>  <Rbt.Parameter_File>
/export/apps/rDock/src/rDock_2013.1_src/data/scripts/dock_solv.prm

>  <Rbt.Receptor>
prm/pocket_docking_3.prm

>  <SCORE>
-2.43227

>  <SCORE.INTER>
5.86223

>  <SCORE.INTER.CONST>
1

>  <SCORE.INTER.POLAR>
0

>  <SCORE.INTER.ROT>
11

>  <SCORE.INTER.SOLV>
5.49747

>  <SCORE.INTER.VDW>
-8.85767

>  <SCORE.INTER.norm>
0.418731

>  <SCORE.INTRA>
-8.2945

>  <SCORE.INTRA.DIHEDRAL>
-14.9918

>  <SCORE.INTRA.DIHEDRAL.0>
17.5233

>  <SCORE.INTRA.POLAR>
0

>  <SCORE.INTRA.POLAR.0>
0

>  <SCORE.INTRA.REPUL>
0

>  <SCORE.INTRA.REPUL.0>
0

>  <SCORE.INTRA.SOLV>
-0.85564

>  <SCORE.INTRA.SOLV.lig_0>
-46.1043

>  <SCORE.INTRA.VDW>
-0.370762

>  <SCORE.INTRA.VDW.0>
-0.545445

>  <SCORE.INTRA.norm>
-0.592464

>  <SCORE.RESTR>
0

>  <SCORE.RESTR.CAVITY>
0

>  <SCORE.RESTR.norm>
0

>  <SCORE.SYSTEM>
0

>  <SCORE.SYSTEM.CONST>
0

>  <SCORE.SYSTEM.DIHEDRAL>
0

>  <SCORE.SYSTEM.SOLV>
0

>  <SCORE.SYSTEM.norm>
0

>  <SCORE.heavy>
14

>  <SCORE.norm>
-0.173733

>  <RMSD>
2.661

$$$$
ligand
 OpenBabel11021811513D
libRbt.so/2013.1/901 2013/11/27
 14 13  0  0  0  0  0  0  0  0999 V2000
   25.2859   50.1452   40.6901 N   0  0  0  0  0  0  0  0  0  0  0  0
   26.4933   49.8771   39.9258 C   0  0  0  0  0  0  0  0  0  0  0  0
   26.2792   50.2258   38.4566 C   0  0  0  0  0  0  0  0  0  0  0  0
   27.5439   49.9776   37.6423 C   0  0  0  0  0  0  0  0  0  0  0  0
   28.6451   50.8579   38.0210 N   0  0  0  0  0  0  0  0  0  0  0  0
   30.0126   50.5356   37.6496 C   0  0  0  0  0  0  0  0  0  0  0  0
   30.7442   49.7361   38.7222 C   0  0  0  0  0  0  0  0  0  0  0  0
   30.0854   48.3724   38.8969 C   0  0  0  0  0  0  0  0  0  0  0  0
   30.7797   47.6029   40.0154 C   0  0  0  0  0  0  0  0  0  0  0  0
   30.1768   46.3000   40.2376 N   0  0  0  0  0  0  0  0  0  0  0  0
   30.3988   45.6149   41.5041 C   0  0  0  0  0  0  0  0  0  0  0  0
   31.6242   44.7038   41.5307 C   0  0  0  0  0  0  0  0  0  0  0  0
   32.9089   45.5223   41.3916 C   0  0  0  0  0  0  0  0  0  0  0  0
   34.0694   44.6498   41.4484 N   0  0  0  0  0  0  0  0  0  0  0  0
  1  2  1  0  0  0  0
  2  3  1  0  0  0  0
  3  4  1  0  0  0  0
  4  5  1  0  0  0  0
  5  6  1  0  0  0  0
  6  7  1  0  0  0  0
  7  8  1  0  0  0  0
  8  9  1  0  0  0  0
  9 10  1  0  0  0  0
 10 11  1  0  0  0  0
 11 12  1  0  0  0  0
 12 13  1  0  0  0  0
 13 14  1  0  0  0  0
M  END
>  <CHROM.1>
178.87353840,-65.35570275,162.28332167,-92.19994391,64.68181839,-177.36235992
179.15230265,-160.25619767,-89.95050114,65.66553629,178.71684115,29.64627705
48.15158510,39.72358552,2.35707407,0.27982096,-0.72638744

>  <Name>
ligand

>  <RI>
0

>  <Rbt.Current_Directory>
/home/itssahil/PROJECTS/Mol_Feturizer/New_Systems/rnas/4P5J

>  <Rbt.Executable>
rbdock ($Id: //depot/dev/client3/rdock/2013.1/src/exe/rbdock.cxx#4 $)

>  <Rbt.Library>
libRbt.so (2013.1, Build901 2013/11/27)

>  <Rbt.Parameter_File>
/export/apps/rDock/src/rDock_2013.1_src/data/scripts/dock_solv.prm

>  <Rbt.Receptor>
prm/pocket_docking_3.prm

>  <SCORE>
0.0698151

>  <SCORE.INTER>
9.04314

>  <SCORE.INTER.CONST>
1

>  <SCORE.INTER.POLAR>
0

>  <SCORE.INTER.ROT>
11

>  <SCORE.INTER.SOLV>
5.4441

>  <SCORE.INTER.VDW>
-6.71927

>  <SCORE.INTER.norm>
0.645939

>  <SCORE.INTRA>
-8.97333

>  <SCORE.INTRA.DIHEDRAL>
-15.3689

>  <SCORE.INTRA.DIHEDRAL.0>
17.5233

>  <SCORE.INTRA.POLAR>
0

>  <SCORE.INTRA.POLAR.0>
0

>  <SCORE.INTRA.REPUL>
0

>  <SCORE.INTRA.REPUL.0>
0

>  <SCORE.INTRA.SOLV>
-1.60124

>  <SCORE.INTRA.SOLV.lig_0>
-46.1043

>  <SCORE.INTRA.VDW>
-0.48826

>  <SCORE.INTRA.VDW.0>
-0.545445

>  <SCORE.INTRA.norm>
-0.640952

>  <SCORE.RESTR>
0

>  <SCORE.RESTR.CAVITY>
0

>  <SCORE.RESTR.norm>
0

>  <SCORE.SYSTEM>
0

>  <SCORE.SYSTEM.CONST>
0

>  <SCORE.SYSTEM.DIHEDRAL>
0

>  <SCORE.SYSTEM.SOLV>
0

>  <SCORE.SYSTEM.norm>
0

>  <SCORE.heavy>
14

>  <SCORE.norm>
0.0049868

>  <RMSD>
2.673

$$$$
ligand
 OpenBabel11021811513D
libRbt.so/2013.1/901 2013/11/27
 14 13  0  0  0  0  0  0  0  0999 V2000
   33.9320   42.3886   39.5809 N   0  0  0  0  0  0  0  0  0  0  0  0
   33.1740   43.4737   40.1827 C   0  0  0  0  0  0  0  0  0  0  0  0
   33.2919   44.7364   39.3356 C   0  0  0  0  0  0  0  0  0  0  0  0
   32.5730   45.9090   39.9931 C   0  0  0  0  0  0  0  0  0  0  0  0
   31.1471   45.6640   40.1877 N   0  0  0  0  0  0  0  0  0  0  0  0
   30.2621   46.7363   40.6107 C   0  0  0  0  0  0  0  0  0  0  0  0
   29.9409   47.7161   39.4874 C   0  0  0  0  0  0  0  0  0  0  0  0
   28.8945   48.7214   39.9551 C   0  0  0  0  0  0  0  0  0  0  0  0
   28.4222   49.5624   38.7741 C   0  0  0  0  0  0  0  0  0  0  0  0
   27.3229   50.4411   39.1345 N   0  0  0  0  0  0  0  0  0  0  0  0
   26.4121   50.9102   38.0987 C   0  0  0  0  0  0  0  0  0  0  0  0
   25.3864   51.9395   38.5688 C   0  0  0  0  0  0  0  0  0  0  0  0
   24.4705   51.3400   39.6372 C   0  0  0  0  0  0  0  0  0  0  0  0
   23.4893   52.3219   40.0666 N   0  0  0  0  0  0  0  0  0  0  0  0
  1  2  1  0  0  0  0
  2  3  1  0  0  0  0
  3  4  1  0  0  0  0
  4  5  1  0  0  0  0
  5  6  1  0  0  0  0
  6  7  1  0  0  0  0
  7  8  1  0  0  0  0
  8  9  1  0  0  0  0
  9 10  1  0  0  0  0
 10 11  1  0  0  0  0
 11 12  1  0  0  0  0
 12 13  1  0  0  0  0
 13 14  1  0  0  0  0
M  END
>  <CHROM.1>
-176.58196841,-60.05447760,-170.61418261,75.53573896,173.84332949,-171.47553565
173.92919341,-155.98387144,-173.96315956,-62.22842548,-179.35376814,29.19429140
47.99016959,39.54371518,0.55530153,-0.54717119,2.35299331

>  <Name>
ligand

>  <RI>
0

>  <Rbt.Current_Directory>
/home/itssahil/PROJECTS/Mol_Feturizer/New_Systems/rnas/4P5J

>  <Rbt.Executable>
rbdock ($Id: //depot/dev/client3/rdock/2013.1/src/exe/rbdock.cxx#4 $)

>  <Rbt.Library>
libRbt.so (2013.1, Build901 2013/11/27)

>  <Rbt.Parameter_File>
/export/apps/rDock/src/rDock_2013.1_src/data/scripts/dock_solv.prm

>  <Rbt.Receptor>
prm/pocket_docking_3.prm

>  <SCORE>
-0.0531831

>  <SCORE.INTER>
9.41703

>  <SCORE.INTER.CONST>
1

>  <SCORE.INTER.POLAR>
0

>  <SCORE.INTER.ROT>
11

>  <SCORE.INTER.SOLV>
3.64478

>  <SCORE.INTER.VDW>
-5.87024

>  <SCORE.INTER.norm>
0.672645

>  <SCORE.INTRA>
-9.48393

>  <SCORE.INTRA.DIHEDRAL>
-16.175

>  <SCORE.INTRA.DIHEDRAL.0>
17.5233

>  <SCORE.INTRA.POLAR>
0

>  <SCORE.INTRA.POLAR.0>
0

>  <SCORE.INTRA.REPUL>
0

>  <SCORE.INTRA.REPUL.0>
0

>  <SCORE.INTRA.SOLV>
-1.99583

>  <SCORE.INTRA.SOLV.lig_0>
-46.1043

>  <SCORE.INTRA.VDW>
-0.398508

>  <SCORE.INTRA.VDW.0>
-0.545445

>  <SCORE.INTRA.norm>
-0.677424

>  <SCORE.RESTR>
0.0137191

>  <SCORE.RESTR.CAVITY>
0.0137191

>  <SCORE.RESTR.norm>
0.000979938

>  <SCORE.SYSTEM>
0

>  <SCORE.SYSTEM.CONST>
0

>  <SCORE.SYSTEM.DIHEDRAL>
0

>  <SCORE.SYSTEM.SOLV>
0

>  <SCORE.SYSTEM.norm>
0

>  <SCORE.heavy>
14

>  <SCORE.norm>
-0.00379879

>  <RMSD>
2.689

$$$$
ligand
 OpenBabel11021811513D
libRbt.so/2013.1/901 2013/11/27
 14 13  0  0  0  0  0  0  0  0999 V2000
   23.5865   51.4503   40.4396 N   0  0  0  0  0  0  0  0  0  0  0  0
   24.4467   50.5717   39.6637 C   0  0  0  0  0  0  0  0  0  0  0  0
   25.9115   50.9360   39.8813 C   0  0  0  0  0  0  0  0  0  0  0  0
   26.8310   50.0185   39.0832 C   0  0  0  0  0  0  0  0  0  0  0  0
   28.2410   50.3730   39.2154 N   0  0  0  0  0  0  0  0  0  0  0  0
   29.2788   49.4723   38.7425 C   0  0  0  0  0  0  0  0  0  0  0  0
   29.5488   48.3226   39.7069 C   0  0  0  0  0  0  0  0  0  0  0  0
   30.6065   47.3912   39.1255 C   0  0  0  0  0  0  0  0  0  0  0  0
   30.7806   46.1775   40.0321 C   0  0  0  0  0  0  0  0  0  0  0  0
   31.7538   45.2369   39.5044 N   0  0  0  0  0  0  0  0  0  0  0  0
   31.4742   44.5432   38.2541 C   0  0  0  0  0  0  0  0  0  0  0  0
   32.5824   43.6034   37.7838 C   0  0  0  0  0  0  0  0  0  0  0  0
   33.8818   44.3756   37.5489 C   0  0  0  0  0  0  0  0  0  0  0  0
   34.9300   43.4725   37.1055 N   0  0  0  0  0  0  0  0  0  0  0  0
  1  2  1  0  0  0  0
  2  3  1  0  0  0  0
  3  4  1  0  0  0  0
  4  5  1  0  0  0  0
  5  6  1  0  0  0  0
  6  7  1  0  0  0  0
  7  8  1  0  0  0  0
  8  9  1  0  0  0  0
  9 10  1  0  0  0  0
 10 11  1  0  0  0  0
 11 12  1  0  0  0  0
 12 13  1  0  0  0  0
 13 14  1  0  0  0  0
M  END
>  <CHROM.1>
179.58611877,177.34664025,168.18571827,-78.90619744,177.85333772,-174.84788701
178.43234188,-65.25204372,178.72901776,-60.44532374,179.84544331,29.56094368
47.56743877,39.00617875,2.47277430,0.29842837,-0.08809425

>  <Name>
ligand

>  <RI>
0

>  <Rbt.Current_Directory>
/home/itssahil/PROJECTS/Mol_Feturizer/New_Systems/rnas/4P5J

>  <Rbt.Executable>
rbdock ($Id: //depot/dev/client3/rdock/2013.1/src/exe/rbdock.cxx#4 $)

>  <Rbt.Library>
libRbt.so (2013.1, Build901 2013/11/27)

>  <Rbt.Parameter_File>
/export/apps/rDock/src/rDock_2013.1_src/data/scripts/dock_solv.prm

>  <Rbt.Receptor>
prm/pocket_docking_3.prm

>  <SCORE>
-1.81534

>  <SCORE.INTER>
7.87718

>  <SCORE.INTER.CONST>
1

>  <SCORE.INTER.POLAR>
0

>  <SCORE.INTER.ROT>
11

>  <SCORE.INTER.SOLV>
4.10249

>  <SCORE.INTER.VDW>
-7.04937

>  <SCORE.INTER.norm>
0.562656

>  <SCORE.INTRA>
-9.69252

>  <SCORE.INTRA.DIHEDRAL>
-16.952

>  <SCORE.INTRA.DIHEDRAL.0>
17.5233

>  <SCORE.INTRA.POLAR>
0

>  <SCORE.INTRA.POLAR.0>
0

>  <SCORE.INTRA.REPUL>
0

>  <SCORE.INTRA.REPUL.0>
0

>  <SCORE.INTRA.SOLV>
-2.36356

>  <SCORE.INTRA.SOLV.lig_0>
-46.1043

>  <SCORE.INTRA.VDW>
-0.034734

>  <SCORE.INTRA.VDW.0>
-0.545445

>  <SCORE.INTRA.norm>
-0.692323

>  <SCORE.RESTR>
0

>  <SCORE.RESTR.CAVITY>
0

>  <SCORE.RESTR.norm>
0

>  <SCORE.SYSTEM>
0

>  <SCORE.SYSTEM.CONST>
0

>  <SCORE.SYSTEM.DIHEDRAL>
0

>  <SCORE.SYSTEM.SOLV>
0

>  <SCORE.SYSTEM.norm>
0

>  <SCORE.heavy>
14

>  <SCORE.norm>
-0.129667

>  <RMSD>
2.713

$$$$
ligand
 OpenBabel11021811513D
libRbt.so/2013.1/901 2013/11/27
 14 13  0  0  0  0  0  0  0  0999 V2000
   32.6097   44.8581   39.7024 N   0  0  0  0  0  0  0  0  0  0  0  0
   31.6920   44.8973   38.5754 C   0  0  0  0  0  0  0  0  0  0  0  0
   31.4198   46.3401   38.1631 C   0  0  0  0  0  0  0  0  0  0  0  0
   30.6372   47.0820   39.2407 C   0  0  0  0  0  0  0  0  0  0  0  0
   30.3296   48.4605   38.8717 N   0  0  0  0  0  0  0  0  0  0  0  0
   29.7232   49.3668   39.8322 C   0  0  0  0  0  0  0  0  0  0  0  0
   28.1998   49.3653   39.7668 C   0  0  0  0  0  0  0  0  0  0  0  0
   27.7350   49.8895   38.4127 C   0  0  0  0  0  0  0  0  0  0  0  0
   26.2157   50.0180   38.4025 C   0  0  0  0  0  0  0  0  0  0  0  0
   25.7414   50.9678   39.3942 N   0  0  0  0  0  0  0  0  0  0  0  0
   24.3318   50.9744   39.7625 C   0  0  0  0  0  0  0  0  0  0  0  0
   23.9647   51.9658   40.8646 C   0  0  0  0  0  0  0  0  0  0  0  0
   24.6895   51.6192   42.1663 C   0  0  0  0  0  0  0  0  0  0  0  0
   24.3337   52.5678   43.2077 N   0  0  0  0  0  0  0  0  0  0  0  0
  1  2  1  0  0  0  0
  2  3  1  0  0  0  0
  3  4  1  0  0  0  0
  4  5  1  0  0  0  0
  5  6  1  0  0  0  0
  6  7  1  0  0  0  0
  7  8  1  0  0  0  0
  8  9  1  0  0  0  0
  9 10  1  0  0  0  0
 10 11  1  0  0  0  0
 11 12  1  0  0  0  0
 12 13  1  0  0  0  0
 13 14  1  0  0  0  0
M  END
>  <CHROM.1>
-67.38408062,-178.71623546,-173.00293526,-91.63200106,-64.10365155,-174.35340190
62.00321857,-164.58332055,177.01204627,-62.54136481,179.99566772,27.97295223
49.16946269,39.73997458,-0.30731478,-0.65674691,1.46398016

>  <Name>
ligand

>  <RI>
0

>  <Rbt.Current_Directory>
/home/itssahil/PROJECTS/Mol_Feturizer/New_Systems/rnas/4P5J

>  <Rbt.Executable>
rbdock ($Id: //depot/dev/client3/rdock/2013.1/src/exe/rbdock.cxx#4 $)

>  <Rbt.Library>
libRbt.so (2013.1, Build901 2013/11/27)

>  <Rbt.Parameter_File>
/export/apps/rDock/src/rDock_2013.1_src/data/scripts/dock_solv.prm

>  <Rbt.Receptor>
prm/pocket_docking_3.prm

>  <SCORE>
-0.639591

>  <SCORE.INTER>
8.30668

>  <SCORE.INTER.CONST>
1

>  <SCORE.INTER.POLAR>
0

>  <SCORE.INTER.ROT>
11

>  <SCORE.INTER.SOLV>
3.56385

>  <SCORE.INTER.VDW>
-6.58349

>  <SCORE.INTER.norm>
0.593335

>  <SCORE.INTRA>
-8.94627

>  <SCORE.INTRA.DIHEDRAL>
-16.1941

>  <SCORE.INTRA.DIHEDRAL.0>
17.5233

>  <SCORE.INTRA.POLAR>
0

>  <SCORE.INTRA.POLAR.0>
0

>  <SCORE.INTRA.REPUL>
0

>  <SCORE.INTRA.REPUL.0>
0

>  <SCORE.INTRA.SOLV>
-0.836077

>  <SCORE.INTRA.SOLV.lig_0>
-46.1043

>  <SCORE.INTRA.VDW>
-0.431201

>  <SCORE.INTRA.VDW.0>
-0.545445

>  <SCORE.INTRA.norm>
-0.63902

>  <SCORE.RESTR>
0

>  <SCORE.RESTR.CAVITY>
0

>  <SCORE.RESTR.norm>
0

>  <SCORE.SYSTEM>
0

>  <SCORE.SYSTEM.CONST>
0

>  <SCORE.SYSTEM.DIHEDRAL>
0

>  <SCORE.SYSTEM.SOLV>
0

>  <SCORE.SYSTEM.norm>
0

>  <SCORE.heavy>
14

>  <SCORE.norm>
-0.0456851

>  <RMSD>
2.715

$$$$
ligand
 OpenBabel11021811513D
libRbt.so/2013.1/901 2013/11/27
 14 13  0  0  0  0  0  0  0  0999 V2000
   32.5558   45.2200   37.9876 N   0  0  0  0  0  0  0  0  0  0  0  0
   31.4306   45.5564   38.8449 C   0  0  0  0  0  0  0  0  0  0  0  0
   31.1409   47.0522   38.7770 C   0  0  0  0  0  0  0  0  0  0  0  0
   30.0086   47.4367   39.7227 C   0  0  0  0  0  0  0  0  0  0  0  0
   29.6591   48.8519   39.6443 N   0  0  0  0  0  0  0  0  0  0  0  0
   28.8754   49.3609   38.5314 C   0  0  0  0  0  0  0  0  0  0  0  0
   28.7183   50.8772   38.5630 C   0  0  0  0  0  0  0  0  0  0  0  0
   27.9235   51.3450   37.3490 C   0  0  0  0  0  0  0  0  0  0  0  0
   26.4631   50.9323   37.4975 C   0  0  0  0  0  0  0  0  0  0  0  0
   25.8472   51.5182   38.6755 N   0  0  0  0  0  0  0  0  0  0  0  0
   24.5961   50.9667   39.1787 C   0  0  0  0  0  0  0  0  0  0  0  0
   23.9348   51.7883   40.2832 C   0  0  0  0  0  0  0  0  0  0  0  0
   24.8432   51.8728   41.5110 C   0  0  0  0  0  0  0  0  0  0  0  0
   24.9908   50.5612   42.1184 N   0  0  0  0  0  0  0  0  0  0  0  0
  1  2  1  0  0  0  0
  2  3  1  0  0  0  0
  3  4  1  0  0  0  0
  4  5  1  0  0  0  0
  5  6  1  0  0  0  0
  6  7  1  0  0  0  0
  7  8  1  0  0  0  0
  8  9  1  0  0  0  0
  9 10  1  0  0  0  0
 10 11  1  0  0  0  0
 11 12  1  0  0  0  0
 12 13  1  0  0  0  0
 13 14  1  0  0  0  0
M  END
>  <CHROM.1>
-177.16025841,-177.42680323,76.54467648,-174.94587401,178.33614946,71.23148976
60.58303292,-163.50165556,-171.08955334,-61.82563360,-66.54444154,27.92753248
49.52446234,39.19155162,0.18945357,-0.66237691,2.14063117

>  <Name>
ligand

>  <RI>
0

>  <Rbt.Current_Directory>
/home/itssahil/PROJECTS/Mol_Feturizer/New_Systems/rnas/4P5J

>  <Rbt.Executable>
rbdock ($Id: //depot/dev/client3/rdock/2013.1/src/exe/rbdock.cxx#4 $)

>  <Rbt.Library>
libRbt.so (2013.1, Build901 2013/11/27)

>  <Rbt.Parameter_File>
/export/apps/rDock/src/rDock_2013.1_src/data/scripts/dock_solv.prm

>  <Rbt.Receptor>
prm/pocket_docking_3.prm

>  <SCORE>
1.14977

>  <SCORE.INTER>
9.12646

>  <SCORE.INTER.CONST>
1

>  <SCORE.INTER.POLAR>
0

>  <SCORE.INTER.ROT>
11

>  <SCORE.INTER.SOLV>
2.6469

>  <SCORE.INTER.VDW>
-5.73132

>  <SCORE.INTER.norm>
0.65189

>  <SCORE.INTRA>
-7.98059

>  <SCORE.INTRA.DIHEDRAL>
-16.2622

>  <SCORE.INTRA.DIHEDRAL.0>
17.5233

>  <SCORE.INTRA.POLAR>
0

>  <SCORE.INTRA.POLAR.0>
0

>  <SCORE.INTRA.REPUL>
0

>  <SCORE.INTRA.REPUL.0>
0

>  <SCORE.INTRA.SOLV>
-0.265967

>  <SCORE.INTRA.SOLV.lig_0>
-46.1043

>  <SCORE.INTRA.VDW>
0.283511

>  <SCORE.INTRA.VDW.0>
-0.545445

>  <SCORE.INTRA.norm>
-0.570042

>  <SCORE.RESTR>
0.00390408

>  <SCORE.RESTR.CAVITY>
0.00390408

>  <SCORE.RESTR.norm>
0.000278863

>  <SCORE.SYSTEM>
0

>  <SCORE.SYSTEM.CONST>
0

>  <SCORE.SYSTEM.DIHEDRAL>
0

>  <SCORE.SYSTEM.SOLV>
0

>  <SCORE.SYSTEM.norm>
0

>  <SCORE.heavy>
14

>  <SCORE.norm>
0.0821267

>  <RMSD>
2.726

$$$$
ligand
 OpenBabel11021811513D
libRbt.so/2013.1/901 2013/11/27
 14 13  0  0  0  0  0  0  0  0999 V2000
   34.0594   42.6518   38.5081 N   0  0  0  0  0  0  0  0  0  0  0  0
   32.8907   43.3636   38.9993 C   0  0  0  0  0  0  0  0  0  0  0  0
   33.1731   43.9625   40.3731 C   0  0  0  0  0  0  0  0  0  0  0  0
   31.9529   44.6997   40.9133 C   0  0  0  0  0  0  0  0  0  0  0  0
   31.5932   45.8658   40.1120 N   0  0  0  0  0  0  0  0  0  0  0  0
   30.4339   46.6718   40.4558 C   0  0  0  0  0  0  0  0  0  0  0  0
   30.1432   47.7590   39.4271 C   0  0  0  0  0  0  0  0  0  0  0  0
   28.9349   48.5803   39.8629 C   0  0  0  0  0  0  0  0  0  0  0  0
   28.5711   49.5824   38.7727 C   0  0  0  0  0  0  0  0  0  0  0  0
   27.4135   50.3834   39.1316 N   0  0  0  0  0  0  0  0  0  0  0  0
   26.5455   50.8984   38.0809 C   0  0  0  0  0  0  0  0  0  0  0  0
   25.4177   51.8040   38.5712 C   0  0  0  0  0  0  0  0  0  0  0  0
   24.5162   51.0585   39.5568 C   0  0  0  0  0  0  0  0  0  0  0  0
   23.4633   51.9366   40.0379 N   0  0  0  0  0  0  0  0  0  0  0  0
  1  2  1  0  0  0  0
  2  3  1  0  0  0  0
  3  4  1  0  0  0  0
  4  5  1  0  0  0  0
  5  6  1  0  0  0  0
  6  7  1  0  0  0  0
  7  8  1  0  0  0  0
  8  9  1  0  0  0  0
  9 10  1  0  0  0  0
 10 11  1  0  0  0  0
 11 12  1  0  0  0  0
 12 13  1  0  0  0  0
 13 14  1  0  0  0  0
M  END
>  <CHROM.1>
-179.32079672,-64.72800002,178.38537641,-174.35687186,-178.92270146,-174.89188137
179.36843883,-150.92488244,-176.02155226,-59.34169063,178.83902904,29.22206727
47.80131156,39.48589286,-0.35113337,0.70083982,-1.12264823

>  <Name>
ligand

>  <RI>
0

>  <Rbt.Current_Directory>
/home/itssahil/PROJECTS/Mol_Feturizer/New_Systems/rnas/4P5J

>  <Rbt.Executable>
rbdock ($Id: //depot/dev/client3/rdock/2013.1/src/exe/rbdock.cxx#4 $)

>  <Rbt.Library>
libRbt.so (2013.1, Build901 2013/11/27)

>  <Rbt.Parameter_File>
/export/apps/rDock/src/rDock_2013.1_src/data/scripts/dock_solv.prm

>  <Rbt.Receptor>
prm/pocket_docking_3.prm

>  <SCORE>
-1.05903

>  <SCORE.INTER>
8.94501

>  <SCORE.INTER.CONST>
1

>  <SCORE.INTER.POLAR>
0

>  <SCORE.INTER.ROT>
11

>  <SCORE.INTER.SOLV>
3.6856

>  <SCORE.INTER.VDW>
-6.19853

>  <SCORE.INTER.norm>
0.638929

>  <SCORE.INTRA>
-10.004

>  <SCORE.INTRA.DIHEDRAL>
-16.7039

>  <SCORE.INTRA.DIHEDRAL.0>
17.5233

>  <SCORE.INTRA.POLAR>
0

>  <SCORE.INTRA.POLAR.0>
0

>  <SCORE.INTRA.REPUL>
0

>  <SCORE.INTRA.REPUL.0>
0

>  <SCORE.INTRA.SOLV>
-1.98895

>  <SCORE.INTRA.SOLV.lig_0>
-46.1043

>  <SCORE.INTRA.VDW>
-0.657622

>  <SCORE.INTRA.VDW.0>
-0.545445

>  <SCORE.INTRA.norm>
-0.714574

>  <SCORE.RESTR>
0

>  <SCORE.RESTR.CAVITY>
0

>  <SCORE.RESTR.norm>
0

>  <SCORE.SYSTEM>
0

>  <SCORE.SYSTEM.CONST>
0

>  <SCORE.SYSTEM.DIHEDRAL>
0

>  <SCORE.SYSTEM.SOLV>
0

>  <SCORE.SYSTEM.norm>
0

>  <SCORE.heavy>
14

>  <SCORE.norm>
-0.0756453

>  <RMSD>
2.754

$$$$
ligand
 OpenBabel11021811513D
libRbt.so/2013.1/901 2013/11/27
 14 13  0  0  0  0  0  0  0  0999 V2000
   33.5000   43.6306   41.6272 N   0  0  0  0  0  0  0  0  0  0  0  0
   32.5236   44.5786   41.1155 C   0  0  0  0  0  0  0  0  0  0  0  0
   32.3397   44.3917   39.6131 C   0  0  0  0  0  0  0  0  0  0  0  0
   31.3366   45.3937   39.0527 C   0  0  0  0  0  0  0  0  0  0  0  0
   31.7717   46.7788   39.2059 N   0  0  0  0  0  0  0  0  0  0  0  0
   31.1168   47.8467   38.4693 C   0  0  0  0  0  0  0  0  0  0  0  0
   29.9007   48.4083   39.1976 C   0  0  0  0  0  0  0  0  0  0  0  0
   29.1840   49.4216   38.3122 C   0  0  0  0  0  0  0  0  0  0  0  0
   27.9261   49.9221   39.0139 C   0  0  0  0  0  0  0  0  0  0  0  0
   27.1280   50.7815   38.1566 N   0  0  0  0  0  0  0  0  0  0  0  0
   26.0319   50.2069   37.3878 C   0  0  0  0  0  0  0  0  0  0  0  0
   24.6391   50.5152   37.9334 C   0  0  0  0  0  0  0  0  0  0  0  0
   24.4952   50.0027   39.3674 C   0  0  0  0  0  0  0  0  0  0  0  0
   23.2007   50.3801   39.9085 N   0  0  0  0  0  0  0  0  0  0  0  0
  1  2  1  0  0  0  0
  2  3  1  0  0  0  0
  3  4  1  0  0  0  0
  4  5  1  0  0  0  0
  5  6  1  0  0  0  0
  6  7  1  0  0  0  0
  7  8  1  0  0  0  0
  8  9  1  0  0  0  0
  9 10  1  0  0  0  0
 10 11  1  0  0  0  0
 11 12  1  0  0  0  0
 12 13  1  0  0  0  0
 13 14  1  0  0  0  0
M  END
>  <CHROM.1>
-179.01323388,62.55825749,165.55832528,87.40260528,-174.37015545,176.86555892
-173.81524957,94.52516125,104.95689308,-58.87286902,176.14508656,28.93531586
48.01851147,39.16842004,0.59453889,-0.30902504,2.43597247

>  <Name>
ligand

>  <RI>
0

>  <Rbt.Current_Directory>
/home/itssahil/PROJECTS/Mol_Feturizer/New_Systems/rnas/4P5J

>  <Rbt.Executable>
rbdock ($Id: //depot/dev/client3/rdock/2013.1/src/exe/rbdock.cxx#4 $)

>  <Rbt.Library>
libRbt.so (2013.1, Build901 2013/11/27)

>  <Rbt.Parameter_File>
/export/apps/rDock/src/rDock_2013.1_src/data/scripts/dock_solv.prm

>  <Rbt.Receptor>
prm/pocket_docking_4.prm

>  <SCORE>
-2.4493

>  <SCORE.INTER>
6.28645

>  <SCORE.INTER.CONST>
1

>  <SCORE.INTER.POLAR>
0

>  <SCORE.INTER.ROT>
11

>  <SCORE.INTER.SOLV>
5.14532

>  <SCORE.INTER.VDW>
-8.45748

>  <SCORE.INTER.norm>
0.449032

>  <SCORE.INTRA>
-8.73574

>  <SCORE.INTRA.DIHEDRAL>
-14.6841

>  <SCORE.INTRA.DIHEDRAL.0>
17.5233

>  <SCORE.INTRA.POLAR>
0

>  <SCORE.INTRA.POLAR.0>
0

>  <SCORE.INTRA.REPUL>
0

>  <SCORE.INTRA.REPUL.0>
0

>  <SCORE.INTRA.SOLV>
-1.90921

>  <SCORE.INTRA.SOLV.lig_0>
-46.1043

>  <SCORE.INTRA.VDW>
-0.439082

>  <SCORE.INTRA.VDW.0>
-0.545445

>  <SCORE.INTRA.norm>
-0.623981

>  <SCORE.RESTR>
0

>  <SCORE.RESTR.CAVITY>
0

>  <SCORE.RESTR.norm>
0

>  <SCORE.SYSTEM>
0

>  <SCORE.SYSTEM.CONST>
0

>  <SCORE.SYSTEM.DIHEDRAL>
0

>  <SCORE.SYSTEM.SOLV>
0

>  <SCORE.SYSTEM.norm>
0

>  <SCORE.heavy>
14

>  <SCORE.norm>
-0.17495

>  <RMSD>
2.763

$$$$
ligand
 OpenBabel11021811513D
libRbt.so/2013.1/901 2013/11/27
 14 13  0  0  0  0  0  0  0  0999 V2000
   32.4046   43.0612   37.0339 N   0  0  0  0  0  0  0  0  0  0  0  0
   32.1429   44.0792   38.0385 C   0  0  0  0  0  0  0  0  0  0  0  0
   31.5065   45.3072   37.3959 C   0  0  0  0  0  0  0  0  0  0  0  0
   32.4589   45.9646   36.4034 C   0  0  0  0  0  0  0  0  0  0  0  0
   31.8887   47.1490   35.7685 N   0  0  0  0  0  0  0  0  0  0  0  0
   31.8298   48.4149   36.4797 C   0  0  0  0  0  0  0  0  0  0  0  0
   30.4427   49.0472   36.4481 C   0  0  0  0  0  0  0  0  0  0  0  0
   30.4246   50.3087   37.3041 C   0  0  0  0  0  0  0  0  0  0  0  0
   29.0019   50.8494   37.3970 C   0  0  0  0  0  0  0  0  0  0  0  0
   28.1120   49.9297   38.0846 N   0  0  0  0  0  0  0  0  0  0  0  0
   26.7413   50.3353   38.3661 C   0  0  0  0  0  0  0  0  0  0  0  0
   25.7910   50.2439   37.1741 C   0  0  0  0  0  0  0  0  0  0  0  0
   24.3949   50.7378   37.5573 C   0  0  0  0  0  0  0  0  0  0  0  0
   24.4211   52.1672   37.8166 N   0  0  0  0  0  0  0  0  0  0  0  0
  1  2  1  0  0  0  0
  2  3  1  0  0  0  0
  3  4  1  0  0  0  0
  4  5  1  0  0  0  0
  5  6  1  0  0  0  0
  6  7  1  0  0  0  0
  7  8  1  0  0  0  0
  8  9  1  0  0  0  0
  9 10  1  0  0  0  0
 10 11  1  0  0  0  0
 11 12  1  0  0  0  0
 12 13  1  0  0  0  0
 13 14  1  0  0  0  0
M  END
>  <CHROM.1>
-63.81492912,-179.78968482,77.86796146,-129.37605793,175.42530659,-173.66109282
64.29814373,174.70742149,78.64435377,-177.93090509,67.81076818,29.39728504
48.39979722,37.23342359,0.71553404,-0.24775980,2.99024109

>  <Name>
ligand

>  <RI>
0

>  <Rbt.Current_Directory>
/home/itssahil/PROJECTS/Mol_Feturizer/New_Systems/rnas/4P5J

>  <Rbt.Executable>
rbdock ($Id: //depot/dev/client3/rdock/2013.1/src/exe/rbdock.cxx#4 $)

>  <Rbt.Library>
libRbt.so (2013.1, Build901 2013/11/27)

>  <Rbt.Parameter_File>
/export/apps/rDock/src/rDock_2013.1_src/data/scripts/dock_solv.prm

>  <Rbt.Receptor>
prm/pocket_docking_4.prm

>  <SCORE>
-1.31282

>  <SCORE.INTER>
6.78856

>  <SCORE.INTER.CONST>
1

>  <SCORE.INTER.POLAR>
0

>  <SCORE.INTER.ROT>
11

>  <SCORE.INTER.SOLV>
5.58266

>  <SCORE.INTER.VDW>
-8.26851

>  <SCORE.INTER.norm>
0.484897

>  <SCORE.INTRA>
-8.10138

>  <SCORE.INTRA.DIHEDRAL>
-15.2491

>  <SCORE.INTRA.DIHEDRAL.0>
17.5233

>  <SCORE.INTRA.POLAR>
0

>  <SCORE.INTRA.POLAR.0>
0

>  <SCORE.INTRA.REPUL>
0

>  <SCORE.INTRA.REPUL.0>
0

>  <SCORE.INTRA.SOLV>
-0.751334

>  <SCORE.INTRA.SOLV.lig_0>
-46.1043

>  <SCORE.INTRA.VDW>
-0.101155

>  <SCORE.INTRA.VDW.0>
-0.545445

>  <SCORE.INTRA.norm>
-0.57867

>  <SCORE.RESTR>
0

>  <SCORE.RESTR.CAVITY>
0

>  <SCORE.RESTR.norm>
0

>  <SCORE.SYSTEM>
0

>  <SCORE.SYSTEM.CONST>
0

>  <SCORE.SYSTEM.DIHEDRAL>
0

>  <SCORE.SYSTEM.SOLV>
0

>  <SCORE.SYSTEM.norm>
0

>  <SCORE.heavy>
14

>  <SCORE.norm>
-0.093773

>  <RMSD>
2.783

$$$$
ligand
 OpenBabel11021811513D
libRbt.so/2013.1/901 2013/11/27
 14 13  0  0  0  0  0  0  0  0999 V2000
   32.2768   44.4236   37.2801 N   0  0  0  0  0  0  0  0  0  0  0  0
   31.3719   44.9186   38.3048 C   0  0  0  0  0  0  0  0  0  0  0  0
   31.3866   46.4433   38.3337 C   0  0  0  0  0  0  0  0  0  0  0  0
   30.5172   46.9805   39.4650 C   0  0  0  0  0  0  0  0  0  0  0  0
   30.5193   48.4385   39.5396 N   0  0  0  0  0  0  0  0  0  0  0  0
   29.6935   49.2274   38.6410 C   0  0  0  0  0  0  0  0  0  0  0  0
   28.2460   49.3341   39.1081 C   0  0  0  0  0  0  0  0  0  0  0  0
   27.4189   50.0919   38.0757 C   0  0  0  0  0  0  0  0  0  0  0  0
   25.9455   50.0554   38.4666 C   0  0  0  0  0  0  0  0  0  0  0  0
   25.6844   50.8065   39.6824 N   0  0  0  0  0  0  0  0  0  0  0  0
   24.4715   50.5377   40.4435 C   0  0  0  0  0  0  0  0  0  0  0  0
   23.9359   51.7303   41.2331 C   0  0  0  0  0  0  0  0  0  0  0  0
   23.4230   52.8176   40.2873 C   0  0  0  0  0  0  0  0  0  0  0  0
   24.5351   53.4517   39.6002 N   0  0  0  0  0  0  0  0  0  0  0  0
  1  2  1  0  0  0  0
  2  3  1  0  0  0  0
  3  4  1  0  0  0  0
  4  5  1  0  0  0  0
  5  6  1  0  0  0  0
  6  7  1  0  0  0  0
  7  8  1  0  0  0  0
  8  9  1  0  0  0  0
  9 10  1  0  0  0  0
 10 11  1  0  0  0  0
 11 12  1  0  0  0  0
 12 13  1  0  0  0  0
 13 14  1  0  0  0  0
M  END
>  <CHROM.1>
-176.09875514,179.17209170,79.69358121,81.76088110,-176.19608989,173.43541708
67.08110423,-159.93602125,-151.29964312,67.69918050,-70.41352033,27.81594414
49.23262961,39.17585830,0.59407177,-0.45806683,2.85115405

>  <Name>
ligand

>  <RI>
0

>  <Rbt.Current_Directory>
/home/itssahil/PROJECTS/Mol_Feturizer/New_Systems/rnas/4P5J

>  <Rbt.Executable>
rbdock ($Id: //depot/dev/client3/rdock/2013.1/src/exe/rbdock.cxx#4 $)

>  <Rbt.Library>
libRbt.so (2013.1, Build901 2013/11/27)

>  <Rbt.Parameter_File>
/export/apps/rDock/src/rDock_2013.1_src/data/scripts/dock_solv.prm

>  <Rbt.Receptor>
prm/pocket_docking_3.prm

>  <SCORE>
-0.437048

>  <SCORE.INTER>
7.1629

>  <SCORE.INTER.CONST>
1

>  <SCORE.INTER.POLAR>
0

>  <SCORE.INTER.ROT>
11

>  <SCORE.INTER.SOLV>
3.51267

>  <SCORE.INTER.VDW>
-7.32896

>  <SCORE.INTER.norm>
0.511636

>  <SCORE.INTRA>
-7.59995

>  <SCORE.INTRA.DIHEDRAL>
-14.919

>  <SCORE.INTRA.DIHEDRAL.0>
17.5233

>  <SCORE.INTRA.POLAR>
0

>  <SCORE.INTRA.POLAR.0>
0

>  <SCORE.INTRA.REPUL>
0

>  <SCORE.INTRA.REPUL.0>
0

>  <SCORE.INTRA.SOLV>
0.699237

>  <SCORE.INTRA.SOLV.lig_0>
-46.1043

>  <SCORE.INTRA.VDW>
-0.490064

>  <SCORE.INTRA.VDW.0>
-0.545445

>  <SCORE.INTRA.norm>
-0.542853

>  <SCORE.RESTR>
0

>  <SCORE.RESTR.CAVITY>
0

>  <SCORE.RESTR.norm>
0

>  <SCORE.SYSTEM>
0

>  <SCORE.SYSTEM.CONST>
0

>  <SCORE.SYSTEM.DIHEDRAL>
0

>  <SCORE.SYSTEM.SOLV>
0

>  <SCORE.SYSTEM.norm>
0

>  <SCORE.heavy>
14

>  <SCORE.norm>
-0.0312177

>  <RMSD>
2.794

$$$$
ligand
 OpenBabel11021811513D
libRbt.so/2013.1/901 2013/11/27
 14 13  0  0  0  0  0  0  0  0999 V2000
   32.9719   43.4064   38.2512 N   0  0  0  0  0  0  0  0  0  0  0  0
   32.3941   44.2488   39.2859 C   0  0  0  0  0  0  0  0  0  0  0  0
   31.5372   45.3444   38.6605 C   0  0  0  0  0  0  0  0  0  0  0  0
   30.9718   46.2764   39.7263 C   0  0  0  0  0  0  0  0  0  0  0  0
   30.1969   47.3784   39.1639 N   0  0  0  0  0  0  0  0  0  0  0  0
   29.4569   48.2812   40.0295 C   0  0  0  0  0  0  0  0  0  0  0  0
   28.3771   49.0604   39.2868 C   0  0  0  0  0  0  0  0  0  0  0  0
   29.0116   49.9392   38.2147 C   0  0  0  0  0  0  0  0  0  0  0  0
   27.9873   50.2500   37.1288 C   0  0  0  0  0  0  0  0  0  0  0  0
   26.7802   50.8485   37.6720 N   0  0  0  0  0  0  0  0  0  0  0  0
   25.4915   50.2185   37.4174 C   0  0  0  0  0  0  0  0  0  0  0  0
   24.4482   50.4340   38.5117 C   0  0  0  0  0  0  0  0  0  0  0  0
   24.9079   49.8042   39.8277 C   0  0  0  0  0  0  0  0  0  0  0  0
   23.9503   50.0891   40.8827 N   0  0  0  0  0  0  0  0  0  0  0  0
  1  2  1  0  0  0  0
  2  3  1  0  0  0  0
  3  4  1  0  0  0  0
  4  5  1  0  0  0  0
  5  6  1  0  0  0  0
  6  7  1  0  0  0  0
  7  8  1  0  0  0  0
  8  9  1  0  0  0  0
  9 10  1  0  0  0  0
 10 11  1  0  0  0  0
 11 12  1  0  0  0  0
 12 13  1  0  0  0  0
 13 14  1  0  0  0  0
M  END
>  <CHROM.1>
-177.48782579,177.24422639,173.04999959,-161.41731338,-62.07620949,156.52347578
55.11976578,-123.52894784,150.45363458,-63.01483655,176.31366997,28.46306990
48.25581150,38.86130572,-0.45832666,0.52672397,-0.81234242

>  <Name>
ligand

>  <RI>
0

>  <Rbt.Current_Directory>
/home/itssahil/PROJECTS/Mol_Feturizer/New_Systems/rnas/4P5J

>  <Rbt.Executable>
rbdock ($Id: //depot/dev/client3/rdock/2013.1/src/exe/rbdock.cxx#4 $)

>  <Rbt.Library>
libRbt.so (2013.1, Build901 2013/11/27)

>  <Rbt.Parameter_File>
/export/apps/rDock/src/rDock_2013.1_src/data/scripts/dock_solv.prm

>  <Rbt.Receptor>
prm/pocket_docking_4.prm

>  <SCORE>
-2.91154

>  <SCORE.INTER>
5.14126

>  <SCORE.INTER.CONST>
1

>  <SCORE.INTER.POLAR>
0

>  <SCORE.INTER.ROT>
11

>  <SCORE.INTER.SOLV>
6.49952

>  <SCORE.INTER.VDW>
-9.67233

>  <SCORE.INTER.norm>
0.367233

>  <SCORE.INTRA>
-8.0528

>  <SCORE.INTRA.DIHEDRAL>
-13.1671

>  <SCORE.INTRA.DIHEDRAL.0>
17.5233

>  <SCORE.INTRA.POLAR>
0

>  <SCORE.INTRA.POLAR.0>
0

>  <SCORE.INTRA.REPUL>
0

>  <SCORE.INTRA.REPUL.0>
0

>  <SCORE.INTRA.SOLV>
-1.44008

>  <SCORE.INTRA.SOLV.lig_0>
-46.1043

>  <SCORE.INTRA.VDW>
-0.749185

>  <SCORE.INTRA.VDW.0>
-0.545445

>  <SCORE.INTRA.norm>
-0.5752

>  <SCORE.RESTR>
0

>  <SCORE.RESTR.CAVITY>
0

>  <SCORE.RESTR.norm>
0

>  <SCORE.SYSTEM>
0

>  <SCORE.SYSTEM.CONST>
0

>  <SCORE.SYSTEM.DIHEDRAL>
0

>  <SCORE.SYSTEM.SOLV>
0

>  <SCORE.SYSTEM.norm>
0

>  <SCORE.heavy>
14

>  <SCORE.norm>
-0.207967

>  <RMSD>
2.823

$$$$
ligand
 OpenBabel11021811513D
libRbt.so/2013.1/901 2013/11/27
 14 13  0  0  0  0  0  0  0  0999 V2000
   23.8357   50.5875   41.1419 N   0  0  0  0  0  0  0  0  0  0  0  0
   23.8946   49.3127   40.4452 C   0  0  0  0  0  0  0  0  0  0  0  0
   24.3407   49.5176   39.0013 C   0  0  0  0  0  0  0  0  0  0  0  0
   25.7557   50.0815   38.9374 C   0  0  0  0  0  0  0  0  0  0  0  0
   26.2612   50.1935   37.5724 N   0  0  0  0  0  0  0  0  0  0  0  0
   27.6488   50.5456   37.3229 C   0  0  0  0  0  0  0  0  0  0  0  0
   28.6305   49.5560   37.9408 C   0  0  0  0  0  0  0  0  0  0  0  0
   30.0556   49.9084   37.5290 C   0  0  0  0  0  0  0  0  0  0  0  0
   31.0417   48.9926   38.2459 C   0  0  0  0  0  0  0  0  0  0  0  0
   30.8992   47.6070   37.8333 N   0  0  0  0  0  0  0  0  0  0  0  0
   31.4747   46.5519   38.6569 C   0  0  0  0  0  0  0  0  0  0  0  0
   31.2975   45.1403   38.1015 C   0  0  0  0  0  0  0  0  0  0  0  0
   32.0343   44.9875   36.7698 C   0  0  0  0  0  0  0  0  0  0  0  0
   31.8325   43.6520   36.2341 N   0  0  0  0  0  0  0  0  0  0  0  0
  1  2  1  0  0  0  0
  2  3  1  0  0  0  0
  3  4  1  0  0  0  0
  4  5  1  0  0  0  0
  5  6  1  0  0  0  0
  6  7  1  0  0  0  0
  7  8  1  0  0  0  0
  8  9  1  0  0  0  0
  9 10  1  0  0  0  0
 10 11  1  0  0  0  0
 11 12  1  0  0  0  0
 12 13  1  0  0  0  0
 13 14  1  0  0  0  0
M  END
>  <CHROM.1>
63.35999770,175.43818979,-171.97532382,59.41074775,174.55373392,175.06704687
65.41667658,-162.91332898,-178.26350545,63.66431938,-178.60757441,28.50031882
48.33115814,38.26663242,2.63284948,0.39025548,-0.14116348

>  <Name>
ligand

>  <RI>
0

>  <Rbt.Current_Directory>
/home/itssahil/PROJECTS/Mol_Feturizer/New_Systems/rnas/4P5J

>  <Rbt.Executable>
rbdock ($Id: //depot/dev/client3/rdock/2013.1/src/exe/rbdock.cxx#4 $)

>  <Rbt.Library>
libRbt.so (2013.1, Build901 2013/11/27)

>  <Rbt.Parameter_File>
/export/apps/rDock/src/rDock_2013.1_src/data/scripts/dock_solv.prm

>  <Rbt.Receptor>
prm/pocket_docking_4.prm

>  <SCORE>
-2.4189

>  <SCORE.INTER>
6.50747

>  <SCORE.INTER.CONST>
1

>  <SCORE.INTER.POLAR>
0

>  <SCORE.INTER.ROT>
11

>  <SCORE.INTER.SOLV>
6.64812

>  <SCORE.INTER.VDW>
-8.81106

>  <SCORE.INTER.norm>
0.464819

>  <SCORE.INTRA>
-8.93172

>  <SCORE.INTRA.DIHEDRAL>
-16.7416

>  <SCORE.INTRA.DIHEDRAL.0>
17.5233

>  <SCORE.INTRA.POLAR>
0

>  <SCORE.INTRA.POLAR.0>
0

>  <SCORE.INTRA.REPUL>
0

>  <SCORE.INTRA.REPUL.0>
0

>  <SCORE.INTRA.SOLV>
-1.2294

>  <SCORE.INTRA.SOLV.lig_0>
-46.1043

>  <SCORE.INTRA.VDW>
0.053795

>  <SCORE.INTRA.VDW.0>
-0.545445

>  <SCORE.INTRA.norm>
-0.63798

>  <SCORE.RESTR>
0.00535531

>  <SCORE.RESTR.CAVITY>
0.00535531

>  <SCORE.RESTR.norm>
0.000382522

>  <SCORE.SYSTEM>
0

>  <SCORE.SYSTEM.CONST>
0

>  <SCORE.SYSTEM.DIHEDRAL>
0

>  <SCORE.SYSTEM.SOLV>
0

>  <SCORE.SYSTEM.norm>
0

>  <SCORE.heavy>
14

>  <SCORE.norm>
-0.172778

>  <RMSD>
2.833

$$$$
ligand
 OpenBabel11021811513D
libRbt.so/2013.1/901 2013/11/27
 14 13  0  0  0  0  0  0  0  0999 V2000
   32.6511   45.7235   41.6453 N   0  0  0  0  0  0  0  0  0  0  0  0
   31.4882   44.9658   41.2122 C   0  0  0  0  0  0  0  0  0  0  0  0
   30.2604   45.8681   41.1500 C   0  0  0  0  0  0  0  0  0  0  0  0
   30.4387   46.9689   40.1104 C   0  0  0  0  0  0  0  0  0  0  0  0
   29.3064   47.8888   40.0574 N   0  0  0  0  0  0  0  0  0  0  0  0
   29.2683   48.9610   39.0772 C   0  0  0  0  0  0  0  0  0  0  0  0
   27.8594   49.4914   38.8352 C   0  0  0  0  0  0  0  0  0  0  0  0
   27.8818   50.5516   37.7397 C   0  0  0  0  0  0  0  0  0  0  0  0
   26.4609   51.0196   37.4447 C   0  0  0  0  0  0  0  0  0  0  0  0
   25.8490   51.6649   38.5934 N   0  0  0  0  0  0  0  0  0  0  0  0
   24.4358   52.0163   38.5487 C   0  0  0  0  0  0  0  0  0  0  0  0
   23.8897   52.6308   39.8358 C   0  0  0  0  0  0  0  0  0  0  0  0
   24.5708   53.9693   40.1264 C   0  0  0  0  0  0  0  0  0  0  0  0
   24.0424   54.5468   41.3505 N   0  0  0  0  0  0  0  0  0  0  0  0
  1  2  1  0  0  0  0
  2  3  1  0  0  0  0
  3  4  1  0  0  0  0
  4  5  1  0  0  0  0
  5  6  1  0  0  0  0
  6  7  1  0  0  0  0
  7  8  1  0  0  0  0
  8  9  1  0  0  0  0
  9 10  1  0  0  0  0
 10 11  1  0  0  0  0
 11 12  1  0  0  0  0
 12 13  1  0  0  0  0
 13 14  1  0  0  0  0
M  END
>  <CHROM.1>
63.34961404,-177.65119341,-176.76691492,159.74575635,-176.62093222,176.69780963
63.22872679,-171.97372169,177.33777660,63.87590742,179.87042192,27.74297581
49.73325209,39.69447012,0.11087944,-0.82067049,1.53786900

>  <Name>
ligand

>  <RI>
0

>  <Rbt.Current_Directory>
/home/itssahil/PROJECTS/Mol_Feturizer/New_Systems/rnas/4P5J

>  <Rbt.Executable>
rbdock ($Id: //depot/dev/client3/rdock/2013.1/src/exe/rbdock.cxx#4 $)

>  <Rbt.Library>
libRbt.so (2013.1, Build901 2013/11/27)

>  <Rbt.Parameter_File>
/export/apps/rDock/src/rDock_2013.1_src/data/scripts/dock_solv.prm

>  <Rbt.Receptor>
prm/pocket_docking_3.prm

>  <SCORE>
-0.811695

>  <SCORE.INTER>
8.67824

>  <SCORE.INTER.CONST>
1

>  <SCORE.INTER.POLAR>
0

>  <SCORE.INTER.ROT>
11

>  <SCORE.INTER.SOLV>
4.71227

>  <SCORE.INTER.VDW>
-6.7186

>  <SCORE.INTER.norm>
0.619874

>  <SCORE.INTRA>
-9.48994

>  <SCORE.INTRA.DIHEDRAL>
-16.9018

>  <SCORE.INTRA.DIHEDRAL.0>
17.5233

>  <SCORE.INTRA.POLAR>
0

>  <SCORE.INTRA.POLAR.0>
0

>  <SCORE.INTRA.REPUL>
0

>  <SCORE.INTRA.REPUL.0>
0

>  <SCORE.INTRA.SOLV>
-1.18256

>  <SCORE.INTRA.SOLV.lig_0>
-46.1043

>  <SCORE.INTRA.VDW>
-0.447763

>  <SCORE.INTRA.VDW.0>
-0.545445

>  <SCORE.INTRA.norm>
-0.677853

>  <SCORE.RESTR>
0

>  <SCORE.RESTR.CAVITY>
0

>  <SCORE.RESTR.norm>
0

>  <SCORE.SYSTEM>
0

>  <SCORE.SYSTEM.CONST>
0

>  <SCORE.SYSTEM.DIHEDRAL>
0

>  <SCORE.SYSTEM.SOLV>
0

>  <SCORE.SYSTEM.norm>
0

>  <SCORE.heavy>
14

>  <SCORE.norm>
-0.0579782

>  <RMSD>
2.864

$$$$
ligand
 OpenBabel11021811513D
libRbt.so/2013.1/901 2013/11/27
 14 13  0  0  0  0  0  0  0  0999 V2000
   24.4920   50.5714   39.9919 N   0  0  0  0  0  0  0  0  0  0  0  0
   25.5914   49.9494   39.2719 C   0  0  0  0  0  0  0  0  0  0  0  0
   26.1939   50.9315   38.2728 C   0  0  0  0  0  0  0  0  0  0  0  0
   27.3945   50.3219   37.5579 C   0  0  0  0  0  0  0  0  0  0  0  0
   28.4836   49.9796   38.4678 N   0  0  0  0  0  0  0  0  0  0  0  0
   29.6447   49.2471   37.9910 C   0  0  0  0  0  0  0  0  0  0  0  0
   30.5001   48.6917   39.1245 C   0  0  0  0  0  0  0  0  0  0  0  0
   29.6988   47.6792   39.9351 C   0  0  0  0  0  0  0  0  0  0  0  0
   30.5747   47.0888   41.0349 C   0  0  0  0  0  0  0  0  0  0  0  0
   31.7233   46.3805   40.4969 N   0  0  0  0  0  0  0  0  0  0  0  0
   31.5296   45.0897   39.8496 C   0  0  0  0  0  0  0  0  0  0  0  0
   31.4767   45.1419   38.3242 C   0  0  0  0  0  0  0  0  0  0  0  0
   32.8200   45.5986   37.7526 C   0  0  0  0  0  0  0  0  0  0  0  0
   32.7874   45.5605   36.3005 N   0  0  0  0  0  0  0  0  0  0  0  0
  1  2  1  0  0  0  0
  2  3  1  0  0  0  0
  3  4  1  0  0  0  0
  4  5  1  0  0  0  0
  5  6  1  0  0  0  0
  6  7  1  0  0  0  0
  7  8  1  0  0  0  0
  8  9  1  0  0  0  0
  9 10  1  0  0  0  0
 10 11  1  0  0  0  0
 11 12  1  0  0  0  0
 12 13  1  0  0  0  0
 13 14  1  0  0  0  0
M  END
>  <CHROM.1>
177.09215258,-61.87261227,172.79290936,-166.03539318,63.05158351,177.90815376
-61.51047310,-72.81462560,98.75124835,64.73050830,176.25635757,29.49366828
48.01652233,38.88371297,2.96212638,0.65127061,-1.21151066

>  <Name>
ligand

>  <RI>
0

>  <Rbt.Current_Directory>
/home/itssahil/PROJECTS/Mol_Feturizer/New_Systems/rnas/4P5J

>  <Rbt.Executable>
rbdock ($Id: //depot/dev/client3/rdock/2013.1/src/exe/rbdock.cxx#4 $)

>  <Rbt.Library>
libRbt.so (2013.1, Build901 2013/11/27)

>  <Rbt.Parameter_File>
/export/apps/rDock/src/rDock_2013.1_src/data/scripts/dock_solv.prm

>  <Rbt.Receptor>
prm/pocket_docking_3.prm

>  <SCORE>
-2.21244

>  <SCORE.INTER>
6.96567

>  <SCORE.INTER.CONST>
1

>  <SCORE.INTER.POLAR>
0

>  <SCORE.INTER.ROT>
11

>  <SCORE.INTER.SOLV>
4.69053

>  <SCORE.INTER.VDW>
-7.85306

>  <SCORE.INTER.norm>
0.497548

>  <SCORE.INTRA>
-9.17812

>  <SCORE.INTRA.DIHEDRAL>
-16.0878

>  <SCORE.INTRA.DIHEDRAL.0>
17.5233

>  <SCORE.INTRA.POLAR>
0

>  <SCORE.INTRA.POLAR.0>
0

>  <SCORE.INTRA.REPUL>
0

>  <SCORE.INTRA.REPUL.0>
0

>  <SCORE.INTRA.SOLV>
-1.20335

>  <SCORE.INTRA.SOLV.lig_0>
-46.1043

>  <SCORE.INTRA.VDW>
-0.532527

>  <SCORE.INTRA.VDW.0>
-0.545445

>  <SCORE.INTRA.norm>
-0.65558

>  <SCORE.RESTR>
0

>  <SCORE.RESTR.CAVITY>
0

>  <SCORE.RESTR.norm>
0

>  <SCORE.SYSTEM>
0

>  <SCORE.SYSTEM.CONST>
0

>  <SCORE.SYSTEM.DIHEDRAL>
0

>  <SCORE.SYSTEM.SOLV>
0

>  <SCORE.SYSTEM.norm>
0

>  <SCORE.heavy>
14

>  <SCORE.norm>
-0.158032

>  <RMSD>
2.873

$$$$
ligand
 OpenBabel11021811513D
libRbt.so/2013.1/901 2013/11/27
 14 13  0  0  0  0  0  0  0  0999 V2000
   23.8869   54.2598   41.9368 N   0  0  0  0  0  0  0  0  0  0  0  0
   23.5104   52.9717   41.3772 C   0  0  0  0  0  0  0  0  0  0  0  0
   24.6342   52.4242   40.5036 C   0  0  0  0  0  0  0  0  0  0  0  0
   24.2967   51.0322   39.9814 C   0  0  0  0  0  0  0  0  0  0  0  0
   25.3901   50.4288   39.2255 N   0  0  0  0  0  0  0  0  0  0  0  0
   26.5994   49.9850   39.8983 C   0  0  0  0  0  0  0  0  0  0  0  0
   27.6313   49.4038   38.9379 C   0  0  0  0  0  0  0  0  0  0  0  0
   28.1432   50.4920   38.0008 C   0  0  0  0  0  0  0  0  0  0  0  0
   29.0106   49.8699   36.9120 C   0  0  0  0  0  0  0  0  0  0  0  0
   30.1867   49.2151   37.4584 N   0  0  0  0  0  0  0  0  0  0  0  0
   31.0897   48.5024   36.5644 C   0  0  0  0  0  0  0  0  0  0  0  0
   32.1462   47.6533   37.2681 C   0  0  0  0  0  0  0  0  0  0  0  0
   31.4883   46.5371   38.0811 C   0  0  0  0  0  0  0  0  0  0  0  0
   32.5013   45.7358   38.7466 N   0  0  0  0  0  0  0  0  0  0  0  0
  1  2  1  0  0  0  0
  2  3  1  0  0  0  0
  3  4  1  0  0  0  0
  4  5  1  0  0  0  0
  5  6  1  0  0  0  0
  6  7  1  0  0  0  0
  7  8  1  0  0  0  0
  8  9  1  0  0  0  0
  9 10  1  0  0  0  0
 10 11  1  0  0  0  0
 11 12  1  0  0  0  0
 12 13  1  0  0  0  0
 13 14  1  0  0  0  0
M  END
>  <CHROM.1>
176.25168333,-175.53620870,70.67831497,-179.08089132,65.72704998,-171.49412947
-62.06912146,176.62443525,-169.73730238,63.19430612,-179.97869187,27.89389930
49.89364203,38.92068813,3.03931808,0.68810604,-0.84913828

>  <Name>
ligand

>  <RI>
0

>  <Rbt.Current_Directory>
/home/itssahil/PROJECTS/Mol_Feturizer/New_Systems/rnas/4P5J

>  <Rbt.Executable>
rbdock ($Id: //depot/dev/client3/rdock/2013.1/src/exe/rbdock.cxx#4 $)

>  <Rbt.Library>
libRbt.so (2013.1, Build901 2013/11/27)

>  <Rbt.Parameter_File>
/export/apps/rDock/src/rDock_2013.1_src/data/scripts/dock_solv.prm

>  <Rbt.Receptor>
prm/pocket_docking_3.prm

>  <SCORE>
-0.00840691

>  <SCORE.INTER>
9.44613

>  <SCORE.INTER.CONST>
1

>  <SCORE.INTER.POLAR>
0

>  <SCORE.INTER.ROT>
11

>  <SCORE.INTER.SOLV>
2.32323

>  <SCORE.INTER.VDW>
-5.41032

>  <SCORE.INTER.norm>
0.674724

>  <SCORE.INTRA>
-9.45454

>  <SCORE.INTRA.DIHEDRAL>
-16.7329

>  <SCORE.INTRA.DIHEDRAL.0>
17.5233

>  <SCORE.INTRA.POLAR>
0

>  <SCORE.INTRA.POLAR.0>
0

>  <SCORE.INTRA.REPUL>
0

>  <SCORE.INTRA.REPUL.0>
0

>  <SCORE.INTRA.SOLV>
-1.57432

>  <SCORE.INTRA.SOLV.lig_0>
-46.1043

>  <SCORE.INTRA.VDW>
-0.300912

>  <SCORE.INTRA.VDW.0>
-0.545445

>  <SCORE.INTRA.norm>
-0.675324

>  <SCORE.RESTR>
0

>  <SCORE.RESTR.CAVITY>
0

>  <SCORE.RESTR.norm>
0

>  <SCORE.SYSTEM>
0

>  <SCORE.SYSTEM.CONST>
0

>  <SCORE.SYSTEM.DIHEDRAL>
0

>  <SCORE.SYSTEM.SOLV>
0

>  <SCORE.SYSTEM.norm>
0

>  <SCORE.heavy>
14

>  <SCORE.norm>
-0.000600494

>  <RMSD>
2.939

$$$$
ligand
 OpenBabel11021811513D
libRbt.so/2013.1/901 2013/11/27
 14 13  0  0  0  0  0  0  0  0999 V2000
   32.1048   45.5029   37.8579 N   0  0  0  0  0  0  0  0  0  0  0  0
   31.6558   46.8834   37.7768 C   0  0  0  0  0  0  0  0  0  0  0  0
   32.0364   47.4866   36.4288 C   0  0  0  0  0  0  0  0  0  0  0  0
   31.6931   48.9710   36.3736 C   0  0  0  0  0  0  0  0  0  0  0  0
   30.2550   49.2217   36.3759 N   0  0  0  0  0  0  0  0  0  0  0  0
   29.5603   49.5390   37.6123 C   0  0  0  0  0  0  0  0  0  0  0  0
   28.0744   49.8095   37.4032 C   0  0  0  0  0  0  0  0  0  0  0  0
   27.3974   50.0691   38.7444 C   0  0  0  0  0  0  0  0  0  0  0  0
   25.8872   50.1563   38.5524 C   0  0  0  0  0  0  0  0  0  0  0  0
   25.2001   50.5119   39.7820 N   0  0  0  0  0  0  0  0  0  0  0  0
   25.0633   51.9162   40.1454 C   0  0  0  0  0  0  0  0  0  0  0  0
   24.3518   52.1655   41.4735 C   0  0  0  0  0  0  0  0  0  0  0  0
   24.2748   53.6637   41.7720 C   0  0  0  0  0  0  0  0  0  0  0  0
   25.6046   54.1971   42.0135 N   0  0  0  0  0  0  0  0  0  0  0  0
  1  2  1  0  0  0  0
  2  3  1  0  0  0  0
  3  4  1  0  0  0  0
  4  5  1  0  0  0  0
  5  6  1  0  0  0  0
  6  7  1  0  0  0  0
  7  8  1  0  0  0  0
  8  9  1  0  0  0  0
  9 10  1  0  0  0  0
 10 11  1  0  0  0  0
 11 12  1  0  0  0  0
 12 13  1  0  0  0  0
 13 14  1  0  0  0  0
M  END
>  <CHROM.1>
-174.59821468,-68.15470237,96.60418484,178.20937765,177.31465730,-172.57548752
-175.27611248,85.16797697,-178.65758274,179.28042233,-66.92418302,28.08268568
50.00677067,38.73644599,0.51929413,-0.60737165,3.02517921

>  <Name>
ligand

>  <RI>
0

>  <Rbt.Current_Directory>
/home/itssahil/PROJECTS/Mol_Feturizer/New_Systems/rnas/4P5J

>  <Rbt.Executable>
rbdock ($Id: //depot/dev/client3/rdock/2013.1/src/exe/rbdock.cxx#4 $)

>  <Rbt.Library>
libRbt.so (2013.1, Build901 2013/11/27)

>  <Rbt.Parameter_File>
/export/apps/rDock/src/rDock_2013.1_src/data/scripts/dock_solv.prm

>  <Rbt.Receptor>
prm/pocket_docking_3.prm

>  <SCORE>
0.707528

>  <SCORE.INTER>
9.64724

>  <SCORE.INTER.CONST>
1

>  <SCORE.INTER.POLAR>
0

>  <SCORE.INTER.ROT>
11

>  <SCORE.INTER.SOLV>
3.04517

>  <SCORE.INTER.VDW>
-5.5169

>  <SCORE.INTER.norm>
0.689088

>  <SCORE.INTRA>
-8.94065

>  <SCORE.INTRA.DIHEDRAL>
-15.3876

>  <SCORE.INTRA.DIHEDRAL.0>
17.5233

>  <SCORE.INTRA.POLAR>
0

>  <SCORE.INTRA.POLAR.0>
0

>  <SCORE.INTRA.REPUL>
0

>  <SCORE.INTRA.REPUL.0>
0

>  <SCORE.INTRA.SOLV>
-1.65974

>  <SCORE.INTRA.SOLV.lig_0>
-46.1043

>  <SCORE.INTRA.VDW>
-0.416981

>  <SCORE.INTRA.VDW.0>
-0.545445

>  <SCORE.INTRA.norm>
-0.638618

>  <SCORE.RESTR>
0.000945045

>  <SCORE.RESTR.CAVITY>
0.000945045

>  <SCORE.RESTR.norm>
6.75032e-05

>  <SCORE.SYSTEM>
0

>  <SCORE.SYSTEM.CONST>
0

>  <SCORE.SYSTEM.DIHEDRAL>
0

>  <SCORE.SYSTEM.SOLV>
0

>  <SCORE.SYSTEM.norm>
0

>  <SCORE.heavy>
14

>  <SCORE.norm>
0.0505377

>  <RMSD>
3.013

$$$$
ligand
 OpenBabel11021811513D
libRbt.so/2013.1/901 2013/11/27
 14 13  0  0  0  0  0  0  0  0999 V2000
   31.5131   45.1997   39.9254 N   0  0  0  0  0  0  0  0  0  0  0  0
   31.5398   44.8996   38.5030 C   0  0  0  0  0  0  0  0  0  0  0  0
   31.9982   46.1203   37.7121 C   0  0  0  0  0  0  0  0  0  0  0  0
   32.0781   45.8116   36.2212 C   0  0  0  0  0  0  0  0  0  0  0  0
   32.5187   46.9549   35.4275 N   0  0  0  0  0  0  0  0  0  0  0  0
   31.5591   47.9288   34.9351 C   0  0  0  0  0  0  0  0  0  0  0  0
   30.9260   48.7520   36.0515 C   0  0  0  0  0  0  0  0  0  0  0  0
   29.9628   49.7767   35.4625 C   0  0  0  0  0  0  0  0  0  0  0  0
   29.2084   50.4811   36.5849 C   0  0  0  0  0  0  0  0  0  0  0  0
   28.3521   49.5691   37.3235 N   0  0  0  0  0  0  0  0  0  0  0  0
   27.7135   50.0229   38.5518 C   0  0  0  0  0  0  0  0  0  0  0  0
   26.5120   50.9425   38.3446 C   0  0  0  0  0  0  0  0  0  0  0  0
   25.3864   50.2049   37.6175 C   0  0  0  0  0  0  0  0  0  0  0  0
   24.2395   51.0806   37.4470 N   0  0  0  0  0  0  0  0  0  0  0  0
  1  2  1  0  0  0  0
  2  3  1  0  0  0  0
  3  4  1  0  0  0  0
  4  5  1  0  0  0  0
  5  6  1  0  0  0  0
  6  7  1  0  0  0  0
  7  8  1  0  0  0  0
  8  9  1  0  0  0  0
  9 10  1  0  0  0  0
 10 11  1  0  0  0  0
 11 12  1  0  0  0  0
 12 13  1  0  0  0  0
 13 14  1  0  0  0  0
M  END
>  <CHROM.1>
178.08710814,-179.78821905,-87.30426050,67.89364096,178.40300234,173.20777713
-64.65258664,170.78656632,76.19823196,63.74285934,178.96616251,29.53642758
48.41042064,37.15039945,0.34545598,-0.57854347,2.25967548

>  <Name>
ligand

>  <RI>
0

>  <Rbt.Current_Directory>
/home/itssahil/PROJECTS/Mol_Feturizer/New_Systems/rnas/4P5J

>  <Rbt.Executable>
rbdock ($Id: //depot/dev/client3/rdock/2013.1/src/exe/rbdock.cxx#4 $)

>  <Rbt.Library>
libRbt.so (2013.1, Build901 2013/11/27)

>  <Rbt.Parameter_File>
/export/apps/rDock/src/rDock_2013.1_src/data/scripts/dock_solv.prm

>  <Rbt.Receptor>
prm/pocket_docking_4.prm

>  <SCORE>
-2.02382

>  <SCORE.INTER>
7.11928

>  <SCORE.INTER.CONST>
1

>  <SCORE.INTER.POLAR>
0

>  <SCORE.INTER.ROT>
11

>  <SCORE.INTER.SOLV>
11.0663

>  <SCORE.INTER.VDW>
-9.87593

>  <SCORE.INTER.norm>
0.50852

>  <SCORE.INTRA>
-9.1431

>  <SCORE.INTRA.DIHEDRAL>
-16.332

>  <SCORE.INTRA.DIHEDRAL.0>
17.5233

>  <SCORE.INTRA.POLAR>
0

>  <SCORE.INTRA.POLAR.0>
0

>  <SCORE.INTRA.REPUL>
0

>  <SCORE.INTRA.REPUL.0>
0

>  <SCORE.INTRA.SOLV>
-1.99125

>  <SCORE.INTRA.SOLV.lig_0>
-46.1043

>  <SCORE.INTRA.VDW>
0.0185423

>  <SCORE.INTRA.VDW.0>
-0.545445

>  <SCORE.INTRA.norm>
-0.653078

>  <SCORE.RESTR>
0

>  <SCORE.RESTR.CAVITY>
0

>  <SCORE.RESTR.norm>
0

>  <SCORE.SYSTEM>
0

>  <SCORE.SYSTEM.CONST>
0

>  <SCORE.SYSTEM.DIHEDRAL>
0

>  <SCORE.SYSTEM.SOLV>
0

>  <SCORE.SYSTEM.norm>
0

>  <SCORE.heavy>
14

>  <SCORE.norm>
-0.144558

>  <RMSD>
3.017

$$$$
ligand
 OpenBabel11021811513D
libRbt.so/2013.1/901 2013/11/27
 14 13  0  0  0  0  0  0  0  0999 V2000
   33.5734   44.2026   41.8343 N   0  0  0  0  0  0  0  0  0  0  0  0
   33.0467   45.3043   41.0451 C   0  0  0  0  0  0  0  0  0  0  0  0
   32.0114   44.7949   40.0479 C   0  0  0  0  0  0  0  0  0  0  0  0
   31.5023   45.9236   39.1585 C   0  0  0  0  0  0  0  0  0  0  0  0
   30.8381   46.9838   39.9107 N   0  0  0  0  0  0  0  0  0  0  0  0
   30.1973   48.0912   39.2217 C   0  0  0  0  0  0  0  0  0  0  0  0
   28.8451   48.4590   39.8227 C   0  0  0  0  0  0  0  0  0  0  0  0
   28.1524   49.5004   38.9510 C   0  0  0  0  0  0  0  0  0  0  0  0
   26.7325   49.7342   39.4553 C   0  0  0  0  0  0  0  0  0  0  0  0
   25.9961   50.6546   38.6062 N   0  0  0  0  0  0  0  0  0  0  0  0
   24.5698   50.4471   38.3931 C   0  0  0  0  0  0  0  0  0  0  0  0
   23.8972   51.4953   37.5093 C   0  0  0  0  0  0  0  0  0  0  0  0
   23.9589   52.8754   38.1660 C   0  0  0  0  0  0  0  0  0  0  0  0
   23.2239   52.8689   39.4194 N   0  0  0  0  0  0  0  0  0  0  0  0
  1  2  1  0  0  0  0
  2  3  1  0  0  0  0
  3  4  1  0  0  0  0
  4  5  1  0  0  0  0
  5  6  1  0  0  0  0
  6  7  1  0  0  0  0
  7  8  1  0  0  0  0
  8  9  1  0  0  0  0
  9 10  1  0  0  0  0
 10 11  1  0  0  0  0
 11 12  1  0  0  0  0
 12 13  1  0  0  0  0
 13 14  1  0  0  0  0
M  END
>  <CHROM.1>
-176.90060762,-61.41457374,-175.19511494,137.43503226,-172.82932425,172.86165003
-176.22294194,144.45187948,178.65571563,-63.56509913,-62.77097829,28.32460668
48.66681783,39.39558253,0.03331887,-0.69553415,1.31261667

>  <Name>
ligand

>  <RI>
0

>  <Rbt.Current_Directory>
/home/itssahil/PROJECTS/Mol_Feturizer/New_Systems/rnas/4P5J

>  <Rbt.Executable>
rbdock ($Id: //depot/dev/client3/rdock/2013.1/src/exe/rbdock.cxx#4 $)

>  <Rbt.Library>
libRbt.so (2013.1, Build901 2013/11/27)

>  <Rbt.Parameter_File>
/export/apps/rDock/src/rDock_2013.1_src/data/scripts/dock_solv.prm

>  <Rbt.Receptor>
prm/pocket_docking_4.prm

>  <SCORE>
-1.47582

>  <SCORE.INTER>
6.90014

>  <SCORE.INTER.CONST>
1

>  <SCORE.INTER.POLAR>
0

>  <SCORE.INTER.ROT>
11

>  <SCORE.INTER.SOLV>
5.3067

>  <SCORE.INTER.VDW>
-8.10214

>  <SCORE.INTER.norm>
0.492867

>  <SCORE.INTRA>
-8.37872

>  <SCORE.INTRA.DIHEDRAL>
-15.1861

>  <SCORE.INTRA.DIHEDRAL.0>
17.5233

>  <SCORE.INTRA.POLAR>
0

>  <SCORE.INTRA.POLAR.0>
0

>  <SCORE.INTRA.REPUL>
0

>  <SCORE.INTRA.REPUL.0>
0

>  <SCORE.INTRA.SOLV>
-0.563318

>  <SCORE.INTRA.SOLV.lig_0>
-46.1043

>  <SCORE.INTRA.VDW>
-0.504022

>  <SCORE.INTRA.VDW.0>
-0.545445

>  <SCORE.INTRA.norm>
-0.59848

>  <SCORE.RESTR>
0.00276588

>  <SCORE.RESTR.CAVITY>
0.00276588

>  <SCORE.RESTR.norm>
0.000197563

>  <SCORE.SYSTEM>
0

>  <SCORE.SYSTEM.CONST>
0

>  <SCORE.SYSTEM.DIHEDRAL>
0

>  <SCORE.SYSTEM.SOLV>
0

>  <SCORE.SYSTEM.norm>
0

>  <SCORE.heavy>
14

>  <SCORE.norm>
-0.105415

>  <RMSD>
3.018

$$$$
ligand
 OpenBabel11021811513D
libRbt.so/2013.1/901 2013/11/27
 14 13  0  0  0  0  0  0  0  0999 V2000
   32.0723   43.3985   36.2713 N   0  0  0  0  0  0  0  0  0  0  0  0
   31.4830   43.8534   37.5202 C   0  0  0  0  0  0  0  0  0  0  0  0
   31.6349   45.3646   37.6588 C   0  0  0  0  0  0  0  0  0  0  0  0
   31.0753   45.8540   38.9898 C   0  0  0  0  0  0  0  0  0  0  0  0
   31.1344   47.3058   39.1312 N   0  0  0  0  0  0  0  0  0  0  0  0
   30.6250   47.9548   40.3275 C   0  0  0  0  0  0  0  0  0  0  0  0
   29.1204   48.1955   40.2749 C   0  0  0  0  0  0  0  0  0  0  0  0
   28.7906   49.2000   39.1764 C   0  0  0  0  0  0  0  0  0  0  0  0
   27.2893   49.4661   39.1535 C   0  0  0  0  0  0  0  0  0  0  0  0
   26.9124   50.3766   38.0862 N   0  0  0  0  0  0  0  0  0  0  0  0
   25.6352   50.1963   37.4088 C   0  0  0  0  0  0  0  0  0  0  0  0
   24.4084   50.4767   38.2741 C   0  0  0  0  0  0  0  0  0  0  0  0
   24.3983   51.9333   38.7409 C   0  0  0  0  0  0  0  0  0  0  0  0
   23.2690   52.1704   39.6238 N   0  0  0  0  0  0  0  0  0  0  0  0
  1  2  1  0  0  0  0
  2  3  1  0  0  0  0
  3  4  1  0  0  0  0
  4  5  1  0  0  0  0
  5  6  1  0  0  0  0
  6  7  1  0  0  0  0
  7  8  1  0  0  0  0
  8  9  1  0  0  0  0
  9 10  1  0  0  0  0
 10 11  1  0  0  0  0
 11 12  1  0  0  0  0
 12 13  1  0  0  0  0
 13 14  1  0  0  0  0
M  END
>  <CHROM.1>
-177.60354398,-176.83256341,178.99379984,-83.91682288,-65.73431106,-178.44780722
-177.61452956,145.32992707,67.85465449,61.80647655,-176.81097259,28.41778203
48.26755082,38.61710182,0.52592230,0.55340074,-2.27087075

>  <Name>
ligand

>  <RI>
0

>  <Rbt.Current_Directory>
/home/itssahil/PROJECTS/Mol_Feturizer/New_Systems/rnas/4P5J

>  <Rbt.Executable>
rbdock ($Id: //depot/dev/client3/rdock/2013.1/src/exe/rbdock.cxx#4 $)

>  <Rbt.Library>
libRbt.so (2013.1, Build901 2013/11/27)

>  <Rbt.Parameter_File>
/export/apps/rDock/src/rDock_2013.1_src/data/scripts/dock_solv.prm

>  <Rbt.Receptor>
prm/pocket_docking_4.prm

>  <SCORE>
-4.53492

>  <SCORE.INTER>
4.74005

>  <SCORE.INTER.CONST>
1

>  <SCORE.INTER.POLAR>
0

>  <SCORE.INTER.ROT>
11

>  <SCORE.INTER.SOLV>
6.88885

>  <SCORE.INTER.VDW>
-10.0696

>  <SCORE.INTER.norm>
0.338575

>  <SCORE.INTRA>
-9.27498

>  <SCORE.INTRA.DIHEDRAL>
-16.0497

>  <SCORE.INTRA.DIHEDRAL.0>
17.5233

>  <SCORE.INTRA.POLAR>
0

>  <SCORE.INTRA.POLAR.0>
0

>  <SCORE.INTRA.REPUL>
0

>  <SCORE.INTRA.REPUL.0>
0

>  <SCORE.INTRA.SOLV>
-1.9551

>  <SCORE.INTRA.SOLV.lig_0>
-46.1043

>  <SCORE.INTRA.VDW>
-0.272582

>  <SCORE.INTRA.VDW.0>
-0.545445

>  <SCORE.INTRA.norm>
-0.662498

>  <SCORE.RESTR>
0

>  <SCORE.RESTR.CAVITY>
0

>  <SCORE.RESTR.norm>
0

>  <SCORE.SYSTEM>
0

>  <SCORE.SYSTEM.CONST>
0

>  <SCORE.SYSTEM.DIHEDRAL>
0

>  <SCORE.SYSTEM.SOLV>
0

>  <SCORE.SYSTEM.norm>
0

>  <SCORE.heavy>
14

>  <SCORE.norm>
-0.323923

>  <RMSD>
3.024

$$$$
ligand
 OpenBabel11021811513D
libRbt.so/2013.1/901 2013/11/27
 14 13  0  0  0  0  0  0  0  0999 V2000
   22.9213   51.2673   40.3600 N   0  0  0  0  0  0  0  0  0  0  0  0
   23.6662   51.3745   39.1160 C   0  0  0  0  0  0  0  0  0  0  0  0
   24.4672   50.1010   38.8660 C   0  0  0  0  0  0  0  0  0  0  0  0
   25.3143   50.2226   37.6043 C   0  0  0  0  0  0  0  0  0  0  0  0
   26.3870   51.2045   37.7330 N   0  0  0  0  0  0  0  0  0  0  0  0
   27.6365   51.0356   37.0105 C   0  0  0  0  0  0  0  0  0  0  0  0
   28.4591   49.8568   37.5190 C   0  0  0  0  0  0  0  0  0  0  0  0
   29.8213   49.8369   36.8345 C   0  0  0  0  0  0  0  0  0  0  0  0
   30.6218   48.6303   37.3121 C   0  0  0  0  0  0  0  0  0  0  0  0
   30.7797   48.6167   38.7562 N   0  0  0  0  0  0  0  0  0  0  0  0
   30.8913   47.3417   39.4523 C   0  0  0  0  0  0  0  0  0  0  0  0
   29.8274   47.1029   40.5216 C   0  0  0  0  0  0  0  0  0  0  0  0
   30.1048   45.8030   41.2786 C   0  0  0  0  0  0  0  0  0  0  0  0
   31.3021   45.9397   42.0903 N   0  0  0  0  0  0  0  0  0  0  0  0
  1  2  1  0  0  0  0
  2  3  1  0  0  0  0
  3  4  1  0  0  0  0
  4  5  1  0  0  0  0
  5  6  1  0  0  0  0
  6  7  1  0  0  0  0
  7  8  1  0  0  0  0
  8  9  1  0  0  0  0
  9 10  1  0  0  0  0
 10 11  1  0  0  0  0
 11 12  1  0  0  0  0
 12 13  1  0  0  0  0
 13 14  1  0  0  0  0
M  END
>  <CHROM.1>
-176.93571261,67.37290201,149.32232179,-68.39306013,-173.33494818,-178.13553497
-56.88089860,149.82666257,-121.74667300,-174.81826687,68.63461151,28.01436262
49.16664133,38.88926146,2.66458948,0.37272669,-0.96216488

>  <Name>
ligand

>  <RI>
0

>  <Rbt.Current_Directory>
/home/itssahil/PROJECTS/Mol_Feturizer/New_Systems/rnas/4P5J

>  <Rbt.Executable>
rbdock ($Id: //depot/dev/client3/rdock/2013.1/src/exe/rbdock.cxx#4 $)

>  <Rbt.Library>
libRbt.so (2013.1, Build901 2013/11/27)

>  <Rbt.Parameter_File>
/export/apps/rDock/src/rDock_2013.1_src/data/scripts/dock_solv.prm

>  <Rbt.Receptor>
prm/pocket_docking_4.prm

>  <SCORE>
-2.64505

>  <SCORE.INTER>
5.21005

>  <SCORE.INTER.CONST>
1

>  <SCORE.INTER.POLAR>
0

>  <SCORE.INTER.ROT>
11

>  <SCORE.INTER.SOLV>
4.75622

>  <SCORE.INTER.VDW>
-9.04537

>  <SCORE.INTER.norm>
0.372146

>  <SCORE.INTRA>
-7.86497

>  <SCORE.INTRA.DIHEDRAL>
-14.2076

>  <SCORE.INTRA.DIHEDRAL.0>
17.5233

>  <SCORE.INTRA.POLAR>
0

>  <SCORE.INTRA.POLAR.0>
0

>  <SCORE.INTRA.REPUL>
0

>  <SCORE.INTRA.REPUL.0>
0

>  <SCORE.INTRA.SOLV>
-1.17342

>  <SCORE.INTRA.SOLV.lig_0>
-46.1043

>  <SCORE.INTRA.VDW>
-0.174487

>  <SCORE.INTRA.VDW.0>
-0.545445

>  <SCORE.INTRA.norm>
-0.561784

>  <SCORE.RESTR>
0.00987742

>  <SCORE.RESTR.CAVITY>
0.00987742

>  <SCORE.RESTR.norm>
0.00070553

>  <SCORE.SYSTEM>
0

>  <SCORE.SYSTEM.CONST>
0

>  <SCORE.SYSTEM.DIHEDRAL>
0

>  <SCORE.SYSTEM.SOLV>
0

>  <SCORE.SYSTEM.norm>
0

>  <SCORE.heavy>
14

>  <SCORE.norm>
-0.188932

>  <RMSD>
3.030

$$$$
ligand
 OpenBabel11021811513D
libRbt.so/2013.1/901 2013/11/27
 14 13  0  0  0  0  0  0  0  0999 V2000
   23.4125   49.0231   41.2895 N   0  0  0  0  0  0  0  0  0  0  0  0
   23.6269   49.0988   39.8534 C   0  0  0  0  0  0  0  0  0  0  0  0
   24.8343   49.9773   39.5431 C   0  0  0  0  0  0  0  0  0  0  0  0
   25.0473   50.1083   38.0392 C   0  0  0  0  0  0  0  0  0  0  0  0
   26.2053   50.9297   37.6991 N   0  0  0  0  0  0  0  0  0  0  0  0
   27.5133   50.3247   37.5117 C   0  0  0  0  0  0  0  0  0  0  0  0
   28.0909   49.7529   38.8018 C   0  0  0  0  0  0  0  0  0  0  0  0
   29.4477   49.1138   38.5279 C   0  0  0  0  0  0  0  0  0  0  0  0
   29.9471   48.4045   39.7820 C   0  0  0  0  0  0  0  0  0  0  0  0
   31.0968   47.5591   39.5099 N   0  0  0  0  0  0  0  0  0  0  0  0
   30.9060   46.2929   38.8148 C   0  0  0  0  0  0  0  0  0  0  0  0
   32.1468   45.4046   38.7544 C   0  0  0  0  0  0  0  0  0  0  0  0
   31.8954   44.1855   37.8653 C   0  0  0  0  0  0  0  0  0  0  0  0
   33.0868   43.3563   37.8006 N   0  0  0  0  0  0  0  0  0  0  0  0
  1  2  1  0  0  0  0
  2  3  1  0  0  0  0
  3  4  1  0  0  0  0
  4  5  1  0  0  0  0
  5  6  1  0  0  0  0
  6  7  1  0  0  0  0
  7  8  1  0  0  0  0
  8  9  1  0  0  0  0
  9 10  1  0  0  0  0
 10 11  1  0  0  0  0
 11 12  1  0  0  0  0
 12 13  1  0  0  0  0
 13 14  1  0  0  0  0
M  END
>  <CHROM.1>
-178.05320335,-179.29285474,91.36724391,-67.34784841,178.97373396,-173.51816629
168.55479050,-74.49915596,-171.98467650,-173.13050807,179.26601203,28.37548267
48.10955822,38.84223708,2.65335408,0.35254776,-0.39518263

>  <Name>
ligand

>  <RI>
0

>  <Rbt.Current_Directory>
/home/itssahil/PROJECTS/Mol_Feturizer/New_Systems/rnas/4P5J

>  <Rbt.Executable>
rbdock ($Id: //depot/dev/client3/rdock/2013.1/src/exe/rbdock.cxx#4 $)

>  <Rbt.Library>
libRbt.so (2013.1, Build901 2013/11/27)

>  <Rbt.Parameter_File>
/export/apps/rDock/src/rDock_2013.1_src/data/scripts/dock_solv.prm

>  <Rbt.Receptor>
prm/pocket_docking_5.prm

>  <SCORE>
-4.4493

>  <SCORE.INTER>
4.82255

>  <SCORE.INTER.CONST>
1

>  <SCORE.INTER.POLAR>
0

>  <SCORE.INTER.ROT>
11

>  <SCORE.INTER.SOLV>
5.07546

>  <SCORE.INTER.VDW>
-9.41012

>  <SCORE.INTER.norm>
0.344468

>  <SCORE.INTRA>
-9.27185

>  <SCORE.INTRA.DIHEDRAL>
-15.7653

>  <SCORE.INTRA.DIHEDRAL.0>
17.5233

>  <SCORE.INTRA.POLAR>
0

>  <SCORE.INTRA.POLAR.0>
0

>  <SCORE.INTRA.REPUL>
0

>  <SCORE.INTRA.REPUL.0>
0

>  <SCORE.INTRA.SOLV>
-2.73405

>  <SCORE.INTRA.SOLV.lig_0>
-46.1043

>  <SCORE.INTRA.VDW>
-0.0221569

>  <SCORE.INTRA.VDW.0>
-0.545445

>  <SCORE.INTRA.norm>
-0.662275

>  <SCORE.RESTR>
0

>  <SCORE.RESTR.CAVITY>
0

>  <SCORE.RESTR.norm>
0

>  <SCORE.SYSTEM>
0

>  <SCORE.SYSTEM.CONST>
0

>  <SCORE.SYSTEM.DIHEDRAL>
0

>  <SCORE.SYSTEM.SOLV>
0

>  <SCORE.SYSTEM.norm>
0

>  <SCORE.heavy>
14

>  <SCORE.norm>
-0.317807

>  <RMSD>
3.037

$$$$
ligand
 OpenBabel11021811513D
libRbt.so/2013.1/901 2013/11/27
 14 13  0  0  0  0  0  0  0  0999 V2000
   23.9806   50.0040   40.4902 N   0  0  0  0  0  0  0  0  0  0  0  0
   25.0615   50.0011   39.5177 C   0  0  0  0  0  0  0  0  0  0  0  0
   24.5380   50.3999   38.1419 C   0  0  0  0  0  0  0  0  0  0  0  0
   25.6524   50.3782   37.1017 C   0  0  0  0  0  0  0  0  0  0  0  0
   26.6956   51.3644   37.3665 N   0  0  0  0  0  0  0  0  0  0  0  0
   27.8652   51.4541   36.5086 C   0  0  0  0  0  0  0  0  0  0  0  0
   29.1466   51.0134   37.2075 C   0  0  0  0  0  0  0  0  0  0  0  0
   29.0225   49.5625   37.6588 C   0  0  0  0  0  0  0  0  0  0  0  0
   30.3288   49.1076   38.3006 C   0  0  0  0  0  0  0  0  0  0  0  0
   30.2517   47.7405   38.7859 N   0  0  0  0  0  0  0  0  0  0  0  0
   31.4312   47.1233   39.3779 C   0  0  0  0  0  0  0  0  0  0  0  0
   31.2030   45.7234   39.9440 C   0  0  0  0  0  0  0  0  0  0  0  0
   30.2449   45.7722   41.1354 C   0  0  0  0  0  0  0  0  0  0  0  0
   30.8693   46.4564   42.2549 N   0  0  0  0  0  0  0  0  0  0  0  0
  1  2  1  0  0  0  0
  2  3  1  0  0  0  0
  3  4  1  0  0  0  0
  4  5  1  0  0  0  0
  5  6  1  0  0  0  0
  6  7  1  0  0  0  0
  7  8  1  0  0  0  0
  8  9  1  0  0  0  0
  9 10  1  0  0  0  0
 10 11  1  0  0  0  0
 11 12  1  0  0  0  0
 12 13  1  0  0  0  0
 13 14  1  0  0  0  0
M  END
>  <CHROM.1>
-178.96081065,-64.29781635,177.60941009,-111.50747125,60.08762758,177.45979009
178.28223629,177.39570909,175.71876312,-65.55869394,-67.74761463,28.30666355
49.00726873,38.84191067,2.46421550,0.30516656,-0.86233161

>  <Name>
ligand

>  <RI>
0

>  <Rbt.Current_Directory>
/home/itssahil/PROJECTS/Mol_Feturizer/New_Systems/rnas/4P5J

>  <Rbt.Executable>
rbdock ($Id: //depot/dev/client3/rdock/2013.1/src/exe/rbdock.cxx#4 $)

>  <Rbt.Library>
libRbt.so (2013.1, Build901 2013/11/27)

>  <Rbt.Parameter_File>
/export/apps/rDock/src/rDock_2013.1_src/data/scripts/dock_solv.prm

>  <Rbt.Receptor>
prm/pocket_docking_4.prm

>  <SCORE>
-2.56348

>  <SCORE.INTER>
6.19596

>  <SCORE.INTER.CONST>
1

>  <SCORE.INTER.POLAR>
0

>  <SCORE.INTER.ROT>
11

>  <SCORE.INTER.SOLV>
5.54811

>  <SCORE.INTER.VDW>
-8.65206

>  <SCORE.INTER.norm>
0.442569

>  <SCORE.INTRA>
-8.75944

>  <SCORE.INTRA.DIHEDRAL>
-15.9044

>  <SCORE.INTRA.DIHEDRAL.0>
17.5233

>  <SCORE.INTRA.POLAR>
0

>  <SCORE.INTRA.POLAR.0>
0

>  <SCORE.INTRA.REPUL>
0

>  <SCORE.INTRA.REPUL.0>
0

>  <SCORE.INTRA.SOLV>
-0.335361

>  <SCORE.INTRA.SOLV.lig_0>
-46.1043

>  <SCORE.INTRA.VDW>
-0.639562

>  <SCORE.INTRA.VDW.0>
-0.545445

>  <SCORE.INTRA.norm>
-0.625674

>  <SCORE.RESTR>
0

>  <SCORE.RESTR.CAVITY>
0

>  <SCORE.RESTR.norm>
0

>  <SCORE.SYSTEM>
0

>  <SCORE.SYSTEM.CONST>
0

>  <SCORE.SYSTEM.DIHEDRAL>
0

>  <SCORE.SYSTEM.SOLV>
0

>  <SCORE.SYSTEM.norm>
0

>  <SCORE.heavy>
14

>  <SCORE.norm>
-0.183106

>  <RMSD>
3.041

$$$$
ligand
 OpenBabel11021811513D
libRbt.so/2013.1/901 2013/11/27
 14 13  0  0  0  0  0  0  0  0999 V2000
   32.1137   42.7911   36.4128 N   0  0  0  0  0  0  0  0  0  0  0  0
   31.6908   43.3705   37.6775 C   0  0  0  0  0  0  0  0  0  0  0  0
   31.6439   44.8914   37.5746 C   0  0  0  0  0  0  0  0  0  0  0  0
   31.2229   45.5196   38.8983 C   0  0  0  0  0  0  0  0  0  0  0  0
   31.0750   46.9697   38.8171 N   0  0  0  0  0  0  0  0  0  0  0  0
   30.1216   47.6658   39.6646 C   0  0  0  0  0  0  0  0  0  0  0  0
   29.4289   48.8213   38.9506 C   0  0  0  0  0  0  0  0  0  0  0  0
   28.2912   49.3596   39.8110 C   0  0  0  0  0  0  0  0  0  0  0  0
   27.5008   50.4027   39.0284 C   0  0  0  0  0  0  0  0  0  0  0  0
   26.8321   49.8279   37.8738 N   0  0  0  0  0  0  0  0  0  0  0  0
   25.9342   50.6566   37.0804 C   0  0  0  0  0  0  0  0  0  0  0  0
   24.4834   50.6636   37.5573 C   0  0  0  0  0  0  0  0  0  0  0  0
   24.3676   51.3401   38.9244 C   0  0  0  0  0  0  0  0  0  0  0  0
   22.9921   51.2987   39.3908 N   0  0  0  0  0  0  0  0  0  0  0  0
  1  2  1  0  0  0  0
  2  3  1  0  0  0  0
  3  4  1  0  0  0  0
  4  5  1  0  0  0  0
  5  6  1  0  0  0  0
  6  7  1  0  0  0  0
  7  8  1  0  0  0  0
  8  9  1  0  0  0  0
  9 10  1  0  0  0  0
 10 11  1  0  0  0  0
 11 12  1  0  0  0  0
 12 13  1  0  0  0  0
 13 14  1  0  0  0  0
M  END
>  <CHROM.1>
-179.12433129,-175.99027593,150.04155290,-142.26419676,170.87206756,-173.44157070
64.74405524,174.52014977,-88.68239095,66.71095030,-177.94992164,28.40708125
48.11291829,38.40450341,0.60876280,0.49603204,-2.42765472

>  <Name>
ligand

>  <RI>
0

>  <Rbt.Current_Directory>
/home/itssahil/PROJECTS/Mol_Feturizer/New_Systems/rnas/4P5J

>  <Rbt.Executable>
rbdock ($Id: //depot/dev/client3/rdock/2013.1/src/exe/rbdock.cxx#4 $)

>  <Rbt.Library>
libRbt.so (2013.1, Build901 2013/11/27)

>  <Rbt.Parameter_File>
/export/apps/rDock/src/rDock_2013.1_src/data/scripts/dock_solv.prm

>  <Rbt.Receptor>
prm/pocket_docking_4.prm

>  <SCORE>
-3.35575

>  <SCORE.INTER>
5.4134

>  <SCORE.INTER.CONST>
1

>  <SCORE.INTER.POLAR>
0

>  <SCORE.INTER.ROT>
11

>  <SCORE.INTER.SOLV>
8.3664

>  <SCORE.INTER.VDW>
-10.1132

>  <SCORE.INTER.norm>
0.386672

>  <SCORE.INTRA>
-8.76915

>  <SCORE.INTRA.DIHEDRAL>
-14.6843

>  <SCORE.INTRA.DIHEDRAL.0>
17.5233

>  <SCORE.INTRA.POLAR>
0

>  <SCORE.INTRA.POLAR.0>
0

>  <SCORE.INTRA.REPUL>
0

>  <SCORE.INTRA.REPUL.0>
0

>  <SCORE.INTRA.SOLV>
-1.91663

>  <SCORE.INTRA.SOLV.lig_0>
-46.1043

>  <SCORE.INTRA.VDW>
-0.468679

>  <SCORE.INTRA.VDW.0>
-0.545445

>  <SCORE.INTRA.norm>
-0.626368

>  <SCORE.RESTR>
0

>  <SCORE.RESTR.CAVITY>
0

>  <SCORE.RESTR.norm>
0

>  <SCORE.SYSTEM>
0

>  <SCORE.SYSTEM.CONST>
0

>  <SCORE.SYSTEM.DIHEDRAL>
0

>  <SCORE.SYSTEM.SOLV>
0

>  <SCORE.SYSTEM.norm>
0

>  <SCORE.heavy>
14

>  <SCORE.norm>
-0.239696

>  <RMSD>
3.051

$$$$
ligand
 OpenBabel11021811513D
libRbt.so/2013.1/901 2013/11/27
 14 13  0  0  0  0  0  0  0  0999 V2000
   25.8235   51.9502   39.3817 N   0  0  0  0  0  0  0  0  0  0  0  0
   26.9225   51.8128   38.4398 C   0  0  0  0  0  0  0  0  0  0  0  0
   27.5825   50.4462   38.5906 C   0  0  0  0  0  0  0  0  0  0  0  0
   28.7838   50.3100   37.6619 C   0  0  0  0  0  0  0  0  0  0  0  0
   29.3988   48.9872   37.7193 N   0  0  0  0  0  0  0  0  0  0  0  0
   30.8143   48.8405   38.0138 C   0  0  0  0  0  0  0  0  0  0  0  0
   31.1721   47.4471   38.5190 C   0  0  0  0  0  0  0  0  0  0  0  0
   30.4601   47.1716   39.8387 C   0  0  0  0  0  0  0  0  0  0  0  0
   30.7937   45.7643   40.3216 C   0  0  0  0  0  0  0  0  0  0  0  0
   32.2193   45.5838   40.5349 N   0  0  0  0  0  0  0  0  0  0  0  0
   32.7791   44.2387   40.5315 C   0  0  0  0  0  0  0  0  0  0  0  0
   33.6212   43.9009   39.3030 C   0  0  0  0  0  0  0  0  0  0  0  0
   34.8488   44.8098   39.2231 C   0  0  0  0  0  0  0  0  0  0  0  0
   35.5542   44.5931   37.9714 N   0  0  0  0  0  0  0  0  0  0  0  0
  1  2  1  0  0  0  0
  2  3  1  0  0  0  0
  3  4  1  0  0  0  0
  4  5  1  0  0  0  0
  5  6  1  0  0  0  0
  6  7  1  0  0  0  0
  7  8  1  0  0  0  0
  8  9  1  0  0  0  0
  9 10  1  0  0  0  0
 10 11  1  0  0  0  0
 11 12  1  0  0  0  0
 12 13  1  0  0  0  0
 13 14  1  0  0  0  0
M  END
>  <CHROM.1>
-177.02120980,-176.69545796,-125.02219310,159.38643554,-62.93293847,178.58895361
59.99246959,-158.46366283,108.03968467,62.86408558,-173.09603211,30.76956804
47.56107984,39.00364281,2.55820993,0.55549737,-0.80601725

>  <Name>
ligand

>  <RI>
0

>  <Rbt.Current_Directory>
/home/itssahil/PROJECTS/Mol_Feturizer/New_Systems/rnas/4P5J

>  <Rbt.Executable>
rbdock ($Id: //depot/dev/client3/rdock/2013.1/src/exe/rbdock.cxx#4 $)

>  <Rbt.Library>
libRbt.so (2013.1, Build901 2013/11/27)

>  <Rbt.Parameter_File>
/export/apps/rDock/src/rDock_2013.1_src/data/scripts/dock_solv.prm

>  <Rbt.Receptor>
prm/pocket_docking_2.prm

>  <SCORE>
1.66352

>  <SCORE.INTER>
10.247

>  <SCORE.INTER.CONST>
1

>  <SCORE.INTER.POLAR>
0

>  <SCORE.INTER.ROT>
11

>  <SCORE.INTER.SOLV>
3.67749

>  <SCORE.INTER.VDW>
-5.32786

>  <SCORE.INTER.norm>
0.731925

>  <SCORE.INTRA>
-8.5835

>  <SCORE.INTRA.DIHEDRAL>
-14.2733

>  <SCORE.INTRA.DIHEDRAL.0>
17.5233

>  <SCORE.INTRA.POLAR>
0

>  <SCORE.INTRA.POLAR.0>
0

>  <SCORE.INTRA.REPUL>
0

>  <SCORE.INTRA.REPUL.0>
0

>  <SCORE.INTRA.SOLV>
-1.50835

>  <SCORE.INTRA.SOLV.lig_0>
-46.1043

>  <SCORE.INTRA.VDW>
-0.692679

>  <SCORE.INTRA.VDW.0>
-0.545445

>  <SCORE.INTRA.norm>
-0.613107

>  <SCORE.RESTR>
6.84106e-05

>  <SCORE.RESTR.CAVITY>
6.84106e-05

>  <SCORE.RESTR.norm>
4.88647e-06

>  <SCORE.SYSTEM>
0

>  <SCORE.SYSTEM.CONST>
0

>  <SCORE.SYSTEM.DIHEDRAL>
0

>  <SCORE.SYSTEM.SOLV>
0

>  <SCORE.SYSTEM.norm>
0

>  <SCORE.heavy>
14

>  <SCORE.norm>
0.118823

>  <RMSD>
3.071

$$$$
ligand
 OpenBabel11021811513D
libRbt.so/2013.1/901 2013/11/27
 14 13  0  0  0  0  0  0  0  0999 V2000
   32.9591   41.1637   37.9534 N   0  0  0  0  0  0  0  0  0  0  0  0
   33.0075   42.5917   37.6843 C   0  0  0  0  0  0  0  0  0  0  0  0
   31.5979   43.1458   37.5057 C   0  0  0  0  0  0  0  0  0  0  0  0
   31.6262   44.6472   37.2428 C   0  0  0  0  0  0  0  0  0  0  0  0
   32.1831   45.4084   38.3570 N   0  0  0  0  0  0  0  0  0  0  0  0
   31.3485   45.7908   39.4836 C   0  0  0  0  0  0  0  0  0  0  0  0
   30.5211   47.0418   39.2090 C   0  0  0  0  0  0  0  0  0  0  0  0
   29.6113   47.3367   40.3963 C   0  0  0  0  0  0  0  0  0  0  0  0
   28.7836   48.5860   40.1149 C   0  0  0  0  0  0  0  0  0  0  0  0
   27.9039   48.9190   41.2220 N   0  0  0  0  0  0  0  0  0  0  0  0
   27.1551   50.1684   41.1908 C   0  0  0  0  0  0  0  0  0  0  0  0
   26.1538   50.3412   42.3310 C   0  0  0  0  0  0  0  0  0  0  0  0
   25.4006   51.6653   42.1922 C   0  0  0  0  0  0  0  0  0  0  0  0
   24.6265   51.6767   40.9626 N   0  0  0  0  0  0  0  0  0  0  0  0
  1  2  1  0  0  0  0
  2  3  1  0  0  0  0
  3  4  1  0  0  0  0
  4  5  1  0  0  0  0
  5  6  1  0  0  0  0
  6  7  1  0  0  0  0
  7  8  1  0  0  0  0
  8  9  1  0  0  0  0
  9 10  1  0  0  0  0
 10 11  1  0  0  0  0
 11 12  1  0  0  0  0
 12 13  1  0  0  0  0
 13 14  1  0  0  0  0
M  END
>  <CHROM.1>
179.16463345,-62.78395897,-83.95630664,-81.70268431,176.64731398,-179.84085411
-179.55898373,172.87918670,173.74453764,-178.79038279,62.62389467,29.49133088
47.03459435,39.70329121,-0.60782777,-0.75266261,1.23288324

>  <Name>
ligand

>  <RI>
0

>  <Rbt.Current_Directory>
/home/itssahil/PROJECTS/Mol_Feturizer/New_Systems/rnas/4P5J

>  <Rbt.Executable>
rbdock ($Id: //depot/dev/client3/rdock/2013.1/src/exe/rbdock.cxx#4 $)

>  <Rbt.Library>
libRbt.so (2013.1, Build901 2013/11/27)

>  <Rbt.Parameter_File>
/export/apps/rDock/src/rDock_2013.1_src/data/scripts/dock_solv.prm

>  <Rbt.Receptor>
prm/pocket_docking_4.prm

>  <SCORE>
-1.30537

>  <SCORE.INTER>
7.98823

>  <SCORE.INTER.CONST>
1

>  <SCORE.INTER.POLAR>
0

>  <SCORE.INTER.ROT>
11

>  <SCORE.INTER.SOLV>
4.38485

>  <SCORE.INTER.VDW>
-7.06946

>  <SCORE.INTER.norm>
0.570588

>  <SCORE.INTRA>
-9.2936

>  <SCORE.INTRA.DIHEDRAL>
-16.5827

>  <SCORE.INTRA.DIHEDRAL.0>
17.5233

>  <SCORE.INTRA.POLAR>
0

>  <SCORE.INTRA.POLAR.0>
0

>  <SCORE.INTRA.REPUL>
0

>  <SCORE.INTRA.REPUL.0>
0

>  <SCORE.INTRA.SOLV>
-1.50877

>  <SCORE.INTRA.SOLV.lig_0>
-46.1043

>  <SCORE.INTRA.VDW>
-0.247863

>  <SCORE.INTRA.VDW.0>
-0.545445

>  <SCORE.INTRA.norm>
-0.663829

>  <SCORE.RESTR>
0

>  <SCORE.RESTR.CAVITY>
0

>  <SCORE.RESTR.norm>
0

>  <SCORE.SYSTEM>
0

>  <SCORE.SYSTEM.CONST>
0

>  <SCORE.SYSTEM.DIHEDRAL>
0

>  <SCORE.SYSTEM.SOLV>
0

>  <SCORE.SYSTEM.norm>
0

>  <SCORE.heavy>
14

>  <SCORE.norm>
-0.0932407

>  <RMSD>
3.075

$$$$
ligand
 OpenBabel11021811513D
libRbt.so/2013.1/901 2013/11/27
 14 13  0  0  0  0  0  0  0  0999 V2000
   31.1162   42.3473   36.1139 N   0  0  0  0  0  0  0  0  0  0  0  0
   31.0429   43.6795   36.6916 C   0  0  0  0  0  0  0  0  0  0  0  0
   32.4439   44.2185   36.9608 C   0  0  0  0  0  0  0  0  0  0  0  0
   32.3889   45.6217   37.5544 C   0  0  0  0  0  0  0  0  0  0  0  0
   31.7763   46.5950   36.6552 N   0  0  0  0  0  0  0  0  0  0  0  0
   31.5059   47.9505   37.1040 C   0  0  0  0  0  0  0  0  0  0  0  0
   30.5100   48.0042   38.2573 C   0  0  0  0  0  0  0  0  0  0  0  0
   29.9123   49.4025   38.3660 C   0  0  0  0  0  0  0  0  0  0  0  0
   28.9787   49.6582   37.1878 C   0  0  0  0  0  0  0  0  0  0  0  0
   28.2449   50.9036   37.3329 N   0  0  0  0  0  0  0  0  0  0  0  0
   26.9622   50.9026   38.0238 C   0  0  0  0  0  0  0  0  0  0  0  0
   25.8178   50.2583   37.2443 C   0  0  0  0  0  0  0  0  0  0  0  0
   24.5154   50.3241   38.0438 C   0  0  0  0  0  0  0  0  0  0  0  0
   24.1182   51.7072   38.2446 N   0  0  0  0  0  0  0  0  0  0  0  0
  1  2  1  0  0  0  0
  2  3  1  0  0  0  0
  3  4  1  0  0  0  0
  4  5  1  0  0  0  0
  5  6  1  0  0  0  0
  6  7  1  0  0  0  0
  7  8  1  0  0  0  0
  8  9  1  0  0  0  0
  9 10  1  0  0  0  0
 10 11  1  0  0  0  0
 11 12  1  0  0  0  0
 12 13  1  0  0  0  0
 13 14  1  0  0  0  0
M  END
>  <CHROM.1>
179.42956417,-62.33050062,173.29825247,-62.50687482,-160.76747046,70.53904551
172.32758178,-89.13727274,-72.37322134,-179.23446806,63.66758577,29.23827033
47.96954357,37.41303204,0.82534975,0.03822798,-2.94469935

>  <Name>
ligand

>  <RI>
0

>  <Rbt.Current_Directory>
/home/itssahil/PROJECTS/Mol_Feturizer/New_Systems/rnas/4P5J

>  <Rbt.Executable>
rbdock ($Id: //depot/dev/client3/rdock/2013.1/src/exe/rbdock.cxx#4 $)

>  <Rbt.Library>
libRbt.so (2013.1, Build901 2013/11/27)

>  <Rbt.Parameter_File>
/export/apps/rDock/src/rDock_2013.1_src/data/scripts/dock_solv.prm

>  <Rbt.Receptor>
prm/pocket_docking_5.prm

>  <SCORE>
-1.15204

>  <SCORE.INTER>
5.81672

>  <SCORE.INTER.CONST>
1

>  <SCORE.INTER.POLAR>
0

>  <SCORE.INTER.ROT>
11

>  <SCORE.INTER.SOLV>
6.09046

>  <SCORE.INTER.VDW>
-9.08568

>  <SCORE.INTER.norm>
0.41548

>  <SCORE.INTRA>
-6.96876

>  <SCORE.INTRA.DIHEDRAL>
-14.7534

>  <SCORE.INTRA.DIHEDRAL.0>
17.5233

>  <SCORE.INTRA.POLAR>
0

>  <SCORE.INTRA.POLAR.0>
0

>  <SCORE.INTRA.REPUL>
0

>  <SCORE.INTRA.REPUL.0>
0

>  <SCORE.INTRA.SOLV>
-1.22456

>  <SCORE.INTRA.SOLV.lig_0>
-46.1043

>  <SCORE.INTRA.VDW>
1.0202

>  <SCORE.INTRA.VDW.0>
-0.545445

>  <SCORE.INTRA.norm>
-0.497768

>  <SCORE.RESTR>
0

>  <SCORE.RESTR.CAVITY>
0

>  <SCORE.RESTR.norm>
0

>  <SCORE.SYSTEM>
0

>  <SCORE.SYSTEM.CONST>
0

>  <SCORE.SYSTEM.DIHEDRAL>
0

>  <SCORE.SYSTEM.SOLV>
0

>  <SCORE.SYSTEM.norm>
0

>  <SCORE.heavy>
14

>  <SCORE.norm>
-0.0822885

>  <RMSD>
3.083

$$$$
ligand
 OpenBabel11021811513D
libRbt.so/2013.1/901 2013/11/27
 14 13  0  0  0  0  0  0  0  0999 V2000
   30.2907   47.0404   41.4101 N   0  0  0  0  0  0  0  0  0  0  0  0
   31.0472   46.1503   40.5445 C   0  0  0  0  0  0  0  0  0  0  0  0
   30.8679   46.5518   39.0842 C   0  0  0  0  0  0  0  0  0  0  0  0
   31.7011   45.6667   38.1640 C   0  0  0  0  0  0  0  0  0  0  0  0
   31.5414   46.0053   36.7530 N   0  0  0  0  0  0  0  0  0  0  0  0
   32.3018   47.0934   36.1616 C   0  0  0  0  0  0  0  0  0  0  0  0
   31.4138   48.1794   35.5644 C   0  0  0  0  0  0  0  0  0  0  0  0
   30.6602   48.9057   36.6730 C   0  0  0  0  0  0  0  0  0  0  0  0
   29.7238   49.9449   36.0661 C   0  0  0  0  0  0  0  0  0  0  0  0
   29.0509   50.7339   37.0834 N   0  0  0  0  0  0  0  0  0  0  0  0
   27.9117   50.1663   37.7925 C   0  0  0  0  0  0  0  0  0  0  0  0
   26.5486   50.5447   37.2172 C   0  0  0  0  0  0  0  0  0  0  0  0
   25.4223   50.0471   38.1247 C   0  0  0  0  0  0  0  0  0  0  0  0
   25.4552   50.7480   39.3970 N   0  0  0  0  0  0  0  0  0  0  0  0
  1  2  1  0  0  0  0
  2  3  1  0  0  0  0
  3  4  1  0  0  0  0
  4  5  1  0  0  0  0
  5  6  1  0  0  0  0
  6  7  1  0  0  0  0
  7  8  1  0  0  0  0
  8  9  1  0  0  0  0
  9 10  1  0  0  0  0
 10 11  1  0  0  0  0
 11 12  1  0  0  0  0
 12 13  1  0  0  0  0
 13 14  1  0  0  0  0
M  END
>  <CHROM.1>
177.57746792,179.10189970,82.65283588,-121.11478404,67.54945069,-177.28933205
-175.85439067,-78.29195323,-95.71194898,-173.01451069,66.30979179,29.56709176
48.41261455,37.85938074,0.30389640,-0.60981270,2.06971591

>  <Name>
ligand

>  <RI>
0

>  <Rbt.Current_Directory>
/home/itssahil/PROJECTS/Mol_Feturizer/New_Systems/rnas/4P5J

>  <Rbt.Executable>
rbdock ($Id: //depot/dev/client3/rdock/2013.1/src/exe/rbdock.cxx#4 $)

>  <Rbt.Library>
libRbt.so (2013.1, Build901 2013/11/27)

>  <Rbt.Parameter_File>
/export/apps/rDock/src/rDock_2013.1_src/data/scripts/dock_solv.prm

>  <Rbt.Receptor>
prm/pocket_docking_4.prm

>  <SCORE>
-2.76032

>  <SCORE.INTER>
5.55596

>  <SCORE.INTER.CONST>
1

>  <SCORE.INTER.POLAR>
0

>  <SCORE.INTER.ROT>
11

>  <SCORE.INTER.SOLV>
6.21614

>  <SCORE.INTER.VDW>
-9.30141

>  <SCORE.INTER.norm>
0.396854

>  <SCORE.INTRA>
-8.31628

>  <SCORE.INTRA.DIHEDRAL>
-14.2525

>  <SCORE.INTRA.DIHEDRAL.0>
17.5233

>  <SCORE.INTRA.POLAR>
0

>  <SCORE.INTRA.POLAR.0>
0

>  <SCORE.INTRA.REPUL>
0

>  <SCORE.INTRA.REPUL.0>
0

>  <SCORE.INTRA.SOLV>
-1.53224

>  <SCORE.INTRA.SOLV.lig_0>
-46.1043

>  <SCORE.INTRA.VDW>
-0.42392

>  <SCORE.INTRA.VDW.0>
-0.545445

>  <SCORE.INTRA.norm>
-0.59402

>  <SCORE.RESTR>
0

>  <SCORE.RESTR.CAVITY>
0

>  <SCORE.RESTR.norm>
0

>  <SCORE.SYSTEM>
0

>  <SCORE.SYSTEM.CONST>
0

>  <SCORE.SYSTEM.DIHEDRAL>
0

>  <SCORE.SYSTEM.SOLV>
0

>  <SCORE.SYSTEM.norm>
0

>  <SCORE.heavy>
14

>  <SCORE.norm>
-0.197166

>  <RMSD>
3.085

$$$$
ligand
 OpenBabel11021811513D
libRbt.so/2013.1/901 2013/11/27
 14 13  0  0  0  0  0  0  0  0999 V2000
   23.5812   52.2541   40.0831 N   0  0  0  0  0  0  0  0  0  0  0  0
   22.9379   51.5699   38.9732 C   0  0  0  0  0  0  0  0  0  0  0  0
   23.9556   51.2577   37.8812 C   0  0  0  0  0  0  0  0  0  0  0  0
   24.9919   50.2503   38.3665 C   0  0  0  0  0  0  0  0  0  0  0  0
   26.0128   49.9584   37.3647 N   0  0  0  0  0  0  0  0  0  0  0  0
   27.1803   50.8125   37.2261 C   0  0  0  0  0  0  0  0  0  0  0  0
   28.4897   50.0673   37.4603 C   0  0  0  0  0  0  0  0  0  0  0  0
   28.5494   49.5553   38.8951 C   0  0  0  0  0  0  0  0  0  0  0  0
   29.8986   48.8927   39.1514 C   0  0  0  0  0  0  0  0  0  0  0  0
   30.0102   48.3885   40.5092 N   0  0  0  0  0  0  0  0  0  0  0  0
   29.6020   47.0206   40.8008 C   0  0  0  0  0  0  0  0  0  0  0  0
   30.6867   45.9692   40.5765 C   0  0  0  0  0  0  0  0  0  0  0  0
   31.8653   46.1985   41.5242 C   0  0  0  0  0  0  0  0  0  0  0  0
   32.9000   45.2058   41.2889 N   0  0  0  0  0  0  0  0  0  0  0  0
  1  2  1  0  0  0  0
  2  3  1  0  0  0  0
  3  4  1  0  0  0  0
  4  5  1  0  0  0  0
  5  6  1  0  0  0  0
  6  7  1  0  0  0  0
  7  8  1  0  0  0  0
  8  9  1  0  0  0  0
  9 10  1  0  0  0  0
 10 11  1  0  0  0  0
 11 12  1  0  0  0  0
 12 13  1  0  0  0  0
 13 14  1  0  0  0  0
M  END
>  <CHROM.1>
65.81330203,-178.03005146,84.86009504,119.88760166,-63.34281154,-176.23339458
179.86010651,90.63761852,86.43436141,63.43314486,-179.13409395,27.90430613
49.10011572,39.29273061,2.63202836,0.43485432,-1.10490354

>  <Name>
ligand

>  <RI>
0

>  <Rbt.Current_Directory>
/home/itssahil/PROJECTS/Mol_Feturizer/New_Systems/rnas/4P5J

>  <Rbt.Executable>
rbdock ($Id: //depot/dev/client3/rdock/2013.1/src/exe/rbdock.cxx#4 $)

>  <Rbt.Library>
libRbt.so (2013.1, Build901 2013/11/27)

>  <Rbt.Parameter_File>
/export/apps/rDock/src/rDock_2013.1_src/data/scripts/dock_solv.prm

>  <Rbt.Receptor>
prm/pocket_docking_4.prm

>  <SCORE>
-2.59799

>  <SCORE.INTER>
5.47953

>  <SCORE.INTER.CONST>
1

>  <SCORE.INTER.POLAR>
0

>  <SCORE.INTER.ROT>
11

>  <SCORE.INTER.SOLV>
5.68916

>  <SCORE.INTER.VDW>
-9.1767

>  <SCORE.INTER.norm>
0.391395

>  <SCORE.INTRA>
-8.07752

>  <SCORE.INTRA.DIHEDRAL>
-14.4838

>  <SCORE.INTRA.DIHEDRAL.0>
17.5233

>  <SCORE.INTRA.POLAR>
0

>  <SCORE.INTRA.POLAR.0>
0

>  <SCORE.INTRA.REPUL>
0

>  <SCORE.INTRA.REPUL.0>
0

>  <SCORE.INTRA.SOLV>
-1.1951

>  <SCORE.INTRA.SOLV.lig_0>
-46.1043

>  <SCORE.INTRA.VDW>
-0.238094

>  <SCORE.INTRA.VDW.0>
-0.545445

>  <SCORE.INTRA.norm>
-0.576966

>  <SCORE.RESTR>
0

>  <SCORE.RESTR.CAVITY>
0

>  <SCORE.RESTR.norm>
0

>  <SCORE.SYSTEM>
0

>  <SCORE.SYSTEM.CONST>
0

>  <SCORE.SYSTEM.DIHEDRAL>
0

>  <SCORE.SYSTEM.SOLV>
0

>  <SCORE.SYSTEM.norm>
0

>  <SCORE.heavy>
14

>  <SCORE.norm>
-0.185571

>  <RMSD>
3.096

$$$$
ligand
 OpenBabel11021811513D
libRbt.so/2013.1/901 2013/11/27
 14 13  0  0  0  0  0  0  0  0999 V2000
   23.8732   49.7514   40.2741 N   0  0  0  0  0  0  0  0  0  0  0  0
   24.5266   49.7098   38.9759 C   0  0  0  0  0  0  0  0  0  0  0  0
   25.9318   50.2949   39.0706 C   0  0  0  0  0  0  0  0  0  0  0  0
   26.6442   50.2360   37.7240 C   0  0  0  0  0  0  0  0  0  0  0  0
   27.9987   50.7782   37.7740 N   0  0  0  0  0  0  0  0  0  0  0  0
   28.8125   50.8505   36.5721 C   0  0  0  0  0  0  0  0  0  0  0  0
   29.5352   49.5429   36.2676 C   0  0  0  0  0  0  0  0  0  0  0  0
   30.2543   49.6440   34.9270 C   0  0  0  0  0  0  0  0  0  0  0  0
   30.9302   48.3164   34.6021 C   0  0  0  0  0  0  0  0  0  0  0  0
   31.9552   47.9735   35.5728 N   0  0  0  0  0  0  0  0  0  0  0  0
   32.5420   46.6401   35.5539 C   0  0  0  0  0  0  0  0  0  0  0  0
   32.0186   45.6970   36.6350 C   0  0  0  0  0  0  0  0  0  0  0  0
   32.7242   44.3420   36.5574 C   0  0  0  0  0  0  0  0  0  0  0  0
   32.2604   43.4720   37.6248 N   0  0  0  0  0  0  0  0  0  0  0  0
  1  2  1  0  0  0  0
  2  3  1  0  0  0  0
  3  4  1  0  0  0  0
  4  5  1  0  0  0  0
  5  6  1  0  0  0  0
  6  7  1  0  0  0  0
  7  8  1  0  0  0  0
  8  9  1  0  0  0  0
  9 10  1  0  0  0  0
 10 11  1  0  0  0  0
 11 12  1  0  0  0  0
 12 13  1  0  0  0  0
 13 14  1  0  0  0  0
M  END
>  <CHROM.1>
178.91607644,-179.56578415,-177.70232215,-83.96686717,174.35357310,-177.82417165
-62.86076797,169.46650056,-102.52185671,-178.28625546,177.58464365,29.28632039
48.37505580,37.00905462,2.83058809,0.59206657,-0.51533105

>  <Name>
ligand

>  <RI>
0

>  <Rbt.Current_Directory>
/home/itssahil/PROJECTS/Mol_Feturizer/New_Systems/rnas/4P5J

>  <Rbt.Executable>
rbdock ($Id: //depot/dev/client3/rdock/2013.1/src/exe/rbdock.cxx#4 $)

>  <Rbt.Library>
libRbt.so (2013.1, Build901 2013/11/27)

>  <Rbt.Parameter_File>
/export/apps/rDock/src/rDock_2013.1_src/data/scripts/dock_solv.prm

>  <Rbt.Receptor>
prm/pocket_docking_4.prm

>  <SCORE>
-3.04946

>  <SCORE.INTER>
6.56765

>  <SCORE.INTER.CONST>
1

>  <SCORE.INTER.POLAR>
0

>  <SCORE.INTER.ROT>
11

>  <SCORE.INTER.SOLV>
6.29081

>  <SCORE.INTER.VDW>
-8.65184

>  <SCORE.INTER.norm>
0.469118

>  <SCORE.INTRA>
-9.61711

>  <SCORE.INTRA.DIHEDRAL>
-15.8418

>  <SCORE.INTRA.DIHEDRAL.0>
17.5233

>  <SCORE.INTRA.POLAR>
0

>  <SCORE.INTRA.POLAR.0>
0

>  <SCORE.INTRA.REPUL>
0

>  <SCORE.INTRA.REPUL.0>
0

>  <SCORE.INTRA.SOLV>
-2.31776

>  <SCORE.INTRA.SOLV.lig_0>
-46.1043

>  <SCORE.INTRA.VDW>
-0.537335

>  <SCORE.INTRA.VDW.0>
-0.545445

>  <SCORE.INTRA.norm>
-0.686936

>  <SCORE.RESTR>
0

>  <SCORE.RESTR.CAVITY>
0

>  <SCORE.RESTR.norm>
0

>  <SCORE.SYSTEM>
0

>  <SCORE.SYSTEM.CONST>
0

>  <SCORE.SYSTEM.DIHEDRAL>
0

>  <SCORE.SYSTEM.SOLV>
0

>  <SCORE.SYSTEM.norm>
0

>  <SCORE.heavy>
14

>  <SCORE.norm>
-0.217819

>  <RMSD>
3.130

$$$$
ligand
 OpenBabel11021811513D
libRbt.so/2013.1/901 2013/11/27
 14 13  0  0  0  0  0  0  0  0999 V2000
   24.4312   52.4144   36.7154 N   0  0  0  0  0  0  0  0  0  0  0  0
   24.8158   51.1513   36.1067 C   0  0  0  0  0  0  0  0  0  0  0  0
   25.0725   50.1008   37.1821 C   0  0  0  0  0  0  0  0  0  0  0  0
   26.2596   50.4878   38.0569 C   0  0  0  0  0  0  0  0  0  0  0  0
   26.5796   49.4763   39.0597 N   0  0  0  0  0  0  0  0  0  0  0  0
   27.4890   49.7781   40.1523 C   0  0  0  0  0  0  0  0  0  0  0  0
   28.6809   48.8288   40.2093 C   0  0  0  0  0  0  0  0  0  0  0  0
   29.5366   48.9898   38.9578 C   0  0  0  0  0  0  0  0  0  0  0  0
   30.7356   48.0503   39.0276 C   0  0  0  0  0  0  0  0  0  0  0  0
   30.3352   46.6539   39.0391 N   0  0  0  0  0  0  0  0  0  0  0  0
   31.3379   45.6197   38.8213 C   0  0  0  0  0  0  0  0  0  0  0  0
   32.0612   45.1558   40.0839 C   0  0  0  0  0  0  0  0  0  0  0  0
   33.1139   44.0988   39.7457 C   0  0  0  0  0  0  0  0  0  0  0  0
   33.7974   43.6661   40.9527 N   0  0  0  0  0  0  0  0  0  0  0  0
  1  2  1  0  0  0  0
  2  3  1  0  0  0  0
  3  4  1  0  0  0  0
  4  5  1  0  0  0  0
  5  6  1  0  0  0  0
  6  7  1  0  0  0  0
  7  8  1  0  0  0  0
  8  9  1  0  0  0  0
  9 10  1  0  0  0  0
 10 11  1  0  0  0  0
 11 12  1  0  0  0  0
 12 13  1  0  0  0  0
 13 14  1  0  0  0  0
M  END
>  <CHROM.1>
-64.22300663,-177.22554815,-167.28427173,-122.89155129,64.20932984,179.33430719
63.42901668,167.21038159,87.28219467,-178.57496991,179.90414549,28.87478010
48.17662372,38.86500221,3.13340930,-0.74696529,1.15938651

>  <Name>
ligand

>  <RI>
0

>  <Rbt.Current_Directory>
/home/itssahil/PROJECTS/Mol_Feturizer/New_Systems/rnas/4P5J

>  <Rbt.Executable>
rbdock ($Id: //depot/dev/client3/rdock/2013.1/src/exe/rbdock.cxx#4 $)

>  <Rbt.Library>
libRbt.so (2013.1, Build901 2013/11/27)

>  <Rbt.Parameter_File>
/export/apps/rDock/src/rDock_2013.1_src/data/scripts/dock_solv.prm

>  <Rbt.Receptor>
prm/pocket_docking_5.prm

>  <SCORE>
-3.18706

>  <SCORE.INTER>
5.4198

>  <SCORE.INTER.CONST>
1

>  <SCORE.INTER.POLAR>
0

>  <SCORE.INTER.ROT>
11

>  <SCORE.INTER.SOLV>
7.8542

>  <SCORE.INTER.VDW>
-9.9382

>  <SCORE.INTER.norm>
0.387129

>  <SCORE.INTRA>
-8.60687

>  <SCORE.INTRA.DIHEDRAL>
-15.3405

>  <SCORE.INTRA.DIHEDRAL.0>
17.5233

>  <SCORE.INTRA.POLAR>
0

>  <SCORE.INTRA.POLAR.0>
0

>  <SCORE.INTRA.REPUL>
0

>  <SCORE.INTRA.REPUL.0>
0

>  <SCORE.INTRA.SOLV>
-1.13377

>  <SCORE.INTRA.SOLV.lig_0>
-46.1043

>  <SCORE.INTRA.VDW>
-0.369707

>  <SCORE.INTRA.VDW.0>
-0.545445

>  <SCORE.INTRA.norm>
-0.614776

>  <SCORE.RESTR>
0

>  <SCORE.RESTR.CAVITY>
0

>  <SCORE.RESTR.norm>
0

>  <SCORE.SYSTEM>
0

>  <SCORE.SYSTEM.CONST>
0

>  <SCORE.SYSTEM.DIHEDRAL>
0

>  <SCORE.SYSTEM.SOLV>
0

>  <SCORE.SYSTEM.norm>
0

>  <SCORE.heavy>
14

>  <SCORE.norm>
-0.227647

>  <RMSD>
3.138

$$$$
ligand
 OpenBabel11021811513D
libRbt.so/2013.1/901 2013/11/27
 14 13  0  0  0  0  0  0  0  0999 V2000
   32.2442   43.7637   37.2204 N   0  0  0  0  0  0  0  0  0  0  0  0
   31.7472   44.8104   38.0987 C   0  0  0  0  0  0  0  0  0  0  0  0
   32.4691   44.7633   39.4413 C   0  0  0  0  0  0  0  0  0  0  0  0
   31.9834   45.8735   40.3663 C   0  0  0  0  0  0  0  0  0  0  0  0
   30.5701   45.7485   40.7102 N   0  0  0  0  0  0  0  0  0  0  0  0
   29.7522   46.9306   40.9235 C   0  0  0  0  0  0  0  0  0  0  0  0
   29.6593   47.8168   39.6862 C   0  0  0  0  0  0  0  0  0  0  0  0
   28.5389   48.8365   39.8575 C   0  0  0  0  0  0  0  0  0  0  0  0
   28.4054   49.6748   38.5908 C   0  0  0  0  0  0  0  0  0  0  0  0
   27.2028   50.4897   38.5996 N   0  0  0  0  0  0  0  0  0  0  0  0
   26.1182   50.1754   37.6790 C   0  0  0  0  0  0  0  0  0  0  0  0
   24.7416   50.6653   38.1233 C   0  0  0  0  0  0  0  0  0  0  0  0
   24.3378   50.0137   39.4470 C   0  0  0  0  0  0  0  0  0  0  0  0
   23.0448   50.5152   39.8803 N   0  0  0  0  0  0  0  0  0  0  0  0
  1  2  1  0  0  0  0
  2  3  1  0  0  0  0
  3  4  1  0  0  0  0
  4  5  1  0  0  0  0
  5  6  1  0  0  0  0
  6  7  1  0  0  0  0
  7  8  1  0  0  0  0
  8  9  1  0  0  0  0
  9 10  1  0  0  0  0
 10 11  1  0  0  0  0
 11 12  1  0  0  0  0
 12 13  1  0  0  0  0
 13 14  1  0  0  0  0
M  END
>  <CHROM.1>
178.74604228,63.10553003,-146.70322654,61.39121828,166.29323992,-177.23998035
169.35809823,-110.81109333,155.94264811,-61.47047059,178.35413797,28.62979854
47.86277173,39.18747797,-0.00872292,0.66215390,-1.59704812

>  <Name>
ligand

>  <RI>
0

>  <Rbt.Current_Directory>
/home/itssahil/PROJECTS/Mol_Feturizer/New_Systems/rnas/4P5J

>  <Rbt.Executable>
rbdock ($Id: //depot/dev/client3/rdock/2013.1/src/exe/rbdock.cxx#4 $)

>  <Rbt.Library>
libRbt.so (2013.1, Build901 2013/11/27)

>  <Rbt.Parameter_File>
/export/apps/rDock/src/rDock_2013.1_src/data/scripts/dock_solv.prm

>  <Rbt.Receptor>
prm/pocket_docking_4.prm

>  <SCORE>
-3.11728

>  <SCORE.INTER>
5.25847

>  <SCORE.INTER.CONST>
1

>  <SCORE.INTER.POLAR>
0

>  <SCORE.INTER.ROT>
11

>  <SCORE.INTER.SOLV>
7.77895

>  <SCORE.INTER.VDW>
-10.0207

>  <SCORE.INTER.norm>
0.375605

>  <SCORE.INTRA>
-8.37575

>  <SCORE.INTRA.DIHEDRAL>
-14.0795

>  <SCORE.INTRA.DIHEDRAL.0>
17.5233

>  <SCORE.INTRA.POLAR>
0

>  <SCORE.INTRA.POLAR.0>
0

>  <SCORE.INTRA.REPUL>
0

>  <SCORE.INTRA.REPUL.0>
0

>  <SCORE.INTRA.SOLV>
-1.97265

>  <SCORE.INTRA.SOLV.lig_0>
-46.1043

>  <SCORE.INTRA.VDW>
-0.349689

>  <SCORE.INTRA.VDW.0>
-0.545445

>  <SCORE.INTRA.norm>
-0.598268

>  <SCORE.RESTR>
0

>  <SCORE.RESTR.CAVITY>
0

>  <SCORE.RESTR.norm>
0

>  <SCORE.SYSTEM>
0

>  <SCORE.SYSTEM.CONST>
0

>  <SCORE.SYSTEM.DIHEDRAL>
0

>  <SCORE.SYSTEM.SOLV>
0

>  <SCORE.SYSTEM.norm>
0

>  <SCORE.heavy>
14

>  <SCORE.norm>
-0.222663

>  <RMSD>
3.147

$$$$
ligand
 OpenBabel11021811513D
libRbt.so/2013.1/901 2013/11/27
 14 13  0  0  0  0  0  0  0  0999 V2000
   22.7609   51.1631   40.8756 N   0  0  0  0  0  0  0  0  0  0  0  0
   23.0164   51.2548   39.4473 C   0  0  0  0  0  0  0  0  0  0  0  0
   24.3144   50.5364   39.0936 C   0  0  0  0  0  0  0  0  0  0  0  0
   24.6068   50.6319   37.6004 C   0  0  0  0  0  0  0  0  0  0  0  0
   25.8192   49.9173   37.2123 N   0  0  0  0  0  0  0  0  0  0  0  0
   27.1188   50.5619   37.2989 C   0  0  0  0  0  0  0  0  0  0  0  0
   28.1526   49.7128   38.0305 C   0  0  0  0  0  0  0  0  0  0  0  0
   27.8162   49.6459   39.5160 C   0  0  0  0  0  0  0  0  0  0  0  0
   28.6384   48.5484   40.1828 C   0  0  0  0  0  0  0  0  0  0  0  0
   30.0641   48.7281   39.9694 N   0  0  0  0  0  0  0  0  0  0  0  0
   30.9593   47.5879   40.1151 C   0  0  0  0  0  0  0  0  0  0  0  0
   30.9175   46.5916   38.9584 C   0  0  0  0  0  0  0  0  0  0  0  0
   31.7545   45.3529   39.2822 C   0  0  0  0  0  0  0  0  0  0  0  0
   33.1635   45.7013   39.3478 N   0  0  0  0  0  0  0  0  0  0  0  0
  1  2  1  0  0  0  0
  2  3  1  0  0  0  0
  3  4  1  0  0  0  0
  4  5  1  0  0  0  0
  5  6  1  0  0  0  0
  6  7  1  0  0  0  0
  7  8  1  0  0  0  0
  8  9  1  0  0  0  0
  9 10  1  0  0  0  0
 10 11  1  0  0  0  0
 11 12  1  0  0  0  0
 12 13  1  0  0  0  0
 13 14  1  0  0  0  0
M  END
>  <CHROM.1>
-179.49379132,-178.05194849,-85.85310254,130.06532906,-70.32726067,166.67271712
55.61574521,-159.03289210,75.22798408,-172.97271387,-67.26165331,27.79297471
48.99535710,39.06633136,2.98655890,0.50139915,-1.35632167

>  <Name>
ligand

>  <RI>
0

>  <Rbt.Current_Directory>
/home/itssahil/PROJECTS/Mol_Feturizer/New_Systems/rnas/4P5J

>  <Rbt.Executable>
rbdock ($Id: //depot/dev/client3/rdock/2013.1/src/exe/rbdock.cxx#4 $)

>  <Rbt.Library>
libRbt.so (2013.1, Build901 2013/11/27)

>  <Rbt.Parameter_File>
/export/apps/rDock/src/rDock_2013.1_src/data/scripts/dock_solv.prm

>  <Rbt.Receptor>
prm/pocket_docking_4.prm

>  <SCORE>
-2.39768

>  <SCORE.INTER>
5.50233

>  <SCORE.INTER.CONST>
1

>  <SCORE.INTER.POLAR>
0

>  <SCORE.INTER.ROT>
11

>  <SCORE.INTER.SOLV>
5.80802

>  <SCORE.INTER.VDW>
-9.20112

>  <SCORE.INTER.norm>
0.393024

>  <SCORE.INTRA>
-7.90001

>  <SCORE.INTRA.DIHEDRAL>
-13.8478

>  <SCORE.INTRA.DIHEDRAL.0>
17.5233

>  <SCORE.INTRA.POLAR>
0

>  <SCORE.INTRA.POLAR.0>
0

>  <SCORE.INTRA.REPUL>
0

>  <SCORE.INTRA.REPUL.0>
0

>  <SCORE.INTRA.SOLV>
-1.19003

>  <SCORE.INTRA.SOLV.lig_0>
-46.1043

>  <SCORE.INTRA.VDW>
-0.381081

>  <SCORE.INTRA.VDW.0>
-0.545445

>  <SCORE.INTRA.norm>
-0.564287

>  <SCORE.RESTR>
0

>  <SCORE.RESTR.CAVITY>
0

>  <SCORE.RESTR.norm>
0

>  <SCORE.SYSTEM>
0

>  <SCORE.SYSTEM.CONST>
0

>  <SCORE.SYSTEM.DIHEDRAL>
0

>  <SCORE.SYSTEM.SOLV>
0

>  <SCORE.SYSTEM.norm>
0

>  <SCORE.heavy>
14

>  <SCORE.norm>
-0.171263

>  <RMSD>
3.193

$$$$
ligand
 OpenBabel11021811513D
libRbt.so/2013.1/901 2013/11/27
 14 13  0  0  0  0  0  0  0  0999 V2000
   35.2488   45.6016   36.7019 N   0  0  0  0  0  0  0  0  0  0  0  0
   34.2797   45.7068   37.7807 C   0  0  0  0  0  0  0  0  0  0  0  0
   33.0357   44.8858   37.4578 C   0  0  0  0  0  0  0  0  0  0  0  0
   31.9932   45.0088   38.5634 C   0  0  0  0  0  0  0  0  0  0  0  0
   31.4951   46.3715   38.7253 N   0  0  0  0  0  0  0  0  0  0  0  0
   30.5479   46.6938   39.7792 C   0  0  0  0  0  0  0  0  0  0  0  0
   29.8116   48.0059   39.5319 C   0  0  0  0  0  0  0  0  0  0  0  0
   28.8385   48.2813   40.6728 C   0  0  0  0  0  0  0  0  0  0  0  0
   28.0088   49.5208   40.3560 C   0  0  0  0  0  0  0  0  0  0  0  0
   27.1633   49.3286   39.1904 N   0  0  0  0  0  0  0  0  0  0  0  0
   26.0590   50.2475   38.9475 C   0  0  0  0  0  0  0  0  0  0  0  0
   25.3963   50.1015   37.5794 C   0  0  0  0  0  0  0  0  0  0  0  0
   24.2577   51.1106   37.4205 C   0  0  0  0  0  0  0  0  0  0  0  0
   24.7842   52.4648   37.4081 N   0  0  0  0  0  0  0  0  0  0  0  0
  1  2  1  0  0  0  0
  2  3  1  0  0  0  0
  3  4  1  0  0  0  0
  4  5  1  0  0  0  0
  5  6  1  0  0  0  0
  6  7  1  0  0  0  0
  7  8  1  0  0  0  0
  8  9  1  0  0  0  0
  9 10  1  0  0  0  0
 10 11  1  0  0  0  0
 11 12  1  0  0  0  0
 12 13  1  0  0  0  0
 13 14  1  0  0  0  0
M  END
>  <CHROM.1>
-178.69457801,63.15119956,-176.70053600,-161.56775036,-179.95813239,-174.51995519
64.15383988,163.79690791,169.76312162,-179.74924381,65.73294484,29.35128132
48.09480530,38.57987005,-0.08729798,0.58321477,-1.35018430

>  <Name>
ligand

>  <RI>
0

>  <Rbt.Current_Directory>
/home/itssahil/PROJECTS/Mol_Feturizer/New_Systems/rnas/4P5J

>  <Rbt.Executable>
rbdock ($Id: //depot/dev/client3/rdock/2013.1/src/exe/rbdock.cxx#4 $)

>  <Rbt.Library>
libRbt.so (2013.1, Build901 2013/11/27)

>  <Rbt.Parameter_File>
/export/apps/rDock/src/rDock_2013.1_src/data/scripts/dock_solv.prm

>  <Rbt.Receptor>
prm/pocket_docking_4.prm

>  <SCORE>
-2.78611

>  <SCORE.INTER>
6.53715

>  <SCORE.INTER.CONST>
1

>  <SCORE.INTER.POLAR>
0

>  <SCORE.INTER.ROT>
11

>  <SCORE.INTER.SOLV>
5.75058

>  <SCORE.INTER.VDW>
-8.49209

>  <SCORE.INTER.norm>
0.46694

>  <SCORE.INTRA>
-9.32326

>  <SCORE.INTRA.DIHEDRAL>
-16.6108

>  <SCORE.INTRA.DIHEDRAL.0>
17.5233

>  <SCORE.INTRA.POLAR>
0

>  <SCORE.INTRA.POLAR.0>
0

>  <SCORE.INTRA.REPUL>
0

>  <SCORE.INTRA.REPUL.0>
0

>  <SCORE.INTRA.SOLV>
-1.14618

>  <SCORE.INTRA.SOLV.lig_0>
-46.1043

>  <SCORE.INTRA.VDW>
-0.444773

>  <SCORE.INTRA.VDW.0>
-0.545445

>  <SCORE.INTRA.norm>
-0.665947

>  <SCORE.RESTR>
0

>  <SCORE.RESTR.CAVITY>
0

>  <SCORE.RESTR.norm>
0

>  <SCORE.SYSTEM>
0

>  <SCORE.SYSTEM.CONST>
0

>  <SCORE.SYSTEM.DIHEDRAL>
0

>  <SCORE.SYSTEM.SOLV>
0

>  <SCORE.SYSTEM.norm>
0

>  <SCORE.heavy>
14

>  <SCORE.norm>
-0.199008

>  <RMSD>
3.200

$$$$
ligand
 OpenBabel11021811513D
libRbt.so/2013.1/901 2013/11/27
 14 13  0  0  0  0  0  0  0  0999 V2000
   23.8438   49.9432   40.2881 N   0  0  0  0  0  0  0  0  0  0  0  0
   24.9568   49.8488   39.3573 C   0  0  0  0  0  0  0  0  0  0  0  0
   24.5577   50.4068   37.9952 C   0  0  0  0  0  0  0  0  0  0  0  0
   25.7191   50.3365   37.0101 C   0  0  0  0  0  0  0  0  0  0  0  0
   26.8692   51.1313   37.4306 N   0  0  0  0  0  0  0  0  0  0  0  0
   28.1017   51.1156   36.6608 C   0  0  0  0  0  0  0  0  0  0  0  0
   28.9269   49.8542   36.8908 C   0  0  0  0  0  0  0  0  0  0  0  0
   30.1943   49.8981   36.0447 C   0  0  0  0  0  0  0  0  0  0  0  0
   30.9752   48.5997   36.2163 C   0  0  0  0  0  0  0  0  0  0  0  0
   31.2999   48.3377   37.6078 N   0  0  0  0  0  0  0  0  0  0  0  0
   31.4130   46.9606   38.0697 C   0  0  0  0  0  0  0  0  0  0  0  0
   31.3619   46.7897   39.5865 C   0  0  0  0  0  0  0  0  0  0  0  0
   29.9981   47.2159   40.1324 C   0  0  0  0  0  0  0  0  0  0  0  0
   29.9824   47.1134   41.5817 N   0  0  0  0  0  0  0  0  0  0  0  0
  1  2  1  0  0  0  0
  2  3  1  0  0  0  0
  3  4  1  0  0  0  0
  4  5  1  0  0  0  0
  5  6  1  0  0  0  0
  6  7  1  0  0  0  0
  7  8  1  0  0  0  0
  8  9  1  0  0  0  0
  9 10  1  0  0  0  0
 10 11  1  0  0  0  0
 11 12  1  0  0  0  0
 12 13  1  0  0  0  0
 13 14  1  0  0  0  0
M  END
>  <CHROM.1>
179.12328539,-61.90912900,175.94712823,-76.99991021,179.43232151,-176.72654018
-56.73332263,149.53209761,-163.50121880,64.41894310,-177.14447465,28.44304293
49.11081715,38.20472135,2.90149398,0.37303771,-1.02002442

>  <Name>
ligand

>  <RI>
0

>  <Rbt.Current_Directory>
/home/itssahil/PROJECTS/Mol_Feturizer/New_Systems/rnas/4P5J

>  <Rbt.Executable>
rbdock ($Id: //depot/dev/client3/rdock/2013.1/src/exe/rbdock.cxx#4 $)

>  <Rbt.Library>
libRbt.so (2013.1, Build901 2013/11/27)

>  <Rbt.Parameter_File>
/export/apps/rDock/src/rDock_2013.1_src/data/scripts/dock_solv.prm

>  <Rbt.Receptor>
prm/pocket_docking_4.prm

>  <SCORE>
-4.00369

>  <SCORE.INTER>
5.36381

>  <SCORE.INTER.CONST>
1

>  <SCORE.INTER.POLAR>
0

>  <SCORE.INTER.ROT>
11

>  <SCORE.INTER.SOLV>
5.34558

>  <SCORE.INTER.VDW>
-9.13932

>  <SCORE.INTER.norm>
0.38313

>  <SCORE.INTRA>
-9.36751

>  <SCORE.INTRA.DIHEDRAL>
-16.2551

>  <SCORE.INTRA.DIHEDRAL.0>
17.5233

>  <SCORE.INTRA.POLAR>
0

>  <SCORE.INTRA.POLAR.0>
0

>  <SCORE.INTRA.REPUL>
0

>  <SCORE.INTRA.REPUL.0>
0

>  <SCORE.INTRA.SOLV>
-1.54676

>  <SCORE.INTRA.SOLV.lig_0>
-46.1043

>  <SCORE.INTRA.VDW>
-0.466597

>  <SCORE.INTRA.VDW.0>
-0.545445

>  <SCORE.INTRA.norm>
-0.669108

>  <SCORE.RESTR>
0

>  <SCORE.RESTR.CAVITY>
0

>  <SCORE.RESTR.norm>
0

>  <SCORE.SYSTEM>
0

>  <SCORE.SYSTEM.CONST>
0

>  <SCORE.SYSTEM.DIHEDRAL>
0

>  <SCORE.SYSTEM.SOLV>
0

>  <SCORE.SYSTEM.norm>
0

>  <SCORE.heavy>
14

>  <SCORE.norm>
-0.285978

>  <RMSD>
3.201

$$$$
ligand
 OpenBabel11021811513D
libRbt.so/2013.1/901 2013/11/27
 14 13  0  0  0  0  0  0  0  0999 V2000
   23.3979   51.0398   39.1464 N   0  0  0  0  0  0  0  0  0  0  0  0
   24.8441   50.9915   39.0037 C   0  0  0  0  0  0  0  0  0  0  0  0
   25.2250   50.3254   37.6858 C   0  0  0  0  0  0  0  0  0  0  0  0
   26.7386   50.2102   37.5448 C   0  0  0  0  0  0  0  0  0  0  0  0
   27.3416   49.3637   38.5700 N   0  0  0  0  0  0  0  0  0  0  0  0
   28.2326   49.9301   39.5685 C   0  0  0  0  0  0  0  0  0  0  0  0
   28.7046   48.9025   40.5913 C   0  0  0  0  0  0  0  0  0  0  0  0
   29.4642   47.7808   39.8917 C   0  0  0  0  0  0  0  0  0  0  0  0
   29.8988   46.7358   40.9136 C   0  0  0  0  0  0  0  0  0  0  0  0
   30.5675   45.6071   40.2897 N   0  0  0  0  0  0  0  0  0  0  0  0
   31.8995   45.7856   39.7271 C   0  0  0  0  0  0  0  0  0  0  0  0
   32.3577   44.6605   38.8017 C   0  0  0  0  0  0  0  0  0  0  0  0
   31.4869   44.6062   37.5453 C   0  0  0  0  0  0  0  0  0  0  0  0
   31.9622   43.5661   36.6489 N   0  0  0  0  0  0  0  0  0  0  0  0
  1  2  1  0  0  0  0
  2  3  1  0  0  0  0
  3  4  1  0  0  0  0
  4  5  1  0  0  0  0
  5  6  1  0  0  0  0
  6  7  1  0  0  0  0
  7  8  1  0  0  0  0
  8  9  1  0  0  0  0
  9 10  1  0  0  0  0
 10 11  1  0  0  0  0
 11 12  1  0  0  0  0
 12 13  1  0  0  0  0
 13 14  1  0  0  0  0
M  END
>  <CHROM.1>
-177.52412303,62.94340114,-113.61630880,177.14764039,60.27507420,-178.36788410
176.98251393,70.68804039,-165.32264851,65.29663093,177.85159042,28.72311838
47.82197064,38.99502802,2.87657455,-0.69199906,1.18244132

>  <Name>
ligand

>  <RI>
0

>  <Rbt.Current_Directory>
/home/itssahil/PROJECTS/Mol_Feturizer/New_Systems/rnas/4P5J

>  <Rbt.Executable>
rbdock ($Id: //depot/dev/client3/rdock/2013.1/src/exe/rbdock.cxx#4 $)

>  <Rbt.Library>
libRbt.so (2013.1, Build901 2013/11/27)

>  <Rbt.Parameter_File>
/export/apps/rDock/src/rDock_2013.1_src/data/scripts/dock_solv.prm

>  <Rbt.Receptor>
prm/pocket_docking_4.prm

>  <SCORE>
-2.97971

>  <SCORE.INTER>
6.04951

>  <SCORE.INTER.CONST>
1

>  <SCORE.INTER.POLAR>
0

>  <SCORE.INTER.ROT>
11

>  <SCORE.INTER.SOLV>
10.5073

>  <SCORE.INTER.VDW>
-10.4028

>  <SCORE.INTER.norm>
0.432108

>  <SCORE.INTRA>
-9.02922

>  <SCORE.INTRA.DIHEDRAL>
-15.865

>  <SCORE.INTRA.DIHEDRAL.0>
17.5233

>  <SCORE.INTRA.POLAR>
0

>  <SCORE.INTRA.POLAR.0>
0

>  <SCORE.INTRA.REPUL>
0

>  <SCORE.INTRA.REPUL.0>
0

>  <SCORE.INTRA.SOLV>
-1.59923

>  <SCORE.INTRA.SOLV.lig_0>
-46.1043

>  <SCORE.INTRA.VDW>
-0.297089

>  <SCORE.INTRA.VDW.0>
-0.545445

>  <SCORE.INTRA.norm>
-0.644945

>  <SCORE.RESTR>
0

>  <SCORE.RESTR.CAVITY>
0

>  <SCORE.RESTR.norm>
0

>  <SCORE.SYSTEM>
0

>  <SCORE.SYSTEM.CONST>
0

>  <SCORE.SYSTEM.DIHEDRAL>
0

>  <SCORE.SYSTEM.SOLV>
0

>  <SCORE.SYSTEM.norm>
0

>  <SCORE.heavy>
14

>  <SCORE.norm>
-0.212837

>  <RMSD>
3.202

$$$$
ligand
 OpenBabel11021811513D
libRbt.so/2013.1/901 2013/11/27
 14 13  0  0  0  0  0  0  0  0999 V2000
   32.2649   43.6176   38.1241 N   0  0  0  0  0  0  0  0  0  0  0  0
   32.1694   44.9990   37.6806 C   0  0  0  0  0  0  0  0  0  0  0  0
   31.4236   45.8372   38.7136 C   0  0  0  0  0  0  0  0  0  0  0  0
   31.2907   47.2851   38.2550 C   0  0  0  0  0  0  0  0  0  0  0  0
   30.6659   48.1431   39.2573 N   0  0  0  0  0  0  0  0  0  0  0  0
   30.0797   49.4180   38.8794 C   0  0  0  0  0  0  0  0  0  0  0  0
   28.5912   49.3148   38.5654 C   0  0  0  0  0  0  0  0  0  0  0  0
   28.1054   50.6030   37.9105 C   0  0  0  0  0  0  0  0  0  0  0  0
   26.6270   50.4778   37.5587 C   0  0  0  0  0  0  0  0  0  0  0  0
   25.8053   50.2338   38.7316 N   0  0  0  0  0  0  0  0  0  0  0  0
   24.4407   49.7524   38.5624 C   0  0  0  0  0  0  0  0  0  0  0  0
   23.5906   49.7843   39.8307 C   0  0  0  0  0  0  0  0  0  0  0  0
   24.2115   48.9071   40.9191 C   0  0  0  0  0  0  0  0  0  0  0  0
   23.3640   48.8952   42.0993 N   0  0  0  0  0  0  0  0  0  0  0  0
  1  2  1  0  0  0  0
  2  3  1  0  0  0  0
  3  4  1  0  0  0  0
  4  5  1  0  0  0  0
  5  6  1  0  0  0  0
  6  7  1  0  0  0  0
  7  8  1  0  0  0  0
  8  9  1  0  0  0  0
  9 10  1  0  0  0  0
 10 11  1  0  0  0  0
 11 12  1  0  0  0  0
 12 13  1  0  0  0  0
 13 14  1  0  0  0  0
M  END
>  <CHROM.1>
-178.96810095,-175.92308281,-160.75307971,92.80370921,-168.53425106,178.22428216
60.01003213,-164.40658151,-168.92503946,-60.31318075,-177.38706279,28.04500771
48.37657720,38.93458466,0.34331048,-0.40862238,2.69763089

>  <Name>
ligand

>  <RI>
0

>  <Rbt.Current_Directory>
/home/itssahil/PROJECTS/Mol_Feturizer/New_Systems/rnas/4P5J

>  <Rbt.Executable>
rbdock ($Id: //depot/dev/client3/rdock/2013.1/src/exe/rbdock.cxx#4 $)

>  <Rbt.Library>
libRbt.so (2013.1, Build901 2013/11/27)

>  <Rbt.Parameter_File>
/export/apps/rDock/src/rDock_2013.1_src/data/scripts/dock_solv.prm

>  <Rbt.Receptor>
prm/pocket_docking_5.prm

>  <SCORE>
-2.97747

>  <SCORE.INTER>
6.41906

>  <SCORE.INTER.CONST>
1

>  <SCORE.INTER.POLAR>
0

>  <SCORE.INTER.ROT>
11

>  <SCORE.INTER.SOLV>
5.57754

>  <SCORE.INTER.VDW>
-8.51314

>  <SCORE.INTER.norm>
0.458504

>  <SCORE.INTRA>
-9.40135

>  <SCORE.INTRA.DIHEDRAL>
-15.6799

>  <SCORE.INTRA.DIHEDRAL.0>
17.5233

>  <SCORE.INTRA.POLAR>
0

>  <SCORE.INTRA.POLAR.0>
0

>  <SCORE.INTRA.REPUL>
0

>  <SCORE.INTRA.REPUL.0>
0

>  <SCORE.INTRA.SOLV>
-1.95907

>  <SCORE.INTRA.SOLV.lig_0>
-46.1043

>  <SCORE.INTRA.VDW>
-0.581865

>  <SCORE.INTRA.VDW.0>
-0.545445

>  <SCORE.INTRA.norm>
-0.671525

>  <SCORE.RESTR>
0.00482406

>  <SCORE.RESTR.CAVITY>
0.00482406

>  <SCORE.RESTR.norm>
0.000344576

>  <SCORE.SYSTEM>
0

>  <SCORE.SYSTEM.CONST>
0

>  <SCORE.SYSTEM.DIHEDRAL>
0

>  <SCORE.SYSTEM.SOLV>
0

>  <SCORE.SYSTEM.norm>
0

>  <SCORE.heavy>
14

>  <SCORE.norm>
-0.212676

>  <RMSD>
3.204

$$$$
ligand
 OpenBabel11021811513D
libRbt.so/2013.1/901 2013/11/27
 14 13  0  0  0  0  0  0  0  0999 V2000
   22.3589   52.2451   41.4006 N   0  0  0  0  0  0  0  0  0  0  0  0
   23.4600   51.6422   40.6670 C   0  0  0  0  0  0  0  0  0  0  0  0
   22.9626   50.4616   39.8397 C   0  0  0  0  0  0  0  0  0  0  0  0
   24.1103   49.7899   39.0941 C   0  0  0  0  0  0  0  0  0  0  0  0
   24.7650   50.6793   38.1395 N   0  0  0  0  0  0  0  0  0  0  0  0
   25.9803   50.2679   37.4569 C   0  0  0  0  0  0  0  0  0  0  0  0
   27.1634   50.1013   38.4042 C   0  0  0  0  0  0  0  0  0  0  0  0
   28.4120   49.7187   37.6175 C   0  0  0  0  0  0  0  0  0  0  0  0
   29.5446   49.3778   38.5799 C   0  0  0  0  0  0  0  0  0  0  0  0
   29.2134   48.2518   39.4359 N   0  0  0  0  0  0  0  0  0  0  0  0
   30.2855   47.4728   40.0412 C   0  0  0  0  0  0  0  0  0  0  0  0
   30.9280   46.4430   39.1144 C   0  0  0  0  0  0  0  0  0  0  0  0
   31.9858   45.6293   39.8619 C   0  0  0  0  0  0  0  0  0  0  0  0
   32.6315   44.6930   38.9577 N   0  0  0  0  0  0  0  0  0  0  0  0
  1  2  1  0  0  0  0
  2  3  1  0  0  0  0
  3  4  1  0  0  0  0
  4  5  1  0  0  0  0
  5  6  1  0  0  0  0
  6  7  1  0  0  0  0
  7  8  1  0  0  0  0
  8  9  1  0  0  0  0
  9 10  1  0  0  0  0
 10 11  1  0  0  0  0
 11 12  1  0  0  0  0
 12 13  1  0  0  0  0
 13 14  1  0  0  0  0
M  END
>  <CHROM.1>
-178.33722428,-61.98761829,172.41879247,-65.99327587,-177.99019623,-172.72314127
60.93979274,157.12822562,-80.08258868,-176.96188678,-177.52434526,27.41444170
49.05530471,39.18633412,2.96451990,0.53134187,-1.11537704

>  <Name>
ligand

>  <RI>
0

>  <Rbt.Current_Directory>
/home/itssahil/PROJECTS/Mol_Feturizer/New_Systems/rnas/4P5J

>  <Rbt.Executable>
rbdock ($Id: //depot/dev/client3/rdock/2013.1/src/exe/rbdock.cxx#4 $)

>  <Rbt.Library>
libRbt.so (2013.1, Build901 2013/11/27)

>  <Rbt.Parameter_File>
/export/apps/rDock/src/rDock_2013.1_src/data/scripts/dock_solv.prm

>  <Rbt.Receptor>
prm/pocket_docking_4.prm

>  <SCORE>
-3.03919

>  <SCORE.INTER>
6.14099

>  <SCORE.INTER.CONST>
1

>  <SCORE.INTER.POLAR>
0

>  <SCORE.INTER.ROT>
11

>  <SCORE.INTER.SOLV>
6.70996

>  <SCORE.INTER.VDW>
-9.07599

>  <SCORE.INTER.norm>
0.438642

>  <SCORE.INTRA>
-9.18018

>  <SCORE.INTRA.DIHEDRAL>
-16.4424

>  <SCORE.INTRA.DIHEDRAL.0>
17.5233

>  <SCORE.INTRA.POLAR>
0

>  <SCORE.INTRA.POLAR.0>
0

>  <SCORE.INTRA.REPUL>
0

>  <SCORE.INTRA.REPUL.0>
0

>  <SCORE.INTRA.SOLV>
-1.89528

>  <SCORE.INTRA.SOLV.lig_0>
-46.1043

>  <SCORE.INTRA.VDW>
-0.0113335

>  <SCORE.INTRA.VDW.0>
-0.545445

>  <SCORE.INTRA.norm>
-0.655727

>  <SCORE.RESTR>
0

>  <SCORE.RESTR.CAVITY>
0

>  <SCORE.RESTR.norm>
0

>  <SCORE.SYSTEM>
0

>  <SCORE.SYSTEM.CONST>
0

>  <SCORE.SYSTEM.DIHEDRAL>
0

>  <SCORE.SYSTEM.SOLV>
0

>  <SCORE.SYSTEM.norm>
0

>  <SCORE.heavy>
14

>  <SCORE.norm>
-0.217085

>  <RMSD>
3.205

$$$$
ligand
 OpenBabel11021811513D
libRbt.so/2013.1/901 2013/11/27
 14 13  0  0  0  0  0  0  0  0999 V2000
   23.0760   54.2294   40.4601 N   0  0  0  0  0  0  0  0  0  0  0  0
   22.9054   53.1582   39.4919 C   0  0  0  0  0  0  0  0  0  0  0  0
   24.2582   52.7240   38.9377 C   0  0  0  0  0  0  0  0  0  0  0  0
   24.1006   51.6009   37.9189 C   0  0  0  0  0  0  0  0  0  0  0  0
   25.3791   51.0586   37.4690 N   0  0  0  0  0  0  0  0  0  0  0  0
   26.1689   50.2043   38.3397 C   0  0  0  0  0  0  0  0  0  0  0  0
   27.6289   50.1099   37.9102 C   0  0  0  0  0  0  0  0  0  0  0  0
   28.4148   49.2722   38.9127 C   0  0  0  0  0  0  0  0  0  0  0  0
   29.8603   49.1324   38.4482 C   0  0  0  0  0  0  0  0  0  0  0  0
   30.6416   48.2925   39.3396 N   0  0  0  0  0  0  0  0  0  0  0  0
   30.7369   46.8628   39.0759 C   0  0  0  0  0  0  0  0  0  0  0  0
   31.3230   46.0401   40.2213 C   0  0  0  0  0  0  0  0  0  0  0  0
   30.3935   46.0664   41.4358 C   0  0  0  0  0  0  0  0  0  0  0  0
   31.0092   45.3740   42.5551 N   0  0  0  0  0  0  0  0  0  0  0  0
  1  2  1  0  0  0  0
  2  3  1  0  0  0  0
  3  4  1  0  0  0  0
  4  5  1  0  0  0  0
  5  6  1  0  0  0  0
  6  7  1  0  0  0  0
  7  8  1  0  0  0  0
  8  9  1  0  0  0  0
  9 10  1  0  0  0  0
 10 11  1  0  0  0  0
 11 12  1  0  0  0  0
 12 13  1  0  0  0  0
 13 14  1  0  0  0  0
M  END
>  <CHROM.1>
-179.95620748,-173.88374710,73.74490849,-161.20042020,176.47831918,177.64766993
-177.49306454,91.59643746,-167.57431599,65.83205071,-175.32995992,27.56403426
49.58035461,39.32232743,2.79547773,0.66813595,-1.28545682

>  <Name>
ligand

>  <RI>
0

>  <Rbt.Current_Directory>
/home/itssahil/PROJECTS/Mol_Feturizer/New_Systems/rnas/4P5J

>  <Rbt.Executable>
rbdock ($Id: //depot/dev/client3/rdock/2013.1/src/exe/rbdock.cxx#4 $)

>  <Rbt.Library>
libRbt.so (2013.1, Build901 2013/11/27)

>  <Rbt.Parameter_File>
/export/apps/rDock/src/rDock_2013.1_src/data/scripts/dock_solv.prm

>  <Rbt.Receptor>
prm/pocket_docking_4.prm

>  <SCORE>
-2.98344

>  <SCORE.INTER>
6.60086

>  <SCORE.INTER.CONST>
1

>  <SCORE.INTER.POLAR>
0

>  <SCORE.INTER.ROT>
11

>  <SCORE.INTER.SOLV>
5.15418

>  <SCORE.INTER.VDW>
-8.25082

>  <SCORE.INTER.norm>
0.47149

>  <SCORE.INTRA>
-9.58605

>  <SCORE.INTRA.DIHEDRAL>
-15.89

>  <SCORE.INTRA.DIHEDRAL.0>
17.5233

>  <SCORE.INTRA.POLAR>
0

>  <SCORE.INTRA.POLAR.0>
0

>  <SCORE.INTRA.REPUL>
0

>  <SCORE.INTRA.REPUL.0>
0

>  <SCORE.INTRA.SOLV>
-2.37957

>  <SCORE.INTRA.SOLV.lig_0>
-46.1043

>  <SCORE.INTRA.VDW>
-0.451247

>  <SCORE.INTRA.VDW.0>
-0.545445

>  <SCORE.INTRA.norm>
-0.684718

>  <SCORE.RESTR>
0.00174804

>  <SCORE.RESTR.CAVITY>
0.00174804

>  <SCORE.RESTR.norm>
0.00012486

>  <SCORE.SYSTEM>
0

>  <SCORE.SYSTEM.CONST>
0

>  <SCORE.SYSTEM.DIHEDRAL>
0

>  <SCORE.SYSTEM.SOLV>
0

>  <SCORE.SYSTEM.norm>
0

>  <SCORE.heavy>
14

>  <SCORE.norm>
-0.213103

>  <RMSD>
3.210

$$$$
ligand
 OpenBabel11021811513D
libRbt.so/2013.1/901 2013/11/27
 14 13  0  0  0  0  0  0  0  0999 V2000
   24.1483   50.2051   40.7333 N   0  0  0  0  0  0  0  0  0  0  0  0
   25.1310   49.7205   39.7775 C   0  0  0  0  0  0  0  0  0  0  0  0
   26.5358   49.8260   40.3618 C   0  0  0  0  0  0  0  0  0  0  0  0
   27.5809   49.3124   39.3777 C   0  0  0  0  0  0  0  0  0  0  0  0
   28.9362   49.3477   39.9189 N   0  0  0  0  0  0  0  0  0  0  0  0
   29.9769   48.4969   39.3667 C   0  0  0  0  0  0  0  0  0  0  0  0
   30.0036   47.1093   39.9982 C   0  0  0  0  0  0  0  0  0  0  0  0
   30.9593   46.2041   39.2289 C   0  0  0  0  0  0  0  0  0  0  0  0
   32.4003   46.6135   39.5138 C   0  0  0  0  0  0  0  0  0  0  0  0
   33.3546   45.7920   38.7893 N   0  0  0  0  0  0  0  0  0  0  0  0
   33.6389   44.4423   39.2585 C   0  0  0  0  0  0  0  0  0  0  0  0
   32.6832   43.3709   38.7377 C   0  0  0  0  0  0  0  0  0  0  0  0
   33.0602   41.9957   39.2913 C   0  0  0  0  0  0  0  0  0  0  0  0
   32.8707   41.9644   40.7316 N   0  0  0  0  0  0  0  0  0  0  0  0
  1  2  1  0  0  0  0
  2  3  1  0  0  0  0
  3  4  1  0  0  0  0
  4  5  1  0  0  0  0
  5  6  1  0  0  0  0
  6  7  1  0  0  0  0
  7  8  1  0  0  0  0
  8  9  1  0  0  0  0
  9 10  1  0  0  0  0
 10 11  1  0  0  0  0
 11 12  1  0  0  0  0
 12 13  1  0  0  0  0
 13 14  1  0  0  0  0
M  END
>  <CHROM.1>
179.57567677,-177.76589869,158.05063008,-86.38793254,171.03983930,72.47033133
-179.22679681,-76.46613708,86.39089874,-179.69927244,65.54566930,30.09151918
46.74287509,39.64878661,2.44283172,0.24221720,-0.17149522

>  <Name>
ligand

>  <RI>
0

>  <Rbt.Current_Directory>
/home/itssahil/PROJECTS/Mol_Feturizer/New_Systems/rnas/4P5J

>  <Rbt.Executable>
rbdock ($Id: //depot/dev/client3/rdock/2013.1/src/exe/rbdock.cxx#4 $)

>  <Rbt.Library>
libRbt.so (2013.1, Build901 2013/11/27)

>  <Rbt.Parameter_File>
/export/apps/rDock/src/rDock_2013.1_src/data/scripts/dock_solv.prm

>  <Rbt.Receptor>
prm/pocket_docking_4.prm

>  <SCORE>
0.654722

>  <SCORE.INTER>
8.51097

>  <SCORE.INTER.CONST>
1

>  <SCORE.INTER.POLAR>
0

>  <SCORE.INTER.ROT>
11

>  <SCORE.INTER.SOLV>
3.84236

>  <SCORE.INTER.VDW>
-6.54014

>  <SCORE.INTER.norm>
0.607926

>  <SCORE.INTRA>
-7.85625

>  <SCORE.INTRA.DIHEDRAL>
-14.9194

>  <SCORE.INTRA.DIHEDRAL.0>
17.5233

>  <SCORE.INTRA.POLAR>
0

>  <SCORE.INTRA.POLAR.0>
0

>  <SCORE.INTRA.REPUL>
0

>  <SCORE.INTRA.REPUL.0>
0

>  <SCORE.INTRA.SOLV>
-1.74028

>  <SCORE.INTRA.SOLV.lig_0>
-46.1043

>  <SCORE.INTRA.VDW>
0.473602

>  <SCORE.INTRA.VDW.0>
-0.545445

>  <SCORE.INTRA.norm>
-0.561161

>  <SCORE.RESTR>
0

>  <SCORE.RESTR.CAVITY>
0

>  <SCORE.RESTR.norm>
0

>  <SCORE.SYSTEM>
0

>  <SCORE.SYSTEM.CONST>
0

>  <SCORE.SYSTEM.DIHEDRAL>
0

>  <SCORE.SYSTEM.SOLV>
0

>  <SCORE.SYSTEM.norm>
0

>  <SCORE.heavy>
14

>  <SCORE.norm>
0.0467659

>  <RMSD>
3.257

$$$$
ligand
 OpenBabel11021811513D
libRbt.so/2013.1/901 2013/11/27
 14 13  0  0  0  0  0  0  0  0999 V2000
   31.9200   44.5630   36.5801 N   0  0  0  0  0  0  0  0  0  0  0  0
   31.4969   44.3728   37.9581 C   0  0  0  0  0  0  0  0  0  0  0  0
   31.5452   45.6959   38.7151 C   0  0  0  0  0  0  0  0  0  0  0  0
   31.1909   45.5018   40.1851 C   0  0  0  0  0  0  0  0  0  0  0  0
   31.1819   46.7532   40.9370 N   0  0  0  0  0  0  0  0  0  0  0  0
   29.9871   47.1847   41.6428 C   0  0  0  0  0  0  0  0  0  0  0  0
   29.4530   48.5212   41.1396 C   0  0  0  0  0  0  0  0  0  0  0  0
   29.0072   48.3917   39.6874 C   0  0  0  0  0  0  0  0  0  0  0  0
   28.5186   49.7420   39.1748 C   0  0  0  0  0  0  0  0  0  0  0  0
   27.9385   49.6444   37.8464 N   0  0  0  0  0  0  0  0  0  0  0  0
   26.9416   50.6205   37.4269 C   0  0  0  0  0  0  0  0  0  0  0  0
   25.4990   50.2404   37.7538 C   0  0  0  0  0  0  0  0  0  0  0  0
   25.2942   50.1490   39.2669 C   0  0  0  0  0  0  0  0  0  0  0  0
   23.9057   49.8454   39.5689 N   0  0  0  0  0  0  0  0  0  0  0  0
  1  2  1  0  0  0  0
  2  3  1  0  0  0  0
  3  4  1  0  0  0  0
  4  5  1  0  0  0  0
  5  6  1  0  0  0  0
  6  7  1  0  0  0  0
  7  8  1  0  0  0  0
  8  9  1  0  0  0  0
  9 10  1  0  0  0  0
 10 11  1  0  0  0  0
 11 12  1  0  0  0  0
 12 13  1  0  0  0  0
 13 14  1  0  0  0  0
M  END
>  <CHROM.1>
-176.36422454,-178.07695725,122.28567854,-119.11104693,63.95112355,-178.07879361
-173.38629996,153.88906165,-89.47089685,63.38255876,177.47881775,28.84861863
47.94481174,39.13466860,0.08790020,0.69060328,-1.76341915

>  <Name>
ligand

>  <RI>
0

>  <Rbt.Current_Directory>
/home/itssahil/PROJECTS/Mol_Feturizer/New_Systems/rnas/4P5J

>  <Rbt.Executable>
rbdock ($Id: //depot/dev/client3/rdock/2013.1/src/exe/rbdock.cxx#4 $)

>  <Rbt.Library>
libRbt.so (2013.1, Build901 2013/11/27)

>  <Rbt.Parameter_File>
/export/apps/rDock/src/rDock_2013.1_src/data/scripts/dock_solv.prm

>  <Rbt.Receptor>
prm/pocket_docking_4.prm

>  <SCORE>
-2.70769

>  <SCORE.INTER>
5.86381

>  <SCORE.INTER.CONST>
1

>  <SCORE.INTER.POLAR>
0

>  <SCORE.INTER.ROT>
11

>  <SCORE.INTER.SOLV>
8.88515

>  <SCORE.INTER.VDW>
-9.98584

>  <SCORE.INTER.norm>
0.418844

>  <SCORE.INTRA>
-8.57151

>  <SCORE.INTRA.DIHEDRAL>
-13.697

>  <SCORE.INTRA.DIHEDRAL.0>
17.5233

>  <SCORE.INTRA.POLAR>
0

>  <SCORE.INTRA.POLAR.0>
0

>  <SCORE.INTRA.REPUL>
0

>  <SCORE.INTRA.REPUL.0>
0

>  <SCORE.INTRA.SOLV>
-1.93393

>  <SCORE.INTRA.SOLV.lig_0>
-46.1043

>  <SCORE.INTRA.VDW>
-0.756047

>  <SCORE.INTRA.VDW.0>
-0.545445

>  <SCORE.INTRA.norm>
-0.612251

>  <SCORE.RESTR>
0

>  <SCORE.RESTR.CAVITY>
0

>  <SCORE.RESTR.norm>
0

>  <SCORE.SYSTEM>
0

>  <SCORE.SYSTEM.CONST>
0

>  <SCORE.SYSTEM.DIHEDRAL>
0

>  <SCORE.SYSTEM.SOLV>
0

>  <SCORE.SYSTEM.norm>
0

>  <SCORE.heavy>
14

>  <SCORE.norm>
-0.193407

>  <RMSD>
3.257

$$$$
ligand
 OpenBabel11021811513D
libRbt.so/2013.1/901 2013/11/27
 14 13  0  0  0  0  0  0  0  0999 V2000
   33.0304   46.1448   34.9414 N   0  0  0  0  0  0  0  0  0  0  0  0
   32.7373   45.9931   36.3574 C   0  0  0  0  0  0  0  0  0  0  0  0
   31.8844   44.7509   36.5923 C   0  0  0  0  0  0  0  0  0  0  0  0
   31.5773   44.5665   38.0742 C   0  0  0  0  0  0  0  0  0  0  0  0
   30.8083   45.6726   38.6367 N   0  0  0  0  0  0  0  0  0  0  0  0
   31.4755   46.7616   39.3299 C   0  0  0  0  0  0  0  0  0  0  0  0
   30.6610   48.0506   39.3290 C   0  0  0  0  0  0  0  0  0  0  0  0
   29.3775   47.8575   40.1288 C   0  0  0  0  0  0  0  0  0  0  0  0
   28.4889   49.0883   39.9845 C   0  0  0  0  0  0  0  0  0  0  0  0
   28.0492   49.2867   38.6142 N   0  0  0  0  0  0  0  0  0  0  0  0
   27.1882   50.4178   38.2951 C   0  0  0  0  0  0  0  0  0  0  0  0
   25.6924   50.1369   38.4209 C   0  0  0  0  0  0  0  0  0  0  0  0
   25.3091   49.8961   39.8821 C   0  0  0  0  0  0  0  0  0  0  0  0
   23.8830   49.6404   39.9921 N   0  0  0  0  0  0  0  0  0  0  0  0
  1  2  1  0  0  0  0
  2  3  1  0  0  0  0
  3  4  1  0  0  0  0
  4  5  1  0  0  0  0
  5  6  1  0  0  0  0
  6  7  1  0  0  0  0
  7  8  1  0  0  0  0
  8  9  1  0  0  0  0
  9 10  1  0  0  0  0
 10 11  1  0  0  0  0
 11 12  1  0  0  0  0
 12 13  1  0  0  0  0
 13 14  1  0  0  0  0
M  END
>  <CHROM.1>
179.44564402,61.98352448,-95.96209413,155.91351054,65.14515752,-173.14588972
63.82715093,179.87832428,-89.14821433,67.08698524,179.55138910,29.29746953
47.73315292,38.47006242,0.17252789,0.63310715,-1.33855695

>  <Name>
ligand

>  <RI>
0

>  <Rbt.Current_Directory>
/home/itssahil/PROJECTS/Mol_Feturizer/New_Systems/rnas/4P5J

>  <Rbt.Executable>
rbdock ($Id: //depot/dev/client3/rdock/2013.1/src/exe/rbdock.cxx#4 $)

>  <Rbt.Library>
libRbt.so (2013.1, Build901 2013/11/27)

>  <Rbt.Parameter_File>
/export/apps/rDock/src/rDock_2013.1_src/data/scripts/dock_solv.prm

>  <Rbt.Receptor>
prm/pocket_docking_4.prm

>  <SCORE>
-1.91414

>  <SCORE.INTER>
6.52475

>  <SCORE.INTER.CONST>
1

>  <SCORE.INTER.POLAR>
0

>  <SCORE.INTER.ROT>
11

>  <SCORE.INTER.SOLV>
9.49445

>  <SCORE.INTER.VDW>
-9.74832

>  <SCORE.INTER.norm>
0.466053

>  <SCORE.INTRA>
-8.43889

>  <SCORE.INTRA.DIHEDRAL>
-15.1942

>  <SCORE.INTRA.DIHEDRAL.0>
17.5233

>  <SCORE.INTRA.POLAR>
0

>  <SCORE.INTRA.POLAR.0>
0

>  <SCORE.INTRA.REPUL>
0

>  <SCORE.INTRA.REPUL.0>
0

>  <SCORE.INTRA.SOLV>
-1.14348

>  <SCORE.INTRA.SOLV.lig_0>
-46.1043

>  <SCORE.INTRA.VDW>
-0.270053

>  <SCORE.INTRA.VDW.0>
-0.545445

>  <SCORE.INTRA.norm>
-0.602778

>  <SCORE.RESTR>
0

>  <SCORE.RESTR.CAVITY>
0

>  <SCORE.RESTR.norm>
0

>  <SCORE.SYSTEM>
0

>  <SCORE.SYSTEM.CONST>
0

>  <SCORE.SYSTEM.DIHEDRAL>
0

>  <SCORE.SYSTEM.SOLV>
0

>  <SCORE.SYSTEM.norm>
0

>  <SCORE.heavy>
14

>  <SCORE.norm>
-0.136724

>  <RMSD>
3.258

$$$$
ligand
 OpenBabel11021811513D
libRbt.so/2013.1/901 2013/11/27
 14 13  0  0  0  0  0  0  0  0999 V2000
   31.3425   46.0725   41.4508 N   0  0  0  0  0  0  0  0  0  0  0  0
   30.4650   46.7323   40.4976 C   0  0  0  0  0  0  0  0  0  0  0  0
   30.8648   46.3714   39.0709 C   0  0  0  0  0  0  0  0  0  0  0  0
   32.2940   46.8100   38.7723 C   0  0  0  0  0  0  0  0  0  0  0  0
   32.6951   46.5394   37.3950 N   0  0  0  0  0  0  0  0  0  0  0  0
   32.7170   47.6047   36.4069 C   0  0  0  0  0  0  0  0  0  0  0  0
   31.3246   48.1239   36.0658 C   0  0  0  0  0  0  0  0  0  0  0  0
   31.4296   49.3267   35.1349 C   0  0  0  0  0  0  0  0  0  0  0  0
   30.0523   49.9519   34.9414 C   0  0  0  0  0  0  0  0  0  0  0  0
   29.5404   50.5357   36.1693 N   0  0  0  0  0  0  0  0  0  0  0  0
   28.7811   49.7052   37.0947 C   0  0  0  0  0  0  0  0  0  0  0  0
   28.4247   50.3834   38.4158 C   0  0  0  0  0  0  0  0  0  0  0  0
   27.6773   49.4158   39.3351 C   0  0  0  0  0  0  0  0  0  0  0  0
   27.2578   50.0974   40.5478 N   0  0  0  0  0  0  0  0  0  0  0  0
  1  2  1  0  0  0  0
  2  3  1  0  0  0  0
  3  4  1  0  0  0  0
  4  5  1  0  0  0  0
  5  6  1  0  0  0  0
  6  7  1  0  0  0  0
  7  8  1  0  0  0  0
  8  9  1  0  0  0  0
  9 10  1  0  0  0  0
 10 11  1  0  0  0  0
 11 12  1  0  0  0  0
 12 13  1  0  0  0  0
 13 14  1  0  0  0  0
M  END
>  <CHROM.1>
-60.36469556,-177.28501534,101.64003364,-67.70903031,174.34485836,-172.70854784
66.29057916,-87.98988606,173.70747411,-177.86406720,-175.87321951,30.34764765
48.40506340,37.94949209,0.97140019,-0.65476811,2.06813588

>  <Name>
ligand

>  <RI>
0

>  <Rbt.Current_Directory>
/home/itssahil/PROJECTS/Mol_Feturizer/New_Systems/rnas/4P5J

>  <Rbt.Executable>
rbdock ($Id: //depot/dev/client3/rdock/2013.1/src/exe/rbdock.cxx#4 $)

>  <Rbt.Library>
libRbt.so (2013.1, Build901 2013/11/27)

>  <Rbt.Parameter_File>
/export/apps/rDock/src/rDock_2013.1_src/data/scripts/dock_solv.prm

>  <Rbt.Receptor>
prm/pocket_docking_4.prm

>  <SCORE>
-1.12963

>  <SCORE.INTER>
7.59117

>  <SCORE.INTER.CONST>
1

>  <SCORE.INTER.POLAR>
0

>  <SCORE.INTER.ROT>
11

>  <SCORE.INTER.SOLV>
4.18564

>  <SCORE.INTER.VDW>
-7.26777

>  <SCORE.INTER.norm>
0.542226

>  <SCORE.INTRA>
-8.7208

>  <SCORE.INTRA.DIHEDRAL>
-15.3638

>  <SCORE.INTRA.DIHEDRAL.0>
17.5233

>  <SCORE.INTRA.POLAR>
0

>  <SCORE.INTRA.POLAR.0>
0

>  <SCORE.INTRA.REPUL>
0

>  <SCORE.INTRA.REPUL.0>
0

>  <SCORE.INTRA.SOLV>
-1.40498

>  <SCORE.INTRA.SOLV.lig_0>
-46.1043

>  <SCORE.INTRA.VDW>
-0.336402

>  <SCORE.INTRA.VDW.0>
-0.545445

>  <SCORE.INTRA.norm>
-0.622914

>  <SCORE.RESTR>
0

>  <SCORE.RESTR.CAVITY>
0

>  <SCORE.RESTR.norm>
0

>  <SCORE.SYSTEM>
0

>  <SCORE.SYSTEM.CONST>
0

>  <SCORE.SYSTEM.DIHEDRAL>
0

>  <SCORE.SYSTEM.SOLV>
0

>  <SCORE.SYSTEM.norm>
0

>  <SCORE.heavy>
14

>  <SCORE.norm>
-0.080688

>  <RMSD>
3.260

$$$$
ligand
 OpenBabel11021811513D
libRbt.so/2013.1/901 2013/11/27
 14 13  0  0  0  0  0  0  0  0999 V2000
   32.4080   42.3198   37.2542 N   0  0  0  0  0  0  0  0  0  0  0  0
   31.3642   43.0870   36.5939 C   0  0  0  0  0  0  0  0  0  0  0  0
   31.6064   44.5812   36.7795 C   0  0  0  0  0  0  0  0  0  0  0  0
   31.5055   44.9766   38.2484 C   0  0  0  0  0  0  0  0  0  0  0  0
   31.7911   46.3899   38.4770 N   0  0  0  0  0  0  0  0  0  0  0  0
   31.7619   46.9438   39.8202 C   0  0  0  0  0  0  0  0  0  0  0  0
   30.3519   47.2872   40.2879 C   0  0  0  0  0  0  0  0  0  0  0  0
   29.7614   48.3814   39.4057 C   0  0  0  0  0  0  0  0  0  0  0  0
   28.3698   48.7535   39.9060 C   0  0  0  0  0  0  0  0  0  0  0  0
   27.7108   49.7057   39.0289 N   0  0  0  0  0  0  0  0  0  0  0  0
   26.2600   49.8328   39.0710 C   0  0  0  0  0  0  0  0  0  0  0  0
   25.6340   50.4236   37.8095 C   0  0  0  0  0  0  0  0  0  0  0  0
   26.1499   51.8425   37.5643 C   0  0  0  0  0  0  0  0  0  0  0  0
   25.4957   52.4216   36.4033 N   0  0  0  0  0  0  0  0  0  0  0  0
  1  2  1  0  0  0  0
  2  3  1  0  0  0  0
  3  4  1  0  0  0  0
  4  5  1  0  0  0  0
  5  6  1  0  0  0  0
  6  7  1  0  0  0  0
  7  8  1  0  0  0  0
  8  9  1  0  0  0  0
  9 10  1  0  0  0  0
 10 11  1  0  0  0  0
 11 12  1  0  0  0  0
 12 13  1  0  0  0  0
 13 14  1  0  0  0  0
M  END
>  <CHROM.1>
-64.33889795,177.38459600,-179.10677119,-81.83275355,-63.50576603,-178.12851077
-174.74561650,159.26499675,-157.85980287,-61.37804258,-176.98383502,29.29787469
47.63901204,38.33234538,0.49447382,0.76850001,-2.19686124

>  <Name>
ligand

>  <RI>
0

>  <Rbt.Current_Directory>
/home/itssahil/PROJECTS/Mol_Feturizer/New_Systems/rnas/4P5J

>  <Rbt.Executable>
rbdock ($Id: //depot/dev/client3/rdock/2013.1/src/exe/rbdock.cxx#4 $)

>  <Rbt.Library>
libRbt.so (2013.1, Build901 2013/11/27)

>  <Rbt.Parameter_File>
/export/apps/rDock/src/rDock_2013.1_src/data/scripts/dock_solv.prm

>  <Rbt.Receptor>
prm/pocket_docking_4.prm

>  <SCORE>
-3.69444

>  <SCORE.INTER>
5.35018

>  <SCORE.INTER.CONST>
1

>  <SCORE.INTER.POLAR>
0

>  <SCORE.INTER.ROT>
11

>  <SCORE.INTER.SOLV>
5.73618

>  <SCORE.INTER.VDW>
-9.27861

>  <SCORE.INTER.norm>
0.382156

>  <SCORE.INTRA>
-9.04519

>  <SCORE.INTRA.DIHEDRAL>
-16.1881

>  <SCORE.INTRA.DIHEDRAL.0>
17.5233

>  <SCORE.INTRA.POLAR>
0

>  <SCORE.INTRA.POLAR.0>
0

>  <SCORE.INTRA.REPUL>
0

>  <SCORE.INTRA.REPUL.0>
0

>  <SCORE.INTRA.SOLV>
-1.18182

>  <SCORE.INTRA.SOLV.lig_0>
-46.1043

>  <SCORE.INTRA.VDW>
-0.360217

>  <SCORE.INTRA.VDW.0>
-0.545445

>  <SCORE.INTRA.norm>
-0.646085

>  <SCORE.RESTR>
0.000566989

>  <SCORE.RESTR.CAVITY>
0.000566989

>  <SCORE.RESTR.norm>
4.04992e-05

>  <SCORE.SYSTEM>
0

>  <SCORE.SYSTEM.CONST>
0

>  <SCORE.SYSTEM.DIHEDRAL>
0

>  <SCORE.SYSTEM.SOLV>
0

>  <SCORE.SYSTEM.norm>
0

>  <SCORE.heavy>
14

>  <SCORE.norm>
-0.263889

>  <RMSD>
3.261

$$$$
ligand
 OpenBabel11021811513D
libRbt.so/2013.1/901 2013/11/27
 14 13  0  0  0  0  0  0  0  0999 V2000
   34.3521   42.4001   42.0032 N   0  0  0  0  0  0  0  0  0  0  0  0
   34.6498   43.4111   41.0016 C   0  0  0  0  0  0  0  0  0  0  0  0
   33.4869   43.5482   40.0246 C   0  0  0  0  0  0  0  0  0  0  0  0
   33.7678   44.6252   38.9827 C   0  0  0  0  0  0  0  0  0  0  0  0
   32.6575   44.8214   38.0553 N   0  0  0  0  0  0  0  0  0  0  0  0
   32.0263   46.1234   37.9203 C   0  0  0  0  0  0  0  0  0  0  0  0
   31.0589   46.4325   39.0576 C   0  0  0  0  0  0  0  0  0  0  0  0
   30.4598   47.8219   38.8700 C   0  0  0  0  0  0  0  0  0  0  0  0
   29.4011   48.0763   39.9375 C   0  0  0  0  0  0  0  0  0  0  0  0
   28.6875   49.3216   39.7129 N   0  0  0  0  0  0  0  0  0  0  0  0
   27.3618   49.5012   40.2898 C   0  0  0  0  0  0  0  0  0  0  0  0
   26.5256   50.6006   39.6382 C   0  0  0  0  0  0  0  0  0  0  0  0
   26.2241   50.2563   38.1786 C   0  0  0  0  0  0  0  0  0  0  0  0
   25.4597   51.3247   37.5577 N   0  0  0  0  0  0  0  0  0  0  0  0
  1  2  1  0  0  0  0
  2  3  1  0  0  0  0
  3  4  1  0  0  0  0
  4  5  1  0  0  0  0
  5  6  1  0  0  0  0
  6  7  1  0  0  0  0
  7  8  1  0  0  0  0
  8  9  1  0  0  0  0
  9 10  1  0  0  0  0
 10 11  1  0  0  0  0
 11 12  1  0  0  0  0
 12 13  1  0  0  0  0
 13 14  1  0  0  0  0
M  END
>  <CHROM.1>
178.80681276,-177.95558538,121.84046622,-78.22546479,178.68180909,174.91496537
-173.27351715,157.36035583,-160.65994617,63.91418827,-178.45064679,30.43712956
47.01891461,39.37360823,0.25630791,-0.71921765,1.75146072

>  <Name>
ligand

>  <RI>
0

>  <Rbt.Current_Directory>
/home/itssahil/PROJECTS/Mol_Feturizer/New_Systems/rnas/4P5J

>  <Rbt.Executable>
rbdock ($Id: //depot/dev/client3/rdock/2013.1/src/exe/rbdock.cxx#4 $)

>  <Rbt.Library>
libRbt.so (2013.1, Build901 2013/11/27)

>  <Rbt.Parameter_File>
/export/apps/rDock/src/rDock_2013.1_src/data/scripts/dock_solv.prm

>  <Rbt.Receptor>
prm/pocket_docking_4.prm

>  <SCORE>
-0.826192

>  <SCORE.INTER>
8.55681

>  <SCORE.INTER.CONST>
1

>  <SCORE.INTER.POLAR>
0

>  <SCORE.INTER.ROT>
11

>  <SCORE.INTER.SOLV>
2.74112

>  <SCORE.INTER.VDW>
-6.1425

>  <SCORE.INTER.norm>
0.611201

>  <SCORE.INTRA>
-9.38577

>  <SCORE.INTRA.DIHEDRAL>
-15.0445

>  <SCORE.INTRA.DIHEDRAL.0>
17.5233

>  <SCORE.INTRA.POLAR>
0

>  <SCORE.INTRA.POLAR.0>
0

>  <SCORE.INTRA.REPUL>
0

>  <SCORE.INTRA.REPUL.0>
0

>  <SCORE.INTRA.SOLV>
-2.39152

>  <SCORE.INTRA.SOLV.lig_0>
-46.1043

>  <SCORE.INTRA.VDW>
-0.667776

>  <SCORE.INTRA.VDW.0>
-0.545445

>  <SCORE.INTRA.norm>
-0.670412

>  <SCORE.RESTR>
0.00277095

>  <SCORE.RESTR.CAVITY>
0.00277095

>  <SCORE.RESTR.norm>
0.000197925

>  <SCORE.SYSTEM>
0

>  <SCORE.SYSTEM.CONST>
0

>  <SCORE.SYSTEM.DIHEDRAL>
0

>  <SCORE.SYSTEM.SOLV>
0

>  <SCORE.SYSTEM.norm>
0

>  <SCORE.heavy>
14

>  <SCORE.norm>
-0.0590137

>  <RMSD>
3.265

$$$$
ligand
 OpenBabel11021811513D
libRbt.so/2013.1/901 2013/11/27
 14 13  0  0  0  0  0  0  0  0999 V2000
   29.4020   47.4840   42.0442 N   0  0  0  0  0  0  0  0  0  0  0  0
   29.7282   47.2315   40.6500 C   0  0  0  0  0  0  0  0  0  0  0  0
   30.7007   46.0623   40.5361 C   0  0  0  0  0  0  0  0  0  0  0  0
   31.1454   45.8551   39.0927 C   0  0  0  0  0  0  0  0  0  0  0  0
   31.9577   46.9567   38.5851 N   0  0  0  0  0  0  0  0  0  0  0  0
   31.5573   47.6842   37.3925 C   0  0  0  0  0  0  0  0  0  0  0  0
   30.5194   48.7638   37.6788 C   0  0  0  0  0  0  0  0  0  0  0  0
   30.1342   49.4736   36.3856 C   0  0  0  0  0  0  0  0  0  0  0  0
   29.1141   50.5678   36.6811 C   0  0  0  0  0  0  0  0  0  0  0  0
   27.8532   50.0248   37.1561 N   0  0  0  0  0  0  0  0  0  0  0  0
   26.6727   50.8780   37.1875 C   0  0  0  0  0  0  0  0  0  0  0  0
   25.3478   50.1301   37.3199 C   0  0  0  0  0  0  0  0  0  0  0  0
   24.1701   51.1051   37.2729 C   0  0  0  0  0  0  0  0  0  0  0  0
   24.1949   51.9796   38.4330 N   0  0  0  0  0  0  0  0  0  0  0  0
  1  2  1  0  0  0  0
  2  3  1  0  0  0  0
  3  4  1  0  0  0  0
  4  5  1  0  0  0  0
  5  6  1  0  0  0  0
  6  7  1  0  0  0  0
  7  8  1  0  0  0  0
  8  9  1  0  0  0  0
  9 10  1  0  0  0  0
 10 11  1  0  0  0  0
 11 12  1  0  0  0  0
 12 13  1  0  0  0  0
 13 14  1  0  0  0  0
M  END
>  <CHROM.1>
-175.28844540,66.82678370,-122.88067770,82.20349459,-179.34367689,-179.03996726
-65.65439004,-165.62118604,163.59859082,-177.15952946,-65.61441814,28.74998713
48.87109795,38.31509835,0.55070718,-0.44081964,2.09481117

>  <Name>
ligand

>  <RI>
0

>  <Rbt.Current_Directory>
/home/itssahil/PROJECTS/Mol_Feturizer/New_Systems/rnas/4P5J

>  <Rbt.Executable>
rbdock ($Id: //depot/dev/client3/rdock/2013.1/src/exe/rbdock.cxx#4 $)

>  <Rbt.Library>
libRbt.so (2013.1, Build901 2013/11/27)

>  <Rbt.Parameter_File>
/export/apps/rDock/src/rDock_2013.1_src/data/scripts/dock_solv.prm

>  <Rbt.Receptor>
prm/pocket_docking_5.prm

>  <SCORE>
-3.71353

>  <SCORE.INTER>
5.00854

>  <SCORE.INTER.CONST>
1

>  <SCORE.INTER.POLAR>
0

>  <SCORE.INTER.ROT>
11

>  <SCORE.INTER.SOLV>
6.76079

>  <SCORE.INTER.VDW>
-9.8479

>  <SCORE.INTER.norm>
0.357753

>  <SCORE.INTRA>
-8.72207

>  <SCORE.INTRA.DIHEDRAL>
-15.0657

>  <SCORE.INTRA.DIHEDRAL.0>
17.5233

>  <SCORE.INTRA.POLAR>
0

>  <SCORE.INTRA.POLAR.0>
0

>  <SCORE.INTRA.REPUL>
0

>  <SCORE.INTRA.REPUL.0>
0

>  <SCORE.INTRA.SOLV>
-1.1767

>  <SCORE.INTRA.SOLV.lig_0>
-46.1043

>  <SCORE.INTRA.VDW>
-0.600881

>  <SCORE.INTRA.VDW.0>
-0.545445

>  <SCORE.INTRA.norm>
-0.623005

>  <SCORE.RESTR>
0

>  <SCORE.RESTR.CAVITY>
0

>  <SCORE.RESTR.norm>
0

>  <SCORE.SYSTEM>
0

>  <SCORE.SYSTEM.CONST>
0

>  <SCORE.SYSTEM.DIHEDRAL>
0

>  <SCORE.SYSTEM.SOLV>
0

>  <SCORE.SYSTEM.norm>
0

>  <SCORE.heavy>
14

>  <SCORE.norm>
-0.265252

>  <RMSD>
3.268

$$$$
ligand
 OpenBabel11021811513D
libRbt.so/2013.1/901 2013/11/27
 14 13  0  0  0  0  0  0  0  0999 V2000
   30.4818   46.9922   41.4067 N   0  0  0  0  0  0  0  0  0  0  0  0
   30.9663   45.8850   40.5985 C   0  0  0  0  0  0  0  0  0  0  0  0
   31.0048   46.2802   39.1260 C   0  0  0  0  0  0  0  0  0  0  0  0
   31.5769   45.1562   38.2695 C   0  0  0  0  0  0  0  0  0  0  0  0
   31.6151   45.4884   36.8485 N   0  0  0  0  0  0  0  0  0  0  0  0
   32.6208   46.3988   36.3273 C   0  0  0  0  0  0  0  0  0  0  0  0
   32.0164   47.5882   35.5892 C   0  0  0  0  0  0  0  0  0  0  0  0
   31.2221   48.4556   36.5593 C   0  0  0  0  0  0  0  0  0  0  0  0
   30.4727   49.5378   35.7897 C   0  0  0  0  0  0  0  0  0  0  0  0
   29.6600   50.3660   36.6638 N   0  0  0  0  0  0  0  0  0  0  0  0
   28.4616   49.8037   37.2723 C   0  0  0  0  0  0  0  0  0  0  0  0
   27.4090   50.8328   37.6788 C   0  0  0  0  0  0  0  0  0  0  0  0
   26.1772   50.1422   38.2666 C   0  0  0  0  0  0  0  0  0  0  0  0
   25.1856   51.1298   38.6571 N   0  0  0  0  0  0  0  0  0  0  0  0
  1  2  1  0  0  0  0
  2  3  1  0  0  0  0
  3  4  1  0  0  0  0
  4  5  1  0  0  0  0
  5  6  1  0  0  0  0
  6  7  1  0  0  0  0
  7  8  1  0  0  0  0
  8  9  1  0  0  0  0
  9 10  1  0  0  0  0
 10 11  1  0  0  0  0
 11 12  1  0  0  0  0
 12 13  1  0  0  0  0
 13 14  1  0  0  0  0
M  END
>  <CHROM.1>
177.12872357,179.25774284,75.46256069,-123.75281410,65.06093077,-172.67967027
177.97153908,-70.81938166,-156.30134896,178.29692112,179.67036447,29.91957096
48.14677410,37.78927176,0.37075975,-0.66562431,2.12675269

>  <Name>
ligand

>  <RI>
0

>  <Rbt.Current_Directory>
/home/itssahil/PROJECTS/Mol_Feturizer/New_Systems/rnas/4P5J

>  <Rbt.Executable>
rbdock ($Id: //depot/dev/client3/rdock/2013.1/src/exe/rbdock.cxx#4 $)

>  <Rbt.Library>
libRbt.so (2013.1, Build901 2013/11/27)

>  <Rbt.Parameter_File>
/export/apps/rDock/src/rDock_2013.1_src/data/scripts/dock_solv.prm

>  <Rbt.Receptor>
prm/pocket_docking_4.prm

>  <SCORE>
-3.23805

>  <SCORE.INTER>
5.92091

>  <SCORE.INTER.CONST>
1

>  <SCORE.INTER.POLAR>
0

>  <SCORE.INTER.ROT>
11

>  <SCORE.INTER.SOLV>
5.88124

>  <SCORE.INTER.VDW>
-8.94647

>  <SCORE.INTER.norm>
0.422922

>  <SCORE.INTRA>
-9.15896

>  <SCORE.INTRA.DIHEDRAL>
-15.2708

>  <SCORE.INTRA.DIHEDRAL.0>
17.5233

>  <SCORE.INTRA.POLAR>
0

>  <SCORE.INTRA.POLAR.0>
0

>  <SCORE.INTRA.REPUL>
0

>  <SCORE.INTRA.REPUL.0>
0

>  <SCORE.INTRA.SOLV>
-2.32293

>  <SCORE.INTRA.SOLV.lig_0>
-46.1043

>  <SCORE.INTRA.VDW>
-0.362081

>  <SCORE.INTRA.VDW.0>
-0.545445

>  <SCORE.INTRA.norm>
-0.654212

>  <SCORE.RESTR>
0

>  <SCORE.RESTR.CAVITY>
0

>  <SCORE.RESTR.norm>
0

>  <SCORE.SYSTEM>
0

>  <SCORE.SYSTEM.CONST>
0

>  <SCORE.SYSTEM.DIHEDRAL>
0

>  <SCORE.SYSTEM.SOLV>
0

>  <SCORE.SYSTEM.norm>
0

>  <SCORE.heavy>
14

>  <SCORE.norm>
-0.231289

>  <RMSD>
3.275

$$$$
ligand
 OpenBabel11021811513D
libRbt.so/2013.1/901 2013/11/27
 14 13  0  0  0  0  0  0  0  0999 V2000
   22.6860   50.7369   41.2361 N   0  0  0  0  0  0  0  0  0  0  0  0
   22.4644   49.5353   40.4481 C   0  0  0  0  0  0  0  0  0  0  0  0
   23.7674   49.0775   39.8012 C   0  0  0  0  0  0  0  0  0  0  0  0
   24.3031   50.1307   38.8379 C   0  0  0  0  0  0  0  0  0  0  0  0
   25.5306   49.7142   38.1664 N   0  0  0  0  0  0  0  0  0  0  0  0
   26.4956   50.6997   37.7088 C   0  0  0  0  0  0  0  0  0  0  0  0
   27.8828   50.1085   37.4825 C   0  0  0  0  0  0  0  0  0  0  0  0
   28.4427   49.5734   38.7957 C   0  0  0  0  0  0  0  0  0  0  0  0
   29.8486   49.0267   38.5731 C   0  0  0  0  0  0  0  0  0  0  0  0
   30.4042   48.4410   39.7809 N   0  0  0  0  0  0  0  0  0  0  0  0
   30.1023   47.0539   40.1083 C   0  0  0  0  0  0  0  0  0  0  0  0
   31.1906   46.0550   39.7208 C   0  0  0  0  0  0  0  0  0  0  0  0
   31.3662   46.0098   38.2020 C   0  0  0  0  0  0  0  0  0  0  0  0
   32.3931   45.0466   37.8431 N   0  0  0  0  0  0  0  0  0  0  0  0
  1  2  1  0  0  0  0
  2  3  1  0  0  0  0
  3  4  1  0  0  0  0
  4  5  1  0  0  0  0
  5  6  1  0  0  0  0
  6  7  1  0  0  0  0
  7  8  1  0  0  0  0
  8  9  1  0  0  0  0
  9 10  1  0  0  0  0
 10 11  1  0  0  0  0
 11 12  1  0  0  0  0
 12 13  1  0  0  0  0
 13 14  1  0  0  0  0
M  END
>  <CHROM.1>
-62.22216565,-178.29110614,-152.42248224,160.20743802,-62.62170125,-178.07875761
-177.07475314,85.21920590,98.71311316,-64.45980493,-179.38610709,27.63406397
48.65786979,39.05025308,2.89782175,0.38412295,-0.71702499

>  <Name>
ligand

>  <RI>
0

>  <Rbt.Current_Directory>
/home/itssahil/PROJECTS/Mol_Feturizer/New_Systems/rnas/4P5J

>  <Rbt.Executable>
rbdock ($Id: //depot/dev/client3/rdock/2013.1/src/exe/rbdock.cxx#4 $)

>  <Rbt.Library>
libRbt.so (2013.1, Build901 2013/11/27)

>  <Rbt.Parameter_File>
/export/apps/rDock/src/rDock_2013.1_src/data/scripts/dock_solv.prm

>  <Rbt.Receptor>
prm/pocket_docking_5.prm

>  <SCORE>
-4.66069

>  <SCORE.INTER>
3.85906

>  <SCORE.INTER.CONST>
1

>  <SCORE.INTER.POLAR>
0

>  <SCORE.INTER.ROT>
11

>  <SCORE.INTER.SOLV>
6.42946

>  <SCORE.INTER.VDW>
-10.5038

>  <SCORE.INTER.norm>
0.275647

>  <SCORE.INTRA>
-8.51975

>  <SCORE.INTRA.DIHEDRAL>
-15.2093

>  <SCORE.INTRA.DIHEDRAL.0>
17.5233

>  <SCORE.INTRA.POLAR>
0

>  <SCORE.INTRA.POLAR.0>
0

>  <SCORE.INTRA.REPUL>
0

>  <SCORE.INTRA.REPUL.0>
0

>  <SCORE.INTRA.SOLV>
-1.17092

>  <SCORE.INTRA.SOLV.lig_0>
-46.1043

>  <SCORE.INTRA.VDW>
-0.329631

>  <SCORE.INTRA.VDW.0>
-0.545445

>  <SCORE.INTRA.norm>
-0.608554

>  <SCORE.RESTR>
0

>  <SCORE.RESTR.CAVITY>
0

>  <SCORE.RESTR.norm>
0

>  <SCORE.SYSTEM>
0

>  <SCORE.SYSTEM.CONST>
0

>  <SCORE.SYSTEM.DIHEDRAL>
0

>  <SCORE.SYSTEM.SOLV>
0

>  <SCORE.SYSTEM.norm>
0

>  <SCORE.heavy>
14

>  <SCORE.norm>
-0.332906

>  <RMSD>
3.295

$$$$
ligand
 OpenBabel11021811513D
libRbt.so/2013.1/901 2013/11/27
 14 13  0  0  0  0  0  0  0  0999 V2000
   32.0791   44.6841   36.8026 N   0  0  0  0  0  0  0  0  0  0  0  0
   32.5677   43.3311   37.0144 C   0  0  0  0  0  0  0  0  0  0  0  0
   32.2833   42.8824   38.4439 C   0  0  0  0  0  0  0  0  0  0  0  0
   33.0657   43.7197   39.4494 C   0  0  0  0  0  0  0  0  0  0  0  0
   32.6327   45.1133   39.4868 N   0  0  0  0  0  0  0  0  0  0  0  0
   31.5638   45.5333   40.3772 C   0  0  0  0  0  0  0  0  0  0  0  0
   30.5547   46.4525   39.6978 C   0  0  0  0  0  0  0  0  0  0  0  0
   31.2373   47.7434   39.2594 C   0  0  0  0  0  0  0  0  0  0  0  0
   30.2342   48.6403   38.5421 C   0  0  0  0  0  0  0  0  0  0  0  0
   29.1618   49.0725   39.4217 N   0  0  0  0  0  0  0  0  0  0  0  0
   27.8998   49.5185   38.8464 C   0  0  0  0  0  0  0  0  0  0  0  0
   26.7711   49.7131   39.8566 C   0  0  0  0  0  0  0  0  0  0  0  0
   25.4585   50.0419   39.1432 C   0  0  0  0  0  0  0  0  0  0  0  0
   24.4119   50.3099   40.1148 N   0  0  0  0  0  0  0  0  0  0  0  0
  1  2  1  0  0  0  0
  2  3  1  0  0  0  0
  3  4  1  0  0  0  0
  4  5  1  0  0  0  0
  5  6  1  0  0  0  0
  6  7  1  0  0  0  0
  7  8  1  0  0  0  0
  8  9  1  0  0  0  0
  9 10  1  0  0  0  0
 10 11  1  0  0  0  0
 11 12  1  0  0  0  0
 12 13  1  0  0  0  0
 13 14  1  0  0  0  0
M  END
>  <CHROM.1>
-65.11069152,66.54597999,89.05989853,-135.20433807,-62.96109337,178.24225353
64.16387658,-158.50947113,169.74448763,-174.25971246,-176.33295768,29.99457515
46.91098207,39.03261679,0.60026764,0.50800702,-2.34167396

>  <Name>
ligand

>  <RI>
0

>  <Rbt.Current_Directory>
/home/itssahil/PROJECTS/Mol_Feturizer/New_Systems/rnas/4P5J

>  <Rbt.Executable>
rbdock ($Id: //depot/dev/client3/rdock/2013.1/src/exe/rbdock.cxx#4 $)

>  <Rbt.Library>
libRbt.so (2013.1, Build901 2013/11/27)

>  <Rbt.Parameter_File>
/export/apps/rDock/src/rDock_2013.1_src/data/scripts/dock_solv.prm

>  <Rbt.Receptor>
prm/pocket_docking_3.prm

>  <SCORE>
1.02177

>  <SCORE.INTER>
7.94705

>  <SCORE.INTER.CONST>
1

>  <SCORE.INTER.POLAR>
0

>  <SCORE.INTER.ROT>
11

>  <SCORE.INTER.SOLV>
5.44997

>  <SCORE.INTER.VDW>
-7.45196

>  <SCORE.INTER.norm>
0.567646

>  <SCORE.INTRA>
-6.93027

>  <SCORE.INTRA.DIHEDRAL>
-14.9626

>  <SCORE.INTRA.DIHEDRAL.0>
17.5233

>  <SCORE.INTRA.POLAR>
0

>  <SCORE.INTRA.POLAR.0>
0

>  <SCORE.INTRA.REPUL>
0

>  <SCORE.INTRA.REPUL.0>
0

>  <SCORE.INTRA.SOLV>
2.45276

>  <SCORE.INTRA.SOLV.lig_0>
-46.1043

>  <SCORE.INTRA.VDW>
-0.675329

>  <SCORE.INTRA.VDW.0>
-0.545445

>  <SCORE.INTRA.norm>
-0.495019

>  <SCORE.RESTR>
0.00499127

>  <SCORE.RESTR.CAVITY>
0.00499127

>  <SCORE.RESTR.norm>
0.000356519

>  <SCORE.SYSTEM>
0

>  <SCORE.SYSTEM.CONST>
0

>  <SCORE.SYSTEM.DIHEDRAL>
0

>  <SCORE.SYSTEM.SOLV>
0

>  <SCORE.SYSTEM.norm>
0

>  <SCORE.heavy>
14

>  <SCORE.norm>
0.0729837

>  <RMSD>
3.303

$$$$
ligand
 OpenBabel11021811513D
libRbt.so/2013.1/901 2013/11/27
 14 13  0  0  0  0  0  0  0  0999 V2000
   34.3072   44.0015   35.8829 N   0  0  0  0  0  0  0  0  0  0  0  0
   33.5757   44.1209   37.1338 C   0  0  0  0  0  0  0  0  0  0  0  0
   32.1725   44.6608   36.8781 C   0  0  0  0  0  0  0  0  0  0  0  0
   31.3804   44.7706   38.1761 C   0  0  0  0  0  0  0  0  0  0  0  0
   31.9751   45.7050   39.1270 N   0  0  0  0  0  0  0  0  0  0  0  0
   31.4166   45.8619   40.4594 C   0  0  0  0  0  0  0  0  0  0  0  0
   30.0757   46.5877   40.4571 C   0  0  0  0  0  0  0  0  0  0  0  0
   30.1951   47.9022   39.6940 C   0  0  0  0  0  0  0  0  0  0  0  0
   28.8539   48.6276   39.7019 C   0  0  0  0  0  0  0  0  0  0  0  0
   28.8394   49.7586   38.7902 N   0  0  0  0  0  0  0  0  0  0  0  0
   27.6326   50.5658   38.6698 C   0  0  0  0  0  0  0  0  0  0  0  0
   27.4461   51.2363   37.3103 C   0  0  0  0  0  0  0  0  0  0  0  0
   26.2124   52.1405   37.3189 C   0  0  0  0  0  0  0  0  0  0  0  0
   25.0142   51.3539   37.5570 N   0  0  0  0  0  0  0  0  0  0  0  0
  1  2  1  0  0  0  0
  2  3  1  0  0  0  0
  3  4  1  0  0  0  0
  4  5  1  0  0  0  0
  5  6  1  0  0  0  0
  6  7  1  0  0  0  0
  7  8  1  0  0  0  0
  8  9  1  0  0  0  0
  9 10  1  0  0  0  0
 10 11  1  0  0  0  0
 11 12  1  0  0  0  0
 12 13  1  0  0  0  0
 13 14  1  0  0  0  0
M  END
>  <CHROM.1>
179.01485835,62.41706765,-175.18910045,-71.44352961,-52.37052216,-179.66428288
-169.46872962,179.93025914,-151.63731597,-175.74457821,-62.52851153,29.93544181
47.66380031,38.36854851,-0.07620989,0.81764528,-1.42058468

>  <Name>
ligand

>  <RI>
0

>  <Rbt.Current_Directory>
/home/itssahil/PROJECTS/Mol_Feturizer/New_Systems/rnas/4P5J

>  <Rbt.Executable>
rbdock ($Id: //depot/dev/client3/rdock/2013.1/src/exe/rbdock.cxx#4 $)

>  <Rbt.Library>
libRbt.so (2013.1, Build901 2013/11/27)

>  <Rbt.Parameter_File>
/export/apps/rDock/src/rDock_2013.1_src/data/scripts/dock_solv.prm

>  <Rbt.Receptor>
prm/pocket_docking_4.prm

>  <SCORE>
-1.18985

>  <SCORE.INTER>
7.42142

>  <SCORE.INTER.CONST>
1

>  <SCORE.INTER.POLAR>
0

>  <SCORE.INTER.ROT>
11

>  <SCORE.INTER.SOLV>
4.90061

>  <SCORE.INTER.VDW>
-7.61926

>  <SCORE.INTER.norm>
0.530102

>  <SCORE.INTRA>
-8.61128

>  <SCORE.INTRA.DIHEDRAL>
-16.1062

>  <SCORE.INTRA.DIHEDRAL.0>
17.5233

>  <SCORE.INTRA.POLAR>
0

>  <SCORE.INTRA.POLAR.0>
0

>  <SCORE.INTRA.REPUL>
0

>  <SCORE.INTRA.REPUL.0>
0

>  <SCORE.INTRA.SOLV>
-1.09722

>  <SCORE.INTRA.SOLV.lig_0>
-46.1043

>  <SCORE.INTRA.VDW>
-0.00956288

>  <SCORE.INTRA.VDW.0>
-0.545445

>  <SCORE.INTRA.norm>
-0.615091

>  <SCORE.RESTR>
0

>  <SCORE.RESTR.CAVITY>
0

>  <SCORE.RESTR.norm>
0

>  <SCORE.SYSTEM>
0

>  <SCORE.SYSTEM.CONST>
0

>  <SCORE.SYSTEM.DIHEDRAL>
0

>  <SCORE.SYSTEM.SOLV>
0

>  <SCORE.SYSTEM.norm>
0

>  <SCORE.heavy>
14

>  <SCORE.norm>
-0.0849894

>  <RMSD>
3.316

$$$$
ligand
 OpenBabel11021811513D
libRbt.so/2013.1/901 2013/11/27
 14 13  0  0  0  0  0  0  0  0999 V2000
   25.1469   52.4314   36.4011 N   0  0  0  0  0  0  0  0  0  0  0  0
   24.4852   51.1771   36.7217 C   0  0  0  0  0  0  0  0  0  0  0  0
   25.5114   50.1252   37.1296 C   0  0  0  0  0  0  0  0  0  0  0  0
   26.2140   50.5154   38.4251 C   0  0  0  0  0  0  0  0  0  0  0  0
   27.1819   49.5168   38.8691 N   0  0  0  0  0  0  0  0  0  0  0  0
   28.0015   49.7515   40.0460 C   0  0  0  0  0  0  0  0  0  0  0  0
   28.7818   48.5154   40.4795 C   0  0  0  0  0  0  0  0  0  0  0  0
   29.8091   48.1467   39.4150 C   0  0  0  0  0  0  0  0  0  0  0  0
   30.4706   46.8203   39.7730 C   0  0  0  0  0  0  0  0  0  0  0  0
   31.4213   46.3936   38.7608 N   0  0  0  0  0  0  0  0  0  0  0  0
   31.7203   44.9755   38.6118 C   0  0  0  0  0  0  0  0  0  0  0  0
   31.1552   44.3334   37.3466 C   0  0  0  0  0  0  0  0  0  0  0  0
   31.4600   42.8347   37.3192 C   0  0  0  0  0  0  0  0  0  0  0  0
   32.8930   42.6149   37.2215 N   0  0  0  0  0  0  0  0  0  0  0  0
  1  2  1  0  0  0  0
  2  3  1  0  0  0  0
  3  4  1  0  0  0  0
  4  5  1  0  0  0  0
  5  6  1  0  0  0  0
  6  7  1  0  0  0  0
  7  8  1  0  0  0  0
  8  9  1  0  0  0  0
  9 10  1  0  0  0  0
 10 11  1  0  0  0  0
 11 12  1  0  0  0  0
 12 13  1  0  0  0  0
 13 14  1  0  0  0  0
M  END
>  <CHROM.1>
65.06905844,178.53699696,176.57489343,170.73134027,65.62844413,-173.31226490
177.63210651,-154.26726219,108.65372147,-177.06642202,-65.22758442,28.87503788
47.72512576,38.32306874,2.72136913,-0.75782361,0.94719228

>  <Name>
ligand

>  <RI>
0

>  <Rbt.Current_Directory>
/home/itssahil/PROJECTS/Mol_Feturizer/New_Systems/rnas/4P5J

>  <Rbt.Executable>
rbdock ($Id: //depot/dev/client3/rdock/2013.1/src/exe/rbdock.cxx#4 $)

>  <Rbt.Library>
libRbt.so (2013.1, Build901 2013/11/27)

>  <Rbt.Parameter_File>
/export/apps/rDock/src/rDock_2013.1_src/data/scripts/dock_solv.prm

>  <Rbt.Receptor>
prm/pocket_docking_7.prm

>  <SCORE>
-4.96259

>  <SCORE.INTER>
3.46922

>  <SCORE.INTER.CONST>
1

>  <SCORE.INTER.POLAR>
0

>  <SCORE.INTER.ROT>
11

>  <SCORE.INTER.SOLV>
7.65608

>  <SCORE.INTER.VDW>
-11.1725

>  <SCORE.INTER.norm>
0.247801

>  <SCORE.INTRA>
-8.43181

>  <SCORE.INTRA.DIHEDRAL>
-15.3143

>  <SCORE.INTRA.DIHEDRAL.0>
17.5233

>  <SCORE.INTRA.POLAR>
0

>  <SCORE.INTRA.POLAR.0>
0

>  <SCORE.INTRA.REPUL>
0

>  <SCORE.INTRA.REPUL.0>
0

>  <SCORE.INTRA.SOLV>
-0.791378

>  <SCORE.INTRA.SOLV.lig_0>
-46.1043

>  <SCORE.INTRA.VDW>
-0.378983

>  <SCORE.INTRA.VDW.0>
-0.545445

>  <SCORE.INTRA.norm>
-0.602272

>  <SCORE.RESTR>
0

>  <SCORE.RESTR.CAVITY>
0

>  <SCORE.RESTR.norm>
0

>  <SCORE.SYSTEM>
0

>  <SCORE.SYSTEM.CONST>
0

>  <SCORE.SYSTEM.DIHEDRAL>
0

>  <SCORE.SYSTEM.SOLV>
0

>  <SCORE.SYSTEM.norm>
0

>  <SCORE.heavy>
14

>  <SCORE.norm>
-0.354471

>  <RMSD>
3.344

$$$$
ligand
 OpenBabel11021811513D
libRbt.so/2013.1/901 2013/11/27
 14 13  0  0  0  0  0  0  0  0999 V2000
   22.7108   49.5983   41.5171 N   0  0  0  0  0  0  0  0  0  0  0  0
   23.0207   49.4483   40.1045 C   0  0  0  0  0  0  0  0  0  0  0  0
   24.3291   50.1570   39.7705 C   0  0  0  0  0  0  0  0  0  0  0  0
   24.6559   50.0380   38.2861 C   0  0  0  0  0  0  0  0  0  0  0  0
   25.9162   50.6823   37.9287 N   0  0  0  0  0  0  0  0  0  0  0  0
   27.1867   50.0670   38.2738 C   0  0  0  0  0  0  0  0  0  0  0  0
   28.2082   50.1458   37.1446 C   0  0  0  0  0  0  0  0  0  0  0  0
   29.4643   49.3685   37.5220 C   0  0  0  0  0  0  0  0  0  0  0  0
   30.4082   49.3002   36.3264 C   0  0  0  0  0  0  0  0  0  0  0  0
   31.5583   48.4516   36.5864 N   0  0  0  0  0  0  0  0  0  0  0  0
   32.0272   47.5433   35.5483 C   0  0  0  0  0  0  0  0  0  0  0  0
   32.7923   46.3259   36.0631 C   0  0  0  0  0  0  0  0  0  0  0  0
   31.8905   45.4502   36.9347 C   0  0  0  0  0  0  0  0  0  0  0  0
   32.6424   44.3256   37.4649 N   0  0  0  0  0  0  0  0  0  0  0  0
  1  2  1  0  0  0  0
  2  3  1  0  0  0  0
  3  4  1  0  0  0  0
  4  5  1  0  0  0  0
  5  6  1  0  0  0  0
  6  7  1  0  0  0  0
  7  8  1  0  0  0  0
  8  9  1  0  0  0  0
  9 10  1  0  0  0  0
 10 11  1  0  0  0  0
 11 12  1  0  0  0  0
 12 13  1  0  0  0  0
 13 14  1  0  0  0  0
M  END
>  <CHROM.1>
-178.71645001,-178.89094301,74.70548991,137.51130106,-174.59188445,172.84428780
-173.95843240,138.14543646,-155.01965731,62.96274118,-177.61390303,28.34368282
48.63601197,37.81913927,2.96909833,0.49929736,-0.46348089

>  <Name>
ligand

>  <RI>
0

>  <Rbt.Current_Directory>
/home/itssahil/PROJECTS/Mol_Feturizer/New_Systems/rnas/4P5J

>  <Rbt.Executable>
rbdock ($Id: //depot/dev/client3/rdock/2013.1/src/exe/rbdock.cxx#4 $)

>  <Rbt.Library>
libRbt.so (2013.1, Build901 2013/11/27)

>  <Rbt.Parameter_File>
/export/apps/rDock/src/rDock_2013.1_src/data/scripts/dock_solv.prm

>  <Rbt.Receptor>
prm/pocket_docking_5.prm

>  <SCORE>
-3.10735

>  <SCORE.INTER>
5.8423

>  <SCORE.INTER.CONST>
1

>  <SCORE.INTER.POLAR>
0

>  <SCORE.INTER.ROT>
11

>  <SCORE.INTER.SOLV>
3.95927

>  <SCORE.INTER.VDW>
-8.35822

>  <SCORE.INTER.norm>
0.417307

>  <SCORE.INTRA>
-8.94965

>  <SCORE.INTRA.DIHEDRAL>
-14.4713

>  <SCORE.INTRA.DIHEDRAL.0>
17.5233

>  <SCORE.INTRA.POLAR>
0

>  <SCORE.INTRA.POLAR.0>
0

>  <SCORE.INTRA.REPUL>
0

>  <SCORE.INTRA.REPUL.0>
0

>  <SCORE.INTRA.SOLV>
-2.36285

>  <SCORE.INTRA.SOLV.lig_0>
-46.1043

>  <SCORE.INTRA.VDW>
-0.532571

>  <SCORE.INTRA.VDW.0>
-0.545445

>  <SCORE.INTRA.norm>
-0.639261

>  <SCORE.RESTR>
0

>  <SCORE.RESTR.CAVITY>
0

>  <SCORE.RESTR.norm>
0

>  <SCORE.SYSTEM>
0

>  <SCORE.SYSTEM.CONST>
0

>  <SCORE.SYSTEM.DIHEDRAL>
0

>  <SCORE.SYSTEM.SOLV>
0

>  <SCORE.SYSTEM.norm>
0

>  <SCORE.heavy>
14

>  <SCORE.norm>
-0.221954

>  <RMSD>
3.346

$$$$
ligand
 OpenBabel11021811513D
libRbt.so/2013.1/901 2013/11/27
 14 13  0  0  0  0  0  0  0  0999 V2000
   23.2667   51.3207   40.2396 N   0  0  0  0  0  0  0  0  0  0  0  0
   23.5842   49.9281   39.9677 C   0  0  0  0  0  0  0  0  0  0  0  0
   24.8621   49.8271   39.1415 C   0  0  0  0  0  0  0  0  0  0  0  0
   24.6610   50.4033   37.7445 C   0  0  0  0  0  0  0  0  0  0  0  0
   25.8805   50.3859   36.9421 N   0  0  0  0  0  0  0  0  0  0  0  0
   26.9380   51.3538   37.1804 C   0  0  0  0  0  0  0  0  0  0  0  0
   28.0618   50.8001   38.0493 C   0  0  0  0  0  0  0  0  0  0  0  0
   28.8110   49.7050   37.2984 C   0  0  0  0  0  0  0  0  0  0  0  0
   29.8885   49.1072   38.1966 C   0  0  0  0  0  0  0  0  0  0  0  0
   29.3234   48.4314   39.3517 N   0  0  0  0  0  0  0  0  0  0  0  0
   30.1165   47.4322   40.0556 C   0  0  0  0  0  0  0  0  0  0  0  0
   29.3804   46.7111   41.1828 C   0  0  0  0  0  0  0  0  0  0  0  0
   30.2566   45.6100   41.7823 C   0  0  0  0  0  0  0  0  0  0  0  0
   31.4078   46.1920   42.4511 N   0  0  0  0  0  0  0  0  0  0  0  0
  1  2  1  0  0  0  0
  2  3  1  0  0  0  0
  3  4  1  0  0  0  0
  4  5  1  0  0  0  0
  5  6  1  0  0  0  0
  6  7  1  0  0  0  0
  7  8  1  0  0  0  0
  8  9  1  0  0  0  0
  9 10  1  0  0  0  0
 10 11  1  0  0  0  0
 11 12  1  0  0  0  0
 12 13  1  0  0  0  0
 13 14  1  0  0  0  0
M  END
>  <CHROM.1>
-66.76988959,177.17169177,-75.92145706,97.90397720,67.28398100,-177.19993294
64.46138914,158.98016823,-175.37602524,175.46202935,66.26003327,27.60280486
49.08627758,39.25576510,2.50111265,0.30814236,-0.96301886

>  <Name>
ligand

>  <RI>
0

>  <Rbt.Current_Directory>
/home/itssahil/PROJECTS/Mol_Feturizer/New_Systems/rnas/4P5J

>  <Rbt.Executable>
rbdock ($Id: //depot/dev/client3/rdock/2013.1/src/exe/rbdock.cxx#4 $)

>  <Rbt.Library>
libRbt.so (2013.1, Build901 2013/11/27)

>  <Rbt.Parameter_File>
/export/apps/rDock/src/rDock_2013.1_src/data/scripts/dock_solv.prm

>  <Rbt.Receptor>
prm/pocket_docking_4.prm

>  <SCORE>
-2.93955

>  <SCORE.INTER>
5.2346

>  <SCORE.INTER.CONST>
1

>  <SCORE.INTER.POLAR>
0

>  <SCORE.INTER.ROT>
11

>  <SCORE.INTER.SOLV>
7.14581

>  <SCORE.INTER.VDW>
-9.82554

>  <SCORE.INTER.norm>
0.3739

>  <SCORE.INTRA>
-8.17415

>  <SCORE.INTRA.DIHEDRAL>
-15.4073

>  <SCORE.INTRA.DIHEDRAL.0>
17.5233

>  <SCORE.INTRA.POLAR>
0

>  <SCORE.INTRA.POLAR.0>
0

>  <SCORE.INTRA.REPUL>
0

>  <SCORE.INTRA.REPUL.0>
0

>  <SCORE.INTRA.SOLV>
-0.418608

>  <SCORE.INTRA.SOLV.lig_0>
-46.1043

>  <SCORE.INTRA.VDW>
-0.261212

>  <SCORE.INTRA.VDW.0>
-0.545445

>  <SCORE.INTRA.norm>
-0.583868

>  <SCORE.RESTR>
0

>  <SCORE.RESTR.CAVITY>
0

>  <SCORE.RESTR.norm>
0

>  <SCORE.SYSTEM>
0

>  <SCORE.SYSTEM.CONST>
0

>  <SCORE.SYSTEM.DIHEDRAL>
0

>  <SCORE.SYSTEM.SOLV>
0

>  <SCORE.SYSTEM.norm>
0

>  <SCORE.heavy>
14

>  <SCORE.norm>
-0.209968

>  <RMSD>
3.371

$$$$
ligand
 OpenBabel11021811513D
libRbt.so/2013.1/901 2013/11/27
 14 13  0  0  0  0  0  0  0  0999 V2000
   32.2720   45.6512   38.8707 N   0  0  0  0  0  0  0  0  0  0  0  0
   32.1442   46.5654   37.7474 C   0  0  0  0  0  0  0  0  0  0  0  0
   31.1537   47.6769   38.0783 C   0  0  0  0  0  0  0  0  0  0  0  0
   31.0639   48.6899   36.9425 C   0  0  0  0  0  0  0  0  0  0  0  0
   30.1744   49.8068   37.2468 N   0  0  0  0  0  0  0  0  0  0  0  0
   28.7321   49.6297   37.2344 C   0  0  0  0  0  0  0  0  0  0  0  0
   27.9737   50.9386   37.4260 C   0  0  0  0  0  0  0  0  0  0  0  0
   26.4731   50.6717   37.4627 C   0  0  0  0  0  0  0  0  0  0  0  0
   26.1073   49.9557   38.7583 C   0  0  0  0  0  0  0  0  0  0  0  0
   24.6694   49.8512   38.9372 N   0  0  0  0  0  0  0  0  0  0  0  0
   24.1416   49.1247   40.0845 C   0  0  0  0  0  0  0  0  0  0  0  0
   23.9610   49.9671   41.3455 C   0  0  0  0  0  0  0  0  0  0  0  0
   25.3153   50.4348   41.8810 C   0  0  0  0  0  0  0  0  0  0  0  0
   25.1393   51.1627   43.1262 N   0  0  0  0  0  0  0  0  0  0  0  0
  1  2  1  0  0  0  0
  2  3  1  0  0  0  0
  3  4  1  0  0  0  0
  4  5  1  0  0  0  0
  5  6  1  0  0  0  0
  6  7  1  0  0  0  0
  7  8  1  0  0  0  0
  8  9  1  0  0  0  0
  9 10  1  0  0  0  0
 10 11  1  0  0  0  0
 11 12  1  0  0  0  0
 12 13  1  0  0  0  0
 13 14  1  0  0  0  0
M  END
>  <CHROM.1>
176.83307094,-177.17976722,-74.30620307,-173.72663925,-177.57335796,70.64918510
171.55829351,176.37289863,88.08874869,-66.04110331,-176.38803448,27.80854119
49.29482477,38.93841938,-0.20489236,-0.52510548,2.03586048

>  <Name>
ligand

>  <RI>
0

>  <Rbt.Current_Directory>
/home/itssahil/PROJECTS/Mol_Feturizer/New_Systems/rnas/4P5J

>  <Rbt.Executable>
rbdock ($Id: //depot/dev/client3/rdock/2013.1/src/exe/rbdock.cxx#4 $)

>  <Rbt.Library>
libRbt.so (2013.1, Build901 2013/11/27)

>  <Rbt.Parameter_File>
/export/apps/rDock/src/rDock_2013.1_src/data/scripts/dock_solv.prm

>  <Rbt.Receptor>
prm/pocket_docking_4.prm

>  <SCORE>
-0.694323

>  <SCORE.INTER>
7.85222

>  <SCORE.INTER.CONST>
1

>  <SCORE.INTER.POLAR>
0

>  <SCORE.INTER.ROT>
11

>  <SCORE.INTER.SOLV>
3.80338

>  <SCORE.INTER.VDW>
-6.96631

>  <SCORE.INTER.norm>
0.560873

>  <SCORE.INTRA>
-8.54654

>  <SCORE.INTRA.DIHEDRAL>
-15.7747

>  <SCORE.INTRA.DIHEDRAL.0>
17.5233

>  <SCORE.INTRA.POLAR>
0

>  <SCORE.INTRA.POLAR.0>
0

>  <SCORE.INTRA.REPUL>
0

>  <SCORE.INTRA.REPUL.0>
0

>  <SCORE.INTRA.SOLV>
-2.11981

>  <SCORE.INTRA.SOLV.lig_0>
-46.1043

>  <SCORE.INTRA.VDW>
0.40073

>  <SCORE.INTRA.VDW.0>
-0.545445

>  <SCORE.INTRA.norm>
-0.610467

>  <SCORE.RESTR>
0

>  <SCORE.RESTR.CAVITY>
0

>  <SCORE.RESTR.norm>
0

>  <SCORE.SYSTEM>
0

>  <SCORE.SYSTEM.CONST>
0

>  <SCORE.SYSTEM.DIHEDRAL>
0

>  <SCORE.SYSTEM.SOLV>
0

>  <SCORE.SYSTEM.norm>
0

>  <SCORE.heavy>
14

>  <SCORE.norm>
-0.0495945

>  <RMSD>
3.375

$$$$
ligand
 OpenBabel11021811513D
libRbt.so/2013.1/901 2013/11/27
 14 13  0  0  0  0  0  0  0  0999 V2000
   36.4900   44.6672   37.4637 N   0  0  0  0  0  0  0  0  0  0  0  0
   35.7737   45.9325   37.4586 C   0  0  0  0  0  0  0  0  0  0  0  0
   34.6968   45.9279   36.3787 C   0  0  0  0  0  0  0  0  0  0  0  0
   33.9290   47.2449   36.3618 C   0  0  0  0  0  0  0  0  0  0  0  0
   32.8668   47.2702   35.3606 N   0  0  0  0  0  0  0  0  0  0  0  0
   32.0125   48.4369   35.2163 C   0  0  0  0  0  0  0  0  0  0  0  0
   30.9857   48.5605   36.3366 C   0  0  0  0  0  0  0  0  0  0  0  0
   30.0375   49.7194   36.0500 C   0  0  0  0  0  0  0  0  0  0  0  0
   28.9418   49.7644   37.1095 C   0  0  0  0  0  0  0  0  0  0  0  0
   28.0160   50.8625   36.8912 N   0  0  0  0  0  0  0  0  0  0  0  0
   26.8334   50.9802   37.7339 C   0  0  0  0  0  0  0  0  0  0  0  0
   25.6117   50.2149   37.2299 C   0  0  0  0  0  0  0  0  0  0  0  0
   24.4248   50.4094   38.1751 C   0  0  0  0  0  0  0  0  0  0  0  0
   23.9851   51.7940   38.1515 N   0  0  0  0  0  0  0  0  0  0  0  0
  1  2  1  0  0  0  0
  2  3  1  0  0  0  0
  3  4  1  0  0  0  0
  4  5  1  0  0  0  0
  5  6  1  0  0  0  0
  6  7  1  0  0  0  0
  7  8  1  0  0  0  0
  8  9  1  0  0  0  0
  9 10  1  0  0  0  0
 10 11  1  0  0  0  0
 11 12  1  0  0  0  0
 12 13  1  0  0  0  0
 13 14  1  0  0  0  0
M  END
>  <CHROM.1>
179.71566612,-178.68826522,178.86167437,-74.62006661,-174.34313626,175.16998862
179.38693763,174.15909891,-88.19986879,-179.60663432,66.34352556,30.32892380
48.69893782,36.85119746,0.16706690,-0.45187673,2.14569320

>  <Name>
ligand

>  <RI>
0

>  <Rbt.Current_Directory>
/home/itssahil/PROJECTS/Mol_Feturizer/New_Systems/rnas/4P5J

>  <Rbt.Executable>
rbdock ($Id: //depot/dev/client3/rdock/2013.1/src/exe/rbdock.cxx#4 $)

>  <Rbt.Library>
libRbt.so (2013.1, Build901 2013/11/27)

>  <Rbt.Parameter_File>
/export/apps/rDock/src/rDock_2013.1_src/data/scripts/dock_solv.prm

>  <Rbt.Receptor>
prm/pocket_docking_4.prm

>  <SCORE>
-0.761696

>  <SCORE.INTER>
8.7255

>  <SCORE.INTER.CONST>
1

>  <SCORE.INTER.POLAR>
0

>  <SCORE.INTER.ROT>
11

>  <SCORE.INTER.SOLV>
3.79872

>  <SCORE.INTER.VDW>
-6.38257

>  <SCORE.INTER.norm>
0.62325

>  <SCORE.INTRA>
-9.4872

>  <SCORE.INTRA.DIHEDRAL>
-16.4063

>  <SCORE.INTRA.DIHEDRAL.0>
17.5233

>  <SCORE.INTRA.POLAR>
0

>  <SCORE.INTRA.POLAR.0>
0

>  <SCORE.INTRA.REPUL>
0

>  <SCORE.INTRA.REPUL.0>
0

>  <SCORE.INTRA.SOLV>
-1.96811

>  <SCORE.INTRA.SOLV.lig_0>
-46.1043

>  <SCORE.INTRA.VDW>
-0.300009

>  <SCORE.INTRA.VDW.0>
-0.545445

>  <SCORE.INTRA.norm>
-0.677657

>  <SCORE.RESTR>
0

>  <SCORE.RESTR.CAVITY>
0

>  <SCORE.RESTR.norm>
0

>  <SCORE.SYSTEM>
0

>  <SCORE.SYSTEM.CONST>
0

>  <SCORE.SYSTEM.DIHEDRAL>
0

>  <SCORE.SYSTEM.SOLV>
0

>  <SCORE.SYSTEM.norm>
0

>  <SCORE.heavy>
14

>  <SCORE.norm>
-0.0544068

>  <RMSD>
3.379

$$$$
ligand
 OpenBabel11021811513D
libRbt.so/2013.1/901 2013/11/27
 14 13  0  0  0  0  0  0  0  0999 V2000
   32.6645   41.3414   37.9120 N   0  0  0  0  0  0  0  0  0  0  0  0
   32.3677   42.3961   36.9563 C   0  0  0  0  0  0  0  0  0  0  0  0
   32.8890   43.7356   37.4660 C   0  0  0  0  0  0  0  0  0  0  0  0
   32.1523   44.1682   38.7287 C   0  0  0  0  0  0  0  0  0  0  0  0
   32.6109   45.4561   39.2407 N   0  0  0  0  0  0  0  0  0  0  0  0
   32.2918   46.6882   38.5393 C   0  0  0  0  0  0  0  0  0  0  0  0
   30.8567   47.1472   38.7729 C   0  0  0  0  0  0  0  0  0  0  0  0
   30.6567   47.5089   40.2404 C   0  0  0  0  0  0  0  0  0  0  0  0
   29.2111   47.9333   40.4753 C   0  0  0  0  0  0  0  0  0  0  0  0
   28.8365   49.0729   39.6559 N   0  0  0  0  0  0  0  0  0  0  0  0
   27.4262   49.3575   39.4268 C   0  0  0  0  0  0  0  0  0  0  0  0
   27.1457   50.2862   38.2474 C   0  0  0  0  0  0  0  0  0  0  0  0
   25.6408   50.4963   38.0714 C   0  0  0  0  0  0  0  0  0  0  0  0
   25.3871   51.4326   36.9897 N   0  0  0  0  0  0  0  0  0  0  0  0
  1  2  1  0  0  0  0
  2  3  1  0  0  0  0
  3  4  1  0  0  0  0
  4  5  1  0  0  0  0
  5  6  1  0  0  0  0
  6  7  1  0  0  0  0
  7  8  1  0  0  0  0
  8  9  1  0  0  0  0
  9 10  1  0  0  0  0
 10 11  1  0  0  0  0
 11 12  1  0  0  0  0
 12 13  1  0  0  0  0
 13 14  1  0  0  0  0
M  END
>  <CHROM.1>
-65.29567403,-179.28854770,71.50827639,77.30994818,64.89639818,-178.57515345
-58.90870758,161.02145377,-162.51033699,178.70717857,177.19104172,30.00983707
46.93007640,38.62313485,0.61480253,0.65608757,-2.37586577

>  <Name>
ligand

>  <RI>
0

>  <Rbt.Current_Directory>
/home/itssahil/PROJECTS/Mol_Feturizer/New_Systems/rnas/4P5J

>  <Rbt.Executable>
rbdock ($Id: //depot/dev/client3/rdock/2013.1/src/exe/rbdock.cxx#4 $)

>  <Rbt.Library>
libRbt.so (2013.1, Build901 2013/11/27)

>  <Rbt.Parameter_File>
/export/apps/rDock/src/rDock_2013.1_src/data/scripts/dock_solv.prm

>  <Rbt.Receptor>
prm/pocket_docking_4.prm

>  <SCORE>
-1.43044

>  <SCORE.INTER>
7.29618

>  <SCORE.INTER.CONST>
1

>  <SCORE.INTER.POLAR>
0

>  <SCORE.INTER.ROT>
11

>  <SCORE.INTER.SOLV>
4.52536

>  <SCORE.INTER.VDW>
-7.57767

>  <SCORE.INTER.norm>
0.521156

>  <SCORE.INTRA>
-8.72662

>  <SCORE.INTRA.DIHEDRAL>
-16.4338

>  <SCORE.INTRA.DIHEDRAL.0>
17.5233

>  <SCORE.INTRA.POLAR>
0

>  <SCORE.INTRA.POLAR.0>
0

>  <SCORE.INTRA.REPUL>
0

>  <SCORE.INTRA.REPUL.0>
0

>  <SCORE.INTRA.SOLV>
-1.11249

>  <SCORE.INTRA.SOLV.lig_0>
-46.1043

>  <SCORE.INTRA.VDW>
0.0465122

>  <SCORE.INTRA.VDW.0>
-0.545445

>  <SCORE.INTRA.norm>
-0.62333

>  <SCORE.RESTR>
0

>  <SCORE.RESTR.CAVITY>
0

>  <SCORE.RESTR.norm>
0

>  <SCORE.SYSTEM>
0

>  <SCORE.SYSTEM.CONST>
0

>  <SCORE.SYSTEM.DIHEDRAL>
0

>  <SCORE.SYSTEM.SOLV>
0

>  <SCORE.SYSTEM.norm>
0

>  <SCORE.heavy>
14

>  <SCORE.norm>
-0.102174

>  <RMSD>
3.410

$$$$
ligand
 OpenBabel11021811513D
libRbt.so/2013.1/901 2013/11/27
 14 13  0  0  0  0  0  0  0  0999 V2000
   25.8584   54.6164   43.2269 N   0  0  0  0  0  0  0  0  0  0  0  0
   25.2717   53.6180   42.3476 C   0  0  0  0  0  0  0  0  0  0  0  0
   25.4911   52.2188   42.9132 C   0  0  0  0  0  0  0  0  0  0  0  0
   24.8581   51.1586   42.0190 C   0  0  0  0  0  0  0  0  0  0  0  0
   25.4521   51.1114   40.6863 N   0  0  0  0  0  0  0  0  0  0  0  0
   25.1714   50.0033   39.7890 C   0  0  0  0  0  0  0  0  0  0  0  0
   25.9686   50.0764   38.4913 C   0  0  0  0  0  0  0  0  0  0  0  0
   27.4608   49.9836   38.7895 C   0  0  0  0  0  0  0  0  0  0  0  0
   28.2549   50.1017   37.4931 C   0  0  0  0  0  0  0  0  0  0  0  0
   29.6878   50.0320   37.7222 N   0  0  0  0  0  0  0  0  0  0  0  0
   30.3297   48.7306   37.8521 C   0  0  0  0  0  0  0  0  0  0  0  0
   30.3434   48.1642   39.2703 C   0  0  0  0  0  0  0  0  0  0  0  0
   31.0012   46.7835   39.2941 C   0  0  0  0  0  0  0  0  0  0  0  0
   31.0521   46.2743   40.6540 N   0  0  0  0  0  0  0  0  0  0  0  0
  1  2  1  0  0  0  0
  2  3  1  0  0  0  0
  3  4  1  0  0  0  0
  4  5  1  0  0  0  0
  5  6  1  0  0  0  0
  6  7  1  0  0  0  0
  7  8  1  0  0  0  0
  8  9  1  0  0  0  0
  9 10  1  0  0  0  0
 10 11  1  0  0  0  0
 11 12  1  0  0  0  0
 12 13  1  0  0  0  0
 13 14  1  0  0  0  0
M  END
>  <CHROM.1>
178.85497645,62.94996272,167.68678916,-175.39669176,62.77181816,-178.21410904
179.45611173,82.86633245,-87.65333500,178.40456723,177.97890758,27.58563980
50.20507214,40.03896825,-2.57879777,0.69181653,-1.74841574

>  <Name>
ligand

>  <RI>
0

>  <Rbt.Current_Directory>
/home/itssahil/PROJECTS/Mol_Feturizer/New_Systems/rnas/4P5J

>  <Rbt.Executable>
rbdock ($Id: //depot/dev/client3/rdock/2013.1/src/exe/rbdock.cxx#4 $)

>  <Rbt.Library>
libRbt.so (2013.1, Build901 2013/11/27)

>  <Rbt.Parameter_File>
/export/apps/rDock/src/rDock_2013.1_src/data/scripts/dock_solv.prm

>  <Rbt.Receptor>
prm/pocket_docking_3.prm

>  <SCORE>
-0.569194

>  <SCORE.INTER>
9.0302

>  <SCORE.INTER.CONST>
1

>  <SCORE.INTER.POLAR>
0

>  <SCORE.INTER.ROT>
11

>  <SCORE.INTER.SOLV>
3.186

>  <SCORE.INTER.VDW>
-5.9752

>  <SCORE.INTER.norm>
0.645014

>  <SCORE.INTRA>
-9.59939

>  <SCORE.INTRA.DIHEDRAL>
-16.3716

>  <SCORE.INTRA.DIHEDRAL.0>
17.5233

>  <SCORE.INTRA.POLAR>
0

>  <SCORE.INTRA.POLAR.0>
0

>  <SCORE.INTRA.REPUL>
0

>  <SCORE.INTRA.REPUL.0>
0

>  <SCORE.INTRA.SOLV>
-1.96558

>  <SCORE.INTRA.SOLV.lig_0>
-46.1043

>  <SCORE.INTRA.VDW>
-0.430807

>  <SCORE.INTRA.VDW.0>
-0.545445

>  <SCORE.INTRA.norm>
-0.685671

>  <SCORE.RESTR>
0

>  <SCORE.RESTR.CAVITY>
0

>  <SCORE.RESTR.norm>
0

>  <SCORE.SYSTEM>
0

>  <SCORE.SYSTEM.CONST>
0

>  <SCORE.SYSTEM.DIHEDRAL>
0

>  <SCORE.SYSTEM.SOLV>
0

>  <SCORE.SYSTEM.norm>
0

>  <SCORE.heavy>
14

>  <SCORE.norm>
-0.0406567

>  <RMSD>
3.411

$$$$
ligand
 OpenBabel11021811513D
libRbt.so/2013.1/901 2013/11/27
 14 13  0  0  0  0  0  0  0  0999 V2000
   22.9307   53.3706   40.8230 N   0  0  0  0  0  0  0  0  0  0  0  0
   22.9324   52.3688   39.7692 C   0  0  0  0  0  0  0  0  0  0  0  0
   23.8816   52.7798   38.6485 C   0  0  0  0  0  0  0  0  0  0  0  0
   23.9153   51.7299   37.5435 C   0  0  0  0  0  0  0  0  0  0  0  0
   24.3138   50.4108   38.0255 N   0  0  0  0  0  0  0  0  0  0  0  0
   25.6348   50.1970   38.5920 C   0  0  0  0  0  0  0  0  0  0  0  0
   26.7271   50.1147   37.5314 C   0  0  0  0  0  0  0  0  0  0  0  0
   28.0616   49.7685   38.1823 C   0  0  0  0  0  0  0  0  0  0  0  0
   29.1421   49.6486   37.1131 C   0  0  0  0  0  0  0  0  0  0  0  0
   30.3677   49.0716   37.6376 N   0  0  0  0  0  0  0  0  0  0  0  0
   31.3284   48.4746   36.7193 C   0  0  0  0  0  0  0  0  0  0  0  0
   32.3452   47.5431   37.3757 C   0  0  0  0  0  0  0  0  0  0  0  0
   31.6426   46.3540   38.0330 C   0  0  0  0  0  0  0  0  0  0  0  0
   32.6167   45.4835   38.6691 N   0  0  0  0  0  0  0  0  0  0  0  0
  1  2  1  0  0  0  0
  2  3  1  0  0  0  0
  3  4  1  0  0  0  0
  4  5  1  0  0  0  0
  5  6  1  0  0  0  0
  6  7  1  0  0  0  0
  7  8  1  0  0  0  0
  8  9  1  0  0  0  0
  9 10  1  0  0  0  0
 10 11  1  0  0  0  0
 11 12  1  0  0  0  0
 12 13  1  0  0  0  0
 13 14  1  0  0  0  0
M  END
>  <CHROM.1>
179.05129591,-57.89668117,-63.03066407,-76.65002523,-175.03480195,178.40793447
-168.88312076,159.66573484,-162.31101861,61.71302468,-179.26233991,27.56000124
49.80835048,38.18997812,3.05568059,0.56255787,-1.13654904

>  <Name>
ligand

>  <RI>
0

>  <Rbt.Current_Directory>
/home/itssahil/PROJECTS/Mol_Feturizer/New_Systems/rnas/4P5J

>  <Rbt.Executable>
rbdock ($Id: //depot/dev/client3/rdock/2013.1/src/exe/rbdock.cxx#4 $)

>  <Rbt.Library>
libRbt.so (2013.1, Build901 2013/11/27)

>  <Rbt.Parameter_File>
/export/apps/rDock/src/rDock_2013.1_src/data/scripts/dock_solv.prm

>  <Rbt.Receptor>
prm/pocket_docking_4.prm

>  <SCORE>
-2.57871

>  <SCORE.INTER>
6.46044

>  <SCORE.INTER.CONST>
1

>  <SCORE.INTER.POLAR>
0

>  <SCORE.INTER.ROT>
11

>  <SCORE.INTER.SOLV>
4.52584

>  <SCORE.INTER.VDW>
-8.13499

>  <SCORE.INTER.norm>
0.46146

>  <SCORE.INTRA>
-9.03915

>  <SCORE.INTRA.DIHEDRAL>
-16.162

>  <SCORE.INTRA.DIHEDRAL.0>
17.5233

>  <SCORE.INTRA.POLAR>
0

>  <SCORE.INTRA.POLAR.0>
0

>  <SCORE.INTRA.REPUL>
0

>  <SCORE.INTRA.REPUL.0>
0

>  <SCORE.INTRA.SOLV>
-1.91594

>  <SCORE.INTRA.SOLV.lig_0>
-46.1043

>  <SCORE.INTRA.VDW>
-0.000157572

>  <SCORE.INTRA.VDW.0>
-0.545445

>  <SCORE.INTRA.norm>
-0.645654

>  <SCORE.RESTR>
0

>  <SCORE.RESTR.CAVITY>
0

>  <SCORE.RESTR.norm>
0

>  <SCORE.SYSTEM>
0

>  <SCORE.SYSTEM.CONST>
0

>  <SCORE.SYSTEM.DIHEDRAL>
0

>  <SCORE.SYSTEM.SOLV>
0

>  <SCORE.SYSTEM.norm>
0

>  <SCORE.heavy>
14

>  <SCORE.norm>
-0.184194

>  <RMSD>
3.412

$$$$
ligand
 OpenBabel11021811513D
libRbt.so/2013.1/901 2013/11/27
 14 13  0  0  0  0  0  0  0  0999 V2000
   24.2055   50.9762   37.5537 N   0  0  0  0  0  0  0  0  0  0  0  0
   25.3990   50.2201   37.2103 C   0  0  0  0  0  0  0  0  0  0  0  0
   26.5413   50.5736   38.1568 C   0  0  0  0  0  0  0  0  0  0  0  0
   27.8234   49.8462   37.7677 C   0  0  0  0  0  0  0  0  0  0  0  0
   28.9526   50.1859   38.6283 N   0  0  0  0  0  0  0  0  0  0  0  0
   29.1418   49.5129   39.9023 C   0  0  0  0  0  0  0  0  0  0  0  0
   29.5471   48.0514   39.7448 C   0  0  0  0  0  0  0  0  0  0  0  0
   29.8626   47.4475   41.1087 C   0  0  0  0  0  0  0  0  0  0  0  0
   30.2851   45.9917   40.9436 C   0  0  0  0  0  0  0  0  0  0  0  0
   31.4760   45.8585   40.1225 N   0  0  0  0  0  0  0  0  0  0  0  0
   31.3459   45.4267   38.7371 C   0  0  0  0  0  0  0  0  0  0  0  0
   32.6556   45.3965   37.9522 C   0  0  0  0  0  0  0  0  0  0  0  0
   32.4188   44.8987   36.5253 C   0  0  0  0  0  0  0  0  0  0  0  0
   31.9720   43.5162   36.5430 N   0  0  0  0  0  0  0  0  0  0  0  0
  1  2  1  0  0  0  0
  2  3  1  0  0  0  0
  3  4  1  0  0  0  0
  4  5  1  0  0  0  0
  5  6  1  0  0  0  0
  6  7  1  0  0  0  0
  7  8  1  0  0  0  0
  8  9  1  0  0  0  0
  9 10  1  0  0  0  0
 10 11  1  0  0  0  0
 11 12  1  0  0  0  0
 12 13  1  0  0  0  0
 13 14  1  0  0  0  0
M  END
>  <CHROM.1>
-176.98939577,178.42591609,83.36224582,69.62549401,174.39053182,-179.25208760
60.67819457,-102.62827839,176.82785302,178.58959716,-64.83728713,29.40201958
47.70732762,38.63561780,2.96084190,-0.74249114,1.26359546

>  <Name>
ligand

>  <RI>
0

>  <Rbt.Current_Directory>
/home/itssahil/PROJECTS/Mol_Feturizer/New_Systems/rnas/4P5J

>  <Rbt.Executable>
rbdock ($Id: //depot/dev/client3/rdock/2013.1/src/exe/rbdock.cxx#4 $)

>  <Rbt.Library>
libRbt.so (2013.1, Build901 2013/11/27)

>  <Rbt.Parameter_File>
/export/apps/rDock/src/rDock_2013.1_src/data/scripts/dock_solv.prm

>  <Rbt.Receptor>
prm/pocket_docking_4.prm

>  <SCORE>
-3.19656

>  <SCORE.INTER>
5.4075

>  <SCORE.INTER.CONST>
1

>  <SCORE.INTER.POLAR>
0

>  <SCORE.INTER.ROT>
11

>  <SCORE.INTER.SOLV>
7.80175

>  <SCORE.INTER.VDW>
-9.92891

>  <SCORE.INTER.norm>
0.38625

>  <SCORE.INTRA>
-8.60406

>  <SCORE.INTRA.DIHEDRAL>
-15.8149

>  <SCORE.INTRA.DIHEDRAL.0>
17.5233

>  <SCORE.INTRA.POLAR>
0

>  <SCORE.INTRA.POLAR.0>
0

>  <SCORE.INTRA.REPUL>
0

>  <SCORE.INTRA.REPUL.0>
0

>  <SCORE.INTRA.SOLV>
-1.49534

>  <SCORE.INTRA.SOLV.lig_0>
-46.1043

>  <SCORE.INTRA.VDW>
0.0510523

>  <SCORE.INTRA.VDW.0>
-0.545445

>  <SCORE.INTRA.norm>
-0.614576

>  <SCORE.RESTR>
0

>  <SCORE.RESTR.CAVITY>
0

>  <SCORE.RESTR.norm>
0

>  <SCORE.SYSTEM>
0

>  <SCORE.SYSTEM.CONST>
0

>  <SCORE.SYSTEM.DIHEDRAL>
0

>  <SCORE.SYSTEM.SOLV>
0

>  <SCORE.SYSTEM.norm>
0

>  <SCORE.heavy>
14

>  <SCORE.norm>
-0.228326

>  <RMSD>
3.421

$$$$
ligand
 OpenBabel11021811513D
libRbt.so/2013.1/901 2013/11/27
 14 13  0  0  0  0  0  0  0  0999 V2000
   24.4438   53.3728   35.9592 N   0  0  0  0  0  0  0  0  0  0  0  0
   24.7220   52.3886   36.9926 C   0  0  0  0  0  0  0  0  0  0  0  0
   25.1960   51.0814   36.3662 C   0  0  0  0  0  0  0  0  0  0  0  0
   25.5547   50.0567   37.4365 C   0  0  0  0  0  0  0  0  0  0  0  0
   26.7197   50.4445   38.2262 N   0  0  0  0  0  0  0  0  0  0  0  0
   27.1518   49.6371   39.3546 C   0  0  0  0  0  0  0  0  0  0  0  0
   28.5763   49.1165   39.1985 C   0  0  0  0  0  0  0  0  0  0  0  0
   28.9483   48.2471   40.3944 C   0  0  0  0  0  0  0  0  0  0  0  0
   30.3375   47.6529   40.1888 C   0  0  0  0  0  0  0  0  0  0  0  0
   30.3843   46.7566   39.0464 N   0  0  0  0  0  0  0  0  0  0  0  0
   31.4264   45.7409   38.9756 C   0  0  0  0  0  0  0  0  0  0  0  0
   31.3359   44.8170   37.7629 C   0  0  0  0  0  0  0  0  0  0  0  0
   32.4246   43.7440   37.8190 C   0  0  0  0  0  0  0  0  0  0  0  0
   32.3323   42.8732   36.6595 N   0  0  0  0  0  0  0  0  0  0  0  0
  1  2  1  0  0  0  0
  2  3  1  0  0  0  0
  3  4  1  0  0  0  0
  4  5  1  0  0  0  0
  5  6  1  0  0  0  0
  6  7  1  0  0  0  0
  7  8  1  0  0  0  0
  8  9  1  0  0  0  0
  9 10  1  0  0  0  0
 10 11  1  0  0  0  0
 11 12  1  0  0  0  0
 12 13  1  0  0  0  0
 13 14  1  0  0  0  0
M  END
>  <CHROM.1>
177.37981393,-66.52476018,175.59183284,120.43504030,-178.34673966,176.19212536
-63.83850974,-157.40767371,177.28553218,-176.98644793,-179.83367301,28.53957924
48.28062177,38.17031192,2.94321327,-0.81896579,1.15429941

>  <Name>
ligand

>  <RI>
0

>  <Rbt.Current_Directory>
/home/itssahil/PROJECTS/Mol_Feturizer/New_Systems/rnas/4P5J

>  <Rbt.Executable>
rbdock ($Id: //depot/dev/client3/rdock/2013.1/src/exe/rbdock.cxx#4 $)

>  <Rbt.Library>
libRbt.so (2013.1, Build901 2013/11/27)

>  <Rbt.Parameter_File>
/export/apps/rDock/src/rDock_2013.1_src/data/scripts/dock_solv.prm

>  <Rbt.Receptor>
prm/pocket_docking_5.prm

>  <SCORE>
-5.35432

>  <SCORE.INTER>
4.02704

>  <SCORE.INTER.CONST>
1

>  <SCORE.INTER.POLAR>
0

>  <SCORE.INTER.ROT>
11

>  <SCORE.INTER.SOLV>
6.75059

>  <SCORE.INTER.VDW>
-10.4988

>  <SCORE.INTER.norm>
0.287645

>  <SCORE.INTRA>
-9.38136

>  <SCORE.INTRA.DIHEDRAL>
-15.5821

>  <SCORE.INTRA.DIHEDRAL.0>
17.5233

>  <SCORE.INTRA.POLAR>
0

>  <SCORE.INTRA.POLAR.0>
0

>  <SCORE.INTRA.REPUL>
0

>  <SCORE.INTRA.REPUL.0>
0

>  <SCORE.INTRA.SOLV>
-1.94807

>  <SCORE.INTRA.SOLV.lig_0>
-46.1043

>  <SCORE.INTRA.VDW>
-0.616293

>  <SCORE.INTRA.VDW.0>
-0.545445

>  <SCORE.INTRA.norm>
-0.670097

>  <SCORE.RESTR>
0

>  <SCORE.RESTR.CAVITY>
0

>  <SCORE.RESTR.norm>
0

>  <SCORE.SYSTEM>
0

>  <SCORE.SYSTEM.CONST>
0

>  <SCORE.SYSTEM.DIHEDRAL>
0

>  <SCORE.SYSTEM.SOLV>
0

>  <SCORE.SYSTEM.norm>
0

>  <SCORE.heavy>
14

>  <SCORE.norm>
-0.382452

>  <RMSD>
3.444

$$$$
ligand
 OpenBabel11021811513D
libRbt.so/2013.1/901 2013/11/27
 14 13  0  0  0  0  0  0  0  0999 V2000
   24.4125   51.1025   36.9881 N   0  0  0  0  0  0  0  0  0  0  0  0
   24.8264   50.1823   38.0350 C   0  0  0  0  0  0  0  0  0  0  0  0
   26.2917   50.4092   38.3915 C   0  0  0  0  0  0  0  0  0  0  0  0
   26.7091   49.5472   39.5778 C   0  0  0  0  0  0  0  0  0  0  0  0
   28.0944   49.7691   39.9814 N   0  0  0  0  0  0  0  0  0  0  0  0
   29.1859   49.1303   39.2655 C   0  0  0  0  0  0  0  0  0  0  0  0
   29.6256   47.8182   39.9058 C   0  0  0  0  0  0  0  0  0  0  0  0
   30.6790   47.1406   39.0366 C   0  0  0  0  0  0  0  0  0  0  0  0
   31.0635   45.7962   39.6448 C   0  0  0  0  0  0  0  0  0  0  0  0
   31.8912   45.0080   38.7481 N   0  0  0  0  0  0  0  0  0  0  0  0
   31.3169   44.4897   37.5136 C   0  0  0  0  0  0  0  0  0  0  0  0
   31.9905   43.2287   36.9763 C   0  0  0  0  0  0  0  0  0  0  0  0
   31.7553   42.0473   37.9191 C   0  0  0  0  0  0  0  0  0  0  0  0
   32.3630   40.8436   37.3778 N   0  0  0  0  0  0  0  0  0  0  0  0
  1  2  1  0  0  0  0
  2  3  1  0  0  0  0
  3  4  1  0  0  0  0
  4  5  1  0  0  0  0
  5  6  1  0  0  0  0
  6  7  1  0  0  0  0
  7  8  1  0  0  0  0
  8  9  1  0  0  0  0
  9 10  1  0  0  0  0
 10 11  1  0  0  0  0
 11 12  1  0  0  0  0
 12 13  1  0  0  0  0
 13 14  1  0  0  0  0
M  END
>  <CHROM.1>
174.56978527,-177.99230422,-80.74941337,-94.42183162,174.75882040,-177.15293411
170.29398573,-67.53118422,-153.98217979,66.82356341,178.16752675,29.30042467
46.89386017,38.52591637,2.40618938,-0.57000142,0.62612886

>  <Name>
ligand

>  <RI>
0

>  <Rbt.Current_Directory>
/home/itssahil/PROJECTS/Mol_Feturizer/New_Systems/rnas/4P5J

>  <Rbt.Executable>
rbdock ($Id: //depot/dev/client3/rdock/2013.1/src/exe/rbdock.cxx#4 $)

>  <Rbt.Library>
libRbt.so (2013.1, Build901 2013/11/27)

>  <Rbt.Parameter_File>
/export/apps/rDock/src/rDock_2013.1_src/data/scripts/dock_solv.prm

>  <Rbt.Receptor>
prm/pocket_docking_5.prm

>  <SCORE>
-4.08004

>  <SCORE.INTER>
4.79474

>  <SCORE.INTER.CONST>
1

>  <SCORE.INTER.POLAR>
0

>  <SCORE.INTER.ROT>
11

>  <SCORE.INTER.SOLV>
8.64082

>  <SCORE.INTER.VDW>
-10.6171

>  <SCORE.INTER.norm>
0.342482

>  <SCORE.INTRA>
-8.87478

>  <SCORE.INTRA.DIHEDRAL>
-15.1441

>  <SCORE.INTRA.DIHEDRAL.0>
17.5233

>  <SCORE.INTRA.POLAR>
0

>  <SCORE.INTRA.POLAR.0>
0

>  <SCORE.INTRA.REPUL>
0

>  <SCORE.INTRA.REPUL.0>
0

>  <SCORE.INTRA.SOLV>
-2.41983

>  <SCORE.INTRA.SOLV.lig_0>
-46.1043

>  <SCORE.INTRA.VDW>
-0.092826

>  <SCORE.INTRA.VDW.0>
-0.545445

>  <SCORE.INTRA.norm>
-0.633913

>  <SCORE.RESTR>
0

>  <SCORE.RESTR.CAVITY>
0

>  <SCORE.RESTR.norm>
0

>  <SCORE.SYSTEM>
0

>  <SCORE.SYSTEM.CONST>
0

>  <SCORE.SYSTEM.DIHEDRAL>
0

>  <SCORE.SYSTEM.SOLV>
0

>  <SCORE.SYSTEM.norm>
0

>  <SCORE.heavy>
14

>  <SCORE.norm>
-0.291431

>  <RMSD>
3.473

$$$$
ligand
 OpenBabel11021811513D
libRbt.so/2013.1/901 2013/11/27
 14 13  0  0  0  0  0  0  0  0999 V2000
   30.9068   42.2315   35.9818 N   0  0  0  0  0  0  0  0  0  0  0  0
   31.5245   42.8271   37.1555 C   0  0  0  0  0  0  0  0  0  0  0  0
   31.1468   44.3007   37.2635 C   0  0  0  0  0  0  0  0  0  0  0  0
   31.8401   44.9608   38.4500 C   0  0  0  0  0  0  0  0  0  0  0  0
   31.4629   46.3606   38.6212 N   0  0  0  0  0  0  0  0  0  0  0  0
   30.4818   46.7465   39.6215 C   0  0  0  0  0  0  0  0  0  0  0  0
   29.8854   48.1259   39.3638 C   0  0  0  0  0  0  0  0  0  0  0  0
   28.8700   48.4665   40.4489 C   0  0  0  0  0  0  0  0  0  0  0  0
   28.2955   49.8570   40.2006 C   0  0  0  0  0  0  0  0  0  0  0  0
   27.5145   49.9145   38.9770 N   0  0  0  0  0  0  0  0  0  0  0  0
   26.0658   49.7765   39.0451 C   0  0  0  0  0  0  0  0  0  0  0  0
   25.2861   50.8447   38.2812 C   0  0  0  0  0  0  0  0  0  0  0  0
   25.5699   50.7512   36.7811 C   0  0  0  0  0  0  0  0  0  0  0  0
   24.8895   51.8221   36.0730 N   0  0  0  0  0  0  0  0  0  0  0  0
  1  2  1  0  0  0  0
  2  3  1  0  0  0  0
  3  4  1  0  0  0  0
  4  5  1  0  0  0  0
  5  6  1  0  0  0  0
  6  7  1  0  0  0  0
  7  8  1  0  0  0  0
  8  9  1  0  0  0  0
  9 10  1  0  0  0  0
 10 11  1  0  0  0  0
 11 12  1  0  0  0  0
 12 13  1  0  0  0  0
 13 14  1  0  0  0  0
M  END
>  <CHROM.1>
-177.20327328,-177.67718084,100.57291432,-161.27867154,-179.88143466,178.97652281
65.62373864,96.82647346,130.90250128,64.03136544,-176.48380205,28.83860103
47.64184877,38.30494059,0.58173619,0.73081741,-2.28144643

>  <Name>
ligand

>  <RI>
0

>  <Rbt.Current_Directory>
/home/itssahil/PROJECTS/Mol_Feturizer/New_Systems/rnas/4P5J

>  <Rbt.Executable>
rbdock ($Id: //depot/dev/client3/rdock/2013.1/src/exe/rbdock.cxx#4 $)

>  <Rbt.Library>
libRbt.so (2013.1, Build901 2013/11/27)

>  <Rbt.Parameter_File>
/export/apps/rDock/src/rDock_2013.1_src/data/scripts/dock_solv.prm

>  <Rbt.Receptor>
prm/pocket_docking_5.prm

>  <SCORE>
-3.66346

>  <SCORE.INTER>
4.97781

>  <SCORE.INTER.CONST>
1

>  <SCORE.INTER.POLAR>
0

>  <SCORE.INTER.ROT>
11

>  <SCORE.INTER.SOLV>
9.19402

>  <SCORE.INTER.VDW>
-10.6795

>  <SCORE.INTER.norm>
0.355558

>  <SCORE.INTRA>
-8.64127

>  <SCORE.INTRA.DIHEDRAL>
-14.1461

>  <SCORE.INTRA.DIHEDRAL.0>
17.5233

>  <SCORE.INTRA.POLAR>
0

>  <SCORE.INTRA.POLAR.0>
0

>  <SCORE.INTRA.REPUL>
0

>  <SCORE.INTRA.REPUL.0>
0

>  <SCORE.INTRA.SOLV>
-1.98885

>  <SCORE.INTRA.SOLV.lig_0>
-46.1043

>  <SCORE.INTRA.VDW>
-0.573812

>  <SCORE.INTRA.VDW.0>
-0.545445

>  <SCORE.INTRA.norm>
-0.617234

>  <SCORE.RESTR>
0

>  <SCORE.RESTR.CAVITY>
0

>  <SCORE.RESTR.norm>
0

>  <SCORE.SYSTEM>
0

>  <SCORE.SYSTEM.CONST>
0

>  <SCORE.SYSTEM.DIHEDRAL>
0

>  <SCORE.SYSTEM.SOLV>
0

>  <SCORE.SYSTEM.norm>
0

>  <SCORE.heavy>
14

>  <SCORE.norm>
-0.261676

>  <RMSD>
3.479

$$$$
ligand
 OpenBabel11021811513D
libRbt.so/2013.1/901 2013/11/27
 14 13  0  0  0  0  0  0  0  0999 V2000
   31.0083   42.5372   43.5596 N   0  0  0  0  0  0  0  0  0  0  0  0
   32.0286   43.0444   42.6564 C   0  0  0  0  0  0  0  0  0  0  0  0
   31.5488   44.3238   41.9792 C   0  0  0  0  0  0  0  0  0  0  0  0
   32.5738   44.8301   40.9705 C   0  0  0  0  0  0  0  0  0  0  0  0
   32.1403   46.0407   40.2794 N   0  0  0  0  0  0  0  0  0  0  0  0
   31.3927   45.9564   39.0361 C   0  0  0  0  0  0  0  0  0  0  0  0
   30.9357   47.3191   38.5270 C   0  0  0  0  0  0  0  0  0  0  0  0
   29.8641   47.8885   39.4500 C   0  0  0  0  0  0  0  0  0  0  0  0
   29.3828   49.2329   38.9150 C   0  0  0  0  0  0  0  0  0  0  0  0
   28.2935   49.7774   39.7070 N   0  0  0  0  0  0  0  0  0  0  0  0
   26.9181   49.4579   39.3483 C   0  0  0  0  0  0  0  0  0  0  0  0
   25.9003   49.6727   40.4664 C   0  0  0  0  0  0  0  0  0  0  0  0
   24.4937   49.2993   39.9955 C   0  0  0  0  0  0  0  0  0  0  0  0
   23.5354   49.4946   41.0701 N   0  0  0  0  0  0  0  0  0  0  0  0
  1  2  1  0  0  0  0
  2  3  1  0  0  0  0
  3  4  1  0  0  0  0
  4  5  1  0  0  0  0
  5  6  1  0  0  0  0
  6  7  1  0  0  0  0
  7  8  1  0  0  0  0
  8  9  1  0  0  0  0
  9 10  1  0  0  0  0
 10 11  1  0  0  0  0
 11 12  1  0  0  0  0
 12 13  1  0  0  0  0
 13 14  1  0  0  0  0
M  END
>  <CHROM.1>
-176.89101209,178.84216949,-90.18664182,175.41990628,-68.96717495,-178.41463848
175.99720003,-90.44893234,160.59027504,-179.52209237,179.43470764,29.28709428
47.06254026,40.42545498,0.65771728,-0.37053179,2.41035904

>  <Name>
ligand

>  <RI>
0

>  <Rbt.Current_Directory>
/home/itssahil/PROJECTS/Mol_Feturizer/New_Systems/rnas/4P5J

>  <Rbt.Executable>
rbdock ($Id: //depot/dev/client3/rdock/2013.1/src/exe/rbdock.cxx#4 $)

>  <Rbt.Library>
libRbt.so (2013.1, Build901 2013/11/27)

>  <Rbt.Parameter_File>
/export/apps/rDock/src/rDock_2013.1_src/data/scripts/dock_solv.prm

>  <Rbt.Receptor>
prm/pocket_docking_5.prm

>  <SCORE>
-1.84483

>  <SCORE.INTER>
7.72454

>  <SCORE.INTER.CONST>
1

>  <SCORE.INTER.POLAR>
0

>  <SCORE.INTER.ROT>
11

>  <SCORE.INTER.SOLV>
4.02946

>  <SCORE.INTER.VDW>
-7.1268

>  <SCORE.INTER.norm>
0.551753

>  <SCORE.INTRA>
-9.56937

>  <SCORE.INTRA.DIHEDRAL>
-15.5888

>  <SCORE.INTRA.DIHEDRAL.0>
17.5233

>  <SCORE.INTRA.POLAR>
0

>  <SCORE.INTRA.POLAR.0>
0

>  <SCORE.INTRA.REPUL>
0

>  <SCORE.INTRA.REPUL.0>
0

>  <SCORE.INTRA.SOLV>
-2.36374

>  <SCORE.INTRA.SOLV.lig_0>
-46.1043

>  <SCORE.INTRA.VDW>
-0.593087

>  <SCORE.INTRA.VDW.0>
-0.545445

>  <SCORE.INTRA.norm>
-0.683526

>  <SCORE.RESTR>
0

>  <SCORE.RESTR.CAVITY>
0

>  <SCORE.RESTR.norm>
0

>  <SCORE.SYSTEM>
0

>  <SCORE.SYSTEM.CONST>
0

>  <SCORE.SYSTEM.DIHEDRAL>
0

>  <SCORE.SYSTEM.SOLV>
0

>  <SCORE.SYSTEM.norm>
0

>  <SCORE.heavy>
14

>  <SCORE.norm>
-0.131774

>  <RMSD>
3.487

$$$$
ligand
 OpenBabel11021811513D
libRbt.so/2013.1/901 2013/11/27
 14 13  0  0  0  0  0  0  0  0999 V2000
   24.7809   51.5514   38.1367 N   0  0  0  0  0  0  0  0  0  0  0  0
   25.2357   50.3806   37.4044 C   0  0  0  0  0  0  0  0  0  0  0  0
   26.7408   50.2014   37.5727 C   0  0  0  0  0  0  0  0  0  0  0  0
   27.0918   49.8125   39.0044 C   0  0  0  0  0  0  0  0  0  0  0  0
   28.5287   49.6680   39.2176 N   0  0  0  0  0  0  0  0  0  0  0  0
   29.0388   49.0262   40.4175 C   0  0  0  0  0  0  0  0  0  0  0  0
   29.4585   47.5795   40.1818 C   0  0  0  0  0  0  0  0  0  0  0  0
   30.0168   46.9818   41.4685 C   0  0  0  0  0  0  0  0  0  0  0  0
   30.5237   45.5682   41.2039 C   0  0  0  0  0  0  0  0  0  0  0  0
   31.5950   45.5470   40.2230 N   0  0  0  0  0  0  0  0  0  0  0  0
   31.2907   45.2149   38.8374 C   0  0  0  0  0  0  0  0  0  0  0  0
   32.4324   45.4672   37.8550 C   0  0  0  0  0  0  0  0  0  0  0  0
   32.0201   45.0741   36.4354 C   0  0  0  0  0  0  0  0  0  0  0  0
   33.0926   45.3691   35.5005 N   0  0  0  0  0  0  0  0  0  0  0  0
  1  2  1  0  0  0  0
  2  3  1  0  0  0  0
  3  4  1  0  0  0  0
  4  5  1  0  0  0  0
  5  6  1  0  0  0  0
  6  7  1  0  0  0  0
  7  8  1  0  0  0  0
  8  9  1  0  0  0  0
  9 10  1  0  0  0  0
 10 11  1  0  0  0  0
 11 12  1  0  0  0  0
 12 13  1  0  0  0  0
 13 14  1  0  0  0  0
M  END
>  <CHROM.1>
68.46070295,-178.36947290,-166.48448402,100.50295561,178.47582848,-176.10560139
61.10035943,-98.70647951,169.47054132,179.37694263,177.65860798,29.41757643
47.67426641,38.81870605,-3.10752619,-0.71983225,1.64762066

>  <Name>
ligand

>  <RI>
0

>  <Rbt.Current_Directory>
/home/itssahil/PROJECTS/Mol_Feturizer/New_Systems/rnas/4P5J

>  <Rbt.Executable>
rbdock ($Id: //depot/dev/client3/rdock/2013.1/src/exe/rbdock.cxx#4 $)

>  <Rbt.Library>
libRbt.so (2013.1, Build901 2013/11/27)

>  <Rbt.Parameter_File>
/export/apps/rDock/src/rDock_2013.1_src/data/scripts/dock_solv.prm

>  <Rbt.Receptor>
prm/pocket_docking_4.prm

>  <SCORE>
-3.77389

>  <SCORE.INTER>
4.93298

>  <SCORE.INTER.CONST>
1

>  <SCORE.INTER.POLAR>
0

>  <SCORE.INTER.ROT>
11

>  <SCORE.INTER.SOLV>
6.85618

>  <SCORE.INTER.VDW>
-9.93007

>  <SCORE.INTER.norm>
0.352356

>  <SCORE.INTRA>
-8.70848

>  <SCORE.INTRA.DIHEDRAL>
-15.1372

>  <SCORE.INTRA.DIHEDRAL.0>
17.5233

>  <SCORE.INTRA.POLAR>
0

>  <SCORE.INTRA.POLAR.0>
0

>  <SCORE.INTRA.REPUL>
0

>  <SCORE.INTRA.REPUL.0>
0

>  <SCORE.INTRA.SOLV>
-1.55827

>  <SCORE.INTRA.SOLV.lig_0>
-46.1043

>  <SCORE.INTRA.VDW>
-0.360769

>  <SCORE.INTRA.VDW.0>
-0.545445

>  <SCORE.INTRA.norm>
-0.622035

>  <SCORE.RESTR>
0.0016078

>  <SCORE.RESTR.CAVITY>
0.0016078

>  <SCORE.RESTR.norm>
0.000114843

>  <SCORE.SYSTEM>
0

>  <SCORE.SYSTEM.CONST>
0

>  <SCORE.SYSTEM.DIHEDRAL>
0

>  <SCORE.SYSTEM.SOLV>
0

>  <SCORE.SYSTEM.norm>
0

>  <SCORE.heavy>
14

>  <SCORE.norm>
-0.269564

>  <RMSD>
3.542

$$$$
ligand
 OpenBabel11021811513D
libRbt.so/2013.1/901 2013/11/27
 14 13  0  0  0  0  0  0  0  0999 V2000
   23.8690   52.7663   35.4849 N   0  0  0  0  0  0  0  0  0  0  0  0
   24.4736   52.2433   36.6993 C   0  0  0  0  0  0  0  0  0  0  0  0
   24.9082   50.7959   36.4945 C   0  0  0  0  0  0  0  0  0  0  0  0
   25.5602   50.2339   37.7528 C   0  0  0  0  0  0  0  0  0  0  0  0
   26.8278   50.8830   38.0739 N   0  0  0  0  0  0  0  0  0  0  0  0
   27.5504   50.5379   39.2865 C   0  0  0  0  0  0  0  0  0  0  0  0
   28.2010   49.1607   39.2158 C   0  0  0  0  0  0  0  0  0  0  0  0
   28.9786   48.8844   40.4978 C   0  0  0  0  0  0  0  0  0  0  0  0
   29.5225   47.4601   40.4751 C   0  0  0  0  0  0  0  0  0  0  0  0
   30.4338   47.2412   39.3651 N   0  0  0  0  0  0  0  0  0  0  0  0
   31.1244   45.9638   39.2468 C   0  0  0  0  0  0  0  0  0  0  0  0
   31.7538   45.7026   37.8801 C   0  0  0  0  0  0  0  0  0  0  0  0
   32.8222   46.7519   37.5681 C   0  0  0  0  0  0  0  0  0  0  0  0
   33.4351   46.4774   36.2796 N   0  0  0  0  0  0  0  0  0  0  0  0
  1  2  1  0  0  0  0
  2  3  1  0  0  0  0
  3  4  1  0  0  0  0
  4  5  1  0  0  0  0
  5  6  1  0  0  0  0
  6  7  1  0  0  0  0
  7  8  1  0  0  0  0
  8  9  1  0  0  0  0
  9 10  1  0  0  0  0
 10 11  1  0  0  0  0
 11 12  1  0  0  0  0
 12 13  1  0  0  0  0
 13 14  1  0  0  0  0
M  END
>  <CHROM.1>
179.33044695,-66.36455220,176.01517250,72.44850074,178.09156243,174.96324955
61.01306301,175.50077327,164.57286003,61.81991934,178.74873579,28.53284686
48.93571627,38.16608416,-2.88371586,-0.60999981,1.73559399

>  <Name>
ligand

>  <RI>
0

>  <Rbt.Current_Directory>
/home/itssahil/PROJECTS/Mol_Feturizer/New_Systems/rnas/4P5J

>  <Rbt.Executable>
rbdock ($Id: //depot/dev/client3/rdock/2013.1/src/exe/rbdock.cxx#4 $)

>  <Rbt.Library>
libRbt.so (2013.1, Build901 2013/11/27)

>  <Rbt.Parameter_File>
/export/apps/rDock/src/rDock_2013.1_src/data/scripts/dock_solv.prm

>  <Rbt.Receptor>
prm/pocket_docking_6.prm

>  <SCORE>
-4.08392

>  <SCORE.INTER>
5.46402

>  <SCORE.INTER.CONST>
1

>  <SCORE.INTER.POLAR>
0

>  <SCORE.INTER.ROT>
11

>  <SCORE.INTER.SOLV>
6.92667

>  <SCORE.INTER.VDW>
-9.59954

>  <SCORE.INTER.norm>
0.390287

>  <SCORE.INTRA>
-9.54794

>  <SCORE.INTRA.DIHEDRAL>
-16.8899

>  <SCORE.INTRA.DIHEDRAL.0>
17.5233

>  <SCORE.INTRA.POLAR>
0

>  <SCORE.INTRA.POLAR.0>
0

>  <SCORE.INTRA.REPUL>
0

>  <SCORE.INTRA.REPUL.0>
0

>  <SCORE.INTRA.SOLV>
-1.63281

>  <SCORE.INTRA.SOLV.lig_0>
-46.1043

>  <SCORE.INTRA.VDW>
-0.28657

>  <SCORE.INTRA.VDW.0>
-0.545445

>  <SCORE.INTRA.norm>
-0.681996

>  <SCORE.RESTR>
0

>  <SCORE.RESTR.CAVITY>
0

>  <SCORE.RESTR.norm>
0

>  <SCORE.SYSTEM>
0

>  <SCORE.SYSTEM.CONST>
0

>  <SCORE.SYSTEM.DIHEDRAL>
0

>  <SCORE.SYSTEM.SOLV>
0

>  <SCORE.SYSTEM.norm>
0

>  <SCORE.heavy>
14

>  <SCORE.norm>
-0.291709

>  <RMSD>
3.566

$$$$
ligand
 OpenBabel11021811513D
libRbt.so/2013.1/901 2013/11/27
 14 13  0  0  0  0  0  0  0  0999 V2000
   31.0771   41.9395   36.0028 N   0  0  0  0  0  0  0  0  0  0  0  0
   31.1500   43.3899   36.0739 C   0  0  0  0  0  0  0  0  0  0  0  0
   31.5245   43.8335   37.4842 C   0  0  0  0  0  0  0  0  0  0  0  0
   31.6748   45.3486   37.5626 C   0  0  0  0  0  0  0  0  0  0  0  0
   32.0248   45.8160   38.9006 N   0  0  0  0  0  0  0  0  0  0  0  0
   30.9912   46.0751   39.8887 C   0  0  0  0  0  0  0  0  0  0  0  0
   30.2676   47.3968   39.6552 C   0  0  0  0  0  0  0  0  0  0  0  0
   29.2438   47.6336   40.7598 C   0  0  0  0  0  0  0  0  0  0  0  0
   28.5374   48.9656   40.5325 C   0  0  0  0  0  0  0  0  0  0  0  0
   27.7297   48.9562   39.3250 N   0  0  0  0  0  0  0  0  0  0  0  0
   27.8516   50.0526   38.3734 C   0  0  0  0  0  0  0  0  0  0  0  0
   26.6587   50.2186   37.4344 C   0  0  0  0  0  0  0  0  0  0  0  0
   25.3945   50.5639   38.2233 C   0  0  0  0  0  0  0  0  0  0  0  0
   24.3078   50.8877   37.3148 N   0  0  0  0  0  0  0  0  0  0  0  0
  1  2  1  0  0  0  0
  2  3  1  0  0  0  0
  3  4  1  0  0  0  0
  4  5  1  0  0  0  0
  5  6  1  0  0  0  0
  6  7  1  0  0  0  0
  7  8  1  0  0  0  0
  8  9  1  0  0  0  0
  9 10  1  0  0  0  0
 10 11  1  0  0  0  0
 11 12  1  0  0  0  0
 12 13  1  0  0  0  0
 13 14  1  0  0  0  0
M  END
>  <CHROM.1>
177.14813217,179.61458779,-85.93468318,-77.29621152,-177.46672681,179.19406683
65.82153039,-131.17541845,-159.11782322,63.15909775,172.71397281,29.17397503
47.21996113,38.39531132,0.61924342,0.68364253,-2.25452916

>  <Name>
ligand

>  <RI>
0

>  <Rbt.Current_Directory>
/home/itssahil/PROJECTS/Mol_Feturizer/New_Systems/rnas/4P5J

>  <Rbt.Executable>
rbdock ($Id: //depot/dev/client3/rdock/2013.1/src/exe/rbdock.cxx#4 $)

>  <Rbt.Library>
libRbt.so (2013.1, Build901 2013/11/27)

>  <Rbt.Parameter_File>
/export/apps/rDock/src/rDock_2013.1_src/data/scripts/dock_solv.prm

>  <Rbt.Receptor>
prm/pocket_docking_5.prm

>  <SCORE>
-4.45412

>  <SCORE.INTER>
4.47509

>  <SCORE.INTER.CONST>
1

>  <SCORE.INTER.POLAR>
0

>  <SCORE.INTER.ROT>
11

>  <SCORE.INTER.SOLV>
10.4805

>  <SCORE.INTER.VDW>
-11.4434

>  <SCORE.INTER.norm>
0.319649

>  <SCORE.INTRA>
-8.92921

>  <SCORE.INTRA.DIHEDRAL>
-14.9743

>  <SCORE.INTRA.DIHEDRAL.0>
17.5233

>  <SCORE.INTRA.POLAR>
0

>  <SCORE.INTRA.POLAR.0>
0

>  <SCORE.INTRA.REPUL>
0

>  <SCORE.INTRA.REPUL.0>
0

>  <SCORE.INTRA.SOLV>
-2.02037

>  <SCORE.INTRA.SOLV.lig_0>
-46.1043

>  <SCORE.INTRA.VDW>
-0.431873

>  <SCORE.INTRA.VDW.0>
-0.545445

>  <SCORE.INTRA.norm>
-0.6378

>  <SCORE.RESTR>
0

>  <SCORE.RESTR.CAVITY>
0

>  <SCORE.RESTR.norm>
0

>  <SCORE.SYSTEM>
0

>  <SCORE.SYSTEM.CONST>
0

>  <SCORE.SYSTEM.DIHEDRAL>
0

>  <SCORE.SYSTEM.SOLV>
0

>  <SCORE.SYSTEM.norm>
0

>  <SCORE.heavy>
14

>  <SCORE.norm>
-0.318151

>  <RMSD>
3.622

$$$$
ligand
 OpenBabel11021811513D
libRbt.so/2013.1/901 2013/11/27
 14 13  0  0  0  0  0  0  0  0999 V2000
   32.2168   44.7506   39.3415 N   0  0  0  0  0  0  0  0  0  0  0  0
   31.9903   45.8872   40.2194 C   0  0  0  0  0  0  0  0  0  0  0  0
   30.6846   46.5863   39.8556 C   0  0  0  0  0  0  0  0  0  0  0  0
   30.4488   47.8059   40.7394 C   0  0  0  0  0  0  0  0  0  0  0  0
   29.1963   48.4924   40.4374 N   0  0  0  0  0  0  0  0  0  0  0  0
   28.9674   49.0726   39.1248 C   0  0  0  0  0  0  0  0  0  0  0  0
   27.5753   49.6773   38.9799 C   0  0  0  0  0  0  0  0  0  0  0  0
   27.3431   50.1131   37.5375 C   0  0  0  0  0  0  0  0  0  0  0  0
   25.9639   50.7499   37.4060 C   0  0  0  0  0  0  0  0  0  0  0  0
   24.9043   49.8496   37.8270 N   0  0  0  0  0  0  0  0  0  0  0  0
   24.1205   50.1709   39.0123 C   0  0  0  0  0  0  0  0  0  0  0  0
   23.5384   48.9610   39.7400 C   0  0  0  0  0  0  0  0  0  0  0  0
   22.6744   49.4055   40.9214 C   0  0  0  0  0  0  0  0  0  0  0  0
   23.4936   50.0678   41.9221 N   0  0  0  0  0  0  0  0  0  0  0  0
  1  2  1  0  0  0  0
  2  3  1  0  0  0  0
  3  4  1  0  0  0  0
  4  5  1  0  0  0  0
  5  6  1  0  0  0  0
  6  7  1  0  0  0  0
  7  8  1  0  0  0  0
  8  9  1  0  0  0  0
  9 10  1  0  0  0  0
 10 11  1  0  0  0  0
 11 12  1  0  0  0  0
 12 13  1  0  0  0  0
 13 14  1  0  0  0  0
M  END
>  <CHROM.1>
-178.36389574,-179.07340119,-61.50029823,176.85306323,-173.16171053,-178.53149196
-57.57419789,113.65946611,-152.48104069,-176.97000062,-65.07433629,27.36551965
48.68516758,39.50444039,0.25665003,-0.37138256,2.12941679

>  <Name>
ligand

>  <RI>
0

>  <Rbt.Current_Directory>
/home/itssahil/PROJECTS/Mol_Feturizer/New_Systems/rnas/4P5J

>  <Rbt.Executable>
rbdock ($Id: //depot/dev/client3/rdock/2013.1/src/exe/rbdock.cxx#4 $)

>  <Rbt.Library>
libRbt.so (2013.1, Build901 2013/11/27)

>  <Rbt.Parameter_File>
/export/apps/rDock/src/rDock_2013.1_src/data/scripts/dock_solv.prm

>  <Rbt.Receptor>
prm/pocket_docking_5.prm

>  <SCORE>
-3.14316

>  <SCORE.INTER>
5.37072

>  <SCORE.INTER.CONST>
1

>  <SCORE.INTER.POLAR>
0

>  <SCORE.INTER.ROT>
11

>  <SCORE.INTER.SOLV>
7.81096

>  <SCORE.INTER.VDW>
-9.95651

>  <SCORE.INTER.norm>
0.383623

>  <SCORE.INTRA>
-8.51388

>  <SCORE.INTRA.DIHEDRAL>
-15.4726

>  <SCORE.INTRA.DIHEDRAL.0>
17.5233

>  <SCORE.INTRA.POLAR>
0

>  <SCORE.INTRA.POLAR.0>
0

>  <SCORE.INTRA.REPUL>
0

>  <SCORE.INTRA.REPUL.0>
0

>  <SCORE.INTRA.SOLV>
-1.5205

>  <SCORE.INTRA.SOLV.lig_0>
-46.1043

>  <SCORE.INTRA.VDW>
-0.0173241

>  <SCORE.INTRA.VDW.0>
-0.545445

>  <SCORE.INTRA.norm>
-0.608134

>  <SCORE.RESTR>
0

>  <SCORE.RESTR.CAVITY>
0

>  <SCORE.RESTR.norm>
0

>  <SCORE.SYSTEM>
0

>  <SCORE.SYSTEM.CONST>
0

>  <SCORE.SYSTEM.DIHEDRAL>
0

>  <SCORE.SYSTEM.SOLV>
0

>  <SCORE.SYSTEM.norm>
0

>  <SCORE.heavy>
14

>  <SCORE.norm>
-0.224512

>  <RMSD>
3.630

$$$$
ligand
 OpenBabel11021811513D
libRbt.so/2013.1/901 2013/11/27
 14 13  0  0  0  0  0  0  0  0999 V2000
   25.6082   51.5518   36.7465 N   0  0  0  0  0  0  0  0  0  0  0  0
   25.4075   50.1862   37.2035 C   0  0  0  0  0  0  0  0  0  0  0  0
   25.9945   50.0024   38.5991 C   0  0  0  0  0  0  0  0  0  0  0  0
   27.5089   50.1771   38.5863 C   0  0  0  0  0  0  0  0  0  0  0  0
   28.1013   50.0944   39.9180 N   0  0  0  0  0  0  0  0  0  0  0  0
   28.2939   48.8071   40.5644 C   0  0  0  0  0  0  0  0  0  0  0  0
   29.5258   48.0675   40.0545 C   0  0  0  0  0  0  0  0  0  0  0  0
   29.6446   46.7134   40.7451 C   0  0  0  0  0  0  0  0  0  0  0  0
   30.8671   45.9701   40.2176 C   0  0  0  0  0  0  0  0  0  0  0  0
   30.8033   45.7648   38.7808 N   0  0  0  0  0  0  0  0  0  0  0  0
   31.7093   44.8122   38.1528 C   0  0  0  0  0  0  0  0  0  0  0  0
   31.9627   45.0567   36.6667 C   0  0  0  0  0  0  0  0  0  0  0  0
   32.5750   46.4406   36.4438 C   0  0  0  0  0  0  0  0  0  0  0  0
   32.7951   46.6704   35.0261 N   0  0  0  0  0  0  0  0  0  0  0  0
  1  2  1  0  0  0  0
  2  3  1  0  0  0  0
  3  4  1  0  0  0  0
  4  5  1  0  0  0  0
  5  6  1  0  0  0  0
  6  7  1  0  0  0  0
  7  8  1  0  0  0  0
  8  9  1  0  0  0  0
  9 10  1  0  0  0  0
 10 11  1  0  0  0  0
 11 12  1  0  0  0  0
 12 13  1  0  0  0  0
 13 14  1  0  0  0  0
M  END
>  <CHROM.1>
-64.76167273,176.29228427,77.47136326,79.28284880,-178.43920178,179.22163141
-58.68888468,-165.59096145,-156.76387519,59.81497268,-179.22265655,29.34266198
47.87936015,38.40784579,-3.10722846,-0.70944258,1.80071396

>  <Name>
ligand

>  <RI>
0

>  <Rbt.Current_Directory>
/home/itssahil/PROJECTS/Mol_Feturizer/New_Systems/rnas/4P5J

>  <Rbt.Executable>
rbdock ($Id: //depot/dev/client3/rdock/2013.1/src/exe/rbdock.cxx#4 $)

>  <Rbt.Library>
libRbt.so (2013.1, Build901 2013/11/27)

>  <Rbt.Parameter_File>
/export/apps/rDock/src/rDock_2013.1_src/data/scripts/dock_solv.prm

>  <Rbt.Receptor>
prm/pocket_docking_4.prm

>  <SCORE>
-4.0576

>  <SCORE.INTER>
4.70958

>  <SCORE.INTER.CONST>
1

>  <SCORE.INTER.POLAR>
0

>  <SCORE.INTER.ROT>
11

>  <SCORE.INTER.SOLV>
8.9167

>  <SCORE.INTER.VDW>
-10.7658

>  <SCORE.INTER.norm>
0.336399

>  <SCORE.INTRA>
-8.76719

>  <SCORE.INTRA.DIHEDRAL>
-16.296

>  <SCORE.INTRA.DIHEDRAL.0>
17.5233

>  <SCORE.INTRA.POLAR>
0

>  <SCORE.INTRA.POLAR.0>
0

>  <SCORE.INTRA.REPUL>
0

>  <SCORE.INTRA.REPUL.0>
0

>  <SCORE.INTRA.SOLV>
-1.10282

>  <SCORE.INTRA.SOLV.lig_0>
-46.1043

>  <SCORE.INTRA.VDW>
-0.0677959

>  <SCORE.INTRA.VDW.0>
-0.545445

>  <SCORE.INTRA.norm>
-0.626228

>  <SCORE.RESTR>
0

>  <SCORE.RESTR.CAVITY>
0

>  <SCORE.RESTR.norm>
0

>  <SCORE.SYSTEM>
0

>  <SCORE.SYSTEM.CONST>
0

>  <SCORE.SYSTEM.DIHEDRAL>
0

>  <SCORE.SYSTEM.SOLV>
0

>  <SCORE.SYSTEM.norm>
0

>  <SCORE.heavy>
14

>  <SCORE.norm>
-0.289829

>  <RMSD>
3.640

$$$$
ligand
 OpenBabel11021811513D
libRbt.so/2013.1/901 2013/11/27
 14 13  0  0  0  0  0  0  0  0999 V2000
   22.7995   53.1651   39.1063 N   0  0  0  0  0  0  0  0  0  0  0  0
   23.3459   52.0642   38.3296 C   0  0  0  0  0  0  0  0  0  0  0  0
   23.7600   52.5473   36.9436 C   0  0  0  0  0  0  0  0  0  0  0  0
   24.4291   51.4312   36.1492 C   0  0  0  0  0  0  0  0  0  0  0  0
   25.7469   51.0766   36.6676 N   0  0  0  0  0  0  0  0  0  0  0  0
   25.8797   50.1730   37.7979 C   0  0  0  0  0  0  0  0  0  0  0  0
   27.3133   50.0688   38.3067 C   0  0  0  0  0  0  0  0  0  0  0  0
   27.3432   49.3168   39.6326 C   0  0  0  0  0  0  0  0  0  0  0  0
   28.7811   49.1957   40.1254 C   0  0  0  0  0  0  0  0  0  0  0  0
   29.5535   48.2567   39.3303 N   0  0  0  0  0  0  0  0  0  0  0  0
   30.5414   47.4083   39.9836 C   0  0  0  0  0  0  0  0  0  0  0  0
   31.0058   46.2135   39.1535 C   0  0  0  0  0  0  0  0  0  0  0  0
   31.6849   46.6821   37.8655 C   0  0  0  0  0  0  0  0  0  0  0  0
   32.1533   45.5394   37.0998 N   0  0  0  0  0  0  0  0  0  0  0  0
  1  2  1  0  0  0  0
  2  3  1  0  0  0  0
  3  4  1  0  0  0  0
  4  5  1  0  0  0  0
  5  6  1  0  0  0  0
  6  7  1  0  0  0  0
  7  8  1  0  0  0  0
  8  9  1  0  0  0  0
  9 10  1  0  0  0  0
 10 11  1  0  0  0  0
 11 12  1  0  0  0  0
 12 13  1  0  0  0  0
 13 14  1  0  0  0  0
M  END
>  <CHROM.1>
175.85177432,-69.92651839,82.14529419,-172.44592941,169.73691145,179.07894353
-71.67925343,-143.16418559,163.71027906,61.73531538,178.54272292,27.45262595
49.50990732,38.32095488,3.09702346,0.64870302,-1.66589854

>  <Name>
ligand

>  <RI>
0

>  <Rbt.Current_Directory>
/home/itssahil/PROJECTS/Mol_Feturizer/New_Systems/rnas/4P5J

>  <Rbt.Executable>
rbdock ($Id: //depot/dev/client3/rdock/2013.1/src/exe/rbdock.cxx#4 $)

>  <Rbt.Library>
libRbt.so (2013.1, Build901 2013/11/27)

>  <Rbt.Parameter_File>
/export/apps/rDock/src/rDock_2013.1_src/data/scripts/dock_solv.prm

>  <Rbt.Receptor>
prm/pocket_docking_5.prm

>  <SCORE>
-3.35262

>  <SCORE.INTER>
5.1559

>  <SCORE.INTER.CONST>
1

>  <SCORE.INTER.POLAR>
0

>  <SCORE.INTER.ROT>
11

>  <SCORE.INTER.SOLV>
10.0311

>  <SCORE.INTER.VDW>
-10.8398

>  <SCORE.INTER.norm>
0.368278

>  <SCORE.INTRA>
-8.50851

>  <SCORE.INTRA.DIHEDRAL>
-14.7598

>  <SCORE.INTRA.DIHEDRAL.0>
17.5233

>  <SCORE.INTRA.POLAR>
0

>  <SCORE.INTRA.POLAR.0>
0

>  <SCORE.INTRA.REPUL>
0

>  <SCORE.INTRA.REPUL.0>
0

>  <SCORE.INTRA.SOLV>
-1.51248

>  <SCORE.INTRA.SOLV.lig_0>
-46.1043

>  <SCORE.INTRA.VDW>
-0.37237

>  <SCORE.INTRA.VDW.0>
-0.545445

>  <SCORE.INTRA.norm>
-0.607751

>  <SCORE.RESTR>
0

>  <SCORE.RESTR.CAVITY>
0

>  <SCORE.RESTR.norm>
0

>  <SCORE.SYSTEM>
0

>  <SCORE.SYSTEM.CONST>
0

>  <SCORE.SYSTEM.DIHEDRAL>
0

>  <SCORE.SYSTEM.SOLV>
0

>  <SCORE.SYSTEM.norm>
0

>  <SCORE.heavy>
14

>  <SCORE.norm>
-0.239473

>  <RMSD>
3.697

$$$$
ligand
 OpenBabel11021811513D
libRbt.so/2013.1/901 2013/11/27
 14 13  0  0  0  0  0  0  0  0999 V2000
   23.3753   48.9381   41.8226 N   0  0  0  0  0  0  0  0  0  0  0  0
   24.2549   48.9470   40.6649 C   0  0  0  0  0  0  0  0  0  0  0  0
   23.6402   49.7706   39.5381 C   0  0  0  0  0  0  0  0  0  0  0  0
   24.6165   49.9311   38.3783 C   0  0  0  0  0  0  0  0  0  0  0  0
   25.8062   50.6964   38.7392 N   0  0  0  0  0  0  0  0  0  0  0  0
   27.1180   50.0710   38.7378 C   0  0  0  0  0  0  0  0  0  0  0  0
   27.8418   50.2177   37.4038 C   0  0  0  0  0  0  0  0  0  0  0  0
   29.1783   49.4856   37.4520 C   0  0  0  0  0  0  0  0  0  0  0  0
   29.8657   49.5756   36.0939 C   0  0  0  0  0  0  0  0  0  0  0  0
   31.1144   48.8337   36.0637 N   0  0  0  0  0  0  0  0  0  0  0  0
   31.4865   48.1069   34.8571 C   0  0  0  0  0  0  0  0  0  0  0  0
   32.6685   47.1545   35.0245 C   0  0  0  0  0  0  0  0  0  0  0  0
   32.3395   46.0586   36.0397 C   0  0  0  0  0  0  0  0  0  0  0  0
   33.4772   45.1705   36.2070 N   0  0  0  0  0  0  0  0  0  0  0  0
  1  2  1  0  0  0  0
  2  3  1  0  0  0  0
  3  4  1  0  0  0  0
  4  5  1  0  0  0  0
  5  6  1  0  0  0  0
  6  7  1  0  0  0  0
  7  8  1  0  0  0  0
  8  9  1  0  0  0  0
  9 10  1  0  0  0  0
 10 11  1  0  0  0  0
 11 12  1  0  0  0  0
 12 13  1  0  0  0  0
 13 14  1  0  0  0  0
M  END
>  <CHROM.1>
173.24069064,-64.61298133,115.01998567,91.67707296,-177.37760032,177.14756343
-177.00512578,142.31092666,-168.77320090,62.32522513,-179.11897625,28.34159288
48.78282113,37.64422949,-3.13241184,0.56809590,-0.55991180

>  <Name>
ligand

>  <RI>
0

>  <Rbt.Current_Directory>
/home/itssahil/PROJECTS/Mol_Feturizer/New_Systems/rnas/4P5J

>  <Rbt.Executable>
rbdock ($Id: //depot/dev/client3/rdock/2013.1/src/exe/rbdock.cxx#4 $)

>  <Rbt.Library>
libRbt.so (2013.1, Build901 2013/11/27)

>  <Rbt.Parameter_File>
/export/apps/rDock/src/rDock_2013.1_src/data/scripts/dock_solv.prm

>  <Rbt.Receptor>
prm/pocket_docking_5.prm

>  <SCORE>
-3.13469

>  <SCORE.INTER>
5.68736

>  <SCORE.INTER.CONST>
1

>  <SCORE.INTER.POLAR>
0

>  <SCORE.INTER.ROT>
11

>  <SCORE.INTER.SOLV>
4.37657

>  <SCORE.INTER.VDW>
-8.60062

>  <SCORE.INTER.norm>
0.40624

>  <SCORE.INTRA>
-8.82497

>  <SCORE.INTRA.DIHEDRAL>
-14.3867

>  <SCORE.INTRA.DIHEDRAL.0>
17.5233

>  <SCORE.INTRA.POLAR>
0

>  <SCORE.INTRA.POLAR.0>
0

>  <SCORE.INTRA.REPUL>
0

>  <SCORE.INTRA.REPUL.0>
0

>  <SCORE.INTRA.SOLV>
-1.94552

>  <SCORE.INTRA.SOLV.lig_0>
-46.1043

>  <SCORE.INTRA.VDW>
-0.658862

>  <SCORE.INTRA.VDW.0>
-0.545445

>  <SCORE.INTRA.norm>
-0.630355

>  <SCORE.RESTR>
0.00292216

>  <SCORE.RESTR.CAVITY>
0.00292216

>  <SCORE.RESTR.norm>
0.000208726

>  <SCORE.SYSTEM>
0

>  <SCORE.SYSTEM.CONST>
0

>  <SCORE.SYSTEM.DIHEDRAL>
0

>  <SCORE.SYSTEM.SOLV>
0

>  <SCORE.SYSTEM.norm>
0

>  <SCORE.heavy>
14

>  <SCORE.norm>
-0.223906

>  <RMSD>
3.725

$$$$
ligand
 OpenBabel11021811513D
libRbt.so/2013.1/901 2013/11/27
 14 13  0  0  0  0  0  0  0  0999 V2000
   25.2541   51.5260   36.7122 N   0  0  0  0  0  0  0  0  0  0  0  0
   25.5466   50.3837   37.5627 C   0  0  0  0  0  0  0  0  0  0  0  0
   26.8714   50.5892   38.2897 C   0  0  0  0  0  0  0  0  0  0  0  0
   27.1505   49.4458   39.2586 C   0  0  0  0  0  0  0  0  0  0  0  0
   28.4218   49.5938   39.9607 N   0  0  0  0  0  0  0  0  0  0  0  0
   29.0576   48.4492   40.5912 C   0  0  0  0  0  0  0  0  0  0  0  0
   29.9813   47.6900   39.6451 C   0  0  0  0  0  0  0  0  0  0  0  0
   30.4890   46.4200   40.3187 C   0  0  0  0  0  0  0  0  0  0  0  0
   31.5052   45.7279   39.4169 C   0  0  0  0  0  0  0  0  0  0  0  0
   30.9241   45.3255   38.1477 N   0  0  0  0  0  0  0  0  0  0  0  0
   31.7980   44.8937   37.0649 C   0  0  0  0  0  0  0  0  0  0  0  0
   32.4899   46.0280   36.3121 C   0  0  0  0  0  0  0  0  0  0  0  0
   33.3597   45.4746   35.1820 C   0  0  0  0  0  0  0  0  0  0  0  0
   34.0260   46.5601   34.4828 N   0  0  0  0  0  0  0  0  0  0  0  0
  1  2  1  0  0  0  0
  2  3  1  0  0  0  0
  3  4  1  0  0  0  0
  4  5  1  0  0  0  0
  5  6  1  0  0  0  0
  6  7  1  0  0  0  0
  7  8  1  0  0  0  0
  8  9  1  0  0  0  0
  9 10  1  0  0  0  0
 10 11  1  0  0  0  0
 11 12  1  0  0  0  0
 12 13  1  0  0  0  0
 13 14  1  0  0  0  0
M  END
>  <CHROM.1>
176.14348123,179.09128351,-160.76329453,88.61989279,-173.64735437,-175.10656632
-61.51731873,167.90646434,-78.20448968,-178.88282337,-179.30381053,29.77684851
47.72175481,38.06783025,3.06306252,-0.68350028,1.83166357

>  <Name>
ligand

>  <RI>
0

>  <Rbt.Current_Directory>
/home/itssahil/PROJECTS/Mol_Feturizer/New_Systems/rnas/4P5J

>  <Rbt.Executable>
rbdock ($Id: //depot/dev/client3/rdock/2013.1/src/exe/rbdock.cxx#4 $)

>  <Rbt.Library>
libRbt.so (2013.1, Build901 2013/11/27)

>  <Rbt.Parameter_File>
/export/apps/rDock/src/rDock_2013.1_src/data/scripts/dock_solv.prm

>  <Rbt.Receptor>
prm/pocket_docking_5.prm

>  <SCORE>
-3.65184

>  <SCORE.INTER>
5.90099

>  <SCORE.INTER.CONST>
1

>  <SCORE.INTER.POLAR>
0

>  <SCORE.INTER.ROT>
11

>  <SCORE.INTER.SOLV>
7.95223

>  <SCORE.INTER.VDW>
-9.65008

>  <SCORE.INTER.norm>
0.421499

>  <SCORE.INTRA>
-9.55283

>  <SCORE.INTRA.DIHEDRAL>
-15.9926

>  <SCORE.INTRA.DIHEDRAL.0>
17.5233

>  <SCORE.INTRA.POLAR>
0

>  <SCORE.INTRA.POLAR.0>
0

>  <SCORE.INTRA.REPUL>
0

>  <SCORE.INTRA.REPUL.0>
0

>  <SCORE.INTRA.SOLV>
-2.3145

>  <SCORE.INTRA.SOLV.lig_0>
-46.1043

>  <SCORE.INTRA.VDW>
-0.399266

>  <SCORE.INTRA.VDW.0>
-0.545445

>  <SCORE.INTRA.norm>
-0.682345

>  <SCORE.RESTR>
0

>  <SCORE.RESTR.CAVITY>
0

>  <SCORE.RESTR.norm>
0

>  <SCORE.SYSTEM>
0

>  <SCORE.SYSTEM.CONST>
0

>  <SCORE.SYSTEM.DIHEDRAL>
0

>  <SCORE.SYSTEM.SOLV>
0

>  <SCORE.SYSTEM.norm>
0

>  <SCORE.heavy>
14

>  <SCORE.norm>
-0.260846

>  <RMSD>
3.735

$$$$
ligand
 OpenBabel11021811513D
libRbt.so/2013.1/901 2013/11/27
 14 13  0  0  0  0  0  0  0  0999 V2000
   24.8019   52.1944   34.9614 N   0  0  0  0  0  0  0  0  0  0  0  0
   25.4156   51.9507   36.2568 C   0  0  0  0  0  0  0  0  0  0  0  0
   25.2205   50.4959   36.6707 C   0  0  0  0  0  0  0  0  0  0  0  0
   25.8737   50.2153   38.0193 C   0  0  0  0  0  0  0  0  0  0  0  0
   27.3209   50.4060   38.0000 N   0  0  0  0  0  0  0  0  0  0  0  0
   28.0954   50.3233   39.2268 C   0  0  0  0  0  0  0  0  0  0  0  0
   28.1909   48.9024   39.7715 C   0  0  0  0  0  0  0  0  0  0  0  0
   29.0174   48.8890   41.0526 C   0  0  0  0  0  0  0  0  0  0  0  0
   29.0319   47.4832   41.6431 C   0  0  0  0  0  0  0  0  0  0  0  0
   29.5685   46.5055   40.7122 N   0  0  0  0  0  0  0  0  0  0  0  0
   30.9777   46.1433   40.7874 C   0  0  0  0  0  0  0  0  0  0  0  0
   31.4867   45.3117   39.6120 C   0  0  0  0  0  0  0  0  0  0  0  0
   31.4530   46.1275   38.3185 C   0  0  0  0  0  0  0  0  0  0  0  0
   32.4470   47.1863   38.3661 N   0  0  0  0  0  0  0  0  0  0  0  0
  1  2  1  0  0  0  0
  2  3  1  0  0  0  0
  3  4  1  0  0  0  0
  4  5  1  0  0  0  0
  5  6  1  0  0  0  0
  6  7  1  0  0  0  0
  7  8  1  0  0  0  0
  8  9  1  0  0  0  0
  9 10  1  0  0  0  0
 10 11  1  0  0  0  0
 11 12  1  0  0  0  0
 12 13  1  0  0  0  0
 13 14  1  0  0  0  0
M  END
>  <CHROM.1>
179.24250044,-62.59823295,173.42442702,70.69016849,179.84799163,176.24296969
58.18868585,95.24292736,-169.28203405,66.03954733,68.89391109,28.49291435
48.72374136,38.81448905,-2.57370026,-0.65022653,1.77036406

>  <Name>
ligand

>  <RI>
0

>  <Rbt.Current_Directory>
/home/itssahil/PROJECTS/Mol_Feturizer/New_Systems/rnas/4P5J

>  <Rbt.Executable>
rbdock ($Id: //depot/dev/client3/rdock/2013.1/src/exe/rbdock.cxx#4 $)

>  <Rbt.Library>
libRbt.so (2013.1, Build901 2013/11/27)

>  <Rbt.Parameter_File>
/export/apps/rDock/src/rDock_2013.1_src/data/scripts/dock_solv.prm

>  <Rbt.Receptor>
prm/pocket_docking_6.prm

>  <SCORE>
-2.72133

>  <SCORE.INTER>
5.7004

>  <SCORE.INTER.CONST>
1

>  <SCORE.INTER.POLAR>
0

>  <SCORE.INTER.ROT>
11

>  <SCORE.INTER.SOLV>
9.38824

>  <SCORE.INTER.VDW>
-10.2625

>  <SCORE.INTER.norm>
0.407171

>  <SCORE.INTRA>
-8.42173

>  <SCORE.INTRA.DIHEDRAL>
-16.0119

>  <SCORE.INTRA.DIHEDRAL.0>
17.5233

>  <SCORE.INTRA.POLAR>
0

>  <SCORE.INTRA.POLAR.0>
0

>  <SCORE.INTRA.REPUL>
0

>  <SCORE.INTRA.REPUL.0>
0

>  <SCORE.INTRA.SOLV>
-0.315697

>  <SCORE.INTRA.SOLV.lig_0>
-46.1043

>  <SCORE.INTRA.VDW>
-0.257938

>  <SCORE.INTRA.VDW.0>
-0.545445

>  <SCORE.INTRA.norm>
-0.601552

>  <SCORE.RESTR>
0

>  <SCORE.RESTR.CAVITY>
0

>  <SCORE.RESTR.norm>
0

>  <SCORE.SYSTEM>
0

>  <SCORE.SYSTEM.CONST>
0

>  <SCORE.SYSTEM.DIHEDRAL>
0

>  <SCORE.SYSTEM.SOLV>
0

>  <SCORE.SYSTEM.norm>
0

>  <SCORE.heavy>
14

>  <SCORE.norm>
-0.194381

>  <RMSD>
3.767

$$$$
ligand
 OpenBabel11021811513D
libRbt.so/2013.1/901 2013/11/27
 14 13  0  0  0  0  0  0  0  0999 V2000
   29.4275   41.4035   35.3623 N   0  0  0  0  0  0  0  0  0  0  0  0
   30.6320   41.8102   36.0678 C   0  0  0  0  0  0  0  0  0  0  0  0
   30.6321   43.3189   36.2907 C   0  0  0  0  0  0  0  0  0  0  0  0
   31.8800   43.7634   37.0453 C   0  0  0  0  0  0  0  0  0  0  0  0
   31.8863   45.1932   37.3398 N   0  0  0  0  0  0  0  0  0  0  0  0
   31.1687   45.7157   38.4904 C   0  0  0  0  0  0  0  0  0  0  0  0
   30.9997   47.2304   38.4444 C   0  0  0  0  0  0  0  0  0  0  0  0
   29.9743   47.6729   39.4822 C   0  0  0  0  0  0  0  0  0  0  0  0
   29.6702   49.1569   39.3077 C   0  0  0  0  0  0  0  0  0  0  0  0
   28.5158   49.5728   40.0854 N   0  0  0  0  0  0  0  0  0  0  0  0
   27.1803   49.4154   39.5248 C   0  0  0  0  0  0  0  0  0  0  0  0
   26.0414   49.6202   40.5214 C   0  0  0  0  0  0  0  0  0  0  0  0
   24.6855   49.4433   39.8358 C   0  0  0  0  0  0  0  0  0  0  0  0
   23.6097   49.6189   40.7966 N   0  0  0  0  0  0  0  0  0  0  0  0
  1  2  1  0  0  0  0
  2  3  1  0  0  0  0
  3  4  1  0  0  0  0
  4  5  1  0  0  0  0
  5  6  1  0  0  0  0
  6  7  1  0  0  0  0
  7  8  1  0  0  0  0
  8  9  1  0  0  0  0
  9 10  1  0  0  0  0
 10 11  1  0  0  0  0
 11 12  1  0  0  0  0
 12 13  1  0  0  0  0
 13 14  1  0  0  0  0
M  END
>  <CHROM.1>
179.29063902,-177.04210222,82.32762070,-165.77277693,166.66709133,-172.44317771
168.59294302,-85.52273705,168.36912536,179.62482688,179.08784961,29.02194636
46.63834141,38.47108282,0.98635621,-0.04312553,-2.64844780

>  <Name>
ligand

>  <RI>
0

>  <Rbt.Current_Directory>
/home/itssahil/PROJECTS/Mol_Feturizer/New_Systems/rnas/4P5J

>  <Rbt.Executable>
rbdock ($Id: //depot/dev/client3/rdock/2013.1/src/exe/rbdock.cxx#4 $)

>  <Rbt.Library>
libRbt.so (2013.1, Build901 2013/11/27)

>  <Rbt.Parameter_File>
/export/apps/rDock/src/rDock_2013.1_src/data/scripts/dock_solv.prm

>  <Rbt.Receptor>
prm/pocket_docking_7.prm

>  <SCORE>
-4.74278

>  <SCORE.INTER>
4.64466

>  <SCORE.INTER.CONST>
1

>  <SCORE.INTER.POLAR>
0

>  <SCORE.INTER.ROT>
11

>  <SCORE.INTER.SOLV>
6.54441

>  <SCORE.INTER.VDW>
-10.0184

>  <SCORE.INTER.norm>
0.331762

>  <SCORE.INTRA>
-9.38744

>  <SCORE.INTRA.DIHEDRAL>
-15.0319

>  <SCORE.INTRA.DIHEDRAL.0>
17.5233

>  <SCORE.INTRA.POLAR>
0

>  <SCORE.INTRA.POLAR.0>
0

>  <SCORE.INTRA.REPUL>
0

>  <SCORE.INTRA.REPUL.0>
0

>  <SCORE.INTRA.SOLV>
-2.72522

>  <SCORE.INTRA.SOLV.lig_0>
-46.1043

>  <SCORE.INTRA.VDW>
-0.508869

>  <SCORE.INTRA.VDW.0>
-0.545445

>  <SCORE.INTRA.norm>
-0.670531

>  <SCORE.RESTR>
0

>  <SCORE.RESTR.CAVITY>
0

>  <SCORE.RESTR.norm>
0

>  <SCORE.SYSTEM>
0

>  <SCORE.SYSTEM.CONST>
0

>  <SCORE.SYSTEM.DIHEDRAL>
0

>  <SCORE.SYSTEM.SOLV>
0

>  <SCORE.SYSTEM.norm>
0

>  <SCORE.heavy>
14

>  <SCORE.norm>
-0.33877

>  <RMSD>
3.792

$$$$
ligand
 OpenBabel11021811513D
libRbt.so/2013.1/901 2013/11/27
 14 13  0  0  0  0  0  0  0  0999 V2000
   22.5455   51.2931   41.0011 N   0  0  0  0  0  0  0  0  0  0  0  0
   23.4124   51.3907   39.8379 C   0  0  0  0  0  0  0  0  0  0  0  0
   22.6621   52.0199   38.6687 C   0  0  0  0  0  0  0  0  0  0  0  0
   23.5585   52.1418   37.4416 C   0  0  0  0  0  0  0  0  0  0  0  0
   23.9952   50.8476   36.9264 N   0  0  0  0  0  0  0  0  0  0  0  0
   25.4096   50.5301   36.8237 C   0  0  0  0  0  0  0  0  0  0  0  0
   26.0335   50.1674   38.1668 C   0  0  0  0  0  0  0  0  0  0  0  0
   27.5135   49.8490   37.9858 C   0  0  0  0  0  0  0  0  0  0  0  0
   28.1269   49.4641   39.3277 C   0  0  0  0  0  0  0  0  0  0  0  0
   29.5148   49.0555   39.1965 N   0  0  0  0  0  0  0  0  0  0  0  0
   29.8965   47.6938   39.5467 C   0  0  0  0  0  0  0  0  0  0  0  0
   31.0981   47.1497   38.7769 C   0  0  0  0  0  0  0  0  0  0  0  0
   31.3690   45.6932   39.1579 C   0  0  0  0  0  0  0  0  0  0  0  0
   32.5336   45.1956   38.4456 N   0  0  0  0  0  0  0  0  0  0  0  0
  1  2  1  0  0  0  0
  2  3  1  0  0  0  0
  3  4  1  0  0  0  0
  4  5  1  0  0  0  0
  5  6  1  0  0  0  0
  6  7  1  0  0  0  0
  7  8  1  0  0  0  0
  8  9  1  0  0  0  0
  9 10  1  0  0  0  0
 10 11  1  0  0  0  0
 11 12  1  0  0  0  0
 12 13  1  0  0  0  0
 13 14  1  0  0  0  0
M  END
>  <CHROM.1>
179.52079590,63.54596280,-121.43963618,77.22636966,-179.92309106,-179.04501233
175.79141769,-117.13516044,150.99583956,-176.81553934,-178.57887300,26.97630726
49.46383064,38.66444032,3.02547417,0.55271942,-1.40570050

>  <Name>
ligand

>  <RI>
0

>  <Rbt.Current_Directory>
/home/itssahil/PROJECTS/Mol_Feturizer/New_Systems/rnas/4P5J

>  <Rbt.Executable>
rbdock ($Id: //depot/dev/client3/rdock/2013.1/src/exe/rbdock.cxx#4 $)

>  <Rbt.Library>
libRbt.so (2013.1, Build901 2013/11/27)

>  <Rbt.Parameter_File>
/export/apps/rDock/src/rDock_2013.1_src/data/scripts/dock_solv.prm

>  <Rbt.Receptor>
prm/pocket_docking_5.prm

>  <SCORE>
-4.96338

>  <SCORE.INTER>
3.9337

>  <SCORE.INTER.CONST>
1

>  <SCORE.INTER.POLAR>
0

>  <SCORE.INTER.ROT>
11

>  <SCORE.INTER.SOLV>
6.69132

>  <SCORE.INTER.VDW>
-10.5413

>  <SCORE.INTER.norm>
0.280978

>  <SCORE.INTRA>
-8.89708

>  <SCORE.INTRA.DIHEDRAL>
-14.1702

>  <SCORE.INTRA.DIHEDRAL.0>
17.5233

>  <SCORE.INTRA.POLAR>
0

>  <SCORE.INTRA.POLAR.0>
0

>  <SCORE.INTRA.REPUL>
0

>  <SCORE.INTRA.REPUL.0>
0

>  <SCORE.INTRA.SOLV>
-2.29989

>  <SCORE.INTRA.SOLV.lig_0>
-46.1043

>  <SCORE.INTRA.VDW>
-0.66202

>  <SCORE.INTRA.VDW.0>
-0.545445

>  <SCORE.INTRA.norm>
-0.635506

>  <SCORE.RESTR>
0

>  <SCORE.RESTR.CAVITY>
0

>  <SCORE.RESTR.norm>
0

>  <SCORE.SYSTEM>
0

>  <SCORE.SYSTEM.CONST>
0

>  <SCORE.SYSTEM.DIHEDRAL>
0

>  <SCORE.SYSTEM.SOLV>
0

>  <SCORE.SYSTEM.norm>
0

>  <SCORE.heavy>
14

>  <SCORE.norm>
-0.354527

>  <RMSD>
3.805

$$$$
ligand
 OpenBabel11021811513D
libRbt.so/2013.1/901 2013/11/27
 14 13  0  0  0  0  0  0  0  0999 V2000
   22.4949   52.6529   41.0839 N   0  0  0  0  0  0  0  0  0  0  0  0
   22.2432   52.1812   39.7318 C   0  0  0  0  0  0  0  0  0  0  0  0
   23.4553   52.4435   38.8443 C   0  0  0  0  0  0  0  0  0  0  0  0
   23.2157   51.9440   37.4240 C   0  0  0  0  0  0  0  0  0  0  0  0
   24.3939   52.0701   36.5714 N   0  0  0  0  0  0  0  0  0  0  0  0
   25.3759   51.0011   36.5019 C   0  0  0  0  0  0  0  0  0  0  0  0
   26.2776   50.9453   37.7301 C   0  0  0  0  0  0  0  0  0  0  0  0
   27.4025   49.9408   37.5066 C   0  0  0  0  0  0  0  0  0  0  0  0
   28.2554   49.8319   38.7659 C   0  0  0  0  0  0  0  0  0  0  0  0
   29.3146   48.8477   38.6245 N   0  0  0  0  0  0  0  0  0  0  0  0
   29.8755   48.2234   39.8154 C   0  0  0  0  0  0  0  0  0  0  0  0
   30.5693   46.8855   39.5683 C   0  0  0  0  0  0  0  0  0  0  0  0
   31.7786   47.0659   38.6491 C   0  0  0  0  0  0  0  0  0  0  0  0
   32.4395   45.7903   38.4318 N   0  0  0  0  0  0  0  0  0  0  0  0
  1  2  1  0  0  0  0
  2  3  1  0  0  0  0
  3  4  1  0  0  0  0
  4  5  1  0  0  0  0
  5  6  1  0  0  0  0
  6  7  1  0  0  0  0
  7  8  1  0  0  0  0
  8  9  1  0  0  0  0
  9 10  1  0  0  0  0
 10 11  1  0  0  0  0
 11 12  1  0  0  0  0
 12 13  1  0  0  0  0
 13 14  1  0  0  0  0
M  END
>  <CHROM.1>
179.48502678,-174.98766334,88.63306964,-75.82731976,-171.94202122,-176.86894707
177.81284423,-155.83061564,158.28226851,63.07118381,179.39671653,26.93505009
49.98744126,38.51773503,3.04267324,0.56677205,-1.42726728

>  <Name>
ligand

>  <RI>
0

>  <Rbt.Current_Directory>
/home/itssahil/PROJECTS/Mol_Feturizer/New_Systems/rnas/4P5J

>  <Rbt.Executable>
rbdock ($Id: //depot/dev/client3/rdock/2013.1/src/exe/rbdock.cxx#4 $)

>  <Rbt.Library>
libRbt.so (2013.1, Build901 2013/11/27)

>  <Rbt.Parameter_File>
/export/apps/rDock/src/rDock_2013.1_src/data/scripts/dock_solv.prm

>  <Rbt.Receptor>
prm/pocket_docking_5.prm

>  <SCORE>
-4.85187

>  <SCORE.INTER>
4.56701

>  <SCORE.INTER.CONST>
1

>  <SCORE.INTER.POLAR>
0

>  <SCORE.INTER.ROT>
11

>  <SCORE.INTER.SOLV>
5.75555

>  <SCORE.INTER.VDW>
-9.80718

>  <SCORE.INTER.norm>
0.326215

>  <SCORE.INTRA>
-9.41888

>  <SCORE.INTRA.DIHEDRAL>
-15.5705

>  <SCORE.INTRA.DIHEDRAL.0>
17.5233

>  <SCORE.INTRA.POLAR>
0

>  <SCORE.INTRA.POLAR.0>
0

>  <SCORE.INTRA.REPUL>
0

>  <SCORE.INTRA.REPUL.0>
0

>  <SCORE.INTRA.SOLV>
-2.39978

>  <SCORE.INTRA.SOLV.lig_0>
-46.1043

>  <SCORE.INTRA.VDW>
-0.433739

>  <SCORE.INTRA.VDW.0>
-0.545445

>  <SCORE.INTRA.norm>
-0.672777

>  <SCORE.RESTR>
0

>  <SCORE.RESTR.CAVITY>
0

>  <SCORE.RESTR.norm>
0

>  <SCORE.SYSTEM>
0

>  <SCORE.SYSTEM.CONST>
0

>  <SCORE.SYSTEM.DIHEDRAL>
0

>  <SCORE.SYSTEM.SOLV>
0

>  <SCORE.SYSTEM.norm>
0

>  <SCORE.heavy>
14

>  <SCORE.norm>
-0.346562

>  <RMSD>
3.824

$$$$
ligand
 OpenBabel11021811513D
libRbt.so/2013.1/901 2013/11/27
 14 13  0  0  0  0  0  0  0  0999 V2000
   25.8369   51.5526   37.0138 N   0  0  0  0  0  0  0  0  0  0  0  0
   25.8760   50.4513   37.9623 C   0  0  0  0  0  0  0  0  0  0  0  0
   27.2215   50.4164   38.6793 C   0  0  0  0  0  0  0  0  0  0  0  0
   27.2621   49.3024   39.7193 C   0  0  0  0  0  0  0  0  0  0  0  0
   28.5272   49.2495   40.4457 N   0  0  0  0  0  0  0  0  0  0  0  0
   29.3092   48.0251   40.4833 C   0  0  0  0  0  0  0  0  0  0  0  0
   30.1935   47.8500   39.2536 C   0  0  0  0  0  0  0  0  0  0  0  0
   30.7989   46.4508   39.2411 C   0  0  0  0  0  0  0  0  0  0  0  0
   31.6767   46.2789   38.0062 C   0  0  0  0  0  0  0  0  0  0  0  0
   32.0334   44.8891   37.7790 N   0  0  0  0  0  0  0  0  0  0  0  0
   31.1655   44.0515   36.9618 C   0  0  0  0  0  0  0  0  0  0  0  0
   31.4651   42.5559   37.0384 C   0  0  0  0  0  0  0  0  0  0  0  0
   30.5467   41.7723   36.0991 C   0  0  0  0  0  0  0  0  0  0  0  0
   30.8374   40.3511   36.1818 N   0  0  0  0  0  0  0  0  0  0  0  0
  1  2  1  0  0  0  0
  2  3  1  0  0  0  0
  3  4  1  0  0  0  0
  4  5  1  0  0  0  0
  5  6  1  0  0  0  0
  6  7  1  0  0  0  0
  7  8  1  0  0  0  0
  8  9  1  0  0  0  0
  9 10  1  0  0  0  0
 10 11  1  0  0  0  0
 11 12  1  0  0  0  0
 12 13  1  0  0  0  0
 13 14  1  0  0  0  0
M  END
>  <CHROM.1>
177.70616072,-179.00285601,-124.53328193,83.31559254,-170.39049190,179.73230343
-166.97663320,89.39222404,-167.28712108,-177.35358473,-179.86012431,29.48222035
46.65698081,38.20475244,2.18237870,-0.63204165,0.63921544

>  <Name>
ligand

>  <RI>
0

>  <Rbt.Current_Directory>
/home/itssahil/PROJECTS/Mol_Feturizer/New_Systems/rnas/4P5J

>  <Rbt.Executable>
rbdock ($Id: //depot/dev/client3/rdock/2013.1/src/exe/rbdock.cxx#4 $)

>  <Rbt.Library>
libRbt.so (2013.1, Build901 2013/11/27)

>  <Rbt.Parameter_File>
/export/apps/rDock/src/rDock_2013.1_src/data/scripts/dock_solv.prm

>  <Rbt.Receptor>
prm/pocket_docking_6.prm

>  <SCORE>
-4.68517

>  <SCORE.INTER>
4.43604

>  <SCORE.INTER.CONST>
1

>  <SCORE.INTER.POLAR>
0

>  <SCORE.INTER.ROT>
11

>  <SCORE.INTER.SOLV>
5.93796

>  <SCORE.INTER.VDW>
-9.9553

>  <SCORE.INTER.norm>
0.31686

>  <SCORE.INTRA>
-9.1212

>  <SCORE.INTRA.DIHEDRAL>
-14.2271

>  <SCORE.INTRA.DIHEDRAL.0>
17.5233

>  <SCORE.INTRA.POLAR>
0

>  <SCORE.INTRA.POLAR.0>
0

>  <SCORE.INTRA.REPUL>
0

>  <SCORE.INTRA.REPUL.0>
0

>  <SCORE.INTRA.SOLV>
-2.73305

>  <SCORE.INTRA.SOLV.lig_0>
-46.1043

>  <SCORE.INTRA.VDW>
-0.641122

>  <SCORE.INTRA.VDW.0>
-0.545445

>  <SCORE.INTRA.norm>
-0.651515

>  <SCORE.RESTR>
0

>  <SCORE.RESTR.CAVITY>
0

>  <SCORE.RESTR.norm>
0

>  <SCORE.SYSTEM>
0

>  <SCORE.SYSTEM.CONST>
0

>  <SCORE.SYSTEM.DIHEDRAL>
0

>  <SCORE.SYSTEM.SOLV>
0

>  <SCORE.SYSTEM.norm>
0

>  <SCORE.heavy>
14

>  <SCORE.norm>
-0.334655

>  <RMSD>
3.830

$$$$
ligand
 OpenBabel11021811513D
libRbt.so/2013.1/901 2013/11/27
 14 13  0  0  0  0  0  0  0  0999 V2000
   32.4112   45.1253   37.4601 N   0  0  0  0  0  0  0  0  0  0  0  0
   32.5037   45.9942   38.6221 C   0  0  0  0  0  0  0  0  0  0  0  0
   31.1875   45.9913   39.3926 C   0  0  0  0  0  0  0  0  0  0  0  0
   31.2701   46.8836   40.6260 C   0  0  0  0  0  0  0  0  0  0  0  0
   30.0213   46.9257   41.3810 N   0  0  0  0  0  0  0  0  0  0  0  0
   29.1551   48.0907   41.3155 C   0  0  0  0  0  0  0  0  0  0  0  0
   28.7466   48.4448   39.8898 C   0  0  0  0  0  0  0  0  0  0  0  0
   27.5919   49.4401   39.9097 C   0  0  0  0  0  0  0  0  0  0  0  0
   27.1439   49.7399   38.4834 C   0  0  0  0  0  0  0  0  0  0  0  0
   25.8634   50.4250   38.4459 N   0  0  0  0  0  0  0  0  0  0  0  0
   25.2741   50.7716   37.1593 C   0  0  0  0  0  0  0  0  0  0  0  0
   23.9476   51.5233   37.2464 C   0  0  0  0  0  0  0  0  0  0  0  0
   23.5232   52.0313   35.8675 C   0  0  0  0  0  0  0  0  0  0  0  0
   24.4492   53.0486   35.3997 N   0  0  0  0  0  0  0  0  0  0  0  0
  1  2  1  0  0  0  0
  2  3  1  0  0  0  0
  3  4  1  0  0  0  0
  4  5  1  0  0  0  0
  5  6  1  0  0  0  0
  6  7  1  0  0  0  0
  7  8  1  0  0  0  0
  8  9  1  0  0  0  0
  9 10  1  0  0  0  0
 10 11  1  0  0  0  0
 11 12  1  0  0  0  0
 12 13  1  0  0  0  0
 13 14  1  0  0  0  0
M  END
>  <CHROM.1>
179.27067489,179.06353117,-104.77863368,55.82025027,166.32140239,-177.32633334
166.50039101,-179.09621267,-178.35644653,171.11518306,-66.53799793,28.07772180
48.88824480,38.65726667,-0.35065467,0.65619025,-1.52411287

>  <Name>
ligand

>  <RI>
0

>  <Rbt.Current_Directory>
/home/itssahil/PROJECTS/Mol_Feturizer/New_Systems/rnas/4P5J

>  <Rbt.Executable>
rbdock ($Id: //depot/dev/client3/rdock/2013.1/src/exe/rbdock.cxx#4 $)

>  <Rbt.Library>
libRbt.so (2013.1, Build901 2013/11/27)

>  <Rbt.Parameter_File>
/export/apps/rDock/src/rDock_2013.1_src/data/scripts/dock_solv.prm

>  <Rbt.Receptor>
prm/pocket_docking_6.prm

>  <SCORE>
-3.48423

>  <SCORE.INTER>
4.77436

>  <SCORE.INTER.CONST>
1

>  <SCORE.INTER.POLAR>
0

>  <SCORE.INTER.ROT>
11

>  <SCORE.INTER.SOLV>
5.69325

>  <SCORE.INTER.VDW>
-9.64818

>  <SCORE.INTER.norm>
0.341026

>  <SCORE.INTRA>
-8.25893

>  <SCORE.INTRA.DIHEDRAL>
-14.6587

>  <SCORE.INTRA.DIHEDRAL.0>
17.5233

>  <SCORE.INTRA.POLAR>
0

>  <SCORE.INTRA.POLAR.0>
0

>  <SCORE.INTRA.REPUL>
0

>  <SCORE.INTRA.REPUL.0>
0

>  <SCORE.INTRA.SOLV>
-1.89982

>  <SCORE.INTRA.SOLV.lig_0>
-46.1043

>  <SCORE.INTRA.VDW>
0.0203106

>  <SCORE.INTRA.VDW.0>
-0.545445

>  <SCORE.INTRA.norm>
-0.589924

>  <SCORE.RESTR>
0.000336229

>  <SCORE.RESTR.CAVITY>
0.000336229

>  <SCORE.RESTR.norm>
2.40163e-05

>  <SCORE.SYSTEM>
0

>  <SCORE.SYSTEM.CONST>
0

>  <SCORE.SYSTEM.DIHEDRAL>
0

>  <SCORE.SYSTEM.SOLV>
0

>  <SCORE.SYSTEM.norm>
0

>  <SCORE.heavy>
14

>  <SCORE.norm>
-0.248874

>  <RMSD>
3.844

$$$$
ligand
 OpenBabel11021811513D
libRbt.so/2013.1/901 2013/11/27
 14 13  0  0  0  0  0  0  0  0999 V2000
   30.2089   52.2995   35.6406 N   0  0  0  0  0  0  0  0  0  0  0  0
   29.2683   51.2161   35.8758 C   0  0  0  0  0  0  0  0  0  0  0  0
   28.8566   51.1806   37.3438 C   0  0  0  0  0  0  0  0  0  0  0  0
   27.8739   50.0463   37.6123 C   0  0  0  0  0  0  0  0  0  0  0  0
   27.4644   49.9691   39.0114 N   0  0  0  0  0  0  0  0  0  0  0  0
   28.4116   49.5728   40.0398 C   0  0  0  0  0  0  0  0  0  0  0  0
   29.0639   48.2244   39.7553 C   0  0  0  0  0  0  0  0  0  0  0  0
   29.8634   47.7648   40.9694 C   0  0  0  0  0  0  0  0  0  0  0  0
   30.5461   46.4357   40.6653 C   0  0  0  0  0  0  0  0  0  0  0  0
   31.5827   46.5725   39.6567 N   0  0  0  0  0  0  0  0  0  0  0  0
   31.3447   46.0653   38.3119 C   0  0  0  0  0  0  0  0  0  0  0  0
   31.4199   44.5457   38.1801 C   0  0  0  0  0  0  0  0  0  0  0  0
   31.2620   44.1218   36.7189 C   0  0  0  0  0  0  0  0  0  0  0  0
   32.3990   44.5778   35.9375 N   0  0  0  0  0  0  0  0  0  0  0  0
  1  2  1  0  0  0  0
  2  3  1  0  0  0  0
  3  4  1  0  0  0  0
  4  5  1  0  0  0  0
  5  6  1  0  0  0  0
  6  7  1  0  0  0  0
  7  8  1  0  0  0  0
  8  9  1  0  0  0  0
  9 10  1  0  0  0  0
 10 11  1  0  0  0  0
 11 12  1  0  0  0  0
 12 13  1  0  0  0  0
 13 14  1  0  0  0  0
M  END
>  <CHROM.1>
-179.76194533,179.42357596,-68.46636884,-55.43406501,-170.75048134,-178.37690645
67.45184473,-106.53513953,-75.04907225,-175.71850732,66.54061395,29.96878539
48.04219048,38.26592371,-2.50577314,-1.02246849,2.18083986

>  <Name>
ligand

>  <RI>
0

>  <Rbt.Current_Directory>
/home/itssahil/PROJECTS/Mol_Feturizer/New_Systems/rnas/4P5J

>  <Rbt.Executable>
rbdock ($Id: //depot/dev/client3/rdock/2013.1/src/exe/rbdock.cxx#4 $)

>  <Rbt.Library>
libRbt.so (2013.1, Build901 2013/11/27)

>  <Rbt.Parameter_File>
/export/apps/rDock/src/rDock_2013.1_src/data/scripts/dock_solv.prm

>  <Rbt.Receptor>
prm/pocket_docking_4.prm

>  <SCORE>
-1.4242

>  <SCORE.INTER>
6.43949

>  <SCORE.INTER.CONST>
1

>  <SCORE.INTER.POLAR>
0

>  <SCORE.INTER.ROT>
11

>  <SCORE.INTER.SOLV>
6.52156

>  <SCORE.INTER.VDW>
-8.81419

>  <SCORE.INTER.norm>
0.459964

>  <SCORE.INTRA>
-7.86369

>  <SCORE.INTRA.DIHEDRAL>
-15.4477

>  <SCORE.INTRA.DIHEDRAL.0>
17.5233

>  <SCORE.INTRA.POLAR>
0

>  <SCORE.INTRA.POLAR.0>
0

>  <SCORE.INTRA.REPUL>
0

>  <SCORE.INTRA.REPUL.0>
0

>  <SCORE.INTRA.SOLV>
-1.5343

>  <SCORE.INTRA.SOLV.lig_0>
-46.1043

>  <SCORE.INTRA.VDW>
0.627336

>  <SCORE.INTRA.VDW.0>
-0.545445

>  <SCORE.INTRA.norm>
-0.561692

>  <SCORE.RESTR>
0

>  <SCORE.RESTR.CAVITY>
0

>  <SCORE.RESTR.norm>
0

>  <SCORE.SYSTEM>
0

>  <SCORE.SYSTEM.CONST>
0

>  <SCORE.SYSTEM.DIHEDRAL>
0

>  <SCORE.SYSTEM.SOLV>
0

>  <SCORE.SYSTEM.norm>
0

>  <SCORE.heavy>
14

>  <SCORE.norm>
-0.101728

>  <RMSD>
3.863

$$$$
ligand
 OpenBabel11021811513D
libRbt.so/2013.1/901 2013/11/27
 14 13  0  0  0  0  0  0  0  0999 V2000
   24.0677   53.3785   38.7329 N   0  0  0  0  0  0  0  0  0  0  0  0
   23.3221   53.4626   37.4875 C   0  0  0  0  0  0  0  0  0  0  0  0
   22.9971   52.0658   36.9687 C   0  0  0  0  0  0  0  0  0  0  0  0
   24.2645   51.3190   36.5683 C   0  0  0  0  0  0  0  0  0  0  0  0
   25.0933   50.9527   37.7129 N   0  0  0  0  0  0  0  0  0  0  0  0
   26.3504   50.2491   37.5223 C   0  0  0  0  0  0  0  0  0  0  0  0
   27.1085   50.0283   38.8267 C   0  0  0  0  0  0  0  0  0  0  0  0
   28.4505   49.3622   38.5441 C   0  0  0  0  0  0  0  0  0  0  0  0
   29.1834   49.1003   39.8554 C   0  0  0  0  0  0  0  0  0  0  0  0
   30.3843   48.3064   39.6606 N   0  0  0  0  0  0  0  0  0  0  0  0
   30.3933   46.9089   40.0722 C   0  0  0  0  0  0  0  0  0  0  0  0
   30.3416   46.6878   41.5824 C   0  0  0  0  0  0  0  0  0  0  0  0
   30.5404   45.2090   41.9189 C   0  0  0  0  0  0  0  0  0  0  0  0
   30.5139   45.0130   43.3583 N   0  0  0  0  0  0  0  0  0  0  0  0
  1  2  1  0  0  0  0
  2  3  1  0  0  0  0
  3  4  1  0  0  0  0
  4  5  1  0  0  0  0
  5  6  1  0  0  0  0
  6  7  1  0  0  0  0
  7  8  1  0  0  0  0
  8  9  1  0  0  0  0
  9 10  1  0  0  0  0
 10 11  1  0  0  0  0
 11 12  1  0  0  0  0
 12 13  1  0  0  0  0
 13 14  1  0  0  0  0
M  END
>  <CHROM.1>
-66.03459752,69.68724820,-179.22991343,176.62414317,-176.63701671,-178.06917855
172.25328214,-106.25595397,-68.73727878,-172.55253678,178.96935279,27.35784955
49.43168531,39.20052910,2.43249768,0.50676885,-1.11318080

>  <Name>
ligand

>  <RI>
0

>  <Rbt.Current_Directory>
/home/itssahil/PROJECTS/Mol_Feturizer/New_Systems/rnas/4P5J

>  <Rbt.Executable>
rbdock ($Id: //depot/dev/client3/rdock/2013.1/src/exe/rbdock.cxx#4 $)

>  <Rbt.Library>
libRbt.so (2013.1, Build901 2013/11/27)

>  <Rbt.Parameter_File>
/export/apps/rDock/src/rDock_2013.1_src/data/scripts/dock_solv.prm

>  <Rbt.Receptor>
prm/pocket_docking_5.prm

>  <SCORE>
-3.11083

>  <SCORE.INTER>
4.75938

>  <SCORE.INTER.CONST>
1

>  <SCORE.INTER.POLAR>
0

>  <SCORE.INTER.ROT>
11

>  <SCORE.INTER.SOLV>
6.37719

>  <SCORE.INTER.VDW>
-9.88614

>  <SCORE.INTER.norm>
0.339956

>  <SCORE.INTRA>
-7.87021

>  <SCORE.INTRA.DIHEDRAL>
-15.4229

>  <SCORE.INTRA.DIHEDRAL.0>
17.5233

>  <SCORE.INTRA.POLAR>
0

>  <SCORE.INTRA.POLAR.0>
0

>  <SCORE.INTRA.REPUL>
0

>  <SCORE.INTRA.REPUL.0>
0

>  <SCORE.INTRA.SOLV>
0.396992

>  <SCORE.INTRA.SOLV.lig_0>
-46.1043

>  <SCORE.INTRA.VDW>
-0.357244

>  <SCORE.INTRA.VDW.0>
-0.545445

>  <SCORE.INTRA.norm>
-0.562158

>  <SCORE.RESTR>
0

>  <SCORE.RESTR.CAVITY>
0

>  <SCORE.RESTR.norm>
0

>  <SCORE.SYSTEM>
0

>  <SCORE.SYSTEM.CONST>
0

>  <SCORE.SYSTEM.DIHEDRAL>
0

>  <SCORE.SYSTEM.SOLV>
0

>  <SCORE.SYSTEM.norm>
0

>  <SCORE.heavy>
14

>  <SCORE.norm>
-0.222202

>  <RMSD>
3.864

$$$$
ligand
 OpenBabel11021811513D
libRbt.so/2013.1/901 2013/11/27
 14 13  0  0  0  0  0  0  0  0999 V2000
   35.1526   43.4529   42.6072 N   0  0  0  0  0  0  0  0  0  0  0  0
   35.0451   44.6435   41.7796 C   0  0  0  0  0  0  0  0  0  0  0  0
   33.6772   45.2931   41.9603 C   0  0  0  0  0  0  0  0  0  0  0  0
   32.5679   44.3999   41.4164 C   0  0  0  0  0  0  0  0  0  0  0  0
   31.2469   45.0144   41.5098 N   0  0  0  0  0  0  0  0  0  0  0  0
   30.7908   45.9484   40.4942 C   0  0  0  0  0  0  0  0  0  0  0  0
   29.7753   46.9528   41.0275 C   0  0  0  0  0  0  0  0  0  0  0  0
   29.3995   47.9460   39.9335 C   0  0  0  0  0  0  0  0  0  0  0  0
   28.4443   48.9944   40.4936 C   0  0  0  0  0  0  0  0  0  0  0  0
   28.0736   49.9835   39.4963 N   0  0  0  0  0  0  0  0  0  0  0  0
   26.9022   49.7539   38.6610 C   0  0  0  0  0  0  0  0  0  0  0  0
   26.4662   50.9574   37.8280 C   0  0  0  0  0  0  0  0  0  0  0  0
   25.1965   50.6359   37.0379 C   0  0  0  0  0  0  0  0  0  0  0  0
   24.7898   51.7869   36.2499 N   0  0  0  0  0  0  0  0  0  0  0  0
  1  2  1  0  0  0  0
  2  3  1  0  0  0  0
  3  4  1  0  0  0  0
  4  5  1  0  0  0  0
  5  6  1  0  0  0  0
  6  7  1  0  0  0  0
  7  8  1  0  0  0  0
  8  9  1  0  0  0  0
  9 10  1  0  0  0  0
 10 11  1  0  0  0  0
 11 12  1  0  0  0  0
 12 13  1  0  0  0  0
 13 14  1  0  0  0  0
M  END
>  <CHROM.1>
-66.52533810,-177.14690490,82.96458271,-152.69703900,176.88392467,-176.83763723
178.88927920,89.99721925,169.70063678,-177.43140058,179.96414862,29.82342356
47.55449956,40.03540101,-0.76025814,-0.16500462,-0.42561861

>  <Name>
ligand

>  <RI>
0

>  <Rbt.Current_Directory>
/home/itssahil/PROJECTS/Mol_Feturizer/New_Systems/rnas/4P5J

>  <Rbt.Executable>
rbdock ($Id: //depot/dev/client3/rdock/2013.1/src/exe/rbdock.cxx#4 $)

>  <Rbt.Library>
libRbt.so (2013.1, Build901 2013/11/27)

>  <Rbt.Parameter_File>
/export/apps/rDock/src/rDock_2013.1_src/data/scripts/dock_solv.prm

>  <Rbt.Receptor>
prm/pocket_docking_5.prm

>  <SCORE>
-1.45928

>  <SCORE.INTER>
7.73752

>  <SCORE.INTER.CONST>
1

>  <SCORE.INTER.POLAR>
0

>  <SCORE.INTER.ROT>
11

>  <SCORE.INTER.SOLV>
6.30312

>  <SCORE.INTER.VDW>
-7.87603

>  <SCORE.INTER.norm>
0.55268

>  <SCORE.INTRA>
-9.1968

>  <SCORE.INTRA.DIHEDRAL>
-15.6404

>  <SCORE.INTRA.DIHEDRAL.0>
17.5233

>  <SCORE.INTRA.POLAR>
0

>  <SCORE.INTRA.POLAR.0>
0

>  <SCORE.INTRA.REPUL>
0

>  <SCORE.INTRA.REPUL.0>
0

>  <SCORE.INTRA.SOLV>
-1.99686

>  <SCORE.INTRA.SOLV.lig_0>
-46.1043

>  <SCORE.INTRA.VDW>
-0.378194

>  <SCORE.INTRA.VDW.0>
-0.545445

>  <SCORE.INTRA.norm>
-0.656914

>  <SCORE.RESTR>
0

>  <SCORE.RESTR.CAVITY>
0

>  <SCORE.RESTR.norm>
0

>  <SCORE.SYSTEM>
0

>  <SCORE.SYSTEM.CONST>
0

>  <SCORE.SYSTEM.DIHEDRAL>
0

>  <SCORE.SYSTEM.SOLV>
0

>  <SCORE.SYSTEM.norm>
0

>  <SCORE.heavy>
14

>  <SCORE.norm>
-0.104234

>  <RMSD>
3.875

$$$$
ligand
 OpenBabel11021811513D
libRbt.so/2013.1/901 2013/11/27
 14 13  0  0  0  0  0  0  0  0999 V2000
   22.9182   54.0667   41.6866 N   0  0  0  0  0  0  0  0  0  0  0  0
   22.5461   52.8935   40.9125 C   0  0  0  0  0  0  0  0  0  0  0  0
   23.4072   52.7910   39.6580 C   0  0  0  0  0  0  0  0  0  0  0  0
   23.0932   51.5196   38.8776 C   0  0  0  0  0  0  0  0  0  0  0  0
   23.9133   51.3719   37.6789 N   0  0  0  0  0  0  0  0  0  0  0  0
   24.9852   50.3918   37.6309 C   0  0  0  0  0  0  0  0  0  0  0  0
   26.2456   50.8577   38.3515 C   0  0  0  0  0  0  0  0  0  0  0  0
   27.3213   49.7803   38.2710 C   0  0  0  0  0  0  0  0  0  0  0  0
   28.5643   50.2339   39.0289 C   0  0  0  0  0  0  0  0  0  0  0  0
   29.6098   49.2253   39.0163 N   0  0  0  0  0  0  0  0  0  0  0  0
   29.5637   48.1342   39.9807 C   0  0  0  0  0  0  0  0  0  0  0  0
   30.5913   47.0294   39.7442 C   0  0  0  0  0  0  0  0  0  0  0  0
   30.4880   45.9549   40.8280 C   0  0  0  0  0  0  0  0  0  0  0  0
   30.8111   46.5189   42.1275 N   0  0  0  0  0  0  0  0  0  0  0  0
  1  2  1  0  0  0  0
  2  3  1  0  0  0  0
  3  4  1  0  0  0  0
  4  5  1  0  0  0  0
  5  6  1  0  0  0  0
  6  7  1  0  0  0  0
  7  8  1  0  0  0  0
  8  9  1  0  0  0  0
  9 10  1  0  0  0  0
 10 11  1  0  0  0  0
 11 12  1  0  0  0  0
 12 13  1  0  0  0  0
 13 14  1  0  0  0  0
M  END
>  <CHROM.1>
176.40339948,-179.03477692,106.80654557,-78.92358701,179.56428750,-178.29988603
178.35364390,-82.57730516,171.44445821,178.40736323,-63.48999993,26.71840273
50.05482994,39.55637893,3.10899437,0.65020087,-1.64160556

>  <Name>
ligand

>  <RI>
0

>  <Rbt.Current_Directory>
/home/itssahil/PROJECTS/Mol_Feturizer/New_Systems/rnas/4P5J

>  <Rbt.Executable>
rbdock ($Id: //depot/dev/client3/rdock/2013.1/src/exe/rbdock.cxx#4 $)

>  <Rbt.Library>
libRbt.so (2013.1, Build901 2013/11/27)

>  <Rbt.Parameter_File>
/export/apps/rDock/src/rDock_2013.1_src/data/scripts/dock_solv.prm

>  <Rbt.Receptor>
prm/pocket_docking_4.prm

>  <SCORE>
-3.21371

>  <SCORE.INTER>
5.86272

>  <SCORE.INTER.CONST>
1

>  <SCORE.INTER.POLAR>
0

>  <SCORE.INTER.ROT>
11

>  <SCORE.INTER.SOLV>
4.75844

>  <SCORE.INTER.VDW>
-8.611

>  <SCORE.INTER.norm>
0.418766

>  <SCORE.INTRA>
-9.08517

>  <SCORE.INTRA.DIHEDRAL>
-15.6269

>  <SCORE.INTRA.DIHEDRAL.0>
17.5233

>  <SCORE.INTRA.POLAR>
0

>  <SCORE.INTRA.POLAR.0>
0

>  <SCORE.INTRA.REPUL>
0

>  <SCORE.INTRA.REPUL.0>
0

>  <SCORE.INTRA.SOLV>
-1.91883

>  <SCORE.INTRA.SOLV.lig_0>
-46.1043

>  <SCORE.INTRA.VDW>
-0.312328

>  <SCORE.INTRA.VDW.0>
-0.545445

>  <SCORE.INTRA.norm>
-0.648941

>  <SCORE.RESTR>
0.00873784

>  <SCORE.RESTR.CAVITY>
0.00873784

>  <SCORE.RESTR.norm>
0.000624132

>  <SCORE.SYSTEM>
0

>  <SCORE.SYSTEM.CONST>
0

>  <SCORE.SYSTEM.DIHEDRAL>
0

>  <SCORE.SYSTEM.SOLV>
0

>  <SCORE.SYSTEM.norm>
0

>  <SCORE.heavy>
14

>  <SCORE.norm>
-0.229551

>  <RMSD>
3.878

$$$$
ligand
 OpenBabel11021811513D
libRbt.so/2013.1/901 2013/11/27
 14 13  0  0  0  0  0  0  0  0999 V2000
   32.0646   46.0248   37.5418 N   0  0  0  0  0  0  0  0  0  0  0  0
   32.1092   46.1747   38.9873 C   0  0  0  0  0  0  0  0  0  0  0  0
   30.7681   46.6788   39.5098 C   0  0  0  0  0  0  0  0  0  0  0  0
   30.4728   48.0852   39.0008 C   0  0  0  0  0  0  0  0  0  0  0  0
   29.2393   48.6405   39.5498 N   0  0  0  0  0  0  0  0  0  0  0  0
   28.3978   49.5121   38.7474 C   0  0  0  0  0  0  0  0  0  0  0  0
   26.9349   49.4805   39.1760 C   0  0  0  0  0  0  0  0  0  0  0  0
   26.1025   50.3675   38.2569 C   0  0  0  0  0  0  0  0  0  0  0  0
   24.6471   50.3607   38.7117 C   0  0  0  0  0  0  0  0  0  0  0  0
   23.8533   51.3596   38.0170 N   0  0  0  0  0  0  0  0  0  0  0  0
   22.7040   51.9536   38.6871 C   0  0  0  0  0  0  0  0  0  0  0  0
   23.0530   52.9563   39.7849 C   0  0  0  0  0  0  0  0  0  0  0  0
   21.7954   53.3893   40.5404 C   0  0  0  0  0  0  0  0  0  0  0  0
   22.1398   54.3323   41.5908 N   0  0  0  0  0  0  0  0  0  0  0  0
  1  2  1  0  0  0  0
  2  3  1  0  0  0  0
  3  4  1  0  0  0  0
  4  5  1  0  0  0  0
  5  6  1  0  0  0  0
  6  7  1  0  0  0  0
  7  8  1  0  0  0  0
  8  9  1  0  0  0  0
  9 10  1  0  0  0  0
 10 11  1  0  0  0  0
 11 12  1  0  0  0  0
 12 13  1  0  0  0  0
 13 14  1  0  0  0  0
M  END
>  <CHROM.1>
-65.09184328,-176.15159862,-145.29233970,153.67334103,-177.54968631,-178.53835096
170.25707693,-150.67022587,73.65657874,-172.95288863,179.42743285,26.73436239
49.95108275,39.15010715,0.36601432,0.51334697,-2.04092367

>  <Name>
ligand

>  <RI>
0

>  <Rbt.Current_Directory>
/home/itssahil/PROJECTS/Mol_Feturizer/New_Systems/rnas/4P5J

>  <Rbt.Executable>
rbdock ($Id: //depot/dev/client3/rdock/2013.1/src/exe/rbdock.cxx#4 $)

>  <Rbt.Library>
libRbt.so (2013.1, Build901 2013/11/27)

>  <Rbt.Parameter_File>
/export/apps/rDock/src/rDock_2013.1_src/data/scripts/dock_solv.prm

>  <Rbt.Receptor>
prm/pocket_docking_5.prm

>  <SCORE>
-3.08502

>  <SCORE.INTER>
5.72766

>  <SCORE.INTER.CONST>
1

>  <SCORE.INTER.POLAR>
0

>  <SCORE.INTER.ROT>
11

>  <SCORE.INTER.SOLV>
6.53076

>  <SCORE.INTER.VDW>
-9.29182

>  <SCORE.INTER.norm>
0.409118

>  <SCORE.INTRA>
-8.81268

>  <SCORE.INTRA.DIHEDRAL>
-14.8422

>  <SCORE.INTRA.DIHEDRAL.0>
17.5233

>  <SCORE.INTRA.POLAR>
0

>  <SCORE.INTRA.POLAR.0>
0

>  <SCORE.INTRA.REPUL>
0

>  <SCORE.INTRA.REPUL.0>
0

>  <SCORE.INTRA.SOLV>
-1.97578

>  <SCORE.INTRA.SOLV.lig_0>
-46.1043

>  <SCORE.INTRA.VDW>
-0.403661

>  <SCORE.INTRA.VDW.0>
-0.545445

>  <SCORE.INTRA.norm>
-0.629477

>  <SCORE.RESTR>
0

>  <SCORE.RESTR.CAVITY>
0

>  <SCORE.RESTR.norm>
0

>  <SCORE.SYSTEM>
0

>  <SCORE.SYSTEM.CONST>
0

>  <SCORE.SYSTEM.DIHEDRAL>
0

>  <SCORE.SYSTEM.SOLV>
0

>  <SCORE.SYSTEM.norm>
0

>  <SCORE.heavy>
14

>  <SCORE.norm>
-0.220359

>  <RMSD>
3.884

$$$$
ligand
 OpenBabel11021811513D
libRbt.so/2013.1/901 2013/11/27
 14 13  0  0  0  0  0  0  0  0999 V2000
   24.8392   54.0296   38.3801 N   0  0  0  0  0  0  0  0  0  0  0  0
   23.6838   54.0177   37.4976 C   0  0  0  0  0  0  0  0  0  0  0  0
   22.9911   52.6600   37.5491 C   0  0  0  0  0  0  0  0  0  0  0  0
   23.8214   51.5918   36.8464 C   0  0  0  0  0  0  0  0  0  0  0  0
   25.0726   51.2984   37.5389 N   0  0  0  0  0  0  0  0  0  0  0  0
   25.8963   50.1714   37.1349 C   0  0  0  0  0  0  0  0  0  0  0  0
   27.1356   50.0018   38.0067 C   0  0  0  0  0  0  0  0  0  0  0  0
   26.7272   49.6323   39.4283 C   0  0  0  0  0  0  0  0  0  0  0  0
   27.9702   49.3617   40.2690 C   0  0  0  0  0  0  0  0  0  0  0  0
   28.7001   48.1947   39.8044 N   0  0  0  0  0  0  0  0  0  0  0  0
   29.7398   47.6183   40.6467 C   0  0  0  0  0  0  0  0  0  0  0  0
   30.5374   46.4908   39.9949 C   0  0  0  0  0  0  0  0  0  0  0  0
   31.3176   47.0101   38.7860 C   0  0  0  0  0  0  0  0  0  0  0  0
   32.1480   45.9542   38.2324 N   0  0  0  0  0  0  0  0  0  0  0  0
  1  2  1  0  0  0  0
  2  3  1  0  0  0  0
  3  4  1  0  0  0  0
  4  5  1  0  0  0  0
  5  6  1  0  0  0  0
  6  7  1  0  0  0  0
  7  8  1  0  0  0  0
  8  9  1  0  0  0  0
  9 10  1  0  0  0  0
 10 11  1  0  0  0  0
 11 12  1  0  0  0  0
 12 13  1  0  0  0  0
 13 14  1  0  0  0  0
M  END
>  <CHROM.1>
-71.82316295,67.07316109,170.61043323,-178.05769441,65.72845687,175.77657872
-65.21939735,-166.88020491,-173.79549407,63.83167141,175.85125093,27.18409687
49.85949345,38.57970444,3.11628117,0.74332355,-1.84083499

>  <Name>
ligand

>  <RI>
0

>  <Rbt.Current_Directory>
/home/itssahil/PROJECTS/Mol_Feturizer/New_Systems/rnas/4P5J

>  <Rbt.Executable>
rbdock ($Id: //depot/dev/client3/rdock/2013.1/src/exe/rbdock.cxx#4 $)

>  <Rbt.Library>
libRbt.so (2013.1, Build901 2013/11/27)

>  <Rbt.Parameter_File>
/export/apps/rDock/src/rDock_2013.1_src/data/scripts/dock_solv.prm

>  <Rbt.Receptor>
prm/pocket_docking_5.prm

>  <SCORE>
-3.55049

>  <SCORE.INTER>
4.60424

>  <SCORE.INTER.CONST>
1

>  <SCORE.INTER.POLAR>
0

>  <SCORE.INTER.ROT>
11

>  <SCORE.INTER.SOLV>
6.83062

>  <SCORE.INTER.VDW>
-10.1407

>  <SCORE.INTER.norm>
0.328875

>  <SCORE.INTRA>
-8.15474

>  <SCORE.INTRA.DIHEDRAL>
-16.1619

>  <SCORE.INTRA.DIHEDRAL.0>
17.5233

>  <SCORE.INTRA.POLAR>
0

>  <SCORE.INTRA.POLAR.0>
0

>  <SCORE.INTRA.REPUL>
0

>  <SCORE.INTRA.REPUL.0>
0

>  <SCORE.INTRA.SOLV>
1.19206

>  <SCORE.INTRA.SOLV.lig_0>
-46.1043

>  <SCORE.INTRA.VDW>
-0.669796

>  <SCORE.INTRA.VDW.0>
-0.545445

>  <SCORE.INTRA.norm>
-0.582481

>  <SCORE.RESTR>
0

>  <SCORE.RESTR.CAVITY>
0

>  <SCORE.RESTR.norm>
0

>  <SCORE.SYSTEM>
0

>  <SCORE.SYSTEM.CONST>
0

>  <SCORE.SYSTEM.DIHEDRAL>
0

>  <SCORE.SYSTEM.SOLV>
0

>  <SCORE.SYSTEM.norm>
0

>  <SCORE.heavy>
14

>  <SCORE.norm>
-0.253607

>  <RMSD>
3.899

$$$$
ligand
 OpenBabel11021811513D
libRbt.so/2013.1/901 2013/11/27
 14 13  0  0  0  0  0  0  0  0999 V2000
   23.9690   53.0964   35.4509 N   0  0  0  0  0  0  0  0  0  0  0  0
   23.6755   51.9130   36.2431 C   0  0  0  0  0  0  0  0  0  0  0  0
   24.5625   51.8715   37.4830 C   0  0  0  0  0  0  0  0  0  0  0  0
   24.3382   50.5896   38.2772 C   0  0  0  0  0  0  0  0  0  0  0  0
   25.1835   50.5018   39.4642 N   0  0  0  0  0  0  0  0  0  0  0  0
   26.1227   49.4047   39.6253 C   0  0  0  0  0  0  0  0  0  0  0  0
   27.5164   49.7378   39.1043 C   0  0  0  0  0  0  0  0  0  0  0  0
   27.4598   50.0225   37.6075 C   0  0  0  0  0  0  0  0  0  0  0  0
   28.8717   50.2136   37.0644 C   0  0  0  0  0  0  0  0  0  0  0  0
   29.6540   48.9915   37.1351 N   0  0  0  0  0  0  0  0  0  0  0  0
   31.0891   49.0448   36.8896 C   0  0  0  0  0  0  0  0  0  0  0  0
   31.7640   47.6819   36.7506 C   0  0  0  0  0  0  0  0  0  0  0  0
   31.5357   46.8358   38.0042 C   0  0  0  0  0  0  0  0  0  0  0  0
   32.2698   45.5856   37.9075 N   0  0  0  0  0  0  0  0  0  0  0  0
  1  2  1  0  0  0  0
  2  3  1  0  0  0  0
  3  4  1  0  0  0  0
  4  5  1  0  0  0  0
  5  6  1  0  0  0  0
  6  7  1  0  0  0  0
  7  8  1  0  0  0  0
  8  9  1  0  0  0  0
  9 10  1  0  0  0  0
 10 11  1  0  0  0  0
 11 12  1  0  0  0  0
 12 13  1  0  0  0  0
 13 14  1  0  0  0  0
M  END
>  <CHROM.1>
-176.07761960,179.19607998,-120.24066836,92.92246802,-61.99474694,-174.21481560
66.17713637,-168.91018260,-169.87007222,-57.79800936,-175.43290019,27.71513430
49.67795089,37.64340340,-2.83521027,-0.46480205,2.13746562

>  <Name>
ligand

>  <RI>
0

>  <Rbt.Current_Directory>
/home/itssahil/PROJECTS/Mol_Feturizer/New_Systems/rnas/4P5J

>  <Rbt.Executable>
rbdock ($Id: //depot/dev/client3/rdock/2013.1/src/exe/rbdock.cxx#4 $)

>  <Rbt.Library>
libRbt.so (2013.1, Build901 2013/11/27)

>  <Rbt.Parameter_File>
/export/apps/rDock/src/rDock_2013.1_src/data/scripts/dock_solv.prm

>  <Rbt.Receptor>
prm/pocket_docking_6.prm

>  <SCORE>
-2.73342

>  <SCORE.INTER>
6.06415

>  <SCORE.INTER.CONST>
1

>  <SCORE.INTER.POLAR>
0

>  <SCORE.INTER.ROT>
11

>  <SCORE.INTER.SOLV>
6.09259

>  <SCORE.INTER.VDW>
-8.92143

>  <SCORE.INTER.norm>
0.433154

>  <SCORE.INTRA>
-8.79757

>  <SCORE.INTRA.DIHEDRAL>
-14.9963

>  <SCORE.INTRA.DIHEDRAL.0>
17.5233

>  <SCORE.INTRA.POLAR>
0

>  <SCORE.INTRA.POLAR.0>
0

>  <SCORE.INTRA.REPUL>
0

>  <SCORE.INTRA.REPUL.0>
0

>  <SCORE.INTRA.SOLV>
-1.55995

>  <SCORE.INTRA.SOLV.lig_0>
-46.1043

>  <SCORE.INTRA.VDW>
-0.51943

>  <SCORE.INTRA.VDW.0>
-0.545445

>  <SCORE.INTRA.norm>
-0.628398

>  <SCORE.RESTR>
0

>  <SCORE.RESTR.CAVITY>
0

>  <SCORE.RESTR.norm>
0

>  <SCORE.SYSTEM>
0

>  <SCORE.SYSTEM.CONST>
0

>  <SCORE.SYSTEM.DIHEDRAL>
0

>  <SCORE.SYSTEM.SOLV>
0

>  <SCORE.SYSTEM.norm>
0

>  <SCORE.heavy>
14

>  <SCORE.norm>
-0.195244

>  <RMSD>
3.950

$$$$
ligand
 OpenBabel11021811513D
libRbt.so/2013.1/901 2013/11/27
 14 13  0  0  0  0  0  0  0  0999 V2000
   32.2813   45.8080   39.0524 N   0  0  0  0  0  0  0  0  0  0  0  0
   30.9912   46.0854   39.6628 C   0  0  0  0  0  0  0  0  0  0  0  0
   30.6435   47.5634   39.5194 C   0  0  0  0  0  0  0  0  0  0  0  0
   29.3141   47.8837   40.1933 C   0  0  0  0  0  0  0  0  0  0  0  0
   28.9102   49.2758   40.0195 N   0  0  0  0  0  0  0  0  0  0  0  0
   28.3228   49.7260   38.7688 C   0  0  0  0  0  0  0  0  0  0  0  0
   26.8016   49.8126   38.8271 C   0  0  0  0  0  0  0  0  0  0  0  0
   26.2530   50.2727   37.4811 C   0  0  0  0  0  0  0  0  0  0  0  0
   24.7308   50.3401   37.5395 C   0  0  0  0  0  0  0  0  0  0  0  0
   24.2644   51.3450   38.4793 N   0  0  0  0  0  0  0  0  0  0  0  0
   22.8893   51.8192   38.3966 C   0  0  0  0  0  0  0  0  0  0  0  0
   22.4472   52.7015   39.5621 C   0  0  0  0  0  0  0  0  0  0  0  0
   22.4260   51.9028   40.8665 C   0  0  0  0  0  0  0  0  0  0  0  0
   22.0076   52.7517   41.9690 N   0  0  0  0  0  0  0  0  0  0  0  0
  1  2  1  0  0  0  0
  2  3  1  0  0  0  0
  3  4  1  0  0  0  0
  4  5  1  0  0  0  0
  5  6  1  0  0  0  0
  6  7  1  0  0  0  0
  7  8  1  0  0  0  0
  8  9  1  0  0  0  0
  9 10  1  0  0  0  0
 10 11  1  0  0  0  0
 11 12  1  0  0  0  0
 12 13  1  0  0  0  0
 13 14  1  0  0  0  0
M  END
>  <CHROM.1>
-178.16003726,-177.02436066,78.27293419,99.27495702,-179.29271340,179.26977520
64.58732881,162.50947365,170.72646077,-65.47257355,179.85418216,26.59153286
49.80628860,39.30958174,-0.03609939,-0.56609740,1.57291770

>  <Name>
ligand

>  <RI>
0

>  <Rbt.Current_Directory>
/home/itssahil/PROJECTS/Mol_Feturizer/New_Systems/rnas/4P5J

>  <Rbt.Executable>
rbdock ($Id: //depot/dev/client3/rdock/2013.1/src/exe/rbdock.cxx#4 $)

>  <Rbt.Library>
libRbt.so (2013.1, Build901 2013/11/27)

>  <Rbt.Parameter_File>
/export/apps/rDock/src/rDock_2013.1_src/data/scripts/dock_solv.prm

>  <Rbt.Receptor>
prm/pocket_docking_8.prm

>  <SCORE>
-5.79106

>  <SCORE.INTER>
3.59771

>  <SCORE.INTER.CONST>
1

>  <SCORE.INTER.POLAR>
0

>  <SCORE.INTER.ROT>
11

>  <SCORE.INTER.SOLV>
5.01242

>  <SCORE.INTER.VDW>
-10.2057

>  <SCORE.INTER.norm>
0.256979

>  <SCORE.INTRA>
-9.38877

>  <SCORE.INTRA.DIHEDRAL>
-15.8429

>  <SCORE.INTRA.DIHEDRAL.0>
17.5233

>  <SCORE.INTRA.POLAR>
0

>  <SCORE.INTRA.POLAR.0>
0

>  <SCORE.INTRA.REPUL>
0

>  <SCORE.INTRA.REPUL.0>
0

>  <SCORE.INTRA.SOLV>
-2.01565

>  <SCORE.INTRA.SOLV.lig_0>
-46.1043

>  <SCORE.INTRA.VDW>
-0.459518

>  <SCORE.INTRA.VDW.0>
-0.545445

>  <SCORE.INTRA.norm>
-0.670626

>  <SCORE.RESTR>
0

>  <SCORE.RESTR.CAVITY>
0

>  <SCORE.RESTR.norm>
0

>  <SCORE.SYSTEM>
0

>  <SCORE.SYSTEM.CONST>
0

>  <SCORE.SYSTEM.DIHEDRAL>
0

>  <SCORE.SYSTEM.SOLV>
0

>  <SCORE.SYSTEM.norm>
0

>  <SCORE.heavy>
14

>  <SCORE.norm>
-0.413647

>  <RMSD>
3.971

$$$$
ligand
 OpenBabel11021811513D
libRbt.so/2013.1/901 2013/11/27
 14 13  0  0  0  0  0  0  0  0999 V2000
   32.4436   42.7365   37.2840 N   0  0  0  0  0  0  0  0  0  0  0  0
   31.2770   43.5890   37.1223 C   0  0  0  0  0  0  0  0  0  0  0  0
   31.6993   45.0502   37.0113 C   0  0  0  0  0  0  0  0  0  0  0  0
   32.5124   45.2932   35.7448 C   0  0  0  0  0  0  0  0  0  0  0  0
   32.8729   46.6960   35.5618 N   0  0  0  0  0  0  0  0  0  0  0  0
   31.9165   47.6407   35.0099 C   0  0  0  0  0  0  0  0  0  0  0  0
   31.2416   48.4923   36.0796 C   0  0  0  0  0  0  0  0  0  0  0  0
   30.1676   49.3702   35.4470 C   0  0  0  0  0  0  0  0  0  0  0  0
   29.4412   50.1595   36.5307 C   0  0  0  0  0  0  0  0  0  0  0  0
   28.7868   49.2903   37.4934 N   0  0  0  0  0  0  0  0  0  0  0  0
   28.6852   49.7108   38.8846 C   0  0  0  0  0  0  0  0  0  0  0  0
   28.8489   48.5864   39.9050 C   0  0  0  0  0  0  0  0  0  0  0  0
   30.2363   47.9523   39.7919 C   0  0  0  0  0  0  0  0  0  0  0  0
   30.4345   46.9834   40.8564 N   0  0  0  0  0  0  0  0  0  0  0  0
  1  2  1  0  0  0  0
  2  3  1  0  0  0  0
  3  4  1  0  0  0  0
  4  5  1  0  0  0  0
  5  6  1  0  0  0  0
  6  7  1  0  0  0  0
  7  8  1  0  0  0  0
  8  9  1  0  0  0  0
  9 10  1  0  0  0  0
 10 11  1  0  0  0  0
 11 12  1  0  0  0  0
 12 13  1  0  0  0  0
 13 14  1  0  0  0  0
M  END
>  <CHROM.1>
65.14288034,176.76062658,-80.54907103,100.29015493,-175.03365203,176.73122619
-60.49259285,146.96919428,-142.72326826,61.83810802,173.95104192,30.75439616
47.25396433,37.33715945,0.33723495,-1.01606903,2.30801275

>  <Name>
ligand

>  <RI>
0

>  <Rbt.Current_Directory>
/home/itssahil/PROJECTS/Mol_Feturizer/New_Systems/rnas/4P5J

>  <Rbt.Executable>
rbdock ($Id: //depot/dev/client3/rdock/2013.1/src/exe/rbdock.cxx#4 $)

>  <Rbt.Library>
libRbt.so (2013.1, Build901 2013/11/27)

>  <Rbt.Parameter_File>
/export/apps/rDock/src/rDock_2013.1_src/data/scripts/dock_solv.prm

>  <Rbt.Receptor>
prm/pocket_docking_4.prm

>  <SCORE>
-2.39121

>  <SCORE.INTER>
6.1918

>  <SCORE.INTER.CONST>
1

>  <SCORE.INTER.POLAR>
0

>  <SCORE.INTER.ROT>
11

>  <SCORE.INTER.SOLV>
7.30947

>  <SCORE.INTER.VDW>
-9.24196

>  <SCORE.INTER.norm>
0.442271

>  <SCORE.INTRA>
-8.583

>  <SCORE.INTRA.DIHEDRAL>
-14.3549

>  <SCORE.INTRA.DIHEDRAL.0>
17.5233

>  <SCORE.INTRA.POLAR>
0

>  <SCORE.INTRA.POLAR.0>
0

>  <SCORE.INTRA.REPUL>
0

>  <SCORE.INTRA.REPUL.0>
0

>  <SCORE.INTRA.SOLV>
-1.05367

>  <SCORE.INTRA.SOLV.lig_0>
-46.1043

>  <SCORE.INTRA.VDW>
-0.878722

>  <SCORE.INTRA.VDW.0>
-0.545445

>  <SCORE.INTRA.norm>
-0.613072

>  <SCORE.RESTR>
0

>  <SCORE.RESTR.CAVITY>
0

>  <SCORE.RESTR.norm>
0

>  <SCORE.SYSTEM>
0

>  <SCORE.SYSTEM.CONST>
0

>  <SCORE.SYSTEM.DIHEDRAL>
0

>  <SCORE.SYSTEM.SOLV>
0

>  <SCORE.SYSTEM.norm>
0

>  <SCORE.heavy>
14

>  <SCORE.norm>
-0.170801

>  <RMSD>
3.988

$$$$
ligand
 OpenBabel11021811513D
libRbt.so/2013.1/901 2013/11/27
 14 13  0  0  0  0  0  0  0  0999 V2000
   33.3920   45.1808   36.5230 N   0  0  0  0  0  0  0  0  0  0  0  0
   31.9662   44.9263   36.3956 C   0  0  0  0  0  0  0  0  0  0  0  0
   31.3718   44.5502   37.7488 C   0  0  0  0  0  0  0  0  0  0  0  0
   31.4424   45.7192   38.7248 C   0  0  0  0  0  0  0  0  0  0  0  0
   30.8713   45.4039   40.0308 N   0  0  0  0  0  0  0  0  0  0  0  0
   30.5679   46.4604   40.9813 C   0  0  0  0  0  0  0  0  0  0  0  0
   29.3716   47.3076   40.5621 C   0  0  0  0  0  0  0  0  0  0  0  0
   29.1151   48.3970   41.5974 C   0  0  0  0  0  0  0  0  0  0  0  0
   27.9060   49.2288   41.1833 C   0  0  0  0  0  0  0  0  0  0  0  0
   28.1500   49.9763   39.9617 N   0  0  0  0  0  0  0  0  0  0  0  0
   27.4247   49.6224   38.7488 C   0  0  0  0  0  0  0  0  0  0  0  0
   28.0012   50.2146   37.4645 C   0  0  0  0  0  0  0  0  0  0  0  0
   29.4141   49.6854   37.2125 C   0  0  0  0  0  0  0  0  0  0  0  0
   29.9451   50.2383   35.9781 N   0  0  0  0  0  0  0  0  0  0  0  0
  1  2  1  0  0  0  0
  2  3  1  0  0  0  0
  3  4  1  0  0  0  0
  4  5  1  0  0  0  0
  5  6  1  0  0  0  0
  6  7  1  0  0  0  0
  7  8  1  0  0  0  0
  8  9  1  0  0  0  0
  9 10  1  0  0  0  0
 10 11  1  0  0  0  0
 11 12  1  0  0  0  0
 12 13  1  0  0  0  0
 13 14  1  0  0  0  0
M  END
>  <CHROM.1>
65.60319775,179.47060065,-165.78204816,71.09730840,-179.71112277,-179.20686847
-65.69289637,112.10109083,-165.10743493,62.97453418,179.10931618,29.92397462
47.63649096,38.79403844,-0.08173741,0.90735466,-1.10769351

>  <Name>
ligand

>  <RI>
0

>  <Rbt.Current_Directory>
/home/itssahil/PROJECTS/Mol_Feturizer/New_Systems/rnas/4P5J

>  <Rbt.Executable>
rbdock ($Id: //depot/dev/client3/rdock/2013.1/src/exe/rbdock.cxx#4 $)

>  <Rbt.Library>
libRbt.so (2013.1, Build901 2013/11/27)

>  <Rbt.Parameter_File>
/export/apps/rDock/src/rDock_2013.1_src/data/scripts/dock_solv.prm

>  <Rbt.Receptor>
prm/pocket_docking_4.prm

>  <SCORE>
-3.24867

>  <SCORE.INTER>
5.76474

>  <SCORE.INTER.CONST>
1

>  <SCORE.INTER.POLAR>
0

>  <SCORE.INTER.ROT>
11

>  <SCORE.INTER.SOLV>
7.62705

>  <SCORE.INTER.VDW>
-9.63252

>  <SCORE.INTER.norm>
0.411767

>  <SCORE.INTRA>
-9.01509

>  <SCORE.INTRA.DIHEDRAL>
-15.6633

>  <SCORE.INTRA.DIHEDRAL.0>
17.5233

>  <SCORE.INTRA.POLAR>
0

>  <SCORE.INTRA.POLAR.0>
0

>  <SCORE.INTRA.REPUL>
0

>  <SCORE.INTRA.REPUL.0>
0

>  <SCORE.INTRA.SOLV>
-1.23472

>  <SCORE.INTRA.SOLV.lig_0>
-46.1043

>  <SCORE.INTRA.VDW>
-0.566103

>  <SCORE.INTRA.VDW.0>
-0.545445

>  <SCORE.INTRA.norm>
-0.643935

>  <SCORE.RESTR>
0.00167634

>  <SCORE.RESTR.CAVITY>
0.00167634

>  <SCORE.RESTR.norm>
0.000119739

>  <SCORE.SYSTEM>
0

>  <SCORE.SYSTEM.CONST>
0

>  <SCORE.SYSTEM.DIHEDRAL>
0

>  <SCORE.SYSTEM.SOLV>
0

>  <SCORE.SYSTEM.norm>
0

>  <SCORE.heavy>
14

>  <SCORE.norm>
-0.232048

>  <RMSD>
4.026

$$$$
ligand
 OpenBabel11021811513D
libRbt.so/2013.1/901 2013/11/27
 14 13  0  0  0  0  0  0  0  0999 V2000
   26.6424   55.3705   39.9347 N   0  0  0  0  0  0  0  0  0  0  0  0
   26.3587   54.1184   39.2522 C   0  0  0  0  0  0  0  0  0  0  0  0
   25.7643   54.3886   37.8740 C   0  0  0  0  0  0  0  0  0  0  0  0
   25.4947   53.0875   37.1264 C   0  0  0  0  0  0  0  0  0  0  0  0
   24.4635   52.2715   37.7604 N   0  0  0  0  0  0  0  0  0  0  0  0
   24.3516   50.8541   37.4600 C   0  0  0  0  0  0  0  0  0  0  0  0
   25.0785   49.9757   38.4723 C   0  0  0  0  0  0  0  0  0  0  0  0
   26.5835   50.1965   38.3693 C   0  0  0  0  0  0  0  0  0  0  0  0
   27.3010   49.3671   39.4288 C   0  0  0  0  0  0  0  0  0  0  0  0
   28.7412   49.5516   39.3837 N   0  0  0  0  0  0  0  0  0  0  0  0
   29.6139   48.3855   39.4199 C   0  0  0  0  0  0  0  0  0  0  0  0
   29.7147   47.7056   40.7837 C   0  0  0  0  0  0  0  0  0  0  0  0
   30.6774   46.5183   40.7254 C   0  0  0  0  0  0  0  0  0  0  0  0
   30.8493   45.9451   42.0494 N   0  0  0  0  0  0  0  0  0  0  0  0
  1  2  1  0  0  0  0
  2  3  1  0  0  0  0
  3  4  1  0  0  0  0
  4  5  1  0  0  0  0
  5  6  1  0  0  0  0
  6  7  1  0  0  0  0
  7  8  1  0  0  0  0
  8  9  1  0  0  0  0
  9 10  1  0  0  0  0
 10 11  1  0  0  0  0
 11 12  1  0  0  0  0
 12 13  1  0  0  0  0
 13 14  1  0  0  0  0
M  END
>  <CHROM.1>
178.45565012,65.48216287,-160.92999376,95.48223217,-67.16370186,177.26517161
-179.40691087,-132.93047252,-73.53327062,-178.59452404,175.42823574,27.25945350
50.55248292,39.14548250,-2.32213746,0.60181778,-3.04190911

>  <Name>
ligand

>  <RI>
0

>  <Rbt.Current_Directory>
/home/itssahil/PROJECTS/Mol_Feturizer/New_Systems/rnas/4P5J

>  <Rbt.Executable>
rbdock ($Id: //depot/dev/client3/rdock/2013.1/src/exe/rbdock.cxx#4 $)

>  <Rbt.Library>
libRbt.so (2013.1, Build901 2013/11/27)

>  <Rbt.Parameter_File>
/export/apps/rDock/src/rDock_2013.1_src/data/scripts/dock_solv.prm

>  <Rbt.Receptor>
prm/pocket_docking_4.prm

>  <SCORE>
-1.32119

>  <SCORE.INTER>
7.67895

>  <SCORE.INTER.CONST>
1

>  <SCORE.INTER.POLAR>
0

>  <SCORE.INTER.ROT>
11

>  <SCORE.INTER.SOLV>
3.77657

>  <SCORE.INTER.VDW>
-7.07289

>  <SCORE.INTER.norm>
0.548497

>  <SCORE.INTRA>
-9.00015

>  <SCORE.INTRA.DIHEDRAL>
-14.8336

>  <SCORE.INTRA.DIHEDRAL.0>
17.5233

>  <SCORE.INTRA.POLAR>
0

>  <SCORE.INTRA.POLAR.0>
0

>  <SCORE.INTRA.REPUL>
0

>  <SCORE.INTRA.REPUL.0>
0

>  <SCORE.INTRA.SOLV>
-1.9946

>  <SCORE.INTRA.SOLV.lig_0>
-46.1043

>  <SCORE.INTRA.VDW>
-0.58605

>  <SCORE.INTRA.VDW.0>
-0.545445

>  <SCORE.INTRA.norm>
-0.642868

>  <SCORE.RESTR>
0

>  <SCORE.RESTR.CAVITY>
0

>  <SCORE.RESTR.norm>
0

>  <SCORE.SYSTEM>
0

>  <SCORE.SYSTEM.CONST>
0

>  <SCORE.SYSTEM.DIHEDRAL>
0

>  <SCORE.SYSTEM.SOLV>
0

>  <SCORE.SYSTEM.norm>
0

>  <SCORE.heavy>
14

>  <SCORE.norm>
-0.094371

>  <RMSD>
4.056

$$$$
ligand
 OpenBabel11021811513D
libRbt.so/2013.1/901 2013/11/27
 14 13  0  0  0  0  0  0  0  0999 V2000
   23.1551   53.8958   40.0898 N   0  0  0  0  0  0  0  0  0  0  0  0
   22.9505   52.7629   39.2019 C   0  0  0  0  0  0  0  0  0  0  0  0
   23.6217   53.0159   37.8560 C   0  0  0  0  0  0  0  0  0  0  0  0
   23.4607   51.8178   36.9271 C   0  0  0  0  0  0  0  0  0  0  0  0
   24.1185   50.6160   37.4311 N   0  0  0  0  0  0  0  0  0  0  0  0
   25.4705   50.2820   37.0159 C   0  0  0  0  0  0  0  0  0  0  0  0
   26.4477   50.2113   38.1842 C   0  0  0  0  0  0  0  0  0  0  0  0
   27.8586   49.9493   37.6693 C   0  0  0  0  0  0  0  0  0  0  0  0
   28.8439   49.9630   38.8330 C   0  0  0  0  0  0  0  0  0  0  0  0
   28.5797   48.8975   39.7846 N   0  0  0  0  0  0  0  0  0  0  0  0
   29.6032   47.8914   40.0353 C   0  0  0  0  0  0  0  0  0  0  0  0
   29.3947   47.0718   41.3069 C   0  0  0  0  0  0  0  0  0  0  0  0
   30.4901   46.0142   41.4534 C   0  0  0  0  0  0  0  0  0  0  0  0
   30.3222   45.2858   42.6994 N   0  0  0  0  0  0  0  0  0  0  0  0
  1  2  1  0  0  0  0
  2  3  1  0  0  0  0
  3  4  1  0  0  0  0
  4  5  1  0  0  0  0
  5  6  1  0  0  0  0
  6  7  1  0  0  0  0
  7  8  1  0  0  0  0
  8  9  1  0  0  0  0
  9 10  1  0  0  0  0
 10 11  1  0  0  0  0
 11 12  1  0  0  0  0
 12 13  1  0  0  0  0
 13 14  1  0  0  0  0
M  END
>  <CHROM.1>
177.98534781,-63.49996008,-94.21102429,119.76939739,-176.26271253,176.62036916
63.37655831,119.24898005,163.45397760,177.98723874,177.10082505,26.73700660
49.83397087,39.17738890,2.73437445,0.70344132,-1.47329504

>  <Name>
ligand

>  <RI>
0

>  <Rbt.Current_Directory>
/home/itssahil/PROJECTS/Mol_Feturizer/New_Systems/rnas/4P5J

>  <Rbt.Executable>
rbdock ($Id: //depot/dev/client3/rdock/2013.1/src/exe/rbdock.cxx#4 $)

>  <Rbt.Library>
libRbt.so (2013.1, Build901 2013/11/27)

>  <Rbt.Parameter_File>
/export/apps/rDock/src/rDock_2013.1_src/data/scripts/dock_solv.prm

>  <Rbt.Receptor>
prm/pocket_docking_5.prm

>  <SCORE>
-4.67962

>  <SCORE.INTER>
3.89154

>  <SCORE.INTER.CONST>
1

>  <SCORE.INTER.POLAR>
0

>  <SCORE.INTER.ROT>
11

>  <SCORE.INTER.SOLV>
9.0036

>  <SCORE.INTER.VDW>
-11.3402

>  <SCORE.INTER.norm>
0.277967

>  <SCORE.INTRA>
-8.57116

>  <SCORE.INTRA.DIHEDRAL>
-13.929

>  <SCORE.INTRA.DIHEDRAL.0>
17.5233

>  <SCORE.INTRA.POLAR>
0

>  <SCORE.INTRA.POLAR.0>
0

>  <SCORE.INTRA.REPUL>
0

>  <SCORE.INTRA.REPUL.0>
0

>  <SCORE.INTRA.SOLV>
-1.93178

>  <SCORE.INTRA.SOLV.lig_0>
-46.1043

>  <SCORE.INTRA.VDW>
-0.640744

>  <SCORE.INTRA.VDW.0>
-0.545445

>  <SCORE.INTRA.norm>
-0.612226

>  <SCORE.RESTR>
0

>  <SCORE.RESTR.CAVITY>
0

>  <SCORE.RESTR.norm>
0

>  <SCORE.SYSTEM>
0

>  <SCORE.SYSTEM.CONST>
0

>  <SCORE.SYSTEM.DIHEDRAL>
0

>  <SCORE.SYSTEM.SOLV>
0

>  <SCORE.SYSTEM.norm>
0

>  <SCORE.heavy>
14

>  <SCORE.norm>
-0.334258

>  <RMSD>
4.061

$$$$
ligand
 OpenBabel11021811513D
libRbt.so/2013.1/901 2013/11/27
 14 13  0  0  0  0  0  0  0  0999 V2000
   23.0746   53.1662   40.9897 N   0  0  0  0  0  0  0  0  0  0  0  0
   22.0386   52.7688   40.0501 C   0  0  0  0  0  0  0  0  0  0  0  0
   22.4295   51.4734   39.3465 C   0  0  0  0  0  0  0  0  0  0  0  0
   23.6650   51.6716   38.4756 C   0  0  0  0  0  0  0  0  0  0  0  0
   24.1085   50.4395   37.8303 N   0  0  0  0  0  0  0  0  0  0  0  0
   25.4394   50.3421   37.2550 C   0  0  0  0  0  0  0  0  0  0  0  0
   26.5194   50.0917   38.3018 C   0  0  0  0  0  0  0  0  0  0  0  0
   27.8836   49.9864   37.6293 C   0  0  0  0  0  0  0  0  0  0  0  0
   28.9608   49.7454   38.6812 C   0  0  0  0  0  0  0  0  0  0  0  0
   28.7291   48.5220   39.4297 N   0  0  0  0  0  0  0  0  0  0  0  0
   29.6845   48.1163   40.4520 C   0  0  0  0  0  0  0  0  0  0  0  0
   29.3127   46.8391   41.2023 C   0  0  0  0  0  0  0  0  0  0  0  0
   30.3184   46.5571   42.3198 C   0  0  0  0  0  0  0  0  0  0  0  0
   29.9497   45.3467   43.0342 N   0  0  0  0  0  0  0  0  0  0  0  0
  1  2  1  0  0  0  0
  2  3  1  0  0  0  0
  3  4  1  0  0  0  0
  4  5  1  0  0  0  0
  5  6  1  0  0  0  0
  6  7  1  0  0  0  0
  7  8  1  0  0  0  0
  8  9  1  0  0  0  0
  9 10  1  0  0  0  0
 10 11  1  0  0  0  0
 11 12  1  0  0  0  0
 12 13  1  0  0  0  0
 13 14  1  0  0  0  0
M  END
>  <CHROM.1>
-65.01944376,177.41822379,-163.87088510,79.28805593,179.41476024,179.62094260
59.75746598,178.26486013,178.12474848,-175.72078664,179.52784581,26.57961270
49.64770278,39.64240726,2.69938655,0.55138293,-1.24986635

>  <Name>
ligand

>  <RI>
0

>  <Rbt.Current_Directory>
/home/itssahil/PROJECTS/Mol_Feturizer/New_Systems/rnas/4P5J

>  <Rbt.Executable>
rbdock ($Id: //depot/dev/client3/rdock/2013.1/src/exe/rbdock.cxx#4 $)

>  <Rbt.Library>
libRbt.so (2013.1, Build901 2013/11/27)

>  <Rbt.Parameter_File>
/export/apps/rDock/src/rDock_2013.1_src/data/scripts/dock_solv.prm

>  <Rbt.Receptor>
prm/pocket_docking_5.prm

>  <SCORE>
-4.71955

>  <SCORE.INTER>
4.73709

>  <SCORE.INTER.CONST>
1

>  <SCORE.INTER.POLAR>
0

>  <SCORE.INTER.ROT>
11

>  <SCORE.INTER.SOLV>
8.12113

>  <SCORE.INTER.VDW>
-10.4823

>  <SCORE.INTER.norm>
0.338364

>  <SCORE.INTRA>
-9.45664

>  <SCORE.INTRA.DIHEDRAL>
-16.8436

>  <SCORE.INTRA.DIHEDRAL.0>
17.5233

>  <SCORE.INTRA.POLAR>
0

>  <SCORE.INTRA.POLAR.0>
0

>  <SCORE.INTRA.REPUL>
0

>  <SCORE.INTRA.REPUL.0>
0

>  <SCORE.INTRA.SOLV>
-1.49785

>  <SCORE.INTRA.SOLV.lig_0>
-46.1043

>  <SCORE.INTRA.VDW>
-0.285906

>  <SCORE.INTRA.VDW.0>
-0.545445

>  <SCORE.INTRA.norm>
-0.675474

>  <SCORE.RESTR>
0

>  <SCORE.RESTR.CAVITY>
0

>  <SCORE.RESTR.norm>
0

>  <SCORE.SYSTEM>
0

>  <SCORE.SYSTEM.CONST>
0

>  <SCORE.SYSTEM.DIHEDRAL>
0

>  <SCORE.SYSTEM.SOLV>
0

>  <SCORE.SYSTEM.norm>
0

>  <SCORE.heavy>
14

>  <SCORE.norm>
-0.337111

>  <RMSD>
4.098

$$$$
ligand
 OpenBabel11021811513D
libRbt.so/2013.1/901 2013/11/27
 14 13  0  0  0  0  0  0  0  0999 V2000
   22.4724   53.9258   41.7273 N   0  0  0  0  0  0  0  0  0  0  0  0
   22.8423   52.5793   41.3222 C   0  0  0  0  0  0  0  0  0  0  0  0
   21.8050   52.0113   40.3593 C   0  0  0  0  0  0  0  0  0  0  0  0
   22.1157   50.5605   40.0090 C   0  0  0  0  0  0  0  0  0  0  0  0
   23.3891   50.4047   39.3123 N   0  0  0  0  0  0  0  0  0  0  0  0
   24.5767   49.9698   40.0280 C   0  0  0  0  0  0  0  0  0  0  0  0
   25.8150   49.9136   39.1402 C   0  0  0  0  0  0  0  0  0  0  0  0
   27.0311   49.5084   39.9656 C   0  0  0  0  0  0  0  0  0  0  0  0
   28.2610   49.4275   39.0679 C   0  0  0  0  0  0  0  0  0  0  0  0
   29.4458   49.0159   39.8008 N   0  0  0  0  0  0  0  0  0  0  0  0
   29.5794   47.6286   40.2251 C   0  0  0  0  0  0  0  0  0  0  0  0
   30.5655   46.8017   39.4028 C   0  0  0  0  0  0  0  0  0  0  0  0
   31.9921   47.3216   39.5879 C   0  0  0  0  0  0  0  0  0  0  0  0
   32.9131   46.5715   38.7510 N   0  0  0  0  0  0  0  0  0  0  0  0
  1  2  1  0  0  0  0
  2  3  1  0  0  0  0
  3  4  1  0  0  0  0
  4  5  1  0  0  0  0
  5  6  1  0  0  0  0
  6  7  1  0  0  0  0
  7  8  1  0  0  0  0
  8  9  1  0  0  0  0
  9 10  1  0  0  0  0
 10 11  1  0  0  0  0
 11 12  1  0  0  0  0
 12 13  1  0  0  0  0
 13 14  1  0  0  0  0
M  END
>  <CHROM.1>
-175.49163993,-62.80539286,100.16517078,-178.03297773,177.62197427,178.91314003
-178.75696058,73.31459105,104.86793085,65.64099568,-177.17697565,26.62869543
49.68846307,39.90710109,-2.65987924,0.16500474,-2.57716949

>  <Name>
ligand

>  <RI>
0

>  <Rbt.Current_Directory>
/home/itssahil/PROJECTS/Mol_Feturizer/New_Systems/rnas/4P5J

>  <Rbt.Executable>
rbdock ($Id: //depot/dev/client3/rdock/2013.1/src/exe/rbdock.cxx#4 $)

>  <Rbt.Library>
libRbt.so (2013.1, Build901 2013/11/27)

>  <Rbt.Parameter_File>
/export/apps/rDock/src/rDock_2013.1_src/data/scripts/dock_solv.prm

>  <Rbt.Receptor>
prm/pocket_docking_5.prm

>  <SCORE>
-3.12675

>  <SCORE.INTER>
5.77429

>  <SCORE.INTER.CONST>
1

>  <SCORE.INTER.POLAR>
0

>  <SCORE.INTER.ROT>
11

>  <SCORE.INTER.SOLV>
3.88543

>  <SCORE.INTER.VDW>
-8.37895

>  <SCORE.INTER.norm>
0.412449

>  <SCORE.INTRA>
-8.90104

>  <SCORE.INTRA.DIHEDRAL>
-15.1663

>  <SCORE.INTRA.DIHEDRAL.0>
17.5233

>  <SCORE.INTRA.POLAR>
0

>  <SCORE.INTRA.POLAR.0>
0

>  <SCORE.INTRA.REPUL>
0

>  <SCORE.INTRA.REPUL.0>
0

>  <SCORE.INTRA.SOLV>
-2.02462

>  <SCORE.INTRA.SOLV.lig_0>
-46.1043

>  <SCORE.INTRA.VDW>
-0.305602

>  <SCORE.INTRA.VDW.0>
-0.545445

>  <SCORE.INTRA.norm>
-0.635789

>  <SCORE.RESTR>
0

>  <SCORE.RESTR.CAVITY>
0

>  <SCORE.RESTR.norm>
0

>  <SCORE.SYSTEM>
0

>  <SCORE.SYSTEM.CONST>
0

>  <SCORE.SYSTEM.DIHEDRAL>
0

>  <SCORE.SYSTEM.SOLV>
0

>  <SCORE.SYSTEM.norm>
0

>  <SCORE.heavy>
14

>  <SCORE.norm>
-0.223339

>  <RMSD>
4.124

$$$$
ligand
 OpenBabel11021811513D
libRbt.so/2013.1/901 2013/11/27
 14 13  0  0  0  0  0  0  0  0999 V2000
   22.9048   48.5617   41.4564 N   0  0  0  0  0  0  0  0  0  0  0  0
   23.4523   48.5728   40.1095 C   0  0  0  0  0  0  0  0  0  0  0  0
   24.2432   49.8544   39.8691 C   0  0  0  0  0  0  0  0  0  0  0  0
   24.8485   49.8731   38.4700 C   0  0  0  0  0  0  0  0  0  0  0  0
   25.7293   51.0158   38.2476 N   0  0  0  0  0  0  0  0  0  0  0  0
   26.8261   50.9319   37.2979 C   0  0  0  0  0  0  0  0  0  0  0  0
   27.9360   49.9929   37.7574 C   0  0  0  0  0  0  0  0  0  0  0  0
   29.1125   50.0628   36.7902 C   0  0  0  0  0  0  0  0  0  0  0  0
   30.1667   49.0339   37.1841 C   0  0  0  0  0  0  0  0  0  0  0  0
   30.6267   49.2188   38.5497 N   0  0  0  0  0  0  0  0  0  0  0  0
   30.8700   48.0520   39.3875 C   0  0  0  0  0  0  0  0  0  0  0  0
   29.6544   47.5663   40.1741 C   0  0  0  0  0  0  0  0  0  0  0  0
   29.1633   48.6514   41.1338 C   0  0  0  0  0  0  0  0  0  0  0  0
   28.1116   48.1279   41.9887 N   0  0  0  0  0  0  0  0  0  0  0  0
  1  2  1  0  0  0  0
  2  3  1  0  0  0  0
  3  4  1  0  0  0  0
  4  5  1  0  0  0  0
  5  6  1  0  0  0  0
  6  7  1  0  0  0  0
  7  8  1  0  0  0  0
  8  9  1  0  0  0  0
  9 10  1  0  0  0  0
 10 11  1  0  0  0  0
 11 12  1  0  0  0  0
 12 13  1  0  0  0  0
 13 14  1  0  0  0  0
M  END
>  <CHROM.1>
178.91066093,-173.93387991,152.09307573,-68.81373802,-174.16305437,-175.03303786
-57.11780302,140.15895218,-88.99806636,-61.27193251,-173.21190806,27.40346157
49.25111625,39.17220329,-2.99463886,0.17703499,-1.04490258

>  <Name>
ligand

>  <RI>
0

>  <Rbt.Current_Directory>
/home/itssahil/PROJECTS/Mol_Feturizer/New_Systems/rnas/4P5J

>  <Rbt.Executable>
rbdock ($Id: //depot/dev/client3/rdock/2013.1/src/exe/rbdock.cxx#4 $)

>  <Rbt.Library>
libRbt.so (2013.1, Build901 2013/11/27)

>  <Rbt.Parameter_File>
/export/apps/rDock/src/rDock_2013.1_src/data/scripts/dock_solv.prm

>  <Rbt.Receptor>
prm/pocket_docking_6.prm

>  <SCORE>
-3.46194

>  <SCORE.INTER>
5.60679

>  <SCORE.INTER.CONST>
1

>  <SCORE.INTER.POLAR>
0

>  <SCORE.INTER.ROT>
11

>  <SCORE.INTER.SOLV>
5.15369

>  <SCORE.INTER.VDW>
-8.91337

>  <SCORE.INTER.norm>
0.400485

>  <SCORE.INTRA>
-9.06873

>  <SCORE.INTRA.DIHEDRAL>
-14.8786

>  <SCORE.INTRA.DIHEDRAL.0>
17.5233

>  <SCORE.INTRA.POLAR>
0

>  <SCORE.INTRA.POLAR.0>
0

>  <SCORE.INTRA.REPUL>
0

>  <SCORE.INTRA.REPUL.0>
0

>  <SCORE.INTRA.SOLV>
-1.92464

>  <SCORE.INTRA.SOLV.lig_0>
-46.1043

>  <SCORE.INTRA.VDW>
-0.667108

>  <SCORE.INTRA.VDW.0>
-0.545445

>  <SCORE.INTRA.norm>
-0.647767

>  <SCORE.RESTR>
0

>  <SCORE.RESTR.CAVITY>
0

>  <SCORE.RESTR.norm>
0

>  <SCORE.SYSTEM>
0

>  <SCORE.SYSTEM.CONST>
0

>  <SCORE.SYSTEM.DIHEDRAL>
0

>  <SCORE.SYSTEM.SOLV>
0

>  <SCORE.SYSTEM.norm>
0

>  <SCORE.heavy>
14

>  <SCORE.norm>
-0.247282

>  <RMSD>
4.125

$$$$
ligand
 OpenBabel11021811513D
libRbt.so/2013.1/901 2013/11/27
 14 13  0  0  0  0  0  0  0  0999 V2000
   25.2677   48.8424   43.1471 N   0  0  0  0  0  0  0  0  0  0  0  0
   25.2423   48.9777   41.6997 C   0  0  0  0  0  0  0  0  0  0  0  0
   23.8182   48.8196   41.1772 C   0  0  0  0  0  0  0  0  0  0  0  0
   23.7749   48.9268   39.6571 C   0  0  0  0  0  0  0  0  0  0  0  0
   24.2251   50.2259   39.1664 N   0  0  0  0  0  0  0  0  0  0  0  0
   24.5664   50.4111   37.7660 C   0  0  0  0  0  0  0  0  0  0  0  0
   26.0224   50.0753   37.4625 C   0  0  0  0  0  0  0  0  0  0  0  0
   26.9453   51.0296   38.2122 C   0  0  0  0  0  0  0  0  0  0  0  0
   28.3996   50.6487   37.9571 C   0  0  0  0  0  0  0  0  0  0  0  0
   28.7418   49.3695   38.5547 N   0  0  0  0  0  0  0  0  0  0  0  0
   30.1309   48.9301   38.5590 C   0  0  0  0  0  0  0  0  0  0  0  0
   30.3668   47.5658   39.2035 C   0  0  0  0  0  0  0  0  0  0  0  0
   31.8369   47.1599   39.0859 C   0  0  0  0  0  0  0  0  0  0  0  0
   32.0485   45.8564   39.6920 N   0  0  0  0  0  0  0  0  0  0  0  0
  1  2  1  0  0  0  0
  2  3  1  0  0  0  0
  3  4  1  0  0  0  0
  4  5  1  0  0  0  0
  5  6  1  0  0  0  0
  6  7  1  0  0  0  0
  7  8  1  0  0  0  0
  8  9  1  0  0  0  0
  9 10  1  0  0  0  0
 10 11  1  0  0  0  0
 11 12  1  0  0  0  0
 12 13  1  0  0  0  0
 13 14  1  0  0  0  0
M  END
>  <CHROM.1>
-178.71303400,-61.84059218,164.80716233,-87.66531649,-63.61977003,177.36431551
-67.50669287,-172.12972378,-179.51866870,176.71109658,-179.53387690,27.24176684
49.06012403,39.38114377,3.09636815,0.33373574,-1.00391461

>  <Name>
ligand

>  <RI>
0

>  <Rbt.Current_Directory>
/home/itssahil/PROJECTS/Mol_Feturizer/New_Systems/rnas/4P5J

>  <Rbt.Executable>
rbdock ($Id: //depot/dev/client3/rdock/2013.1/src/exe/rbdock.cxx#4 $)

>  <Rbt.Library>
libRbt.so (2013.1, Build901 2013/11/27)

>  <Rbt.Parameter_File>
/export/apps/rDock/src/rDock_2013.1_src/data/scripts/dock_solv.prm

>  <Rbt.Receptor>
prm/pocket_docking_5.prm

>  <SCORE>
-3.43337

>  <SCORE.INTER>
6.25363

>  <SCORE.INTER.CONST>
1

>  <SCORE.INTER.POLAR>
0

>  <SCORE.INTER.ROT>
11

>  <SCORE.INTER.SOLV>
5.28322

>  <SCORE.INTER.VDW>
-8.52532

>  <SCORE.INTER.norm>
0.446688

>  <SCORE.INTRA>
-9.687

>  <SCORE.INTRA.DIHEDRAL>
-16.4163

>  <SCORE.INTRA.DIHEDRAL.0>
17.5233

>  <SCORE.INTRA.POLAR>
0

>  <SCORE.INTRA.POLAR.0>
0

>  <SCORE.INTRA.REPUL>
0

>  <SCORE.INTRA.REPUL.0>
0

>  <SCORE.INTRA.SOLV>
-1.54788

>  <SCORE.INTRA.SOLV.lig_0>
-46.1043

>  <SCORE.INTRA.VDW>
-0.704911

>  <SCORE.INTRA.VDW.0>
-0.545445

>  <SCORE.INTRA.norm>
-0.691928

>  <SCORE.RESTR>
0

>  <SCORE.RESTR.CAVITY>
0

>  <SCORE.RESTR.norm>
0

>  <SCORE.SYSTEM>
0

>  <SCORE.SYSTEM.CONST>
0

>  <SCORE.SYSTEM.DIHEDRAL>
0

>  <SCORE.SYSTEM.SOLV>
0

>  <SCORE.SYSTEM.norm>
0

>  <SCORE.heavy>
14

>  <SCORE.norm>
-0.245241

>  <RMSD>
4.129

$$$$
ligand
 OpenBabel11021811513D
libRbt.so/2013.1/901 2013/11/27
 14 13  0  0  0  0  0  0  0  0999 V2000
   31.3845   44.3935   43.9345 N   0  0  0  0  0  0  0  0  0  0  0  0
   30.3831   45.1842   43.2372 C   0  0  0  0  0  0  0  0  0  0  0  0
   30.8104   45.4273   41.7936 C   0  0  0  0  0  0  0  0  0  0  0  0
   29.7831   46.2745   41.0511 C   0  0  0  0  0  0  0  0  0  0  0  0
   29.7212   47.6490   41.5391 N   0  0  0  0  0  0  0  0  0  0  0  0
   28.6531   48.5384   41.1147 C   0  0  0  0  0  0  0  0  0  0  0  0
   28.6928   48.8397   39.6206 C   0  0  0  0  0  0  0  0  0  0  0  0
   27.5099   49.7205   39.2341 C   0  0  0  0  0  0  0  0  0  0  0  0
   27.4987   49.9372   37.7248 C   0  0  0  0  0  0  0  0  0  0  0  0
   26.4803   50.8898   37.3176 N   0  0  0  0  0  0  0  0  0  0  0  0
   25.1614   50.4066   36.9308 C   0  0  0  0  0  0  0  0  0  0  0  0
   24.2847   51.4391   36.2255 C   0  0  0  0  0  0  0  0  0  0  0  0
   24.0728   52.6655   37.1149 C   0  0  0  0  0  0  0  0  0  0  0  0
   23.2916   53.6681   36.4108 N   0  0  0  0  0  0  0  0  0  0  0  0
  1  2  1  0  0  0  0
  2  3  1  0  0  0  0
  3  4  1  0  0  0  0
  4  5  1  0  0  0  0
  5  6  1  0  0  0  0
  6  7  1  0  0  0  0
  7  8  1  0  0  0  0
  8  9  1  0  0  0  0
  9 10  1  0  0  0  0
 10 11  1  0  0  0  0
 11 12  1  0  0  0  0
 12 13  1  0  0  0  0
 13 14  1  0  0  0  0
M  END
>  <CHROM.1>
-179.08649829,68.23467789,-169.48468558,-64.57582846,177.29002163,-176.01456427
-173.60619290,-92.66866645,-166.66590057,-58.62647783,177.27701809,27.69482738
48.93087040,39.51769690,0.52999786,-0.84930106,1.49848386

>  <Name>
ligand

>  <RI>
0

>  <Rbt.Current_Directory>
/home/itssahil/PROJECTS/Mol_Feturizer/New_Systems/rnas/4P5J

>  <Rbt.Executable>
rbdock ($Id: //depot/dev/client3/rdock/2013.1/src/exe/rbdock.cxx#4 $)

>  <Rbt.Library>
libRbt.so (2013.1, Build901 2013/11/27)

>  <Rbt.Parameter_File>
/export/apps/rDock/src/rDock_2013.1_src/data/scripts/dock_solv.prm

>  <Rbt.Receptor>
prm/pocket_docking_6.prm

>  <SCORE>
-3.99928

>  <SCORE.INTER>
5.16059

>  <SCORE.INTER.CONST>
1

>  <SCORE.INTER.POLAR>
0

>  <SCORE.INTER.ROT>
11

>  <SCORE.INTER.SOLV>
7.674

>  <SCORE.INTER.VDW>
-10.0509

>  <SCORE.INTER.norm>
0.368613

>  <SCORE.INTRA>
-9.15987

>  <SCORE.INTRA.DIHEDRAL>
-16.0553

>  <SCORE.INTRA.DIHEDRAL.0>
17.5233

>  <SCORE.INTRA.POLAR>
0

>  <SCORE.INTRA.POLAR.0>
0

>  <SCORE.INTRA.REPUL>
0

>  <SCORE.INTRA.REPUL.0>
0

>  <SCORE.INTRA.SOLV>
-1.99479

>  <SCORE.INTRA.SOLV.lig_0>
-46.1043

>  <SCORE.INTRA.VDW>
-0.134835

>  <SCORE.INTRA.VDW.0>
-0.545445

>  <SCORE.INTRA.norm>
-0.654276

>  <SCORE.RESTR>
0

>  <SCORE.RESTR.CAVITY>
0

>  <SCORE.RESTR.norm>
0

>  <SCORE.SYSTEM>
0

>  <SCORE.SYSTEM.CONST>
0

>  <SCORE.SYSTEM.DIHEDRAL>
0

>  <SCORE.SYSTEM.SOLV>
0

>  <SCORE.SYSTEM.norm>
0

>  <SCORE.heavy>
14

>  <SCORE.norm>
-0.285663

>  <RMSD>
4.149

$$$$
ligand
 OpenBabel11021811513D
libRbt.so/2013.1/901 2013/11/27
 14 13  0  0  0  0  0  0  0  0999 V2000
   27.1237   51.3735   36.9450 N   0  0  0  0  0  0  0  0  0  0  0  0
   27.0423   50.5358   38.1306 C   0  0  0  0  0  0  0  0  0  0  0  0
   28.3859   49.8667   38.4004 C   0  0  0  0  0  0  0  0  0  0  0  0
   28.3364   49.0256   39.6710 C   0  0  0  0  0  0  0  0  0  0  0  0
   29.5915   48.3307   39.9412 N   0  0  0  0  0  0  0  0  0  0  0  0
   29.5981   47.0617   40.6493 C   0  0  0  0  0  0  0  0  0  0  0  0
   30.8330   46.2208   40.3449 C   0  0  0  0  0  0  0  0  0  0  0  0
   30.9395   45.9741   38.8441 C   0  0  0  0  0  0  0  0  0  0  0  0
   32.0682   44.9886   38.5615 C   0  0  0  0  0  0  0  0  0  0  0  0
   32.1890   44.6882   37.1453 N   0  0  0  0  0  0  0  0  0  0  0  0
   31.1636   43.8839   36.4940 C   0  0  0  0  0  0  0  0  0  0  0  0
   31.4835   42.3934   36.4029 C   0  0  0  0  0  0  0  0  0  0  0  0
   31.5766   41.7748   37.7988 C   0  0  0  0  0  0  0  0  0  0  0  0
   31.8870   40.3587   37.7014 N   0  0  0  0  0  0  0  0  0  0  0  0
  1  2  1  0  0  0  0
  2  3  1  0  0  0  0
  3  4  1  0  0  0  0
  4  5  1  0  0  0  0
  5  6  1  0  0  0  0
  6  7  1  0  0  0  0
  7  8  1  0  0  0  0
  8  9  1  0  0  0  0
  9 10  1  0  0  0  0
 10 11  1  0  0  0  0
 11 12  1  0  0  0  0
 12 13  1  0  0  0  0
 13 14  1  0  0  0  0
M  END
>  <CHROM.1>
177.81091500,178.05186598,-150.43796469,155.95419997,-57.06892460,-172.77427978
178.36877273,-70.75121482,-95.21350405,63.81040466,-179.74422032,30.15844693
46.17689051,38.35948782,2.64820140,-1.04403903,1.15858973

>  <Name>
ligand

>  <RI>
0

>  <Rbt.Current_Directory>
/home/itssahil/PROJECTS/Mol_Feturizer/New_Systems/rnas/4P5J

>  <Rbt.Executable>
rbdock ($Id: //depot/dev/client3/rdock/2013.1/src/exe/rbdock.cxx#4 $)

>  <Rbt.Library>
libRbt.so (2013.1, Build901 2013/11/27)

>  <Rbt.Parameter_File>
/export/apps/rDock/src/rDock_2013.1_src/data/scripts/dock_solv.prm

>  <Rbt.Receptor>
prm/pocket_docking_5.prm

>  <SCORE>
-3.44047

>  <SCORE.INTER>
5.37366

>  <SCORE.INTER.CONST>
1

>  <SCORE.INTER.POLAR>
0

>  <SCORE.INTER.ROT>
11

>  <SCORE.INTER.SOLV>
7.46157

>  <SCORE.INTER.VDW>
-9.83808

>  <SCORE.INTER.norm>
0.383833

>  <SCORE.INTRA>
-8.81413

>  <SCORE.INTRA.DIHEDRAL>
-15.3204

>  <SCORE.INTRA.DIHEDRAL.0>
17.5233

>  <SCORE.INTRA.POLAR>
0

>  <SCORE.INTRA.POLAR.0>
0

>  <SCORE.INTRA.REPUL>
0

>  <SCORE.INTRA.REPUL.0>
0

>  <SCORE.INTRA.SOLV>
-1.9469

>  <SCORE.INTRA.SOLV.lig_0>
-46.1043

>  <SCORE.INTRA.VDW>
-0.180491

>  <SCORE.INTRA.VDW.0>
-0.545445

>  <SCORE.INTRA.norm>
-0.629581

>  <SCORE.RESTR>
0

>  <SCORE.RESTR.CAVITY>
0

>  <SCORE.RESTR.norm>
0

>  <SCORE.SYSTEM>
0

>  <SCORE.SYSTEM.CONST>
0

>  <SCORE.SYSTEM.DIHEDRAL>
0

>  <SCORE.SYSTEM.SOLV>
0

>  <SCORE.SYSTEM.norm>
0

>  <SCORE.heavy>
14

>  <SCORE.norm>
-0.245748

>  <RMSD>
4.157

$$$$
ligand
 OpenBabel11021811513D
libRbt.so/2013.1/901 2013/11/27
 14 13  0  0  0  0  0  0  0  0999 V2000
   23.9639   53.0875   35.5015 N   0  0  0  0  0  0  0  0  0  0  0  0
   23.9868   52.1136   36.5808 C   0  0  0  0  0  0  0  0  0  0  0  0
   25.0204   51.0293   36.2948 C   0  0  0  0  0  0  0  0  0  0  0  0
   25.0441   49.9851   37.4054 C   0  0  0  0  0  0  0  0  0  0  0  0
   25.5746   50.5049   38.6622 N   0  0  0  0  0  0  0  0  0  0  0  0
   27.0050   50.6853   38.8443 C   0  0  0  0  0  0  0  0  0  0  0  0
   27.7386   49.3737   39.1020 C   0  0  0  0  0  0  0  0  0  0  0  0
   29.2444   49.6122   39.1172 C   0  0  0  0  0  0  0  0  0  0  0  0
   29.9724   48.3001   39.3886 C   0  0  0  0  0  0  0  0  0  0  0  0
   29.6643   47.7668   40.7043 N   0  0  0  0  0  0  0  0  0  0  0  0
   30.1174   46.4281   41.0583 C   0  0  0  0  0  0  0  0  0  0  0  0
   29.7603   45.9875   42.4763 C   0  0  0  0  0  0  0  0  0  0  0  0
   30.3337   44.6004   42.7713 C   0  0  0  0  0  0  0  0  0  0  0  0
   30.0212   44.2068   44.1346 N   0  0  0  0  0  0  0  0  0  0  0  0
  1  2  1  0  0  0  0
  2  3  1  0  0  0  0
  3  4  1  0  0  0  0
  4  5  1  0  0  0  0
  5  6  1  0  0  0  0
  6  7  1  0  0  0  0
  7  8  1  0  0  0  0
  8  9  1  0  0  0  0
  9 10  1  0  0  0  0
 10 11  1  0  0  0  0
 11 12  1  0  0  0  0
 12 13  1  0  0  0  0
 13 14  1  0  0  0  0
M  END
>  <CHROM.1>
-179.08934955,-68.94513359,-77.11414185,-76.60898158,173.26610423,179.46026076
-63.78414662,171.23238582,178.76210032,-177.37551596,178.38141333,27.67494107
48.83435602,39.43140698,2.13975945,-0.01263440,-0.74569803

>  <Name>
ligand

>  <RI>
0

>  <Rbt.Current_Directory>
/home/itssahil/PROJECTS/Mol_Feturizer/New_Systems/rnas/4P5J

>  <Rbt.Executable>
rbdock ($Id: //depot/dev/client3/rdock/2013.1/src/exe/rbdock.cxx#4 $)

>  <Rbt.Library>
libRbt.so (2013.1, Build901 2013/11/27)

>  <Rbt.Parameter_File>
/export/apps/rDock/src/rDock_2013.1_src/data/scripts/dock_solv.prm

>  <Rbt.Receptor>
prm/pocket_docking_6.prm

>  <SCORE>
-4.99752

>  <SCORE.INTER>
4.51288

>  <SCORE.INTER.CONST>
1

>  <SCORE.INTER.POLAR>
0

>  <SCORE.INTER.ROT>
11

>  <SCORE.INTER.SOLV>
7.24536

>  <SCORE.INTER.VDW>
-10.3399

>  <SCORE.INTER.norm>
0.322349

>  <SCORE.INTRA>
-9.5104

>  <SCORE.INTRA.DIHEDRAL>
-16.4605

>  <SCORE.INTRA.DIHEDRAL.0>
17.5233

>  <SCORE.INTRA.POLAR>
0

>  <SCORE.INTRA.POLAR.0>
0

>  <SCORE.INTRA.REPUL>
0

>  <SCORE.INTRA.REPUL.0>
0

>  <SCORE.INTRA.SOLV>
-2.0011

>  <SCORE.INTRA.SOLV.lig_0>
-46.1043

>  <SCORE.INTRA.VDW>
-0.279621

>  <SCORE.INTRA.VDW.0>
-0.545445

>  <SCORE.INTRA.norm>
-0.679314

>  <SCORE.RESTR>
0

>  <SCORE.RESTR.CAVITY>
0

>  <SCORE.RESTR.norm>
0

>  <SCORE.SYSTEM>
0

>  <SCORE.SYSTEM.CONST>
0

>  <SCORE.SYSTEM.DIHEDRAL>
0

>  <SCORE.SYSTEM.SOLV>
0

>  <SCORE.SYSTEM.norm>
0

>  <SCORE.heavy>
14

>  <SCORE.norm>
-0.356965

>  <RMSD>
4.162

$$$$
ligand
 OpenBabel11021811513D
libRbt.so/2013.1/901 2013/11/27
 14 13  0  0  0  0  0  0  0  0999 V2000
   32.5226   46.9077   38.5929 N   0  0  0  0  0  0  0  0  0  0  0  0
   31.3465   46.0713   38.7702 C   0  0  0  0  0  0  0  0  0  0  0  0
   30.5387   46.5409   39.9754 C   0  0  0  0  0  0  0  0  0  0  0  0
   29.9221   47.9124   39.7239 C   0  0  0  0  0  0  0  0  0  0  0  0
   29.0691   48.3612   40.8203 N   0  0  0  0  0  0  0  0  0  0  0  0
   28.1884   49.5050   40.6532 C   0  0  0  0  0  0  0  0  0  0  0  0
   27.1172   49.2768   39.5924 C   0  0  0  0  0  0  0  0  0  0  0  0
   26.1675   50.4686   39.5449 C   0  0  0  0  0  0  0  0  0  0  0  0
   25.1415   50.2673   38.4350 C   0  0  0  0  0  0  0  0  0  0  0  0
   25.7629   50.1916   37.1241 N   0  0  0  0  0  0  0  0  0  0  0  0
   26.1285   51.4210   36.4330 C   0  0  0  0  0  0  0  0  0  0  0  0
   27.5005   51.9789   36.8055 C   0  0  0  0  0  0  0  0  0  0  0  0
   28.6085   51.0088   36.3921 C   0  0  0  0  0  0  0  0  0  0  0  0
   29.9101   51.5584   36.7309 N   0  0  0  0  0  0  0  0  0  0  0  0
  1  2  1  0  0  0  0
  2  3  1  0  0  0  0
  3  4  1  0  0  0  0
  4  5  1  0  0  0  0
  5  6  1  0  0  0  0
  6  7  1  0  0  0  0
  7  8  1  0  0  0  0
  8  9  1  0  0  0  0
  9 10  1  0  0  0  0
 10 11  1  0  0  0  0
 11 12  1  0  0  0  0
 12 13  1  0  0  0  0
 13 14  1  0  0  0  0
M  END
>  <CHROM.1>
67.40673101,176.29512612,-167.51032277,63.33368714,175.67618513,177.13477536
-62.22032963,-81.47508794,85.62714979,63.98879942,179.06803601,28.42277738
49.39076547,38.54251010,-0.69891672,0.40340422,-0.90325813

>  <Name>
ligand

>  <RI>
0

>  <Rbt.Current_Directory>
/home/itssahil/PROJECTS/Mol_Feturizer/New_Systems/rnas/4P5J

>  <Rbt.Executable>
rbdock ($Id: //depot/dev/client3/rdock/2013.1/src/exe/rbdock.cxx#4 $)

>  <Rbt.Library>
libRbt.so (2013.1, Build901 2013/11/27)

>  <Rbt.Parameter_File>
/export/apps/rDock/src/rDock_2013.1_src/data/scripts/dock_solv.prm

>  <Rbt.Receptor>
prm/pocket_docking_4.prm

>  <SCORE>
-1.97422

>  <SCORE.INTER>
6.94538

>  <SCORE.INTER.CONST>
1

>  <SCORE.INTER.POLAR>
0

>  <SCORE.INTER.ROT>
11

>  <SCORE.INTER.SOLV>
5.5378

>  <SCORE.INTER.VDW>
-8.14901

>  <SCORE.INTER.norm>
0.496099

>  <SCORE.INTRA>
-8.9196

>  <SCORE.INTRA.DIHEDRAL>
-16.1421

>  <SCORE.INTRA.DIHEDRAL.0>
17.5233

>  <SCORE.INTRA.POLAR>
0

>  <SCORE.INTRA.POLAR.0>
0

>  <SCORE.INTRA.REPUL>
0

>  <SCORE.INTRA.REPUL.0>
0

>  <SCORE.INTRA.SOLV>
-1.19194

>  <SCORE.INTRA.SOLV.lig_0>
-46.1043

>  <SCORE.INTRA.VDW>
-0.252562

>  <SCORE.INTRA.VDW.0>
-0.545445

>  <SCORE.INTRA.norm>
-0.637114

>  <SCORE.RESTR>
0

>  <SCORE.RESTR.CAVITY>
0

>  <SCORE.RESTR.norm>
0

>  <SCORE.SYSTEM>
0

>  <SCORE.SYSTEM.CONST>
0

>  <SCORE.SYSTEM.DIHEDRAL>
0

>  <SCORE.SYSTEM.SOLV>
0

>  <SCORE.SYSTEM.norm>
0

>  <SCORE.heavy>
14

>  <SCORE.norm>
-0.141016

>  <RMSD>
4.187

$$$$
ligand
 OpenBabel11021811513D
libRbt.so/2013.1/901 2013/11/27
 14 13  0  0  0  0  0  0  0  0999 V2000
   29.9048   50.7041   35.8212 N   0  0  0  0  0  0  0  0  0  0  0  0
   29.4415   49.7745   36.8387 C   0  0  0  0  0  0  0  0  0  0  0  0
   28.5926   50.5028   37.8753 C   0  0  0  0  0  0  0  0  0  0  0  0
   28.1390   49.5545   38.9796 C   0  0  0  0  0  0  0  0  0  0  0  0
   29.2509   49.0139   39.7559 N   0  0  0  0  0  0  0  0  0  0  0  0
   29.0830   47.8084   40.5498 C   0  0  0  0  0  0  0  0  0  0  0  0
   30.3212   46.9187   40.5436 C   0  0  0  0  0  0  0  0  0  0  0  0
   30.6974   46.5579   39.1108 C   0  0  0  0  0  0  0  0  0  0  0  0
   31.8638   45.5758   39.1148 C   0  0  0  0  0  0  0  0  0  0  0  0
   32.2979   45.2381   37.7702 N   0  0  0  0  0  0  0  0  0  0  0  0
   31.4667   44.3707   36.9460 C   0  0  0  0  0  0  0  0  0  0  0  0
   31.3674   42.9278   37.4363 C   0  0  0  0  0  0  0  0  0  0  0  0
   32.7554   42.2916   37.5273 C   0  0  0  0  0  0  0  0  0  0  0  0
   32.6515   40.9252   38.0104 N   0  0  0  0  0  0  0  0  0  0  0  0
  1  2  1  0  0  0  0
  2  3  1  0  0  0  0
  3  4  1  0  0  0  0
  4  5  1  0  0  0  0
  5  6  1  0  0  0  0
  6  7  1  0  0  0  0
  7  8  1  0  0  0  0
  8  9  1  0  0  0  0
  9 10  1  0  0  0  0
 10 11  1  0  0  0  0
 11 12  1  0  0  0  0
 12 13  1  0  0  0  0
 13 14  1  0  0  0  0
M  END
>  <CHROM.1>
-177.92107004,63.77095336,-160.64819596,143.16463912,-56.46475258,-175.30579299
-177.74526426,-72.76499866,-67.52339669,-57.92813898,179.28516011,30.55931726
46.58318849,38.30590803,-2.69627221,-1.09790276,2.11525831

>  <Name>
ligand

>  <RI>
0

>  <Rbt.Current_Directory>
/home/itssahil/PROJECTS/Mol_Feturizer/New_Systems/rnas/4P5J

>  <Rbt.Executable>
rbdock ($Id: //depot/dev/client3/rdock/2013.1/src/exe/rbdock.cxx#4 $)

>  <Rbt.Library>
libRbt.so (2013.1, Build901 2013/11/27)

>  <Rbt.Parameter_File>
/export/apps/rDock/src/rDock_2013.1_src/data/scripts/dock_solv.prm

>  <Rbt.Receptor>
prm/pocket_docking_4.prm

>  <SCORE>
-2.94193

>  <SCORE.INTER>
5.8764

>  <SCORE.INTER.CONST>
1

>  <SCORE.INTER.POLAR>
0

>  <SCORE.INTER.ROT>
11

>  <SCORE.INTER.SOLV>
5.79152

>  <SCORE.INTER.VDW>
-8.94624

>  <SCORE.INTER.norm>
0.419743

>  <SCORE.INTRA>
-8.81833

>  <SCORE.INTRA.DIHEDRAL>
-16.0091

>  <SCORE.INTRA.DIHEDRAL.0>
17.5233

>  <SCORE.INTRA.POLAR>
0

>  <SCORE.INTRA.POLAR.0>
0

>  <SCORE.INTRA.REPUL>
0

>  <SCORE.INTRA.REPUL.0>
0

>  <SCORE.INTRA.SOLV>
-1.50942

>  <SCORE.INTRA.SOLV.lig_0>
-46.1043

>  <SCORE.INTRA.VDW>
-0.0590899

>  <SCORE.INTRA.VDW.0>
-0.545445

>  <SCORE.INTRA.norm>
-0.62988

>  <SCORE.RESTR>
0

>  <SCORE.RESTR.CAVITY>
0

>  <SCORE.RESTR.norm>
0

>  <SCORE.SYSTEM>
0

>  <SCORE.SYSTEM.CONST>
0

>  <SCORE.SYSTEM.DIHEDRAL>
0

>  <SCORE.SYSTEM.SOLV>
0

>  <SCORE.SYSTEM.norm>
0

>  <SCORE.heavy>
14

>  <SCORE.norm>
-0.210138

>  <RMSD>
4.190

$$$$
ligand
 OpenBabel11021811513D
libRbt.so/2013.1/901 2013/11/27
 14 13  0  0  0  0  0  0  0  0999 V2000
   31.7128   45.8769   41.7316 N   0  0  0  0  0  0  0  0  0  0  0  0
   30.3144   45.5895   41.4562 C   0  0  0  0  0  0  0  0  0  0  0  0
   29.5138   46.8847   41.3703 C   0  0  0  0  0  0  0  0  0  0  0  0
   29.9038   47.6918   40.1371 C   0  0  0  0  0  0  0  0  0  0  0  0
   29.1975   48.9661   40.0458 N   0  0  0  0  0  0  0  0  0  0  0  0
   28.6641   49.4281   38.7754 C   0  0  0  0  0  0  0  0  0  0  0  0
   27.2206   49.9080   38.8793 C   0  0  0  0  0  0  0  0  0  0  0  0
   26.6798   50.2396   37.4930 C   0  0  0  0  0  0  0  0  0  0  0  0
   25.2232   50.6782   37.5981 C   0  0  0  0  0  0  0  0  0  0  0  0
   24.3756   49.6313   38.1422 N   0  0  0  0  0  0  0  0  0  0  0  0
   23.8884   49.7433   39.5107 C   0  0  0  0  0  0  0  0  0  0  0  0
   23.2598   48.4692   40.0708 C   0  0  0  0  0  0  0  0  0  0  0  0
   22.7382   48.7030   41.4897 C   0  0  0  0  0  0  0  0  0  0  0  0
   23.8418   48.9918   42.3896 N   0  0  0  0  0  0  0  0  0  0  0  0
  1  2  1  0  0  0  0
  2  3  1  0  0  0  0
  3  4  1  0  0  0  0
  4  5  1  0  0  0  0
  5  6  1  0  0  0  0
  6  7  1  0  0  0  0
  7  8  1  0  0  0  0
  8  9  1  0  0  0  0
  9 10  1  0  0  0  0
 10 11  1  0  0  0  0
 11 12  1  0  0  0  0
 12 13  1  0  0  0  0
 13 14  1  0  0  0  0
M  END
>  <CHROM.1>
68.32613216,-177.70603519,-137.38360722,132.01407303,-174.13950617,178.28488025
-61.37616757,105.93763986,-167.81175434,-178.04428898,-64.82428597,26.89510850
48.62877327,39.93473783,0.39327109,-0.21275231,2.20017443

>  <Name>
ligand

>  <RI>
0

>  <Rbt.Current_Directory>
/home/itssahil/PROJECTS/Mol_Feturizer/New_Systems/rnas/4P5J

>  <Rbt.Executable>
rbdock ($Id: //depot/dev/client3/rdock/2013.1/src/exe/rbdock.cxx#4 $)

>  <Rbt.Library>
libRbt.so (2013.1, Build901 2013/11/27)

>  <Rbt.Parameter_File>
/export/apps/rDock/src/rDock_2013.1_src/data/scripts/dock_solv.prm

>  <Rbt.Receptor>
prm/pocket_docking_6.prm

>  <SCORE>
-4.3694

>  <SCORE.INTER>
3.3234

>  <SCORE.INTER.CONST>
1

>  <SCORE.INTER.POLAR>
0

>  <SCORE.INTER.ROT>
11

>  <SCORE.INTER.SOLV>
7.20915

>  <SCORE.INTER.VDW>
-11.1208

>  <SCORE.INTER.norm>
0.237386

>  <SCORE.INTRA>
-7.6928

>  <SCORE.INTRA.DIHEDRAL>
-13.7788

>  <SCORE.INTRA.DIHEDRAL.0>
17.5233

>  <SCORE.INTRA.POLAR>
0

>  <SCORE.INTRA.POLAR.0>
0

>  <SCORE.INTRA.REPUL>
0

>  <SCORE.INTRA.REPUL.0>
0

>  <SCORE.INTRA.SOLV>
-0.787057

>  <SCORE.INTRA.SOLV.lig_0>
-46.1043

>  <SCORE.INTRA.VDW>
-0.409861

>  <SCORE.INTRA.VDW.0>
-0.545445

>  <SCORE.INTRA.norm>
-0.549486

>  <SCORE.RESTR>
0

>  <SCORE.RESTR.CAVITY>
0

>  <SCORE.RESTR.norm>
0

>  <SCORE.SYSTEM>
0

>  <SCORE.SYSTEM.CONST>
0

>  <SCORE.SYSTEM.DIHEDRAL>
0

>  <SCORE.SYSTEM.SOLV>
0

>  <SCORE.SYSTEM.norm>
0

>  <SCORE.heavy>
14

>  <SCORE.norm>
-0.3121

>  <RMSD>
4.198

$$$$
ligand
 OpenBabel11021811513D
libRbt.so/2013.1/901 2013/11/27
 14 13  0  0  0  0  0  0  0  0999 V2000
   33.0875   45.7705   35.1557 N   0  0  0  0  0  0  0  0  0  0  0  0
   32.1447   45.1891   36.0975 C   0  0  0  0  0  0  0  0  0  0  0  0
   32.2920   45.8431   37.4673 C   0  0  0  0  0  0  0  0  0  0  0  0
   31.2993   45.2584   38.4658 C   0  0  0  0  0  0  0  0  0  0  0  0
   31.4634   45.7982   39.8122 N   0  0  0  0  0  0  0  0  0  0  0  0
   30.3485   46.4291   40.4983 C   0  0  0  0  0  0  0  0  0  0  0  0
   29.9539   47.7661   39.8807 C   0  0  0  0  0  0  0  0  0  0  0  0
   28.7976   48.3807   40.6616 C   0  0  0  0  0  0  0  0  0  0  0  0
   28.3759   49.6941   40.0118 C   0  0  0  0  0  0  0  0  0  0  0  0
   27.7150   49.4842   38.7352 N   0  0  0  0  0  0  0  0  0  0  0  0
   28.2662   50.0978   37.5342 C   0  0  0  0  0  0  0  0  0  0  0  0
   29.5219   49.4201   36.9899 C   0  0  0  0  0  0  0  0  0  0  0  0
   29.9426   50.0500   35.6609 C   0  0  0  0  0  0  0  0  0  0  0  0
   30.4042   51.4112   35.8737 N   0  0  0  0  0  0  0  0  0  0  0  0
  1  2  1  0  0  0  0
  2  3  1  0  0  0  0
  3  4  1  0  0  0  0
  4  5  1  0  0  0  0
  5  6  1  0  0  0  0
  6  7  1  0  0  0  0
  7  8  1  0  0  0  0
  8  9  1  0  0  0  0
  9 10  1  0  0  0  0
 10 11  1  0  0  0  0
 11 12  1  0  0  0  0
 12 13  1  0  0  0  0
 13 14  1  0  0  0  0
M  END
>  <CHROM.1>
179.30961371,176.39678844,124.07003776,-69.61755431,-179.06005365,-178.08534902
70.53196821,-121.75001596,75.19401071,174.52156994,68.00352386,30.25789906
47.89938108,38.06062122,-0.32923170,0.88318727,-0.93925124

>  <Name>
ligand

>  <RI>
0

>  <Rbt.Current_Directory>
/home/itssahil/PROJECTS/Mol_Feturizer/New_Systems/rnas/4P5J

>  <Rbt.Executable>
rbdock ($Id: //depot/dev/client3/rdock/2013.1/src/exe/rbdock.cxx#4 $)

>  <Rbt.Library>
libRbt.so (2013.1, Build901 2013/11/27)

>  <Rbt.Parameter_File>
/export/apps/rDock/src/rDock_2013.1_src/data/scripts/dock_solv.prm

>  <Rbt.Receptor>
prm/pocket_docking_4.prm

>  <SCORE>
-2.38023

>  <SCORE.INTER>
6.03294

>  <SCORE.INTER.CONST>
1

>  <SCORE.INTER.POLAR>
0

>  <SCORE.INTER.ROT>
11

>  <SCORE.INTER.SOLV>
7.12787

>  <SCORE.INTER.VDW>
-9.28733

>  <SCORE.INTER.norm>
0.430924

>  <SCORE.INTRA>
-8.41318

>  <SCORE.INTRA.DIHEDRAL>
-14.0546

>  <SCORE.INTRA.DIHEDRAL.0>
17.5233

>  <SCORE.INTRA.POLAR>
0

>  <SCORE.INTRA.POLAR.0>
0

>  <SCORE.INTRA.REPUL>
0

>  <SCORE.INTRA.REPUL.0>
0

>  <SCORE.INTRA.SOLV>
-1.67149

>  <SCORE.INTRA.SOLV.lig_0>
-46.1043

>  <SCORE.INTRA.VDW>
-0.550125

>  <SCORE.INTRA.VDW.0>
-0.545445

>  <SCORE.INTRA.norm>
-0.600941

>  <SCORE.RESTR>
0

>  <SCORE.RESTR.CAVITY>
0

>  <SCORE.RESTR.norm>
0

>  <SCORE.SYSTEM>
0

>  <SCORE.SYSTEM.CONST>
0

>  <SCORE.SYSTEM.DIHEDRAL>
0

>  <SCORE.SYSTEM.SOLV>
0

>  <SCORE.SYSTEM.norm>
0

>  <SCORE.heavy>
14

>  <SCORE.norm>
-0.170017

>  <RMSD>
4.204

$$$$
ligand
 OpenBabel11021811513D
libRbt.so/2013.1/901 2013/11/27
 14 13  0  0  0  0  0  0  0  0999 V2000
   31.9178   46.4187   39.2908 N   0  0  0  0  0  0  0  0  0  0  0  0
   31.9048   47.8643   39.1366 C   0  0  0  0  0  0  0  0  0  0  0  0
   30.5030   48.3468   38.7786 C   0  0  0  0  0  0  0  0  0  0  0  0
   29.5411   48.1573   39.9461 C   0  0  0  0  0  0  0  0  0  0  0  0
   28.1872   48.6135   39.6461 N   0  0  0  0  0  0  0  0  0  0  0  0
   27.8706   50.0317   39.6267 C   0  0  0  0  0  0  0  0  0  0  0  0
   26.5064   50.3249   39.0119 C   0  0  0  0  0  0  0  0  0  0  0  0
   26.5158   49.9727   37.5286 C   0  0  0  0  0  0  0  0  0  0  0  0
   25.1238   50.1763   36.9406 C   0  0  0  0  0  0  0  0  0  0  0  0
   24.7536   51.5801   36.8870 N   0  0  0  0  0  0  0  0  0  0  0  0
   23.3473   51.9532   36.9621 C   0  0  0  0  0  0  0  0  0  0  0  0
   22.8876   52.4369   38.3358 C   0  0  0  0  0  0  0  0  0  0  0  0
   22.9794   51.3084   39.3643 C   0  0  0  0  0  0  0  0  0  0  0  0
   22.5279   51.7750   40.6641 N   0  0  0  0  0  0  0  0  0  0  0  0
  1  2  1  0  0  0  0
  2  3  1  0  0  0  0
  3  4  1  0  0  0  0
  4  5  1  0  0  0  0
  5  6  1  0  0  0  0
  6  7  1  0  0  0  0
  7  8  1  0  0  0  0
  8  9  1  0  0  0  0
  9 10  1  0  0  0  0
 10 11  1  0  0  0  0
 11 12  1  0  0  0  0
 12 13  1  0  0  0  0
 13 14  1  0  0  0  0
M  END
>  <CHROM.1>
68.20712726,179.72409077,-75.95429502,167.76691720,-66.40777062,176.10613233
68.73484329,-151.73963492,100.49784835,-64.95967947,-179.45032548,26.75469143
49.92584279,38.72264550,-0.16420408,0.47378278,-1.44316200

>  <Name>
ligand

>  <RI>
0

>  <Rbt.Current_Directory>
/home/itssahil/PROJECTS/Mol_Feturizer/New_Systems/rnas/4P5J

>  <Rbt.Executable>
rbdock ($Id: //depot/dev/client3/rdock/2013.1/src/exe/rbdock.cxx#4 $)

>  <Rbt.Library>
libRbt.so (2013.1, Build901 2013/11/27)

>  <Rbt.Parameter_File>
/export/apps/rDock/src/rDock_2013.1_src/data/scripts/dock_solv.prm

>  <Rbt.Receptor>
prm/pocket_docking_6.prm

>  <SCORE>
-3.07345

>  <SCORE.INTER>
5.41896

>  <SCORE.INTER.CONST>
1

>  <SCORE.INTER.POLAR>
0

>  <SCORE.INTER.ROT>
11

>  <SCORE.INTER.SOLV>
7.07552

>  <SCORE.INTER.VDW>
-9.6792

>  <SCORE.INTER.norm>
0.387068

>  <SCORE.INTRA>
-8.49241

>  <SCORE.INTRA.DIHEDRAL>
-14.9022

>  <SCORE.INTRA.DIHEDRAL.0>
17.5233

>  <SCORE.INTRA.POLAR>
0

>  <SCORE.INTRA.POLAR.0>
0

>  <SCORE.INTRA.REPUL>
0

>  <SCORE.INTRA.REPUL.0>
0

>  <SCORE.INTRA.SOLV>
-0.79224

>  <SCORE.INTRA.SOLV.lig_0>
-46.1043

>  <SCORE.INTRA.VDW>
-0.645194

>  <SCORE.INTRA.VDW.0>
-0.545445

>  <SCORE.INTRA.norm>
-0.606601

>  <SCORE.RESTR>
0

>  <SCORE.RESTR.CAVITY>
0

>  <SCORE.RESTR.norm>
0

>  <SCORE.SYSTEM>
0

>  <SCORE.SYSTEM.CONST>
0

>  <SCORE.SYSTEM.DIHEDRAL>
0

>  <SCORE.SYSTEM.SOLV>
0

>  <SCORE.SYSTEM.norm>
0

>  <SCORE.heavy>
14

>  <SCORE.norm>
-0.219532

>  <RMSD>
4.204

$$$$
ligand
 OpenBabel11021811513D
libRbt.so/2013.1/901 2013/11/27
 14 13  0  0  0  0  0  0  0  0999 V2000
   24.0710   55.2512   41.1719 N   0  0  0  0  0  0  0  0  0  0  0  0
   24.2163   53.9364   40.5683 C   0  0  0  0  0  0  0  0  0  0  0  0
   22.9325   53.5391   39.8473 C   0  0  0  0  0  0  0  0  0  0  0  0
   23.0724   52.1715   39.1883 C   0  0  0  0  0  0  0  0  0  0  0  0
   24.1211   52.1347   38.1734 N   0  0  0  0  0  0  0  0  0  0  0  0
   24.4666   50.8888   37.5100 C   0  0  0  0  0  0  0  0  0  0  0  0
   25.1418   49.8894   38.4427 C   0  0  0  0  0  0  0  0  0  0  0  0
   26.5680   50.3370   38.7431 C   0  0  0  0  0  0  0  0  0  0  0  0
   27.2398   49.3319   39.6724 C   0  0  0  0  0  0  0  0  0  0  0  0
   28.6396   49.6483   39.8984 N   0  0  0  0  0  0  0  0  0  0  0  0
   29.4291   48.8071   40.7881 C   0  0  0  0  0  0  0  0  0  0  0  0
   29.7182   47.4063   40.2527 C   0  0  0  0  0  0  0  0  0  0  0  0
   30.6392   47.4737   39.0332 C   0  0  0  0  0  0  0  0  0  0  0  0
   31.9513   47.9630   39.4208 N   0  0  0  0  0  0  0  0  0  0  0  0
  1  2  1  0  0  0  0
  2  3  1  0  0  0  0
  3  4  1  0  0  0  0
  4  5  1  0  0  0  0
  5  6  1  0  0  0  0
  6  7  1  0  0  0  0
  7  8  1  0  0  0  0
  8  9  1  0  0  0  0
  9 10  1  0  0  0  0
 10 11  1  0  0  0  0
 11 12  1  0  0  0  0
 12 13  1  0  0  0  0
 13 14  1  0  0  0  0
M  END
>  <CHROM.1>
179.09911842,-61.51013077,175.36044028,-68.66551727,-73.07945921,-179.81755702
174.98598502,178.61579798,69.47907241,66.89108199,66.25004024,26.58595318
50.62676672,39.47925368,-2.65077271,0.47971972,-2.44049662

>  <Name>
ligand

>  <RI>
0

>  <Rbt.Current_Directory>
/home/itssahil/PROJECTS/Mol_Feturizer/New_Systems/rnas/4P5J

>  <Rbt.Executable>
rbdock ($Id: //depot/dev/client3/rdock/2013.1/src/exe/rbdock.cxx#4 $)

>  <Rbt.Library>
libRbt.so (2013.1, Build901 2013/11/27)

>  <Rbt.Parameter_File>
/export/apps/rDock/src/rDock_2013.1_src/data/scripts/dock_solv.prm

>  <Rbt.Receptor>
prm/pocket_docking_4.prm

>  <SCORE>
-2.09612

>  <SCORE.INTER>
6.30969

>  <SCORE.INTER.CONST>
1

>  <SCORE.INTER.POLAR>
0

>  <SCORE.INTER.ROT>
11

>  <SCORE.INTER.SOLV>
3.02444

>  <SCORE.INTER.VDW>
-7.73502

>  <SCORE.INTER.norm>
0.450692

>  <SCORE.INTRA>
-8.417

>  <SCORE.INTRA.DIHEDRAL>
-16.3181

>  <SCORE.INTRA.DIHEDRAL.0>
17.5233

>  <SCORE.INTRA.POLAR>
0

>  <SCORE.INTRA.POLAR.0>
0

>  <SCORE.INTRA.REPUL>
0

>  <SCORE.INTRA.REPUL.0>
0

>  <SCORE.INTRA.SOLV>
-0.34507

>  <SCORE.INTRA.SOLV.lig_0>
-46.1043

>  <SCORE.INTRA.VDW>
-0.0854279

>  <SCORE.INTRA.VDW.0>
-0.545445

>  <SCORE.INTRA.norm>
-0.601214

>  <SCORE.RESTR>
0.0111928

>  <SCORE.RESTR.CAVITY>
0.0111928

>  <SCORE.RESTR.norm>
0.000799486

>  <SCORE.SYSTEM>
0

>  <SCORE.SYSTEM.CONST>
0

>  <SCORE.SYSTEM.DIHEDRAL>
0

>  <SCORE.SYSTEM.SOLV>
0

>  <SCORE.SYSTEM.norm>
0

>  <SCORE.heavy>
14

>  <SCORE.norm>
-0.149723

>  <RMSD>
4.212

$$$$
ligand
 OpenBabel11021811513D
libRbt.so/2013.1/901 2013/11/27
 14 13  0  0  0  0  0  0  0  0999 V2000
   30.0252   47.0126   42.5488 N   0  0  0  0  0  0  0  0  0  0  0  0
   29.6728   46.2632   41.3537 C   0  0  0  0  0  0  0  0  0  0  0  0
   30.0616   47.0454   40.1035 C   0  0  0  0  0  0  0  0  0  0  0  0
   29.2219   48.3100   39.9625 C   0  0  0  0  0  0  0  0  0  0  0  0
   29.5730   49.0962   38.7836 N   0  0  0  0  0  0  0  0  0  0  0  0
   28.7826   50.2549   38.4036 C   0  0  0  0  0  0  0  0  0  0  0  0
   27.4488   49.8784   37.7678 C   0  0  0  0  0  0  0  0  0  0  0  0
   26.6589   51.1373   37.4277 C   0  0  0  0  0  0  0  0  0  0  0  0
   25.3019   50.7545   36.8470 C   0  0  0  0  0  0  0  0  0  0  0  0
   24.4708   51.9176   36.5886 N   0  0  0  0  0  0  0  0  0  0  0  0
   23.0649   51.8920   36.9698 C   0  0  0  0  0  0  0  0  0  0  0  0
   22.7955   52.2152   38.4379 C   0  0  0  0  0  0  0  0  0  0  0  0
   23.2748   51.0755   39.3385 C   0  0  0  0  0  0  0  0  0  0  0  0
   23.0192   51.3951   40.7327 N   0  0  0  0  0  0  0  0  0  0  0  0
  1  2  1  0  0  0  0
  2  3  1  0  0  0  0
  3  4  1  0  0  0  0
  4  5  1  0  0  0  0
  5  6  1  0  0  0  0
  6  7  1  0  0  0  0
  7  8  1  0  0  0  0
  8  9  1  0  0  0  0
  9 10  1  0  0  0  0
 10 11  1  0  0  0  0
 11 12  1  0  0  0  0
 12 13  1  0  0  0  0
 13 14  1  0  0  0  0
M  END
>  <CHROM.1>
-66.86809070,179.39172440,173.14006297,-75.06206804,178.55693326,-177.60825271
176.12042768,-135.82469041,82.29229592,-70.56566532,179.76286214,26.66939612
49.87485909,38.94724750,0.56739361,-0.40445445,2.02322585

>  <Name>
ligand

>  <RI>
0

>  <Rbt.Current_Directory>
/home/itssahil/PROJECTS/Mol_Feturizer/New_Systems/rnas/4P5J

>  <Rbt.Executable>
rbdock ($Id: //depot/dev/client3/rdock/2013.1/src/exe/rbdock.cxx#4 $)

>  <Rbt.Library>
libRbt.so (2013.1, Build901 2013/11/27)

>  <Rbt.Parameter_File>
/export/apps/rDock/src/rDock_2013.1_src/data/scripts/dock_solv.prm

>  <Rbt.Receptor>
prm/pocket_docking_5.prm

>  <SCORE>
-5.02898

>  <SCORE.INTER>
3.66966

>  <SCORE.INTER.CONST>
1

>  <SCORE.INTER.POLAR>
0

>  <SCORE.INTER.ROT>
11

>  <SCORE.INTER.SOLV>
5.9004

>  <SCORE.INTER.VDW>
-10.4537

>  <SCORE.INTER.norm>
0.262119

>  <SCORE.INTRA>
-8.69864

>  <SCORE.INTRA.DIHEDRAL>
-15.2595

>  <SCORE.INTRA.DIHEDRAL.0>
17.5233

>  <SCORE.INTRA.POLAR>
0

>  <SCORE.INTRA.POLAR.0>
0

>  <SCORE.INTRA.REPUL>
0

>  <SCORE.INTRA.REPUL.0>
0

>  <SCORE.INTRA.SOLV>
-1.56103

>  <SCORE.INTRA.SOLV.lig_0>
-46.1043

>  <SCORE.INTRA.VDW>
-0.288367

>  <SCORE.INTRA.VDW.0>
-0.545445

>  <SCORE.INTRA.norm>
-0.621331

>  <SCORE.RESTR>
0

>  <SCORE.RESTR.CAVITY>
0

>  <SCORE.RESTR.norm>
0

>  <SCORE.SYSTEM>
0

>  <SCORE.SYSTEM.CONST>
0

>  <SCORE.SYSTEM.DIHEDRAL>
0

>  <SCORE.SYSTEM.SOLV>
0

>  <SCORE.SYSTEM.norm>
0

>  <SCORE.heavy>
14

>  <SCORE.norm>
-0.359213

>  <RMSD>
4.215

$$$$
ligand
 OpenBabel11021811513D
libRbt.so/2013.1/901 2013/11/27
 14 13  0  0  0  0  0  0  0  0999 V2000
   32.3952   45.6444   39.5165 N   0  0  0  0  0  0  0  0  0  0  0  0
   31.2979   46.3847   40.1181 C   0  0  0  0  0  0  0  0  0  0  0  0
   30.6772   47.3343   39.0990 C   0  0  0  0  0  0  0  0  0  0  0  0
   29.5783   48.1798   39.7329 C   0  0  0  0  0  0  0  0  0  0  0  0
   28.9325   49.0783   38.7807 N   0  0  0  0  0  0  0  0  0  0  0  0
   27.7990   49.8938   39.1832 C   0  0  0  0  0  0  0  0  0  0  0  0
   26.7145   49.9683   38.1140 C   0  0  0  0  0  0  0  0  0  0  0  0
   25.5744   50.8625   38.5885 C   0  0  0  0  0  0  0  0  0  0  0  0
   24.4230   50.8047   37.5904 C   0  0  0  0  0  0  0  0  0  0  0  0
   23.3491   51.7175   37.9423 N   0  0  0  0  0  0  0  0  0  0  0  0
   22.6027   51.5037   39.1750 C   0  0  0  0  0  0  0  0  0  0  0  0
   22.1903   52.7822   39.9015 C   0  0  0  0  0  0  0  0  0  0  0  0
   21.4355   52.4516   41.1902 C   0  0  0  0  0  0  0  0  0  0  0  0
   22.3288   51.8236   42.1488 N   0  0  0  0  0  0  0  0  0  0  0  0
  1  2  1  0  0  0  0
  2  3  1  0  0  0  0
  3  4  1  0  0  0  0
  4  5  1  0  0  0  0
  5  6  1  0  0  0  0
  6  7  1  0  0  0  0
  7  8  1  0  0  0  0
  8  9  1  0  0  0  0
  9 10  1  0  0  0  0
 10 11  1  0  0  0  0
 11 12  1  0  0  0  0
 12 13  1  0  0  0  0
 13 14  1  0  0  0  0
M  END
>  <CHROM.1>
-176.63428020,-178.44066493,175.67383837,-139.65378354,-178.70472970,-173.43202359
-175.65422335,-64.60328555,143.43330959,-179.04942283,67.48570156,26.37830130
49.88794715,39.36284662,0.04073483,-0.53704409,1.74545385

>  <Name>
ligand

>  <RI>
0

>  <Rbt.Current_Directory>
/home/itssahil/PROJECTS/Mol_Feturizer/New_Systems/rnas/4P5J

>  <Rbt.Executable>
rbdock ($Id: //depot/dev/client3/rdock/2013.1/src/exe/rbdock.cxx#4 $)

>  <Rbt.Library>
libRbt.so (2013.1, Build901 2013/11/27)

>  <Rbt.Parameter_File>
/export/apps/rDock/src/rDock_2013.1_src/data/scripts/dock_solv.prm

>  <Rbt.Receptor>
prm/pocket_docking_5.prm

>  <SCORE>
-3.98771

>  <SCORE.INTER>
4.82435

>  <SCORE.INTER.CONST>
1

>  <SCORE.INTER.POLAR>
0

>  <SCORE.INTER.ROT>
11

>  <SCORE.INTER.SOLV>
6.24975

>  <SCORE.INTER.VDW>
-9.80035

>  <SCORE.INTER.norm>
0.344596

>  <SCORE.INTRA>
-8.81205

>  <SCORE.INTRA.DIHEDRAL>
-15.2577

>  <SCORE.INTRA.DIHEDRAL.0>
17.5233

>  <SCORE.INTRA.POLAR>
0

>  <SCORE.INTRA.POLAR.0>
0

>  <SCORE.INTRA.REPUL>
0

>  <SCORE.INTRA.REPUL.0>
0

>  <SCORE.INTRA.SOLV>
-1.9898

>  <SCORE.INTRA.SOLV.lig_0>
-46.1043

>  <SCORE.INTRA.VDW>
-0.188322

>  <SCORE.INTRA.VDW.0>
-0.545445

>  <SCORE.INTRA.norm>
-0.629432

>  <SCORE.RESTR>
0

>  <SCORE.RESTR.CAVITY>
0

>  <SCORE.RESTR.norm>
0

>  <SCORE.SYSTEM>
0

>  <SCORE.SYSTEM.CONST>
0

>  <SCORE.SYSTEM.DIHEDRAL>
0

>  <SCORE.SYSTEM.SOLV>
0

>  <SCORE.SYSTEM.norm>
0

>  <SCORE.heavy>
14

>  <SCORE.norm>
-0.284836

>  <RMSD>
4.222

$$$$
ligand
 OpenBabel11021811513D
libRbt.so/2013.1/901 2013/11/27
 14 13  0  0  0  0  0  0  0  0999 V2000
   30.8057   45.3067   42.6010 N   0  0  0  0  0  0  0  0  0  0  0  0
   30.7330   46.0315   41.3427 C   0  0  0  0  0  0  0  0  0  0  0  0
   29.5639   47.0106   41.3615 C   0  0  0  0  0  0  0  0  0  0  0  0
   29.4977   47.8134   40.0672 C   0  0  0  0  0  0  0  0  0  0  0  0
   28.4128   48.7902   40.0596 N   0  0  0  0  0  0  0  0  0  0  0  0
   28.0693   49.5064   38.8426 C   0  0  0  0  0  0  0  0  0  0  0  0
   26.5767   49.7957   38.7278 C   0  0  0  0  0  0  0  0  0  0  0  0
   26.2657   50.4000   37.3630 C   0  0  0  0  0  0  0  0  0  0  0  0
   24.7668   50.6512   37.2389 C   0  0  0  0  0  0  0  0  0  0  0  0
   24.2892   51.6037   38.2263 N   0  0  0  0  0  0  0  0  0  0  0  0
   22.8699   51.9284   38.2800 C   0  0  0  0  0  0  0  0  0  0  0  0
   22.4064   52.5493   39.5960 C   0  0  0  0  0  0  0  0  0  0  0  0
   22.6012   51.5688   40.7539 C   0  0  0  0  0  0  0  0  0  0  0  0
   22.1402   52.1618   41.9977 N   0  0  0  0  0  0  0  0  0  0  0  0
  1  2  1  0  0  0  0
  2  3  1  0  0  0  0
  3  4  1  0  0  0  0
  4  5  1  0  0  0  0
  5  6  1  0  0  0  0
  6  7  1  0  0  0  0
  7  8  1  0  0  0  0
  8  9  1  0  0  0  0
  9 10  1  0  0  0  0
 10 11  1  0  0  0  0
 11 12  1  0  0  0  0
 12 13  1  0  0  0  0
 13 14  1  0  0  0  0
M  END
>  <CHROM.1>
178.15670398,-178.40201899,-170.83938971,145.96795612,-173.45321546,178.42905175
62.03558074,-178.01666596,160.68986137,-62.94128075,-179.20916484,26.35699682
49.65133904,39.74662247,0.36559455,-0.56848325,1.85177378

>  <Name>
ligand

>  <RI>
0

>  <Rbt.Current_Directory>
/home/itssahil/PROJECTS/Mol_Feturizer/New_Systems/rnas/4P5J

>  <Rbt.Executable>
rbdock ($Id: //depot/dev/client3/rdock/2013.1/src/exe/rbdock.cxx#4 $)

>  <Rbt.Library>
libRbt.so (2013.1, Build901 2013/11/27)

>  <Rbt.Parameter_File>
/export/apps/rDock/src/rDock_2013.1_src/data/scripts/dock_solv.prm

>  <Rbt.Receptor>
prm/pocket_docking_6.prm

>  <SCORE>
-5.69118

>  <SCORE.INTER>
4.07149

>  <SCORE.INTER.CONST>
1

>  <SCORE.INTER.POLAR>
0

>  <SCORE.INTER.ROT>
11

>  <SCORE.INTER.SOLV>
6.54255

>  <SCORE.INTER.VDW>
-10.3999

>  <SCORE.INTER.norm>
0.290821

>  <SCORE.INTRA>
-9.76268

>  <SCORE.INTRA.DIHEDRAL>
-16.2011

>  <SCORE.INTRA.DIHEDRAL.0>
17.5233

>  <SCORE.INTRA.POLAR>
0

>  <SCORE.INTRA.POLAR.0>
0

>  <SCORE.INTRA.REPUL>
0

>  <SCORE.INTRA.REPUL.0>
0

>  <SCORE.INTRA.SOLV>
-1.98583

>  <SCORE.INTRA.SOLV.lig_0>
-46.1043

>  <SCORE.INTRA.VDW>
-0.669226

>  <SCORE.INTRA.VDW.0>
-0.545445

>  <SCORE.INTRA.norm>
-0.697334

>  <SCORE.RESTR>
0

>  <SCORE.RESTR.CAVITY>
0

>  <SCORE.RESTR.norm>
0

>  <SCORE.SYSTEM>
0

>  <SCORE.SYSTEM.CONST>
0

>  <SCORE.SYSTEM.DIHEDRAL>
0

>  <SCORE.SYSTEM.SOLV>
0

>  <SCORE.SYSTEM.norm>
0

>  <SCORE.heavy>
14

>  <SCORE.norm>
-0.406513

>  <RMSD>
4.252

$$$$
ligand
 OpenBabel11021811513D
libRbt.so/2013.1/901 2013/11/27
 14 13  0  0  0  0  0  0  0  0999 V2000
   29.8610   50.6012   34.9892 N   0  0  0  0  0  0  0  0  0  0  0  0
   29.3988   50.9793   36.3149 C   0  0  0  0  0  0  0  0  0  0  0  0
   29.0223   49.7392   37.1188 C   0  0  0  0  0  0  0  0  0  0  0  0
   28.5959   50.1101   38.5347 C   0  0  0  0  0  0  0  0  0  0  0  0
   28.2235   48.9493   39.3380 N   0  0  0  0  0  0  0  0  0  0  0  0
   29.1994   48.2982   40.1958 C   0  0  0  0  0  0  0  0  0  0  0  0
   30.1864   47.4339   39.4189 C   0  0  0  0  0  0  0  0  0  0  0  0
   31.0946   46.6818   40.3853 C   0  0  0  0  0  0  0  0  0  0  0  0
   32.0895   45.8311   39.6032 C   0  0  0  0  0  0  0  0  0  0  0  0
   31.4315   44.7848   38.8398 N   0  0  0  0  0  0  0  0  0  0  0  0
   31.6160   44.7282   37.3957 C   0  0  0  0  0  0  0  0  0  0  0  0
   30.7719   43.6723   36.6852 C   0  0  0  0  0  0  0  0  0  0  0  0
   31.1267   42.2710   37.1854 C   0  0  0  0  0  0  0  0  0  0  0  0
   32.4974   41.9432   36.8319 N   0  0  0  0  0  0  0  0  0  0  0  0
  1  2  1  0  0  0  0
  2  3  1  0  0  0  0
  3  4  1  0  0  0  0
  4  5  1  0  0  0  0
  5  6  1  0  0  0  0
  6  7  1  0  0  0  0
  7  8  1  0  0  0  0
  8  9  1  0  0  0  0
  9 10  1  0  0  0  0
 10 11  1  0  0  0  0
 11 12  1  0  0  0  0
 12 13  1  0  0  0  0
 13 14  1  0  0  0  0
M  END
>  <CHROM.1>
177.38285068,179.86510326,93.83977997,-75.94794462,-174.73806300,-179.38039559
-64.53659159,122.02636030,-174.37726361,-61.40645977,-64.75625925,30.36529827
46.85895109,38.05999261,-2.98697874,-1.20240741,1.73062273

>  <Name>
ligand

>  <RI>
0

>  <Rbt.Current_Directory>
/home/itssahil/PROJECTS/Mol_Feturizer/New_Systems/rnas/4P5J

>  <Rbt.Executable>
rbdock ($Id: //depot/dev/client3/rdock/2013.1/src/exe/rbdock.cxx#4 $)

>  <Rbt.Library>
libRbt.so (2013.1, Build901 2013/11/27)

>  <Rbt.Parameter_File>
/export/apps/rDock/src/rDock_2013.1_src/data/scripts/dock_solv.prm

>  <Rbt.Receptor>
prm/pocket_docking_4.prm

>  <SCORE>
-2.31125

>  <SCORE.INTER>
5.88352

>  <SCORE.INTER.CONST>
1

>  <SCORE.INTER.POLAR>
0

>  <SCORE.INTER.ROT>
11

>  <SCORE.INTER.SOLV>
9.04545

>  <SCORE.INTER.VDW>
-10.0261

>  <SCORE.INTER.norm>
0.420252

>  <SCORE.INTRA>
-8.19477

>  <SCORE.INTRA.DIHEDRAL>
-15.0819

>  <SCORE.INTRA.DIHEDRAL.0>
17.5233

>  <SCORE.INTRA.POLAR>
0

>  <SCORE.INTRA.POLAR.0>
0

>  <SCORE.INTRA.REPUL>
0

>  <SCORE.INTRA.REPUL.0>
0

>  <SCORE.INTRA.SOLV>
-0.573648

>  <SCORE.INTRA.SOLV.lig_0>
-46.1043

>  <SCORE.INTRA.VDW>
-0.366976

>  <SCORE.INTRA.VDW.0>
-0.545445

>  <SCORE.INTRA.norm>
-0.585341

>  <SCORE.RESTR>
0

>  <SCORE.RESTR.CAVITY>
0

>  <SCORE.RESTR.norm>
0

>  <SCORE.SYSTEM>
0

>  <SCORE.SYSTEM.CONST>
0

>  <SCORE.SYSTEM.DIHEDRAL>
0

>  <SCORE.SYSTEM.SOLV>
0

>  <SCORE.SYSTEM.norm>
0

>  <SCORE.heavy>
14

>  <SCORE.norm>
-0.165089

>  <RMSD>
4.278

$$$$
ligand
 OpenBabel11021811513D
libRbt.so/2013.1/901 2013/11/27
 14 13  0  0  0  0  0  0  0  0999 V2000
   22.0036   53.3035   41.5454 N   0  0  0  0  0  0  0  0  0  0  0  0
   21.9415   51.8771   41.8206 C   0  0  0  0  0  0  0  0  0  0  0  0
   21.3851   51.1281   40.6143 C   0  0  0  0  0  0  0  0  0  0  0  0
   22.3387   51.2108   39.4276 C   0  0  0  0  0  0  0  0  0  0  0  0
   23.6236   50.5678   39.6857 N   0  0  0  0  0  0  0  0  0  0  0  0
   24.5943   50.3970   38.6178 C   0  0  0  0  0  0  0  0  0  0  0  0
   26.0065   50.1486   39.1362 C   0  0  0  0  0  0  0  0  0  0  0  0
   26.9702   49.9823   37.9666 C   0  0  0  0  0  0  0  0  0  0  0  0
   28.3875   49.7774   38.4902 C   0  0  0  0  0  0  0  0  0  0  0  0
   28.4838   48.6240   39.3682 N   0  0  0  0  0  0  0  0  0  0  0  0
   29.7891   48.2095   39.8653 C   0  0  0  0  0  0  0  0  0  0  0  0
   29.7647   46.9881   40.7817 C   0  0  0  0  0  0  0  0  0  0  0  0
   31.1790   46.6292   41.2410 C   0  0  0  0  0  0  0  0  0  0  0  0
   31.1396   45.4993   42.1536 N   0  0  0  0  0  0  0  0  0  0  0  0
  1  2  1  0  0  0  0
  2  3  1  0  0  0  0
  3  4  1  0  0  0  0
  4  5  1  0  0  0  0
  5  6  1  0  0  0  0
  6  7  1  0  0  0  0
  7  8  1  0  0  0  0
  8  9  1  0  0  0  0
  9 10  1  0  0  0  0
 10 11  1  0  0  0  0
 11 12  1  0  0  0  0
 12 13  1  0  0  0  0
 13 14  1  0  0  0  0
M  END
>  <CHROM.1>
66.20957746,63.37953401,172.13532100,160.90982936,-179.87262408,178.25655438
57.96348140,174.59061725,179.84415217,179.63814102,177.76273105,26.25763083
49.59595052,40.05074983,2.95153337,0.49372583,-1.22748860

>  <Name>
ligand

>  <RI>
0

>  <Rbt.Current_Directory>
/home/itssahil/PROJECTS/Mol_Feturizer/New_Systems/rnas/4P5J

>  <Rbt.Executable>
rbdock ($Id: //depot/dev/client3/rdock/2013.1/src/exe/rbdock.cxx#4 $)

>  <Rbt.Library>
libRbt.so (2013.1, Build901 2013/11/27)

>  <Rbt.Parameter_File>
/export/apps/rDock/src/rDock_2013.1_src/data/scripts/dock_solv.prm

>  <Rbt.Receptor>
prm/pocket_docking_5.prm

>  <SCORE>
-3.96685

>  <SCORE.INTER>
5.16957

>  <SCORE.INTER.CONST>
1

>  <SCORE.INTER.POLAR>
0

>  <SCORE.INTER.ROT>
11

>  <SCORE.INTER.SOLV>
6.88281

>  <SCORE.INTER.VDW>
-9.78122

>  <SCORE.INTER.norm>
0.369255

>  <SCORE.INTRA>
-9.15129

>  <SCORE.INTRA.DIHEDRAL>
-16.938

>  <SCORE.INTRA.DIHEDRAL.0>
17.5233

>  <SCORE.INTRA.POLAR>
0

>  <SCORE.INTRA.POLAR.0>
0

>  <SCORE.INTRA.REPUL>
0

>  <SCORE.INTRA.REPUL.0>
0

>  <SCORE.INTRA.SOLV>
-0.566802

>  <SCORE.INTRA.SOLV.lig_0>
-46.1043

>  <SCORE.INTRA.VDW>
-0.398879

>  <SCORE.INTRA.VDW.0>
-0.545445

>  <SCORE.INTRA.norm>
-0.653663

>  <SCORE.RESTR>
0.0148691

>  <SCORE.RESTR.CAVITY>
0.0148691

>  <SCORE.RESTR.norm>
0.00106208

>  <SCORE.SYSTEM>
0

>  <SCORE.SYSTEM.CONST>
0

>  <SCORE.SYSTEM.DIHEDRAL>
0

>  <SCORE.SYSTEM.SOLV>
0

>  <SCORE.SYSTEM.norm>
0

>  <SCORE.heavy>
14

>  <SCORE.norm>
-0.283346

>  <RMSD>
4.314

$$$$
ligand
 OpenBabel11021811513D
libRbt.so/2013.1/901 2013/11/27
 14 13  0  0  0  0  0  0  0  0999 V2000
   31.4577   44.4308   42.7390 N   0  0  0  0  0  0  0  0  0  0  0  0
   31.5248   45.3410   41.6072 C   0  0  0  0  0  0  0  0  0  0  0  0
   30.1959   46.0684   41.4322 C   0  0  0  0  0  0  0  0  0  0  0  0
   30.2249   46.9810   40.2113 C   0  0  0  0  0  0  0  0  0  0  0  0
   28.9693   47.6975   40.0080 N   0  0  0  0  0  0  0  0  0  0  0  0
   28.7844   49.0352   40.5450 C   0  0  0  0  0  0  0  0  0  0  0  0
   27.3234   49.4712   40.5566 C   0  0  0  0  0  0  0  0  0  0  0  0
   26.7853   49.5311   39.1314 C   0  0  0  0  0  0  0  0  0  0  0  0
   25.3054   49.8981   39.1530 C   0  0  0  0  0  0  0  0  0  0  0  0
   24.7167   49.8712   37.8252 N   0  0  0  0  0  0  0  0  0  0  0  0
   24.7828   51.0621   36.9885 C   0  0  0  0  0  0  0  0  0  0  0  0
   26.1521   51.3314   36.3683 C   0  0  0  0  0  0  0  0  0  0  0  0
   26.1290   52.6223   35.5481 C   0  0  0  0  0  0  0  0  0  0  0  0
   27.4352   52.8683   34.9611 N   0  0  0  0  0  0  0  0  0  0  0  0
  1  2  1  0  0  0  0
  2  3  1  0  0  0  0
  3  4  1  0  0  0  0
  4  5  1  0  0  0  0
  5  6  1  0  0  0  0
  6  7  1  0  0  0  0
  7  8  1  0  0  0  0
  8  9  1  0  0  0  0
  9 10  1  0  0  0  0
 10 11  1  0  0  0  0
 11 12  1  0  0  0  0
 12 13  1  0  0  0  0
 13 14  1  0  0  0  0
M  END
>  <CHROM.1>
-177.40556111,-179.98183603,93.93229617,-164.92653389,-62.69727605,177.11790298
-175.69490318,-87.14789925,75.29452227,-178.18419624,-179.91998941,27.84179574
49.01509208,39.07685842,-0.99718154,0.22483584,-0.86864085

>  <Name>
ligand

>  <RI>
0

>  <Rbt.Current_Directory>
/home/itssahil/PROJECTS/Mol_Feturizer/New_Systems/rnas/4P5J

>  <Rbt.Executable>
rbdock ($Id: //depot/dev/client3/rdock/2013.1/src/exe/rbdock.cxx#4 $)

>  <Rbt.Library>
libRbt.so (2013.1, Build901 2013/11/27)

>  <Rbt.Parameter_File>
/export/apps/rDock/src/rDock_2013.1_src/data/scripts/dock_solv.prm

>  <Rbt.Receptor>
prm/pocket_docking_5.prm

>  <SCORE>
-2.72235

>  <SCORE.INTER>
6.54999

>  <SCORE.INTER.CONST>
1

>  <SCORE.INTER.POLAR>
0

>  <SCORE.INTER.ROT>
11

>  <SCORE.INTER.SOLV>
9.00748

>  <SCORE.INTER.VDW>
-9.56917

>  <SCORE.INTER.norm>
0.467856

>  <SCORE.INTRA>
-9.27234

>  <SCORE.INTRA.DIHEDRAL>
-15.7602

>  <SCORE.INTRA.DIHEDRAL.0>
17.5233

>  <SCORE.INTRA.POLAR>
0

>  <SCORE.INTRA.POLAR.0>
0

>  <SCORE.INTRA.REPUL>
0

>  <SCORE.INTRA.REPUL.0>
0

>  <SCORE.INTRA.SOLV>
-2.31515

>  <SCORE.INTRA.SOLV.lig_0>
-46.1043

>  <SCORE.INTRA.VDW>
-0.23467

>  <SCORE.INTRA.VDW.0>
-0.545445

>  <SCORE.INTRA.norm>
-0.66231

>  <SCORE.RESTR>
0

>  <SCORE.RESTR.CAVITY>
0

>  <SCORE.RESTR.norm>
0

>  <SCORE.SYSTEM>
0

>  <SCORE.SYSTEM.CONST>
0

>  <SCORE.SYSTEM.DIHEDRAL>
0

>  <SCORE.SYSTEM.SOLV>
0

>  <SCORE.SYSTEM.norm>
0

>  <SCORE.heavy>
14

>  <SCORE.norm>
-0.194454

>  <RMSD>
4.369

$$$$
ligand
 OpenBabel11021811513D
libRbt.so/2013.1/901 2013/11/27
 14 13  0  0  0  0  0  0  0  0999 V2000
   29.2195   46.2574   42.6654 N   0  0  0  0  0  0  0  0  0  0  0  0
   29.1875   47.3930   41.7581 C   0  0  0  0  0  0  0  0  0  0  0  0
   29.9082   47.0532   40.4577 C   0  0  0  0  0  0  0  0  0  0  0  0
   30.0289   48.2789   39.5591 C   0  0  0  0  0  0  0  0  0  0  0  0
   28.7341   48.7934   39.1234 N   0  0  0  0  0  0  0  0  0  0  0  0
   28.6524   49.9649   38.2675 C   0  0  0  0  0  0  0  0  0  0  0  0
   27.3178   50.0727   37.5380 C   0  0  0  0  0  0  0  0  0  0  0  0
   26.1775   50.1603   38.5462 C   0  0  0  0  0  0  0  0  0  0  0  0
   24.8408   50.1863   37.8130 C   0  0  0  0  0  0  0  0  0  0  0  0
   23.7190   50.3140   38.7272 N   0  0  0  0  0  0  0  0  0  0  0  0
   23.1358   51.6276   38.9659 C   0  0  0  0  0  0  0  0  0  0  0  0
   22.5024   51.8041   40.3442 C   0  0  0  0  0  0  0  0  0  0  0  0
   21.9718   53.2283   40.5165 C   0  0  0  0  0  0  0  0  0  0  0  0
   21.4919   53.4253   41.8737 N   0  0  0  0  0  0  0  0  0  0  0  0
  1  2  1  0  0  0  0
  2  3  1  0  0  0  0
  3  4  1  0  0  0  0
  4  5  1  0  0  0  0
  5  6  1  0  0  0  0
  6  7  1  0  0  0  0
  7  8  1  0  0  0  0
  8  9  1  0  0  0  0
  9 10  1  0  0  0  0
 10 11  1  0  0  0  0
 11 12  1  0  0  0  0
 12 13  1  0  0  0  0
 13 14  1  0  0  0  0
M  END
>  <CHROM.1>
-173.34971303,-63.48591258,179.57527160,160.24646807,59.92614218,-176.73723103
-178.09993771,97.32174568,-151.15262999,177.68437246,-174.36551105,26.20641572
49.89718492,39.72506065,0.19211827,-0.55954421,1.85441411

>  <Name>
ligand

>  <RI>
0

>  <Rbt.Current_Directory>
/home/itssahil/PROJECTS/Mol_Feturizer/New_Systems/rnas/4P5J

>  <Rbt.Executable>
rbdock ($Id: //depot/dev/client3/rdock/2013.1/src/exe/rbdock.cxx#4 $)

>  <Rbt.Library>
libRbt.so (2013.1, Build901 2013/11/27)

>  <Rbt.Parameter_File>
/export/apps/rDock/src/rDock_2013.1_src/data/scripts/dock_solv.prm

>  <Rbt.Receptor>
prm/pocket_docking_6.prm

>  <SCORE>
-4.35385

>  <SCORE.INTER>
4.91876

>  <SCORE.INTER.CONST>
1

>  <SCORE.INTER.POLAR>
0

>  <SCORE.INTER.ROT>
11

>  <SCORE.INTER.SOLV>
8.90069

>  <SCORE.INTER.VDW>
-10.6211

>  <SCORE.INTER.norm>
0.35134

>  <SCORE.INTRA>
-9.27261

>  <SCORE.INTRA.DIHEDRAL>
-15.4324

>  <SCORE.INTRA.DIHEDRAL.0>
17.5233

>  <SCORE.INTRA.POLAR>
0

>  <SCORE.INTRA.POLAR.0>
0

>  <SCORE.INTRA.REPUL>
0

>  <SCORE.INTRA.REPUL.0>
0

>  <SCORE.INTRA.SOLV>
-1.97724

>  <SCORE.INTRA.SOLV.lig_0>
-46.1043

>  <SCORE.INTRA.VDW>
-0.567802

>  <SCORE.INTRA.VDW.0>
-0.545445

>  <SCORE.INTRA.norm>
-0.662329

>  <SCORE.RESTR>
0

>  <SCORE.RESTR.CAVITY>
0

>  <SCORE.RESTR.norm>
0

>  <SCORE.SYSTEM>
0

>  <SCORE.SYSTEM.CONST>
0

>  <SCORE.SYSTEM.DIHEDRAL>
0

>  <SCORE.SYSTEM.SOLV>
0

>  <SCORE.SYSTEM.norm>
0

>  <SCORE.heavy>
14

>  <SCORE.norm>
-0.310989

>  <RMSD>
4.393

$$$$
ligand
 OpenBabel11021811513D
libRbt.so/2013.1/901 2013/11/27
 14 13  0  0  0  0  0  0  0  0999 V2000
   30.0082   45.3422   44.5321 N   0  0  0  0  0  0  0  0  0  0  0  0
   30.1488   45.2405   43.0885 C   0  0  0  0  0  0  0  0  0  0  0  0
   29.9257   46.6011   42.4368 C   0  0  0  0  0  0  0  0  0  0  0  0
   30.0347   46.5085   40.9189 C   0  0  0  0  0  0  0  0  0  0  0  0
   29.9181   47.8065   40.2610 N   0  0  0  0  0  0  0  0  0  0  0  0
   28.6417   48.4994   40.2106 C   0  0  0  0  0  0  0  0  0  0  0  0
   28.4475   49.2885   38.9204 C   0  0  0  0  0  0  0  0  0  0  0  0
   27.0510   49.8991   38.8873 C   0  0  0  0  0  0  0  0  0  0  0  0
   26.7847   50.5052   37.5136 C   0  0  0  0  0  0  0  0  0  0  0  0
   25.4338   51.0272   37.3997 N   0  0  0  0  0  0  0  0  0  0  0  0
   24.8843   51.3098   36.0803 C   0  0  0  0  0  0  0  0  0  0  0  0
   23.4348   51.7907   36.0820 C   0  0  0  0  0  0  0  0  0  0  0  0
   23.3218   53.1626   36.7491 C   0  0  0  0  0  0  0  0  0  0  0  0
   24.0026   54.1675   35.9505 N   0  0  0  0  0  0  0  0  0  0  0  0
  1  2  1  0  0  0  0
  2  3  1  0  0  0  0
  3  4  1  0  0  0  0
  4  5  1  0  0  0  0
  5  6  1  0  0  0  0
  6  7  1  0  0  0  0
  7  8  1  0  0  0  0
  8  9  1  0  0  0  0
  9 10  1  0  0  0  0
 10 11  1  0  0  0  0
 11 12  1  0  0  0  0
 12 13  1  0  0  0  0
 13 14  1  0  0  0  0
M  END
>  <CHROM.1>
-178.58361972,-176.06811575,-71.19726462,-145.54600463,175.64550424,-171.45706943
176.35440509,-163.55872882,177.21243822,66.36526441,66.52966728,27.28838748
49.36768208,39.21635693,0.92307245,-0.42480892,2.06633973

>  <Name>
ligand

>  <RI>
0

>  <Rbt.Current_Directory>
/home/itssahil/PROJECTS/Mol_Feturizer/New_Systems/rnas/4P5J

>  <Rbt.Executable>
rbdock ($Id: //depot/dev/client3/rdock/2013.1/src/exe/rbdock.cxx#4 $)

>  <Rbt.Library>
libRbt.so (2013.1, Build901 2013/11/27)

>  <Rbt.Parameter_File>
/export/apps/rDock/src/rDock_2013.1_src/data/scripts/dock_solv.prm

>  <Rbt.Receptor>
prm/pocket_docking_8.prm

>  <SCORE>
-4.65251

>  <SCORE.INTER>
4.05224

>  <SCORE.INTER.CONST>
1

>  <SCORE.INTER.POLAR>
0

>  <SCORE.INTER.ROT>
11

>  <SCORE.INTER.SOLV>
6.07266

>  <SCORE.INTER.VDW>
-10.2561

>  <SCORE.INTER.norm>
0.289446

>  <SCORE.INTRA>
-8.70475

>  <SCORE.INTRA.DIHEDRAL>
-15.669

>  <SCORE.INTRA.DIHEDRAL.0>
17.5233

>  <SCORE.INTRA.POLAR>
0

>  <SCORE.INTRA.POLAR.0>
0

>  <SCORE.INTRA.REPUL>
0

>  <SCORE.INTRA.REPUL.0>
0

>  <SCORE.INTRA.SOLV>
-1.08371

>  <SCORE.INTRA.SOLV.lig_0>
-46.1043

>  <SCORE.INTRA.VDW>
-0.328393

>  <SCORE.INTRA.VDW.0>
-0.545445

>  <SCORE.INTRA.norm>
-0.621768

>  <SCORE.RESTR>
0

>  <SCORE.RESTR.CAVITY>
0

>  <SCORE.RESTR.norm>
0

>  <SCORE.SYSTEM>
0

>  <SCORE.SYSTEM.CONST>
0

>  <SCORE.SYSTEM.DIHEDRAL>
0

>  <SCORE.SYSTEM.SOLV>
0

>  <SCORE.SYSTEM.norm>
0

>  <SCORE.heavy>
14

>  <SCORE.norm>
-0.332322

>  <RMSD>
4.456

$$$$
ligand
 OpenBabel11021811513D
libRbt.so/2013.1/901 2013/11/27
 14 13  0  0  0  0  0  0  0  0999 V2000
   31.7237   46.4577   39.8079 N   0  0  0  0  0  0  0  0  0  0  0  0
   31.0515   47.5414   40.5064 C   0  0  0  0  0  0  0  0  0  0  0  0
   29.6535   47.7538   39.9352 C   0  0  0  0  0  0  0  0  0  0  0  0
   28.9564   48.9299   40.6100 C   0  0  0  0  0  0  0  0  0  0  0  0
   27.6149   49.1708   40.0872 N   0  0  0  0  0  0  0  0  0  0  0  0
   27.4266   49.7230   38.7562 C   0  0  0  0  0  0  0  0  0  0  0  0
   25.9757   50.0940   38.4695 C   0  0  0  0  0  0  0  0  0  0  0  0
   25.8467   50.6383   37.0512 C   0  0  0  0  0  0  0  0  0  0  0  0
   24.4074   51.0704   36.7928 C   0  0  0  0  0  0  0  0  0  0  0  0
   24.0069   52.1745   37.6478 N   0  0  0  0  0  0  0  0  0  0  0  0
   23.0243   51.9462   38.6989 C   0  0  0  0  0  0  0  0  0  0  0  0
   22.8769   53.0942   39.6953 C   0  0  0  0  0  0  0  0  0  0  0  0
   21.8504   52.7444   40.7742 C   0  0  0  0  0  0  0  0  0  0  0  0
   21.7812   53.8051   41.7648 N   0  0  0  0  0  0  0  0  0  0  0  0
  1  2  1  0  0  0  0
  2  3  1  0  0  0  0
  3  4  1  0  0  0  0
  4  5  1  0  0  0  0
  5  6  1  0  0  0  0
  6  7  1  0  0  0  0
  7  8  1  0  0  0  0
  8  9  1  0  0  0  0
  9 10  1  0  0  0  0
 10 11  1  0  0  0  0
 11 12  1  0  0  0  0
 12 13  1  0  0  0  0
 13 14  1  0  0  0  0
M  END
>  <CHROM.1>
-177.30325063,179.76841553,-71.51718277,-171.47252896,-178.84903690,-177.28256295
64.15345507,-110.69584023,168.92743850,-178.62545317,176.29891641,26.15681351
50.36738837,39.32819370,-0.00696221,-0.58927821,1.48343000

>  <Name>
ligand

>  <RI>
0

>  <Rbt.Current_Directory>
/home/itssahil/PROJECTS/Mol_Feturizer/New_Systems/rnas/4P5J

>  <Rbt.Executable>
rbdock ($Id: //depot/dev/client3/rdock/2013.1/src/exe/rbdock.cxx#4 $)

>  <Rbt.Library>
libRbt.so (2013.1, Build901 2013/11/27)

>  <Rbt.Parameter_File>
/export/apps/rDock/src/rDock_2013.1_src/data/scripts/dock_solv.prm

>  <Rbt.Receptor>
prm/pocket_docking_7.prm

>  <SCORE>
-4.8785

>  <SCORE.INTER>
4.66476

>  <SCORE.INTER.CONST>
1

>  <SCORE.INTER.POLAR>
0

>  <SCORE.INTER.ROT>
11

>  <SCORE.INTER.SOLV>
5.91672

>  <SCORE.INTER.VDW>
-9.79573

>  <SCORE.INTER.norm>
0.333197

>  <SCORE.INTRA>
-9.54326

>  <SCORE.INTRA.DIHEDRAL>
-15.943

>  <SCORE.INTRA.DIHEDRAL.0>
17.5233

>  <SCORE.INTRA.POLAR>
0

>  <SCORE.INTRA.POLAR.0>
0

>  <SCORE.INTRA.REPUL>
0

>  <SCORE.INTRA.REPUL.0>
0

>  <SCORE.INTRA.SOLV>
-2.3095

>  <SCORE.INTRA.SOLV.lig_0>
-46.1043

>  <SCORE.INTRA.VDW>
-0.417027

>  <SCORE.INTRA.VDW.0>
-0.545445

>  <SCORE.INTRA.norm>
-0.681661

>  <SCORE.RESTR>
0

>  <SCORE.RESTR.CAVITY>
0

>  <SCORE.RESTR.norm>
0

>  <SCORE.SYSTEM>
0

>  <SCORE.SYSTEM.CONST>
0

>  <SCORE.SYSTEM.DIHEDRAL>
0

>  <SCORE.SYSTEM.SOLV>
0

>  <SCORE.SYSTEM.norm>
0

>  <SCORE.heavy>
14

>  <SCORE.norm>
-0.348464

>  <RMSD>
4.459

$$$$
ligand
 OpenBabel11021811513D
libRbt.so/2013.1/901 2013/11/27
 14 13  0  0  0  0  0  0  0  0999 V2000
   22.3730   51.8696   40.8479 N   0  0  0  0  0  0  0  0  0  0  0  0
   22.3781   51.4180   39.4658 C   0  0  0  0  0  0  0  0  0  0  0  0
   22.9309   52.5081   38.5538 C   0  0  0  0  0  0  0  0  0  0  0  0
   23.0059   52.0302   37.1080 C   0  0  0  0  0  0  0  0  0  0  0  0
   23.9599   50.9416   36.9186 N   0  0  0  0  0  0  0  0  0  0  0  0
   25.3475   51.2215   36.5897 C   0  0  0  0  0  0  0  0  0  0  0  0
   26.3189   50.2442   37.2425 C   0  0  0  0  0  0  0  0  0  0  0  0
   26.2050   50.3305   38.7604 C   0  0  0  0  0  0  0  0  0  0  0  0
   27.2719   49.4552   39.4090 C   0  0  0  0  0  0  0  0  0  0  0  0
   28.6130   49.9562   39.1627 N   0  0  0  0  0  0  0  0  0  0  0  0
   29.5885   49.0975   38.5041 C   0  0  0  0  0  0  0  0  0  0  0  0
   30.5219   48.3477   39.4522 C   0  0  0  0  0  0  0  0  0  0  0  0
   29.7319   47.3789   40.3337 C   0  0  0  0  0  0  0  0  0  0  0  0
   30.6136   46.7446   41.2989 N   0  0  0  0  0  0  0  0  0  0  0  0
  1  2  1  0  0  0  0
  2  3  1  0  0  0  0
  3  4  1  0  0  0  0
  4  5  1  0  0  0  0
  5  6  1  0  0  0  0
  6  7  1  0  0  0  0
  7  8  1  0  0  0  0
  8  9  1  0  0  0  0
  9 10  1  0  0  0  0
 10 11  1  0  0  0  0
 11 12  1  0  0  0  0
 12 13  1  0  0  0  0
 13 14  1  0  0  0  0
M  END
>  <CHROM.1>
177.32894513,-65.31305573,-90.20798800,143.93643243,-61.09711311,-174.41525740
66.65056296,-122.17794441,-96.11317977,63.40074473,-175.75495802,26.34712171
50.11036633,38.83165973,2.81980645,0.43667795,-1.29403343

>  <Name>
ligand

>  <RI>
0

>  <Rbt.Current_Directory>
/home/itssahil/PROJECTS/Mol_Feturizer/New_Systems/rnas/4P5J

>  <Rbt.Executable>
rbdock ($Id: //depot/dev/client3/rdock/2013.1/src/exe/rbdock.cxx#4 $)

>  <Rbt.Library>
libRbt.so (2013.1, Build901 2013/11/27)

>  <Rbt.Parameter_File>
/export/apps/rDock/src/rDock_2013.1_src/data/scripts/dock_solv.prm

>  <Rbt.Receptor>
prm/pocket_docking_6.prm

>  <SCORE>
-4.61881

>  <SCORE.INTER>
3.48609

>  <SCORE.INTER.CONST>
1

>  <SCORE.INTER.POLAR>
0

>  <SCORE.INTER.ROT>
11

>  <SCORE.INTER.SOLV>
6.95264

>  <SCORE.INTER.VDW>
-10.9268

>  <SCORE.INTER.norm>
0.249007

>  <SCORE.INTRA>
-8.10491

>  <SCORE.INTRA.DIHEDRAL>
-13.5998

>  <SCORE.INTRA.DIHEDRAL.0>
17.5233

>  <SCORE.INTRA.POLAR>
0

>  <SCORE.INTRA.POLAR.0>
0

>  <SCORE.INTRA.REPUL>
0

>  <SCORE.INTRA.REPUL.0>
0

>  <SCORE.INTRA.SOLV>
-1.12166

>  <SCORE.INTRA.SOLV.lig_0>
-46.1043

>  <SCORE.INTRA.VDW>
-0.744153

>  <SCORE.INTRA.VDW.0>
-0.545445

>  <SCORE.INTRA.norm>
-0.578922

>  <SCORE.RESTR>
0

>  <SCORE.RESTR.CAVITY>
0

>  <SCORE.RESTR.norm>
0

>  <SCORE.SYSTEM>
0

>  <SCORE.SYSTEM.CONST>
0

>  <SCORE.SYSTEM.DIHEDRAL>
0

>  <SCORE.SYSTEM.SOLV>
0

>  <SCORE.SYSTEM.norm>
0

>  <SCORE.heavy>
14

>  <SCORE.norm>
-0.329915

>  <RMSD>
4.496

$$$$
ligand
 OpenBabel11021811513D
libRbt.so/2013.1/901 2013/11/27
 14 13  0  0  0  0  0  0  0  0999 V2000
   22.1984   52.4286   41.1654 N   0  0  0  0  0  0  0  0  0  0  0  0
   22.4472   52.9313   39.8240 C   0  0  0  0  0  0  0  0  0  0  0  0
   22.8668   51.7926   38.9004 C   0  0  0  0  0  0  0  0  0  0  0  0
   23.1697   52.3057   37.4970 C   0  0  0  0  0  0  0  0  0  0  0  0
   23.6170   51.2518   36.5913 N   0  0  0  0  0  0  0  0  0  0  0  0
   25.0293   51.0792   36.2957 C   0  0  0  0  0  0  0  0  0  0  0  0
   25.7126   50.0877   37.2311 C   0  0  0  0  0  0  0  0  0  0  0  0
   25.8906   50.7101   38.6115 C   0  0  0  0  0  0  0  0  0  0  0  0
   26.5431   49.7027   39.5520 C   0  0  0  0  0  0  0  0  0  0  0  0
   27.9252   49.4361   39.1927 N   0  0  0  0  0  0  0  0  0  0  0  0
   28.7026   48.4941   39.9871 C   0  0  0  0  0  0  0  0  0  0  0  0
   30.0115   48.0432   39.3423 C   0  0  0  0  0  0  0  0  0  0  0  0
   30.6667   46.9349   40.1682 C   0  0  0  0  0  0  0  0  0  0  0  0
   31.8982   46.4965   39.5339 N   0  0  0  0  0  0  0  0  0  0  0  0
  1  2  1  0  0  0  0
  2  3  1  0  0  0  0
  3  4  1  0  0  0  0
  4  5  1  0  0  0  0
  5  6  1  0  0  0  0
  6  7  1  0  0  0  0
  7  8  1  0  0  0  0
  8  9  1  0  0  0  0
  9 10  1  0  0  0  0
 10 11  1  0  0  0  0
 11 12  1  0  0  0  0
 12 13  1  0  0  0  0
 13 14  1  0  0  0  0
M  END
>  <CHROM.1>
-178.43853682,178.15931211,-100.32350696,92.05004967,-73.08021347,178.62097782
68.81559225,-179.97206501,166.28057426,-173.12106002,178.97412081,26.19124811
50.12112935,38.84938223,3.02979425,0.56256379,-1.57670472

>  <Name>
ligand

>  <RI>
0

>  <Rbt.Current_Directory>
/home/itssahil/PROJECTS/Mol_Feturizer/New_Systems/rnas/4P5J

>  <Rbt.Executable>
rbdock ($Id: //depot/dev/client3/rdock/2013.1/src/exe/rbdock.cxx#4 $)

>  <Rbt.Library>
libRbt.so (2013.1, Build901 2013/11/27)

>  <Rbt.Parameter_File>
/export/apps/rDock/src/rDock_2013.1_src/data/scripts/dock_solv.prm

>  <Rbt.Receptor>
prm/pocket_docking_6.prm

>  <SCORE>
-5.17989

>  <SCORE.INTER>
3.75475

>  <SCORE.INTER.CONST>
1

>  <SCORE.INTER.POLAR>
0

>  <SCORE.INTER.ROT>
11

>  <SCORE.INTER.SOLV>
8.60883

>  <SCORE.INTER.VDW>
-11.2998

>  <SCORE.INTER.norm>
0.268196

>  <SCORE.INTRA>
-8.93464

>  <SCORE.INTRA.DIHEDRAL>
-14.6797

>  <SCORE.INTRA.DIHEDRAL.0>
17.5233

>  <SCORE.INTRA.POLAR>
0

>  <SCORE.INTRA.POLAR.0>
0

>  <SCORE.INTRA.REPUL>
0

>  <SCORE.INTRA.REPUL.0>
0

>  <SCORE.INTRA.SOLV>
-2.00225

>  <SCORE.INTRA.SOLV.lig_0>
-46.1043

>  <SCORE.INTRA.VDW>
-0.593681

>  <SCORE.INTRA.VDW.0>
-0.545445

>  <SCORE.INTRA.norm>
-0.638189

>  <SCORE.RESTR>
0

>  <SCORE.RESTR.CAVITY>
0

>  <SCORE.RESTR.norm>
0

>  <SCORE.SYSTEM>
0

>  <SCORE.SYSTEM.CONST>
0

>  <SCORE.SYSTEM.DIHEDRAL>
0

>  <SCORE.SYSTEM.SOLV>
0

>  <SCORE.SYSTEM.norm>
0

>  <SCORE.heavy>
14

>  <SCORE.norm>
-0.369992

>  <RMSD>
4.516

$$$$
ligand
 OpenBabel11021811513D
libRbt.so/2013.1/901 2013/11/27
 14 13  0  0  0  0  0  0  0  0999 V2000
   27.9177   47.5090   44.0160 N   0  0  0  0  0  0  0  0  0  0  0  0
   28.5931   46.9118   42.8753 C   0  0  0  0  0  0  0  0  0  0  0  0
   29.4519   45.7342   43.3244 C   0  0  0  0  0  0  0  0  0  0  0  0
   30.2643   45.1715   42.1636 C   0  0  0  0  0  0  0  0  0  0  0  0
   31.2280   46.1287   41.6283 N   0  0  0  0  0  0  0  0  0  0  0  0
   32.0624   45.7820   40.4901 C   0  0  0  0  0  0  0  0  0  0  0  0
   31.2887   45.7526   39.1766 C   0  0  0  0  0  0  0  0  0  0  0  0
   30.9050   47.1697   38.7651 C   0  0  0  0  0  0  0  0  0  0  0  0
   29.7912   47.6863   39.6694 C   0  0  0  0  0  0  0  0  0  0  0  0
   29.2369   48.9409   39.1906 N   0  0  0  0  0  0  0  0  0  0  0  0
   28.0111   49.4559   39.7862 C   0  0  0  0  0  0  0  0  0  0  0  0
   27.4044   50.6557   39.0619 C   0  0  0  0  0  0  0  0  0  0  0  0
   26.9568   50.2657   37.6522 C   0  0  0  0  0  0  0  0  0  0  0  0
   26.3684   51.4099   36.9771 N   0  0  0  0  0  0  0  0  0  0  0  0
  1  2  1  0  0  0  0
  2  3  1  0  0  0  0
  3  4  1  0  0  0  0
  4  5  1  0  0  0  0
  5  6  1  0  0  0  0
  6  7  1  0  0  0  0
  7  8  1  0  0  0  0
  8  9  1  0  0  0  0
  9 10  1  0  0  0  0
 10 11  1  0  0  0  0
 11 12  1  0  0  0  0
 12 13  1  0  0  0  0
 13 14  1  0  0  0  0
M  END
>  <CHROM.1>
-174.96477510,63.53418393,-178.05672504,73.17789195,70.59965767,-72.71336390
-170.64834431,168.94510254,-170.77665599,64.32142806,179.39604993,29.24878930
47.75498096,40.34116246,0.93923385,-0.67227326,2.00797263

>  <Name>
ligand

>  <RI>
0

>  <Rbt.Current_Directory>
/home/itssahil/PROJECTS/Mol_Feturizer/New_Systems/rnas/4P5J

>  <Rbt.Executable>
rbdock ($Id: //depot/dev/client3/rdock/2013.1/src/exe/rbdock.cxx#4 $)

>  <Rbt.Library>
libRbt.so (2013.1, Build901 2013/11/27)

>  <Rbt.Parameter_File>
/export/apps/rDock/src/rDock_2013.1_src/data/scripts/dock_solv.prm

>  <Rbt.Receptor>
prm/pocket_docking_6.prm

>  <SCORE>
-1.7219

>  <SCORE.INTER>
6.53815

>  <SCORE.INTER.CONST>
1

>  <SCORE.INTER.POLAR>
0

>  <SCORE.INTER.ROT>
11

>  <SCORE.INTER.SOLV>
5.21753

>  <SCORE.INTER.VDW>
-8.31374

>  <SCORE.INTER.norm>
0.467011

>  <SCORE.INTRA>
-8.26005

>  <SCORE.INTRA.DIHEDRAL>
-15.6105

>  <SCORE.INTRA.DIHEDRAL.0>
17.5233

>  <SCORE.INTRA.POLAR>
0

>  <SCORE.INTRA.POLAR.0>
0

>  <SCORE.INTRA.REPUL>
0

>  <SCORE.INTRA.REPUL.0>
0

>  <SCORE.INTRA.SOLV>
-0.682866

>  <SCORE.INTRA.SOLV.lig_0>
-46.1043

>  <SCORE.INTRA.VDW>
-0.113384

>  <SCORE.INTRA.VDW.0>
-0.545445

>  <SCORE.INTRA.norm>
-0.590004

>  <SCORE.RESTR>
0

>  <SCORE.RESTR.CAVITY>
0

>  <SCORE.RESTR.norm>
0

>  <SCORE.SYSTEM>
0

>  <SCORE.SYSTEM.CONST>
0

>  <SCORE.SYSTEM.DIHEDRAL>
0

>  <SCORE.SYSTEM.SOLV>
0

>  <SCORE.SYSTEM.norm>
0

>  <SCORE.heavy>
14

>  <SCORE.norm>
-0.122993

>  <RMSD>
4.530

$$$$
ligand
 OpenBabel11021811513D
libRbt.so/2013.1/901 2013/11/27
 14 13  0  0  0  0  0  0  0  0999 V2000
   29.4876   45.9312   43.1534 N   0  0  0  0  0  0  0  0  0  0  0  0
   29.4077   47.1382   42.3468 C   0  0  0  0  0  0  0  0  0  0  0  0
   29.6943   46.8180   40.8835 C   0  0  0  0  0  0  0  0  0  0  0  0
   29.7337   48.0874   40.0401 C   0  0  0  0  0  0  0  0  0  0  0  0
   28.4393   48.7580   39.9626 N   0  0  0  0  0  0  0  0  0  0  0  0
   28.0737   49.5290   38.7862 C   0  0  0  0  0  0  0  0  0  0  0  0
   26.5789   49.8198   38.7106 C   0  0  0  0  0  0  0  0  0  0  0  0
   26.2374   50.4516   37.3658 C   0  0  0  0  0  0  0  0  0  0  0  0
   24.7332   50.6823   37.2705 C   0  0  0  0  0  0  0  0  0  0  0  0
   24.2546   51.5940   38.2954 N   0  0  0  0  0  0  0  0  0  0  0  0
   22.8429   51.9523   38.3324 C   0  0  0  0  0  0  0  0  0  0  0  0
   22.3371   52.4140   39.6974 C   0  0  0  0  0  0  0  0  0  0  0  0
   22.4595   51.2896   40.7272 C   0  0  0  0  0  0  0  0  0  0  0  0
   21.9750   51.7384   42.0215 N   0  0  0  0  0  0  0  0  0  0  0  0
  1  2  1  0  0  0  0
  2  3  1  0  0  0  0
  3  4  1  0  0  0  0
  4  5  1  0  0  0  0
  5  6  1  0  0  0  0
  6  7  1  0  0  0  0
  7  8  1  0  0  0  0
  8  9  1  0  0  0  0
  9 10  1  0  0  0  0
 10 11  1  0  0  0  0
 11 12  1  0  0  0  0
 12 13  1  0  0  0  0
 13 14  1  0  0  0  0
M  END
>  <CHROM.1>
-175.12145258,-65.77877606,-149.76682802,163.87953711,-171.93905919,177.45211510
61.52102742,178.55185060,156.20550377,-62.77286798,-179.96020575,26.16111516
49.72893246,39.82767891,0.42571797,-0.50677115,1.91786584

>  <Name>
ligand

>  <RI>
0

>  <Rbt.Current_Directory>
/home/itssahil/PROJECTS/Mol_Feturizer/New_Systems/rnas/4P5J

>  <Rbt.Executable>
rbdock ($Id: //depot/dev/client3/rdock/2013.1/src/exe/rbdock.cxx#4 $)

>  <Rbt.Library>
libRbt.so (2013.1, Build901 2013/11/27)

>  <Rbt.Parameter_File>
/export/apps/rDock/src/rDock_2013.1_src/data/scripts/dock_solv.prm

>  <Rbt.Receptor>
prm/pocket_docking_6.prm

>  <SCORE>
-5.26428

>  <SCORE.INTER>
4.08542

>  <SCORE.INTER.CONST>
1

>  <SCORE.INTER.POLAR>
0

>  <SCORE.INTER.ROT>
11

>  <SCORE.INTER.SOLV>
6.63162

>  <SCORE.INTER.VDW>
-10.4203

>  <SCORE.INTER.norm>
0.291815

>  <SCORE.INTRA>
-9.3497

>  <SCORE.INTRA.DIHEDRAL>
-15.7823

>  <SCORE.INTRA.DIHEDRAL.0>
17.5233

>  <SCORE.INTRA.POLAR>
0

>  <SCORE.INTRA.POLAR.0>
0

>  <SCORE.INTRA.REPUL>
0

>  <SCORE.INTRA.REPUL.0>
0

>  <SCORE.INTRA.SOLV>
-1.65767

>  <SCORE.INTRA.SOLV.lig_0>
-46.1043

>  <SCORE.INTRA.VDW>
-0.629714

>  <SCORE.INTRA.VDW.0>
-0.545445

>  <SCORE.INTRA.norm>
-0.667836

>  <SCORE.RESTR>
0

>  <SCORE.RESTR.CAVITY>
0

>  <SCORE.RESTR.norm>
0

>  <SCORE.SYSTEM>
0

>  <SCORE.SYSTEM.CONST>
0

>  <SCORE.SYSTEM.DIHEDRAL>
0

>  <SCORE.SYSTEM.SOLV>
0

>  <SCORE.SYSTEM.norm>
0

>  <SCORE.heavy>
14

>  <SCORE.norm>
-0.37602

>  <RMSD>
4.535

$$$$
ligand
 OpenBabel11021811513D
libRbt.so/2013.1/901 2013/11/27
 14 13  0  0  0  0  0  0  0  0999 V2000
   30.6579   46.9911   40.7687 N   0  0  0  0  0  0  0  0  0  0  0  0
   30.3280   47.4505   39.4293 C   0  0  0  0  0  0  0  0  0  0  0  0
   30.5647   48.9524   39.3106 C   0  0  0  0  0  0  0  0  0  0  0  0
   30.2554   49.4485   37.9025 C   0  0  0  0  0  0  0  0  0  0  0  0
   28.8367   49.3633   37.5693 N   0  0  0  0  0  0  0  0  0  0  0  0
   27.8645   50.2032   38.2484 C   0  0  0  0  0  0  0  0  0  0  0  0
   26.4916   50.1735   37.5856 C   0  0  0  0  0  0  0  0  0  0  0  0
   25.5093   51.0255   38.3815 C   0  0  0  0  0  0  0  0  0  0  0  0
   24.1423   51.0044   37.7063 C   0  0  0  0  0  0  0  0  0  0  0  0
   23.1321   51.6859   38.4971 N   0  0  0  0  0  0  0  0  0  0  0  0
   22.5365   51.0045   39.6389 C   0  0  0  0  0  0  0  0  0  0  0  0
   21.6508   51.8855   40.5173 C   0  0  0  0  0  0  0  0  0  0  0  0
   22.4706   53.0065   41.1585 C   0  0  0  0  0  0  0  0  0  0  0  0
   21.6407   53.7801   42.0663 N   0  0  0  0  0  0  0  0  0  0  0  0
  1  2  1  0  0  0  0
  2  3  1  0  0  0  0
  3  4  1  0  0  0  0
  4  5  1  0  0  0  0
  5  6  1  0  0  0  0
  6  7  1  0  0  0  0
  7  8  1  0  0  0  0
  8  9  1  0  0  0  0
  9 10  1  0  0  0  0
 10 11  1  0  0  0  0
 11 12  1  0  0  0  0
 12 13  1  0  0  0  0
 13 14  1  0  0  0  0
M  END
>  <CHROM.1>
178.66741479,67.34299784,67.28494248,168.72033417,177.56037306,179.39383445
173.99306140,-78.64999830,171.09247090,-63.37774419,-175.91835676,26.14868775
50.42675943,39.19838385,-0.12848092,-0.47591979,1.62360873

>  <Name>
ligand

>  <RI>
0

>  <Rbt.Current_Directory>
/home/itssahil/PROJECTS/Mol_Feturizer/New_Systems/rnas/4P5J

>  <Rbt.Executable>
rbdock ($Id: //depot/dev/client3/rdock/2013.1/src/exe/rbdock.cxx#4 $)

>  <Rbt.Library>
libRbt.so (2013.1, Build901 2013/11/27)

>  <Rbt.Parameter_File>
/export/apps/rDock/src/rDock_2013.1_src/data/scripts/dock_solv.prm

>  <Rbt.Receptor>
prm/pocket_docking_5.prm

>  <SCORE>
-3.36601

>  <SCORE.INTER>
6.14939

>  <SCORE.INTER.CONST>
1

>  <SCORE.INTER.POLAR>
0

>  <SCORE.INTER.ROT>
11

>  <SCORE.INTER.SOLV>
6.30766

>  <SCORE.INTER.VDW>
-8.93629

>  <SCORE.INTER.norm>
0.439242

>  <SCORE.INTRA>
-9.5154

>  <SCORE.INTRA.DIHEDRAL>
-16.5769

>  <SCORE.INTRA.DIHEDRAL.0>
17.5233

>  <SCORE.INTRA.POLAR>
0

>  <SCORE.INTRA.POLAR.0>
0

>  <SCORE.INTRA.REPUL>
0

>  <SCORE.INTRA.REPUL.0>
0

>  <SCORE.INTRA.SOLV>
-2.08512

>  <SCORE.INTRA.SOLV.lig_0>
-46.1043

>  <SCORE.INTRA.VDW>
-0.184385

>  <SCORE.INTRA.VDW.0>
-0.545445

>  <SCORE.INTRA.norm>
-0.679672

>  <SCORE.RESTR>
0

>  <SCORE.RESTR.CAVITY>
0

>  <SCORE.RESTR.norm>
0

>  <SCORE.SYSTEM>
0

>  <SCORE.SYSTEM.CONST>
0

>  <SCORE.SYSTEM.DIHEDRAL>
0

>  <SCORE.SYSTEM.SOLV>
0

>  <SCORE.SYSTEM.norm>
0

>  <SCORE.heavy>
14

>  <SCORE.norm>
-0.240429

>  <RMSD>
4.539

$$$$
ligand
 OpenBabel11021811513D
libRbt.so/2013.1/901 2013/11/27
 14 13  0  0  0  0  0  0  0  0999 V2000
   29.0581   46.9367   42.5083 N   0  0  0  0  0  0  0  0  0  0  0  0
   29.4488   46.2594   41.2825 C   0  0  0  0  0  0  0  0  0  0  0  0
   30.3591   47.1550   40.4488 C   0  0  0  0  0  0  0  0  0  0  0  0
   29.6183   48.3981   39.9690 C   0  0  0  0  0  0  0  0  0  0  0  0
   30.4952   49.3644   39.3143 N   0  0  0  0  0  0  0  0  0  0  0  0
   29.9460   50.5459   38.6706 C   0  0  0  0  0  0  0  0  0  0  0  0
   30.3213   50.6447   37.1961 C   0  0  0  0  0  0  0  0  0  0  0  0
   29.5956   49.5663   36.3994 C   0  0  0  0  0  0  0  0  0  0  0  0
   30.2187   49.4406   35.0135 C   0  0  0  0  0  0  0  0  0  0  0  0
   31.5666   48.9014   35.0677 N   0  0  0  0  0  0  0  0  0  0  0  0
   31.7578   47.4677   35.2422 C   0  0  0  0  0  0  0  0  0  0  0  0
   33.1203   47.0692   35.8051 C   0  0  0  0  0  0  0  0  0  0  0  0
   34.2403   47.4712   34.8440 C   0  0  0  0  0  0  0  0  0  0  0  0
   35.5228   47.0060   35.3439 N   0  0  0  0  0  0  0  0  0  0  0  0
  1  2  1  0  0  0  0
  2  3  1  0  0  0  0
  3  4  1  0  0  0  0
  4  5  1  0  0  0  0
  5  6  1  0  0  0  0
  6  7  1  0  0  0  0
  7  8  1  0  0  0  0
  8  9  1  0  0  0  0
  9 10  1  0  0  0  0
 10 11  1  0  0  0  0
 11 12  1  0  0  0  0
 12 13  1  0  0  0  0
 13 14  1  0  0  0  0
M  END
>  <CHROM.1>
-64.92688748,172.60390272,173.62762854,-122.55562904,69.97157121,-166.14360389
68.05187930,78.64529035,-157.88921932,-63.03274520,-176.06271321,31.09040243
48.30199626,37.65021139,-2.33379028,0.69690531,-0.98865012

>  <Name>
ligand

>  <RI>
0

>  <Rbt.Current_Directory>
/home/itssahil/PROJECTS/Mol_Feturizer/New_Systems/rnas/4P5J

>  <Rbt.Executable>
rbdock ($Id: //depot/dev/client3/rdock/2013.1/src/exe/rbdock.cxx#4 $)

>  <Rbt.Library>
libRbt.so (2013.1, Build901 2013/11/27)

>  <Rbt.Parameter_File>
/export/apps/rDock/src/rDock_2013.1_src/data/scripts/dock_solv.prm

>  <Rbt.Receptor>
prm/pocket_docking_5.prm

>  <SCORE>
0.930247

>  <SCORE.INTER>
8.89096

>  <SCORE.INTER.CONST>
1

>  <SCORE.INTER.POLAR>
0

>  <SCORE.INTER.ROT>
11

>  <SCORE.INTER.SOLV>
4.68414

>  <SCORE.INTER.VDW>
-6.5674

>  <SCORE.INTER.norm>
0.635069

>  <SCORE.INTRA>
-7.96071

>  <SCORE.INTRA.DIHEDRAL>
-13.9036

>  <SCORE.INTRA.DIHEDRAL.0>
17.5233

>  <SCORE.INTRA.POLAR>
0

>  <SCORE.INTRA.POLAR.0>
0

>  <SCORE.INTRA.REPUL>
0

>  <SCORE.INTRA.REPUL.0>
0

>  <SCORE.INTRA.SOLV>
-0.749755

>  <SCORE.INTRA.SOLV.lig_0>
-46.1043

>  <SCORE.INTRA.VDW>
-0.634053

>  <SCORE.INTRA.VDW.0>
-0.545445

>  <SCORE.INTRA.norm>
-0.568622

>  <SCORE.RESTR>
0

>  <SCORE.RESTR.CAVITY>
0

>  <SCORE.RESTR.norm>
0

>  <SCORE.SYSTEM>
0

>  <SCORE.SYSTEM.CONST>
0

>  <SCORE.SYSTEM.DIHEDRAL>
0

>  <SCORE.SYSTEM.SOLV>
0

>  <SCORE.SYSTEM.norm>
0

>  <SCORE.heavy>
14

>  <SCORE.norm>
0.0664462

>  <RMSD>
4.539

$$$$
ligand
 OpenBabel11021811513D
libRbt.so/2013.1/901 2013/11/27
 14 13  0  0  0  0  0  0  0  0999 V2000
   31.3366   46.8527   40.9058 N   0  0  0  0  0  0  0  0  0  0  0  0
   29.9246   46.5104   40.8507 C   0  0  0  0  0  0  0  0  0  0  0  0
   29.0728   47.7752   40.8305 C   0  0  0  0  0  0  0  0  0  0  0  0
   29.2728   48.5526   39.5344 C   0  0  0  0  0  0  0  0  0  0  0  0
   28.3601   49.6845   39.4046 N   0  0  0  0  0  0  0  0  0  0  0  0
   28.4935   50.6209   38.3013 C   0  0  0  0  0  0  0  0  0  0  0  0
   27.1561   51.1969   37.8493 C   0  0  0  0  0  0  0  0  0  0  0  0
   26.2521   50.0799   37.3398 C   0  0  0  0  0  0  0  0  0  0  0  0
   25.0019   50.6771   36.7031 C   0  0  0  0  0  0  0  0  0  0  0  0
   24.1697   51.3651   37.6750 N   0  0  0  0  0  0  0  0  0  0  0  0
   22.9532   52.0326   37.2310 C   0  0  0  0  0  0  0  0  0  0  0  0
   23.1833   53.3079   36.4229 C   0  0  0  0  0  0  0  0  0  0  0  0
   23.8953   54.3634   37.2707 C   0  0  0  0  0  0  0  0  0  0  0  0
   24.1212   55.5673   36.4891 N   0  0  0  0  0  0  0  0  0  0  0  0
  1  2  1  0  0  0  0
  2  3  1  0  0  0  0
  3  4  1  0  0  0  0
  4  5  1  0  0  0  0
  5  6  1  0  0  0  0
  6  7  1  0  0  0  0
  7  8  1  0  0  0  0
  8  9  1  0  0  0  0
  9 10  1  0  0  0  0
 10 11  1  0  0  0  0
 11 12  1  0  0  0  0
 12 13  1  0  0  0  0
 13 14  1  0  0  0  0
M  END
>  <CHROM.1>
67.06772108,173.18113982,173.69084244,147.65615820,-62.06785556,-171.79073393
-65.74465785,178.08278986,-71.55576482,-62.76195267,179.44205020,26.65651197
50.61321087,38.34331464,-0.78660121,-0.33384449,-0.23072851

>  <Name>
ligand

>  <RI>
0

>  <Rbt.Current_Directory>
/home/itssahil/PROJECTS/Mol_Feturizer/New_Systems/rnas/4P5J

>  <Rbt.Executable>
rbdock ($Id: //depot/dev/client3/rdock/2013.1/src/exe/rbdock.cxx#4 $)

>  <Rbt.Library>
libRbt.so (2013.1, Build901 2013/11/27)

>  <Rbt.Parameter_File>
/export/apps/rDock/src/rDock_2013.1_src/data/scripts/dock_solv.prm

>  <Rbt.Receptor>
prm/pocket_docking_6.prm

>  <SCORE>
-4.25001

>  <SCORE.INTER>
4.45902

>  <SCORE.INTER.CONST>
1

>  <SCORE.INTER.POLAR>
0

>  <SCORE.INTER.ROT>
11

>  <SCORE.INTER.SOLV>
5.97503

>  <SCORE.INTER.VDW>
-9.95233

>  <SCORE.INTER.norm>
0.318501

>  <SCORE.INTRA>
-8.70903

>  <SCORE.INTRA.DIHEDRAL>
-15.8985

>  <SCORE.INTRA.DIHEDRAL.0>
17.5233

>  <SCORE.INTRA.POLAR>
0

>  <SCORE.INTRA.POLAR.0>
0

>  <SCORE.INTRA.REPUL>
0

>  <SCORE.INTRA.REPUL.0>
0

>  <SCORE.INTRA.SOLV>
-0.898676

>  <SCORE.INTRA.SOLV.lig_0>
-46.1043

>  <SCORE.INTRA.VDW>
-0.310425

>  <SCORE.INTRA.VDW.0>
-0.545445

>  <SCORE.INTRA.norm>
-0.622074

>  <SCORE.RESTR>
0

>  <SCORE.RESTR.CAVITY>
0

>  <SCORE.RESTR.norm>
0

>  <SCORE.SYSTEM>
0

>  <SCORE.SYSTEM.CONST>
0

>  <SCORE.SYSTEM.DIHEDRAL>
0

>  <SCORE.SYSTEM.SOLV>
0

>  <SCORE.SYSTEM.norm>
0

>  <SCORE.heavy>
14

>  <SCORE.norm>
-0.303572

>  <RMSD>
4.549

$$$$
ligand
 OpenBabel11021811513D
libRbt.so/2013.1/901 2013/11/27
 14 13  0  0  0  0  0  0  0  0999 V2000
   21.3860   51.6733   42.3103 N   0  0  0  0  0  0  0  0  0  0  0  0
   21.5693   52.2844   41.0038 C   0  0  0  0  0  0  0  0  0  0  0  0
   22.4335   51.3931   40.1181 C   0  0  0  0  0  0  0  0  0  0  0  0
   22.7064   52.0543   38.7717 C   0  0  0  0  0  0  0  0  0  0  0  0
   23.5644   51.2495   37.9073 N   0  0  0  0  0  0  0  0  0  0  0  0
   25.0004   51.2023   38.1255 C   0  0  0  0  0  0  0  0  0  0  0  0
   25.6824   50.0899   37.3366 C   0  0  0  0  0  0  0  0  0  0  0  0
   27.1753   50.0710   37.6452 C   0  0  0  0  0  0  0  0  0  0  0  0
   27.4035   49.5525   39.0609 C   0  0  0  0  0  0  0  0  0  0  0  0
   28.8156   49.4775   39.3939 N   0  0  0  0  0  0  0  0  0  0  0  0
   29.4108   48.1841   39.7027 C   0  0  0  0  0  0  0  0  0  0  0  0
   29.1481   47.6828   41.1211 C   0  0  0  0  0  0  0  0  0  0  0  0
   29.8562   46.3485   41.3622 C   0  0  0  0  0  0  0  0  0  0  0  0
   29.6629   45.9179   42.7363 N   0  0  0  0  0  0  0  0  0  0  0  0
  1  2  1  0  0  0  0
  2  3  1  0  0  0  0
  3  4  1  0  0  0  0
  4  5  1  0  0  0  0
  5  6  1  0  0  0  0
  6  7  1  0  0  0  0
  7  8  1  0  0  0  0
  8  9  1  0  0  0  0
  9 10  1  0  0  0  0
 10 11  1  0  0  0  0
 11 12  1  0  0  0  0
 12 13  1  0  0  0  0
 13 14  1  0  0  0  0
M  END
>  <CHROM.1>
-176.63119179,178.31253325,-77.75518866,167.35425606,-178.24890509,71.44717224
178.34946603,-117.69708970,-79.60087030,-177.84311299,176.78425222,25.98681846
49.79873910,39.75648120,2.82590301,0.49190216,-1.18863033

>  <Name>
ligand

>  <RI>
0

>  <Rbt.Current_Directory>
/home/itssahil/PROJECTS/Mol_Feturizer/New_Systems/rnas/4P5J

>  <Rbt.Executable>
rbdock ($Id: //depot/dev/client3/rdock/2013.1/src/exe/rbdock.cxx#4 $)

>  <Rbt.Library>
libRbt.so (2013.1, Build901 2013/11/27)

>  <Rbt.Parameter_File>
/export/apps/rDock/src/rDock_2013.1_src/data/scripts/dock_solv.prm

>  <Rbt.Receptor>
prm/pocket_docking_6.prm

>  <SCORE>
-4.19623

>  <SCORE.INTER>
4.29093

>  <SCORE.INTER.CONST>
1

>  <SCORE.INTER.POLAR>
0

>  <SCORE.INTER.ROT>
11

>  <SCORE.INTER.SOLV>
8.1876

>  <SCORE.INTER.VDW>
-10.8019

>  <SCORE.INTER.norm>
0.306495

>  <SCORE.INTRA>
-8.48716

>  <SCORE.INTRA.DIHEDRAL>
-15.005

>  <SCORE.INTRA.DIHEDRAL.0>
17.5233

>  <SCORE.INTRA.POLAR>
0

>  <SCORE.INTRA.POLAR.0>
0

>  <SCORE.INTRA.REPUL>
0

>  <SCORE.INTRA.REPUL.0>
0

>  <SCORE.INTRA.SOLV>
-2.47841

>  <SCORE.INTRA.SOLV.lig_0>
-46.1043

>  <SCORE.INTRA.VDW>
0.254558

>  <SCORE.INTRA.VDW.0>
-0.545445

>  <SCORE.INTRA.norm>
-0.606225

>  <SCORE.RESTR>
0

>  <SCORE.RESTR.CAVITY>
0

>  <SCORE.RESTR.norm>
0

>  <SCORE.SYSTEM>
0

>  <SCORE.SYSTEM.CONST>
0

>  <SCORE.SYSTEM.DIHEDRAL>
0

>  <SCORE.SYSTEM.SOLV>
0

>  <SCORE.SYSTEM.norm>
0

>  <SCORE.heavy>
14

>  <SCORE.norm>
-0.29973

>  <RMSD>
4.569

$$$$
ligand
 OpenBabel11021811513D
libRbt.so/2013.1/901 2013/11/27
 14 13  0  0  0  0  0  0  0  0999 V2000
   23.2971   55.2315   35.4150 N   0  0  0  0  0  0  0  0  0  0  0  0
   22.8952   53.8380   35.5170 C   0  0  0  0  0  0  0  0  0  0  0  0
   23.7984   53.0959   36.4965 C   0  0  0  0  0  0  0  0  0  0  0  0
   23.4096   51.6252   36.5973 C   0  0  0  0  0  0  0  0  0  0  0  0
   24.2702   50.8713   37.5041 N   0  0  0  0  0  0  0  0  0  0  0  0
   25.5642   50.3806   37.0606 C   0  0  0  0  0  0  0  0  0  0  0  0
   26.5845   50.2980   38.1907 C   0  0  0  0  0  0  0  0  0  0  0  0
   27.9384   49.8637   37.6406 C   0  0  0  0  0  0  0  0  0  0  0  0
   28.9735   49.8593   38.7604 C   0  0  0  0  0  0  0  0  0  0  0  0
   28.6430   48.9059   39.8056 N   0  0  0  0  0  0  0  0  0  0  0  0
   29.5623   47.8134   40.0949 C   0  0  0  0  0  0  0  0  0  0  0  0
   29.1819   46.9623   41.3046 C   0  0  0  0  0  0  0  0  0  0  0  0
   30.1645   45.8032   41.4800 C   0  0  0  0  0  0  0  0  0  0  0  0
   31.4835   46.3094   41.8196 N   0  0  0  0  0  0  0  0  0  0  0  0
  1  2  1  0  0  0  0
  2  3  1  0  0  0  0
  3  4  1  0  0  0  0
  4  5  1  0  0  0  0
  5  6  1  0  0  0  0
  6  7  1  0  0  0  0
  7  8  1  0  0  0  0
  8  9  1  0  0  0  0
  9 10  1  0  0  0  0
 10 11  1  0  0  0  0
 11 12  1  0  0  0  0
 12 13  1  0  0  0  0
 13 14  1  0  0  0  0
M  END
>  <CHROM.1>
-178.91499923,178.72046245,-81.30214463,149.75523468,-176.37032099,176.80260948
62.55040348,119.02754471,173.98006055,177.03369667,65.98329440,26.84040172
50.06115853,38.40610452,-2.27181116,0.16841545,2.61865898

>  <Name>
ligand

>  <RI>
0

>  <Rbt.Current_Directory>
/home/itssahil/PROJECTS/Mol_Feturizer/New_Systems/rnas/4P5J

>  <Rbt.Executable>
rbdock ($Id: //depot/dev/client3/rdock/2013.1/src/exe/rbdock.cxx#4 $)

>  <Rbt.Library>
libRbt.so (2013.1, Build901 2013/11/27)

>  <Rbt.Parameter_File>
/export/apps/rDock/src/rDock_2013.1_src/data/scripts/dock_solv.prm

>  <Rbt.Receptor>
prm/pocket_docking_7.prm

>  <SCORE>
-5.6799

>  <SCORE.INTER>
2.99355

>  <SCORE.INTER.CONST>
1

>  <SCORE.INTER.POLAR>
0

>  <SCORE.INTER.ROT>
11

>  <SCORE.INTER.SOLV>
9.98056

>  <SCORE.INTER.VDW>
-12.2645

>  <SCORE.INTER.norm>
0.213825

>  <SCORE.INTRA>
-8.67345

>  <SCORE.INTRA.DIHEDRAL>
-15.0555

>  <SCORE.INTRA.DIHEDRAL.0>
17.5233

>  <SCORE.INTRA.POLAR>
0

>  <SCORE.INTRA.POLAR.0>
0

>  <SCORE.INTRA.REPUL>
0

>  <SCORE.INTRA.REPUL.0>
0

>  <SCORE.INTRA.SOLV>
-1.56791

>  <SCORE.INTRA.SOLV.lig_0>
-46.1043

>  <SCORE.INTRA.VDW>
-0.361766

>  <SCORE.INTRA.VDW.0>
-0.545445

>  <SCORE.INTRA.norm>
-0.619532

>  <SCORE.RESTR>
0

>  <SCORE.RESTR.CAVITY>
0

>  <SCORE.RESTR.norm>
0

>  <SCORE.SYSTEM>
0

>  <SCORE.SYSTEM.CONST>
0

>  <SCORE.SYSTEM.DIHEDRAL>
0

>  <SCORE.SYSTEM.SOLV>
0

>  <SCORE.SYSTEM.norm>
0

>  <SCORE.heavy>
14

>  <SCORE.norm>
-0.405707

>  <RMSD>
4.571

$$$$
ligand
 OpenBabel11021811513D
libRbt.so/2013.1/901 2013/11/27
 14 13  0  0  0  0  0  0  0  0999 V2000
   23.9163   54.4390   35.9762 N   0  0  0  0  0  0  0  0  0  0  0  0
   23.0173   53.3950   35.5116 C   0  0  0  0  0  0  0  0  0  0  0  0
   23.6592   52.0234   35.6923 C   0  0  0  0  0  0  0  0  0  0  0  0
   23.7854   51.6653   37.1689 C   0  0  0  0  0  0  0  0  0  0  0  0
   24.4336   50.3756   37.3869 N   0  0  0  0  0  0  0  0  0  0  0  0
   24.3193   49.6960   38.6664 C   0  0  0  0  0  0  0  0  0  0  0  0
   25.4492   50.0498   39.6271 C   0  0  0  0  0  0  0  0  0  0  0  0
   26.7830   49.5748   39.0618 C   0  0  0  0  0  0  0  0  0  0  0  0
   27.8930   49.8260   40.0766 C   0  0  0  0  0  0  0  0  0  0  0  0
   29.1754   49.3185   39.6201 N   0  0  0  0  0  0  0  0  0  0  0  0
   29.5309   47.9304   39.8834 C   0  0  0  0  0  0  0  0  0  0  0  0
   30.8983   47.5093   39.3495 C   0  0  0  0  0  0  0  0  0  0  0  0
   31.1721   46.0381   39.6662 C   0  0  0  0  0  0  0  0  0  0  0  0
   32.5204   45.6791   39.2608 N   0  0  0  0  0  0  0  0  0  0  0  0
  1  2  1  0  0  0  0
  2  3  1  0  0  0  0
  3  4  1  0  0  0  0
  4  5  1  0  0  0  0
  5  6  1  0  0  0  0
  6  7  1  0  0  0  0
  7  8  1  0  0  0  0
  8  9  1  0  0  0  0
  9 10  1  0  0  0  0
 10 11  1  0  0  0  0
 11 12  1  0  0  0  0
 12 13  1  0  0  0  0
 13 14  1  0  0  0  0
M  END
>  <CHROM.1>
68.71537860,-178.23010699,-162.94624871,-91.47010158,-63.79430774,-175.30237473
176.57699165,-86.89052501,179.65714037,-179.56534821,-174.95495536,26.89642244
49.82283684,38.35353521,-2.48672861,-0.32924915,2.22340794

>  <Name>
ligand

>  <RI>
0

>  <Rbt.Current_Directory>
/home/itssahil/PROJECTS/Mol_Feturizer/New_Systems/rnas/4P5J

>  <Rbt.Executable>
rbdock ($Id: //depot/dev/client3/rdock/2013.1/src/exe/rbdock.cxx#4 $)

>  <Rbt.Library>
libRbt.so (2013.1, Build901 2013/11/27)

>  <Rbt.Parameter_File>
/export/apps/rDock/src/rDock_2013.1_src/data/scripts/dock_solv.prm

>  <Rbt.Receptor>
prm/pocket_docking_7.prm

>  <SCORE>
-5.79625

>  <SCORE.INTER>
3.18267

>  <SCORE.INTER.CONST>
1

>  <SCORE.INTER.POLAR>
0

>  <SCORE.INTER.ROT>
11

>  <SCORE.INTER.SOLV>
7.34752

>  <SCORE.INTER.VDW>
-11.2607

>  <SCORE.INTER.norm>
0.227334

>  <SCORE.INTRA>
-8.97892

>  <SCORE.INTRA.DIHEDRAL>
-15.5693

>  <SCORE.INTRA.DIHEDRAL.0>
17.5233

>  <SCORE.INTRA.POLAR>
0

>  <SCORE.INTRA.POLAR.0>
0

>  <SCORE.INTRA.REPUL>
0

>  <SCORE.INTRA.REPUL.0>
0

>  <SCORE.INTRA.SOLV>
-1.60605

>  <SCORE.INTRA.SOLV.lig_0>
-46.1043

>  <SCORE.INTRA.VDW>
-0.391264

>  <SCORE.INTRA.VDW.0>
-0.545445

>  <SCORE.INTRA.norm>
-0.641351

>  <SCORE.RESTR>
0

>  <SCORE.RESTR.CAVITY>
0

>  <SCORE.RESTR.norm>
0

>  <SCORE.SYSTEM>
0

>  <SCORE.SYSTEM.CONST>
0

>  <SCORE.SYSTEM.DIHEDRAL>
0

>  <SCORE.SYSTEM.SOLV>
0

>  <SCORE.SYSTEM.norm>
0

>  <SCORE.heavy>
14

>  <SCORE.norm>
-0.414018

>  <RMSD>
4.598

$$$$
ligand
 OpenBabel11021811513D
libRbt.so/2013.1/901 2013/11/27
 14 13  0  0  0  0  0  0  0  0999 V2000
   21.4599   53.5071   42.5889 N   0  0  0  0  0  0  0  0  0  0  0  0
   21.5363   52.9340   41.2549 C   0  0  0  0  0  0  0  0  0  0  0  0
   21.5012   51.4112   41.3291 C   0  0  0  0  0  0  0  0  0  0  0  0
   21.6534   50.7893   39.9456 C   0  0  0  0  0  0  0  0  0  0  0  0
   22.9459   51.0791   39.3318 N   0  0  0  0  0  0  0  0  0  0  0  0
   24.0092   50.0885   39.3412 C   0  0  0  0  0  0  0  0  0  0  0  0
   25.3843   50.6943   39.0826 C   0  0  0  0  0  0  0  0  0  0  0  0
   26.4423   49.5968   39.0605 C   0  0  0  0  0  0  0  0  0  0  0  0
   27.8214   50.2129   38.8516 C   0  0  0  0  0  0  0  0  0  0  0  0
   28.8623   49.2036   38.7603 N   0  0  0  0  0  0  0  0  0  0  0  0
   29.1951   48.4101   39.9359 C   0  0  0  0  0  0  0  0  0  0  0  0
   30.3657   47.4477   39.7460 C   0  0  0  0  0  0  0  0  0  0  0  0
   30.5782   46.6013   41.0023 C   0  0  0  0  0  0  0  0  0  0  0  0
   31.7463   45.7517   40.8443 N   0  0  0  0  0  0  0  0  0  0  0  0
  1  2  1  0  0  0  0
  2  3  1  0  0  0  0
  3  4  1  0  0  0  0
  4  5  1  0  0  0  0
  5  6  1  0  0  0  0
  6  7  1  0  0  0  0
  7  8  1  0  0  0  0
  8  9  1  0  0  0  0
  9 10  1  0  0  0  0
 10 11  1  0  0  0  0
 11 12  1  0  0  0  0
 12 13  1  0  0  0  0
 13 14  1  0  0  0  0
M  END
>  <CHROM.1>
-177.03894542,63.79108418,100.68923702,-161.25508502,-178.13304076,-177.98013249
-177.33419381,-67.50908559,-176.10260159,-176.40579512,-176.30231181,25.96427748
49.83766089,40.07666177,-3.13922909,0.51582778,-1.40806413

>  <Name>
ligand

>  <RI>
0

>  <Rbt.Current_Directory>
/home/itssahil/PROJECTS/Mol_Feturizer/New_Systems/rnas/4P5J

>  <Rbt.Executable>
rbdock ($Id: //depot/dev/client3/rdock/2013.1/src/exe/rbdock.cxx#4 $)

>  <Rbt.Library>
libRbt.so (2013.1, Build901 2013/11/27)

>  <Rbt.Parameter_File>
/export/apps/rDock/src/rDock_2013.1_src/data/scripts/dock_solv.prm

>  <Rbt.Receptor>
prm/pocket_docking_6.prm

>  <SCORE>
-4.0645

>  <SCORE.INTER>
5.35845

>  <SCORE.INTER.CONST>
1

>  <SCORE.INTER.POLAR>
0

>  <SCORE.INTER.ROT>
11

>  <SCORE.INTER.SOLV>
6.4185

>  <SCORE.INTER.VDW>
-9.50054

>  <SCORE.INTER.norm>
0.382746

>  <SCORE.INTRA>
-9.42294

>  <SCORE.INTRA.DIHEDRAL>
-16.0353

>  <SCORE.INTRA.DIHEDRAL.0>
17.5233

>  <SCORE.INTRA.POLAR>
0

>  <SCORE.INTRA.POLAR.0>
0

>  <SCORE.INTRA.REPUL>
0

>  <SCORE.INTRA.REPUL.0>
0

>  <SCORE.INTRA.SOLV>
-2.34071

>  <SCORE.INTRA.SOLV.lig_0>
-46.1043

>  <SCORE.INTRA.VDW>
-0.234959

>  <SCORE.INTRA.VDW.0>
-0.545445

>  <SCORE.INTRA.norm>
-0.673067

>  <SCORE.RESTR>
0

>  <SCORE.RESTR.CAVITY>
0

>  <SCORE.RESTR.norm>
0

>  <SCORE.SYSTEM>
0

>  <SCORE.SYSTEM.CONST>
0

>  <SCORE.SYSTEM.DIHEDRAL>
0

>  <SCORE.SYSTEM.SOLV>
0

>  <SCORE.SYSTEM.norm>
0

>  <SCORE.heavy>
14

>  <SCORE.norm>
-0.290321

>  <RMSD>
4.636

$$$$
ligand
 OpenBabel11021811513D
libRbt.so/2013.1/901 2013/11/27
 14 13  0  0  0  0  0  0  0  0999 V2000
   31.2610   47.8879   41.2476 N   0  0  0  0  0  0  0  0  0  0  0  0
   30.3075   47.1985   40.3936 C   0  0  0  0  0  0  0  0  0  0  0  0
   29.1452   48.1216   40.0433 C   0  0  0  0  0  0  0  0  0  0  0  0
   29.6122   49.2940   39.1880 C   0  0  0  0  0  0  0  0  0  0  0  0
   28.5181   50.1695   38.7785 N   0  0  0  0  0  0  0  0  0  0  0  0
   27.7422   49.8769   37.5851 C   0  0  0  0  0  0  0  0  0  0  0  0
   26.3548   50.5086   37.6119 C   0  0  0  0  0  0  0  0  0  0  0  0
   25.5667   49.9867   38.8081 C   0  0  0  0  0  0  0  0  0  0  0  0
   24.1483   50.5454   38.7757 C   0  0  0  0  0  0  0  0  0  0  0  0
   23.3532   50.0823   39.8999 N   0  0  0  0  0  0  0  0  0  0  0  0
   21.9556   50.4811   40.0010 C   0  0  0  0  0  0  0  0  0  0  0  0
   21.7299   51.8753   40.5819 C   0  0  0  0  0  0  0  0  0  0  0  0
   22.2291   51.9460   42.0260 C   0  0  0  0  0  0  0  0  0  0  0  0
   21.9813   53.2665   42.5794 N   0  0  0  0  0  0  0  0  0  0  0  0
  1  2  1  0  0  0  0
  2  3  1  0  0  0  0
  3  4  1  0  0  0  0
  4  5  1  0  0  0  0
  5  6  1  0  0  0  0
  6  7  1  0  0  0  0
  7  8  1  0  0  0  0
  8  9  1  0  0  0  0
  9 10  1  0  0  0  0
 10 11  1  0  0  0  0
 11 12  1  0  0  0  0
 12 13  1  0  0  0  0
 13 14  1  0  0  0  0
M  END
>  <CHROM.1>
65.57936865,177.33642558,-85.94937694,156.60142518,-60.05965245,-176.05403844
-179.77079544,-177.80607190,-81.18283878,-63.25398373,-178.66415591,25.99310807
50.08849094,39.82252673,-0.13988147,-0.40608497,1.57130997

>  <Name>
ligand

>  <RI>
0

>  <Rbt.Current_Directory>
/home/itssahil/PROJECTS/Mol_Feturizer/New_Systems/rnas/4P5J

>  <Rbt.Executable>
rbdock ($Id: //depot/dev/client3/rdock/2013.1/src/exe/rbdock.cxx#4 $)

>  <Rbt.Library>
libRbt.so (2013.1, Build901 2013/11/27)

>  <Rbt.Parameter_File>
/export/apps/rDock/src/rDock_2013.1_src/data/scripts/dock_solv.prm

>  <Rbt.Receptor>
prm/pocket_docking_5.prm

>  <SCORE>
-3.93406

>  <SCORE.INTER>
5.05617

>  <SCORE.INTER.CONST>
1

>  <SCORE.INTER.POLAR>
0

>  <SCORE.INTER.ROT>
11

>  <SCORE.INTER.SOLV>
3.70374

>  <SCORE.INTER.VDW>
-8.79713

>  <SCORE.INTER.norm>
0.361155

>  <SCORE.INTRA>
-8.99023

>  <SCORE.INTRA.DIHEDRAL>
-16.0604

>  <SCORE.INTRA.DIHEDRAL.0>
17.5233

>  <SCORE.INTRA.POLAR>
0

>  <SCORE.INTRA.POLAR.0>
0

>  <SCORE.INTRA.REPUL>
0

>  <SCORE.INTRA.REPUL.0>
0

>  <SCORE.INTRA.SOLV>
-1.22757

>  <SCORE.INTRA.SOLV.lig_0>
-46.1043

>  <SCORE.INTRA.VDW>
-0.346229

>  <SCORE.INTRA.VDW.0>
-0.545445

>  <SCORE.INTRA.norm>
-0.64216

>  <SCORE.RESTR>
0

>  <SCORE.RESTR.CAVITY>
0

>  <SCORE.RESTR.norm>
0

>  <SCORE.SYSTEM>
0

>  <SCORE.SYSTEM.CONST>
0

>  <SCORE.SYSTEM.DIHEDRAL>
0

>  <SCORE.SYSTEM.SOLV>
0

>  <SCORE.SYSTEM.norm>
0

>  <SCORE.heavy>
14

>  <SCORE.norm>
-0.281005

>  <RMSD>
4.667

$$$$
ligand
 OpenBabel11021811513D
libRbt.so/2013.1/901 2013/11/27
 14 13  0  0  0  0  0  0  0  0999 V2000
   32.9771   47.5215   36.2156 N   0  0  0  0  0  0  0  0  0  0  0  0
   32.0235   48.5751   36.5229 C   0  0  0  0  0  0  0  0  0  0  0  0
   31.0549   48.7692   35.3610 C   0  0  0  0  0  0  0  0  0  0  0  0
   30.0447   49.8699   35.6648 C   0  0  0  0  0  0  0  0  0  0  0  0
   29.1744   49.5468   36.7915 N   0  0  0  0  0  0  0  0  0  0  0  0
   28.0338   50.3884   37.1116 C   0  0  0  0  0  0  0  0  0  0  0  0
   27.1997   49.8408   38.2646 C   0  0  0  0  0  0  0  0  0  0  0  0
   25.8684   50.5796   38.3426 C   0  0  0  0  0  0  0  0  0  0  0  0
   25.0378   50.0270   39.4957 C   0  0  0  0  0  0  0  0  0  0  0  0
   23.7447   50.6810   39.5998 N   0  0  0  0  0  0  0  0  0  0  0  0
   22.7552   50.1660   40.5369 C   0  0  0  0  0  0  0  0  0  0  0  0
   21.4402   50.9420   40.5673 C   0  0  0  0  0  0  0  0  0  0  0  0
   21.6790   52.3929   40.9889 C   0  0  0  0  0  0  0  0  0  0  0  0
   22.1046   52.4495   42.3770 N   0  0  0  0  0  0  0  0  0  0  0  0
  1  2  1  0  0  0  0
  2  3  1  0  0  0  0
  3  4  1  0  0  0  0
  4  5  1  0  0  0  0
  5  6  1  0  0  0  0
  6  7  1  0  0  0  0
  7  8  1  0  0  0  0
  8  9  1  0  0  0  0
  9 10  1  0  0  0  0
 10 11  1  0  0  0  0
 11 12  1  0  0  0  0
 12 13  1  0  0  0  0
 13 14  1  0  0  0  0
M  END
>  <CHROM.1>
179.93450114,-63.90948115,-171.47588383,176.45177692,-167.21424368,179.92557782
-178.92583139,172.32478464,179.46682197,-61.03333639,-67.52680806,26.65256444
50.12501548,38.41703142,-0.26546400,-0.48695266,2.10577908

>  <Name>
ligand

>  <RI>
0

>  <Rbt.Current_Directory>
/home/itssahil/PROJECTS/Mol_Feturizer/New_Systems/rnas/4P5J

>  <Rbt.Executable>
rbdock ($Id: //depot/dev/client3/rdock/2013.1/src/exe/rbdock.cxx#4 $)

>  <Rbt.Library>
libRbt.so (2013.1, Build901 2013/11/27)

>  <Rbt.Parameter_File>
/export/apps/rDock/src/rDock_2013.1_src/data/scripts/dock_solv.prm

>  <Rbt.Receptor>
prm/pocket_docking_5.prm

>  <SCORE>
-3.40584

>  <SCORE.INTER>
5.73103

>  <SCORE.INTER.CONST>
1

>  <SCORE.INTER.POLAR>
0

>  <SCORE.INTER.ROT>
11

>  <SCORE.INTER.SOLV>
4.56168

>  <SCORE.INTER.VDW>
-8.63321

>  <SCORE.INTER.norm>
0.409359

>  <SCORE.INTRA>
-9.15058

>  <SCORE.INTRA.DIHEDRAL>
-16.5328

>  <SCORE.INTRA.DIHEDRAL.0>
17.5233

>  <SCORE.INTRA.POLAR>
0

>  <SCORE.INTRA.POLAR.0>
0

>  <SCORE.INTRA.REPUL>
0

>  <SCORE.INTRA.REPUL.0>
0

>  <SCORE.INTRA.SOLV>
-0.639946

>  <SCORE.INTRA.SOLV.lig_0>
-46.1043

>  <SCORE.INTRA.VDW>
-0.564217

>  <SCORE.INTRA.VDW.0>
-0.545445

>  <SCORE.INTRA.norm>
-0.653613

>  <SCORE.RESTR>
0.0137028

>  <SCORE.RESTR.CAVITY>
0.0137028

>  <SCORE.RESTR.norm>
0.000978775

>  <SCORE.SYSTEM>
0

>  <SCORE.SYSTEM.CONST>
0

>  <SCORE.SYSTEM.DIHEDRAL>
0

>  <SCORE.SYSTEM.SOLV>
0

>  <SCORE.SYSTEM.norm>
0

>  <SCORE.heavy>
14

>  <SCORE.norm>
-0.243274

>  <RMSD>
4.681

$$$$
ligand
 OpenBabel11021811513D
libRbt.so/2013.1/901 2013/11/27
 14 13  0  0  0  0  0  0  0  0999 V2000
   21.4596   53.3505   42.2399 N   0  0  0  0  0  0  0  0  0  0  0  0
   21.5750   52.2185   41.3348 C   0  0  0  0  0  0  0  0  0  0  0  0
   22.3523   52.6163   40.0845 C   0  0  0  0  0  0  0  0  0  0  0  0
   22.5890   51.4137   39.1779 C   0  0  0  0  0  0  0  0  0  0  0  0
   23.3344   51.7518   37.9691 N   0  0  0  0  0  0  0  0  0  0  0  0
   24.3559   50.8558   37.4538 C   0  0  0  0  0  0  0  0  0  0  0  0
   25.6663   50.9450   38.2283 C   0  0  0  0  0  0  0  0  0  0  0  0
   26.7347   50.0984   37.5455 C   0  0  0  0  0  0  0  0  0  0  0  0
   28.0713   50.2819   38.2562 C   0  0  0  0  0  0  0  0  0  0  0  0
   28.0963   49.6231   39.5507 N   0  0  0  0  0  0  0  0  0  0  0  0
   28.9810   48.4841   39.7574 C   0  0  0  0  0  0  0  0  0  0  0  0
   29.0154   47.9541   41.1892 C   0  0  0  0  0  0  0  0  0  0  0  0
   29.9766   46.7697   41.3038 C   0  0  0  0  0  0  0  0  0  0  0  0
   30.0263   46.2935   42.6756 N   0  0  0  0  0  0  0  0  0  0  0  0
  1  2  1  0  0  0  0
  2  3  1  0  0  0  0
  3  4  1  0  0  0  0
  4  5  1  0  0  0  0
  5  6  1  0  0  0  0
  6  7  1  0  0  0  0
  7  8  1  0  0  0  0
  8  9  1  0  0  0  0
  9 10  1  0  0  0  0
 10 11  1  0  0  0  0
 11 12  1  0  0  0  0
 12 13  1  0  0  0  0
 13 14  1  0  0  0  0
M  END
>  <CHROM.1>
175.08096705,-179.85072234,140.10262744,-77.91408035,-173.82534720,175.33572268
72.48278403,113.32407483,174.71483331,-179.60457202,178.64298461,25.87391727
50.18970189,39.76870263,2.91750832,0.54966453,-1.33845332

>  <Name>
ligand

>  <RI>
0

>  <Rbt.Current_Directory>
/home/itssahil/PROJECTS/Mol_Feturizer/New_Systems/rnas/4P5J

>  <Rbt.Executable>
rbdock ($Id: //depot/dev/client3/rdock/2013.1/src/exe/rbdock.cxx#4 $)

>  <Rbt.Library>
libRbt.so (2013.1, Build901 2013/11/27)

>  <Rbt.Parameter_File>
/export/apps/rDock/src/rDock_2013.1_src/data/scripts/dock_solv.prm

>  <Rbt.Receptor>
prm/pocket_docking_5.prm

>  <SCORE>
-3.95322

>  <SCORE.INTER>
4.98976

>  <SCORE.INTER.CONST>
1

>  <SCORE.INTER.POLAR>
0

>  <SCORE.INTER.ROT>
11

>  <SCORE.INTER.SOLV>
6.62137

>  <SCORE.INTER.VDW>
-9.81395

>  <SCORE.INTER.norm>
0.356411

>  <SCORE.INTRA>
-8.94298

>  <SCORE.INTRA.DIHEDRAL>
-14.2931

>  <SCORE.INTRA.DIHEDRAL.0>
17.5233

>  <SCORE.INTRA.POLAR>
0

>  <SCORE.INTRA.POLAR.0>
0

>  <SCORE.INTRA.REPUL>
0

>  <SCORE.INTRA.REPUL.0>
0

>  <SCORE.INTRA.SOLV>
-2.38538

>  <SCORE.INTRA.SOLV.lig_0>
-46.1043

>  <SCORE.INTRA.VDW>
-0.603749

>  <SCORE.INTRA.VDW.0>
-0.545445

>  <SCORE.INTRA.norm>
-0.638784

>  <SCORE.RESTR>
0

>  <SCORE.RESTR.CAVITY>
0

>  <SCORE.RESTR.norm>
0

>  <SCORE.SYSTEM>
0

>  <SCORE.SYSTEM.CONST>
0

>  <SCORE.SYSTEM.DIHEDRAL>
0

>  <SCORE.SYSTEM.SOLV>
0

>  <SCORE.SYSTEM.norm>
0

>  <SCORE.heavy>
14

>  <SCORE.norm>
-0.282373

>  <RMSD>
4.683

$$$$
ligand
 OpenBabel11021811513D
libRbt.so/2013.1/901 2013/11/27
 14 13  0  0  0  0  0  0  0  0999 V2000
   21.9292   54.1934   42.0915 N   0  0  0  0  0  0  0  0  0  0  0  0
   22.6152   53.2629   41.2097 C   0  0  0  0  0  0  0  0  0  0  0  0
   21.6344   52.2329   40.6593 C   0  0  0  0  0  0  0  0  0  0  0  0
   22.3360   51.2441   39.7351 C   0  0  0  0  0  0  0  0  0  0  0  0
   22.9310   51.8840   38.5655 N   0  0  0  0  0  0  0  0  0  0  0  0
   23.8722   51.1630   37.7252 C   0  0  0  0  0  0  0  0  0  0  0  0
   25.2165   50.9314   38.4065 C   0  0  0  0  0  0  0  0  0  0  0  0
   26.1456   50.1572   37.4783 C   0  0  0  0  0  0  0  0  0  0  0  0
   27.4930   49.9413   38.1587 C   0  0  0  0  0  0  0  0  0  0  0  0
   27.3708   49.1574   39.3757 N   0  0  0  0  0  0  0  0  0  0  0  0
   28.5462   48.9404   40.2086 C   0  0  0  0  0  0  0  0  0  0  0  0
   29.5187   47.8888   39.6788 C   0  0  0  0  0  0  0  0  0  0  0  0
   30.6798   47.6870   40.6539 C   0  0  0  0  0  0  0  0  0  0  0  0
   31.5797   46.6594   40.1583 N   0  0  0  0  0  0  0  0  0  0  0  0
  1  2  1  0  0  0  0
  2  3  1  0  0  0  0
  3  4  1  0  0  0  0
  4  5  1  0  0  0  0
  5  6  1  0  0  0  0
  6  7  1  0  0  0  0
  7  8  1  0  0  0  0
  8  9  1  0  0  0  0
  9 10  1  0  0  0  0
 10 11  1  0  0  0  0
 11 12  1  0  0  0  0
 12 13  1  0  0  0  0
 13 14  1  0  0  0  0
M  END
>  <CHROM.1>
-179.80925281,-61.54606408,166.96169406,-70.62819601,179.28258605,179.40354422
61.60633386,-175.38396729,-76.98634784,-177.26311201,178.46181164,25.84768914
50.38161821,39.57874566,-2.98094167,0.53945252,-1.78525077

>  <Name>
ligand

>  <RI>
0

>  <Rbt.Current_Directory>
/home/itssahil/PROJECTS/Mol_Feturizer/New_Systems/rnas/4P5J

>  <Rbt.Executable>
rbdock ($Id: //depot/dev/client3/rdock/2013.1/src/exe/rbdock.cxx#4 $)

>  <Rbt.Library>
libRbt.so (2013.1, Build901 2013/11/27)

>  <Rbt.Parameter_File>
/export/apps/rDock/src/rDock_2013.1_src/data/scripts/dock_solv.prm

>  <Rbt.Receptor>
prm/pocket_docking_5.prm

>  <SCORE>
-4.0918

>  <SCORE.INTER>
5.43672

>  <SCORE.INTER.CONST>
1

>  <SCORE.INTER.POLAR>
0

>  <SCORE.INTER.ROT>
11

>  <SCORE.INTER.SOLV>
6.58268

>  <SCORE.INTER.VDW>
-9.50308

>  <SCORE.INTER.norm>
0.388337

>  <SCORE.INTRA>
-9.52852

>  <SCORE.INTRA.DIHEDRAL>
-16.9992

>  <SCORE.INTRA.DIHEDRAL.0>
17.5233

>  <SCORE.INTRA.POLAR>
0

>  <SCORE.INTRA.POLAR.0>
0

>  <SCORE.INTRA.REPUL>
0

>  <SCORE.INTRA.REPUL.0>
0

>  <SCORE.INTRA.SOLV>
-1.9017

>  <SCORE.INTRA.SOLV.lig_0>
-46.1043

>  <SCORE.INTRA.VDW>
-0.0780913

>  <SCORE.INTRA.VDW.0>
-0.545445

>  <SCORE.INTRA.norm>
-0.680609

>  <SCORE.RESTR>
0

>  <SCORE.RESTR.CAVITY>
0

>  <SCORE.RESTR.norm>
0

>  <SCORE.SYSTEM>
0

>  <SCORE.SYSTEM.CONST>
0

>  <SCORE.SYSTEM.DIHEDRAL>
0

>  <SCORE.SYSTEM.SOLV>
0

>  <SCORE.SYSTEM.norm>
0

>  <SCORE.heavy>
14

>  <SCORE.norm>
-0.292271

>  <RMSD>
4.687

$$$$
ligand
 OpenBabel11021811513D
libRbt.so/2013.1/901 2013/11/27
 14 13  0  0  0  0  0  0  0  0999 V2000
   23.0472   51.7721   40.6764 N   0  0  0  0  0  0  0  0  0  0  0  0
   23.2081   51.5159   39.2543 C   0  0  0  0  0  0  0  0  0  0  0  0
   22.9409   52.7858   38.4532 C   0  0  0  0  0  0  0  0  0  0  0  0
   23.0890   52.5337   36.9569 C   0  0  0  0  0  0  0  0  0  0  0  0
   24.4756   52.3252   36.5507 N   0  0  0  0  0  0  0  0  0  0  0  0
   24.9042   51.0475   36.0070 C   0  0  0  0  0  0  0  0  0  0  0  0
   25.3309   50.0586   37.0863 C   0  0  0  0  0  0  0  0  0  0  0  0
   26.6077   50.5439   37.7635 C   0  0  0  0  0  0  0  0  0  0  0  0
   26.9991   49.5805   38.8787 C   0  0  0  0  0  0  0  0  0  0  0  0
   28.3031   49.8929   39.4376 N   0  0  0  0  0  0  0  0  0  0  0  0
   29.2153   48.8087   39.7767 C   0  0  0  0  0  0  0  0  0  0  0  0
   28.8984   48.0948   41.0891 C   0  0  0  0  0  0  0  0  0  0  0  0
   29.8516   46.9187   41.3080 C   0  0  0  0  0  0  0  0  0  0  0  0
   29.5525   46.2567   42.5663 N   0  0  0  0  0  0  0  0  0  0  0  0
  1  2  1  0  0  0  0
  2  3  1  0  0  0  0
  3  4  1  0  0  0  0
  4  5  1  0  0  0  0
  5  6  1  0  0  0  0
  6  7  1  0  0  0  0
  7  8  1  0  0  0  0
  8  9  1  0  0  0  0
  9 10  1  0  0  0  0
 10 11  1  0  0  0  0
 11 12  1  0  0  0  0
 12 13  1  0  0  0  0
 13 14  1  0  0  0  0
M  END
>  <CHROM.1>
-179.34438973,-71.01153625,115.63722389,-87.37681934,-67.46092740,177.75606112
172.17208284,-139.80483756,-78.21072083,176.21548579,179.30539649,26.17304309
50.15253698,38.98571641,2.54025918,0.53787429,-1.29781088

>  <Name>
ligand

>  <RI>
0

>  <Rbt.Current_Directory>
/home/itssahil/PROJECTS/Mol_Feturizer/New_Systems/rnas/4P5J

>  <Rbt.Executable>
rbdock ($Id: //depot/dev/client3/rdock/2013.1/src/exe/rbdock.cxx#4 $)

>  <Rbt.Library>
libRbt.so (2013.1, Build901 2013/11/27)

>  <Rbt.Parameter_File>
/export/apps/rDock/src/rDock_2013.1_src/data/scripts/dock_solv.prm

>  <Rbt.Receptor>
prm/pocket_docking_6.prm

>  <SCORE>
-5.30259

>  <SCORE.INTER>
3.3622

>  <SCORE.INTER.CONST>
1

>  <SCORE.INTER.POLAR>
0

>  <SCORE.INTER.ROT>
11

>  <SCORE.INTER.SOLV>
6.01348

>  <SCORE.INTER.VDW>
-10.6964

>  <SCORE.INTER.norm>
0.240157

>  <SCORE.INTRA>
-8.66479

>  <SCORE.INTRA.DIHEDRAL>
-13.7017

>  <SCORE.INTRA.DIHEDRAL.0>
17.5233

>  <SCORE.INTRA.POLAR>
0

>  <SCORE.INTRA.POLAR.0>
0

>  <SCORE.INTRA.REPUL>
0

>  <SCORE.INTRA.REPUL.0>
0

>  <SCORE.INTRA.SOLV>
-1.95128

>  <SCORE.INTRA.SOLV.lig_0>
-46.1043

>  <SCORE.INTRA.VDW>
-0.838274

>  <SCORE.INTRA.VDW.0>
-0.545445

>  <SCORE.INTRA.norm>
-0.618913

>  <SCORE.RESTR>
0

>  <SCORE.RESTR.CAVITY>
0

>  <SCORE.RESTR.norm>
0

>  <SCORE.SYSTEM>
0

>  <SCORE.SYSTEM.CONST>
0

>  <SCORE.SYSTEM.DIHEDRAL>
0

>  <SCORE.SYSTEM.SOLV>
0

>  <SCORE.SYSTEM.norm>
0

>  <SCORE.heavy>
14

>  <SCORE.norm>
-0.378756

>  <RMSD>
4.719

$$$$
ligand
 OpenBabel11021811513D
libRbt.so/2013.1/901 2013/11/27
 14 13  0  0  0  0  0  0  0  0999 V2000
   32.9757   46.9648   33.9279 N   0  0  0  0  0  0  0  0  0  0  0  0
   31.9818   47.9687   33.5839 C   0  0  0  0  0  0  0  0  0  0  0  0
   31.2584   48.4501   34.8372 C   0  0  0  0  0  0  0  0  0  0  0  0
   30.3204   49.6093   34.5200 C   0  0  0  0  0  0  0  0  0  0  0  0
   29.6526   50.1399   35.7048 N   0  0  0  0  0  0  0  0  0  0  0  0
   28.9328   51.4010   35.6471 C   0  0  0  0  0  0  0  0  0  0  0  0
   28.1838   51.7143   36.9377 C   0  0  0  0  0  0  0  0  0  0  0  0
   27.1652   50.6180   37.2293 C   0  0  0  0  0  0  0  0  0  0  0  0
   26.4019   50.9489   38.5072 C   0  0  0  0  0  0  0  0  0  0  0  0
   25.4148   49.9337   38.8319 N   0  0  0  0  0  0  0  0  0  0  0  0
   24.4545   50.1841   39.8986 C   0  0  0  0  0  0  0  0  0  0  0  0
   23.3628   49.1250   40.0363 C   0  0  0  0  0  0  0  0  0  0  0  0
   22.4346   49.4553   41.2064 C   0  0  0  0  0  0  0  0  0  0  0  0
   23.1623   49.3813   42.4618 N   0  0  0  0  0  0  0  0  0  0  0  0
  1  2  1  0  0  0  0
  2  3  1  0  0  0  0
  3  4  1  0  0  0  0
  4  5  1  0  0  0  0
  5  6  1  0  0  0  0
  6  7  1  0  0  0  0
  7  8  1  0  0  0  0
  8  9  1  0  0  0  0
  9 10  1  0  0  0  0
 10 11  1  0  0  0  0
 11 12  1  0  0  0  0
 12 13  1  0  0  0  0
 13 14  1  0  0  0  0
M  END
>  <CHROM.1>
173.81567303,-177.40550604,167.77536330,173.98441632,-59.96633105,-178.98857235
179.96911980,-170.54766692,172.86554154,178.25513132,-65.29081904,27.55000888
49.70698819,37.38059192,-0.03775816,-0.68788532,2.91435229

>  <Name>
ligand

>  <RI>
0

>  <Rbt.Current_Directory>
/home/itssahil/PROJECTS/Mol_Feturizer/New_Systems/rnas/4P5J

>  <Rbt.Executable>
rbdock ($Id: //depot/dev/client3/rdock/2013.1/src/exe/rbdock.cxx#4 $)

>  <Rbt.Library>
libRbt.so (2013.1, Build901 2013/11/27)

>  <Rbt.Parameter_File>
/export/apps/rDock/src/rDock_2013.1_src/data/scripts/dock_solv.prm

>  <Rbt.Receptor>
prm/pocket_docking_5.prm

>  <SCORE>
-1.79961

>  <SCORE.INTER>
7.89378

>  <SCORE.INTER.CONST>
1

>  <SCORE.INTER.POLAR>
0

>  <SCORE.INTER.ROT>
11

>  <SCORE.INTER.SOLV>
5.81141

>  <SCORE.INTER.VDW>
-7.60795

>  <SCORE.INTER.norm>
0.563842

>  <SCORE.INTRA>
-9.70391

>  <SCORE.INTRA.DIHEDRAL>
-16.9717

>  <SCORE.INTRA.DIHEDRAL.0>
17.5233

>  <SCORE.INTRA.POLAR>
0

>  <SCORE.INTRA.POLAR.0>
0

>  <SCORE.INTRA.REPUL>
0

>  <SCORE.INTRA.REPUL.0>
0

>  <SCORE.INTRA.SOLV>
-1.5141

>  <SCORE.INTRA.SOLV.lig_0>
-46.1043

>  <SCORE.INTRA.VDW>
-0.461003

>  <SCORE.INTRA.VDW.0>
-0.545445

>  <SCORE.INTRA.norm>
-0.693136

>  <SCORE.RESTR>
0.0105145

>  <SCORE.RESTR.CAVITY>
0.0105145

>  <SCORE.RESTR.norm>
0.000751034

>  <SCORE.SYSTEM>
0

>  <SCORE.SYSTEM.CONST>
0

>  <SCORE.SYSTEM.DIHEDRAL>
0

>  <SCORE.SYSTEM.SOLV>
0

>  <SCORE.SYSTEM.norm>
0

>  <SCORE.heavy>
14

>  <SCORE.norm>
-0.128544

>  <RMSD>
4.729

$$$$
ligand
 OpenBabel11021811513D
libRbt.so/2013.1/901 2013/11/27
 14 13  0  0  0  0  0  0  0  0999 V2000
   22.2252   53.3545   42.8402 N   0  0  0  0  0  0  0  0  0  0  0  0
   22.4243   52.1293   42.0831 C   0  0  0  0  0  0  0  0  0  0  0  0
   21.2483   51.8904   41.1420 C   0  0  0  0  0  0  0  0  0  0  0  0
   21.4158   50.5849   40.3727 C   0  0  0  0  0  0  0  0  0  0  0  0
   22.5909   50.5829   39.5065 N   0  0  0  0  0  0  0  0  0  0  0  0
   23.8040   49.8892   39.9054 C   0  0  0  0  0  0  0  0  0  0  0  0
   24.9843   50.1859   38.9869 C   0  0  0  0  0  0  0  0  0  0  0  0
   26.2487   49.5333   39.5345 C   0  0  0  0  0  0  0  0  0  0  0  0
   27.4240   49.8269   38.6085 C   0  0  0  0  0  0  0  0  0  0  0  0
   28.6157   49.0874   38.9875 N   0  0  0  0  0  0  0  0  0  0  0  0
   29.8648   49.3302   38.2781 C   0  0  0  0  0  0  0  0  0  0  0  0
   30.7791   48.1126   38.1602 C   0  0  0  0  0  0  0  0  0  0  0  0
   31.1308   47.5654   39.5446 C   0  0  0  0  0  0  0  0  0  0  0  0
   32.0618   46.4562   39.4251 N   0  0  0  0  0  0  0  0  0  0  0  0
  1  2  1  0  0  0  0
  2  3  1  0  0  0  0
  3  4  1  0  0  0  0
  4  5  1  0  0  0  0
  5  6  1  0  0  0  0
  6  7  1  0  0  0  0
  7  8  1  0  0  0  0
  8  9  1  0  0  0  0
  9 10  1  0  0  0  0
 10 11  1  0  0  0  0
 11 12  1  0  0  0  0
 12 13  1  0  0  0  0
 13 14  1  0  0  0  0
M  END
>  <CHROM.1>
-178.07817495,-62.64875890,101.91678026,-170.70393168,174.75940920,179.70336326
-172.54661890,-174.98690443,-148.05284628,-57.97394299,-176.71194585,26.05828660
49.89494805,39.81236548,-2.72432240,0.22925964,-2.12053225

>  <Name>
ligand

>  <RI>
0

>  <Rbt.Current_Directory>
/home/itssahil/PROJECTS/Mol_Feturizer/New_Systems/rnas/4P5J

>  <Rbt.Executable>
rbdock ($Id: //depot/dev/client3/rdock/2013.1/src/exe/rbdock.cxx#4 $)

>  <Rbt.Library>
libRbt.so (2013.1, Build901 2013/11/27)

>  <Rbt.Parameter_File>
/export/apps/rDock/src/rDock_2013.1_src/data/scripts/dock_solv.prm

>  <Rbt.Receptor>
prm/pocket_docking_6.prm

>  <SCORE>
-3.22275

>  <SCORE.INTER>
6.07644

>  <SCORE.INTER.CONST>
1

>  <SCORE.INTER.POLAR>
0

>  <SCORE.INTER.ROT>
11

>  <SCORE.INTER.SOLV>
5.25347

>  <SCORE.INTER.VDW>
-8.63353

>  <SCORE.INTER.norm>
0.434031

>  <SCORE.INTRA>
-9.29919

>  <SCORE.INTRA.DIHEDRAL>
-15.4135

>  <SCORE.INTRA.DIHEDRAL.0>
17.5233

>  <SCORE.INTRA.POLAR>
0

>  <SCORE.INTRA.POLAR.0>
0

>  <SCORE.INTRA.REPUL>
0

>  <SCORE.INTRA.REPUL.0>
0

>  <SCORE.INTRA.SOLV>
-1.96851

>  <SCORE.INTRA.SOLV.lig_0>
-46.1043

>  <SCORE.INTRA.VDW>
-0.608181

>  <SCORE.INTRA.VDW.0>
-0.545445

>  <SCORE.INTRA.norm>
-0.664228

>  <SCORE.RESTR>
0

>  <SCORE.RESTR.CAVITY>
0

>  <SCORE.RESTR.norm>
0

>  <SCORE.SYSTEM>
0

>  <SCORE.SYSTEM.CONST>
0

>  <SCORE.SYSTEM.DIHEDRAL>
0

>  <SCORE.SYSTEM.SOLV>
0

>  <SCORE.SYSTEM.norm>
0

>  <SCORE.heavy>
14

>  <SCORE.norm>
-0.230196

>  <RMSD>
4.740

$$$$
ligand
 OpenBabel11021811513D
libRbt.so/2013.1/901 2013/11/27
 14 13  0  0  0  0  0  0  0  0999 V2000
   32.9841   47.2223   38.4837 N   0  0  0  0  0  0  0  0  0  0  0  0
   32.0247   47.6066   39.5064 C   0  0  0  0  0  0  0  0  0  0  0  0
   30.6573   47.0025   39.2044 C   0  0  0  0  0  0  0  0  0  0  0  0
   29.6386   47.3862   40.2717 C   0  0  0  0  0  0  0  0  0  0  0  0
   29.3758   48.8215   40.3161 N   0  0  0  0  0  0  0  0  0  0  0  0
   28.0148   49.3276   40.2578 C   0  0  0  0  0  0  0  0  0  0  0  0
   27.5335   49.5676   38.8311 C   0  0  0  0  0  0  0  0  0  0  0  0
   26.0667   49.9837   38.8381 C   0  0  0  0  0  0  0  0  0  0  0  0
   25.5658   50.1345   37.4058 C   0  0  0  0  0  0  0  0  0  0  0  0
   24.1494   50.4531   37.3535 N   0  0  0  0  0  0  0  0  0  0  0  0
   23.7286   51.7736   36.9044 C   0  0  0  0  0  0  0  0  0  0  0  0
   23.9508   52.0431   35.4177 C   0  0  0  0  0  0  0  0  0  0  0  0
   23.5025   53.4593   35.0527 C   0  0  0  0  0  0  0  0  0  0  0  0
   23.8533   53.7581   33.6747 N   0  0  0  0  0  0  0  0  0  0  0  0
  1  2  1  0  0  0  0
  2  3  1  0  0  0  0
  3  4  1  0  0  0  0
  4  5  1  0  0  0  0
  5  6  1  0  0  0  0
  6  7  1  0  0  0  0
  7  8  1  0  0  0  0
  8  9  1  0  0  0  0
  9 10  1  0  0  0  0
 10 11  1  0  0  0  0
 11 12  1  0  0  0  0
 12 13  1  0  0  0  0
 13 14  1  0  0  0  0
M  END
>  <CHROM.1>
179.60026390,64.16436664,127.92383058,-88.94667116,175.26070595,-176.34971957
176.57472117,111.01220363,69.77428886,-178.95038693,173.69456244,27.21741216
49.89563618,37.96578186,-0.65673773,0.33108852,-1.09515480

>  <Name>
ligand

>  <RI>
0

>  <Rbt.Current_Directory>
/home/itssahil/PROJECTS/Mol_Feturizer/New_Systems/rnas/4P5J

>  <Rbt.Executable>
rbdock ($Id: //depot/dev/client3/rdock/2013.1/src/exe/rbdock.cxx#4 $)

>  <Rbt.Library>
libRbt.so (2013.1, Build901 2013/11/27)

>  <Rbt.Parameter_File>
/export/apps/rDock/src/rDock_2013.1_src/data/scripts/dock_solv.prm

>  <Rbt.Receptor>
prm/pocket_docking_8.prm

>  <SCORE>
-5.04333

>  <SCORE.INTER>
3.60508

>  <SCORE.INTER.CONST>
1

>  <SCORE.INTER.POLAR>
0

>  <SCORE.INTER.ROT>
11

>  <SCORE.INTER.SOLV>
8.05044

>  <SCORE.INTER.VDW>
-11.2134

>  <SCORE.INTER.norm>
0.257506

>  <SCORE.INTRA>
-8.64841

>  <SCORE.INTRA.DIHEDRAL>
-14.1919

>  <SCORE.INTRA.DIHEDRAL.0>
17.5233

>  <SCORE.INTRA.POLAR>
0

>  <SCORE.INTRA.POLAR.0>
0

>  <SCORE.INTRA.REPUL>
0

>  <SCORE.INTRA.REPUL.0>
0

>  <SCORE.INTRA.SOLV>
-2.36502

>  <SCORE.INTRA.SOLV.lig_0>
-46.1043

>  <SCORE.INTRA.VDW>
-0.369958

>  <SCORE.INTRA.VDW.0>
-0.545445

>  <SCORE.INTRA.norm>
-0.617744

>  <SCORE.RESTR>
0

>  <SCORE.RESTR.CAVITY>
0

>  <SCORE.RESTR.norm>
0

>  <SCORE.SYSTEM>
0

>  <SCORE.SYSTEM.CONST>
0

>  <SCORE.SYSTEM.DIHEDRAL>
0

>  <SCORE.SYSTEM.SOLV>
0

>  <SCORE.SYSTEM.norm>
0

>  <SCORE.heavy>
14

>  <SCORE.norm>
-0.360238

>  <RMSD>
4.748

$$$$
ligand
 OpenBabel11021811513D
libRbt.so/2013.1/901 2013/11/27
 14 13  0  0  0  0  0  0  0  0999 V2000
   30.7605   46.5851   41.2424 N   0  0  0  0  0  0  0  0  0  0  0  0
   30.8277   47.3628   40.0158 C   0  0  0  0  0  0  0  0  0  0  0  0
   29.6019   48.2615   39.8899 C   0  0  0  0  0  0  0  0  0  0  0  0
   29.7124   49.1755   38.6747 C   0  0  0  0  0  0  0  0  0  0  0  0
   28.6058   50.1224   38.5739 N   0  0  0  0  0  0  0  0  0  0  0  0
   27.5211   49.8967   37.6336 C   0  0  0  0  0  0  0  0  0  0  0  0
   26.3331   50.8235   37.8674 C   0  0  0  0  0  0  0  0  0  0  0  0
   25.1891   50.4520   36.9305 C   0  0  0  0  0  0  0  0  0  0  0  0
   24.0002   51.3747   37.1760 C   0  0  0  0  0  0  0  0  0  0  0  0
   23.5106   51.2832   38.5407 N   0  0  0  0  0  0  0  0  0  0  0  0
   22.5678   52.2796   39.0315 C   0  0  0  0  0  0  0  0  0  0  0  0
   22.2155   52.1505   40.5119 C   0  0  0  0  0  0  0  0  0  0  0  0
   21.5254   50.8136   40.7881 C   0  0  0  0  0  0  0  0  0  0  0  0
   21.2993   50.6499   42.2141 N   0  0  0  0  0  0  0  0  0  0  0  0
  1  2  1  0  0  0  0
  2  3  1  0  0  0  0
  3  4  1  0  0  0  0
  4  5  1  0  0  0  0
  5  6  1  0  0  0  0
  6  7  1  0  0  0  0
  7  8  1  0  0  0  0
  8  9  1  0  0  0  0
  9 10  1  0  0  0  0
 10 11  1  0  0  0  0
 11 12  1  0  0  0  0
 12 13  1  0  0  0  0
 13 14  1  0  0  0  0
M  END
>  <CHROM.1>
174.93097131,-175.68152687,-102.40987193,168.29577430,-175.03932186,179.56620892
-59.97078084,167.50107352,-175.06998419,-62.49534294,175.05986778,25.97642992
50.08810402,39.22036450,0.14385805,-0.38691258,1.99681455

>  <Name>
ligand

>  <RI>
0

>  <Rbt.Current_Directory>
/home/itssahil/PROJECTS/Mol_Feturizer/New_Systems/rnas/4P5J

>  <Rbt.Executable>
rbdock ($Id: //depot/dev/client3/rdock/2013.1/src/exe/rbdock.cxx#4 $)

>  <Rbt.Library>
libRbt.so (2013.1, Build901 2013/11/27)

>  <Rbt.Parameter_File>
/export/apps/rDock/src/rDock_2013.1_src/data/scripts/dock_solv.prm

>  <Rbt.Receptor>
prm/pocket_docking_6.prm

>  <SCORE>
-5.34318

>  <SCORE.INTER>
4.16501

>  <SCORE.INTER.CONST>
1

>  <SCORE.INTER.POLAR>
0

>  <SCORE.INTER.ROT>
11

>  <SCORE.INTER.SOLV>
6.50899

>  <SCORE.INTER.VDW>
-10.3263

>  <SCORE.INTER.norm>
0.297501

>  <SCORE.INTRA>
-9.50818

>  <SCORE.INTRA.DIHEDRAL>
-15.9316

>  <SCORE.INTRA.DIHEDRAL.0>
17.5233

>  <SCORE.INTRA.POLAR>
0

>  <SCORE.INTRA.POLAR.0>
0

>  <SCORE.INTRA.REPUL>
0

>  <SCORE.INTRA.REPUL.0>
0

>  <SCORE.INTRA.SOLV>
-1.92385

>  <SCORE.INTRA.SOLV.lig_0>
-46.1043

>  <SCORE.INTRA.VDW>
-0.580443

>  <SCORE.INTRA.VDW.0>
-0.545445

>  <SCORE.INTRA.norm>
-0.679156

>  <SCORE.RESTR>
0

>  <SCORE.RESTR.CAVITY>
0

>  <SCORE.RESTR.norm>
0

>  <SCORE.SYSTEM>
0

>  <SCORE.SYSTEM.CONST>
0

>  <SCORE.SYSTEM.DIHEDRAL>
0

>  <SCORE.SYSTEM.SOLV>
0

>  <SCORE.SYSTEM.norm>
0

>  <SCORE.heavy>
14

>  <SCORE.norm>
-0.381655

>  <RMSD>
4.749

$$$$
ligand
 OpenBabel11021811513D
libRbt.so/2013.1/901 2013/11/27
 14 13  0  0  0  0  0  0  0  0999 V2000
   21.4793   52.7310   42.8860 N   0  0  0  0  0  0  0  0  0  0  0  0
   22.0763   52.4672   41.5868 C   0  0  0  0  0  0  0  0  0  0  0  0
   21.4384   51.2369   40.9501 C   0  0  0  0  0  0  0  0  0  0  0  0
   22.0377   50.9549   39.5769 C   0  0  0  0  0  0  0  0  0  0  0  0
   23.4373   50.5449   39.6415 N   0  0  0  0  0  0  0  0  0  0  0  0
   24.2704   50.5636   38.4509 C   0  0  0  0  0  0  0  0  0  0  0  0
   25.7066   50.1323   38.7271 C   0  0  0  0  0  0  0  0  0  0  0  0
   26.5809   50.4207   37.5118 C   0  0  0  0  0  0  0  0  0  0  0  0
   28.0309   50.0657   37.8228 C   0  0  0  0  0  0  0  0  0  0  0  0
   28.9368   50.5026   36.7746 N   0  0  0  0  0  0  0  0  0  0  0  0
   29.7986   49.5269   36.1205 C   0  0  0  0  0  0  0  0  0  0  0  0
   30.8965   48.9471   37.0098 C   0  0  0  0  0  0  0  0  0  0  0  0
   31.7421   47.9358   36.2339 C   0  0  0  0  0  0  0  0  0  0  0  0
   32.7764   47.3825   37.0914 N   0  0  0  0  0  0  0  0  0  0  0  0
  1  2  1  0  0  0  0
  2  3  1  0  0  0  0
  3  4  1  0  0  0  0
  4  5  1  0  0  0  0
  5  6  1  0  0  0  0
  6  7  1  0  0  0  0
  7  8  1  0  0  0  0
  8  9  1  0  0  0  0
  9 10  1  0  0  0  0
 10 11  1  0  0  0  0
 11 12  1  0  0  0  0
 12 13  1  0  0  0  0
 13 14  1  0  0  0  0
M  END
>  <CHROM.1>
179.19816476,67.17654534,-164.19240267,178.68042878,-169.47102171,176.60950666
-171.51294932,-123.21295074,-68.38402374,179.93247979,-179.54515428,26.37189569
50.24371380,38.59866595,-2.67443581,0.26800687,-1.70299670

>  <Name>
ligand

>  <RI>
0

>  <Rbt.Current_Directory>
/home/itssahil/PROJECTS/Mol_Feturizer/New_Systems/rnas/4P5J

>  <Rbt.Executable>
rbdock ($Id: //depot/dev/client3/rdock/2013.1/src/exe/rbdock.cxx#4 $)

>  <Rbt.Library>
libRbt.so (2013.1, Build901 2013/11/27)

>  <Rbt.Parameter_File>
/export/apps/rDock/src/rDock_2013.1_src/data/scripts/dock_solv.prm

>  <Rbt.Receptor>
prm/pocket_docking_8.prm

>  <SCORE>
-3.92921

>  <SCORE.INTER>
5.25573

>  <SCORE.INTER.CONST>
1

>  <SCORE.INTER.POLAR>
0

>  <SCORE.INTER.ROT>
11

>  <SCORE.INTER.SOLV>
4.38805

>  <SCORE.INTER.VDW>
-8.89219

>  <SCORE.INTER.norm>
0.375409

>  <SCORE.INTRA>
-9.18494

>  <SCORE.INTRA.DIHEDRAL>
-15.1585

>  <SCORE.INTRA.DIHEDRAL.0>
17.5233

>  <SCORE.INTRA.POLAR>
0

>  <SCORE.INTRA.POLAR.0>
0

>  <SCORE.INTRA.REPUL>
0

>  <SCORE.INTRA.REPUL.0>
0

>  <SCORE.INTRA.SOLV>
-2.39332

>  <SCORE.INTRA.SOLV.lig_0>
-46.1043

>  <SCORE.INTRA.VDW>
-0.409019

>  <SCORE.INTRA.VDW.0>
-0.545445

>  <SCORE.INTRA.norm>
-0.656067

>  <SCORE.RESTR>
0

>  <SCORE.RESTR.CAVITY>
0

>  <SCORE.RESTR.norm>
0

>  <SCORE.SYSTEM>
0

>  <SCORE.SYSTEM.CONST>
0

>  <SCORE.SYSTEM.DIHEDRAL>
0

>  <SCORE.SYSTEM.SOLV>
0

>  <SCORE.SYSTEM.norm>
0

>  <SCORE.heavy>
14

>  <SCORE.norm>
-0.280658

>  <RMSD>
4.764

$$$$
ligand
 OpenBabel11021811513D
libRbt.so/2013.1/901 2013/11/27
 14 13  0  0  0  0  0  0  0  0999 V2000
   24.4392   55.6942   41.8163 N   0  0  0  0  0  0  0  0  0  0  0  0
   24.3817   54.7473   40.7145 C   0  0  0  0  0  0  0  0  0  0  0  0
   23.0125   54.0776   40.6618 C   0  0  0  0  0  0  0  0  0  0  0  0
   22.9327   53.0783   39.5132 C   0  0  0  0  0  0  0  0  0  0  0  0
   23.9022   51.9937   39.6357 N   0  0  0  0  0  0  0  0  0  0  0  0
   23.8758   50.8690   38.7159 C   0  0  0  0  0  0  0  0  0  0  0  0
   24.9763   49.8511   38.9943 C   0  0  0  0  0  0  0  0  0  0  0  0
   26.3396   50.4579   38.6821 C   0  0  0  0  0  0  0  0  0  0  0  0
   27.4398   49.4576   39.0200 C   0  0  0  0  0  0  0  0  0  0  0  0
   28.7531   49.9360   38.6241 N   0  0  0  0  0  0  0  0  0  0  0  0
   29.8803   49.0129   38.6206 C   0  0  0  0  0  0  0  0  0  0  0  0
   30.9686   49.3382   37.5998 C   0  0  0  0  0  0  0  0  0  0  0  0
   30.4091   49.2820   36.1773 C   0  0  0  0  0  0  0  0  0  0  0  0
   31.4556   49.5772   35.2135 N   0  0  0  0  0  0  0  0  0  0  0  0
  1  2  1  0  0  0  0
  2  3  1  0  0  0  0
  3  4  1  0  0  0  0
  4  5  1  0  0  0  0
  5  6  1  0  0  0  0
  6  7  1  0  0  0  0
  7  8  1  0  0  0  0
  8  9  1  0  0  0  0
  9 10  1  0  0  0  0
 10 11  1  0  0  0  0
 11 12  1  0  0  0  0
 12 13  1  0  0  0  0
 13 14  1  0  0  0  0
M  END
>  <CHROM.1>
-179.90775950,61.24812936,173.12785781,179.25012643,-67.77993962,177.52930171
174.56769307,-167.71645724,150.87838591,-61.53763891,-179.32082332,26.62596229
51.24070747,38.85637653,-2.46423416,-0.18915849,-2.71592567

>  <Name>
ligand

>  <RI>
0

>  <Rbt.Current_Directory>
/home/itssahil/PROJECTS/Mol_Feturizer/New_Systems/rnas/4P5J

>  <Rbt.Executable>
rbdock ($Id: //depot/dev/client3/rdock/2013.1/src/exe/rbdock.cxx#4 $)

>  <Rbt.Library>
libRbt.so (2013.1, Build901 2013/11/27)

>  <Rbt.Parameter_File>
/export/apps/rDock/src/rDock_2013.1_src/data/scripts/dock_solv.prm

>  <Rbt.Receptor>
prm/pocket_docking_4.prm

>  <SCORE>
-1.35898

>  <SCORE.INTER>
8.31862

>  <SCORE.INTER.CONST>
1

>  <SCORE.INTER.POLAR>
0

>  <SCORE.INTER.ROT>
11

>  <SCORE.INTER.SOLV>
2.44028

>  <SCORE.INTER.VDW>
-6.20102

>  <SCORE.INTER.norm>
0.594187

>  <SCORE.INTRA>
-9.6776

>  <SCORE.INTRA.DIHEDRAL>
-16.4132

>  <SCORE.INTRA.DIHEDRAL.0>
17.5233

>  <SCORE.INTRA.POLAR>
0

>  <SCORE.INTRA.POLAR.0>
0

>  <SCORE.INTRA.REPUL>
0

>  <SCORE.INTRA.REPUL.0>
0

>  <SCORE.INTRA.SOLV>
-1.60416

>  <SCORE.INTRA.SOLV.lig_0>
-46.1043

>  <SCORE.INTRA.VDW>
-0.668927

>  <SCORE.INTRA.VDW.0>
-0.545445

>  <SCORE.INTRA.norm>
-0.691257

>  <SCORE.RESTR>
0

>  <SCORE.RESTR.CAVITY>
0

>  <SCORE.RESTR.norm>
0

>  <SCORE.SYSTEM>
0

>  <SCORE.SYSTEM.CONST>
0

>  <SCORE.SYSTEM.DIHEDRAL>
0

>  <SCORE.SYSTEM.SOLV>
0

>  <SCORE.SYSTEM.norm>
0

>  <SCORE.heavy>
14

>  <SCORE.norm>
-0.0970701

>  <RMSD>
4.785

$$$$
ligand
 OpenBabel11021811513D
libRbt.so/2013.1/901 2013/11/27
 14 13  0  0  0  0  0  0  0  0999 V2000
   29.8143   46.2506   42.5353 N   0  0  0  0  0  0  0  0  0  0  0  0
   29.6000   46.6436   41.1520 C   0  0  0  0  0  0  0  0  0  0  0  0
   30.5419   47.7813   40.7720 C   0  0  0  0  0  0  0  0  0  0  0  0
   30.3133   48.2271   39.3322 C   0  0  0  0  0  0  0  0  0  0  0  0
   28.9939   48.8158   39.1227 N   0  0  0  0  0  0  0  0  0  0  0  0
   28.8224   49.9520   38.2331 C   0  0  0  0  0  0  0  0  0  0  0  0
   27.4410   49.9961   37.5892 C   0  0  0  0  0  0  0  0  0  0  0  0
   26.3650   50.0701   38.6669 C   0  0  0  0  0  0  0  0  0  0  0  0
   24.9843   50.0550   38.0200 C   0  0  0  0  0  0  0  0  0  0  0  0
   23.9186   50.0687   39.0073 N   0  0  0  0  0  0  0  0  0  0  0  0
   23.6218   48.8554   39.7572 C   0  0  0  0  0  0  0  0  0  0  0  0
   22.5149   49.0035   40.7989 C   0  0  0  0  0  0  0  0  0  0  0  0
   22.3698   47.7204   41.6189 C   0  0  0  0  0  0  0  0  0  0  0  0
   21.3781   47.9020   42.6652 N   0  0  0  0  0  0  0  0  0  0  0  0
  1  2  1  0  0  0  0
  2  3  1  0  0  0  0
  3  4  1  0  0  0  0
  4  5  1  0  0  0  0
  5  6  1  0  0  0  0
  6  7  1  0  0  0  0
  7  8  1  0  0  0  0
  8  9  1  0  0  0  0
  9 10  1  0  0  0  0
 10 11  1  0  0  0  0
 11 12  1  0  0  0  0
 12 13  1  0  0  0  0
 13 14  1  0  0  0  0
M  END
>  <CHROM.1>
-178.86028165,65.08327725,142.19327740,150.97013960,59.13852292,-177.64487804
177.64491271,-74.89403989,178.00549681,-174.65220895,176.15783718,26.47727254
48.66742275,39.94756290,-0.01614179,-0.14113343,2.22001580

>  <Name>
ligand

>  <RI>
0

>  <Rbt.Current_Directory>
/home/itssahil/PROJECTS/Mol_Feturizer/New_Systems/rnas/4P5J

>  <Rbt.Executable>
rbdock ($Id: //depot/dev/client3/rdock/2013.1/src/exe/rbdock.cxx#4 $)

>  <Rbt.Library>
libRbt.so (2013.1, Build901 2013/11/27)

>  <Rbt.Parameter_File>
/export/apps/rDock/src/rDock_2013.1_src/data/scripts/dock_solv.prm

>  <Rbt.Receptor>
prm/pocket_docking_7.prm

>  <SCORE>
-5.04726

>  <SCORE.INTER>
4.0503

>  <SCORE.INTER.CONST>
1

>  <SCORE.INTER.POLAR>
0

>  <SCORE.INTER.ROT>
11

>  <SCORE.INTER.SOLV>
8.33534

>  <SCORE.INTER.VDW>
-11.0116

>  <SCORE.INTER.norm>
0.289307

>  <SCORE.INTRA>
-9.09757

>  <SCORE.INTRA.DIHEDRAL>
-15.6264

>  <SCORE.INTRA.DIHEDRAL.0>
17.5233

>  <SCORE.INTRA.POLAR>
0

>  <SCORE.INTRA.POLAR.0>
0

>  <SCORE.INTRA.REPUL>
0

>  <SCORE.INTRA.REPUL.0>
0

>  <SCORE.INTRA.SOLV>
-1.9471

>  <SCORE.INTRA.SOLV.lig_0>
-46.1043

>  <SCORE.INTRA.VDW>
-0.31084

>  <SCORE.INTRA.VDW.0>
-0.545445

>  <SCORE.INTRA.norm>
-0.649826

>  <SCORE.RESTR>
0

>  <SCORE.RESTR.CAVITY>
0

>  <SCORE.RESTR.norm>
0

>  <SCORE.SYSTEM>
0

>  <SCORE.SYSTEM.CONST>
0

>  <SCORE.SYSTEM.DIHEDRAL>
0

>  <SCORE.SYSTEM.SOLV>
0

>  <SCORE.SYSTEM.norm>
0

>  <SCORE.heavy>
14

>  <SCORE.norm>
-0.360519

>  <RMSD>
4.794

$$$$
ligand
 OpenBabel11021811513D
libRbt.so/2013.1/901 2013/11/27
 14 13  0  0  0  0  0  0  0  0999 V2000
   21.8680   54.0275   41.5737 N   0  0  0  0  0  0  0  0  0  0  0  0
   21.9555   53.0339   40.5159 C   0  0  0  0  0  0  0  0  0  0  0  0
   21.4638   51.6803   41.0177 C   0  0  0  0  0  0  0  0  0  0  0  0
   21.5718   50.6178   39.9297 C   0  0  0  0  0  0  0  0  0  0  0  0
   22.9516   50.2374   39.6424 N   0  0  0  0  0  0  0  0  0  0  0  0
   23.7138   50.9325   38.6188 C   0  0  0  0  0  0  0  0  0  0  0  0
   24.9983   50.2033   38.2403 C   0  0  0  0  0  0  0  0  0  0  0  0
   25.8993   50.0648   39.4624 C   0  0  0  0  0  0  0  0  0  0  0  0
   27.2263   49.4325   39.0568 C   0  0  0  0  0  0  0  0  0  0  0  0
   28.0642   49.1369   40.2061 N   0  0  0  0  0  0  0  0  0  0  0  0
   29.3050   48.3974   40.0163 C   0  0  0  0  0  0  0  0  0  0  0  0
   29.5966   47.3530   41.0917 C   0  0  0  0  0  0  0  0  0  0  0  0
   30.9535   46.6904   40.8473 C   0  0  0  0  0  0  0  0  0  0  0  0
   31.2353   45.7214   41.8927 N   0  0  0  0  0  0  0  0  0  0  0  0
  1  2  1  0  0  0  0
  2  3  1  0  0  0  0
  3  4  1  0  0  0  0
  4  5  1  0  0  0  0
  5  6  1  0  0  0  0
  6  7  1  0  0  0  0
  7  8  1  0  0  0  0
  8  9  1  0  0  0  0
  9 10  1  0  0  0  0
 10 11  1  0  0  0  0
 11 12  1  0  0  0  0
 12 13  1  0  0  0  0
 13 14  1  0  0  0  0
M  END
>  <CHROM.1>
-178.95763172,71.08018013,-90.59363419,-166.78862536,-60.15688027,-175.63819931
-173.44346141,173.32490308,-139.42742717,-176.76208132,178.67004104,25.77152877
49.82352850,40.15055737,-3.08103377,0.54889682,-1.79377006

>  <Name>
ligand

>  <RI>
0

>  <Rbt.Current_Directory>
/home/itssahil/PROJECTS/Mol_Feturizer/New_Systems/rnas/4P5J

>  <Rbt.Executable>
rbdock ($Id: //depot/dev/client3/rdock/2013.1/src/exe/rbdock.cxx#4 $)

>  <Rbt.Library>
libRbt.so (2013.1, Build901 2013/11/27)

>  <Rbt.Parameter_File>
/export/apps/rDock/src/rDock_2013.1_src/data/scripts/dock_solv.prm

>  <Rbt.Receptor>
prm/pocket_docking_7.prm

>  <SCORE>
-4.53931

>  <SCORE.INTER>
4.49928

>  <SCORE.INTER.CONST>
1

>  <SCORE.INTER.POLAR>
0

>  <SCORE.INTER.ROT>
11

>  <SCORE.INTER.SOLV>
6.74002

>  <SCORE.INTER.VDW>
-10.1805

>  <SCORE.INTER.norm>
0.321377

>  <SCORE.INTRA>
-9.03859

>  <SCORE.INTRA.DIHEDRAL>
-15.0724

>  <SCORE.INTRA.DIHEDRAL.0>
17.5233

>  <SCORE.INTRA.POLAR>
0

>  <SCORE.INTRA.POLAR.0>
0

>  <SCORE.INTRA.REPUL>
0

>  <SCORE.INTRA.REPUL.0>
0

>  <SCORE.INTRA.SOLV>
-1.98218

>  <SCORE.INTRA.SOLV.lig_0>
-46.1043

>  <SCORE.INTRA.VDW>
-0.511281

>  <SCORE.INTRA.VDW.0>
-0.545445

>  <SCORE.INTRA.norm>
-0.645613

>  <SCORE.RESTR>
0

>  <SCORE.RESTR.CAVITY>
0

>  <SCORE.RESTR.norm>
0

>  <SCORE.SYSTEM>
0

>  <SCORE.SYSTEM.CONST>
0

>  <SCORE.SYSTEM.DIHEDRAL>
0

>  <SCORE.SYSTEM.SOLV>
0

>  <SCORE.SYSTEM.norm>
0

>  <SCORE.heavy>
14

>  <SCORE.norm>
-0.324236

>  <RMSD>
4.832

$$$$
ligand
 OpenBabel11021811513D
libRbt.so/2013.1/901 2013/11/27
 14 13  0  0  0  0  0  0  0  0999 V2000
   22.1789   51.2279   42.0015 N   0  0  0  0  0  0  0  0  0  0  0  0
   21.4093   52.1593   41.1926 C   0  0  0  0  0  0  0  0  0  0  0  0
   22.2797   52.7452   40.0859 C   0  0  0  0  0  0  0  0  0  0  0  0
   22.6642   51.6794   39.0659 C   0  0  0  0  0  0  0  0  0  0  0  0
   23.5899   52.1727   38.0506 N   0  0  0  0  0  0  0  0  0  0  0  0
   23.8360   51.4092   36.8388 C   0  0  0  0  0  0  0  0  0  0  0  0
   25.3182   51.1479   36.5951 C   0  0  0  0  0  0  0  0  0  0  0  0
   25.9050   50.3498   37.7541 C   0  0  0  0  0  0  0  0  0  0  0  0
   27.4004   50.1465   37.5365 C   0  0  0  0  0  0  0  0  0  0  0  0
   28.0330   49.4919   38.6687 N   0  0  0  0  0  0  0  0  0  0  0  0
   29.4823   49.3460   38.6933 C   0  0  0  0  0  0  0  0  0  0  0  0
   30.0527   48.8621   40.0248 C   0  0  0  0  0  0  0  0  0  0  0  0
   29.5843   47.4376   40.3271 C   0  0  0  0  0  0  0  0  0  0  0  0
   30.1527   46.9774   41.5826 N   0  0  0  0  0  0  0  0  0  0  0  0
  1  2  1  0  0  0  0
  2  3  1  0  0  0  0
  3  4  1  0  0  0  0
  4  5  1  0  0  0  0
  5  6  1  0  0  0  0
  6  7  1  0  0  0  0
  7  8  1  0  0  0  0
  8  9  1  0  0  0  0
  9 10  1  0  0  0  0
 10 11  1  0  0  0  0
 11 12  1  0  0  0  0
 12 13  1  0  0  0  0
 13 14  1  0  0  0  0
M  END
>  <CHROM.1>
67.49963040,-175.15263701,-166.17917235,-126.52325970,60.49637509,-177.41279714
174.99696582,-173.51852625,170.11853608,65.26493190,178.91059534,25.84897102
50.36823924,39.17231357,2.98751183,0.45878365,-1.29568700

>  <Name>
ligand

>  <RI>
0

>  <Rbt.Current_Directory>
/home/itssahil/PROJECTS/Mol_Feturizer/New_Systems/rnas/4P5J

>  <Rbt.Executable>
rbdock ($Id: //depot/dev/client3/rdock/2013.1/src/exe/rbdock.cxx#4 $)

>  <Rbt.Library>
libRbt.so (2013.1, Build901 2013/11/27)

>  <Rbt.Parameter_File>
/export/apps/rDock/src/rDock_2013.1_src/data/scripts/dock_solv.prm

>  <Rbt.Receptor>
prm/pocket_docking_5.prm

>  <SCORE>
-5.09013

>  <SCORE.INTER>
3.86106

>  <SCORE.INTER.CONST>
1

>  <SCORE.INTER.POLAR>
0

>  <SCORE.INTER.ROT>
11

>  <SCORE.INTER.SOLV>
6.67534

>  <SCORE.INTER.VDW>
-10.5844

>  <SCORE.INTER.norm>
0.27579

>  <SCORE.INTRA>
-8.95119

>  <SCORE.INTRA.DIHEDRAL>
-15.5645

>  <SCORE.INTRA.DIHEDRAL.0>
17.5233

>  <SCORE.INTRA.POLAR>
0

>  <SCORE.INTRA.POLAR.0>
0

>  <SCORE.INTRA.REPUL>
0

>  <SCORE.INTRA.REPUL.0>
0

>  <SCORE.INTRA.SOLV>
-1.2161

>  <SCORE.INTRA.SOLV.lig_0>
-46.1043

>  <SCORE.INTRA.VDW>
-0.560885

>  <SCORE.INTRA.VDW.0>
-0.545445

>  <SCORE.INTRA.norm>
-0.63937

>  <SCORE.RESTR>
0

>  <SCORE.RESTR.CAVITY>
0

>  <SCORE.RESTR.norm>
0

>  <SCORE.SYSTEM>
0

>  <SCORE.SYSTEM.CONST>
0

>  <SCORE.SYSTEM.DIHEDRAL>
0

>  <SCORE.SYSTEM.SOLV>
0

>  <SCORE.SYSTEM.norm>
0

>  <SCORE.heavy>
14

>  <SCORE.norm>
-0.363581

>  <RMSD>
4.840

$$$$
ligand
 OpenBabel11021811513D
libRbt.so/2013.1/901 2013/11/27
 14 13  0  0  0  0  0  0  0  0999 V2000
   32.4331   45.5711   38.2856 N   0  0  0  0  0  0  0  0  0  0  0  0
   31.2455   46.0740   38.9570 C   0  0  0  0  0  0  0  0  0  0  0  0
   31.1977   45.5723   40.3964 C   0  0  0  0  0  0  0  0  0  0  0  0
   29.9810   46.1240   41.1311 C   0  0  0  0  0  0  0  0  0  0  0  0
   30.0306   47.5728   41.3037 N   0  0  0  0  0  0  0  0  0  0  0  0
   28.9252   48.4090   40.8670 C   0  0  0  0  0  0  0  0  0  0  0  0
   29.0268   48.8041   39.3978 C   0  0  0  0  0  0  0  0  0  0  0  0
   27.8435   49.6842   39.0110 C   0  0  0  0  0  0  0  0  0  0  0  0
   27.8972   49.9954   37.5192 C   0  0  0  0  0  0  0  0  0  0  0  0
   29.0763   50.7663   37.1643 N   0  0  0  0  0  0  0  0  0  0  0  0
   29.3464   51.0571   35.7625 C   0  0  0  0  0  0  0  0  0  0  0  0
   29.9922   49.9117   34.9858 C   0  0  0  0  0  0  0  0  0  0  0  0
   31.3387   49.5315   35.6042 C   0  0  0  0  0  0  0  0  0  0  0  0
   31.9695   48.4786   34.8267 N   0  0  0  0  0  0  0  0  0  0  0  0
  1  2  1  0  0  0  0
  2  3  1  0  0  0  0
  3  4  1  0  0  0  0
  4  5  1  0  0  0  0
  5  6  1  0  0  0  0
  6  7  1  0  0  0  0
  7  8  1  0  0  0  0
  8  9  1  0  0  0  0
  9 10  1  0  0  0  0
 10 11  1  0  0  0  0
 11 12  1  0  0  0  0
 12 13  1  0  0  0  0
 13 14  1  0  0  0  0
M  END
>  <CHROM.1>
178.25057012,-65.49828760,126.56056120,-86.22134861,-179.66809911,-176.03946299
-63.50995346,174.90829934,-80.10483117,-60.15524469,-177.69534781,30.02134332
48.39670231,38.22959522,-1.42460858,0.74206100,-0.99987382

>  <Name>
ligand

>  <RI>
0

>  <Rbt.Current_Directory>
/home/itssahil/PROJECTS/Mol_Feturizer/New_Systems/rnas/4P5J

>  <Rbt.Executable>
rbdock ($Id: //depot/dev/client3/rdock/2013.1/src/exe/rbdock.cxx#4 $)

>  <Rbt.Library>
libRbt.so (2013.1, Build901 2013/11/27)

>  <Rbt.Parameter_File>
/export/apps/rDock/src/rDock_2013.1_src/data/scripts/dock_solv.prm

>  <Rbt.Receptor>
prm/pocket_docking_4.prm

>  <SCORE>
-3.21587

>  <SCORE.INTER>
6.0231

>  <SCORE.INTER.CONST>
1

>  <SCORE.INTER.POLAR>
0

>  <SCORE.INTER.ROT>
11

>  <SCORE.INTER.SOLV>
5.2162

>  <SCORE.INTER.VDW>
-8.65667

>  <SCORE.INTER.norm>
0.430221

>  <SCORE.INTRA>
-9.23897

>  <SCORE.INTRA.DIHEDRAL>
-15.2944

>  <SCORE.INTRA.DIHEDRAL.0>
17.5233

>  <SCORE.INTRA.POLAR>
0

>  <SCORE.INTRA.POLAR.0>
0

>  <SCORE.INTRA.REPUL>
0

>  <SCORE.INTRA.REPUL.0>
0

>  <SCORE.INTRA.SOLV>
-1.5956

>  <SCORE.INTRA.SOLV.lig_0>
-46.1043

>  <SCORE.INTRA.VDW>
-0.793946

>  <SCORE.INTRA.VDW.0>
-0.545445

>  <SCORE.INTRA.norm>
-0.659926

>  <SCORE.RESTR>
0

>  <SCORE.RESTR.CAVITY>
0

>  <SCORE.RESTR.norm>
0

>  <SCORE.SYSTEM>
0

>  <SCORE.SYSTEM.CONST>
0

>  <SCORE.SYSTEM.DIHEDRAL>
0

>  <SCORE.SYSTEM.SOLV>
0

>  <SCORE.SYSTEM.norm>
0

>  <SCORE.heavy>
14

>  <SCORE.norm>
-0.229705

>  <RMSD>
4.848

$$$$
ligand
 OpenBabel11021811513D
libRbt.so/2013.1/901 2013/11/27
 14 13  0  0  0  0  0  0  0  0999 V2000
   29.4040   46.8121   42.0634 N   0  0  0  0  0  0  0  0  0  0  0  0
   29.0396   47.9597   41.2484 C   0  0  0  0  0  0  0  0  0  0  0  0
   29.6149   47.8164   39.8433 C   0  0  0  0  0  0  0  0  0  0  0  0
   29.3038   49.0434   38.9937 C   0  0  0  0  0  0  0  0  0  0  0  0
   27.8725   49.2426   38.7866 N   0  0  0  0  0  0  0  0  0  0  0  0
   27.3870   49.9905   37.6390 C   0  0  0  0  0  0  0  0  0  0  0  0
   25.8857   50.2509   37.6946 C   0  0  0  0  0  0  0  0  0  0  0  0
   25.4437   51.0227   36.4563 C   0  0  0  0  0  0  0  0  0  0  0  0
   23.9791   51.4242   36.5936 C   0  0  0  0  0  0  0  0  0  0  0  0
   23.7614   52.3201   37.7163 N   0  0  0  0  0  0  0  0  0  0  0  0
   22.7405   51.9957   38.7037 C   0  0  0  0  0  0  0  0  0  0  0  0
   22.7151   52.9165   39.9218 C   0  0  0  0  0  0  0  0  0  0  0  0
   21.6702   52.4442   40.9342 C   0  0  0  0  0  0  0  0  0  0  0  0
   21.6704   53.3126   42.0991 N   0  0  0  0  0  0  0  0  0  0  0  0
  1  2  1  0  0  0  0
  2  3  1  0  0  0  0
  3  4  1  0  0  0  0
  4  5  1  0  0  0  0
  5  6  1  0  0  0  0
  6  7  1  0  0  0  0
  7  8  1  0  0  0  0
  8  9  1  0  0  0  0
  9 10  1  0  0  0  0
 10 11  1  0  0  0  0
 11 12  1  0  0  0  0
 12 13  1  0  0  0  0
 13 14  1  0  0  0  0
M  END
>  <CHROM.1>
-177.11153363,-62.83047563,-156.01814633,-172.26982009,-179.34110834,-173.32215289
62.74150932,-127.44669148,173.01763191,-176.58091057,178.99377925,25.74915106
50.46799043,39.19203402,0.15508218,-0.58267879,1.72292611

>  <Name>
ligand

>  <RI>
0

>  <Rbt.Current_Directory>
/home/itssahil/PROJECTS/Mol_Feturizer/New_Systems/rnas/4P5J

>  <Rbt.Executable>
rbdock ($Id: //depot/dev/client3/rdock/2013.1/src/exe/rbdock.cxx#4 $)

>  <Rbt.Library>
libRbt.so (2013.1, Build901 2013/11/27)

>  <Rbt.Parameter_File>
/export/apps/rDock/src/rDock_2013.1_src/data/scripts/dock_solv.prm

>  <Rbt.Receptor>
prm/pocket_docking_5.prm

>  <SCORE>
-5.40036

>  <SCORE.INTER>
3.99

>  <SCORE.INTER.CONST>
1

>  <SCORE.INTER.POLAR>
0

>  <SCORE.INTER.ROT>
11

>  <SCORE.INTER.SOLV>
8.21652

>  <SCORE.INTER.VDW>
-11.0122

>  <SCORE.INTER.norm>
0.285

>  <SCORE.INTRA>
-9.39036

>  <SCORE.INTRA.DIHEDRAL>
-15.5413

>  <SCORE.INTRA.DIHEDRAL.0>
17.5233

>  <SCORE.INTRA.POLAR>
0

>  <SCORE.INTRA.POLAR.0>
0

>  <SCORE.INTRA.REPUL>
0

>  <SCORE.INTRA.REPUL.0>
0

>  <SCORE.INTRA.SOLV>
-1.93305

>  <SCORE.INTRA.SOLV.lig_0>
-46.1043

>  <SCORE.INTRA.VDW>
-0.653206

>  <SCORE.INTRA.VDW.0>
-0.545445

>  <SCORE.INTRA.norm>
-0.67074

>  <SCORE.RESTR>
0

>  <SCORE.RESTR.CAVITY>
0

>  <SCORE.RESTR.norm>
0

>  <SCORE.SYSTEM>
0

>  <SCORE.SYSTEM.CONST>
0

>  <SCORE.SYSTEM.DIHEDRAL>
0

>  <SCORE.SYSTEM.SOLV>
0

>  <SCORE.SYSTEM.norm>
0

>  <SCORE.heavy>
14

>  <SCORE.norm>
-0.38574

>  <RMSD>
4.858

$$$$
ligand
 OpenBabel11021811513D
libRbt.so/2013.1/901 2013/11/27
 14 13  0  0  0  0  0  0  0  0999 V2000
   26.2314   53.0783   33.0151 N   0  0  0  0  0  0  0  0  0  0  0  0
   26.0118   52.5264   34.3422 C   0  0  0  0  0  0  0  0  0  0  0  0
   24.5434   52.1581   34.5270 C   0  0  0  0  0  0  0  0  0  0  0  0
   24.2796   51.6389   35.9359 C   0  0  0  0  0  0  0  0  0  0  0  0
   25.0250   50.4215   36.2414 N   0  0  0  0  0  0  0  0  0  0  0  0
   25.1195   49.9337   37.6070 C   0  0  0  0  0  0  0  0  0  0  0  0
   26.5085   50.1210   38.2073 C   0  0  0  0  0  0  0  0  0  0  0  0
   26.5522   49.5359   39.6144 C   0  0  0  0  0  0  0  0  0  0  0  0
   27.9263   49.7749   40.2308 C   0  0  0  0  0  0  0  0  0  0  0  0
   28.9820   49.1110   39.4857 N   0  0  0  0  0  0  0  0  0  0  0  0
   29.5177   47.8475   39.9747 C   0  0  0  0  0  0  0  0  0  0  0  0
   30.7165   47.3165   39.1914 C   0  0  0  0  0  0  0  0  0  0  0  0
   31.1656   45.9626   39.7435 C   0  0  0  0  0  0  0  0  0  0  0  0
   32.3353   45.4890   39.0233 N   0  0  0  0  0  0  0  0  0  0  0  0
  1  2  1  0  0  0  0
  2  3  1  0  0  0  0
  3  4  1  0  0  0  0
  4  5  1  0  0  0  0
  5  6  1  0  0  0  0
  6  7  1  0  0  0  0
  7  8  1  0  0  0  0
  8  9  1  0  0  0  0
  9 10  1  0  0  0  0
 10 11  1  0  0  0  0
 11 12  1  0  0  0  0
 12 13  1  0  0  0  0
 13 14  1  0  0  0  0
M  END
>  <CHROM.1>
-177.29800723,-61.85567780,167.32052185,-108.17321865,-177.60294974,-177.76594317
-62.36310320,-100.44714808,-174.03959231,-177.59185876,-177.95730242,27.49365061
49.63684899,37.65311821,-2.35267828,-0.49471898,1.95284133

>  <Name>
ligand

>  <RI>
0

>  <Rbt.Current_Directory>
/home/itssahil/PROJECTS/Mol_Feturizer/New_Systems/rnas/4P5J

>  <Rbt.Executable>
rbdock ($Id: //depot/dev/client3/rdock/2013.1/src/exe/rbdock.cxx#4 $)

>  <Rbt.Library>
libRbt.so (2013.1, Build901 2013/11/27)

>  <Rbt.Parameter_File>
/export/apps/rDock/src/rDock_2013.1_src/data/scripts/dock_solv.prm

>  <Rbt.Receptor>
prm/pocket_docking_7.prm

>  <SCORE>
-5.61373

>  <SCORE.INTER>
3.52458

>  <SCORE.INTER.CONST>
1

>  <SCORE.INTER.POLAR>
0

>  <SCORE.INTER.ROT>
11

>  <SCORE.INTER.SOLV>
8.60484

>  <SCORE.INTER.VDW>
-11.4519

>  <SCORE.INTER.norm>
0.251756

>  <SCORE.INTRA>
-9.13831

>  <SCORE.INTRA.DIHEDRAL>
-15.2242

>  <SCORE.INTRA.DIHEDRAL.0>
17.5233

>  <SCORE.INTRA.POLAR>
0

>  <SCORE.INTRA.POLAR.0>
0

>  <SCORE.INTRA.REPUL>
0

>  <SCORE.INTRA.REPUL.0>
0

>  <SCORE.INTRA.SOLV>
-1.93504

>  <SCORE.INTRA.SOLV.lig_0>
-46.1043

>  <SCORE.INTRA.VDW>
-0.55869

>  <SCORE.INTRA.VDW.0>
-0.545445

>  <SCORE.INTRA.norm>
-0.652736

>  <SCORE.RESTR>
0

>  <SCORE.RESTR.CAVITY>
0

>  <SCORE.RESTR.norm>
0

>  <SCORE.SYSTEM>
0

>  <SCORE.SYSTEM.CONST>
0

>  <SCORE.SYSTEM.DIHEDRAL>
0

>  <SCORE.SYSTEM.SOLV>
0

>  <SCORE.SYSTEM.norm>
0

>  <SCORE.heavy>
14

>  <SCORE.norm>
-0.400981

>  <RMSD>
4.906

$$$$
ligand
 OpenBabel11021811513D
libRbt.so/2013.1/901 2013/11/27
 14 13  0  0  0  0  0  0  0  0999 V2000
   30.2527   47.0583   41.7720 N   0  0  0  0  0  0  0  0  0  0  0  0
   29.2755   48.0359   41.3211 C   0  0  0  0  0  0  0  0  0  0  0  0
   29.3687   48.2208   39.8102 C   0  0  0  0  0  0  0  0  0  0  0  0
   28.3797   49.2737   39.3227 C   0  0  0  0  0  0  0  0  0  0  0  0
   28.3837   49.4276   37.8710 N   0  0  0  0  0  0  0  0  0  0  0  0
   27.6297   50.4961   37.2373 C   0  0  0  0  0  0  0  0  0  0  0  0
   26.1248   50.3593   37.4405 C   0  0  0  0  0  0  0  0  0  0  0  0
   25.3886   51.4007   36.6051 C   0  0  0  0  0  0  0  0  0  0  0  0
   23.9168   51.4348   37.0023 C   0  0  0  0  0  0  0  0  0  0  0  0
   23.7236   51.9765   38.3364 N   0  0  0  0  0  0  0  0  0  0  0  0
   22.5374   51.6038   39.0957 C   0  0  0  0  0  0  0  0  0  0  0  0
   22.5371   52.0712   40.5496 C   0  0  0  0  0  0  0  0  0  0  0  0
   21.2837   51.5785   41.2750 C   0  0  0  0  0  0  0  0  0  0  0  0
   21.3199   51.9809   42.6707 N   0  0  0  0  0  0  0  0  0  0  0  0
  1  2  1  0  0  0  0
  2  3  1  0  0  0  0
  3  4  1  0  0  0  0
  4  5  1  0  0  0  0
  5  6  1  0  0  0  0
  6  7  1  0  0  0  0
  7  8  1  0  0  0  0
  8  9  1  0  0  0  0
  9 10  1  0  0  0  0
 10 11  1  0  0  0  0
 11 12  1  0  0  0  0
 12 13  1  0  0  0  0
 13 14  1  0  0  0  0
M  END
>  <CHROM.1>
-178.29029113,-176.75773842,-172.35428635,-64.41245616,-172.68252827,-169.57055257
69.06344698,-154.96334755,171.74001446,-177.46507696,177.63492633,25.72290323
50.35138473,39.30747403,0.09923018,-0.45393523,1.84993354

>  <Name>
ligand

>  <RI>
0

>  <Rbt.Current_Directory>
/home/itssahil/PROJECTS/Mol_Feturizer/New_Systems/rnas/4P5J

>  <Rbt.Executable>
rbdock ($Id: //depot/dev/client3/rdock/2013.1/src/exe/rbdock.cxx#4 $)

>  <Rbt.Library>
libRbt.so (2013.1, Build901 2013/11/27)

>  <Rbt.Parameter_File>
/export/apps/rDock/src/rDock_2013.1_src/data/scripts/dock_solv.prm

>  <Rbt.Receptor>
prm/pocket_docking_6.prm

>  <SCORE>
-4.84779

>  <SCORE.INTER>
4.5941

>  <SCORE.INTER.CONST>
1

>  <SCORE.INTER.POLAR>
0

>  <SCORE.INTER.ROT>
11

>  <SCORE.INTER.SOLV>
6.67278

>  <SCORE.INTER.VDW>
-10.0949

>  <SCORE.INTER.norm>
0.32815

>  <SCORE.INTRA>
-9.44189

>  <SCORE.INTRA.DIHEDRAL>
-15.9125

>  <SCORE.INTRA.DIHEDRAL.0>
17.5233

>  <SCORE.INTRA.POLAR>
0

>  <SCORE.INTRA.POLAR.0>
0

>  <SCORE.INTRA.REPUL>
0

>  <SCORE.INTRA.REPUL.0>
0

>  <SCORE.INTRA.SOLV>
-2.31991

>  <SCORE.INTRA.SOLV.lig_0>
-46.1043

>  <SCORE.INTRA.VDW>
-0.325659

>  <SCORE.INTRA.VDW.0>
-0.545445

>  <SCORE.INTRA.norm>
-0.674421

>  <SCORE.RESTR>
0

>  <SCORE.RESTR.CAVITY>
0

>  <SCORE.RESTR.norm>
0

>  <SCORE.SYSTEM>
0

>  <SCORE.SYSTEM.CONST>
0

>  <SCORE.SYSTEM.DIHEDRAL>
0

>  <SCORE.SYSTEM.SOLV>
0

>  <SCORE.SYSTEM.norm>
0

>  <SCORE.heavy>
14

>  <SCORE.norm>
-0.346271

>  <RMSD>
4.923

$$$$
ligand
 OpenBabel11021811513D
libRbt.so/2013.1/901 2013/11/27
 14 13  0  0  0  0  0  0  0  0999 V2000
   24.7026   55.2034   35.9980 N   0  0  0  0  0  0  0  0  0  0  0  0
   23.2704   55.2441   35.7511 C   0  0  0  0  0  0  0  0  0  0  0  0
   22.7883   53.9047   35.2039 C   0  0  0  0  0  0  0  0  0  0  0  0
   22.9209   52.8033   36.2497 C   0  0  0  0  0  0  0  0  0  0  0  0
   24.2973   52.3492   36.4247 N   0  0  0  0  0  0  0  0  0  0  0  0
   24.5987   51.2079   37.2723 C   0  0  0  0  0  0  0  0  0  0  0  0
   26.0961   50.9751   37.4405 C   0  0  0  0  0  0  0  0  0  0  0  0
   26.3431   49.9218   38.5147 C   0  0  0  0  0  0  0  0  0  0  0  0
   27.8424   49.7123   38.6976 C   0  0  0  0  0  0  0  0  0  0  0  0
   28.1353   48.7489   39.7448 N   0  0  0  0  0  0  0  0  0  0  0  0
   29.4815   48.2039   39.8601 C   0  0  0  0  0  0  0  0  0  0  0  0
   29.6398   47.1116   40.9156 C   0  0  0  0  0  0  0  0  0  0  0  0
   31.0957   46.6501   41.0011 C   0  0  0  0  0  0  0  0  0  0  0  0
   31.2447   45.6471   42.0417 N   0  0  0  0  0  0  0  0  0  0  0  0
  1  2  1  0  0  0  0
  2  3  1  0  0  0  0
  3  4  1  0  0  0  0
  4  5  1  0  0  0  0
  5  6  1  0  0  0  0
  6  7  1  0  0  0  0
  7  8  1  0  0  0  0
  8  9  1  0  0  0  0
  9 10  1  0  0  0  0
 10 11  1  0  0  0  0
 11 12  1  0  0  0  0
 12 13  1  0  0  0  0
 13 14  1  0  0  0  0
M  END
>  <CHROM.1>
66.55807921,-75.97600775,-173.34012422,-174.20307218,170.58970867,-178.91711687
178.03956271,166.48307711,-174.84478495,-177.52095783,177.88667977,26.60386260
50.54884662,38.22241712,-2.28562147,0.35428400,2.80918815

>  <Name>
ligand

>  <RI>
0

>  <Rbt.Current_Directory>
/home/itssahil/PROJECTS/Mol_Feturizer/New_Systems/rnas/4P5J

>  <Rbt.Executable>
rbdock ($Id: //depot/dev/client3/rdock/2013.1/src/exe/rbdock.cxx#4 $)

>  <Rbt.Library>
libRbt.so (2013.1, Build901 2013/11/27)

>  <Rbt.Parameter_File>
/export/apps/rDock/src/rDock_2013.1_src/data/scripts/dock_solv.prm

>  <Rbt.Receptor>
prm/pocket_docking_8.prm

>  <SCORE>
-5.4699

>  <SCORE.INTER>
3.16924

>  <SCORE.INTER.CONST>
1

>  <SCORE.INTER.POLAR>
0

>  <SCORE.INTER.ROT>
11

>  <SCORE.INTER.SOLV>
6.76863

>  <SCORE.INTER.VDW>
-11.0767

>  <SCORE.INTER.norm>
0.226374

>  <SCORE.INTRA>
-8.63914

>  <SCORE.INTRA.DIHEDRAL>
-15.8343

>  <SCORE.INTRA.DIHEDRAL.0>
17.5233

>  <SCORE.INTRA.POLAR>
0

>  <SCORE.INTRA.POLAR.0>
0

>  <SCORE.INTRA.REPUL>
0

>  <SCORE.INTRA.REPUL.0>
0

>  <SCORE.INTRA.SOLV>
0.0717696

>  <SCORE.INTRA.SOLV.lig_0>
-46.1043

>  <SCORE.INTRA.VDW>
-0.757865

>  <SCORE.INTRA.VDW.0>
-0.545445

>  <SCORE.INTRA.norm>
-0.617081

>  <SCORE.RESTR>
0

>  <SCORE.RESTR.CAVITY>
0

>  <SCORE.RESTR.norm>
0

>  <SCORE.SYSTEM>
0

>  <SCORE.SYSTEM.CONST>
0

>  <SCORE.SYSTEM.DIHEDRAL>
0

>  <SCORE.SYSTEM.SOLV>
0

>  <SCORE.SYSTEM.norm>
0

>  <SCORE.heavy>
14

>  <SCORE.norm>
-0.390707

>  <RMSD>
4.954

$$$$
ligand
 OpenBabel11021811513D
libRbt.so/2013.1/901 2013/11/27
 14 13  0  0  0  0  0  0  0  0999 V2000
   31.3550   49.4237   33.5117 N   0  0  0  0  0  0  0  0  0  0  0  0
   30.1498   49.5675   34.3122 C   0  0  0  0  0  0  0  0  0  0  0  0
   30.4905   49.5144   35.7978 C   0  0  0  0  0  0  0  0  0  0  0  0
   29.2502   49.7402   36.6551 C   0  0  0  0  0  0  0  0  0  0  0  0
   29.5253   49.6522   38.0861 N   0  0  0  0  0  0  0  0  0  0  0  0
   28.4427   49.4744   39.0390 C   0  0  0  0  0  0  0  0  0  0  0  0
   28.8918   48.7854   40.3229 C   0  0  0  0  0  0  0  0  0  0  0  0
   29.5212   47.4353   39.9981 C   0  0  0  0  0  0  0  0  0  0  0  0
   29.8727   46.7051   41.2897 C   0  0  0  0  0  0  0  0  0  0  0  0
   30.5092   45.4240   41.0368 N   0  0  0  0  0  0  0  0  0  0  0  0
   31.9127   45.3862   40.6477 C   0  0  0  0  0  0  0  0  0  0  0  0
   32.1981   44.6137   39.3616 C   0  0  0  0  0  0  0  0  0  0  0  0
   31.5507   45.3059   38.1609 C   0  0  0  0  0  0  0  0  0  0  0  0
   31.9101   44.6201   36.9314 N   0  0  0  0  0  0  0  0  0  0  0  0
  1  2  1  0  0  0  0
  2  3  1  0  0  0  0
  3  4  1  0  0  0  0
  4  5  1  0  0  0  0
  5  6  1  0  0  0  0
  6  7  1  0  0  0  0
  7  8  1  0  0  0  0
  8  9  1  0  0  0  0
  9 10  1  0  0  0  0
 10 11  1  0  0  0  0
 11 12  1  0  0  0  0
 12 13  1  0  0  0  0
 13 14  1  0  0  0  0
M  END
>  <CHROM.1>
176.87611871,178.05697295,-163.12147553,153.62184588,-56.99211290,-175.75639704
-178.50232895,77.37053581,-126.36613800,65.13417581,175.77477410,30.39841021
47.54639944,38.22542057,-1.76742771,-0.93600741,2.07739638

>  <Name>
ligand

>  <RI>
0

>  <Rbt.Current_Directory>
/home/itssahil/PROJECTS/Mol_Feturizer/New_Systems/rnas/4P5J

>  <Rbt.Executable>
rbdock ($Id: //depot/dev/client3/rdock/2013.1/src/exe/rbdock.cxx#4 $)

>  <Rbt.Library>
libRbt.so (2013.1, Build901 2013/11/27)

>  <Rbt.Parameter_File>
/export/apps/rDock/src/rDock_2013.1_src/data/scripts/dock_solv.prm

>  <Rbt.Receptor>
prm/pocket_docking_5.prm

>  <SCORE>
-3.87647

>  <SCORE.INTER>
5.33193

>  <SCORE.INTER.CONST>
1

>  <SCORE.INTER.POLAR>
0

>  <SCORE.INTER.ROT>
11

>  <SCORE.INTER.SOLV>
8.57664

>  <SCORE.INTER.VDW>
-10.2376

>  <SCORE.INTER.norm>
0.380852

>  <SCORE.INTRA>
-9.2084

>  <SCORE.INTRA.DIHEDRAL>
-15.0831

>  <SCORE.INTRA.DIHEDRAL.0>
17.5233

>  <SCORE.INTRA.POLAR>
0

>  <SCORE.INTRA.POLAR.0>
0

>  <SCORE.INTRA.REPUL>
0

>  <SCORE.INTRA.REPUL.0>
0

>  <SCORE.INTRA.SOLV>
-1.97652

>  <SCORE.INTRA.SOLV.lig_0>
-46.1043

>  <SCORE.INTRA.VDW>
-0.678604

>  <SCORE.INTRA.VDW.0>
-0.545445

>  <SCORE.INTRA.norm>
-0.657743

>  <SCORE.RESTR>
0

>  <SCORE.RESTR.CAVITY>
0

>  <SCORE.RESTR.norm>
0

>  <SCORE.SYSTEM>
0

>  <SCORE.SYSTEM.CONST>
0

>  <SCORE.SYSTEM.DIHEDRAL>
0

>  <SCORE.SYSTEM.SOLV>
0

>  <SCORE.SYSTEM.norm>
0

>  <SCORE.heavy>
14

>  <SCORE.norm>
-0.276891

>  <RMSD>
4.964

$$$$
ligand
 OpenBabel11021811513D
libRbt.so/2013.1/901 2013/11/27
 14 13  0  0  0  0  0  0  0  0999 V2000
   22.7683   54.3469   41.4603 N   0  0  0  0  0  0  0  0  0  0  0  0
   22.9721   53.7621   40.1448 C   0  0  0  0  0  0  0  0  0  0  0  0
   22.4158   52.3427   40.1035 C   0  0  0  0  0  0  0  0  0  0  0  0
   22.6499   51.6995   38.7413 C   0  0  0  0  0  0  0  0  0  0  0  0
   24.0653   51.5088   38.4389 N   0  0  0  0  0  0  0  0  0  0  0  0
   24.4790   50.6601   37.3343 C   0  0  0  0  0  0  0  0  0  0  0  0
   25.9814   50.7115   37.0793 C   0  0  0  0  0  0  0  0  0  0  0  0
   26.7299   50.0616   38.2376 C   0  0  0  0  0  0  0  0  0  0  0  0
   28.2323   50.1355   37.9880 C   0  0  0  0  0  0  0  0  0  0  0  0
   28.6188   49.4401   36.7725 N   0  0  0  0  0  0  0  0  0  0  0  0
   29.9730   49.5956   36.2583 C   0  0  0  0  0  0  0  0  0  0  0  0
   30.1932   49.0281   34.8576 C   0  0  0  0  0  0  0  0  0  0  0  0
   31.6502   49.2043   34.4264 C   0  0  0  0  0  0  0  0  0  0  0  0
   31.9630   50.6153   34.2768 N   0  0  0  0  0  0  0  0  0  0  0  0
  1  2  1  0  0  0  0
  2  3  1  0  0  0  0
  3  4  1  0  0  0  0
  4  5  1  0  0  0  0
  5  6  1  0  0  0  0
  6  7  1  0  0  0  0
  7  8  1  0  0  0  0
  8  9  1  0  0  0  0
  9 10  1  0  0  0  0
 10 11  1  0  0  0  0
 11 12  1  0  0  0  0
 12 13  1  0  0  0  0
 13 14  1  0  0  0  0
M  END
>  <CHROM.1>
-178.63936255,64.72680588,166.62349368,173.48211355,68.19841314,-179.10515877
-60.57157452,169.73662210,-169.60300809,-178.37477545,-65.97258039,26.62077599
50.93635843,37.57991284,-2.54870734,-0.23459549,-2.50119255

>  <Name>
ligand

>  <RI>
0

>  <Rbt.Current_Directory>
/home/itssahil/PROJECTS/Mol_Feturizer/New_Systems/rnas/4P5J

>  <Rbt.Executable>
rbdock ($Id: //depot/dev/client3/rdock/2013.1/src/exe/rbdock.cxx#4 $)

>  <Rbt.Library>
libRbt.so (2013.1, Build901 2013/11/27)

>  <Rbt.Parameter_File>
/export/apps/rDock/src/rDock_2013.1_src/data/scripts/dock_solv.prm

>  <Rbt.Receptor>
prm/pocket_docking_5.prm

>  <SCORE>
-3.91339

>  <SCORE.INTER>
5.26372

>  <SCORE.INTER.CONST>
1

>  <SCORE.INTER.POLAR>
0

>  <SCORE.INTER.ROT>
11

>  <SCORE.INTER.SOLV>
5.82881

>  <SCORE.INTER.VDW>
-9.36712

>  <SCORE.INTER.norm>
0.37598

>  <SCORE.INTRA>
-9.17711

>  <SCORE.INTRA.DIHEDRAL>
-16.6862

>  <SCORE.INTRA.DIHEDRAL.0>
17.5233

>  <SCORE.INTRA.POLAR>
0

>  <SCORE.INTRA.POLAR.0>
0

>  <SCORE.INTRA.REPUL>
0

>  <SCORE.INTRA.REPUL.0>
0

>  <SCORE.INTRA.SOLV>
-0.807353

>  <SCORE.INTRA.SOLV.lig_0>
-46.1043

>  <SCORE.INTRA.VDW>
-0.43035

>  <SCORE.INTRA.VDW.0>
-0.545445

>  <SCORE.INTRA.norm>
-0.655508

>  <SCORE.RESTR>
0

>  <SCORE.RESTR.CAVITY>
0

>  <SCORE.RESTR.norm>
0

>  <SCORE.SYSTEM>
0

>  <SCORE.SYSTEM.CONST>
0

>  <SCORE.SYSTEM.DIHEDRAL>
0

>  <SCORE.SYSTEM.SOLV>
0

>  <SCORE.SYSTEM.norm>
0

>  <SCORE.heavy>
14

>  <SCORE.norm>
-0.279528

>  <RMSD>
5.069

$$$$
ligand
 OpenBabel11021811513D
libRbt.so/2013.1/901 2013/11/27
 14 13  0  0  0  0  0  0  0  0999 V2000
   23.9820   55.6117   35.3649 N   0  0  0  0  0  0  0  0  0  0  0  0
   23.8193   54.5643   36.3601 C   0  0  0  0  0  0  0  0  0  0  0  0
   23.1718   53.3337   35.7338 C   0  0  0  0  0  0  0  0  0  0  0  0
   23.0143   52.2143   36.7567 C   0  0  0  0  0  0  0  0  0  0  0  0
   24.2906   51.7533   37.2951 N   0  0  0  0  0  0  0  0  0  0  0  0
   24.9879   50.6310   36.6900 C   0  0  0  0  0  0  0  0  0  0  0  0
   26.3546   50.3767   37.3161 C   0  0  0  0  0  0  0  0  0  0  0  0
   26.1891   49.8998   38.7548 C   0  0  0  0  0  0  0  0  0  0  0  0
   27.5554   49.5900   39.3567 C   0  0  0  0  0  0  0  0  0  0  0  0
   27.4508   49.0655   40.7074 N   0  0  0  0  0  0  0  0  0  0  0  0
   28.6640   48.8154   41.4743 C   0  0  0  0  0  0  0  0  0  0  0  0
   29.2965   47.4452   41.2396 C   0  0  0  0  0  0  0  0  0  0  0  0
   29.9871   47.3957   39.8756 C   0  0  0  0  0  0  0  0  0  0  0  0
   31.1285   48.2946   39.8571 N   0  0  0  0  0  0  0  0  0  0  0  0
  1  2  1  0  0  0  0
  2  3  1  0  0  0  0
  3  4  1  0  0  0  0
  4  5  1  0  0  0  0
  5  6  1  0  0  0  0
  6  7  1  0  0  0  0
  7  8  1  0  0  0  0
  8  9  1  0  0  0  0
  9 10  1  0  0  0  0
 10 11  1  0  0  0  0
 11 12  1  0  0  0  0
 12 13  1  0  0  0  0
 13 14  1  0  0  0  0
M  END
>  <CHROM.1>
179.02470501,-61.63672632,-92.88036438,175.08747015,67.15094156,177.59356688
-177.06983912,-175.11577028,-86.07243062,73.91432208,66.51278695,26.42073025
50.64200709,38.34159788,-2.25621434,0.09669402,2.54511745

>  <Name>
ligand

>  <RI>
0

>  <Rbt.Current_Directory>
/home/itssahil/PROJECTS/Mol_Feturizer/New_Systems/rnas/4P5J

>  <Rbt.Executable>
rbdock ($Id: //depot/dev/client3/rdock/2013.1/src/exe/rbdock.cxx#4 $)

>  <Rbt.Library>
libRbt.so (2013.1, Build901 2013/11/27)

>  <Rbt.Parameter_File>
/export/apps/rDock/src/rDock_2013.1_src/data/scripts/dock_solv.prm

>  <Rbt.Receptor>
prm/pocket_docking_8.prm

>  <SCORE>
-4.83965

>  <SCORE.INTER>
3.00676

>  <SCORE.INTER.CONST>
1

>  <SCORE.INTER.POLAR>
0

>  <SCORE.INTER.ROT>
11

>  <SCORE.INTER.SOLV>
6.19569

>  <SCORE.INTER.VDW>
-10.9941

>  <SCORE.INTER.norm>
0.214769

>  <SCORE.INTRA>
-7.84641

>  <SCORE.INTRA.DIHEDRAL>
-15.1952

>  <SCORE.INTRA.DIHEDRAL.0>
17.5233

>  <SCORE.INTRA.POLAR>
0

>  <SCORE.INTRA.POLAR.0>
0

>  <SCORE.INTRA.REPUL>
0

>  <SCORE.INTRA.REPUL.0>
0

>  <SCORE.INTRA.SOLV>
0.198872

>  <SCORE.INTRA.SOLV.lig_0>
-46.1043

>  <SCORE.INTRA.VDW>
-0.348243

>  <SCORE.INTRA.VDW.0>
-0.545445

>  <SCORE.INTRA.norm>
-0.560458

>  <SCORE.RESTR>
0

>  <SCORE.RESTR.CAVITY>
0

>  <SCORE.RESTR.norm>
0

>  <SCORE.SYSTEM>
0

>  <SCORE.SYSTEM.CONST>
0

>  <SCORE.SYSTEM.DIHEDRAL>
0

>  <SCORE.SYSTEM.SOLV>
0

>  <SCORE.SYSTEM.norm>
0

>  <SCORE.heavy>
14

>  <SCORE.norm>
-0.345689

>  <RMSD>
5.084

$$$$
ligand
 OpenBabel11021811513D
libRbt.so/2013.1/901 2013/11/27
 14 13  0  0  0  0  0  0  0  0999 V2000
   22.8341   52.5419   41.8896 N   0  0  0  0  0  0  0  0  0  0  0  0
   22.6514   51.1548   41.4939 C   0  0  0  0  0  0  0  0  0  0  0  0
   21.7838   51.0703   40.2425 C   0  0  0  0  0  0  0  0  0  0  0  0
   22.5061   51.6513   39.0321 C   0  0  0  0  0  0  0  0  0  0  0  0
   23.6546   50.8509   38.6179 N   0  0  0  0  0  0  0  0  0  0  0  0
   24.3373   51.1276   37.3653 C   0  0  0  0  0  0  0  0  0  0  0  0
   25.6007   50.2935   37.1834 C   0  0  0  0  0  0  0  0  0  0  0  0
   26.5826   50.5801   38.3139 C   0  0  0  0  0  0  0  0  0  0  0  0
   27.8741   49.8023   38.0858 C   0  0  0  0  0  0  0  0  0  0  0  0
   28.5720   50.2415   36.8898 N   0  0  0  0  0  0  0  0  0  0  0  0
   29.6702   49.4398   36.3665 C   0  0  0  0  0  0  0  0  0  0  0  0
   30.0686   49.7641   34.9283 C   0  0  0  0  0  0  0  0  0  0  0  0
   31.1126   48.7686   34.4195 C   0  0  0  0  0  0  0  0  0  0  0  0
   32.3419   48.8950   35.1837 N   0  0  0  0  0  0  0  0  0  0  0  0
  1  2  1  0  0  0  0
  2  3  1  0  0  0  0
  3  4  1  0  0  0  0
  4  5  1  0  0  0  0
  5  6  1  0  0  0  0
  6  7  1  0  0  0  0
  7  8  1  0  0  0  0
  8  9  1  0  0  0  0
  9 10  1  0  0  0  0
 10 11  1  0  0  0  0
 11 12  1  0  0  0  0
 12 13  1  0  0  0  0
 13 14  1  0  0  0  0
M  END
>  <CHROM.1>
67.64821805,67.79547132,170.28938635,173.50517309,-59.95059630,-176.88798494
64.77578172,-167.58189815,163.70674488,-173.50001145,-64.46925603,26.39910544
50.44146220,37.85789840,-2.57443891,0.18213374,-1.72123705

>  <Name>
ligand

>  <RI>
0

>  <Rbt.Current_Directory>
/home/itssahil/PROJECTS/Mol_Feturizer/New_Systems/rnas/4P5J

>  <Rbt.Executable>
rbdock ($Id: //depot/dev/client3/rdock/2013.1/src/exe/rbdock.cxx#4 $)

>  <Rbt.Library>
libRbt.so (2013.1, Build901 2013/11/27)

>  <Rbt.Parameter_File>
/export/apps/rDock/src/rDock_2013.1_src/data/scripts/dock_solv.prm

>  <Rbt.Receptor>
prm/pocket_docking_5.prm

>  <SCORE>
-3.77099

>  <SCORE.INTER>
4.48266

>  <SCORE.INTER.CONST>
1

>  <SCORE.INTER.POLAR>
0

>  <SCORE.INTER.ROT>
11

>  <SCORE.INTER.SOLV>
5.70966

>  <SCORE.INTER.VDW>
-9.84812

>  <SCORE.INTER.norm>
0.32019

>  <SCORE.INTRA>
-8.25365

>  <SCORE.INTRA.DIHEDRAL>
-16.2802

>  <SCORE.INTRA.DIHEDRAL.0>
17.5233

>  <SCORE.INTRA.POLAR>
0

>  <SCORE.INTRA.POLAR.0>
0

>  <SCORE.INTRA.REPUL>
0

>  <SCORE.INTRA.REPUL.0>
0

>  <SCORE.INTRA.SOLV>
0.435328

>  <SCORE.INTRA.SOLV.lig_0>
-46.1043

>  <SCORE.INTRA.VDW>
-0.331234

>  <SCORE.INTRA.VDW.0>
-0.545445

>  <SCORE.INTRA.norm>
-0.589546

>  <SCORE.RESTR>
0

>  <SCORE.RESTR.CAVITY>
0

>  <SCORE.RESTR.norm>
0

>  <SCORE.SYSTEM>
0

>  <SCORE.SYSTEM.CONST>
0

>  <SCORE.SYSTEM.DIHEDRAL>
0

>  <SCORE.SYSTEM.SOLV>
0

>  <SCORE.SYSTEM.norm>
0

>  <SCORE.heavy>
14

>  <SCORE.norm>
-0.269357

>  <RMSD>
5.086

$$$$
ligand
 OpenBabel11021811513D
libRbt.so/2013.1/901 2013/11/27
 14 13  0  0  0  0  0  0  0  0999 V2000
   24.0288   47.8001   43.5001 N   0  0  0  0  0  0  0  0  0  0  0  0
   24.2413   46.9537   42.3372 C   0  0  0  0  0  0  0  0  0  0  0  0
   22.9960   46.9394   41.4571 C   0  0  0  0  0  0  0  0  0  0  0  0
   22.7769   48.2934   40.7917 C   0  0  0  0  0  0  0  0  0  0  0  0
   23.8253   48.6316   39.8337 N   0  0  0  0  0  0  0  0  0  0  0  0
   23.9088   49.9675   39.2678 C   0  0  0  0  0  0  0  0  0  0  0  0
   25.0426   50.1126   38.2586 C   0  0  0  0  0  0  0  0  0  0  0  0
   26.3859   49.9064   38.9496 C   0  0  0  0  0  0  0  0  0  0  0  0
   27.5079   49.9391   37.9176 C   0  0  0  0  0  0  0  0  0  0  0  0
   28.7919   49.5816   38.4955 N   0  0  0  0  0  0  0  0  0  0  0  0
   29.8958   49.2170   37.6174 C   0  0  0  0  0  0  0  0  0  0  0  0
   31.0800   48.5574   38.3207 C   0  0  0  0  0  0  0  0  0  0  0  0
   30.6558   47.2401   38.9723 C   0  0  0  0  0  0  0  0  0  0  0  0
   31.7754   46.6479   39.6842 N   0  0  0  0  0  0  0  0  0  0  0  0
  1  2  1  0  0  0  0
  2  3  1  0  0  0  0
  3  4  1  0  0  0  0
  4  5  1  0  0  0  0
  5  6  1  0  0  0  0
  6  7  1  0  0  0  0
  7  8  1  0  0  0  0
  8  9  1  0  0  0  0
  9 10  1  0  0  0  0
 10 11  1  0  0  0  0
 11 12  1  0  0  0  0
 12 13  1  0  0  0  0
 13 14  1  0  0  0  0
M  END
>  <CHROM.1>
68.92530180,65.93938243,-169.74466396,-178.29317339,-63.74536357,175.39587319
-172.79435928,163.90154970,-166.54815146,62.00100477,-177.69408165,26.63640937
48.55643495,39.67140015,-2.85127622,0.23283984,-0.84813137

>  <Name>
ligand

>  <RI>
0

>  <Rbt.Current_Directory>
/home/itssahil/PROJECTS/Mol_Feturizer/New_Systems/rnas/4P5J

>  <Rbt.Executable>
rbdock ($Id: //depot/dev/client3/rdock/2013.1/src/exe/rbdock.cxx#4 $)

>  <Rbt.Library>
libRbt.so (2013.1, Build901 2013/11/27)

>  <Rbt.Parameter_File>
/export/apps/rDock/src/rDock_2013.1_src/data/scripts/dock_solv.prm

>  <Rbt.Receptor>
prm/pocket_docking_7.prm

>  <SCORE>
-5.77951

>  <SCORE.INTER>
3.1561

>  <SCORE.INTER.CONST>
1

>  <SCORE.INTER.POLAR>
0

>  <SCORE.INTER.ROT>
11

>  <SCORE.INTER.SOLV>
6.66368

>  <SCORE.INTER.VDW>
-11.0505

>  <SCORE.INTER.norm>
0.225436

>  <SCORE.INTRA>
-8.93561

>  <SCORE.INTRA.DIHEDRAL>
-16.2938

>  <SCORE.INTRA.DIHEDRAL.0>
17.5233

>  <SCORE.INTRA.POLAR>
0

>  <SCORE.INTRA.POLAR.0>
0

>  <SCORE.INTRA.REPUL>
0

>  <SCORE.INTRA.REPUL.0>
0

>  <SCORE.INTRA.SOLV>
-0.364424

>  <SCORE.INTRA.SOLV.lig_0>
-46.1043

>  <SCORE.INTRA.VDW>
-0.606508

>  <SCORE.INTRA.VDW.0>
-0.545445

>  <SCORE.INTRA.norm>
-0.638258

>  <SCORE.RESTR>
0

>  <SCORE.RESTR.CAVITY>
0

>  <SCORE.RESTR.norm>
0

>  <SCORE.SYSTEM>
0

>  <SCORE.SYSTEM.CONST>
0

>  <SCORE.SYSTEM.DIHEDRAL>
0

>  <SCORE.SYSTEM.SOLV>
0

>  <SCORE.SYSTEM.norm>
0

>  <SCORE.heavy>
14

>  <SCORE.norm>
-0.412822

>  <RMSD>
5.101

$$$$
ligand
 OpenBabel11021811513D
libRbt.so/2013.1/901 2013/11/27
 14 13  0  0  0  0  0  0  0  0999 V2000
   22.5358   53.1741   41.3376 N   0  0  0  0  0  0  0  0  0  0  0  0
   23.0951   53.0961   39.9978 C   0  0  0  0  0  0  0  0  0  0  0  0
   22.4281   51.9741   39.2091 C   0  0  0  0  0  0  0  0  0  0  0  0
   23.0162   51.8622   37.8070 C   0  0  0  0  0  0  0  0  0  0  0  0
   24.4138   51.4405   37.8095 N   0  0  0  0  0  0  0  0  0  0  0  0
   24.7716   50.0635   38.1057 C   0  0  0  0  0  0  0  0  0  0  0  0
   26.2133   49.9158   38.5796 C   0  0  0  0  0  0  0  0  0  0  0  0
   27.1731   50.2486   37.4428 C   0  0  0  0  0  0  0  0  0  0  0  0
   28.6122   50.0588   37.9096 C   0  0  0  0  0  0  0  0  0  0  0  0
   29.5698   50.3294   36.8511 N   0  0  0  0  0  0  0  0  0  0  0  0
   29.8311   49.3096   35.8440 C   0  0  0  0  0  0  0  0  0  0  0  0
   30.6828   49.7788   34.6664 C   0  0  0  0  0  0  0  0  0  0  0  0
   30.7896   48.6814   33.6061 C   0  0  0  0  0  0  0  0  0  0  0  0
   31.6452   49.1176   32.5158 N   0  0  0  0  0  0  0  0  0  0  0  0
  1  2  1  0  0  0  0
  2  3  1  0  0  0  0
  3  4  1  0  0  0  0
  4  5  1  0  0  0  0
  5  6  1  0  0  0  0
  6  7  1  0  0  0  0
  7  8  1  0  0  0  0
  8  9  1  0  0  0  0
  9 10  1  0  0  0  0
 10 11  1  0  0  0  0
 11 12  1  0  0  0  0
 12 13  1  0  0  0  0
 13 14  1  0  0  0  0
M  END
>  <CHROM.1>
-179.13625221,66.14729553,73.79191283,-158.14724712,-67.11972956,-178.30775923
178.48237608,-80.02093123,170.89938901,-174.66672771,-177.71506369,26.76972291
50.64631473,37.26305834,-2.52443035,0.26223984,-1.73777108

>  <Name>
ligand

>  <RI>
0

>  <Rbt.Current_Directory>
/home/itssahil/PROJECTS/Mol_Feturizer/New_Systems/rnas/4P5J

>  <Rbt.Executable>
rbdock ($Id: //depot/dev/client3/rdock/2013.1/src/exe/rbdock.cxx#4 $)

>  <Rbt.Library>
libRbt.so (2013.1, Build901 2013/11/27)

>  <Rbt.Parameter_File>
/export/apps/rDock/src/rDock_2013.1_src/data/scripts/dock_solv.prm

>  <Rbt.Receptor>
prm/pocket_docking_6.prm

>  <SCORE>
-4.88233

>  <SCORE.INTER>
4.51419

>  <SCORE.INTER.CONST>
1

>  <SCORE.INTER.POLAR>
0

>  <SCORE.INTER.ROT>
11

>  <SCORE.INTER.SOLV>
5.54386

>  <SCORE.INTER.VDW>
-9.77183

>  <SCORE.INTER.norm>
0.322442

>  <SCORE.INTRA>
-9.39651

>  <SCORE.INTRA.DIHEDRAL>
-16.1729

>  <SCORE.INTRA.DIHEDRAL.0>
17.5233

>  <SCORE.INTRA.POLAR>
0

>  <SCORE.INTRA.POLAR.0>
0

>  <SCORE.INTRA.REPUL>
0

>  <SCORE.INTRA.REPUL.0>
0

>  <SCORE.INTRA.SOLV>
-2.01012

>  <SCORE.INTRA.SOLV.lig_0>
-46.1043

>  <SCORE.INTRA.VDW>
-0.305014

>  <SCORE.INTRA.VDW.0>
-0.545445

>  <SCORE.INTRA.norm>
-0.67118

>  <SCORE.RESTR>
0

>  <SCORE.RESTR.CAVITY>
0

>  <SCORE.RESTR.norm>
0

>  <SCORE.SYSTEM>
0

>  <SCORE.SYSTEM.CONST>
0

>  <SCORE.SYSTEM.DIHEDRAL>
0

>  <SCORE.SYSTEM.SOLV>
0

>  <SCORE.SYSTEM.norm>
0

>  <SCORE.heavy>
14

>  <SCORE.norm>
-0.348738

>  <RMSD>
5.134

$$$$
ligand
 OpenBabel11021811513D
libRbt.so/2013.1/901 2013/11/27
 14 13  0  0  0  0  0  0  0  0999 V2000
   24.9691   54.9248   35.4193 N   0  0  0  0  0  0  0  0  0  0  0  0
   23.9805   54.2129   34.6257 C   0  0  0  0  0  0  0  0  0  0  0  0
   22.7542   53.8889   35.4725 C   0  0  0  0  0  0  0  0  0  0  0  0
   23.0801   52.8470   36.5367 C   0  0  0  0  0  0  0  0  0  0  0  0
   23.4532   51.5543   35.9702 N   0  0  0  0  0  0  0  0  0  0  0  0
   24.8171   51.0643   36.0778 C   0  0  0  0  0  0  0  0  0  0  0  0
   25.1614   50.5763   37.4807 C   0  0  0  0  0  0  0  0  0  0  0  0
   26.6238   50.1495   37.5407 C   0  0  0  0  0  0  0  0  0  0  0  0
   26.9799   49.7241   38.9610 C   0  0  0  0  0  0  0  0  0  0  0  0
   28.3254   49.1832   39.0478 N   0  0  0  0  0  0  0  0  0  0  0  0
   28.7787   48.5885   40.2982 C   0  0  0  0  0  0  0  0  0  0  0  0
   29.7072   47.3871   40.1340 C   0  0  0  0  0  0  0  0  0  0  0  0
   31.0356   47.8130   39.5065 C   0  0  0  0  0  0  0  0  0  0  0  0
   31.9225   46.6688   39.3823 N   0  0  0  0  0  0  0  0  0  0  0  0
  1  2  1  0  0  0  0
  2  3  1  0  0  0  0
  3  4  1  0  0  0  0
  4  5  1  0  0  0  0
  5  6  1  0  0  0  0
  6  7  1  0  0  0  0
  7  8  1  0  0  0  0
  8  9  1  0  0  0  0
  9 10  1  0  0  0  0
 10 11  1  0  0  0  0
 11 12  1  0  0  0  0
 12 13  1  0  0  0  0
 13 14  1  0  0  0  0
M  END
>  <CHROM.1>
-68.72903692,-64.25162172,111.03580631,74.36772789,-176.91236217,177.37047352
174.34902443,-173.12550744,144.50206267,66.19484186,178.72913474,26.54180926
50.61307515,37.60387752,-2.32101239,0.01075159,2.52638834

>  <Name>
ligand

>  <RI>
0

>  <Rbt.Current_Directory>
/home/itssahil/PROJECTS/Mol_Feturizer/New_Systems/rnas/4P5J

>  <Rbt.Executable>
rbdock ($Id: //depot/dev/client3/rdock/2013.1/src/exe/rbdock.cxx#4 $)

>  <Rbt.Library>
libRbt.so (2013.1, Build901 2013/11/27)

>  <Rbt.Parameter_File>
/export/apps/rDock/src/rDock_2013.1_src/data/scripts/dock_solv.prm

>  <Rbt.Receptor>
prm/pocket_docking_7.prm

>  <SCORE>
-5.64389

>  <SCORE.INTER>
2.3008

>  <SCORE.INTER.CONST>
1

>  <SCORE.INTER.POLAR>
0

>  <SCORE.INTER.ROT>
11

>  <SCORE.INTER.SOLV>
8.70583

>  <SCORE.INTER.VDW>
-12.3014

>  <SCORE.INTER.norm>
0.164343

>  <SCORE.INTRA>
-7.94469

>  <SCORE.INTRA.DIHEDRAL>
-14.7311

>  <SCORE.INTRA.DIHEDRAL.0>
17.5233

>  <SCORE.INTRA.POLAR>
0

>  <SCORE.INTRA.POLAR.0>
0

>  <SCORE.INTRA.REPUL>
0

>  <SCORE.INTRA.REPUL.0>
0

>  <SCORE.INTRA.SOLV>
-0.204561

>  <SCORE.INTRA.SOLV.lig_0>
-46.1043

>  <SCORE.INTRA.VDW>
-0.476845

>  <SCORE.INTRA.VDW.0>
-0.545445

>  <SCORE.INTRA.norm>
-0.567478

>  <SCORE.RESTR>
0

>  <SCORE.RESTR.CAVITY>
0

>  <SCORE.RESTR.norm>
0

>  <SCORE.SYSTEM>
0

>  <SCORE.SYSTEM.CONST>
0

>  <SCORE.SYSTEM.DIHEDRAL>
0

>  <SCORE.SYSTEM.SOLV>
0

>  <SCORE.SYSTEM.norm>
0

>  <SCORE.heavy>
14

>  <SCORE.norm>
-0.403135

>  <RMSD>
5.172

$$$$
ligand
 OpenBabel11021811513D
libRbt.so/2013.1/901 2013/11/27
 14 13  0  0  0  0  0  0  0  0999 V2000
   30.7841   47.6718   40.2121 N   0  0  0  0  0  0  0  0  0  0  0  0
   29.3463   47.8865   40.1876 C   0  0  0  0  0  0  0  0  0  0  0  0
   29.0265   49.3612   40.4084 C   0  0  0  0  0  0  0  0  0  0  0  0
   27.5210   49.5963   40.4580 C   0  0  0  0  0  0  0  0  0  0  0  0
   26.8627   49.3320   39.1821 N   0  0  0  0  0  0  0  0  0  0  0  0
   26.9426   50.2925   38.0944 C   0  0  0  0  0  0  0  0  0  0  0  0
   25.8399   50.1055   37.0580 C   0  0  0  0  0  0  0  0  0  0  0  0
   24.4822   50.4150   37.6789 C   0  0  0  0  0  0  0  0  0  0  0  0
   24.2609   51.9233   37.7114 C   0  0  0  0  0  0  0  0  0  0  0  0
   23.0139   52.2781   38.3668 N   0  0  0  0  0  0  0  0  0  0  0  0
   23.0340   52.7117   39.7575 C   0  0  0  0  0  0  0  0  0  0  0  0
   21.7433   52.4437   40.5285 C   0  0  0  0  0  0  0  0  0  0  0  0
   21.4605   50.9423   40.6030 C   0  0  0  0  0  0  0  0  0  0  0  0
   22.4492   50.2855   41.4410 N   0  0  0  0  0  0  0  0  0  0  0  0
  1  2  1  0  0  0  0
  2  3  1  0  0  0  0
  3  4  1  0  0  0  0
  4  5  1  0  0  0  0
  5  6  1  0  0  0  0
  6  7  1  0  0  0  0
  7  8  1  0  0  0  0
  8  9  1  0  0  0  0
  9 10  1  0  0  0  0
 10 11  1  0  0  0  0
 11 12  1  0  0  0  0
 12 13  1  0  0  0  0
 13 14  1  0  0  0  0
M  END
>  <CHROM.1>
-177.07204787,-66.14934369,-77.24660086,-159.88855662,65.98812910,80.44931837
-176.59038784,99.12284572,-153.00195438,62.24655396,68.14533052,25.48324882
50.37486384,39.40609951,0.15173487,-0.42219632,1.87299905

>  <Name>
ligand

>  <RI>
0

>  <Rbt.Current_Directory>
/home/itssahil/PROJECTS/Mol_Feturizer/New_Systems/rnas/4P5J

>  <Rbt.Executable>
rbdock ($Id: //depot/dev/client3/rdock/2013.1/src/exe/rbdock.cxx#4 $)

>  <Rbt.Library>
libRbt.so (2013.1, Build901 2013/11/27)

>  <Rbt.Parameter_File>
/export/apps/rDock/src/rDock_2013.1_src/data/scripts/dock_solv.prm

>  <Rbt.Receptor>
prm/pocket_docking_5.prm

>  <SCORE>
-2.01027

>  <SCORE.INTER>
4.71052

>  <SCORE.INTER.CONST>
1

>  <SCORE.INTER.POLAR>
0

>  <SCORE.INTER.ROT>
11

>  <SCORE.INTER.SOLV>
6.84695

>  <SCORE.INTER.VDW>
-10.0753

>  <SCORE.INTER.norm>
0.336466

>  <SCORE.INTRA>
-6.7208

>  <SCORE.INTRA.DIHEDRAL>
-13.3982

>  <SCORE.INTRA.DIHEDRAL.0>
17.5233

>  <SCORE.INTRA.POLAR>
0

>  <SCORE.INTRA.POLAR.0>
0

>  <SCORE.INTRA.REPUL>
0

>  <SCORE.INTRA.REPUL.0>
0

>  <SCORE.INTRA.SOLV>
0.394037

>  <SCORE.INTRA.SOLV.lig_0>
-46.1043

>  <SCORE.INTRA.VDW>
-0.218719

>  <SCORE.INTRA.VDW.0>
-0.545445

>  <SCORE.INTRA.norm>
-0.480057

>  <SCORE.RESTR>
0

>  <SCORE.RESTR.CAVITY>
0

>  <SCORE.RESTR.norm>
0

>  <SCORE.SYSTEM>
0

>  <SCORE.SYSTEM.CONST>
0

>  <SCORE.SYSTEM.DIHEDRAL>
0

>  <SCORE.SYSTEM.SOLV>
0

>  <SCORE.SYSTEM.norm>
0

>  <SCORE.heavy>
14

>  <SCORE.norm>
-0.143591

>  <RMSD>
5.210

$$$$
ligand
 OpenBabel11021811513D
libRbt.so/2013.1/901 2013/11/27
 14 13  0  0  0  0  0  0  0  0999 V2000
   31.0789   48.6891   39.4767 N   0  0  0  0  0  0  0  0  0  0  0  0
   29.9195   47.8206   39.6007 C   0  0  0  0  0  0  0  0  0  0  0  0
   28.9058   48.4241   40.5672 C   0  0  0  0  0  0  0  0  0  0  0  0
   28.2883   49.6947   39.9941 C   0  0  0  0  0  0  0  0  0  0  0  0
   27.4141   49.4369   38.8537 N   0  0  0  0  0  0  0  0  0  0  0  0
   26.9774   50.5244   37.9944 C   0  0  0  0  0  0  0  0  0  0  0  0
   25.7346   50.1748   37.1832 C   0  0  0  0  0  0  0  0  0  0  0  0
   24.5378   49.9993   38.1113 C   0  0  0  0  0  0  0  0  0  0  0  0
   24.0462   51.3632   38.5836 C   0  0  0  0  0  0  0  0  0  0  0  0
   22.9060   51.2532   39.4772 N   0  0  0  0  0  0  0  0  0  0  0  0
   22.3602   52.4555   40.0929 C   0  0  0  0  0  0  0  0  0  0  0  0
   21.5043   52.2056   41.3327 C   0  0  0  0  0  0  0  0  0  0  0  0
   21.0464   53.5288   41.9485 C   0  0  0  0  0  0  0  0  0  0  0  0
   20.2900   53.2823   43.1644 N   0  0  0  0  0  0  0  0  0  0  0  0
  1  2  1  0  0  0  0
  2  3  1  0  0  0  0
  3  4  1  0  0  0  0
  4  5  1  0  0  0  0
  5  6  1  0  0  0  0
  6  7  1  0  0  0  0
  7  8  1  0  0  0  0
  8  9  1  0  0  0  0
  9 10  1  0  0  0  0
 10 11  1  0  0  0  0
 11 12  1  0  0  0  0
 12 13  1  0  0  0  0
 13 14  1  0  0  0  0
M  END
>  <CHROM.1>
67.65937871,69.04296985,-166.11724394,-160.27461221,66.66547213,75.38750327
-179.80739648,176.08105858,-160.58434848,176.77604055,-177.13912533,25.35780607
50.63231822,39.74125265,-0.27951188,-0.43622342,1.45486947

>  <Name>
ligand

>  <RI>
0

>  <Rbt.Current_Directory>
/home/itssahil/PROJECTS/Mol_Feturizer/New_Systems/rnas/4P5J

>  <Rbt.Executable>
rbdock ($Id: //depot/dev/client3/rdock/2013.1/src/exe/rbdock.cxx#4 $)

>  <Rbt.Library>
libRbt.so (2013.1, Build901 2013/11/27)

>  <Rbt.Parameter_File>
/export/apps/rDock/src/rDock_2013.1_src/data/scripts/dock_solv.prm

>  <Rbt.Receptor>
prm/pocket_docking_7.prm

>  <SCORE>
-2.93153

>  <SCORE.INTER>
5.02231

>  <SCORE.INTER.CONST>
1

>  <SCORE.INTER.POLAR>
0

>  <SCORE.INTER.ROT>
11

>  <SCORE.INTER.SOLV>
6.78741

>  <SCORE.INTER.VDW>
-9.8476

>  <SCORE.INTER.norm>
0.358736

>  <SCORE.INTRA>
-7.95384

>  <SCORE.INTRA.DIHEDRAL>
-15.0823

>  <SCORE.INTRA.DIHEDRAL.0>
17.5233

>  <SCORE.INTRA.POLAR>
0

>  <SCORE.INTRA.POLAR.0>
0

>  <SCORE.INTRA.REPUL>
0

>  <SCORE.INTRA.REPUL.0>
0

>  <SCORE.INTRA.SOLV>
-0.504609

>  <SCORE.INTRA.SOLV.lig_0>
-46.1043

>  <SCORE.INTRA.VDW>
-0.16037

>  <SCORE.INTRA.VDW.0>
-0.545445

>  <SCORE.INTRA.norm>
-0.568131

>  <SCORE.RESTR>
0

>  <SCORE.RESTR.CAVITY>
0

>  <SCORE.RESTR.norm>
0

>  <SCORE.SYSTEM>
0

>  <SCORE.SYSTEM.CONST>
0

>  <SCORE.SYSTEM.DIHEDRAL>
0

>  <SCORE.SYSTEM.SOLV>
0

>  <SCORE.SYSTEM.norm>
0

>  <SCORE.heavy>
14

>  <SCORE.norm>
-0.209395

>  <RMSD>
5.245

$$$$
ligand
 OpenBabel11021811513D
libRbt.so/2013.1/901 2013/11/27
 14 13  0  0  0  0  0  0  0  0999 V2000
   22.6279   49.3489   41.1381 N   0  0  0  0  0  0  0  0  0  0  0  0
   23.1801   50.5611   40.5552 C   0  0  0  0  0  0  0  0  0  0  0  0
   22.1259   51.2728   39.7139 C   0  0  0  0  0  0  0  0  0  0  0  0
   22.6812   52.5560   39.1063 C   0  0  0  0  0  0  0  0  0  0  0  0
   23.7591   52.3124   38.1523 N   0  0  0  0  0  0  0  0  0  0  0  0
   23.4885   51.6706   36.8769 C   0  0  0  0  0  0  0  0  0  0  0  0
   24.7433   51.1034   36.2221 C   0  0  0  0  0  0  0  0  0  0  0  0
   25.3406   50.0089   37.0994 C   0  0  0  0  0  0  0  0  0  0  0  0
   26.1118   50.6368   38.2553 C   0  0  0  0  0  0  0  0  0  0  0  0
   26.7648   49.6372   39.0829 N   0  0  0  0  0  0  0  0  0  0  0  0
   28.1885   49.3821   38.9082 C   0  0  0  0  0  0  0  0  0  0  0  0
   28.8165   48.5026   39.9874 C   0  0  0  0  0  0  0  0  0  0  0  0
   30.2642   48.1610   39.6307 C   0  0  0  0  0  0  0  0  0  0  0  0
   31.0865   49.3585   39.6654 N   0  0  0  0  0  0  0  0  0  0  0  0
  1  2  1  0  0  0  0
  2  3  1  0  0  0  0
  3  4  1  0  0  0  0
  4  5  1  0  0  0  0
  5  6  1  0  0  0  0
  6  7  1  0  0  0  0
  7  8  1  0  0  0  0
  8  9  1  0  0  0  0
  9 10  1  0  0  0  0
 10 11  1  0  0  0  0
 11 12  1  0  0  0  0
 12 13  1  0  0  0  0
 13 14  1  0  0  0  0
M  END
>  <CHROM.1>
179.35010480,64.62759482,68.69034880,-161.62859811,62.95769584,-78.35520683
-176.82523666,100.46487711,169.59892061,173.43125431,66.70749605,25.65546614
50.32237568,38.88502994,2.91858397,0.29804266,-1.15156722

>  <Name>
ligand

>  <RI>
0

>  <Rbt.Current_Directory>
/home/itssahil/PROJECTS/Mol_Feturizer/New_Systems/rnas/4P5J

>  <Rbt.Executable>
rbdock ($Id: //depot/dev/client3/rdock/2013.1/src/exe/rbdock.cxx#4 $)

>  <Rbt.Library>
libRbt.so (2013.1, Build901 2013/11/27)

>  <Rbt.Parameter_File>
/export/apps/rDock/src/rDock_2013.1_src/data/scripts/dock_solv.prm

>  <Rbt.Receptor>
prm/pocket_docking_6.prm

>  <SCORE>
-3.81884

>  <SCORE.INTER>
3.54422

>  <SCORE.INTER.CONST>
1

>  <SCORE.INTER.POLAR>
0

>  <SCORE.INTER.ROT>
11

>  <SCORE.INTER.SOLV>
6.34926

>  <SCORE.INTER.VDW>
-10.6869

>  <SCORE.INTER.norm>
0.253158

>  <SCORE.INTRA>
-7.36306

>  <SCORE.INTRA.DIHEDRAL>
-14.4149

>  <SCORE.INTRA.DIHEDRAL.0>
17.5233

>  <SCORE.INTRA.POLAR>
0

>  <SCORE.INTRA.POLAR.0>
0

>  <SCORE.INTRA.REPUL>
0

>  <SCORE.INTRA.REPUL.0>
0

>  <SCORE.INTRA.SOLV>
-0.223146

>  <SCORE.INTRA.SOLV.lig_0>
-46.1043

>  <SCORE.INTRA.VDW>
-0.0440348

>  <SCORE.INTRA.VDW.0>
-0.545445

>  <SCORE.INTRA.norm>
-0.525933

>  <SCORE.RESTR>
0

>  <SCORE.RESTR.CAVITY>
0

>  <SCORE.RESTR.norm>
0

>  <SCORE.SYSTEM>
0

>  <SCORE.SYSTEM.CONST>
0

>  <SCORE.SYSTEM.DIHEDRAL>
0

>  <SCORE.SYSTEM.SOLV>
0

>  <SCORE.SYSTEM.norm>
0

>  <SCORE.heavy>
14

>  <SCORE.norm>
-0.272774

>  <RMSD>
5.257

$$$$
ligand
 OpenBabel11021811513D
libRbt.so/2013.1/901 2013/11/27
 14 13  0  0  0  0  0  0  0  0999 V2000
   23.8127   47.9793   42.5789 N   0  0  0  0  0  0  0  0  0  0  0  0
   23.6132   47.4490   41.2399 C   0  0  0  0  0  0  0  0  0  0  0  0
   23.4552   48.5869   40.2369 C   0  0  0  0  0  0  0  0  0  0  0  0
   24.7545   49.3697   40.0839 C   0  0  0  0  0  0  0  0  0  0  0  0
   24.6410   50.4799   39.1427 N   0  0  0  0  0  0  0  0  0  0  0  0
   24.6977   50.2450   37.7098 C   0  0  0  0  0  0  0  0  0  0  0  0
   25.9853   50.7603   37.0763 C   0  0  0  0  0  0  0  0  0  0  0  0
   27.1810   49.9872   37.6215 C   0  0  0  0  0  0  0  0  0  0  0  0
   28.4541   50.4390   36.9143 C   0  0  0  0  0  0  0  0  0  0  0  0
   29.5714   49.5492   37.1799 N   0  0  0  0  0  0  0  0  0  0  0  0
   30.6487   49.4418   36.2050 C   0  0  0  0  0  0  0  0  0  0  0  0
   30.2244   48.8989   34.8421 C   0  0  0  0  0  0  0  0  0  0  0  0
   31.4328   48.7662   33.9137 C   0  0  0  0  0  0  0  0  0  0  0  0
   31.9781   50.0778   33.6078 N   0  0  0  0  0  0  0  0  0  0  0  0
  1  2  1  0  0  0  0
  2  3  1  0  0  0  0
  3  4  1  0  0  0  0
  4  5  1  0  0  0  0
  5  6  1  0  0  0  0
  6  7  1  0  0  0  0
  7  8  1  0  0  0  0
  8  9  1  0  0  0  0
  9 10  1  0  0  0  0
 10 11  1  0  0  0  0
 11 12  1  0  0  0  0
 12 13  1  0  0  0  0
 13 14  1  0  0  0  0
M  END
>  <CHROM.1>
67.31038810,-179.31234503,-79.15558937,-109.25552339,64.49728964,176.07421620
-167.66110294,153.32810100,-62.56200120,-177.48177770,-65.83215164,27.17487712
49.43070138,37.73930947,-2.58383584,0.45843267,-0.82363525

>  <Name>
ligand

>  <RI>
0

>  <Rbt.Current_Directory>
/home/itssahil/PROJECTS/Mol_Feturizer/New_Systems/rnas/4P5J

>  <Rbt.Executable>
rbdock ($Id: //depot/dev/client3/rdock/2013.1/src/exe/rbdock.cxx#4 $)

>  <Rbt.Library>
libRbt.so (2013.1, Build901 2013/11/27)

>  <Rbt.Parameter_File>
/export/apps/rDock/src/rDock_2013.1_src/data/scripts/dock_solv.prm

>  <Rbt.Receptor>
prm/pocket_docking_6.prm

>  <SCORE>
-4.21854

>  <SCORE.INTER>
3.34211

>  <SCORE.INTER.CONST>
1

>  <SCORE.INTER.POLAR>
0

>  <SCORE.INTER.ROT>
11

>  <SCORE.INTER.SOLV>
6.23284

>  <SCORE.INTER.VDW>
-10.7829

>  <SCORE.INTER.norm>
0.238722

>  <SCORE.INTRA>
-7.56066

>  <SCORE.INTRA.DIHEDRAL>
-14.5871

>  <SCORE.INTRA.DIHEDRAL.0>
17.5233

>  <SCORE.INTRA.POLAR>
0

>  <SCORE.INTRA.POLAR.0>
0

>  <SCORE.INTRA.REPUL>
0

>  <SCORE.INTRA.REPUL.0>
0

>  <SCORE.INTRA.SOLV>
-0.825349

>  <SCORE.INTRA.SOLV.lig_0>
-46.1043

>  <SCORE.INTRA.VDW>
0.145548

>  <SCORE.INTRA.VDW.0>
-0.545445

>  <SCORE.INTRA.norm>
-0.540047

>  <SCORE.RESTR>
0

>  <SCORE.RESTR.CAVITY>
0

>  <SCORE.RESTR.norm>
0

>  <SCORE.SYSTEM>
0

>  <SCORE.SYSTEM.CONST>
0

>  <SCORE.SYSTEM.DIHEDRAL>
0

>  <SCORE.SYSTEM.SOLV>
0

>  <SCORE.SYSTEM.norm>
0

>  <SCORE.heavy>
14

>  <SCORE.norm>
-0.301324

>  <RMSD>
5.258

$$$$
ligand
 OpenBabel11021811513D
libRbt.so/2013.1/901 2013/11/27
 14 13  0  0  0  0  0  0  0  0999 V2000
   21.3486   48.9833   44.0797 N   0  0  0  0  0  0  0  0  0  0  0  0
   22.1153   48.5983   42.9058 C   0  0  0  0  0  0  0  0  0  0  0  0
   21.4000   49.0453   41.6352 C   0  0  0  0  0  0  0  0  0  0  0  0
   22.1964   48.6639   40.3924 C   0  0  0  0  0  0  0  0  0  0  0  0
   23.4798   49.3542   40.3064 N   0  0  0  0  0  0  0  0  0  0  0  0
   24.1138   49.5818   39.0187 C   0  0  0  0  0  0  0  0  0  0  0  0
   25.5898   49.9439   39.1417 C   0  0  0  0  0  0  0  0  0  0  0  0
   26.1649   50.2643   37.7666 C   0  0  0  0  0  0  0  0  0  0  0  0
   27.6464   50.6023   37.8923 C   0  0  0  0  0  0  0  0  0  0  0  0
   28.4480   49.4335   38.2114 N   0  0  0  0  0  0  0  0  0  0  0  0
   28.6432   49.0579   39.6055 C   0  0  0  0  0  0  0  0  0  0  0  0
   29.6222   47.9066   39.8254 C   0  0  0  0  0  0  0  0  0  0  0  0
   29.6721   47.5150   41.3033 C   0  0  0  0  0  0  0  0  0  0  0  0
   30.6690   46.4795   41.5155 N   0  0  0  0  0  0  0  0  0  0  0  0
  1  2  1  0  0  0  0
  2  3  1  0  0  0  0
  3  4  1  0  0  0  0
  4  5  1  0  0  0  0
  5  6  1  0  0  0  0
  6  7  1  0  0  0  0
  7  8  1  0  0  0  0
  8  9  1  0  0  0  0
  9 10  1  0  0  0  0
 10 11  1  0  0  0  0
 11 12  1  0  0  0  0
 12 13  1  0  0  0  0
 13 14  1  0  0  0  0
M  END
>  <CHROM.1>
179.37858255,-64.85949821,-154.06793613,-163.64084791,-176.01193336,-179.03609700
70.82831022,-87.67220222,-173.73476047,-175.43242060,-176.29318994,25.79344224
48.95943419,40.25682322,-2.93052167,0.21986117,-1.05823824

>  <Name>
ligand

>  <RI>
0

>  <Rbt.Current_Directory>
/home/itssahil/PROJECTS/Mol_Feturizer/New_Systems/rnas/4P5J

>  <Rbt.Executable>
rbdock ($Id: //depot/dev/client3/rdock/2013.1/src/exe/rbdock.cxx#4 $)

>  <Rbt.Library>
libRbt.so (2013.1, Build901 2013/11/27)

>  <Rbt.Parameter_File>
/export/apps/rDock/src/rDock_2013.1_src/data/scripts/dock_solv.prm

>  <Rbt.Receptor>
prm/pocket_docking_7.prm

>  <SCORE>
-4.57339

>  <SCORE.INTER>
4.57352

>  <SCORE.INTER.CONST>
1

>  <SCORE.INTER.POLAR>
0

>  <SCORE.INTER.ROT>
11

>  <SCORE.INTER.SOLV>
6.37719

>  <SCORE.INTER.VDW>
-10.01

>  <SCORE.INTER.norm>
0.32668

>  <SCORE.INTRA>
-9.14691

>  <SCORE.INTRA.DIHEDRAL>
-15.5677

>  <SCORE.INTRA.DIHEDRAL.0>
17.5233

>  <SCORE.INTRA.POLAR>
0

>  <SCORE.INTRA.POLAR.0>
0

>  <SCORE.INTRA.REPUL>
0

>  <SCORE.INTRA.REPUL.0>
0

>  <SCORE.INTRA.SOLV>
-1.98977

>  <SCORE.INTRA.SOLV.lig_0>
-46.1043

>  <SCORE.INTRA.VDW>
-0.368183

>  <SCORE.INTRA.VDW.0>
-0.545445

>  <SCORE.INTRA.norm>
-0.653351

>  <SCORE.RESTR>
0

>  <SCORE.RESTR.CAVITY>
0

>  <SCORE.RESTR.norm>
0

>  <SCORE.SYSTEM>
0

>  <SCORE.SYSTEM.CONST>
0

>  <SCORE.SYSTEM.DIHEDRAL>
0

>  <SCORE.SYSTEM.SOLV>
0

>  <SCORE.SYSTEM.norm>
0

>  <SCORE.heavy>
14

>  <SCORE.norm>
-0.326671

>  <RMSD>
5.316

$$$$
ligand
 OpenBabel11021811513D
libRbt.so/2013.1/901 2013/11/27
 14 13  0  0  0  0  0  0  0  0999 V2000
   30.8534   49.7200   40.7399 N   0  0  0  0  0  0  0  0  0  0  0  0
   30.5029   50.1811   39.4062 C   0  0  0  0  0  0  0  0  0  0  0  0
   29.9684   49.0242   38.5686 C   0  0  0  0  0  0  0  0  0  0  0  0
   29.6238   49.4813   37.1556 C   0  0  0  0  0  0  0  0  0  0  0  0
   28.5507   50.4706   37.1247 N   0  0  0  0  0  0  0  0  0  0  0  0
   27.1937   50.1034   37.4927 C   0  0  0  0  0  0  0  0  0  0  0  0
   26.1767   51.1908   37.1640 C   0  0  0  0  0  0  0  0  0  0  0  0
   24.7917   50.7728   37.6451 C   0  0  0  0  0  0  0  0  0  0  0  0
   23.8053   51.9167   37.4363 C   0  0  0  0  0  0  0  0  0  0  0  0
   22.5122   51.6392   38.0374 N   0  0  0  0  0  0  0  0  0  0  0  0
   22.3698   51.6929   39.4863 C   0  0  0  0  0  0  0  0  0  0  0  0
   21.4387   50.6357   40.0759 C   0  0  0  0  0  0  0  0  0  0  0  0
   21.3674   50.7673   41.5982 C   0  0  0  0  0  0  0  0  0  0  0  0
   22.6633   50.4792   42.1888 N   0  0  0  0  0  0  0  0  0  0  0  0
  1  2  1  0  0  0  0
  2  3  1  0  0  0  0
  3  4  1  0  0  0  0
  4  5  1  0  0  0  0
  5  6  1  0  0  0  0
  6  7  1  0  0  0  0
  7  8  1  0  0  0  0
  8  9  1  0  0  0  0
  9 10  1  0  0  0  0
 10 11  1  0  0  0  0
 11 12  1  0  0  0  0
 12 13  1  0  0  0  0
 13 14  1  0  0  0  0
M  END
>  <CHROM.1>
-178.74887199,-63.36171986,-67.94116219,-169.79209096,-176.87428693,174.56714678
-172.39657464,73.43964360,-142.68562932,179.45557520,-64.94280693,25.84403009
50.57681303,38.86541942,-0.14941793,-0.20155847,1.76847186

>  <Name>
ligand

>  <RI>
0

>  <Rbt.Current_Directory>
/home/itssahil/PROJECTS/Mol_Feturizer/New_Systems/rnas/4P5J

>  <Rbt.Executable>
rbdock ($Id: //depot/dev/client3/rdock/2013.1/src/exe/rbdock.cxx#4 $)

>  <Rbt.Library>
libRbt.so (2013.1, Build901 2013/11/27)

>  <Rbt.Parameter_File>
/export/apps/rDock/src/rDock_2013.1_src/data/scripts/dock_solv.prm

>  <Rbt.Receptor>
prm/pocket_docking_7.prm

>  <SCORE>
-2.88621

>  <SCORE.INTER>
5.86337

>  <SCORE.INTER.CONST>
1

>  <SCORE.INTER.POLAR>
0

>  <SCORE.INTER.ROT>
11

>  <SCORE.INTER.SOLV>
6.5136

>  <SCORE.INTER.VDW>
-9.19562

>  <SCORE.INTER.norm>
0.418812

>  <SCORE.INTRA>
-8.74958

>  <SCORE.INTRA.DIHEDRAL>
-15.9044

>  <SCORE.INTRA.DIHEDRAL.0>
17.5233

>  <SCORE.INTRA.POLAR>
0

>  <SCORE.INTRA.POLAR.0>
0

>  <SCORE.INTRA.REPUL>
0

>  <SCORE.INTRA.REPUL.0>
0

>  <SCORE.INTRA.SOLV>
-1.57052

>  <SCORE.INTRA.SOLV.lig_0>
-46.1043

>  <SCORE.INTRA.VDW>
-0.012104

>  <SCORE.INTRA.VDW.0>
-0.545445

>  <SCORE.INTRA.norm>
-0.62497

>  <SCORE.RESTR>
0

>  <SCORE.RESTR.CAVITY>
0

>  <SCORE.RESTR.norm>
0

>  <SCORE.SYSTEM>
0

>  <SCORE.SYSTEM.CONST>
0

>  <SCORE.SYSTEM.DIHEDRAL>
0

>  <SCORE.SYSTEM.SOLV>
0

>  <SCORE.SYSTEM.norm>
0

>  <SCORE.heavy>
14

>  <SCORE.norm>
-0.206158

>  <RMSD>
5.316

$$$$
ligand
 OpenBabel11021811513D
libRbt.so/2013.1/901 2013/11/27
 14 13  0  0  0  0  0  0  0  0999 V2000
   22.2859   49.2218   41.5830 N   0  0  0  0  0  0  0  0  0  0  0  0
   22.8354   50.4382   41.0065 C   0  0  0  0  0  0  0  0  0  0  0  0
   21.9931   50.8892   39.8178 C   0  0  0  0  0  0  0  0  0  0  0  0
   22.5903   52.1274   39.1586 C   0  0  0  0  0  0  0  0  0  0  0  0
   23.9186   51.8893   38.6016 N   0  0  0  0  0  0  0  0  0  0  0  0
   24.0767   51.2037   37.3300 C   0  0  0  0  0  0  0  0  0  0  0  0
   25.2331   50.2100   37.3335 C   0  0  0  0  0  0  0  0  0  0  0  0
   26.5532   50.9461   37.5332 C   0  0  0  0  0  0  0  0  0  0  0  0
   27.7045   49.9464   37.5505 C   0  0  0  0  0  0  0  0  0  0  0  0
   28.9954   50.6023   37.6676 N   0  0  0  0  0  0  0  0  0  0  0  0
   30.2078   49.7953   37.7057 C   0  0  0  0  0  0  0  0  0  0  0  0
   30.5733   49.1293   36.3809 C   0  0  0  0  0  0  0  0  0  0  0  0
   30.8580   50.1817   35.3079 C   0  0  0  0  0  0  0  0  0  0  0  0
   31.2348   49.5387   34.0606 N   0  0  0  0  0  0  0  0  0  0  0  0
  1  2  1  0  0  0  0
  2  3  1  0  0  0  0
  3  4  1  0  0  0  0
  4  5  1  0  0  0  0
  5  6  1  0  0  0  0
  6  7  1  0  0  0  0
  7  8  1  0  0  0  0
  8  9  1  0  0  0  0
  9 10  1  0  0  0  0
 10 11  1  0  0  0  0
 11 12  1  0  0  0  0
 12 13  1  0  0  0  0
 13 14  1  0  0  0  0
M  END
>  <CHROM.1>
-177.34076086,62.72237659,78.32184934,-138.91861866,-63.90088306,179.41039334
176.96003566,179.71068565,70.85114598,62.51771199,178.68056588,26.36132258
50.43714457,37.93121885,-2.78305485,0.34697467,-1.07650592

>  <Name>
ligand

>  <RI>
0

>  <Rbt.Current_Directory>
/home/itssahil/PROJECTS/Mol_Feturizer/New_Systems/rnas/4P5J

>  <Rbt.Executable>
rbdock ($Id: //depot/dev/client3/rdock/2013.1/src/exe/rbdock.cxx#4 $)

>  <Rbt.Library>
libRbt.so (2013.1, Build901 2013/11/27)

>  <Rbt.Parameter_File>
/export/apps/rDock/src/rDock_2013.1_src/data/scripts/dock_solv.prm

>  <Rbt.Receptor>
prm/pocket_docking_6.prm

>  <SCORE>
-3.88353

>  <SCORE.INTER>
5.233

>  <SCORE.INTER.CONST>
1

>  <SCORE.INTER.POLAR>
0

>  <SCORE.INTER.ROT>
11

>  <SCORE.INTER.SOLV>
4.07363

>  <SCORE.INTER.VDW>
-8.80254

>  <SCORE.INTER.norm>
0.373786

>  <SCORE.INTRA>
-9.11653

>  <SCORE.INTRA.DIHEDRAL>
-16.0655

>  <SCORE.INTRA.DIHEDRAL.0>
17.5233

>  <SCORE.INTRA.POLAR>
0

>  <SCORE.INTRA.POLAR.0>
0

>  <SCORE.INTRA.REPUL>
0

>  <SCORE.INTRA.REPUL.0>
0

>  <SCORE.INTRA.SOLV>
-1.58969

>  <SCORE.INTRA.SOLV.lig_0>
-46.1043

>  <SCORE.INTRA.VDW>
-0.288932

>  <SCORE.INTRA.VDW.0>
-0.545445

>  <SCORE.INTRA.norm>
-0.651181

>  <SCORE.RESTR>
0

>  <SCORE.RESTR.CAVITY>
0

>  <SCORE.RESTR.norm>
0

>  <SCORE.SYSTEM>
0

>  <SCORE.SYSTEM.CONST>
0

>  <SCORE.SYSTEM.DIHEDRAL>
0

>  <SCORE.SYSTEM.SOLV>
0

>  <SCORE.SYSTEM.norm>
0

>  <SCORE.heavy>
14

>  <SCORE.norm>
-0.277395

>  <RMSD>
5.334

$$$$
ligand
 OpenBabel11021811513D
libRbt.so/2013.1/901 2013/11/27
 14 13  0  0  0  0  0  0  0  0999 V2000
   20.8856   54.4050   43.0703 N   0  0  0  0  0  0  0  0  0  0  0  0
   21.3356   53.2440   42.3197 C   0  0  0  0  0  0  0  0  0  0  0  0
   21.7037   53.6439   40.8947 C   0  0  0  0  0  0  0  0  0  0  0  0
   22.2125   52.4458   40.1011 C   0  0  0  0  0  0  0  0  0  0  0  0
   22.5958   52.7906   38.7353 N   0  0  0  0  0  0  0  0  0  0  0  0
   23.1558   51.7861   37.8470 C   0  0  0  0  0  0  0  0  0  0  0  0
   24.6563   51.5962   38.0399 C   0  0  0  0  0  0  0  0  0  0  0  0
   25.1698   50.5100   37.1013 C   0  0  0  0  0  0  0  0  0  0  0  0
   26.6758   50.3466   37.2755 C   0  0  0  0  0  0  0  0  0  0  0  0
   27.0213   49.8378   38.5916 N   0  0  0  0  0  0  0  0  0  0  0  0
   28.4063   49.4946   38.8857 C   0  0  0  0  0  0  0  0  0  0  0  0
   28.5948   48.5826   40.0961 C   0  0  0  0  0  0  0  0  0  0  0  0
   30.0602   48.1673   40.2364 C   0  0  0  0  0  0  0  0  0  0  0  0
   30.2164   47.2416   41.3455 N   0  0  0  0  0  0  0  0  0  0  0  0
  1  2  1  0  0  0  0
  2  3  1  0  0  0  0
  3  4  1  0  0  0  0
  4  5  1  0  0  0  0
  5  6  1  0  0  0  0
  6  7  1  0  0  0  0
  7  8  1  0  0  0  0
  8  9  1  0  0  0  0
  9 10  1  0  0  0  0
 10 11  1  0  0  0  0
 11 12  1  0  0  0  0
 12 13  1  0  0  0  0
 13 14  1  0  0  0  0
M  END
>  <CHROM.1>
178.54191795,-179.11056522,177.46727898,-83.68857396,178.74622814,178.70465203
65.94109113,173.92060296,-161.68845033,174.26218178,-176.85187136,25.19213472
51.00656227,39.60967462,-2.98119849,0.57768017,-1.60328898

>  <Name>
ligand

>  <RI>
0

>  <Rbt.Current_Directory>
/home/itssahil/PROJECTS/Mol_Feturizer/New_Systems/rnas/4P5J

>  <Rbt.Executable>
rbdock ($Id: //depot/dev/client3/rdock/2013.1/src/exe/rbdock.cxx#4 $)

>  <Rbt.Library>
libRbt.so (2013.1, Build901 2013/11/27)

>  <Rbt.Parameter_File>
/export/apps/rDock/src/rDock_2013.1_src/data/scripts/dock_solv.prm

>  <Rbt.Receptor>
prm/pocket_docking_6.prm

>  <SCORE>
-4.92828

>  <SCORE.INTER>
5.04998

>  <SCORE.INTER.CONST>
1

>  <SCORE.INTER.POLAR>
0

>  <SCORE.INTER.ROT>
11

>  <SCORE.INTER.SOLV>
7.08781

>  <SCORE.INTER.VDW>
-9.92928

>  <SCORE.INTER.norm>
0.360713

>  <SCORE.INTRA>
-9.97827

>  <SCORE.INTRA.DIHEDRAL>
-16.5098

>  <SCORE.INTRA.DIHEDRAL.0>
17.5233

>  <SCORE.INTRA.POLAR>
0

>  <SCORE.INTRA.POLAR.0>
0

>  <SCORE.INTRA.REPUL>
0

>  <SCORE.INTRA.REPUL.0>
0

>  <SCORE.INTRA.SOLV>
-2.33465

>  <SCORE.INTRA.SOLV.lig_0>
-46.1043

>  <SCORE.INTRA.VDW>
-0.556066

>  <SCORE.INTRA.VDW.0>
-0.545445

>  <SCORE.INTRA.norm>
-0.712733

>  <SCORE.RESTR>
0

>  <SCORE.RESTR.CAVITY>
0

>  <SCORE.RESTR.norm>
0

>  <SCORE.SYSTEM>
0

>  <SCORE.SYSTEM.CONST>
0

>  <SCORE.SYSTEM.DIHEDRAL>
0

>  <SCORE.SYSTEM.SOLV>
0

>  <SCORE.SYSTEM.norm>
0

>  <SCORE.heavy>
14

>  <SCORE.norm>
-0.35202

>  <RMSD>
5.401

$$$$
ligand
 OpenBabel11021811513D
libRbt.so/2013.1/901 2013/11/27
 14 13  0  0  0  0  0  0  0  0999 V2000
   24.4601   47.9684   42.1034 N   0  0  0  0  0  0  0  0  0  0  0  0
   23.1903   48.4233   41.5607 C   0  0  0  0  0  0  0  0  0  0  0  0
   23.2556   48.4845   40.0383 C   0  0  0  0  0  0  0  0  0  0  0  0
   24.2674   49.5255   39.5725 C   0  0  0  0  0  0  0  0  0  0  0  0
   24.3565   49.6198   38.1184 N   0  0  0  0  0  0  0  0  0  0  0  0
   25.3482   50.4771   37.4911 C   0  0  0  0  0  0  0  0  0  0  0  0
   26.7723   49.9617   37.6675 C   0  0  0  0  0  0  0  0  0  0  0  0
   27.7690   50.9987   37.1618 C   0  0  0  0  0  0  0  0  0  0  0  0
   29.1913   50.4810   37.3466 C   0  0  0  0  0  0  0  0  0  0  0  0
   29.5500   49.4985   36.3384 N   0  0  0  0  0  0  0  0  0  0  0  0
   30.4782   49.8672   35.2777 C   0  0  0  0  0  0  0  0  0  0  0  0
   30.5179   48.8974   34.0985 C   0  0  0  0  0  0  0  0  0  0  0  0
   31.5519   49.3465   33.0646 C   0  0  0  0  0  0  0  0  0  0  0  0
   31.6224   48.3877   31.9751 N   0  0  0  0  0  0  0  0  0  0  0  0
  1  2  1  0  0  0  0
  2  3  1  0  0  0  0
  3  4  1  0  0  0  0
  4  5  1  0  0  0  0
  5  6  1  0  0  0  0
  6  7  1  0  0  0  0
  7  8  1  0  0  0  0
  8  9  1  0  0  0  0
  9 10  1  0  0  0  0
 10 11  1  0  0  0  0
 11 12  1  0  0  0  0
 12 13  1  0  0  0  0
 13 14  1  0  0  0  0
M  END
>  <CHROM.1>
-64.42828597,-179.75114653,-174.77568001,69.48758519,-172.07403957,179.73593362
77.03268787,106.95948452,-165.58279819,-178.12187227,177.57868904,27.30929405
49.42431456,37.27252521,-2.42834272,0.28025923,-1.20058108

>  <Name>
ligand

>  <RI>
0

>  <Rbt.Current_Directory>
/home/itssahil/PROJECTS/Mol_Feturizer/New_Systems/rnas/4P5J

>  <Rbt.Executable>
rbdock ($Id: //depot/dev/client3/rdock/2013.1/src/exe/rbdock.cxx#4 $)

>  <Rbt.Library>
libRbt.so (2013.1, Build901 2013/11/27)

>  <Rbt.Parameter_File>
/export/apps/rDock/src/rDock_2013.1_src/data/scripts/dock_solv.prm

>  <Rbt.Receptor>
prm/pocket_docking_7.prm

>  <SCORE>
-3.14366

>  <SCORE.INTER>
5.36726

>  <SCORE.INTER.CONST>
1

>  <SCORE.INTER.POLAR>
0

>  <SCORE.INTER.ROT>
11

>  <SCORE.INTER.SOLV>
9.52669

>  <SCORE.INTER.VDW>
-10.5307

>  <SCORE.INTER.norm>
0.383376

>  <SCORE.INTRA>
-8.51092

>  <SCORE.INTRA.DIHEDRAL>
-14.8291

>  <SCORE.INTRA.DIHEDRAL.0>
17.5233

>  <SCORE.INTRA.POLAR>
0

>  <SCORE.INTRA.POLAR.0>
0

>  <SCORE.INTRA.REPUL>
0

>  <SCORE.INTRA.REPUL.0>
0

>  <SCORE.INTRA.SOLV>
-1.61568

>  <SCORE.INTRA.SOLV.lig_0>
-46.1043

>  <SCORE.INTRA.VDW>
-0.288543

>  <SCORE.INTRA.VDW.0>
-0.545445

>  <SCORE.INTRA.norm>
-0.607923

>  <SCORE.RESTR>
0

>  <SCORE.RESTR.CAVITY>
0

>  <SCORE.RESTR.norm>
0

>  <SCORE.SYSTEM>
0

>  <SCORE.SYSTEM.CONST>
0

>  <SCORE.SYSTEM.DIHEDRAL>
0

>  <SCORE.SYSTEM.SOLV>
0

>  <SCORE.SYSTEM.norm>
0

>  <SCORE.heavy>
14

>  <SCORE.norm>
-0.224547

>  <RMSD>
5.405

$$$$
ligand
 OpenBabel11021811513D
libRbt.so/2013.1/901 2013/11/27
 14 13  0  0  0  0  0  0  0  0999 V2000
   23.0372   49.4518   41.6085 N   0  0  0  0  0  0  0  0  0  0  0  0
   21.9605   49.3990   40.6328 C   0  0  0  0  0  0  0  0  0  0  0  0
   21.3039   50.7684   40.4931 C   0  0  0  0  0  0  0  0  0  0  0  0
   22.2471   51.7657   39.8299 C   0  0  0  0  0  0  0  0  0  0  0  0
   22.5928   51.3961   38.4605 N   0  0  0  0  0  0  0  0  0  0  0  0
   23.5834   52.1552   37.7160 C   0  0  0  0  0  0  0  0  0  0  0  0
   24.3212   51.3112   36.6825 C   0  0  0  0  0  0  0  0  0  0  0  0
   25.0187   50.1406   37.3664 C   0  0  0  0  0  0  0  0  0  0  0  0
   26.1955   50.6508   38.1910 C   0  0  0  0  0  0  0  0  0  0  0  0
   26.8371   49.5866   38.9435 N   0  0  0  0  0  0  0  0  0  0  0  0
   28.2900   49.4796   38.9357 C   0  0  0  0  0  0  0  0  0  0  0  0
   28.8567   48.4139   39.8714 C   0  0  0  0  0  0  0  0  0  0  0  0
   30.3592   48.2393   39.6440 C   0  0  0  0  0  0  0  0  0  0  0  0
   30.8782   47.1866   40.5004 N   0  0  0  0  0  0  0  0  0  0  0  0
  1  2  1  0  0  0  0
  2  3  1  0  0  0  0
  3  4  1  0  0  0  0
  4  5  1  0  0  0  0
  5  6  1  0  0  0  0
  6  7  1  0  0  0  0
  7  8  1  0  0  0  0
  8  9  1  0  0  0  0
  9 10  1  0  0  0  0
 10 11  1  0  0  0  0
 11 12  1  0  0  0  0
 12 13  1  0  0  0  0
 13 14  1  0  0  0  0
M  END
>  <CHROM.1>
68.85858172,63.46917494,-173.88701862,150.88563319,-58.54500704,-70.55862334
175.77867336,133.69023060,174.11462178,171.77984059,-177.72314701,25.39135461
49.99630471,39.20514191,2.92742801,0.29099932,-1.03137168

>  <Name>
ligand

>  <RI>
0

>  <Rbt.Current_Directory>
/home/itssahil/PROJECTS/Mol_Feturizer/New_Systems/rnas/4P5J

>  <Rbt.Executable>
rbdock ($Id: //depot/dev/client3/rdock/2013.1/src/exe/rbdock.cxx#4 $)

>  <Rbt.Library>
libRbt.so (2013.1, Build901 2013/11/27)

>  <Rbt.Parameter_File>
/export/apps/rDock/src/rDock_2013.1_src/data/scripts/dock_solv.prm

>  <Rbt.Receptor>
prm/pocket_docking_6.prm

>  <SCORE>
-4.71025

>  <SCORE.INTER>
2.9243

>  <SCORE.INTER.CONST>
1

>  <SCORE.INTER.POLAR>
0

>  <SCORE.INTER.ROT>
11

>  <SCORE.INTER.SOLV>
7.8924

>  <SCORE.INTER.VDW>
-11.6146

>  <SCORE.INTER.norm>
0.208878

>  <SCORE.INTRA>
-7.63455

>  <SCORE.INTRA.DIHEDRAL>
-14.7007

>  <SCORE.INTRA.DIHEDRAL.0>
17.5233

>  <SCORE.INTRA.POLAR>
0

>  <SCORE.INTRA.POLAR.0>
0

>  <SCORE.INTRA.REPUL>
0

>  <SCORE.INTRA.REPUL.0>
0

>  <SCORE.INTRA.SOLV>
-0.306014

>  <SCORE.INTRA.SOLV.lig_0>
-46.1043

>  <SCORE.INTRA.VDW>
-0.131194

>  <SCORE.INTRA.VDW.0>
-0.545445

>  <SCORE.INTRA.norm>
-0.545325

>  <SCORE.RESTR>
0

>  <SCORE.RESTR.CAVITY>
0

>  <SCORE.RESTR.norm>
0

>  <SCORE.SYSTEM>
0

>  <SCORE.SYSTEM.CONST>
0

>  <SCORE.SYSTEM.DIHEDRAL>
0

>  <SCORE.SYSTEM.SOLV>
0

>  <SCORE.SYSTEM.norm>
0

>  <SCORE.heavy>
14

>  <SCORE.norm>
-0.336447

>  <RMSD>
5.415

$$$$
ligand
 OpenBabel11021811513D
libRbt.so/2013.1/901 2013/11/27
 14 13  0  0  0  0  0  0  0  0999 V2000
   21.3146   54.1323   41.9277 N   0  0  0  0  0  0  0  0  0  0  0  0
   21.9628   54.0145   40.6316 C   0  0  0  0  0  0  0  0  0  0  0  0
   22.1794   52.5468   40.2784 C   0  0  0  0  0  0  0  0  0  0  0  0
   22.9943   52.4035   38.9979 C   0  0  0  0  0  0  0  0  0  0  0  0
   23.2111   51.0114   38.6156 N   0  0  0  0  0  0  0  0  0  0  0  0
   24.2833   50.6522   37.7027 C   0  0  0  0  0  0  0  0  0  0  0  0
   25.6501   50.6232   38.3778 C   0  0  0  0  0  0  0  0  0  0  0  0
   26.7086   50.1401   37.3925 C   0  0  0  0  0  0  0  0  0  0  0  0
   28.0693   50.0916   38.0790 C   0  0  0  0  0  0  0  0  0  0  0  0
   29.0856   49.4876   37.2347 N   0  0  0  0  0  0  0  0  0  0  0  0
   29.5203   50.1813   36.0296 C   0  0  0  0  0  0  0  0  0  0  0  0
   30.1475   49.2821   34.9664 C   0  0  0  0  0  0  0  0  0  0  0  0
   30.5510   50.0990   33.7377 C   0  0  0  0  0  0  0  0  0  0  0  0
   31.1824   49.2416   32.7492 N   0  0  0  0  0  0  0  0  0  0  0  0
  1  2  1  0  0  0  0
  2  3  1  0  0  0  0
  3  4  1  0  0  0  0
  4  5  1  0  0  0  0
  5  6  1  0  0  0  0
  6  7  1  0  0  0  0
  7  8  1  0  0  0  0
  8  9  1  0  0  0  0
  9 10  1  0  0  0  0
 10 11  1  0  0  0  0
 11 12  1  0  0  0  0
 12 13  1  0  0  0  0
 13 14  1  0  0  0  0
M  END
>  <CHROM.1>
-173.71959099,-179.32827192,-160.45993508,78.18360627,175.78962370,-179.09832171
173.14351657,67.72519974,-157.55932487,179.20222577,178.30507368,26.20430772
50.99337505,37.62291196,-2.56157450,0.39839726,-1.57581415

>  <Name>
ligand

>  <RI>
0

>  <Rbt.Current_Directory>
/home/itssahil/PROJECTS/Mol_Feturizer/New_Systems/rnas/4P5J

>  <Rbt.Executable>
rbdock ($Id: //depot/dev/client3/rdock/2013.1/src/exe/rbdock.cxx#4 $)

>  <Rbt.Library>
libRbt.so (2013.1, Build901 2013/11/27)

>  <Rbt.Parameter_File>
/export/apps/rDock/src/rDock_2013.1_src/data/scripts/dock_solv.prm

>  <Rbt.Receptor>
prm/pocket_docking_6.prm

>  <SCORE>
-4.08965

>  <SCORE.INTER>
5.51697

>  <SCORE.INTER.CONST>
1

>  <SCORE.INTER.POLAR>
0

>  <SCORE.INTER.ROT>
11

>  <SCORE.INTER.SOLV>
7.62757

>  <SCORE.INTER.VDW>
-9.79787

>  <SCORE.INTER.norm>
0.394069

>  <SCORE.INTRA>
-9.60663

>  <SCORE.INTRA.DIHEDRAL>
-16.1576

>  <SCORE.INTRA.DIHEDRAL.0>
17.5233

>  <SCORE.INTRA.POLAR>
0

>  <SCORE.INTRA.POLAR.0>
0

>  <SCORE.INTRA.REPUL>
0

>  <SCORE.INTRA.REPUL.0>
0

>  <SCORE.INTRA.SOLV>
-2.73612

>  <SCORE.INTRA.SOLV.lig_0>
-46.1043

>  <SCORE.INTRA.VDW>
-0.159779

>  <SCORE.INTRA.VDW.0>
-0.545445

>  <SCORE.INTRA.norm>
-0.686188

>  <SCORE.RESTR>
0

>  <SCORE.RESTR.CAVITY>
0

>  <SCORE.RESTR.norm>
0

>  <SCORE.SYSTEM>
0

>  <SCORE.SYSTEM.CONST>
0

>  <SCORE.SYSTEM.DIHEDRAL>
0

>  <SCORE.SYSTEM.SOLV>
0

>  <SCORE.SYSTEM.norm>
0

>  <SCORE.heavy>
14

>  <SCORE.norm>
-0.292118

>  <RMSD>
5.487

$$$$
ligand
 OpenBabel11021811513D
libRbt.so/2013.1/901 2013/11/27
 14 13  0  0  0  0  0  0  0  0999 V2000
   21.7491   54.1647   42.4810 N   0  0  0  0  0  0  0  0  0  0  0  0
   22.0251   52.8577   41.9070 C   0  0  0  0  0  0  0  0  0  0  0  0
   21.8576   52.8978   40.3917 C   0  0  0  0  0  0  0  0  0  0  0  0
   22.1425   51.5351   39.7704 C   0  0  0  0  0  0  0  0  0  0  0  0
   23.5185   51.0932   39.9771 N   0  0  0  0  0  0  0  0  0  0  0  0
   23.8936   49.7077   39.7504 C   0  0  0  0  0  0  0  0  0  0  0  0
   25.4029   49.4922   39.7726 C   0  0  0  0  0  0  0  0  0  0  0  0
   26.0410   50.1428   38.5503 C   0  0  0  0  0  0  0  0  0  0  0  0
   27.5413   49.8706   38.5445 C   0  0  0  0  0  0  0  0  0  0  0  0
   28.1780   50.3470   37.3287 N   0  0  0  0  0  0  0  0  0  0  0  0
   29.3408   49.6421   36.8058 C   0  0  0  0  0  0  0  0  0  0  0  0
   29.7526   50.0501   35.3929 C   0  0  0  0  0  0  0  0  0  0  0  0
   30.8991   49.1714   34.8896 C   0  0  0  0  0  0  0  0  0  0  0  0
   31.2754   49.5598   33.5410 N   0  0  0  0  0  0  0  0  0  0  0  0
  1  2  1  0  0  0  0
  2  3  1  0  0  0  0
  3  4  1  0  0  0  0
  4  5  1  0  0  0  0
  5  6  1  0  0  0  0
  6  7  1  0  0  0  0
  7  8  1  0  0  0  0
  8  9  1  0  0  0  0
  9 10  1  0  0  0  0
 10 11  1  0  0  0  0
 11 12  1  0  0  0  0
 12 13  1  0  0  0  0
 13 14  1  0  0  0  0
M  END
>  <CHROM.1>
-179.97725426,-62.81684724,165.06062505,169.65130628,-69.26754070,-177.45728243
173.92340014,-148.53507953,168.25729903,-174.98580497,179.50367426,25.97260127
50.75206647,38.50742489,-2.97547342,-0.66754416,2.94830351

>  <Name>
ligand

>  <RI>
0

>  <Rbt.Current_Directory>
/home/itssahil/PROJECTS/Mol_Feturizer/New_Systems/rnas/4P5J

>  <Rbt.Executable>
rbdock ($Id: //depot/dev/client3/rdock/2013.1/src/exe/rbdock.cxx#4 $)

>  <Rbt.Library>
libRbt.so (2013.1, Build901 2013/11/27)

>  <Rbt.Parameter_File>
/export/apps/rDock/src/rDock_2013.1_src/data/scripts/dock_solv.prm

>  <Rbt.Receptor>
prm/pocket_docking_5.prm

>  <SCORE>
-4.37409

>  <SCORE.INTER>
5.26056

>  <SCORE.INTER.CONST>
1

>  <SCORE.INTER.POLAR>
0

>  <SCORE.INTER.ROT>
11

>  <SCORE.INTER.SOLV>
4.5236

>  <SCORE.INTER.VDW>
-8.93416

>  <SCORE.INTER.norm>
0.375754

>  <SCORE.INTRA>
-9.63465

>  <SCORE.INTRA.DIHEDRAL>
-15.8974

>  <SCORE.INTRA.DIHEDRAL.0>
17.5233

>  <SCORE.INTRA.POLAR>
0

>  <SCORE.INTRA.POLAR.0>
0

>  <SCORE.INTRA.REPUL>
0

>  <SCORE.INTRA.REPUL.0>
0

>  <SCORE.INTRA.SOLV>
-1.99806

>  <SCORE.INTRA.SOLV.lig_0>
-46.1043

>  <SCORE.INTRA.VDW>
-0.686925

>  <SCORE.INTRA.VDW.0>
-0.545445

>  <SCORE.INTRA.norm>
-0.688189

>  <SCORE.RESTR>
0

>  <SCORE.RESTR.CAVITY>
0

>  <SCORE.RESTR.norm>
0

>  <SCORE.SYSTEM>
0

>  <SCORE.SYSTEM.CONST>
0

>  <SCORE.SYSTEM.DIHEDRAL>
0

>  <SCORE.SYSTEM.SOLV>
0

>  <SCORE.SYSTEM.norm>
0

>  <SCORE.heavy>
14

>  <SCORE.norm>
-0.312435

>  <RMSD>
5.516

$$$$
ligand
 OpenBabel11021811513D
libRbt.so/2013.1/901 2013/11/27
 14 13  0  0  0  0  0  0  0  0999 V2000
   30.3379   46.7391   41.3385 N   0  0  0  0  0  0  0  0  0  0  0  0
   30.5145   47.5053   40.1155 C   0  0  0  0  0  0  0  0  0  0  0  0
   29.3490   48.4694   39.9209 C   0  0  0  0  0  0  0  0  0  0  0  0
   29.5890   49.3892   38.7290 C   0  0  0  0  0  0  0  0  0  0  0  0
   28.4896   50.3223   38.5013 N   0  0  0  0  0  0  0  0  0  0  0  0
   27.3336   49.9272   37.7142 C   0  0  0  0  0  0  0  0  0  0  0  0
   26.1951   50.9388   37.7864 C   0  0  0  0  0  0  0  0  0  0  0  0
   24.9982   50.4354   36.9874 C   0  0  0  0  0  0  0  0  0  0  0  0
   23.8666   51.4553   37.0543 C   0  0  0  0  0  0  0  0  0  0  0  0
   24.2183   52.7047   36.4018 N   0  0  0  0  0  0  0  0  0  0  0  0
   24.0424   52.8345   34.9614 C   0  0  0  0  0  0  0  0  0  0  0  0
   25.2357   52.3715   34.1283 C   0  0  0  0  0  0  0  0  0  0  0  0
   26.4705   53.2206   34.4351 C   0  0  0  0  0  0  0  0  0  0  0  0
   27.5900   52.7954   33.6122 N   0  0  0  0  0  0  0  0  0  0  0  0
  1  2  1  0  0  0  0
  2  3  1  0  0  0  0
  3  4  1  0  0  0  0
  4  5  1  0  0  0  0
  5  6  1  0  0  0  0
  6  7  1  0  0  0  0
  7  8  1  0  0  0  0
  8  9  1  0  0  0  0
  9 10  1  0  0  0  0
 10 11  1  0  0  0  0
 11 12  1  0  0  0  0
 12 13  1  0  0  0  0
 13 14  1  0  0  0  0
M  END
>  <CHROM.1>
173.73808336,179.53753504,-85.36284138,170.15467590,-177.68577408,-179.58365656
65.18412061,84.38515834,-87.68510038,-62.39039754,-178.49792961,27.01617535
50.65062121,37.26323738,0.95112067,-0.18094444,2.17941234

>  <Name>
ligand

>  <RI>
0

>  <Rbt.Current_Directory>
/home/itssahil/PROJECTS/Mol_Feturizer/New_Systems/rnas/4P5J

>  <Rbt.Executable>
rbdock ($Id: //depot/dev/client3/rdock/2013.1/src/exe/rbdock.cxx#4 $)

>  <Rbt.Library>
libRbt.so (2013.1, Build901 2013/11/27)

>  <Rbt.Parameter_File>
/export/apps/rDock/src/rDock_2013.1_src/data/scripts/dock_solv.prm

>  <Rbt.Receptor>
prm/pocket_docking_7.prm

>  <SCORE>
-5.03351

>  <SCORE.INTER>
4.49955

>  <SCORE.INTER.CONST>
1

>  <SCORE.INTER.POLAR>
0

>  <SCORE.INTER.ROT>
11

>  <SCORE.INTER.SOLV>
4.89112

>  <SCORE.INTER.VDW>
-9.564

>  <SCORE.INTER.norm>
0.321397

>  <SCORE.INTRA>
-9.53306

>  <SCORE.INTRA.DIHEDRAL>
-15.736

>  <SCORE.INTRA.DIHEDRAL.0>
17.5233

>  <SCORE.INTRA.POLAR>
0

>  <SCORE.INTRA.POLAR.0>
0

>  <SCORE.INTRA.REPUL>
0

>  <SCORE.INTRA.REPUL.0>
0

>  <SCORE.INTRA.SOLV>
-1.9943

>  <SCORE.INTRA.SOLV.lig_0>
-46.1043

>  <SCORE.INTRA.VDW>
-0.667914

>  <SCORE.INTRA.VDW.0>
-0.545445

>  <SCORE.INTRA.norm>
-0.680933

>  <SCORE.RESTR>
0

>  <SCORE.RESTR.CAVITY>
0

>  <SCORE.RESTR.norm>
0

>  <SCORE.SYSTEM>
0

>  <SCORE.SYSTEM.CONST>
0

>  <SCORE.SYSTEM.DIHEDRAL>
0

>  <SCORE.SYSTEM.SOLV>
0

>  <SCORE.SYSTEM.norm>
0

>  <SCORE.heavy>
14

>  <SCORE.norm>
-0.359536

>  <RMSD>
5.519

$$$$
ligand
 OpenBabel11021811513D
libRbt.so/2013.1/901 2013/11/27
 14 13  0  0  0  0  0  0  0  0999 V2000
   31.5232   49.3438   33.4964 N   0  0  0  0  0  0  0  0  0  0  0  0
   31.1036   48.2977   34.4149 C   0  0  0  0  0  0  0  0  0  0  0  0
   30.9435   48.8613   35.8229 C   0  0  0  0  0  0  0  0  0  0  0  0
   29.8206   49.8910   35.8790 C   0  0  0  0  0  0  0  0  0  0  0  0
   29.6225   50.4429   37.2158 N   0  0  0  0  0  0  0  0  0  0  0  0
   28.4461   50.0942   37.9944 C   0  0  0  0  0  0  0  0  0  0  0  0
   27.1437   50.4932   37.3094 C   0  0  0  0  0  0  0  0  0  0  0  0
   25.9560   50.1277   38.1928 C   0  0  0  0  0  0  0  0  0  0  0  0
   24.6583   50.3011   37.4112 C   0  0  0  0  0  0  0  0  0  0  0  0
   24.4250   51.6863   37.0406 N   0  0  0  0  0  0  0  0  0  0  0  0
   23.4993   51.9916   35.9578 C   0  0  0  0  0  0  0  0  0  0  0  0
   22.8729   53.3827   36.0266 C   0  0  0  0  0  0  0  0  0  0  0  0
   23.9383   54.4645   35.8412 C   0  0  0  0  0  0  0  0  0  0  0  0
   24.4855   54.4060   34.4965 N   0  0  0  0  0  0  0  0  0  0  0  0
  1  2  1  0  0  0  0
  2  3  1  0  0  0  0
  3  4  1  0  0  0  0
  4  5  1  0  0  0  0
  5  6  1  0  0  0  0
  6  7  1  0  0  0  0
  7  8  1  0  0  0  0
  8  9  1  0  0  0  0
  9 10  1  0  0  0  0
 10 11  1  0  0  0  0
 11 12  1  0  0  0  0
 12 13  1  0  0  0  0
 13 14  1  0  0  0  0
M  END
>  <CHROM.1>
64.55566526,179.23894913,-108.80825568,-60.17570336,-178.71456897,-170.18159731
-64.26417040,160.51262141,155.07201130,65.54658379,66.14466009,27.03112856
50.98436716,36.22165617,-0.19273208,0.47960761,-0.97268384

>  <Name>
ligand

>  <RI>
0

>  <Rbt.Current_Directory>
/home/itssahil/PROJECTS/Mol_Feturizer/New_Systems/rnas/4P5J

>  <Rbt.Executable>
rbdock ($Id: //depot/dev/client3/rdock/2013.1/src/exe/rbdock.cxx#4 $)

>  <Rbt.Library>
libRbt.so (2013.1, Build901 2013/11/27)

>  <Rbt.Parameter_File>
/export/apps/rDock/src/rDock_2013.1_src/data/scripts/dock_solv.prm

>  <Rbt.Receptor>
prm/pocket_docking_7.prm

>  <SCORE>
-4.20552

>  <SCORE.INTER>
3.07964

>  <SCORE.INTER.CONST>
1

>  <SCORE.INTER.POLAR>
0

>  <SCORE.INTER.ROT>
11

>  <SCORE.INTER.SOLV>
5.52918

>  <SCORE.INTER.VDW>
-10.7233

>  <SCORE.INTER.norm>
0.219975

>  <SCORE.INTRA>
-7.28516

>  <SCORE.INTRA.DIHEDRAL>
-14.8868

>  <SCORE.INTRA.DIHEDRAL.0>
17.5233

>  <SCORE.INTRA.POLAR>
0

>  <SCORE.INTRA.POLAR.0>
0

>  <SCORE.INTRA.REPUL>
0

>  <SCORE.INTRA.REPUL.0>
0

>  <SCORE.INTRA.SOLV>
0.0887223

>  <SCORE.INTRA.SOLV.lig_0>
-46.1043

>  <SCORE.INTRA.VDW>
0.113899

>  <SCORE.INTRA.VDW.0>
-0.545445

>  <SCORE.INTRA.norm>
-0.520369

>  <SCORE.RESTR>
0

>  <SCORE.RESTR.CAVITY>
0

>  <SCORE.RESTR.norm>
0

>  <SCORE.SYSTEM>
0

>  <SCORE.SYSTEM.CONST>
0

>  <SCORE.SYSTEM.DIHEDRAL>
0

>  <SCORE.SYSTEM.SOLV>
0

>  <SCORE.SYSTEM.norm>
0

>  <SCORE.heavy>
14

>  <SCORE.norm>
-0.300394

>  <RMSD>
5.530

$$$$
ligand
 OpenBabel11021811513D
libRbt.so/2013.1/901 2013/11/27
 14 13  0  0  0  0  0  0  0  0999 V2000
   31.7100   49.4588   35.0007 N   0  0  0  0  0  0  0  0  0  0  0  0
   30.9400   49.2018   36.2069 C   0  0  0  0  0  0  0  0  0  0  0  0
   29.5722   49.8700   36.1152 C   0  0  0  0  0  0  0  0  0  0  0  0
   28.7675   49.6536   37.3920 C   0  0  0  0  0  0  0  0  0  0  0  0
   27.4249   50.2222   37.3202 N   0  0  0  0  0  0  0  0  0  0  0  0
   26.4541   49.9643   38.3704 C   0  0  0  0  0  0  0  0  0  0  0  0
   25.0191   50.2274   37.9271 C   0  0  0  0  0  0  0  0  0  0  0  0
   24.8001   51.7230   37.7286 C   0  0  0  0  0  0  0  0  0  0  0  0
   23.3293   51.9947   37.4321 C   0  0  0  0  0  0  0  0  0  0  0  0
   22.4662   51.5784   38.5239 N   0  0  0  0  0  0  0  0  0  0  0  0
   22.2787   52.4635   39.6659 C   0  0  0  0  0  0  0  0  0  0  0  0
   21.4819   51.8575   40.8192 C   0  0  0  0  0  0  0  0  0  0  0  0
   21.2386   52.8986   41.9132 C   0  0  0  0  0  0  0  0  0  0  0  0
   22.4960   53.2781   42.5345 N   0  0  0  0  0  0  0  0  0  0  0  0
  1  2  1  0  0  0  0
  2  3  1  0  0  0  0
  3  4  1  0  0  0  0
  4  5  1  0  0  0  0
  5  6  1  0  0  0  0
  6  7  1  0  0  0  0
  7  8  1  0  0  0  0
  8  9  1  0  0  0  0
  9 10  1  0  0  0  0
 10 11  1  0  0  0  0
 11 12  1  0  0  0  0
 12 13  1  0  0  0  0
 13 14  1  0  0  0  0
M  END
>  <CHROM.1>
-177.98865014,-177.17513208,171.90484484,-160.90174672,-69.37504637,-173.95525654
61.13147347,82.54001531,-173.36754369,-175.18056944,-66.18716837,25.56971713
51.02796204,38.35356644,-0.54076593,-0.24162145,1.38039725

>  <Name>
ligand

>  <RI>
0

>  <Rbt.Current_Directory>
/home/itssahil/PROJECTS/Mol_Feturizer/New_Systems/rnas/4P5J

>  <Rbt.Executable>
rbdock ($Id: //depot/dev/client3/rdock/2013.1/src/exe/rbdock.cxx#4 $)

>  <Rbt.Library>
libRbt.so (2013.1, Build901 2013/11/27)

>  <Rbt.Parameter_File>
/export/apps/rDock/src/rDock_2013.1_src/data/scripts/dock_solv.prm

>  <Rbt.Receptor>
prm/pocket_docking_7.prm

>  <SCORE>
-4.25552

>  <SCORE.INTER>
4.66964

>  <SCORE.INTER.CONST>
1

>  <SCORE.INTER.POLAR>
0

>  <SCORE.INTER.ROT>
11

>  <SCORE.INTER.SOLV>
6.7343

>  <SCORE.INTER.VDW>
-10.065

>  <SCORE.INTER.norm>
0.333546

>  <SCORE.INTRA>
-8.92516

>  <SCORE.INTRA.DIHEDRAL>
-16.0279

>  <SCORE.INTRA.DIHEDRAL.0>
17.5233

>  <SCORE.INTRA.POLAR>
0

>  <SCORE.INTRA.POLAR.0>
0

>  <SCORE.INTRA.REPUL>
0

>  <SCORE.INTRA.REPUL.0>
0

>  <SCORE.INTRA.SOLV>
-1.19499

>  <SCORE.INTRA.SOLV.lig_0>
-46.1043

>  <SCORE.INTRA.VDW>
-0.313733

>  <SCORE.INTRA.VDW.0>
-0.545445

>  <SCORE.INTRA.norm>
-0.637512

>  <SCORE.RESTR>
0

>  <SCORE.RESTR.CAVITY>
0

>  <SCORE.RESTR.norm>
0

>  <SCORE.SYSTEM>
0

>  <SCORE.SYSTEM.CONST>
0

>  <SCORE.SYSTEM.DIHEDRAL>
0

>  <SCORE.SYSTEM.SOLV>
0

>  <SCORE.SYSTEM.norm>
0

>  <SCORE.heavy>
14

>  <SCORE.norm>
-0.303966

>  <RMSD>
5.606

$$$$
ligand
 OpenBabel11021811513D
libRbt.so/2013.1/901 2013/11/27
 14 13  0  0  0  0  0  0  0  0999 V2000
   32.7870   48.2545   36.3741 N   0  0  0  0  0  0  0  0  0  0  0  0
   31.5752   48.9518   35.9750 C   0  0  0  0  0  0  0  0  0  0  0  0
   30.6170   49.0681   37.1558 C   0  0  0  0  0  0  0  0  0  0  0  0
   29.3273   49.7728   36.7504 C   0  0  0  0  0  0  0  0  0  0  0  0
   28.3527   49.8416   37.8351 N   0  0  0  0  0  0  0  0  0  0  0  0
   26.9673   50.1878   37.5653 C   0  0  0  0  0  0  0  0  0  0  0  0
   26.0555   49.9571   38.7654 C   0  0  0  0  0  0  0  0  0  0  0  0
   24.6034   50.2063   38.3731 C   0  0  0  0  0  0  0  0  0  0  0  0
   23.6991   50.0026   39.5838 C   0  0  0  0  0  0  0  0  0  0  0  0
   23.7192   48.6286   40.0552 N   0  0  0  0  0  0  0  0  0  0  0  0
   22.7242   48.1897   41.0247 C   0  0  0  0  0  0  0  0  0  0  0  0
   22.9938   46.8181   41.6398 C   0  0  0  0  0  0  0  0  0  0  0  0
   24.2587   46.8508   42.4994 C   0  0  0  0  0  0  0  0  0  0  0  0
   24.0469   47.6796   43.6739 N   0  0  0  0  0  0  0  0  0  0  0  0
  1  2  1  0  0  0  0
  2  3  1  0  0  0  0
  3  4  1  0  0  0  0
  4  5  1  0  0  0  0
  5  6  1  0  0  0  0
  6  7  1  0  0  0  0
  7  8  1  0  0  0  0
  8  9  1  0  0  0  0
  9 10  1  0  0  0  0
 10 11  1  0  0  0  0
 11 12  1  0  0  0  0
 12 13  1  0  0  0  0
 13 14  1  0  0  0  0
M  END
>  <CHROM.1>
-178.88066695,176.93994309,-165.59190394,169.30139723,-174.38243395,-178.82877257
-64.26813251,-167.83990824,-169.19018209,66.06753932,67.59288220,26.55167396
48.88648956,39.09062684,-0.52726585,-0.30686766,2.27811231

>  <Name>
ligand

>  <RI>
0

>  <Rbt.Current_Directory>
/home/itssahil/PROJECTS/Mol_Feturizer/New_Systems/rnas/4P5J

>  <Rbt.Executable>
rbdock ($Id: //depot/dev/client3/rdock/2013.1/src/exe/rbdock.cxx#4 $)

>  <Rbt.Library>
libRbt.so (2013.1, Build901 2013/11/27)

>  <Rbt.Parameter_File>
/export/apps/rDock/src/rDock_2013.1_src/data/scripts/dock_solv.prm

>  <Rbt.Receptor>
prm/pocket_docking_7.prm

>  <SCORE>
-5.74018

>  <SCORE.INTER>
3.44586

>  <SCORE.INTER.CONST>
1

>  <SCORE.INTER.POLAR>
0

>  <SCORE.INTER.ROT>
11

>  <SCORE.INTER.SOLV>
6.31358

>  <SCORE.INTER.VDW>
-10.7406

>  <SCORE.INTER.norm>
0.246133

>  <SCORE.INTRA>
-9.18604

>  <SCORE.INTRA.DIHEDRAL>
-16.4713

>  <SCORE.INTRA.DIHEDRAL.0>
17.5233

>  <SCORE.INTRA.POLAR>
0

>  <SCORE.INTRA.POLAR.0>
0

>  <SCORE.INTRA.REPUL>
0

>  <SCORE.INTRA.REPUL.0>
0

>  <SCORE.INTRA.SOLV>
-0.725253

>  <SCORE.INTRA.SOLV.lig_0>
-46.1043

>  <SCORE.INTRA.VDW>
-0.587777

>  <SCORE.INTRA.VDW.0>
-0.545445

>  <SCORE.INTRA.norm>
-0.656146

>  <SCORE.RESTR>
0

>  <SCORE.RESTR.CAVITY>
0

>  <SCORE.RESTR.norm>
0

>  <SCORE.SYSTEM>
0

>  <SCORE.SYSTEM.CONST>
0

>  <SCORE.SYSTEM.DIHEDRAL>
0

>  <SCORE.SYSTEM.SOLV>
0

>  <SCORE.SYSTEM.norm>
0

>  <SCORE.heavy>
14

>  <SCORE.norm>
-0.410013

>  <RMSD>
5.614

$$$$
ligand
 OpenBabel11021811513D
libRbt.so/2013.1/901 2013/11/27
 14 13  0  0  0  0  0  0  0  0999 V2000
   23.2513   54.7426   40.2370 N   0  0  0  0  0  0  0  0  0  0  0  0
   23.0774   53.3431   40.5903 C   0  0  0  0  0  0  0  0  0  0  0  0
   21.5977   53.0221   40.7728 C   0  0  0  0  0  0  0  0  0  0  0  0
   21.3947   51.5593   41.1514 C   0  0  0  0  0  0  0  0  0  0  0  0
   21.8224   50.6370   40.1037 N   0  0  0  0  0  0  0  0  0  0  0  0
   22.2966   49.3046   40.4381 C   0  0  0  0  0  0  0  0  0  0  0  0
   23.5745   48.9281   39.6964 C   0  0  0  0  0  0  0  0  0  0  0  0
   24.7230   49.8232   40.1481 C   0  0  0  0  0  0  0  0  0  0  0  0
   25.9698   49.5185   39.3248 C   0  0  0  0  0  0  0  0  0  0  0  0
   27.1318   50.2471   39.8036 N   0  0  0  0  0  0  0  0  0  0  0  0
   28.4653   49.7908   39.4344 C   0  0  0  0  0  0  0  0  0  0  0  0
   28.9452   48.5493   40.1832 C   0  0  0  0  0  0  0  0  0  0  0  0
   30.3569   48.1627   39.7388 C   0  0  0  0  0  0  0  0  0  0  0  0
   30.8383   47.0351   40.5186 N   0  0  0  0  0  0  0  0  0  0  0  0
  1  2  1  0  0  0  0
  2  3  1  0  0  0  0
  3  4  1  0  0  0  0
  4  5  1  0  0  0  0
  5  6  1  0  0  0  0
  6  7  1  0  0  0  0
  7  8  1  0  0  0  0
  8  9  1  0  0  0  0
  9 10  1  0  0  0  0
 10 11  1  0  0  0  0
 11 12  1  0  0  0  0
 12 13  1  0  0  0  0
 13 14  1  0  0  0  0
M  END
>  <CHROM.1>
-179.69755835,-63.93371975,151.28362463,-134.20319435,65.64370183,-175.48363994
-174.17084653,160.99416379,-75.34776774,-179.27520354,176.25941299,25.24585720
50.33297139,40.15294730,-2.65024028,-0.06078334,-3.11104340

>  <Name>
ligand

>  <RI>
0

>  <Rbt.Current_Directory>
/home/itssahil/PROJECTS/Mol_Feturizer/New_Systems/rnas/4P5J

>  <Rbt.Executable>
rbdock ($Id: //depot/dev/client3/rdock/2013.1/src/exe/rbdock.cxx#4 $)

>  <Rbt.Library>
libRbt.so (2013.1, Build901 2013/11/27)

>  <Rbt.Parameter_File>
/export/apps/rDock/src/rDock_2013.1_src/data/scripts/dock_solv.prm

>  <Rbt.Receptor>
prm/pocket_docking_6.prm

>  <SCORE>
-3.81659

>  <SCORE.INTER>
5.4673

>  <SCORE.INTER.CONST>
1

>  <SCORE.INTER.POLAR>
0

>  <SCORE.INTER.ROT>
11

>  <SCORE.INTER.SOLV>
5.93007

>  <SCORE.INTER.VDW>
-9.26515

>  <SCORE.INTER.norm>
0.390522

>  <SCORE.INTRA>
-9.2839

>  <SCORE.INTRA.DIHEDRAL>
-15.0193

>  <SCORE.INTRA.DIHEDRAL.0>
17.5233

>  <SCORE.INTRA.POLAR>
0

>  <SCORE.INTRA.POLAR.0>
0

>  <SCORE.INTRA.REPUL>
0

>  <SCORE.INTRA.REPUL.0>
0

>  <SCORE.INTRA.SOLV>
-1.96347

>  <SCORE.INTRA.SOLV.lig_0>
-46.1043

>  <SCORE.INTRA.VDW>
-0.792515

>  <SCORE.INTRA.VDW.0>
-0.545445

>  <SCORE.INTRA.norm>
-0.663135

>  <SCORE.RESTR>
0

>  <SCORE.RESTR.CAVITY>
0

>  <SCORE.RESTR.norm>
0

>  <SCORE.SYSTEM>
0

>  <SCORE.SYSTEM.CONST>
0

>  <SCORE.SYSTEM.DIHEDRAL>
0

>  <SCORE.SYSTEM.SOLV>
0

>  <SCORE.SYSTEM.norm>
0

>  <SCORE.heavy>
14

>  <SCORE.norm>
-0.272614

>  <RMSD>
5.633

$$$$
ligand
 OpenBabel11021811513D
libRbt.so/2013.1/901 2013/11/27
 14 13  0  0  0  0  0  0  0  0999 V2000
   26.3900   49.9269   42.4631 N   0  0  0  0  0  0  0  0  0  0  0  0
   26.7652   49.6007   41.0968 C   0  0  0  0  0  0  0  0  0  0  0  0
   28.2582   49.3009   41.0141 C   0  0  0  0  0  0  0  0  0  0  0  0
   28.6664   48.9271   39.5936 C   0  0  0  0  0  0  0  0  0  0  0  0
   28.5168   50.0315   38.6506 N   0  0  0  0  0  0  0  0  0  0  0  0
   27.5363   49.9639   37.5801 C   0  0  0  0  0  0  0  0  0  0  0  0
   26.2782   50.7721   37.8784 C   0  0  0  0  0  0  0  0  0  0  0  0
   25.2410   50.5461   36.7840 C   0  0  0  0  0  0  0  0  0  0  0  0
   24.0408   51.4581   37.0137 C   0  0  0  0  0  0  0  0  0  0  0  0
   23.4028   51.2087   38.2948 N   0  0  0  0  0  0  0  0  0  0  0  0
   22.6641   52.2814   38.9478 C   0  0  0  0  0  0  0  0  0  0  0  0
   22.5037   52.1188   40.4578 C   0  0  0  0  0  0  0  0  0  0  0  0
   21.7246   53.2955   41.0479 C   0  0  0  0  0  0  0  0  0  0  0  0
   21.6418   53.1694   42.4930 N   0  0  0  0  0  0  0  0  0  0  0  0
  1  2  1  0  0  0  0
  2  3  1  0  0  0  0
  3  4  1  0  0  0  0
  4  5  1  0  0  0  0
  5  6  1  0  0  0  0
  6  7  1  0  0  0  0
  7  8  1  0  0  0  0
  8  9  1  0  0  0  0
  9 10  1  0  0  0  0
 10 11  1  0  0  0  0
 11 12  1  0  0  0  0
 12 13  1  0  0  0  0
 13 14  1  0  0  0  0
M  END
>  <CHROM.1>
178.78560092,65.64264359,-113.71902181,101.74193676,-174.38064084,-174.52001260
-59.98764891,153.49834179,-157.49067919,179.66281759,-176.84320705,25.25936830
50.90000710,39.52217291,-0.17923362,-0.48839268,1.57559990

>  <Name>
ligand

>  <RI>
0

>  <Rbt.Current_Directory>
/home/itssahil/PROJECTS/Mol_Feturizer/New_Systems/rnas/4P5J

>  <Rbt.Executable>
rbdock ($Id: //depot/dev/client3/rdock/2013.1/src/exe/rbdock.cxx#4 $)

>  <Rbt.Library>
libRbt.so (2013.1, Build901 2013/11/27)

>  <Rbt.Parameter_File>
/export/apps/rDock/src/rDock_2013.1_src/data/scripts/dock_solv.prm

>  <Rbt.Receptor>
prm/pocket_docking_5.prm

>  <SCORE>
-3.67484

>  <SCORE.INTER>
5.28622

>  <SCORE.INTER.CONST>
1

>  <SCORE.INTER.POLAR>
0

>  <SCORE.INTER.ROT>
11

>  <SCORE.INTER.SOLV>
4.97536

>  <SCORE.INTER.VDW>
-9.06764

>  <SCORE.INTER.norm>
0.377587

>  <SCORE.INTRA>
-8.96107

>  <SCORE.INTRA.DIHEDRAL>
-14.1411

>  <SCORE.INTRA.DIHEDRAL.0>
17.5233

>  <SCORE.INTRA.POLAR>
0

>  <SCORE.INTRA.POLAR.0>
0

>  <SCORE.INTRA.REPUL>
0

>  <SCORE.INTRA.REPUL.0>
0

>  <SCORE.INTRA.SOLV>
-1.90661

>  <SCORE.INTRA.SOLV.lig_0>
-46.1043

>  <SCORE.INTRA.VDW>
-0.937228

>  <SCORE.INTRA.VDW.0>
-0.545445

>  <SCORE.INTRA.norm>
-0.640076

>  <SCORE.RESTR>
0

>  <SCORE.RESTR.CAVITY>
0

>  <SCORE.RESTR.norm>
0

>  <SCORE.SYSTEM>
0

>  <SCORE.SYSTEM.CONST>
0

>  <SCORE.SYSTEM.DIHEDRAL>
0

>  <SCORE.SYSTEM.SOLV>
0

>  <SCORE.SYSTEM.norm>
0

>  <SCORE.heavy>
14

>  <SCORE.norm>
-0.262489

>  <RMSD>
5.645

$$$$
ligand
 OpenBabel11021811513D
libRbt.so/2013.1/901 2013/11/27
 14 13  0  0  0  0  0  0  0  0999 V2000
   22.3365   55.5091   43.0995 N   0  0  0  0  0  0  0  0  0  0  0  0
   22.5955   54.2538   42.4129 C   0  0  0  0  0  0  0  0  0  0  0  0
   21.3707   53.8252   41.6117 C   0  0  0  0  0  0  0  0  0  0  0  0
   21.6226   52.5098   40.8832 C   0  0  0  0  0  0  0  0  0  0  0  0
   22.6658   52.6140   39.8673 N   0  0  0  0  0  0  0  0  0  0  0  0
   22.9554   51.4959   38.9854 C   0  0  0  0  0  0  0  0  0  0  0  0
   24.4286   51.4111   38.6019 C   0  0  0  0  0  0  0  0  0  0  0  0
   24.6460   50.2701   37.6142 C   0  0  0  0  0  0  0  0  0  0  0  0
   26.1285   50.1546   37.2767 C   0  0  0  0  0  0  0  0  0  0  0  0
   26.9171   49.7280   38.4197 N   0  0  0  0  0  0  0  0  0  0  0  0
   28.3686   49.8435   38.3714 C   0  0  0  0  0  0  0  0  0  0  0  0
   29.1176   48.8563   39.2640 C   0  0  0  0  0  0  0  0  0  0  0  0
   28.7272   49.0503   40.7302 C   0  0  0  0  0  0  0  0  0  0  0  0
   29.4649   48.1252   41.5735 N   0  0  0  0  0  0  0  0  0  0  0  0
  1  2  1  0  0  0  0
  2  3  1  0  0  0  0
  3  4  1  0  0  0  0
  4  5  1  0  0  0  0
  5  6  1  0  0  0  0
  6  7  1  0  0  0  0
  7  8  1  0  0  0  0
  8  9  1  0  0  0  0
  9 10  1  0  0  0  0
 10 11  1  0  0  0  0
 11 12  1  0  0  0  0
 12 13  1  0  0  0  0
 13 14  1  0  0  0  0
M  END
>  <CHROM.1>
179.97997096,-64.58766482,-174.15946127,-146.83789005,-176.66838919,-177.76972021
67.05727037,-166.65552908,-153.90174057,-60.10509816,-178.85509277,25.09596352
51.26039923,39.90763937,-2.65948219,0.51283202,-1.96279421

>  <Name>
ligand

>  <RI>
0

>  <Rbt.Current_Directory>
/home/itssahil/PROJECTS/Mol_Feturizer/New_Systems/rnas/4P5J

>  <Rbt.Executable>
rbdock ($Id: //depot/dev/client3/rdock/2013.1/src/exe/rbdock.cxx#4 $)

>  <Rbt.Library>
libRbt.so (2013.1, Build901 2013/11/27)

>  <Rbt.Parameter_File>
/export/apps/rDock/src/rDock_2013.1_src/data/scripts/dock_solv.prm

>  <Rbt.Receptor>
prm/pocket_docking_5.prm

>  <SCORE>
-3.00092

>  <SCORE.INTER>
6.37766

>  <SCORE.INTER.CONST>
1

>  <SCORE.INTER.POLAR>
0

>  <SCORE.INTER.ROT>
11

>  <SCORE.INTER.SOLV>
5.73919

>  <SCORE.INTER.VDW>
-8.59463

>  <SCORE.INTER.norm>
0.455547

>  <SCORE.INTRA>
-9.37857

>  <SCORE.INTRA.DIHEDRAL>
-15.8444

>  <SCORE.INTRA.DIHEDRAL.0>
17.5233

>  <SCORE.INTRA.POLAR>
0

>  <SCORE.INTRA.POLAR.0>
0

>  <SCORE.INTRA.REPUL>
0

>  <SCORE.INTRA.REPUL.0>
0

>  <SCORE.INTRA.SOLV>
-1.62107

>  <SCORE.INTRA.SOLV.lig_0>
-46.1043

>  <SCORE.INTRA.VDW>
-0.645833

>  <SCORE.INTRA.VDW.0>
-0.545445

>  <SCORE.INTRA.norm>
-0.669898

>  <SCORE.RESTR>
0

>  <SCORE.RESTR.CAVITY>
0

>  <SCORE.RESTR.norm>
0

>  <SCORE.SYSTEM>
0

>  <SCORE.SYSTEM.CONST>
0

>  <SCORE.SYSTEM.DIHEDRAL>
0

>  <SCORE.SYSTEM.SOLV>
0

>  <SCORE.SYSTEM.norm>
0

>  <SCORE.heavy>
14

>  <SCORE.norm>
-0.214351

>  <RMSD>
5.652

$$$$
ligand
 OpenBabel11021811513D
libRbt.so/2013.1/901 2013/11/27
 14 13  0  0  0  0  0  0  0  0999 V2000
   33.9859   52.1736   36.9126 N   0  0  0  0  0  0  0  0  0  0  0  0
   32.6404   52.2451   37.4589 C   0  0  0  0  0  0  0  0  0  0  0  0
   31.8234   51.0358   37.0163 C   0  0  0  0  0  0  0  0  0  0  0  0
   30.4005   51.1044   37.5593 C   0  0  0  0  0  0  0  0  0  0  0  0
   29.5794   49.9706   37.1453 N   0  0  0  0  0  0  0  0  0  0  0  0
   28.1352   50.0052   37.3030 C   0  0  0  0  0  0  0  0  0  0  0  0
   27.6892   49.7209   38.7330 C   0  0  0  0  0  0  0  0  0  0  0  0
   26.1761   49.8683   38.8470 C   0  0  0  0  0  0  0  0  0  0  0  0
   25.7334   49.5636   40.2740 C   0  0  0  0  0  0  0  0  0  0  0  0
   24.2947   49.6828   40.4366 N   0  0  0  0  0  0  0  0  0  0  0  0
   23.4276   48.6238   39.9376 C   0  0  0  0  0  0  0  0  0  0  0  0
   22.0829   48.5097   40.6526 C   0  0  0  0  0  0  0  0  0  0  0  0
   22.2828   48.1363   42.1224 C   0  0  0  0  0  0  0  0  0  0  0  0
   20.9994   48.0503   42.7982 N   0  0  0  0  0  0  0  0  0  0  0  0
  1  2  1  0  0  0  0
  2  3  1  0  0  0  0
  3  4  1  0  0  0  0
  4  5  1  0  0  0  0
  5  6  1  0  0  0  0
  6  7  1  0  0  0  0
  7  8  1  0  0  0  0
  8  9  1  0  0  0  0
  9 10  1  0  0  0  0
 10 11  1  0  0  0  0
 11 12  1  0  0  0  0
 12 13  1  0  0  0  0
 13 14  1  0  0  0  0
M  END
>  <CHROM.1>
-179.00242657,179.35988183,-165.98713952,-78.77120238,176.07735992,179.19696371
-179.69466611,76.59010042,154.28251162,-63.66510138,179.13671848,27.08930137
49.90643362,39.08538785,-0.31923396,0.38610351,1.32932463

>  <Name>
ligand

>  <RI>
0

>  <Rbt.Current_Directory>
/home/itssahil/PROJECTS/Mol_Feturizer/New_Systems/rnas/4P5J

>  <Rbt.Executable>
rbdock ($Id: //depot/dev/client3/rdock/2013.1/src/exe/rbdock.cxx#4 $)

>  <Rbt.Library>
libRbt.so (2013.1, Build901 2013/11/27)

>  <Rbt.Parameter_File>
/export/apps/rDock/src/rDock_2013.1_src/data/scripts/dock_solv.prm

>  <Rbt.Receptor>
prm/pocket_docking_7.prm

>  <SCORE>
-1.73779

>  <SCORE.INTER>
7.8835

>  <SCORE.INTER.CONST>
1

>  <SCORE.INTER.POLAR>
0

>  <SCORE.INTER.ROT>
11

>  <SCORE.INTER.SOLV>
5.22323

>  <SCORE.INTER.VDW>
-7.41875

>  <SCORE.INTER.norm>
0.563107

>  <SCORE.INTRA>
-9.62129

>  <SCORE.INTRA.DIHEDRAL>
-16.3027

>  <SCORE.INTRA.DIHEDRAL.0>
17.5233

>  <SCORE.INTRA.POLAR>
0

>  <SCORE.INTRA.POLAR.0>
0

>  <SCORE.INTRA.REPUL>
0

>  <SCORE.INTRA.REPUL.0>
0

>  <SCORE.INTRA.SOLV>
-2.38791

>  <SCORE.INTRA.SOLV.lig_0>
-46.1043

>  <SCORE.INTRA.VDW>
-0.275959

>  <SCORE.INTRA.VDW.0>
-0.545445

>  <SCORE.INTRA.norm>
-0.687235

>  <SCORE.RESTR>
0

>  <SCORE.RESTR.CAVITY>
0

>  <SCORE.RESTR.norm>
0

>  <SCORE.SYSTEM>
0

>  <SCORE.SYSTEM.CONST>
0

>  <SCORE.SYSTEM.DIHEDRAL>
0

>  <SCORE.SYSTEM.SOLV>
0

>  <SCORE.SYSTEM.norm>
0

>  <SCORE.heavy>
14

>  <SCORE.norm>
-0.124128

>  <RMSD>
5.707

$$$$
ligand
 OpenBabel11021811513D
libRbt.so/2013.1/901 2013/11/27
 14 13  0  0  0  0  0  0  0  0999 V2000
   22.3258   54.6593   42.0891 N   0  0  0  0  0  0  0  0  0  0  0  0
   22.8839   53.8956   40.9849 C   0  0  0  0  0  0  0  0  0  0  0  0
   21.8680   52.8779   40.4771 C   0  0  0  0  0  0  0  0  0  0  0  0
   22.4451   52.0463   39.3371 C   0  0  0  0  0  0  0  0  0  0  0  0
   22.8248   52.8532   38.1812 N   0  0  0  0  0  0  0  0  0  0  0  0
   22.8987   52.2608   36.8563 C   0  0  0  0  0  0  0  0  0  0  0  0
   24.2837   51.7130   36.5297 C   0  0  0  0  0  0  0  0  0  0  0  0
   24.6346   50.5778   37.4851 C   0  0  0  0  0  0  0  0  0  0  0  0
   26.0367   50.0615   37.1808 C   0  0  0  0  0  0  0  0  0  0  0  0
   27.0584   51.0526   37.4711 N   0  0  0  0  0  0  0  0  0  0  0  0
   28.3162   51.0206   36.7365 C   0  0  0  0  0  0  0  0  0  0  0  0
   29.1926   49.8033   37.0239 C   0  0  0  0  0  0  0  0  0  0  0  0
   30.4397   49.8145   36.1382 C   0  0  0  0  0  0  0  0  0  0  0  0
   31.2773   48.6649   36.4350 N   0  0  0  0  0  0  0  0  0  0  0  0
  1  2  1  0  0  0  0
  2  3  1  0  0  0  0
  3  4  1  0  0  0  0
  4  5  1  0  0  0  0
  5  6  1  0  0  0  0
  6  7  1  0  0  0  0
  7  8  1  0  0  0  0
  8  9  1  0  0  0  0
  9 10  1  0  0  0  0
 10 11  1  0  0  0  0
 11 12  1  0  0  0  0
 12 13  1  0  0  0  0
 13 14  1  0  0  0  0
M  END
>  <CHROM.1>
-178.80924916,-60.82508731,-156.18856597,-90.68368204,63.31538599,-178.32923946
66.46584853,-152.70017198,-67.08949769,176.16973423,179.04907496,25.46307843
51.52140648,38.06593847,-2.57162118,0.23207429,-2.01950953

>  <Name>
ligand

>  <RI>
0

>  <Rbt.Current_Directory>
/home/itssahil/PROJECTS/Mol_Feturizer/New_Systems/rnas/4P5J

>  <Rbt.Executable>
rbdock ($Id: //depot/dev/client3/rdock/2013.1/src/exe/rbdock.cxx#4 $)

>  <Rbt.Library>
libRbt.so (2013.1, Build901 2013/11/27)

>  <Rbt.Parameter_File>
/export/apps/rDock/src/rDock_2013.1_src/data/scripts/dock_solv.prm

>  <Rbt.Receptor>
prm/pocket_docking_6.prm

>  <SCORE>
-4.09137

>  <SCORE.INTER>
4.43415

>  <SCORE.INTER.CONST>
1

>  <SCORE.INTER.POLAR>
0

>  <SCORE.INTER.ROT>
11

>  <SCORE.INTER.SOLV>
6.62292

>  <SCORE.INTER.VDW>
-10.1849

>  <SCORE.INTER.norm>
0.316725

>  <SCORE.INTRA>
-8.52552

>  <SCORE.INTRA.DIHEDRAL>
-15.66

>  <SCORE.INTRA.DIHEDRAL.0>
17.5233

>  <SCORE.INTRA.POLAR>
0

>  <SCORE.INTRA.POLAR.0>
0

>  <SCORE.INTRA.REPUL>
0

>  <SCORE.INTRA.REPUL.0>
0

>  <SCORE.INTRA.SOLV>
-1.5232

>  <SCORE.INTRA.SOLV.lig_0>
-46.1043

>  <SCORE.INTRA.VDW>
0.0660777

>  <SCORE.INTRA.VDW.0>
-0.545445

>  <SCORE.INTRA.norm>
-0.608966

>  <SCORE.RESTR>
0

>  <SCORE.RESTR.CAVITY>
0

>  <SCORE.RESTR.norm>
0

>  <SCORE.SYSTEM>
0

>  <SCORE.SYSTEM.CONST>
0

>  <SCORE.SYSTEM.DIHEDRAL>
0

>  <SCORE.SYSTEM.SOLV>
0

>  <SCORE.SYSTEM.norm>
0

>  <SCORE.heavy>
14

>  <SCORE.norm>
-0.292241

>  <RMSD>
5.737

$$$$
ligand
 OpenBabel11021811513D
libRbt.so/2013.1/901 2013/11/27
 14 13  0  0  0  0  0  0  0  0999 V2000
   31.0101   50.0803   32.6756 N   0  0  0  0  0  0  0  0  0  0  0  0
   30.7662   49.3347   33.8998 C   0  0  0  0  0  0  0  0  0  0  0  0
   29.9360   50.1670   34.8712 C   0  0  0  0  0  0  0  0  0  0  0  0
   29.7599   49.4456   36.2026 C   0  0  0  0  0  0  0  0  0  0  0  0
   28.8779   50.1580   37.1222 N   0  0  0  0  0  0  0  0  0  0  0  0
   28.6206   49.6378   38.4545 C   0  0  0  0  0  0  0  0  0  0  0  0
   27.4343   50.3127   39.1342 C   0  0  0  0  0  0  0  0  0  0  0  0
   26.1435   49.9574   38.4049 C   0  0  0  0  0  0  0  0  0  0  0  0
   26.0122   50.8055   37.1445 C   0  0  0  0  0  0  0  0  0  0  0  0
   24.7531   50.5725   36.4584 N   0  0  0  0  0  0  0  0  0  0  0  0
   24.1807   51.6287   35.6341 C   0  0  0  0  0  0  0  0  0  0  0  0
   23.3422   52.6512   36.3982 C   0  0  0  0  0  0  0  0  0  0  0  0
   22.8382   53.7472   35.4577 C   0  0  0  0  0  0  0  0  0  0  0  0
   23.9581   54.4920   34.9078 N   0  0  0  0  0  0  0  0  0  0  0  0
  1  2  1  0  0  0  0
  2  3  1  0  0  0  0
  3  4  1  0  0  0  0
  4  5  1  0  0  0  0
  5  6  1  0  0  0  0
  6  7  1  0  0  0  0
  7  8  1  0  0  0  0
  8  9  1  0  0  0  0
  9 10  1  0  0  0  0
 10 11  1  0  0  0  0
 11 12  1  0  0  0  0
 12 13  1  0  0  0  0
 13 14  1  0  0  0  0
M  END
>  <CHROM.1>
-175.62755814,-175.19393041,-178.36158555,-165.92882035,67.02291519,-78.82908334
-176.05016168,153.14049998,-84.68949932,177.56978212,-63.51312720,26.97371964
50.92773751,36.19791939,-0.05002155,0.46098211,-1.18509076

>  <Name>
ligand

>  <RI>
0

>  <Rbt.Current_Directory>
/home/itssahil/PROJECTS/Mol_Feturizer/New_Systems/rnas/4P5J

>  <Rbt.Executable>
rbdock ($Id: //depot/dev/client3/rdock/2013.1/src/exe/rbdock.cxx#4 $)

>  <Rbt.Library>
libRbt.so (2013.1, Build901 2013/11/27)

>  <Rbt.Parameter_File>
/export/apps/rDock/src/rDock_2013.1_src/data/scripts/dock_solv.prm

>  <Rbt.Receptor>
prm/pocket_docking_7.prm

>  <SCORE>
-4.67425

>  <SCORE.INTER>
3.04588

>  <SCORE.INTER.CONST>
1

>  <SCORE.INTER.POLAR>
0

>  <SCORE.INTER.ROT>
11

>  <SCORE.INTER.SOLV>
8.29593

>  <SCORE.INTER.VDW>
-11.6681

>  <SCORE.INTER.norm>
0.217563

>  <SCORE.INTRA>
-7.72284

>  <SCORE.INTRA.DIHEDRAL>
-14.5867

>  <SCORE.INTRA.DIHEDRAL.0>
17.5233

>  <SCORE.INTRA.POLAR>
0

>  <SCORE.INTRA.POLAR.0>
0

>  <SCORE.INTRA.REPUL>
0

>  <SCORE.INTRA.REPUL.0>
0

>  <SCORE.INTRA.SOLV>
-0.775922

>  <SCORE.INTRA.SOLV.lig_0>
-46.1043

>  <SCORE.INTRA.VDW>
-0.0415166

>  <SCORE.INTRA.VDW.0>
-0.545445

>  <SCORE.INTRA.norm>
-0.551631

>  <SCORE.RESTR>
0.00271274

>  <SCORE.RESTR.CAVITY>
0.00271274

>  <SCORE.RESTR.norm>
0.000193767

>  <SCORE.SYSTEM>
0

>  <SCORE.SYSTEM.CONST>
0

>  <SCORE.SYSTEM.DIHEDRAL>
0

>  <SCORE.SYSTEM.SOLV>
0

>  <SCORE.SYSTEM.norm>
0

>  <SCORE.heavy>
14

>  <SCORE.norm>
-0.333875

>  <RMSD>
5.746

$$$$
ligand
 OpenBabel11021811513D
libRbt.so/2013.1/901 2013/11/27
 14 13  0  0  0  0  0  0  0  0999 V2000
   31.6971   49.1661   38.1984 N   0  0  0  0  0  0  0  0  0  0  0  0
   30.5858   49.7898   37.4985 C   0  0  0  0  0  0  0  0  0  0  0  0
   29.2684   49.4539   38.1895 C   0  0  0  0  0  0  0  0  0  0  0  0
   28.0878   50.0840   37.4593 C   0  0  0  0  0  0  0  0  0  0  0  0
   26.8036   49.7688   38.0779 N   0  0  0  0  0  0  0  0  0  0  0  0
   26.2840   50.5842   39.1629 C   0  0  0  0  0  0  0  0  0  0  0  0
   25.2699   49.8426   40.0269 C   0  0  0  0  0  0  0  0  0  0  0  0
   24.0889   49.3916   39.1746 C   0  0  0  0  0  0  0  0  0  0  0  0
   23.0517   48.7009   40.0534 C   0  0  0  0  0  0  0  0  0  0  0  0
   22.4209   49.6236   40.9814 N   0  0  0  0  0  0  0  0  0  0  0  0
   21.3404   50.4820   40.5143 C   0  0  0  0  0  0  0  0  0  0  0  0
   21.1892   51.7932   41.2825 C   0  0  0  0  0  0  0  0  0  0  0  0
   22.4071   52.6919   41.0619 C   0  0  0  0  0  0  0  0  0  0  0  0
   22.2675   53.9230   41.8210 N   0  0  0  0  0  0  0  0  0  0  0  0
  1  2  1  0  0  0  0
  2  3  1  0  0  0  0
  3  4  1  0  0  0  0
  4  5  1  0  0  0  0
  5  6  1  0  0  0  0
  6  7  1  0  0  0  0
  7  8  1  0  0  0  0
  8  9  1  0  0  0  0
  9 10  1  0  0  0  0
 10 11  1  0  0  0  0
 11 12  1  0  0  0  0
 12 13  1  0  0  0  0
 13 14  1  0  0  0  0
M  END
>  <CHROM.1>
-179.24508380,179.10585823,86.59129769,-157.47445373,-59.52579911,-177.70084379
67.34015200,80.59390802,-152.88315745,66.00174254,-178.69641019,25.33997866
50.37816189,39.53579686,-0.31974343,0.29757078,0.29842211

>  <Name>
ligand

>  <RI>
0

>  <Rbt.Current_Directory>
/home/itssahil/PROJECTS/Mol_Feturizer/New_Systems/rnas/4P5J

>  <Rbt.Executable>
rbdock ($Id: //depot/dev/client3/rdock/2013.1/src/exe/rbdock.cxx#4 $)

>  <Rbt.Library>
libRbt.so (2013.1, Build901 2013/11/27)

>  <Rbt.Parameter_File>
/export/apps/rDock/src/rDock_2013.1_src/data/scripts/dock_solv.prm

>  <Rbt.Receptor>
prm/pocket_docking_6.prm

>  <SCORE>
-3.83046

>  <SCORE.INTER>
5.22513

>  <SCORE.INTER.CONST>
1

>  <SCORE.INTER.POLAR>
0

>  <SCORE.INTER.ROT>
11

>  <SCORE.INTER.SOLV>
5.4255

>  <SCORE.INTER.VDW>
-9.25841

>  <SCORE.INTER.norm>
0.373224

>  <SCORE.INTRA>
-9.05559

>  <SCORE.INTRA.DIHEDRAL>
-15.4615

>  <SCORE.INTRA.DIHEDRAL.0>
17.5233

>  <SCORE.INTRA.POLAR>
0

>  <SCORE.INTRA.POLAR.0>
0

>  <SCORE.INTRA.REPUL>
0

>  <SCORE.INTRA.REPUL.0>
0

>  <SCORE.INTRA.SOLV>
-1.58956

>  <SCORE.INTRA.SOLV.lig_0>
-46.1043

>  <SCORE.INTRA.VDW>
-0.530064

>  <SCORE.INTRA.VDW.0>
-0.545445

>  <SCORE.INTRA.norm>
-0.646828

>  <SCORE.RESTR>
0

>  <SCORE.RESTR.CAVITY>
0

>  <SCORE.RESTR.norm>
0

>  <SCORE.SYSTEM>
0

>  <SCORE.SYSTEM.CONST>
0

>  <SCORE.SYSTEM.DIHEDRAL>
0

>  <SCORE.SYSTEM.SOLV>
0

>  <SCORE.SYSTEM.norm>
0

>  <SCORE.heavy>
14

>  <SCORE.norm>
-0.273605

>  <RMSD>
5.749

$$$$
ligand
 OpenBabel11021811513D
libRbt.so/2013.1/901 2013/11/27
 14 13  0  0  0  0  0  0  0  0999 V2000
   30.8699   44.3484   43.5295 N   0  0  0  0  0  0  0  0  0  0  0  0
   30.0409   45.1720   42.6645 C   0  0  0  0  0  0  0  0  0  0  0  0
   30.8635   45.7125   41.4996 C   0  0  0  0  0  0  0  0  0  0  0  0
   30.0128   46.5849   40.5834 C   0  0  0  0  0  0  0  0  0  0  0  0
   30.7764   47.1673   39.4839 N   0  0  0  0  0  0  0  0  0  0  0  0
   31.2589   46.3351   38.3946 C   0  0  0  0  0  0  0  0  0  0  0  0
   31.7541   47.1481   37.2036 C   0  0  0  0  0  0  0  0  0  0  0  0
   32.2548   46.2151   36.1067 C   0  0  0  0  0  0  0  0  0  0  0  0
   32.7594   47.0334   34.9231 C   0  0  0  0  0  0  0  0  0  0  0  0
   31.6718   47.6434   34.1778 N   0  0  0  0  0  0  0  0  0  0  0  0
   31.2445   48.9954   34.5123 C   0  0  0  0  0  0  0  0  0  0  0  0
   30.0433   49.5007   33.7160 C   0  0  0  0  0  0  0  0  0  0  0  0
   29.6448   50.9052   34.1726 C   0  0  0  0  0  0  0  0  0  0  0  0
   30.6986   51.8544   33.8566 N   0  0  0  0  0  0  0  0  0  0  0  0
  1  2  1  0  0  0  0
  2  3  1  0  0  0  0
  3  4  1  0  0  0  0
  4  5  1  0  0  0  0
  5  6  1  0  0  0  0
  6  7  1  0  0  0  0
  7  8  1  0  0  0  0
  8  9  1  0  0  0  0
  9 10  1  0  0  0  0
 10 11  1  0  0  0  0
 11 12  1  0  0  0  0
 12 13  1  0  0  0  0
 13 14  1  0  0  0  0
M  END
>  <CHROM.1>
-179.73993437,177.65264812,70.78903683,167.17320959,179.51983982,-179.53312142
-72.57731899,92.69948040,-176.69678694,178.07860847,65.56900163,30.99240377
47.47243624,37.48732205,1.61706682,-0.91638250,2.10803954

>  <Name>
ligand

>  <RI>
0

>  <Rbt.Current_Directory>
/home/itssahil/PROJECTS/Mol_Feturizer/New_Systems/rnas/4P5J

>  <Rbt.Executable>
rbdock ($Id: //depot/dev/client3/rdock/2013.1/src/exe/rbdock.cxx#4 $)

>  <Rbt.Library>
libRbt.so (2013.1, Build901 2013/11/27)

>  <Rbt.Parameter_File>
/export/apps/rDock/src/rDock_2013.1_src/data/scripts/dock_solv.prm

>  <Rbt.Receptor>
prm/pocket_docking_5.prm

>  <SCORE>
-2.12046

>  <SCORE.INTER>
6.74342

>  <SCORE.INTER.CONST>
1

>  <SCORE.INTER.POLAR>
0

>  <SCORE.INTER.ROT>
11

>  <SCORE.INTER.SOLV>
7.33992

>  <SCORE.INTER.VDW>
-8.88436

>  <SCORE.INTER.norm>
0.481673

>  <SCORE.INTRA>
-8.86388

>  <SCORE.INTRA.DIHEDRAL>
-15.8758

>  <SCORE.INTRA.DIHEDRAL.0>
17.5233

>  <SCORE.INTRA.POLAR>
0

>  <SCORE.INTRA.POLAR.0>
0

>  <SCORE.INTRA.REPUL>
0

>  <SCORE.INTRA.REPUL.0>
0

>  <SCORE.INTRA.SOLV>
-1.60529

>  <SCORE.INTRA.SOLV.lig_0>
-46.1043

>  <SCORE.INTRA.VDW>
-0.123338

>  <SCORE.INTRA.VDW.0>
-0.545445

>  <SCORE.INTRA.norm>
-0.633134

>  <SCORE.RESTR>
0

>  <SCORE.RESTR.CAVITY>
0

>  <SCORE.RESTR.norm>
0

>  <SCORE.SYSTEM>
0

>  <SCORE.SYSTEM.CONST>
0

>  <SCORE.SYSTEM.DIHEDRAL>
0

>  <SCORE.SYSTEM.SOLV>
0

>  <SCORE.SYSTEM.norm>
0

>  <SCORE.heavy>
14

>  <SCORE.norm>
-0.151462

>  <RMSD>
5.758

$$$$
ligand
 OpenBabel11021811513D
libRbt.so/2013.1/901 2013/11/27
 14 13  0  0  0  0  0  0  0  0999 V2000
   29.2704   49.2784   42.0399 N   0  0  0  0  0  0  0  0  0  0  0  0
   28.8480   48.1611   41.2110 C   0  0  0  0  0  0  0  0  0  0  0  0
   29.2214   48.4111   39.7536 C   0  0  0  0  0  0  0  0  0  0  0  0
   28.4549   49.6003   39.1856 C   0  0  0  0  0  0  0  0  0  0  0  0
   27.0118   49.3825   39.1528 N   0  0  0  0  0  0  0  0  0  0  0  0
   26.1549   50.2190   38.3295 C   0  0  0  0  0  0  0  0  0  0  0  0
   24.6835   49.8301   38.4216 C   0  0  0  0  0  0  0  0  0  0  0  0
   24.1521   50.1255   39.8198 C   0  0  0  0  0  0  0  0  0  0  0  0
   22.7170   49.6252   39.9433 C   0  0  0  0  0  0  0  0  0  0  0  0
   22.0990   50.0417   41.1903 N   0  0  0  0  0  0  0  0  0  0  0  0
   21.3553   51.2936   41.2377 C   0  0  0  0  0  0  0  0  0  0  0  0
   22.2167   52.5411   41.4223 C   0  0  0  0  0  0  0  0  0  0  0  0
   21.3436   53.7954   41.4878 C   0  0  0  0  0  0  0  0  0  0  0  0
   22.1643   54.9662   41.7463 N   0  0  0  0  0  0  0  0  0  0  0  0
  1  2  1  0  0  0  0
  2  3  1  0  0  0  0
  3  4  1  0  0  0  0
  4  5  1  0  0  0  0
  5  6  1  0  0  0  0
  6  7  1  0  0  0  0
  7  8  1  0  0  0  0
  8  9  1  0  0  0  0
  9 10  1  0  0  0  0
 10 11  1  0  0  0  0
 11 12  1  0  0  0  0
 12 13  1  0  0  0  0
 13 14  1  0  0  0  0
M  END
>  <CHROM.1>
-65.22778917,-63.34591418,-163.07650595,179.58246860,67.21876172,-175.15547915
-172.13222973,91.15821952,-82.19467452,-178.84997528,176.47308032,24.97798540
50.51921665,40.35269196,-0.47502071,-0.23338955,0.71925930

>  <Name>
ligand

>  <RI>
0

>  <Rbt.Current_Directory>
/home/itssahil/PROJECTS/Mol_Feturizer/New_Systems/rnas/4P5J

>  <Rbt.Executable>
rbdock ($Id: //depot/dev/client3/rdock/2013.1/src/exe/rbdock.cxx#4 $)

>  <Rbt.Library>
libRbt.so (2013.1, Build901 2013/11/27)

>  <Rbt.Parameter_File>
/export/apps/rDock/src/rDock_2013.1_src/data/scripts/dock_solv.prm

>  <Rbt.Receptor>
prm/pocket_docking_6.prm

>  <SCORE>
-3.01269

>  <SCORE.INTER>
5.49769

>  <SCORE.INTER.CONST>
1

>  <SCORE.INTER.POLAR>
0

>  <SCORE.INTER.ROT>
11

>  <SCORE.INTER.SOLV>
5.12404

>  <SCORE.INTER.VDW>
-8.97622

>  <SCORE.INTER.norm>
0.392692

>  <SCORE.INTRA>
-8.51038

>  <SCORE.INTRA.DIHEDRAL>
-15.5841

>  <SCORE.INTRA.DIHEDRAL.0>
17.5233

>  <SCORE.INTRA.POLAR>
0

>  <SCORE.INTRA.POLAR.0>
0

>  <SCORE.INTRA.REPUL>
0

>  <SCORE.INTRA.REPUL.0>
0

>  <SCORE.INTRA.SOLV>
-0.622199

>  <SCORE.INTRA.SOLV.lig_0>
-46.1043

>  <SCORE.INTRA.VDW>
-0.407226

>  <SCORE.INTRA.VDW.0>
-0.545445

>  <SCORE.INTRA.norm>
-0.607884

>  <SCORE.RESTR>
0

>  <SCORE.RESTR.CAVITY>
0

>  <SCORE.RESTR.norm>
0

>  <SCORE.SYSTEM>
0

>  <SCORE.SYSTEM.CONST>
0

>  <SCORE.SYSTEM.DIHEDRAL>
0

>  <SCORE.SYSTEM.SOLV>
0

>  <SCORE.SYSTEM.norm>
0

>  <SCORE.heavy>
14

>  <SCORE.norm>
-0.215192

>  <RMSD>
5.798

$$$$
ligand
 OpenBabel11021811513D
libRbt.so/2013.1/901 2013/11/27
 14 13  0  0  0  0  0  0  0  0999 V2000
   30.9785   49.8566   39.9078 N   0  0  0  0  0  0  0  0  0  0  0  0
   30.4106   48.5716   39.5336 C   0  0  0  0  0  0  0  0  0  0  0  0
   28.8901   48.6110   39.6453 C   0  0  0  0  0  0  0  0  0  0  0  0
   28.2889   49.5784   38.6318 C   0  0  0  0  0  0  0  0  0  0  0  0
   26.8292   49.5853   38.6502 N   0  0  0  0  0  0  0  0  0  0  0  0
   26.0778   50.2063   37.5724 C   0  0  0  0  0  0  0  0  0  0  0  0
   24.5770   50.2387   37.8398 C   0  0  0  0  0  0  0  0  0  0  0  0
   24.2874   51.0593   39.0916 C   0  0  0  0  0  0  0  0  0  0  0  0
   22.7935   51.0280   39.3956 C   0  0  0  0  0  0  0  0  0  0  0  0
   22.4704   51.7402   40.6198 N   0  0  0  0  0  0  0  0  0  0  0  0
   21.0983   51.7358   41.1098 C   0  0  0  0  0  0  0  0  0  0  0  0
   20.8329   52.6892   42.2730 C   0  0  0  0  0  0  0  0  0  0  0  0
   21.0891   54.1376   41.8534 C   0  0  0  0  0  0  0  0  0  0  0  0
   20.9231   55.0272   42.9902 N   0  0  0  0  0  0  0  0  0  0  0  0
  1  2  1  0  0  0  0
  2  3  1  0  0  0  0
  3  4  1  0  0  0  0
  4  5  1  0  0  0  0
  5  6  1  0  0  0  0
  6  7  1  0  0  0  0
  7  8  1  0  0  0  0
  8  9  1  0  0  0  0
  9 10  1  0  0  0  0
 10 11  1  0  0  0  0
 11 12  1  0  0  0  0
 12 13  1  0  0  0  0
 13 14  1  0  0  0  0
M  END
>  <CHROM.1>
65.60353331,176.49476990,-166.22361257,-174.09534399,61.47691780,-177.06213229
177.09159329,-175.94315593,-170.86346072,61.89347689,-176.10009982,24.96747904
51.00443343,39.93648672,-0.48500491,-0.23881766,1.00192027

>  <Name>
ligand

>  <RI>
0

>  <Rbt.Current_Directory>
/home/itssahil/PROJECTS/Mol_Feturizer/New_Systems/rnas/4P5J

>  <Rbt.Executable>
rbdock ($Id: //depot/dev/client3/rdock/2013.1/src/exe/rbdock.cxx#4 $)

>  <Rbt.Library>
libRbt.so (2013.1, Build901 2013/11/27)

>  <Rbt.Parameter_File>
/export/apps/rDock/src/rDock_2013.1_src/data/scripts/dock_solv.prm

>  <Rbt.Receptor>
prm/pocket_docking_6.prm

>  <SCORE>
-4.15429

>  <SCORE.INTER>
5.37855

>  <SCORE.INTER.CONST>
1

>  <SCORE.INTER.POLAR>
0

>  <SCORE.INTER.ROT>
11

>  <SCORE.INTER.SOLV>
5.14638

>  <SCORE.INTER.VDW>
-9.06309

>  <SCORE.INTER.norm>
0.384182

>  <SCORE.INTRA>
-9.53284

>  <SCORE.INTRA.DIHEDRAL>
-16.953

>  <SCORE.INTRA.DIHEDRAL.0>
17.5233

>  <SCORE.INTRA.POLAR>
0

>  <SCORE.INTRA.POLAR.0>
0

>  <SCORE.INTRA.REPUL>
0

>  <SCORE.INTRA.REPUL.0>
0

>  <SCORE.INTRA.SOLV>
-1.17564

>  <SCORE.INTRA.SOLV.lig_0>
-46.1043

>  <SCORE.INTRA.VDW>
-0.468505

>  <SCORE.INTRA.VDW.0>
-0.545445

>  <SCORE.INTRA.norm>
-0.680917

>  <SCORE.RESTR>
0

>  <SCORE.RESTR.CAVITY>
0

>  <SCORE.RESTR.norm>
0

>  <SCORE.SYSTEM>
0

>  <SCORE.SYSTEM.CONST>
0

>  <SCORE.SYSTEM.DIHEDRAL>
0

>  <SCORE.SYSTEM.SOLV>
0

>  <SCORE.SYSTEM.norm>
0

>  <SCORE.heavy>
14

>  <SCORE.norm>
-0.296735

>  <RMSD>
5.798

$$$$
ligand
 OpenBabel11021811513D
libRbt.so/2013.1/901 2013/11/27
 14 13  0  0  0  0  0  0  0  0999 V2000
   23.1503   49.7688   41.9594 N   0  0  0  0  0  0  0  0  0  0  0  0
   22.4965   49.3287   40.7376 C   0  0  0  0  0  0  0  0  0  0  0  0
   21.4673   50.3595   40.2859 C   0  0  0  0  0  0  0  0  0  0  0  0
   22.1432   51.6445   39.8209 C   0  0  0  0  0  0  0  0  0  0  0  0
   23.0594   51.4322   38.7043 N   0  0  0  0  0  0  0  0  0  0  0  0
   23.0564   52.3311   37.5624 C   0  0  0  0  0  0  0  0  0  0  0  0
   24.4029   52.3861   36.8493 C   0  0  0  0  0  0  0  0  0  0  0  0
   24.6894   51.0509   36.1714 C   0  0  0  0  0  0  0  0  0  0  0  0
   25.1332   50.0282   37.2116 C   0  0  0  0  0  0  0  0  0  0  0  0
   26.4164   50.3701   37.8006 N   0  0  0  0  0  0  0  0  0  0  0  0
   26.9548   49.5441   38.8732 C   0  0  0  0  0  0  0  0  0  0  0  0
   28.4776   49.5599   38.9882 C   0  0  0  0  0  0  0  0  0  0  0  0
   28.9491   48.5678   40.0527 C   0  0  0  0  0  0  0  0  0  0  0  0
   30.3976   48.5995   40.1629 N   0  0  0  0  0  0  0  0  0  0  0  0
  1  2  1  0  0  0  0
  2  3  1  0  0  0  0
  3  4  1  0  0  0  0
  4  5  1  0  0  0  0
  5  6  1  0  0  0  0
  6  7  1  0  0  0  0
  7  8  1  0  0  0  0
  8  9  1  0  0  0  0
  9 10  1  0  0  0  0
 10 11  1  0  0  0  0
 11 12  1  0  0  0  0
 12 13  1  0  0  0  0
 13 14  1  0  0  0  0
M  END
>  <CHROM.1>
68.27566106,59.53490968,135.14205241,153.39268330,67.92033780,-76.78035993
-66.49456183,176.30311053,153.53590638,-174.76883810,-179.47395084,25.05645363
50.35524311,38.94116840,2.98108079,0.26785721,-1.10360234

>  <Name>
ligand

>  <RI>
0

>  <Rbt.Current_Directory>
/home/itssahil/PROJECTS/Mol_Feturizer/New_Systems/rnas/4P5J

>  <Rbt.Executable>
rbdock ($Id: //depot/dev/client3/rdock/2013.1/src/exe/rbdock.cxx#4 $)

>  <Rbt.Library>
libRbt.so (2013.1, Build901 2013/11/27)

>  <Rbt.Parameter_File>
/export/apps/rDock/src/rDock_2013.1_src/data/scripts/dock_solv.prm

>  <Rbt.Receptor>
prm/pocket_docking_6.prm

>  <SCORE>
-4.40274

>  <SCORE.INTER>
2.14683

>  <SCORE.INTER.CONST>
1

>  <SCORE.INTER.POLAR>
0

>  <SCORE.INTER.ROT>
11

>  <SCORE.INTER.SOLV>
6.42444

>  <SCORE.INTER.VDW>
-11.6436

>  <SCORE.INTER.norm>
0.153345

>  <SCORE.INTRA>
-6.54957

>  <SCORE.INTRA.DIHEDRAL>
-13.6486

>  <SCORE.INTRA.DIHEDRAL.0>
17.5233

>  <SCORE.INTRA.POLAR>
0

>  <SCORE.INTRA.POLAR.0>
0

>  <SCORE.INTRA.REPUL>
0

>  <SCORE.INTRA.REPUL.0>
0

>  <SCORE.INTRA.SOLV>
0.971138

>  <SCORE.INTRA.SOLV.lig_0>
-46.1043

>  <SCORE.INTRA.VDW>
-0.210853

>  <SCORE.INTRA.VDW.0>
-0.545445

>  <SCORE.INTRA.norm>
-0.467826

>  <SCORE.RESTR>
0

>  <SCORE.RESTR.CAVITY>
0

>  <SCORE.RESTR.norm>
0

>  <SCORE.SYSTEM>
0

>  <SCORE.SYSTEM.CONST>
0

>  <SCORE.SYSTEM.DIHEDRAL>
0

>  <SCORE.SYSTEM.SOLV>
0

>  <SCORE.SYSTEM.norm>
0

>  <SCORE.heavy>
14

>  <SCORE.norm>
-0.314481

>  <RMSD>
5.824

$$$$
ligand
 OpenBabel11021811513D
libRbt.so/2013.1/901 2013/11/27
 14 13  0  0  0  0  0  0  0  0999 V2000
   30.9037   48.0614   39.8180 N   0  0  0  0  0  0  0  0  0  0  0  0
   29.8736   48.9415   39.2906 C   0  0  0  0  0  0  0  0  0  0  0  0
   29.9772   49.0285   37.7716 C   0  0  0  0  0  0  0  0  0  0  0  0
   28.9819   50.0371   37.2091 C   0  0  0  0  0  0  0  0  0  0  0  0
   27.5924   49.6439   37.4236 N   0  0  0  0  0  0  0  0  0  0  0  0
   26.5205   50.6184   37.3083 C   0  0  0  0  0  0  0  0  0  0  0  0
   25.1357   49.9910   37.4236 C   0  0  0  0  0  0  0  0  0  0  0  0
   24.0706   51.0811   37.4649 C   0  0  0  0  0  0  0  0  0  0  0  0
   23.9430   51.7308   36.0913 C   0  0  0  0  0  0  0  0  0  0  0  0
   23.0137   52.8474   36.0997 N   0  0  0  0  0  0  0  0  0  0  0  0
   22.9994   53.7754   34.9767 C   0  0  0  0  0  0  0  0  0  0  0  0
   23.0072   55.2516   35.3683 C   0  0  0  0  0  0  0  0  0  0  0  0
   24.2863   55.6013   36.1308 C   0  0  0  0  0  0  0  0  0  0  0  0
   24.2786   57.0043   36.5085 N   0  0  0  0  0  0  0  0  0  0  0  0
  1  2  1  0  0  0  0
  2  3  1  0  0  0  0
  3  4  1  0  0  0  0
  4  5  1  0  0  0  0
  5  6  1  0  0  0  0
  6  7  1  0  0  0  0
  7  8  1  0  0  0  0
  8  9  1  0  0  0  0
  9 10  1  0  0  0  0
 10 11  1  0  0  0  0
 11 12  1  0  0  0  0
 12 13  1  0  0  0  0
 13 14  1  0  0  0  0
M  END
>  <CHROM.1>
-175.21022103,-64.73000052,162.56344262,174.02891700,173.13737877,71.30275053
-175.56578807,165.64875500,-132.61787329,62.35663917,-179.51317803,26.04152868
51.68660925,37.06305235,-0.75632125,-0.31914215,-0.11541475

>  <Name>
ligand

>  <RI>
0

>  <Rbt.Current_Directory>
/home/itssahil/PROJECTS/Mol_Feturizer/New_Systems/rnas/4P5J

>  <Rbt.Executable>
rbdock ($Id: //depot/dev/client3/rdock/2013.1/src/exe/rbdock.cxx#4 $)

>  <Rbt.Library>
libRbt.so (2013.1, Build901 2013/11/27)

>  <Rbt.Parameter_File>
/export/apps/rDock/src/rDock_2013.1_src/data/scripts/dock_solv.prm

>  <Rbt.Receptor>
prm/pocket_docking_8.prm

>  <SCORE>
-5.10307

>  <SCORE.INTER>
3.43608

>  <SCORE.INTER.CONST>
1

>  <SCORE.INTER.POLAR>
0

>  <SCORE.INTER.ROT>
11

>  <SCORE.INTER.SOLV>
8.12316

>  <SCORE.INTER.VDW>
-11.3503

>  <SCORE.INTER.norm>
0.245434

>  <SCORE.INTRA>
-8.53915

>  <SCORE.INTRA.DIHEDRAL>
-15.0625

>  <SCORE.INTRA.DIHEDRAL.0>
17.5233

>  <SCORE.INTRA.POLAR>
0

>  <SCORE.INTRA.POLAR.0>
0

>  <SCORE.INTRA.REPUL>
0

>  <SCORE.INTRA.REPUL.0>
0

>  <SCORE.INTRA.SOLV>
-1.80312

>  <SCORE.INTRA.SOLV.lig_0>
-46.1043

>  <SCORE.INTRA.VDW>
-0.106322

>  <SCORE.INTRA.VDW.0>
-0.545445

>  <SCORE.INTRA.norm>
-0.609939

>  <SCORE.RESTR>
0

>  <SCORE.RESTR.CAVITY>
0

>  <SCORE.RESTR.norm>
0

>  <SCORE.SYSTEM>
0

>  <SCORE.SYSTEM.CONST>
0

>  <SCORE.SYSTEM.DIHEDRAL>
0

>  <SCORE.SYSTEM.SOLV>
0

>  <SCORE.SYSTEM.norm>
0

>  <SCORE.heavy>
14

>  <SCORE.norm>
-0.364505

>  <RMSD>
5.880

$$$$
ligand
 OpenBabel11021811513D
libRbt.so/2013.1/901 2013/11/27
 14 13  0  0  0  0  0  0  0  0999 V2000
   31.1811   50.0437   34.4780 N   0  0  0  0  0  0  0  0  0  0  0  0
   30.5365   49.3652   35.5907 C   0  0  0  0  0  0  0  0  0  0  0  0
   29.5029   50.2783   36.2416 C   0  0  0  0  0  0  0  0  0  0  0  0
   28.8483   49.6014   37.4406 C   0  0  0  0  0  0  0  0  0  0  0  0
   27.7965   50.4126   38.0463 N   0  0  0  0  0  0  0  0  0  0  0  0
   26.4937   50.5293   37.4132 C   0  0  0  0  0  0  0  0  0  0  0  0
   25.4027   50.9723   38.3820 C   0  0  0  0  0  0  0  0  0  0  0  0
   24.0896   51.1719   37.6334 C   0  0  0  0  0  0  0  0  0  0  0  0
   22.9712   51.4755   38.6244 C   0  0  0  0  0  0  0  0  0  0  0  0
   23.1677   52.7484   39.2964 N   0  0  0  0  0  0  0  0  0  0  0  0
   22.1805   53.2066   40.2650 C   0  0  0  0  0  0  0  0  0  0  0  0
   22.1782   54.7140   40.5097 C   0  0  0  0  0  0  0  0  0  0  0  0
   21.0684   55.1005   41.4889 C   0  0  0  0  0  0  0  0  0  0  0  0
   21.0599   56.5385   41.6970 N   0  0  0  0  0  0  0  0  0  0  0  0
  1  2  1  0  0  0  0
  2  3  1  0  0  0  0
  3  4  1  0  0  0  0
  4  5  1  0  0  0  0
  5  6  1  0  0  0  0
  6  7  1  0  0  0  0
  7  8  1  0  0  0  0
  8  9  1  0  0  0  0
  9 10  1  0  0  0  0
 10 11  1  0  0  0  0
 11 12  1  0  0  0  0
 12 13  1  0  0  0  0
 13 14  1  0  0  0  0
M  END
>  <CHROM.1>
-178.10524514,-176.67105391,76.01147693,159.51212821,175.88878890,174.25324947
65.88990966,179.10353116,-157.96411487,177.37823826,-179.01780603,25.46251867
51.86820250,38.36481083,-0.64029993,0.29438084,0.41151992

>  <Name>
ligand

>  <RI>
0

>  <Rbt.Current_Directory>
/home/itssahil/PROJECTS/Mol_Feturizer/New_Systems/rnas/4P5J

>  <Rbt.Executable>
rbdock ($Id: //depot/dev/client3/rdock/2013.1/src/exe/rbdock.cxx#4 $)

>  <Rbt.Library>
libRbt.so (2013.1, Build901 2013/11/27)

>  <Rbt.Parameter_File>
/export/apps/rDock/src/rDock_2013.1_src/data/scripts/dock_solv.prm

>  <Rbt.Receptor>
prm/pocket_docking_7.prm

>  <SCORE>
-3.80917

>  <SCORE.INTER>
5.91919

>  <SCORE.INTER.CONST>
1

>  <SCORE.INTER.POLAR>
0

>  <SCORE.INTER.ROT>
11

>  <SCORE.INTER.SOLV>
4.3695

>  <SCORE.INTER.VDW>
-8.44371

>  <SCORE.INTER.norm>
0.422799

>  <SCORE.INTRA>
-9.72837

>  <SCORE.INTRA.DIHEDRAL>
-16.2371

>  <SCORE.INTRA.DIHEDRAL.0>
17.5233

>  <SCORE.INTRA.POLAR>
0

>  <SCORE.INTRA.POLAR.0>
0

>  <SCORE.INTRA.REPUL>
0

>  <SCORE.INTRA.REPUL.0>
0

>  <SCORE.INTRA.SOLV>
-2.33731

>  <SCORE.INTRA.SOLV.lig_0>
-46.1043

>  <SCORE.INTRA.VDW>
-0.441176

>  <SCORE.INTRA.VDW.0>
-0.545445

>  <SCORE.INTRA.norm>
-0.694883

>  <SCORE.RESTR>
0

>  <SCORE.RESTR.CAVITY>
0

>  <SCORE.RESTR.norm>
0

>  <SCORE.SYSTEM>
0

>  <SCORE.SYSTEM.CONST>
0

>  <SCORE.SYSTEM.DIHEDRAL>
0

>  <SCORE.SYSTEM.SOLV>
0

>  <SCORE.SYSTEM.norm>
0

>  <SCORE.heavy>
14

>  <SCORE.norm>
-0.272084

>  <RMSD>
5.901

$$$$
ligand
 OpenBabel11021811513D
libRbt.so/2013.1/901 2013/11/27
 14 13  0  0  0  0  0  0  0  0999 V2000
   20.9713   54.5692   43.2860 N   0  0  0  0  0  0  0  0  0  0  0  0
   21.1091   53.8238   42.0453 C   0  0  0  0  0  0  0  0  0  0  0  0
   20.8899   52.3352   42.2940 C   0  0  0  0  0  0  0  0  0  0  0  0
   21.1089   51.5265   41.0203 C   0  0  0  0  0  0  0  0  0  0  0  0
   22.4848   51.5904   40.5366 N   0  0  0  0  0  0  0  0  0  0  0  0
   22.7906   51.3415   39.1379 C   0  0  0  0  0  0  0  0  0  0  0  0
   24.1912   50.7756   38.9302 C   0  0  0  0  0  0  0  0  0  0  0  0
   24.5117   50.7091   37.4411 C   0  0  0  0  0  0  0  0  0  0  0  0
   25.9089   50.1330   37.2388 C   0  0  0  0  0  0  0  0  0  0  0  0
   26.9334   50.9540   37.8607 N   0  0  0  0  0  0  0  0  0  0  0  0
   28.2804   50.4214   38.0174 C   0  0  0  0  0  0  0  0  0  0  0  0
   28.4214   49.3490   39.0956 C   0  0  0  0  0  0  0  0  0  0  0  0
   29.8945   49.0114   39.3321 C   0  0  0  0  0  0  0  0  0  0  0  0
   30.4950   48.4996   38.1120 N   0  0  0  0  0  0  0  0  0  0  0  0
  1  2  1  0  0  0  0
  2  3  1  0  0  0  0
  3  4  1  0  0  0  0
  4  5  1  0  0  0  0
  5  6  1  0  0  0  0
  6  7  1  0  0  0  0
  7  8  1  0  0  0  0
  8  9  1  0  0  0  0
  9 10  1  0  0  0  0
 10 11  1  0  0  0  0
 11 12  1  0  0  0  0
 12 13  1  0  0  0  0
 13 14  1  0  0  0  0
M  END
>  <CHROM.1>
-176.74548830,64.30291238,-156.51522842,-151.49975603,-172.68870968,-179.58040943
-61.06379471,166.98630150,-72.73113025,-171.26124637,-60.71406986,24.85635474
51.07412421,39.59614146,-2.62171997,0.26952776,-1.91386543

>  <Name>
ligand

>  <RI>
0

>  <Rbt.Current_Directory>
/home/itssahil/PROJECTS/Mol_Feturizer/New_Systems/rnas/4P5J

>  <Rbt.Executable>
rbdock ($Id: //depot/dev/client3/rdock/2013.1/src/exe/rbdock.cxx#4 $)

>  <Rbt.Library>
libRbt.so (2013.1, Build901 2013/11/27)

>  <Rbt.Parameter_File>
/export/apps/rDock/src/rDock_2013.1_src/data/scripts/dock_solv.prm

>  <Rbt.Receptor>
prm/pocket_docking_6.prm

>  <SCORE>
-3.09985

>  <SCORE.INTER>
5.47826

>  <SCORE.INTER.CONST>
1

>  <SCORE.INTER.POLAR>
0

>  <SCORE.INTER.ROT>
11

>  <SCORE.INTER.SOLV>
5.35426

>  <SCORE.INTER.VDW>
-9.06591

>  <SCORE.INTER.norm>
0.391305

>  <SCORE.INTRA>
-8.57811

>  <SCORE.INTRA.DIHEDRAL>
-15.7083

>  <SCORE.INTRA.DIHEDRAL.0>
17.5233

>  <SCORE.INTRA.POLAR>
0

>  <SCORE.INTRA.POLAR.0>
0

>  <SCORE.INTRA.REPUL>
0

>  <SCORE.INTRA.REPUL.0>
0

>  <SCORE.INTRA.SOLV>
-1.09909

>  <SCORE.INTRA.SOLV.lig_0>
-46.1043

>  <SCORE.INTRA.VDW>
-0.174425

>  <SCORE.INTRA.VDW.0>
-0.545445

>  <SCORE.INTRA.norm>
-0.612722

>  <SCORE.RESTR>
0

>  <SCORE.RESTR.CAVITY>
0

>  <SCORE.RESTR.norm>
0

>  <SCORE.SYSTEM>
0

>  <SCORE.SYSTEM.CONST>
0

>  <SCORE.SYSTEM.DIHEDRAL>
0

>  <SCORE.SYSTEM.SOLV>
0

>  <SCORE.SYSTEM.norm>
0

>  <SCORE.heavy>
14

>  <SCORE.norm>
-0.221418

>  <RMSD>
5.925

$$$$
ligand
 OpenBabel11021811513D
libRbt.so/2013.1/901 2013/11/27
 14 13  0  0  0  0  0  0  0  0999 V2000
   31.0909   50.0991   36.4834 N   0  0  0  0  0  0  0  0  0  0  0  0
   29.6949   49.7089   36.5966 C   0  0  0  0  0  0  0  0  0  0  0  0
   29.0947   50.2550   37.8879 C   0  0  0  0  0  0  0  0  0  0  0  0
   27.6406   49.8242   38.0439 C   0  0  0  0  0  0  0  0  0  0  0  0
   26.7699   50.3796   37.0121 N   0  0  0  0  0  0  0  0  0  0  0  0
   25.3937   49.9308   36.8837 C   0  0  0  0  0  0  0  0  0  0  0  0
   24.4689   50.5538   37.9236 C   0  0  0  0  0  0  0  0  0  0  0  0
   24.2629   52.0334   37.6192 C   0  0  0  0  0  0  0  0  0  0  0  0
   23.4478   52.6813   38.7332 C   0  0  0  0  0  0  0  0  0  0  0  0
   22.1488   52.0517   38.8963 N   0  0  0  0  0  0  0  0  0  0  0  0
   21.9694   51.0363   39.9255 C   0  0  0  0  0  0  0  0  0  0  0  0
   21.3822   51.5535   41.2370 C   0  0  0  0  0  0  0  0  0  0  0  0
   22.2911   52.6187   41.8528 C   0  0  0  0  0  0  0  0  0  0  0  0
   21.7586   53.0553   43.1323 N   0  0  0  0  0  0  0  0  0  0  0  0
  1  2  1  0  0  0  0
  2  3  1  0  0  0  0
  3  4  1  0  0  0  0
  4  5  1  0  0  0  0
  5  6  1  0  0  0  0
  6  7  1  0  0  0  0
  7  8  1  0  0  0  0
  8  9  1  0  0  0  0
  9 10  1  0  0  0  0
 10 11  1  0  0  0  0
 11 12  1  0  0  0  0
 12 13  1  0  0  0  0
 13 14  1  0  0  0  0
M  END
>  <CHROM.1>
-178.44205802,-64.64987062,171.16401445,78.16698757,70.64662916,-174.61806448
-58.96288126,97.19787629,96.38495273,-60.25321510,-177.12681306,25.10088831
51.12716238,38.73047648,-0.55711759,-0.14545155,1.30099726

>  <Name>
ligand

>  <RI>
0

>  <Rbt.Current_Directory>
/home/itssahil/PROJECTS/Mol_Feturizer/New_Systems/rnas/4P5J

>  <Rbt.Executable>
rbdock ($Id: //depot/dev/client3/rdock/2013.1/src/exe/rbdock.cxx#4 $)

>  <Rbt.Library>
libRbt.so (2013.1, Build901 2013/11/27)

>  <Rbt.Parameter_File>
/export/apps/rDock/src/rDock_2013.1_src/data/scripts/dock_solv.prm

>  <Rbt.Receptor>
prm/pocket_docking_5.prm

>  <SCORE>
-2.34511

>  <SCORE.INTER>
5.66631

>  <SCORE.INTER.CONST>
1

>  <SCORE.INTER.POLAR>
0

>  <SCORE.INTER.ROT>
11

>  <SCORE.INTER.SOLV>
6.91531

>  <SCORE.INTER.VDW>
-9.4609

>  <SCORE.INTER.norm>
0.404736

>  <SCORE.INTRA>
-8.02258

>  <SCORE.INTRA.DIHEDRAL>
-14.9263

>  <SCORE.INTRA.DIHEDRAL.0>
17.5233

>  <SCORE.INTRA.POLAR>
0

>  <SCORE.INTRA.POLAR.0>
0

>  <SCORE.INTRA.REPUL>
0

>  <SCORE.INTRA.REPUL.0>
0

>  <SCORE.INTRA.SOLV>
-1.2194

>  <SCORE.INTRA.SOLV.lig_0>
-46.1043

>  <SCORE.INTRA.VDW>
0.0502774

>  <SCORE.INTRA.VDW.0>
-0.545445

>  <SCORE.INTRA.norm>
-0.573042

>  <SCORE.RESTR>
0.011166

>  <SCORE.RESTR.CAVITY>
0.011166

>  <SCORE.RESTR.norm>
0.000797572

>  <SCORE.SYSTEM>
0

>  <SCORE.SYSTEM.CONST>
0

>  <SCORE.SYSTEM.DIHEDRAL>
0

>  <SCORE.SYSTEM.SOLV>
0

>  <SCORE.SYSTEM.norm>
0

>  <SCORE.heavy>
14

>  <SCORE.norm>
-0.167508

>  <RMSD>
5.927

$$$$
ligand
 OpenBabel11021811513D
libRbt.so/2013.1/901 2013/11/27
 14 13  0  0  0  0  0  0  0  0999 V2000
   28.3695   49.9285   41.5452 N   0  0  0  0  0  0  0  0  0  0  0  0
   28.7165   48.8847   40.5944 C   0  0  0  0  0  0  0  0  0  0  0  0
   28.4782   49.3668   39.1673 C   0  0  0  0  0  0  0  0  0  0  0  0
   26.9970   49.6236   38.9134 C   0  0  0  0  0  0  0  0  0  0  0  0
   26.7213   50.0524   37.5455 N   0  0  0  0  0  0  0  0  0  0  0  0
   25.3590   50.3114   37.1107 C   0  0  0  0  0  0  0  0  0  0  0  0
   25.2738   51.4062   36.0529 C   0  0  0  0  0  0  0  0  0  0  0  0
   23.8144   51.7264   35.7496 C   0  0  0  0  0  0  0  0  0  0  0  0
   23.1957   52.4777   36.9234 C   0  0  0  0  0  0  0  0  0  0  0  0
   22.9636   51.6103   38.0655 N   0  0  0  0  0  0  0  0  0  0  0  0
   22.4186   52.1738   39.2935 C   0  0  0  0  0  0  0  0  0  0  0  0
   21.8173   51.1499   40.2539 C   0  0  0  0  0  0  0  0  0  0  0  0
   21.1822   51.8470   41.4583 C   0  0  0  0  0  0  0  0  0  0  0  0
   22.2033   52.5099   42.2514 N   0  0  0  0  0  0  0  0  0  0  0  0
  1  2  1  0  0  0  0
  2  3  1  0  0  0  0
  3  4  1  0  0  0  0
  4  5  1  0  0  0  0
  5  6  1  0  0  0  0
  6  7  1  0  0  0  0
  7  8  1  0  0  0  0
  8  9  1  0  0  0  0
  9 10  1  0  0  0  0
 10 11  1  0  0  0  0
 11 12  1  0  0  0  0
 12 13  1  0  0  0  0
 13 14  1  0  0  0  0
M  END
>  <CHROM.1>
-65.01054328,-178.42633347,178.45960160,148.17986875,-174.13917167,71.97210965
-72.91663736,177.90662096,161.92946866,-175.80079588,-65.68281974,24.82206876
50.93343767,38.92281937,0.00383206,-0.40029085,1.65501192

>  <Name>
ligand

>  <RI>
0

>  <Rbt.Current_Directory>
/home/itssahil/PROJECTS/Mol_Feturizer/New_Systems/rnas/4P5J

>  <Rbt.Executable>
rbdock ($Id: //depot/dev/client3/rdock/2013.1/src/exe/rbdock.cxx#4 $)

>  <Rbt.Library>
libRbt.so (2013.1, Build901 2013/11/27)

>  <Rbt.Parameter_File>
/export/apps/rDock/src/rDock_2013.1_src/data/scripts/dock_solv.prm

>  <Rbt.Receptor>
prm/pocket_docking_6.prm

>  <SCORE>
-5.29943

>  <SCORE.INTER>
1.89679

>  <SCORE.INTER.CONST>
1

>  <SCORE.INTER.POLAR>
0

>  <SCORE.INTER.ROT>
11

>  <SCORE.INTER.SOLV>
7.72067

>  <SCORE.INTER.VDW>
-12.2424

>  <SCORE.INTER.norm>
0.135485

>  <SCORE.INTRA>
-7.19622

>  <SCORE.INTRA.DIHEDRAL>
-15.0017

>  <SCORE.INTRA.DIHEDRAL.0>
17.5233

>  <SCORE.INTRA.POLAR>
0

>  <SCORE.INTRA.POLAR.0>
0

>  <SCORE.INTRA.REPUL>
0

>  <SCORE.INTRA.REPUL.0>
0

>  <SCORE.INTRA.SOLV>
0.0485847

>  <SCORE.INTRA.SOLV.lig_0>
-46.1043

>  <SCORE.INTRA.VDW>
0.280363

>  <SCORE.INTRA.VDW.0>
-0.545445

>  <SCORE.INTRA.norm>
-0.514015

>  <SCORE.RESTR>
0

>  <SCORE.RESTR.CAVITY>
0

>  <SCORE.RESTR.norm>
0

>  <SCORE.SYSTEM>
0

>  <SCORE.SYSTEM.CONST>
0

>  <SCORE.SYSTEM.DIHEDRAL>
0

>  <SCORE.SYSTEM.SOLV>
0

>  <SCORE.SYSTEM.norm>
0

>  <SCORE.heavy>
14

>  <SCORE.norm>
-0.378531

>  <RMSD>
5.956

$$$$
ligand
 OpenBabel11021811513D
libRbt.so/2013.1/901 2013/11/27
 14 13  0  0  0  0  0  0  0  0999 V2000
   20.6007   53.6820   42.5303 N   0  0  0  0  0  0  0  0  0  0  0  0
   21.5291   54.4081   41.6790 C   0  0  0  0  0  0  0  0  0  0  0  0
   21.8458   53.5971   40.4269 C   0  0  0  0  0  0  0  0  0  0  0  0
   22.5450   52.2894   40.7808 C   0  0  0  0  0  0  0  0  0  0  0  0
   22.9979   51.5515   39.6054 N   0  0  0  0  0  0  0  0  0  0  0  0
   23.4709   50.1827   39.7268 C   0  0  0  0  0  0  0  0  0  0  0  0
   24.3789   49.7662   38.5749 C   0  0  0  0  0  0  0  0  0  0  0  0
   25.7099   50.5041   38.6664 C   0  0  0  0  0  0  0  0  0  0  0  0
   26.6141   50.0833   37.5130 C   0  0  0  0  0  0  0  0  0  0  0  0
   27.9600   50.6120   37.6533 N   0  0  0  0  0  0  0  0  0  0  0  0
   29.0396   50.0424   36.8580 C   0  0  0  0  0  0  0  0  0  0  0  0
   30.3761   50.7711   36.9809 C   0  0  0  0  0  0  0  0  0  0  0  0
   30.2594   52.2048   36.4607 C   0  0  0  0  0  0  0  0  0  0  0  0
   31.5447   52.8770   36.5470 N   0  0  0  0  0  0  0  0  0  0  0  0
  1  2  1  0  0  0  0
  2  3  1  0  0  0  0
  3  4  1  0  0  0  0
  4  5  1  0  0  0  0
  5  6  1  0  0  0  0
  6  7  1  0  0  0  0
  7  8  1  0  0  0  0
  8  9  1  0  0  0  0
  9 10  1  0  0  0  0
 10 11  1  0  0  0  0
 11 12  1  0  0  0  0
 12 13  1  0  0  0  0
 13 14  1  0  0  0  0
M  END
>  <CHROM.1>
-63.00266304,-173.64844559,-169.10688316,-157.64208040,69.76840731,179.96263762
-171.99080999,163.94485941,173.92523548,-63.07735683,-178.39886138,25.63367086
51.61201995,38.85729180,-2.82373917,-0.41553983,-2.83130036

>  <Name>
ligand

>  <RI>
0

>  <Rbt.Current_Directory>
/home/itssahil/PROJECTS/Mol_Feturizer/New_Systems/rnas/4P5J

>  <Rbt.Executable>
rbdock ($Id: //depot/dev/client3/rdock/2013.1/src/exe/rbdock.cxx#4 $)

>  <Rbt.Library>
libRbt.so (2013.1, Build901 2013/11/27)

>  <Rbt.Parameter_File>
/export/apps/rDock/src/rDock_2013.1_src/data/scripts/dock_solv.prm

>  <Rbt.Receptor>
prm/pocket_docking_6.prm

>  <SCORE>
-1.129

>  <SCORE.INTER>
8.05748

>  <SCORE.INTER.CONST>
1

>  <SCORE.INTER.POLAR>
0

>  <SCORE.INTER.ROT>
11

>  <SCORE.INTER.SOLV>
5.10666

>  <SCORE.INTER.VDW>
-7.2639

>  <SCORE.INTER.norm>
0.575534

>  <SCORE.INTRA>
-9.18648

>  <SCORE.INTRA.DIHEDRAL>
-16.009

>  <SCORE.INTRA.DIHEDRAL.0>
17.5233

>  <SCORE.INTRA.POLAR>
0

>  <SCORE.INTRA.POLAR.0>
0

>  <SCORE.INTRA.REPUL>
0

>  <SCORE.INTRA.REPUL.0>
0

>  <SCORE.INTRA.SOLV>
-1.25502

>  <SCORE.INTRA.SOLV.lig_0>
-46.1043

>  <SCORE.INTRA.VDW>
-0.554447

>  <SCORE.INTRA.VDW.0>
-0.545445

>  <SCORE.INTRA.norm>
-0.656177

>  <SCORE.RESTR>
0

>  <SCORE.RESTR.CAVITY>
0

>  <SCORE.RESTR.norm>
0

>  <SCORE.SYSTEM>
0

>  <SCORE.SYSTEM.CONST>
0

>  <SCORE.SYSTEM.DIHEDRAL>
0

>  <SCORE.SYSTEM.SOLV>
0

>  <SCORE.SYSTEM.norm>
0

>  <SCORE.heavy>
14

>  <SCORE.norm>
-0.080643

>  <RMSD>
6.067

$$$$
ligand
 OpenBabel11021811513D
libRbt.so/2013.1/901 2013/11/27
 14 13  0  0  0  0  0  0  0  0999 V2000
   21.4400   53.5973   42.7900 N   0  0  0  0  0  0  0  0  0  0  0  0
   21.6595   52.6758   41.6870 C   0  0  0  0  0  0  0  0  0  0  0  0
   22.1991   53.4224   40.4717 C   0  0  0  0  0  0  0  0  0  0  0  0
   22.4786   52.4660   39.3178 C   0  0  0  0  0  0  0  0  0  0  0  0
   22.9650   53.1464   38.1213 N   0  0  0  0  0  0  0  0  0  0  0  0
   22.9214   52.4890   36.8260 C   0  0  0  0  0  0  0  0  0  0  0  0
   24.2215   51.7699   36.4835 C   0  0  0  0  0  0  0  0  0  0  0  0
   24.5006   50.6785   37.5108 C   0  0  0  0  0  0  0  0  0  0  0  0
   25.8344   50.0072   37.2017 C   0  0  0  0  0  0  0  0  0  0  0  0
   26.9549   50.9168   37.3677 N   0  0  0  0  0  0  0  0  0  0  0  0
   28.3143   50.4102   37.2333 C   0  0  0  0  0  0  0  0  0  0  0  0
   29.4090   51.4390   37.5081 C   0  0  0  0  0  0  0  0  0  0  0  0
   30.7938   50.8187   37.3152 C   0  0  0  0  0  0  0  0  0  0  0  0
   31.8276   51.8049   37.5794 N   0  0  0  0  0  0  0  0  0  0  0  0
  1  2  1  0  0  0  0
  2  3  1  0  0  0  0
  3  4  1  0  0  0  0
  4  5  1  0  0  0  0
  5  6  1  0  0  0  0
  6  7  1  0  0  0  0
  7  8  1  0  0  0  0
  8  9  1  0  0  0  0
  9 10  1  0  0  0  0
 10 11  1  0  0  0  0
 11 12  1  0  0  0  0
 12 13  1  0  0  0  0
 13 14  1  0  0  0  0
M  END
>  <CHROM.1>
178.16958064,178.51793093,-162.19152799,-93.65965120,61.35669767,-177.32045505
65.80619205,174.40296614,-176.62717652,-178.91020184,-179.97797323,25.39410239
51.83137687,38.38644805,-2.71042530,0.09692765,-1.91555026

>  <Name>
ligand

>  <RI>
0

>  <Rbt.Current_Directory>
/home/itssahil/PROJECTS/Mol_Feturizer/New_Systems/rnas/4P5J

>  <Rbt.Executable>
rbdock ($Id: //depot/dev/client3/rdock/2013.1/src/exe/rbdock.cxx#4 $)

>  <Rbt.Library>
libRbt.so (2013.1, Build901 2013/11/27)

>  <Rbt.Parameter_File>
/export/apps/rDock/src/rDock_2013.1_src/data/scripts/dock_solv.prm

>  <Rbt.Receptor>
prm/pocket_docking_6.prm

>  <SCORE>
-3.83235

>  <SCORE.INTER>
5.66092

>  <SCORE.INTER.CONST>
1

>  <SCORE.INTER.POLAR>
0

>  <SCORE.INTER.ROT>
11

>  <SCORE.INTER.SOLV>
5.56182

>  <SCORE.INTER.VDW>
-9.01333

>  <SCORE.INTER.norm>
0.404351

>  <SCORE.INTRA>
-9.49327

>  <SCORE.INTRA.DIHEDRAL>
-16.3426

>  <SCORE.INTRA.DIHEDRAL.0>
17.5233

>  <SCORE.INTRA.POLAR>
0

>  <SCORE.INTRA.POLAR.0>
0

>  <SCORE.INTRA.REPUL>
0

>  <SCORE.INTRA.REPUL.0>
0

>  <SCORE.INTRA.SOLV>
-1.89006

>  <SCORE.INTRA.SOLV.lig_0>
-46.1043

>  <SCORE.INTRA.VDW>
-0.376959

>  <SCORE.INTRA.VDW.0>
-0.545445

>  <SCORE.INTRA.norm>
-0.678091

>  <SCORE.RESTR>
0

>  <SCORE.RESTR.CAVITY>
0

>  <SCORE.RESTR.norm>
0

>  <SCORE.SYSTEM>
0

>  <SCORE.SYSTEM.CONST>
0

>  <SCORE.SYSTEM.DIHEDRAL>
0

>  <SCORE.SYSTEM.SOLV>
0

>  <SCORE.SYSTEM.norm>
0

>  <SCORE.heavy>
14

>  <SCORE.norm>
-0.27374

>  <RMSD>
6.081

$$$$
ligand
 OpenBabel11021811513D
libRbt.so/2013.1/901 2013/11/27
 14 13  0  0  0  0  0  0  0  0999 V2000
   30.3335   49.8335   39.1534 N   0  0  0  0  0  0  0  0  0  0  0  0
   29.2105   48.9176   39.2713 C   0  0  0  0  0  0  0  0  0  0  0  0
   27.8976   49.6541   39.0269 C   0  0  0  0  0  0  0  0  0  0  0  0
   27.7874   50.1161   37.5782 C   0  0  0  0  0  0  0  0  0  0  0  0
   26.5382   50.8182   37.2996 N   0  0  0  0  0  0  0  0  0  0  0  0
   25.3118   50.0786   37.0529 C   0  0  0  0  0  0  0  0  0  0  0  0
   24.3150   50.1859   38.2017 C   0  0  0  0  0  0  0  0  0  0  0  0
   23.7137   51.5863   38.2417 C   0  0  0  0  0  0  0  0  0  0  0  0
   22.6901   51.6769   39.3683 C   0  0  0  0  0  0  0  0  0  0  0  0
   22.1782   53.0263   39.5338 N   0  0  0  0  0  0  0  0  0  0  0  0
   22.9685   54.0071   40.2660 C   0  0  0  0  0  0  0  0  0  0  0  0
   22.4001   55.4245   40.2512 C   0  0  0  0  0  0  0  0  0  0  0  0
   21.0401   55.4683   40.9499 C   0  0  0  0  0  0  0  0  0  0  0  0
   20.5447   56.8333   41.0005 N   0  0  0  0  0  0  0  0  0  0  0  0
  1  2  1  0  0  0  0
  2  3  1  0  0  0  0
  3  4  1  0  0  0  0
  4  5  1  0  0  0  0
  5  6  1  0  0  0  0
  6  7  1  0  0  0  0
  7  8  1  0  0  0  0
  8  9  1  0  0  0  0
  9 10  1  0  0  0  0
 10 11  1  0  0  0  0
 11 12  1  0  0  0  0
 12 13  1  0  0  0  0
 13 14  1  0  0  0  0
M  END
>  <CHROM.1>
67.28745398,179.57021903,-80.54239207,108.50891904,71.69792387,178.47298462
174.51522619,-80.18177631,173.92831699,63.36155902,176.63252581,24.78062392
51.97306692,39.08530487,-0.66737642,-0.26171058,0.67016164

>  <Name>
ligand

>  <RI>
0

>  <Rbt.Current_Directory>
/home/itssahil/PROJECTS/Mol_Feturizer/New_Systems/rnas/4P5J

>  <Rbt.Executable>
rbdock ($Id: //depot/dev/client3/rdock/2013.1/src/exe/rbdock.cxx#4 $)

>  <Rbt.Library>
libRbt.so (2013.1, Build901 2013/11/27)

>  <Rbt.Parameter_File>
/export/apps/rDock/src/rDock_2013.1_src/data/scripts/dock_solv.prm

>  <Rbt.Receptor>
prm/pocket_docking_8.prm

>  <SCORE>
-3.30761

>  <SCORE.INTER>
5.10869

>  <SCORE.INTER.CONST>
1

>  <SCORE.INTER.POLAR>
0

>  <SCORE.INTER.ROT>
11

>  <SCORE.INTER.SOLV>
7.27505

>  <SCORE.INTER.VDW>
-9.95255

>  <SCORE.INTER.norm>
0.364907

>  <SCORE.INTRA>
-8.4163

>  <SCORE.INTRA.DIHEDRAL>
-14.8696

>  <SCORE.INTRA.DIHEDRAL.0>
17.5233

>  <SCORE.INTRA.POLAR>
0

>  <SCORE.INTRA.POLAR.0>
0

>  <SCORE.INTRA.REPUL>
0

>  <SCORE.INTRA.REPUL.0>
0

>  <SCORE.INTRA.SOLV>
-1.32701

>  <SCORE.INTRA.SOLV.lig_0>
-46.1043

>  <SCORE.INTRA.VDW>
-0.318009

>  <SCORE.INTRA.VDW.0>
-0.545445

>  <SCORE.INTRA.norm>
-0.601164

>  <SCORE.RESTR>
0

>  <SCORE.RESTR.CAVITY>
0

>  <SCORE.RESTR.norm>
0

>  <SCORE.SYSTEM>
0

>  <SCORE.SYSTEM.CONST>
0

>  <SCORE.SYSTEM.DIHEDRAL>
0

>  <SCORE.SYSTEM.SOLV>
0

>  <SCORE.SYSTEM.norm>
0

>  <SCORE.heavy>
14

>  <SCORE.norm>
-0.236258

>  <RMSD>
6.143

$$$$
ligand
 OpenBabel11021811513D
libRbt.so/2013.1/901 2013/11/27
 14 13  0  0  0  0  0  0  0  0999 V2000
   32.3259   54.1748   39.1907 N   0  0  0  0  0  0  0  0  0  0  0  0
   31.9230   52.8973   38.6254 C   0  0  0  0  0  0  0  0  0  0  0  0
   30.4156   52.7093   38.7607 C   0  0  0  0  0  0  0  0  0  0  0  0
   29.9735   51.3718   38.1778 C   0  0  0  0  0  0  0  0  0  0  0  0
   28.5247   51.1938   38.1999 N   0  0  0  0  0  0  0  0  0  0  0  0
   27.9090   50.0489   37.5503 C   0  0  0  0  0  0  0  0  0  0  0  0
   26.4103   50.2270   37.3336 C   0  0  0  0  0  0  0  0  0  0  0  0
   25.6912   50.2787   38.6770 C   0  0  0  0  0  0  0  0  0  0  0  0
   24.2024   50.5238   38.4568 C   0  0  0  0  0  0  0  0  0  0  0  0
   23.4715   50.6065   39.7096 N   0  0  0  0  0  0  0  0  0  0  0  0
   22.0599   50.9664   39.6925 C   0  0  0  0  0  0  0  0  0  0  0  0
   21.3467   50.8168   41.0347 C   0  0  0  0  0  0  0  0  0  0  0  0
   21.3539   49.3566   41.4903 C   0  0  0  0  0  0  0  0  0  0  0  0
   20.7532   49.2383   42.8081 N   0  0  0  0  0  0  0  0  0  0  0  0
  1  2  1  0  0  0  0
  2  3  1  0  0  0  0
  3  4  1  0  0  0  0
  4  5  1  0  0  0  0
  5  6  1  0  0  0  0
  6  7  1  0  0  0  0
  7  8  1  0  0  0  0
  8  9  1  0  0  0  0
  9 10  1  0  0  0  0
 10 11  1  0  0  0  0
 11 12  1  0  0  0  0
 12 13  1  0  0  0  0
 13 14  1  0  0  0  0
M  END
>  <CHROM.1>
-179.78826843,-175.84491929,173.01324797,-163.77154324,-65.90323433,177.29917290
-178.95121313,174.07003633,171.17259802,-62.57682210,176.19563198,26.16859648
51.02918505,39.26451931,-0.10154700,0.35464598,1.07760114

>  <Name>
ligand

>  <RI>
0

>  <Rbt.Current_Directory>
/home/itssahil/PROJECTS/Mol_Feturizer/New_Systems/rnas/4P5J

>  <Rbt.Executable>
rbdock ($Id: //depot/dev/client3/rdock/2013.1/src/exe/rbdock.cxx#4 $)

>  <Rbt.Library>
libRbt.so (2013.1, Build901 2013/11/27)

>  <Rbt.Parameter_File>
/export/apps/rDock/src/rDock_2013.1_src/data/scripts/dock_solv.prm

>  <Rbt.Receptor>
prm/pocket_docking_7.prm

>  <SCORE>
-2.5506

>  <SCORE.INTER>
7.5278

>  <SCORE.INTER.CONST>
1

>  <SCORE.INTER.POLAR>
0

>  <SCORE.INTER.ROT>
11

>  <SCORE.INTER.SOLV>
5.25959

>  <SCORE.INTER.VDW>
-7.668

>  <SCORE.INTER.norm>
0.5377

>  <SCORE.INTRA>
-10.0784

>  <SCORE.INTRA.DIHEDRAL>
-16.8777

>  <SCORE.INTRA.DIHEDRAL.0>
17.5233

>  <SCORE.INTRA.POLAR>
0

>  <SCORE.INTRA.POLAR.0>
0

>  <SCORE.INTRA.REPUL>
0

>  <SCORE.INTRA.REPUL.0>
0

>  <SCORE.INTRA.SOLV>
-1.95859

>  <SCORE.INTRA.SOLV.lig_0>
-46.1043

>  <SCORE.INTRA.VDW>
-0.66028

>  <SCORE.INTRA.VDW.0>
-0.545445

>  <SCORE.INTRA.norm>
-0.719886

>  <SCORE.RESTR>
0

>  <SCORE.RESTR.CAVITY>
0

>  <SCORE.RESTR.norm>
0

>  <SCORE.SYSTEM>
0

>  <SCORE.SYSTEM.CONST>
0

>  <SCORE.SYSTEM.DIHEDRAL>
0

>  <SCORE.SYSTEM.SOLV>
0

>  <SCORE.SYSTEM.norm>
0

>  <SCORE.heavy>
14

>  <SCORE.norm>
-0.182186

>  <RMSD>
6.239

$$$$
ligand
 OpenBabel11021811513D
libRbt.so/2013.1/901 2013/11/27
 14 13  0  0  0  0  0  0  0  0999 V2000
   22.2518   52.3648   41.5895 N   0  0  0  0  0  0  0  0  0  0  0  0
   21.4518   51.4837   40.7543 C   0  0  0  0  0  0  0  0  0  0  0  0
   22.3129   50.8671   39.6569 C   0  0  0  0  0  0  0  0  0  0  0  0
   22.7813   51.9259   38.6650 C   0  0  0  0  0  0  0  0  0  0  0  0
   23.6035   51.3746   37.5920 N   0  0  0  0  0  0  0  0  0  0  0  0
   23.9549   52.1841   36.4375 C   0  0  0  0  0  0  0  0  0  0  0  0
   25.1480   51.6294   35.6671 C   0  0  0  0  0  0  0  0  0  0  0  0
   25.4887   52.5489   34.4996 C   0  0  0  0  0  0  0  0  0  0  0  0
   26.6456   51.9605   33.6993 C   0  0  0  0  0  0  0  0  0  0  0  0
   27.8774   51.9213   34.4684 N   0  0  0  0  0  0  0  0  0  0  0  0
   29.1212   51.5453   33.8095 C   0  0  0  0  0  0  0  0  0  0  0  0
   29.8589   50.3757   34.4579 C   0  0  0  0  0  0  0  0  0  0  0  0
   31.1364   50.0470   33.6835 C   0  0  0  0  0  0  0  0  0  0  0  0
   31.8453   48.9526   34.3246 N   0  0  0  0  0  0  0  0  0  0  0  0
  1  2  1  0  0  0  0
  2  3  1  0  0  0  0
  3  4  1  0  0  0  0
  4  5  1  0  0  0  0
  5  6  1  0  0  0  0
  6  7  1  0  0  0  0
  7  8  1  0  0  0  0
  8  9  1  0  0  0  0
  9 10  1  0  0  0  0
 10 11  1  0  0  0  0
 11 12  1  0  0  0  0
 12 13  1  0  0  0  0
 13 14  1  0  0  0  0
M  END
>  <CHROM.1>
-67.00450076,-179.65595247,169.69843637,161.43918725,-178.17784309,-177.70038476
-65.64945483,-172.40173031,-124.62245417,179.19429584,178.76896477,25.96252112
51.37014969,36.37868641,-2.61619562,0.41547293,-1.17280192

>  <Name>
ligand

>  <RI>
0

>  <Rbt.Current_Directory>
/home/itssahil/PROJECTS/Mol_Feturizer/New_Systems/rnas/4P5J

>  <Rbt.Executable>
rbdock ($Id: //depot/dev/client3/rdock/2013.1/src/exe/rbdock.cxx#4 $)

>  <Rbt.Library>
libRbt.so (2013.1, Build901 2013/11/27)

>  <Rbt.Parameter_File>
/export/apps/rDock/src/rDock_2013.1_src/data/scripts/dock_solv.prm

>  <Rbt.Receptor>
prm/pocket_docking_6.prm

>  <SCORE>
-4.23698

>  <SCORE.INTER>
4.90315

>  <SCORE.INTER.CONST>
1

>  <SCORE.INTER.POLAR>
0

>  <SCORE.INTER.ROT>
11

>  <SCORE.INTER.SOLV>
6.17048

>  <SCORE.INTER.VDW>
-9.72139

>  <SCORE.INTER.norm>
0.350225

>  <SCORE.INTRA>
-9.14014

>  <SCORE.INTRA.DIHEDRAL>
-15.6002

>  <SCORE.INTRA.DIHEDRAL.0>
17.5233

>  <SCORE.INTRA.POLAR>
0

>  <SCORE.INTRA.POLAR.0>
0

>  <SCORE.INTRA.REPUL>
0

>  <SCORE.INTRA.REPUL.0>
0

>  <SCORE.INTRA.SOLV>
-1.58966

>  <SCORE.INTRA.SOLV.lig_0>
-46.1043

>  <SCORE.INTRA.VDW>
-0.545193

>  <SCORE.INTRA.VDW.0>
-0.545445

>  <SCORE.INTRA.norm>
-0.652867

>  <SCORE.RESTR>
0

>  <SCORE.RESTR.CAVITY>
0

>  <SCORE.RESTR.norm>
0

>  <SCORE.SYSTEM>
0

>  <SCORE.SYSTEM.CONST>
0

>  <SCORE.SYSTEM.DIHEDRAL>
0

>  <SCORE.SYSTEM.SOLV>
0

>  <SCORE.SYSTEM.norm>
0

>  <SCORE.heavy>
14

>  <SCORE.norm>
-0.302642

>  <RMSD>
6.318

$$$$
ligand
 OpenBabel11021811513D
libRbt.so/2013.1/901 2013/11/27
 14 13  0  0  0  0  0  0  0  0999 V2000
   23.7363   48.2267   42.3111 N   0  0  0  0  0  0  0  0  0  0  0  0
   23.2912   47.6986   41.0316 C   0  0  0  0  0  0  0  0  0  0  0  0
   22.3971   48.7102   40.3224 C   0  0  0  0  0  0  0  0  0  0  0  0
   23.1836   49.9527   39.9201 C   0  0  0  0  0  0  0  0  0  0  0  0
   22.3532   50.9672   39.2780 N   0  0  0  0  0  0  0  0  0  0  0  0
   22.9182   52.2474   38.8858 C   0  0  0  0  0  0  0  0  0  0  0  0
   23.1155   52.3702   37.3789 C   0  0  0  0  0  0  0  0  0  0  0  0
   24.0264   51.2543   36.8792 C   0  0  0  0  0  0  0  0  0  0  0  0
   25.4251   51.4301   37.4604 C   0  0  0  0  0  0  0  0  0  0  0  0
   26.3155   50.3481   37.0773 N   0  0  0  0  0  0  0  0  0  0  0  0
   27.5305   50.1142   37.8465 C   0  0  0  0  0  0  0  0  0  0  0  0
   27.3129   49.4144   39.1865 C   0  0  0  0  0  0  0  0  0  0  0  0
   28.6525   49.0750   39.8422 C   0  0  0  0  0  0  0  0  0  0  0  0
   29.3740   50.2925   40.1711 N   0  0  0  0  0  0  0  0  0  0  0  0
  1  2  1  0  0  0  0
  2  3  1  0  0  0  0
  3  4  1  0  0  0  0
  4  5  1  0  0  0  0
  5  6  1  0  0  0  0
  6  7  1  0  0  0  0
  7  8  1  0  0  0  0
  8  9  1  0  0  0  0
  9 10  1  0  0  0  0
 10 11  1  0  0  0  0
 11 12  1  0  0  0  0
 12 13  1  0  0  0  0
 13 14  1  0  0  0  0
M  END
>  <CHROM.1>
66.60491140,-178.02831864,176.94881436,106.05183023,-58.16091336,-65.63782500
176.68269973,-160.98228220,76.63212156,173.65363357,64.47441685,24.97353243
50.15018726,39.11340690,-3.10831589,0.10949643,-0.86890546

>  <Name>
ligand

>  <RI>
0

>  <Rbt.Current_Directory>
/home/itssahil/PROJECTS/Mol_Feturizer/New_Systems/rnas/4P5J

>  <Rbt.Executable>
rbdock ($Id: //depot/dev/client3/rdock/2013.1/src/exe/rbdock.cxx#4 $)

>  <Rbt.Library>
libRbt.so (2013.1, Build901 2013/11/27)

>  <Rbt.Parameter_File>
/export/apps/rDock/src/rDock_2013.1_src/data/scripts/dock_solv.prm

>  <Rbt.Receptor>
prm/pocket_docking_7.prm

>  <SCORE>
-3.81278

>  <SCORE.INTER>
3.64123

>  <SCORE.INTER.CONST>
1

>  <SCORE.INTER.POLAR>
0

>  <SCORE.INTER.ROT>
11

>  <SCORE.INTER.SOLV>
7.51583

>  <SCORE.INTER.VDW>
-11.0111

>  <SCORE.INTER.norm>
0.260088

>  <SCORE.INTRA>
-7.45401

>  <SCORE.INTRA.DIHEDRAL>
-15.3903

>  <SCORE.INTRA.DIHEDRAL.0>
17.5233

>  <SCORE.INTRA.POLAR>
0

>  <SCORE.INTRA.POLAR.0>
0

>  <SCORE.INTRA.REPUL>
0

>  <SCORE.INTRA.REPUL.0>
0

>  <SCORE.INTRA.SOLV>
-0.181084

>  <SCORE.INTRA.SOLV.lig_0>
-46.1043

>  <SCORE.INTRA.VDW>
0.331697

>  <SCORE.INTRA.VDW.0>
-0.545445

>  <SCORE.INTRA.norm>
-0.532429

>  <SCORE.RESTR>
0

>  <SCORE.RESTR.CAVITY>
0

>  <SCORE.RESTR.norm>
0

>  <SCORE.SYSTEM>
0

>  <SCORE.SYSTEM.CONST>
0

>  <SCORE.SYSTEM.DIHEDRAL>
0

>  <SCORE.SYSTEM.SOLV>
0

>  <SCORE.SYSTEM.norm>
0

>  <SCORE.heavy>
14

>  <SCORE.norm>
-0.272341

>  <RMSD>
6.347

$$$$
ligand
 OpenBabel11021811513D
libRbt.so/2013.1/901 2013/11/27
 14 13  0  0  0  0  0  0  0  0999 V2000
   24.5539   57.9357   36.5058 N   0  0  0  0  0  0  0  0  0  0  0  0
   24.5131   56.5599   36.0372 C   0  0  0  0  0  0  0  0  0  0  0  0
   23.0699   56.0787   35.9304 C   0  0  0  0  0  0  0  0  0  0  0  0
   23.0036   54.6534   35.3934 C   0  0  0  0  0  0  0  0  0  0  0  0
   23.6123   53.6785   36.2935 N   0  0  0  0  0  0  0  0  0  0  0  0
   22.9668   52.4018   36.5488 C   0  0  0  0  0  0  0  0  0  0  0  0
   23.8372   51.4512   37.3634 C   0  0  0  0  0  0  0  0  0  0  0  0
   25.0934   51.0913   36.5781 C   0  0  0  0  0  0  0  0  0  0  0  0
   25.9134   50.0679   37.3561 C   0  0  0  0  0  0  0  0  0  0  0  0
   26.4121   50.6068   38.6096 N   0  0  0  0  0  0  0  0  0  0  0  0
   27.1495   49.7396   39.5189 C   0  0  0  0  0  0  0  0  0  0  0  0
   28.5673   49.3978   39.0658 C   0  0  0  0  0  0  0  0  0  0  0  0
   29.2407   48.4546   40.0642 C   0  0  0  0  0  0  0  0  0  0  0  0
   29.4783   49.1411   41.3226 N   0  0  0  0  0  0  0  0  0  0  0  0
  1  2  1  0  0  0  0
  2  3  1  0  0  0  0
  3  4  1  0  0  0  0
  4  5  1  0  0  0  0
  5  6  1  0  0  0  0
  6  7  1  0  0  0  0
  7  8  1  0  0  0  0
  8  9  1  0  0  0  0
  9 10  1  0  0  0  0
 10 11  1  0  0  0  0
 11 12  1  0  0  0  0
 12 13  1  0  0  0  0
 13 14  1  0  0  0  0
M  END
>  <CHROM.1>
178.00049005,64.68428221,137.09077406,172.42727418,-63.83032381,-176.17528579
-64.41517744,176.35621003,73.42253316,-178.38665238,-67.70977679,25.52918548
52.23248823,37.61317312,-2.26307925,0.58138833,3.04530277

>  <Name>
ligand

>  <RI>
0

>  <Rbt.Current_Directory>
/home/itssahil/PROJECTS/Mol_Feturizer/New_Systems/rnas/4P5J

>  <Rbt.Executable>
rbdock ($Id: //depot/dev/client3/rdock/2013.1/src/exe/rbdock.cxx#4 $)

>  <Rbt.Library>
libRbt.so (2013.1, Build901 2013/11/27)

>  <Rbt.Parameter_File>
/export/apps/rDock/src/rDock_2013.1_src/data/scripts/dock_solv.prm

>  <Rbt.Receptor>
prm/pocket_docking_7.prm

>  <SCORE>
-5.26453

>  <SCORE.INTER>
3.24823

>  <SCORE.INTER.CONST>
1

>  <SCORE.INTER.POLAR>
0

>  <SCORE.INTER.ROT>
11

>  <SCORE.INTER.SOLV>
4.87957

>  <SCORE.INTER.VDW>
-10.3944

>  <SCORE.INTER.norm>
0.232016

>  <SCORE.INTRA>
-8.51886

>  <SCORE.INTRA.DIHEDRAL>
-15.829

>  <SCORE.INTRA.DIHEDRAL.0>
17.5233

>  <SCORE.INTRA.POLAR>
0

>  <SCORE.INTRA.POLAR.0>
0

>  <SCORE.INTRA.REPUL>
0

>  <SCORE.INTRA.REPUL.0>
0

>  <SCORE.INTRA.SOLV>
-0.866436

>  <SCORE.INTRA.SOLV.lig_0>
-46.1043

>  <SCORE.INTRA.VDW>
-0.171142

>  <SCORE.INTRA.VDW.0>
-0.545445

>  <SCORE.INTRA.norm>
-0.60849

>  <SCORE.RESTR>
0.00610073

>  <SCORE.RESTR.CAVITY>
0.00610073

>  <SCORE.RESTR.norm>
0.000435767

>  <SCORE.SYSTEM>
0

>  <SCORE.SYSTEM.CONST>
0

>  <SCORE.SYSTEM.DIHEDRAL>
0

>  <SCORE.SYSTEM.SOLV>
0

>  <SCORE.SYSTEM.norm>
0

>  <SCORE.heavy>
14

>  <SCORE.norm>
-0.376038

>  <RMSD>
6.365

$$$$
ligand
 OpenBabel11021811513D
libRbt.so/2013.1/901 2013/11/27
 14 13  0  0  0  0  0  0  0  0999 V2000
   31.3432   49.0405   33.1816 N   0  0  0  0  0  0  0  0  0  0  0  0
   30.5583   49.9978   32.4190 C   0  0  0  0  0  0  0  0  0  0  0  0
   29.3892   50.5096   33.2539 C   0  0  0  0  0  0  0  0  0  0  0  0
   28.5578   51.5218   32.4739 C   0  0  0  0  0  0  0  0  0  0  0  0
   27.3922   51.9919   33.2166 N   0  0  0  0  0  0  0  0  0  0  0  0
   27.5535   52.7597   34.4399 C   0  0  0  0  0  0  0  0  0  0  0  0
   27.1752   51.9702   35.6882 C   0  0  0  0  0  0  0  0  0  0  0  0
   25.6662   51.7570   35.7335 C   0  0  0  0  0  0  0  0  0  0  0  0
   25.2998   50.9155   36.9511 C   0  0  0  0  0  0  0  0  0  0  0  0
   23.8645   50.8687   37.1706 N   0  0  0  0  0  0  0  0  0  0  0  0
   23.2231   51.9258   37.9411 C   0  0  0  0  0  0  0  0  0  0  0  0
   22.6557   51.4803   39.2872 C   0  0  0  0  0  0  0  0  0  0  0  0
   22.0666   52.6708   40.0456 C   0  0  0  0  0  0  0  0  0  0  0  0
   23.1153   53.6150   40.3920 N   0  0  0  0  0  0  0  0  0  0  0  0
  1  2  1  0  0  0  0
  2  3  1  0  0  0  0
  3  4  1  0  0  0  0
  4  5  1  0  0  0  0
  5  6  1  0  0  0  0
  6  7  1  0  0  0  0
  7  8  1  0  0  0  0
  8  9  1  0  0  0  0
  9 10  1  0  0  0  0
 10 11  1  0  0  0  0
 11 12  1  0  0  0  0
 12 13  1  0  0  0  0
 13 14  1  0  0  0  0
M  END
>  <CHROM.1>
179.66732718,177.39842212,64.70434100,-108.38453330,-70.32733748,177.55519117
170.33948185,-85.94652129,-112.61360601,177.25801906,-65.08872613,26.27569940
51.50179796,35.87097674,-0.24096702,-0.73116003,2.51449676

>  <Name>
ligand

>  <RI>
0

>  <Rbt.Current_Directory>
/home/itssahil/PROJECTS/Mol_Feturizer/New_Systems/rnas/4P5J

>  <Rbt.Executable>
rbdock ($Id: //depot/dev/client3/rdock/2013.1/src/exe/rbdock.cxx#4 $)

>  <Rbt.Library>
libRbt.so (2013.1, Build901 2013/11/27)

>  <Rbt.Parameter_File>
/export/apps/rDock/src/rDock_2013.1_src/data/scripts/dock_solv.prm

>  <Rbt.Receptor>
prm/pocket_docking_6.prm

>  <SCORE>
-2.12121

>  <SCORE.INTER>
5.70281

>  <SCORE.INTER.CONST>
1

>  <SCORE.INTER.POLAR>
0

>  <SCORE.INTER.ROT>
11

>  <SCORE.INTER.SOLV>
7.25785

>  <SCORE.INTER.VDW>
-9.55074

>  <SCORE.INTER.norm>
0.407344

>  <SCORE.INTRA>
-7.82402

>  <SCORE.INTRA.DIHEDRAL>
-13.8673

>  <SCORE.INTRA.DIHEDRAL.0>
17.5233

>  <SCORE.INTRA.POLAR>
0

>  <SCORE.INTRA.POLAR.0>
0

>  <SCORE.INTRA.REPUL>
0

>  <SCORE.INTRA.REPUL.0>
0

>  <SCORE.INTRA.SOLV>
-1.5564

>  <SCORE.INTRA.SOLV.lig_0>
-46.1043

>  <SCORE.INTRA.VDW>
-0.112191

>  <SCORE.INTRA.VDW.0>
-0.545445

>  <SCORE.INTRA.norm>
-0.558859

>  <SCORE.RESTR>
0

>  <SCORE.RESTR.CAVITY>
0

>  <SCORE.RESTR.norm>
0

>  <SCORE.SYSTEM>
0

>  <SCORE.SYSTEM.CONST>
0

>  <SCORE.SYSTEM.DIHEDRAL>
0

>  <SCORE.SYSTEM.SOLV>
0

>  <SCORE.SYSTEM.norm>
0

>  <SCORE.heavy>
14

>  <SCORE.norm>
-0.151515

>  <RMSD>
6.368

$$$$
ligand
 OpenBabel11021811513D
libRbt.so/2013.1/901 2013/11/27
 14 13  0  0  0  0  0  0  0  0999 V2000
   30.5729   38.9621   38.4661 N   0  0  0  0  0  0  0  0  0  0  0  0
   30.2587   39.8912   37.3927 C   0  0  0  0  0  0  0  0  0  0  0  0
   31.0846   41.1653   37.5355 C   0  0  0  0  0  0  0  0  0  0  0  0
   30.7783   42.1483   36.4112 C   0  0  0  0  0  0  0  0  0  0  0  0
   31.5564   43.3799   36.5061 N   0  0  0  0  0  0  0  0  0  0  0  0
   31.2495   44.3737   37.5211 C   0  0  0  0  0  0  0  0  0  0  0  0
   31.7976   45.7553   37.1810 C   0  0  0  0  0  0  0  0  0  0  0  0
   31.3650   46.7635   38.2397 C   0  0  0  0  0  0  0  0  0  0  0  0
   31.7586   48.1707   37.8042 C   0  0  0  0  0  0  0  0  0  0  0  0
   30.9663   48.6356   36.6787 N   0  0  0  0  0  0  0  0  0  0  0  0
   31.4198   48.3608   35.3217 C   0  0  0  0  0  0  0  0  0  0  0  0
   30.5795   49.0100   34.2241 C   0  0  0  0  0  0  0  0  0  0  0  0
   31.1272   48.6517   32.8415 C   0  0  0  0  0  0  0  0  0  0  0  0
   30.3537   49.3165   31.8067 N   0  0  0  0  0  0  0  0  0  0  0  0
  1  2  1  0  0  0  0
  2  3  1  0  0  0  0
  3  4  1  0  0  0  0
  4  5  1  0  0  0  0
  5  6  1  0  0  0  0
  6  7  1  0  0  0  0
  7  8  1  0  0  0  0
  8  9  1  0  0  0  0
  9 10  1  0  0  0  0
 10 11  1  0  0  0  0
 11 12  1  0  0  0  0
 12 13  1  0  0  0  0
 13 14  1  0  0  0  0
M  END
>  <CHROM.1>
179.50026140,-179.60824699,-73.13645311,-159.71252384,176.41671815,-172.66728605
69.95149380,-89.11757063,-174.46129279,-179.47167311,-177.74603476,31.06209490
45.32757295,36.28090871,1.66997983,1.34908225,2.66067025

>  <Name>
ligand

>  <RI>
0

>  <Rbt.Current_Directory>
/home/itssahil/PROJECTS/Mol_Feturizer/New_Systems/rnas/4P5J

>  <Rbt.Executable>
rbdock ($Id: //depot/dev/client3/rdock/2013.1/src/exe/rbdock.cxx#4 $)

>  <Rbt.Library>
libRbt.so (2013.1, Build901 2013/11/27)

>  <Rbt.Parameter_File>
/export/apps/rDock/src/rDock_2013.1_src/data/scripts/dock_solv.prm

>  <Rbt.Receptor>
prm/pocket_docking_8.prm

>  <SCORE>
-3.04336

>  <SCORE.INTER>
6.19834

>  <SCORE.INTER.CONST>
1

>  <SCORE.INTER.POLAR>
0

>  <SCORE.INTER.ROT>
11

>  <SCORE.INTER.SOLV>
8.74751

>  <SCORE.INTER.VDW>
-9.71694

>  <SCORE.INTER.norm>
0.442739

>  <SCORE.INTRA>
-9.24171

>  <SCORE.INTRA.DIHEDRAL>
-15.8224

>  <SCORE.INTRA.DIHEDRAL.0>
17.5233

>  <SCORE.INTRA.POLAR>
0

>  <SCORE.INTRA.POLAR.0>
0

>  <SCORE.INTRA.REPUL>
0

>  <SCORE.INTRA.REPUL.0>
0

>  <SCORE.INTRA.SOLV>
-2.32516

>  <SCORE.INTRA.SOLV.lig_0>
-46.1043

>  <SCORE.INTRA.VDW>
-0.167931

>  <SCORE.INTRA.VDW.0>
-0.545445

>  <SCORE.INTRA.norm>
-0.660122

>  <SCORE.RESTR>
0

>  <SCORE.RESTR.CAVITY>
0

>  <SCORE.RESTR.norm>
0

>  <SCORE.SYSTEM>
0

>  <SCORE.SYSTEM.CONST>
0

>  <SCORE.SYSTEM.DIHEDRAL>
0

>  <SCORE.SYSTEM.SOLV>
0

>  <SCORE.SYSTEM.norm>
0

>  <SCORE.heavy>
14

>  <SCORE.norm>
-0.217383

>  <RMSD>
6.538

$$$$
ligand
 OpenBabel11021811513D
libRbt.so/2013.1/901 2013/11/27
 14 13  0  0  0  0  0  0  0  0999 V2000
   21.3510   53.6667   42.7973 N   0  0  0  0  0  0  0  0  0  0  0  0
   20.9517   52.3899   42.2279 C   0  0  0  0  0  0  0  0  0  0  0  0
   21.7180   52.1223   40.9368 C   0  0  0  0  0  0  0  0  0  0  0  0
   21.3129   50.7867   40.3234 C   0  0  0  0  0  0  0  0  0  0  0  0
   21.6781   49.6450   41.1567 N   0  0  0  0  0  0  0  0  0  0  0  0
   22.2464   48.4464   40.5632 C   0  0  0  0  0  0  0  0  0  0  0  0
   23.7710   48.4606   40.5461 C   0  0  0  0  0  0  0  0  0  0  0  0
   24.2724   49.5686   39.6267 C   0  0  0  0  0  0  0  0  0  0  0  0
   25.7922   49.6603   39.7096 C   0  0  0  0  0  0  0  0  0  0  0  0
   26.3234   50.7078   38.8546 N   0  0  0  0  0  0  0  0  0  0  0  0
   26.7405   50.3814   37.4973 C   0  0  0  0  0  0  0  0  0  0  0  0
   28.1766   49.8765   37.3748 C   0  0  0  0  0  0  0  0  0  0  0  0
   29.1667   50.9467   37.8376 C   0  0  0  0  0  0  0  0  0  0  0  0
   30.5293   50.4574   37.7155 N   0  0  0  0  0  0  0  0  0  0  0  0
  1  2  1  0  0  0  0
  2  3  1  0  0  0  0
  3  4  1  0  0  0  0
  4  5  1  0  0  0  0
  5  6  1  0  0  0  0
  6  7  1  0  0  0  0
  7  8  1  0  0  0  0
  8  9  1  0  0  0  0
  9 10  1  0  0  0  0
 10 11  1  0  0  0  0
 11 12  1  0  0  0  0
 12 13  1  0  0  0  0
 13 14  1  0  0  0  0
M  END
>  <CHROM.1>
-179.98954717,-65.17722403,-137.53443518,92.79914287,-65.62820422,174.94623459
-179.74650657,-92.59465422,-86.17877675,-61.85928547,-179.92788220,24.57343074
50.50804166,39.79753197,-2.90230921,-0.43576789,-2.89710636

>  <Name>
ligand

>  <RI>
0

>  <Rbt.Current_Directory>
/home/itssahil/PROJECTS/Mol_Feturizer/New_Systems/rnas/4P5J

>  <Rbt.Executable>
rbdock ($Id: //depot/dev/client3/rdock/2013.1/src/exe/rbdock.cxx#4 $)

>  <Rbt.Library>
libRbt.so (2013.1, Build901 2013/11/27)

>  <Rbt.Parameter_File>
/export/apps/rDock/src/rDock_2013.1_src/data/scripts/dock_solv.prm

>  <Rbt.Receptor>
prm/pocket_docking_6.prm

>  <SCORE>
-4.68283

>  <SCORE.INTER>
3.71311

>  <SCORE.INTER.CONST>
1

>  <SCORE.INTER.POLAR>
0

>  <SCORE.INTER.ROT>
11

>  <SCORE.INTER.SOLV>
5.10422

>  <SCORE.INTER.VDW>
-10.1593

>  <SCORE.INTER.norm>
0.265222

>  <SCORE.INTRA>
-8.39594

>  <SCORE.INTRA.DIHEDRAL>
-14.3696

>  <SCORE.INTRA.DIHEDRAL.0>
17.5233

>  <SCORE.INTRA.POLAR>
0

>  <SCORE.INTRA.POLAR.0>
0

>  <SCORE.INTRA.REPUL>
0

>  <SCORE.INTRA.REPUL.0>
0

>  <SCORE.INTRA.SOLV>
-1.63104

>  <SCORE.INTRA.SOLV.lig_0>
-46.1043

>  <SCORE.INTRA.VDW>
-0.395603

>  <SCORE.INTRA.VDW.0>
-0.545445

>  <SCORE.INTRA.norm>
-0.59971

>  <SCORE.RESTR>
0

>  <SCORE.RESTR.CAVITY>
0

>  <SCORE.RESTR.norm>
0

>  <SCORE.SYSTEM>
0

>  <SCORE.SYSTEM.CONST>
0

>  <SCORE.SYSTEM.DIHEDRAL>
0

>  <SCORE.SYSTEM.SOLV>
0

>  <SCORE.SYSTEM.norm>
0

>  <SCORE.heavy>
14

>  <SCORE.norm>
-0.334488

>  <RMSD>
6.606

$$$$
ligand
 OpenBabel11021811513D
libRbt.so/2013.1/901 2013/11/27
 14 13  0  0  0  0  0  0  0  0999 V2000
   29.9773   47.1067   42.8142 N   0  0  0  0  0  0  0  0  0  0  0  0
   28.6242   46.5767   42.7676 C   0  0  0  0  0  0  0  0  0  0  0  0
   27.8505   46.9875   44.0160 C   0  0  0  0  0  0  0  0  0  0  0  0
   26.4450   46.3969   44.0114 C   0  0  0  0  0  0  0  0  0  0  0  0
   25.6518   46.8279   42.8641 N   0  0  0  0  0  0  0  0  0  0  0  0
   24.2025   46.7223   42.8838 C   0  0  0  0  0  0  0  0  0  0  0  0
   23.5695   47.0155   41.5281 C   0  0  0  0  0  0  0  0  0  0  0  0
   24.0199   48.3830   41.0266 C   0  0  0  0  0  0  0  0  0  0  0  0
   23.3423   48.6943   39.6966 C   0  0  0  0  0  0  0  0  0  0  0  0
   23.8498   49.9169   39.0981 N   0  0  0  0  0  0  0  0  0  0  0  0
   24.6867   49.8379   37.9082 C   0  0  0  0  0  0  0  0  0  0  0  0
   24.9157   51.1710   37.1992 C   0  0  0  0  0  0  0  0  0  0  0  0
   23.5953   51.7374   36.6743 C   0  0  0  0  0  0  0  0  0  0  0  0
   23.8308   52.9785   35.9563 N   0  0  0  0  0  0  0  0  0  0  0  0
  1  2  1  0  0  0  0
  2  3  1  0  0  0  0
  3  4  1  0  0  0  0
  4  5  1  0  0  0  0
  5  6  1  0  0  0  0
  6  7  1  0  0  0  0
  7  8  1  0  0  0  0
  8  9  1  0  0  0  0
  9 10  1  0  0  0  0
 10 11  1  0  0  0  0
 11 12  1  0  0  0  0
 12 13  1  0  0  0  0
 13 14  1  0  0  0  0
M  END
>  <CHROM.1>
-177.83953213,-60.08159988,-160.96378102,-171.09964347,-54.96960010,-177.83126010
-173.47925271,108.89594850,167.64268776,-63.19835878,-177.76697255,25.32559776
48.59636883,40.60334481,-1.15724271,-0.09557735,-0.88209017

>  <Name>
ligand

>  <RI>
0

>  <Rbt.Current_Directory>
/home/itssahil/PROJECTS/Mol_Feturizer/New_Systems/rnas/4P5J

>  <Rbt.Executable>
rbdock ($Id: //depot/dev/client3/rdock/2013.1/src/exe/rbdock.cxx#4 $)

>  <Rbt.Library>
libRbt.so (2013.1, Build901 2013/11/27)

>  <Rbt.Parameter_File>
/export/apps/rDock/src/rDock_2013.1_src/data/scripts/dock_solv.prm

>  <Rbt.Receptor>
prm/pocket_docking_8.prm

>  <SCORE>
-6.09547

>  <SCORE.INTER>
2.93002

>  <SCORE.INTER.CONST>
1

>  <SCORE.INTER.POLAR>
0

>  <SCORE.INTER.ROT>
11

>  <SCORE.INTER.SOLV>
8.3766

>  <SCORE.INTER.VDW>
-11.7722

>  <SCORE.INTER.norm>
0.209287

>  <SCORE.INTRA>
-9.02549

>  <SCORE.INTRA.DIHEDRAL>
-15.6131

>  <SCORE.INTRA.DIHEDRAL.0>
17.5233

>  <SCORE.INTRA.POLAR>
0

>  <SCORE.INTRA.POLAR.0>
0

>  <SCORE.INTRA.REPUL>
0

>  <SCORE.INTRA.REPUL.0>
0

>  <SCORE.INTRA.SOLV>
-1.57205

>  <SCORE.INTRA.SOLV.lig_0>
-46.1043

>  <SCORE.INTRA.VDW>
-0.432908

>  <SCORE.INTRA.VDW.0>
-0.545445

>  <SCORE.INTRA.norm>
-0.644678

>  <SCORE.RESTR>
0

>  <SCORE.RESTR.CAVITY>
0

>  <SCORE.RESTR.norm>
0

>  <SCORE.SYSTEM>
0

>  <SCORE.SYSTEM.CONST>
0

>  <SCORE.SYSTEM.DIHEDRAL>
0

>  <SCORE.SYSTEM.SOLV>
0

>  <SCORE.SYSTEM.norm>
0

>  <SCORE.heavy>
14

>  <SCORE.norm>
-0.435391

>  <RMSD>
6.633

$$$$
ligand
 OpenBabel11021811513D
libRbt.so/2013.1/901 2013/11/27
 14 13  0  0  0  0  0  0  0  0999 V2000
   31.1473   42.6513   43.5869 N   0  0  0  0  0  0  0  0  0  0  0  0
   30.7440   43.7741   42.7558 C   0  0  0  0  0  0  0  0  0  0  0  0
   29.8633   44.7326   43.5504 C   0  0  0  0  0  0  0  0  0  0  0  0
   29.4107   45.9062   42.6890 C   0  0  0  0  0  0  0  0  0  0  0  0
   30.5261   46.6813   42.1539 N   0  0  0  0  0  0  0  0  0  0  0  0
   30.5906   47.0071   40.7392 C   0  0  0  0  0  0  0  0  0  0  0  0
   31.1510   45.8679   39.8948 C   0  0  0  0  0  0  0  0  0  0  0  0
   31.2279   46.2913   38.4322 C   0  0  0  0  0  0  0  0  0  0  0  0
   31.7091   45.1215   37.5805 C   0  0  0  0  0  0  0  0  0  0  0  0
   31.7893   45.4683   36.1720 N   0  0  0  0  0  0  0  0  0  0  0  0
   32.8839   46.3073   35.7024 C   0  0  0  0  0  0  0  0  0  0  0  0
   32.5194   47.2510   34.5584 C   0  0  0  0  0  0  0  0  0  0  0  0
   31.5131   48.3037   35.0264 C   0  0  0  0  0  0  0  0  0  0  0  0
   31.2372   49.2464   33.9557 N   0  0  0  0  0  0  0  0  0  0  0  0
  1  2  1  0  0  0  0
  2  3  1  0  0  0  0
  3  4  1  0  0  0  0
  4  5  1  0  0  0  0
  5  6  1  0  0  0  0
  6  7  1  0  0  0  0
  7  8  1  0  0  0  0
  8  9  1  0  0  0  0
  9 10  1  0  0  0  0
 10 11  1  0  0  0  0
 11 12  1  0  0  0  0
 12 13  1  0  0  0  0
 13 14  1  0  0  0  0
M  END
>  <CHROM.1>
-179.06638077,-59.28612432,130.16435881,-81.97544663,-178.37118167,-176.60085285
179.49261195,74.96067403,-145.90506504,66.11696946,176.41821172,31.16519670
46.04358247,39.05700570,-1.95954726,1.08420044,-0.87264239

>  <Name>
ligand

>  <RI>
0

>  <Rbt.Current_Directory>
/home/itssahil/PROJECTS/Mol_Feturizer/New_Systems/rnas/4P5J

>  <Rbt.Executable>
rbdock ($Id: //depot/dev/client3/rdock/2013.1/src/exe/rbdock.cxx#4 $)

>  <Rbt.Library>
libRbt.so (2013.1, Build901 2013/11/27)

>  <Rbt.Parameter_File>
/export/apps/rDock/src/rDock_2013.1_src/data/scripts/dock_solv.prm

>  <Rbt.Receptor>
prm/pocket_docking_5.prm

>  <SCORE>
-1.56287

>  <SCORE.INTER>
7.48271

>  <SCORE.INTER.CONST>
1

>  <SCORE.INTER.POLAR>
0

>  <SCORE.INTER.ROT>
11

>  <SCORE.INTER.SOLV>
6.83269

>  <SCORE.INTER.VDW>
-8.22242

>  <SCORE.INTER.norm>
0.53448

>  <SCORE.INTRA>
-9.04559

>  <SCORE.INTRA.DIHEDRAL>
-14.8952

>  <SCORE.INTRA.DIHEDRAL.0>
17.5233

>  <SCORE.INTRA.POLAR>
0

>  <SCORE.INTRA.POLAR.0>
0

>  <SCORE.INTRA.REPUL>
0

>  <SCORE.INTRA.REPUL.0>
0

>  <SCORE.INTRA.SOLV>
-1.99864

>  <SCORE.INTRA.SOLV.lig_0>
-46.1043

>  <SCORE.INTRA.VDW>
-0.598683

>  <SCORE.INTRA.VDW.0>
-0.545445

>  <SCORE.INTRA.norm>
-0.646113

>  <SCORE.RESTR>
0

>  <SCORE.RESTR.CAVITY>
0

>  <SCORE.RESTR.norm>
0

>  <SCORE.SYSTEM>
0

>  <SCORE.SYSTEM.CONST>
0

>  <SCORE.SYSTEM.DIHEDRAL>
0

>  <SCORE.SYSTEM.SOLV>
0

>  <SCORE.SYSTEM.norm>
0

>  <SCORE.heavy>
14

>  <SCORE.norm>
-0.111634

>  <RMSD>
6.698

$$$$
ligand
 OpenBabel11021811513D
libRbt.so/2013.1/901 2013/11/27
 14 13  0  0  0  0  0  0  0  0999 V2000
   28.9911   49.7538   39.0746 N   0  0  0  0  0  0  0  0  0  0  0  0
   27.8176   50.0187   39.8910 C   0  0  0  0  0  0  0  0  0  0  0  0
   26.5463   49.6982   39.1120 C   0  0  0  0  0  0  0  0  0  0  0  0
   26.4077   50.5996   37.8903 C   0  0  0  0  0  0  0  0  0  0  0  0
   25.1342   50.4261   37.1981 N   0  0  0  0  0  0  0  0  0  0  0  0
   24.8059   51.2357   36.0368 C   0  0  0  0  0  0  0  0  0  0  0  0
   23.3847   51.7863   36.0822 C   0  0  0  0  0  0  0  0  0  0  0  0
   23.3097   52.9577   37.0552 C   0  0  0  0  0  0  0  0  0  0  0  0
   23.4430   52.4494   38.4866 C   0  0  0  0  0  0  0  0  0  0  0  0
   22.3561   51.5579   38.8530 N   0  0  0  0  0  0  0  0  0  0  0  0
   21.9038   51.5113   40.2371 C   0  0  0  0  0  0  0  0  0  0  0  0
   21.5104   50.1217   40.7337 C   0  0  0  0  0  0  0  0  0  0  0  0
   22.7035   49.1667   40.6674 C   0  0  0  0  0  0  0  0  0  0  0  0
   22.3455   47.8753   41.2289 N   0  0  0  0  0  0  0  0  0  0  0  0
  1  2  1  0  0  0  0
  2  3  1  0  0  0  0
  3  4  1  0  0  0  0
  4  5  1  0  0  0  0
  5  6  1  0  0  0  0
  6  7  1  0  0  0  0
  7  8  1  0  0  0  0
  8  9  1  0  0  0  0
  9 10  1  0  0  0  0
 10 11  1  0  0  0  0
 11 12  1  0  0  0  0
 12 13  1  0  0  0  0
 13 14  1  0  0  0  0
M  END
>  <CHROM.1>
-63.18826998,-173.73461363,177.86153609,-134.75696793,76.40226136,-70.85944352
-62.61529875,-148.84783796,-142.50102303,61.08537550,176.00445862,24.33265767
50.65447841,38.75321521,-0.18308460,-0.20218135,2.20345752

>  <Name>
ligand

>  <RI>
0

>  <Rbt.Current_Directory>
/home/itssahil/PROJECTS/Mol_Feturizer/New_Systems/rnas/4P5J

>  <Rbt.Executable>
rbdock ($Id: //depot/dev/client3/rdock/2013.1/src/exe/rbdock.cxx#4 $)

>  <Rbt.Library>
libRbt.so (2013.1, Build901 2013/11/27)

>  <Rbt.Parameter_File>
/export/apps/rDock/src/rDock_2013.1_src/data/scripts/dock_solv.prm

>  <Rbt.Receptor>
prm/pocket_docking_7.prm

>  <SCORE>
-3.17206

>  <SCORE.INTER>
3.48602

>  <SCORE.INTER.CONST>
1

>  <SCORE.INTER.POLAR>
0

>  <SCORE.INTER.ROT>
11

>  <SCORE.INTER.SOLV>
11.2307

>  <SCORE.INTER.VDW>
-12.3529

>  <SCORE.INTER.norm>
0.249001

>  <SCORE.INTRA>
-6.65808

>  <SCORE.INTRA.DIHEDRAL>
-13.3098

>  <SCORE.INTRA.DIHEDRAL.0>
17.5233

>  <SCORE.INTRA.POLAR>
0

>  <SCORE.INTRA.POLAR.0>
0

>  <SCORE.INTRA.REPUL>
0

>  <SCORE.INTRA.REPUL.0>
0

>  <SCORE.INTRA.SOLV>
0.718499

>  <SCORE.INTRA.SOLV.lig_0>
-46.1043

>  <SCORE.INTRA.VDW>
-0.362414

>  <SCORE.INTRA.VDW.0>
-0.545445

>  <SCORE.INTRA.norm>
-0.475577

>  <SCORE.RESTR>
0

>  <SCORE.RESTR.CAVITY>
0

>  <SCORE.RESTR.norm>
0

>  <SCORE.SYSTEM>
0

>  <SCORE.SYSTEM.CONST>
0

>  <SCORE.SYSTEM.DIHEDRAL>
0

>  <SCORE.SYSTEM.SOLV>
0

>  <SCORE.SYSTEM.norm>
0

>  <SCORE.heavy>
14

>  <SCORE.norm>
-0.226576

>  <RMSD>
6.789

$$$$
ligand
 OpenBabel11021811513D
libRbt.so/2013.1/901 2013/11/27
 14 13  0  0  0  0  0  0  0  0999 V2000
   28.8628   48.7244   41.2953 N   0  0  0  0  0  0  0  0  0  0  0  0
   28.7749   49.4915   40.0633 C   0  0  0  0  0  0  0  0  0  0  0  0
   27.3920   49.3360   39.4394 C   0  0  0  0  0  0  0  0  0  0  0  0
   27.2908   50.1054   38.1271 C   0  0  0  0  0  0  0  0  0  0  0  0
   25.9810   49.9799   37.4948 N   0  0  0  0  0  0  0  0  0  0  0  0
   24.8449   50.7409   37.9868 C   0  0  0  0  0  0  0  0  0  0  0  0
   23.9915   49.9561   38.9770 C   0  0  0  0  0  0  0  0  0  0  0  0
   22.8565   50.8317   39.4963 C   0  0  0  0  0  0  0  0  0  0  0  0
   21.8696   49.9816   40.2891 C   0  0  0  0  0  0  0  0  0  0  0  0
   22.5065   49.3033   41.4047 N   0  0  0  0  0  0  0  0  0  0  0  0
   22.1142   47.9387   41.7314 C   0  0  0  0  0  0  0  0  0  0  0  0
   23.1978   46.8889   41.4947 C   0  0  0  0  0  0  0  0  0  0  0  0
   24.4099   47.1526   42.3898 C   0  0  0  0  0  0  0  0  0  0  0  0
   24.0410   47.0159   43.7885 N   0  0  0  0  0  0  0  0  0  0  0  0
  1  2  1  0  0  0  0
  2  3  1  0  0  0  0
  3  4  1  0  0  0  0
  4  5  1  0  0  0  0
  5  6  1  0  0  0  0
  6  7  1  0  0  0  0
  7  8  1  0  0  0  0
  8  9  1  0  0  0  0
  9 10  1  0  0  0  0
 10 11  1  0  0  0  0
 11 12  1  0  0  0  0
 12 13  1  0  0  0  0
 13 14  1  0  0  0  0
M  END
>  <CHROM.1>
-178.57347191,179.87232191,77.34881618,-94.87577992,177.56992390,170.11734665
58.13605540,-141.12641581,112.87913197,62.59733849,63.85465560,24.86648216
49.10350480,40.28385179,-0.60162499,-0.07215345,2.20442091

>  <Name>
ligand

>  <RI>
0

>  <Rbt.Current_Directory>
/home/itssahil/PROJECTS/Mol_Feturizer/New_Systems/rnas/4P5J

>  <Rbt.Executable>
rbdock ($Id: //depot/dev/client3/rdock/2013.1/src/exe/rbdock.cxx#4 $)

>  <Rbt.Library>
libRbt.so (2013.1, Build901 2013/11/27)

>  <Rbt.Parameter_File>
/export/apps/rDock/src/rDock_2013.1_src/data/scripts/dock_solv.prm

>  <Rbt.Receptor>
prm/pocket_docking_7.prm

>  <SCORE>
-3.97245

>  <SCORE.INTER>
3.86758

>  <SCORE.INTER.CONST>
1

>  <SCORE.INTER.POLAR>
0

>  <SCORE.INTER.ROT>
11

>  <SCORE.INTER.SOLV>
7.09164

>  <SCORE.INTER.VDW>
-10.7188

>  <SCORE.INTER.norm>
0.276256

>  <SCORE.INTRA>
-7.84003

>  <SCORE.INTRA.DIHEDRAL>
-13.9878

>  <SCORE.INTRA.DIHEDRAL.0>
17.5233

>  <SCORE.INTRA.POLAR>
0

>  <SCORE.INTRA.POLAR.0>
0

>  <SCORE.INTRA.REPUL>
0

>  <SCORE.INTRA.REPUL.0>
0

>  <SCORE.INTRA.SOLV>
-0.557221

>  <SCORE.INTRA.SOLV.lig_0>
-46.1043

>  <SCORE.INTRA.VDW>
-0.567503

>  <SCORE.INTRA.VDW.0>
-0.545445

>  <SCORE.INTRA.norm>
-0.560002

>  <SCORE.RESTR>
0

>  <SCORE.RESTR.CAVITY>
0

>  <SCORE.RESTR.norm>
0

>  <SCORE.SYSTEM>
0

>  <SCORE.SYSTEM.CONST>
0

>  <SCORE.SYSTEM.DIHEDRAL>
0

>  <SCORE.SYSTEM.SOLV>
0

>  <SCORE.SYSTEM.norm>
0

>  <SCORE.heavy>
14

>  <SCORE.norm>
-0.283746

>  <RMSD>
6.839

$$$$
ligand
 OpenBabel11021811513D
libRbt.so/2013.1/901 2013/11/27
 14 13  0  0  0  0  0  0  0  0999 V2000
   28.2622   50.8044   38.3681 N   0  0  0  0  0  0  0  0  0  0  0  0
   26.8888   50.7053   38.8349 C   0  0  0  0  0  0  0  0  0  0  0  0
   26.0034   50.0966   37.7525 C   0  0  0  0  0  0  0  0  0  0  0  0
   24.5447   50.0555   38.1937 C   0  0  0  0  0  0  0  0  0  0  0  0
   24.3343   49.2371   39.3842 N   0  0  0  0  0  0  0  0  0  0  0  0
   23.0025   49.0668   39.9402 C   0  0  0  0  0  0  0  0  0  0  0  0
   23.0191   48.4699   41.3431 C   0  0  0  0  0  0  0  0  0  0  0  0
   23.5907   47.0570   41.3025 C   0  0  0  0  0  0  0  0  0  0  0  0
   23.6861   46.4976   42.7178 C   0  0  0  0  0  0  0  0  0  0  0  0
   24.6355   47.2350   43.5336 N   0  0  0  0  0  0  0  0  0  0  0  0
   26.0637   47.0314   43.3306 C   0  0  0  0  0  0  0  0  0  0  0  0
   26.7240   46.0918   44.3374 C   0  0  0  0  0  0  0  0  0  0  0  0
   28.2211   45.9604   44.0521 C   0  0  0  0  0  0  0  0  0  0  0  0
   28.8430   45.0799   45.0263 N   0  0  0  0  0  0  0  0  0  0  0  0
  1  2  1  0  0  0  0
  2  3  1  0  0  0  0
  3  4  1  0  0  0  0
  4  5  1  0  0  0  0
  5  6  1  0  0  0  0
  6  7  1  0  0  0  0
  7  8  1  0  0  0  0
  8  9  1  0  0  0  0
  9 10  1  0  0  0  0
 10 11  1  0  0  0  0
 11 12  1  0  0  0  0
 12 13  1  0  0  0  0
 13 14  1  0  0  0  0
M  END
>  <CHROM.1>
-176.84794095,-61.36640166,-179.17723316,-166.32467812,-64.12132187,176.48379506
-65.06129383,-75.55054177,-99.82301867,-179.18268719,179.19468766,25.55811136
48.09920605,41.29395893,-1.78070068,0.06256814,2.21768107

>  <Name>
ligand

>  <RI>
0

>  <Rbt.Current_Directory>
/home/itssahil/PROJECTS/Mol_Feturizer/New_Systems/rnas/4P5J

>  <Rbt.Executable>
rbdock ($Id: //depot/dev/client3/rdock/2013.1/src/exe/rbdock.cxx#4 $)

>  <Rbt.Library>
libRbt.so (2013.1, Build901 2013/11/27)

>  <Rbt.Parameter_File>
/export/apps/rDock/src/rDock_2013.1_src/data/scripts/dock_solv.prm

>  <Rbt.Receptor>
prm/pocket_docking_8.prm

>  <SCORE>
-5.04266

>  <SCORE.INTER>
4.04209

>  <SCORE.INTER.CONST>
1

>  <SCORE.INTER.POLAR>
0

>  <SCORE.INTER.ROT>
11

>  <SCORE.INTER.SOLV>
6.27159

>  <SCORE.INTER.VDW>
-10.3291

>  <SCORE.INTER.norm>
0.288721

>  <SCORE.INTRA>
-9.08475

>  <SCORE.INTRA.DIHEDRAL>
-16.0304

>  <SCORE.INTRA.DIHEDRAL.0>
17.5233

>  <SCORE.INTRA.POLAR>
0

>  <SCORE.INTRA.POLAR.0>
0

>  <SCORE.INTRA.REPUL>
0

>  <SCORE.INTRA.REPUL.0>
0

>  <SCORE.INTRA.SOLV>
-1.53733

>  <SCORE.INTRA.SOLV.lig_0>
-46.1043

>  <SCORE.INTRA.VDW>
-0.300864

>  <SCORE.INTRA.VDW.0>
-0.545445

>  <SCORE.INTRA.norm>
-0.648911

>  <SCORE.RESTR>
0

>  <SCORE.RESTR.CAVITY>
0

>  <SCORE.RESTR.norm>
0

>  <SCORE.SYSTEM>
0

>  <SCORE.SYSTEM.CONST>
0

>  <SCORE.SYSTEM.DIHEDRAL>
0

>  <SCORE.SYSTEM.SOLV>
0

>  <SCORE.SYSTEM.norm>
0

>  <SCORE.heavy>
14

>  <SCORE.norm>
-0.36019

>  <RMSD>
6.909

$$$$
ligand
 OpenBabel11021811513D
libRbt.so/2013.1/901 2013/11/27
 14 13  0  0  0  0  0  0  0  0999 V2000
   29.0151   46.5882   44.3723 N   0  0  0  0  0  0  0  0  0  0  0  0
   27.6350   46.1502   44.2401 C   0  0  0  0  0  0  0  0  0  0  0  0
   26.8586   47.1077   43.3422 C   0  0  0  0  0  0  0  0  0  0  0  0
   25.4092   46.6616   43.1856 C   0  0  0  0  0  0  0  0  0  0  0  0
   24.6374   47.5368   42.3083 N   0  0  0  0  0  0  0  0  0  0  0  0
   23.3026   47.1602   41.8743 C   0  0  0  0  0  0  0  0  0  0  0  0
   22.5678   48.2949   41.1689 C   0  0  0  0  0  0  0  0  0  0  0  0
   23.2305   48.5920   39.8284 C   0  0  0  0  0  0  0  0  0  0  0  0
   24.4594   49.4688   40.0429 C   0  0  0  0  0  0  0  0  0  0  0  0
   25.0873   49.8453   38.7881 N   0  0  0  0  0  0  0  0  0  0  0  0
   24.3955   50.7569   37.8864 C   0  0  0  0  0  0  0  0  0  0  0  0
   25.1126   51.0119   36.5624 C   0  0  0  0  0  0  0  0  0  0  0  0
   24.3247   52.0025   35.7035 C   0  0  0  0  0  0  0  0  0  0  0  0
   25.0669   52.3218   34.4958 N   0  0  0  0  0  0  0  0  0  0  0  0
  1  2  1  0  0  0  0
  2  3  1  0  0  0  0
  3  4  1  0  0  0  0
  4  5  1  0  0  0  0
  5  6  1  0  0  0  0
  6  7  1  0  0  0  0
  7  8  1  0  0  0  0
  8  9  1  0  0  0  0
  9 10  1  0  0  0  0
 10 11  1  0  0  0  0
 11 12  1  0  0  0  0
 12 13  1  0  0  0  0
 13 14  1  0  0  0  0
M  END
>  <CHROM.1>
179.73415790,-178.74304321,170.38869244,170.09021597,68.31743124,-80.79175030
-176.75654792,68.58871218,-176.41234775,-178.71416133,175.37965553,25.07839934
48.82123087,40.27150158,-1.33927186,-0.07856066,-0.98071325

>  <Name>
ligand

>  <RI>
0

>  <Rbt.Current_Directory>
/home/itssahil/PROJECTS/Mol_Feturizer/New_Systems/rnas/4P5J

>  <Rbt.Executable>
rbdock ($Id: //depot/dev/client3/rdock/2013.1/src/exe/rbdock.cxx#4 $)

>  <Rbt.Library>
libRbt.so (2013.1, Build901 2013/11/27)

>  <Rbt.Parameter_File>
/export/apps/rDock/src/rDock_2013.1_src/data/scripts/dock_solv.prm

>  <Rbt.Receptor>
prm/pocket_docking_8.prm

>  <SCORE>
-4.77598

>  <SCORE.INTER>
3.58947

>  <SCORE.INTER.CONST>
1

>  <SCORE.INTER.POLAR>
0

>  <SCORE.INTER.ROT>
11

>  <SCORE.INTER.SOLV>
8.7441

>  <SCORE.INTER.VDW>
-11.4551

>  <SCORE.INTER.norm>
0.256391

>  <SCORE.INTRA>
-8.36545

>  <SCORE.INTRA.DIHEDRAL>
-15.2684

>  <SCORE.INTRA.DIHEDRAL.0>
17.5233

>  <SCORE.INTRA.POLAR>
0

>  <SCORE.INTRA.POLAR.0>
0

>  <SCORE.INTRA.REPUL>
0

>  <SCORE.INTRA.REPUL.0>
0

>  <SCORE.INTRA.SOLV>
-1.6547

>  <SCORE.INTRA.SOLV.lig_0>
-46.1043

>  <SCORE.INTRA.VDW>
0.0960952

>  <SCORE.INTRA.VDW.0>
-0.545445

>  <SCORE.INTRA.norm>
-0.597532

>  <SCORE.RESTR>
0

>  <SCORE.RESTR.CAVITY>
0

>  <SCORE.RESTR.norm>
0

>  <SCORE.SYSTEM>
0

>  <SCORE.SYSTEM.CONST>
0

>  <SCORE.SYSTEM.DIHEDRAL>
0

>  <SCORE.SYSTEM.SOLV>
0

>  <SCORE.SYSTEM.norm>
0

>  <SCORE.heavy>
14

>  <SCORE.norm>
-0.341141

>  <RMSD>
6.979

$$$$
ligand
 OpenBabel11021811513D
libRbt.so/2013.1/901 2013/11/27
 14 13  0  0  0  0  0  0  0  0999 V2000
   29.5879   46.9270   43.5089 N   0  0  0  0  0  0  0  0  0  0  0  0
   28.2657   46.5903   44.0113 C   0  0  0  0  0  0  0  0  0  0  0  0
   27.1945   47.0197   43.0143 C   0  0  0  0  0  0  0  0  0  0  0  0
   25.7986   46.6873   43.5295 C   0  0  0  0  0  0  0  0  0  0  0  0
   24.7477   47.0044   42.5671 N   0  0  0  0  0  0  0  0  0  0  0  0
   23.3500   46.9895   42.9646 C   0  0  0  0  0  0  0  0  0  0  0  0
   22.3970   46.9520   41.7751 C   0  0  0  0  0  0  0  0  0  0  0  0
   22.4432   48.2797   41.0272 C   0  0  0  0  0  0  0  0  0  0  0  0
   23.7366   48.3760   40.2252 C   0  0  0  0  0  0  0  0  0  0  0  0
   23.7754   49.5658   39.3926 N   0  0  0  0  0  0  0  0  0  0  0  0
   24.9683   49.8507   38.6061 C   0  0  0  0  0  0  0  0  0  0  0  0
   24.7117   50.6249   37.3149 C   0  0  0  0  0  0  0  0  0  0  0  0
   24.1502   52.0144   37.6209 C   0  0  0  0  0  0  0  0  0  0  0  0
   24.0284   52.7881   36.3970 N   0  0  0  0  0  0  0  0  0  0  0  0
  1  2  1  0  0  0  0
  2  3  1  0  0  0  0
  3  4  1  0  0  0  0
  4  5  1  0  0  0  0
  5  6  1  0  0  0  0
  6  7  1  0  0  0  0
  7  8  1  0  0  0  0
  8  9  1  0  0  0  0
  9 10  1  0  0  0  0
 10 11  1  0  0  0  0
 11 12  1  0  0  0  0
 12 13  1  0  0  0  0
 13 14  1  0  0  0  0
M  END
>  <CHROM.1>
-179.44111974,-176.31516004,-168.62854019,-163.73231171,-69.36743381,74.42623193
174.52855740,177.07281735,150.68300207,63.55239519,174.63478399,24.93940736
48.54763804,40.85405571,-1.19715585,-0.11969361,-0.86384738

>  <Name>
ligand

>  <RI>
0

>  <Rbt.Current_Directory>
/home/itssahil/PROJECTS/Mol_Feturizer/New_Systems/rnas/4P5J

>  <Rbt.Executable>
rbdock ($Id: //depot/dev/client3/rdock/2013.1/src/exe/rbdock.cxx#4 $)

>  <Rbt.Library>
libRbt.so (2013.1, Build901 2013/11/27)

>  <Rbt.Parameter_File>
/export/apps/rDock/src/rDock_2013.1_src/data/scripts/dock_solv.prm

>  <Rbt.Receptor>
prm/pocket_docking_7.prm

>  <SCORE>
-4.51823

>  <SCORE.INTER>
3.71466

>  <SCORE.INTER.CONST>
1

>  <SCORE.INTER.POLAR>
0

>  <SCORE.INTER.ROT>
11

>  <SCORE.INTER.SOLV>
7.20531

>  <SCORE.INTER.VDW>
-10.8587

>  <SCORE.INTER.norm>
0.265333

>  <SCORE.INTRA>
-8.23289

>  <SCORE.INTRA.DIHEDRAL>
-15.1513

>  <SCORE.INTRA.DIHEDRAL.0>
17.5233

>  <SCORE.INTRA.POLAR>
0

>  <SCORE.INTRA.POLAR.0>
0

>  <SCORE.INTRA.REPUL>
0

>  <SCORE.INTRA.REPUL.0>
0

>  <SCORE.INTRA.SOLV>
-1.28223

>  <SCORE.INTRA.SOLV.lig_0>
-46.1043

>  <SCORE.INTRA.VDW>
-0.0161007

>  <SCORE.INTRA.VDW.0>
-0.545445

>  <SCORE.INTRA.norm>
-0.588063

>  <SCORE.RESTR>
0

>  <SCORE.RESTR.CAVITY>
0

>  <SCORE.RESTR.norm>
0

>  <SCORE.SYSTEM>
0

>  <SCORE.SYSTEM.CONST>
0

>  <SCORE.SYSTEM.DIHEDRAL>
0

>  <SCORE.SYSTEM.SOLV>
0

>  <SCORE.SYSTEM.norm>
0

>  <SCORE.heavy>
14

>  <SCORE.norm>
-0.32273

>  <RMSD>
6.984

$$$$
ligand
 OpenBabel11021811513D
libRbt.so/2013.1/901 2013/11/27
 14 13  0  0  0  0  0  0  0  0999 V2000
   29.7292   50.8058   36.9884 N   0  0  0  0  0  0  0  0  0  0  0  0
   28.8098   51.8526   36.5725 C   0  0  0  0  0  0  0  0  0  0  0  0
   28.4640   51.6984   35.0952 C   0  0  0  0  0  0  0  0  0  0  0  0
   27.5695   52.8370   34.6178 C   0  0  0  0  0  0  0  0  0  0  0  0
   26.2615   52.8416   35.2662 N   0  0  0  0  0  0  0  0  0  0  0  0
   25.1780   52.0197   34.7541 C   0  0  0  0  0  0  0  0  0  0  0  0
   23.8941   52.1616   35.5643 C   0  0  0  0  0  0  0  0  0  0  0  0
   24.1143   51.6525   36.9844 C   0  0  0  0  0  0  0  0  0  0  0  0
   22.8548   51.8763   37.8143 C   0  0  0  0  0  0  0  0  0  0  0  0
   22.9687   51.3040   39.1447 N   0  0  0  0  0  0  0  0  0  0  0  0
   21.7789   51.1843   39.9770 C   0  0  0  0  0  0  0  0  0  0  0  0
   21.7594   52.1011   41.1983 C   0  0  0  0  0  0  0  0  0  0  0  0
   21.8035   53.5695   40.7721 C   0  0  0  0  0  0  0  0  0  0  0  0
   21.8333   54.4315   41.9414 N   0  0  0  0  0  0  0  0  0  0  0  0
  1  2  1  0  0  0  0
  2  3  1  0  0  0  0
  3  4  1  0  0  0  0
  4  5  1  0  0  0  0
  5  6  1  0  0  0  0
  6  7  1  0  0  0  0
  7  8  1  0  0  0  0
  8  9  1  0  0  0  0
  9 10  1  0  0  0  0
 10 11  1  0  0  0  0
 11 12  1  0  0  0  0
 12 13  1  0  0  0  0
 13 14  1  0  0  0  0
M  END
>  <CHROM.1>
-176.45580764,-64.65795381,-84.72619919,-179.98563723,-63.97996592,176.50078106
175.00405688,-167.75616551,-111.45959665,61.22679363,-177.94855821,24.78690872
52.16677558,37.62048174,-0.70272000,-0.09131120,1.52559380

>  <Name>
ligand

>  <RI>
0

>  <Rbt.Current_Directory>
/home/itssahil/PROJECTS/Mol_Feturizer/New_Systems/rnas/4P5J

>  <Rbt.Executable>
rbdock ($Id: //depot/dev/client3/rdock/2013.1/src/exe/rbdock.cxx#4 $)

>  <Rbt.Library>
libRbt.so (2013.1, Build901 2013/11/27)

>  <Rbt.Parameter_File>
/export/apps/rDock/src/rDock_2013.1_src/data/scripts/dock_solv.prm

>  <Rbt.Receptor>
prm/pocket_docking_6.prm

>  <SCORE>
-3.48902

>  <SCORE.INTER>
5.62872

>  <SCORE.INTER.CONST>
1

>  <SCORE.INTER.POLAR>
0

>  <SCORE.INTER.ROT>
11

>  <SCORE.INTER.SOLV>
5.30432

>  <SCORE.INTER.VDW>
-8.94896

>  <SCORE.INTER.norm>
0.402051

>  <SCORE.INTRA>
-9.11773

>  <SCORE.INTRA.DIHEDRAL>
-15.4712

>  <SCORE.INTRA.DIHEDRAL.0>
17.5233

>  <SCORE.INTRA.POLAR>
0

>  <SCORE.INTRA.POLAR.0>
0

>  <SCORE.INTRA.REPUL>
0

>  <SCORE.INTRA.REPUL.0>
0

>  <SCORE.INTRA.SOLV>
-1.60224

>  <SCORE.INTRA.SOLV.lig_0>
-46.1043

>  <SCORE.INTRA.VDW>
-0.580992

>  <SCORE.INTRA.VDW.0>
-0.545445

>  <SCORE.INTRA.norm>
-0.651267

>  <SCORE.RESTR>
0

>  <SCORE.RESTR.CAVITY>
0

>  <SCORE.RESTR.norm>
0

>  <SCORE.SYSTEM>
0

>  <SCORE.SYSTEM.CONST>
0

>  <SCORE.SYSTEM.DIHEDRAL>
0

>  <SCORE.SYSTEM.SOLV>
0

>  <SCORE.SYSTEM.norm>
0

>  <SCORE.heavy>
14

>  <SCORE.norm>
-0.249216

>  <RMSD>
7.017

$$$$
ligand
 OpenBabel11021811513D
libRbt.so/2013.1/901 2013/11/27
 14 13  0  0  0  0  0  0  0  0999 V2000
   22.2287   54.9377   44.8239 N   0  0  0  0  0  0  0  0  0  0  0  0
   22.0458   54.8243   43.3860 C   0  0  0  0  0  0  0  0  0  0  0  0
   21.4865   53.4511   43.0292 C   0  0  0  0  0  0  0  0  0  0  0  0
   21.2817   53.3145   41.5246 C   0  0  0  0  0  0  0  0  0  0  0  0
   20.7516   52.0098   41.1399 N   0  0  0  0  0  0  0  0  0  0  0  0
   21.6274   50.8545   41.0400 C   0  0  0  0  0  0  0  0  0  0  0  0
   22.5251   50.8974   39.8083 C   0  0  0  0  0  0  0  0  0  0  0  0
   23.4610   49.6939   39.8024 C   0  0  0  0  0  0  0  0  0  0  0  0
   24.3735   49.7553   38.5823 C   0  0  0  0  0  0  0  0  0  0  0  0
   25.2739   50.8943   38.6305 N   0  0  0  0  0  0  0  0  0  0  0  0
   26.3501   50.9982   37.6540 C   0  0  0  0  0  0  0  0  0  0  0  0
   27.5196   50.0445   37.8890 C   0  0  0  0  0  0  0  0  0  0  0  0
   28.1883   50.3313   39.2345 C   0  0  0  0  0  0  0  0  0  0  0  0
   29.3123   49.4334   39.4386 N   0  0  0  0  0  0  0  0  0  0  0  0
  1  2  1  0  0  0  0
  2  3  1  0  0  0  0
  3  4  1  0  0  0  0
  4  5  1  0  0  0  0
  5  6  1  0  0  0  0
  6  7  1  0  0  0  0
  7  8  1  0  0  0  0
  8  9  1  0  0  0  0
  9 10  1  0  0  0  0
 10 11  1  0  0  0  0
 11 12  1  0  0  0  0
 12 13  1  0  0  0  0
 13 14  1  0  0  0  0
M  END
>  <CHROM.1>
179.75277022,179.76844548,-79.81616218,-73.60154732,177.27114812,-178.97622129
65.18812716,170.73915354,-74.20578155,-61.86144818,-179.08529061,24.03025851
51.53132917,40.42712712,-2.37277839,-0.02993649,-2.29718359

>  <Name>
ligand

>  <RI>
0

>  <Rbt.Current_Directory>
/home/itssahil/PROJECTS/Mol_Feturizer/New_Systems/rnas/4P5J

>  <Rbt.Executable>
rbdock ($Id: //depot/dev/client3/rdock/2013.1/src/exe/rbdock.cxx#4 $)

>  <Rbt.Library>
libRbt.so (2013.1, Build901 2013/11/27)

>  <Rbt.Parameter_File>
/export/apps/rDock/src/rDock_2013.1_src/data/scripts/dock_solv.prm

>  <Rbt.Receptor>
prm/pocket_docking_6.prm

>  <SCORE>
-1.89318

>  <SCORE.INTER>
7.49437

>  <SCORE.INTER.CONST>
1

>  <SCORE.INTER.POLAR>
0

>  <SCORE.INTER.ROT>
11

>  <SCORE.INTER.SOLV>
5.82125

>  <SCORE.INTER.VDW>
-7.8775

>  <SCORE.INTER.norm>
0.535312

>  <SCORE.INTRA>
-9.38756

>  <SCORE.INTRA.DIHEDRAL>
-16.7044

>  <SCORE.INTRA.DIHEDRAL.0>
17.5233

>  <SCORE.INTRA.POLAR>
0

>  <SCORE.INTRA.POLAR.0>
0

>  <SCORE.INTRA.REPUL>
0

>  <SCORE.INTRA.REPUL.0>
0

>  <SCORE.INTRA.SOLV>
-1.97986

>  <SCORE.INTRA.SOLV.lig_0>
-46.1043

>  <SCORE.INTRA.VDW>
-0.0454375

>  <SCORE.INTRA.VDW.0>
-0.545445

>  <SCORE.INTRA.norm>
-0.67054

>  <SCORE.RESTR>
0

>  <SCORE.RESTR.CAVITY>
0

>  <SCORE.RESTR.norm>
0

>  <SCORE.SYSTEM>
0

>  <SCORE.SYSTEM.CONST>
0

>  <SCORE.SYSTEM.DIHEDRAL>
0

>  <SCORE.SYSTEM.SOLV>
0

>  <SCORE.SYSTEM.norm>
0

>  <SCORE.heavy>
14

>  <SCORE.norm>
-0.135227

>  <RMSD>
7.050

$$$$
ligand
 OpenBabel11021811513D
libRbt.so/2013.1/901 2013/11/27
 14 13  0  0  0  0  0  0  0  0999 V2000
   28.4141   48.2542   45.0870 N   0  0  0  0  0  0  0  0  0  0  0  0
   28.4352   46.8361   44.7670 C   0  0  0  0  0  0  0  0  0  0  0  0
   27.5451   46.5512   43.5618 C   0  0  0  0  0  0  0  0  0  0  0  0
   26.0792   46.8171   43.8855 C   0  0  0  0  0  0  0  0  0  0  0  0
   25.1887   46.5272   42.7655 N   0  0  0  0  0  0  0  0  0  0  0  0
   23.8141   46.9986   42.7707 C   0  0  0  0  0  0  0  0  0  0  0  0
   23.3394   47.4530   41.3949 C   0  0  0  0  0  0  0  0  0  0  0  0
   24.2332   48.5752   40.8787 C   0  0  0  0  0  0  0  0  0  0  0  0
   23.7235   49.0606   39.5260 C   0  0  0  0  0  0  0  0  0  0  0  0
   24.6455   49.9902   38.8967 N   0  0  0  0  0  0  0  0  0  0  0  0
   24.2681   50.6379   37.6474 C   0  0  0  0  0  0  0  0  0  0  0  0
   25.4379   50.9826   36.7282 C   0  0  0  0  0  0  0  0  0  0  0  0
   24.9388   51.6538   35.4475 C   0  0  0  0  0  0  0  0  0  0  0  0
   26.0632   52.0592   34.6214 N   0  0  0  0  0  0  0  0  0  0  0  0
  1  2  1  0  0  0  0
  2  3  1  0  0  0  0
  3  4  1  0  0  0  0
  4  5  1  0  0  0  0
  5  6  1  0  0  0  0
  6  7  1  0  0  0  0
  7  8  1  0  0  0  0
  8  9  1  0  0  0  0
  9 10  1  0  0  0  0
 10 11  1  0  0  0  0
 11 12  1  0  0  0  0
 12 13  1  0  0  0  0
 13 14  1  0  0  0  0
M  END
>  <CHROM.1>
-65.96069888,-178.69949271,-165.86278419,142.04272141,-58.71059365,-177.92801412
-171.54569082,-175.07479803,-150.11329124,179.89367438,176.15565098,25.43730995
48.74244199,40.56997860,-1.36899419,-0.26690161,-1.01860457

>  <Name>
ligand

>  <RI>
0

>  <Rbt.Current_Directory>
/home/itssahil/PROJECTS/Mol_Feturizer/New_Systems/rnas/4P5J

>  <Rbt.Executable>
rbdock ($Id: //depot/dev/client3/rdock/2013.1/src/exe/rbdock.cxx#4 $)

>  <Rbt.Library>
libRbt.so (2013.1, Build901 2013/11/27)

>  <Rbt.Parameter_File>
/export/apps/rDock/src/rDock_2013.1_src/data/scripts/dock_solv.prm

>  <Rbt.Receptor>
prm/pocket_docking_7.prm

>  <SCORE>
-4.31083

>  <SCORE.INTER>
4.70815

>  <SCORE.INTER.CONST>
1

>  <SCORE.INTER.POLAR>
0

>  <SCORE.INTER.ROT>
11

>  <SCORE.INTER.SOLV>
9.0643

>  <SCORE.INTER.VDW>
-10.816

>  <SCORE.INTER.norm>
0.336296

>  <SCORE.INTRA>
-9.01898

>  <SCORE.INTRA.DIHEDRAL>
-15.4214

>  <SCORE.INTRA.DIHEDRAL.0>
17.5233

>  <SCORE.INTRA.POLAR>
0

>  <SCORE.INTRA.POLAR.0>
0

>  <SCORE.INTRA.REPUL>
0

>  <SCORE.INTRA.REPUL.0>
0

>  <SCORE.INTRA.SOLV>
-1.54771

>  <SCORE.INTRA.SOLV.lig_0>
-46.1043

>  <SCORE.INTRA.VDW>
-0.53444

>  <SCORE.INTRA.VDW.0>
-0.545445

>  <SCORE.INTRA.norm>
-0.644213

>  <SCORE.RESTR>
0

>  <SCORE.RESTR.CAVITY>
0

>  <SCORE.RESTR.norm>
0

>  <SCORE.SYSTEM>
0

>  <SCORE.SYSTEM.CONST>
0

>  <SCORE.SYSTEM.DIHEDRAL>
0

>  <SCORE.SYSTEM.SOLV>
0

>  <SCORE.SYSTEM.norm>
0

>  <SCORE.heavy>
14

>  <SCORE.norm>
-0.307917

>  <RMSD>
7.051

$$$$
ligand
 OpenBabel11021811513D
libRbt.so/2013.1/901 2013/11/27
 14 13  0  0  0  0  0  0  0  0999 V2000
   22.6587   49.1630   41.7248 N   0  0  0  0  0  0  0  0  0  0  0  0
   21.4984   50.0296   41.5958 C   0  0  0  0  0  0  0  0  0  0  0  0
   21.3729   50.5381   40.1635 C   0  0  0  0  0  0  0  0  0  0  0  0
   22.5374   51.4528   39.8005 C   0  0  0  0  0  0  0  0  0  0  0  0
   22.4996   51.8955   38.4099 N   0  0  0  0  0  0  0  0  0  0  0  0
   23.4279   52.9045   37.9282 C   0  0  0  0  0  0  0  0  0  0  0  0
   23.3283   53.1297   36.4235 C   0  0  0  0  0  0  0  0  0  0  0  0
   23.6733   51.8445   35.6794 C   0  0  0  0  0  0  0  0  0  0  0  0
   25.1875   51.6805   35.6066 C   0  0  0  0  0  0  0  0  0  0  0  0
   25.7742   51.4408   36.9138 N   0  0  0  0  0  0  0  0  0  0  0  0
   25.7013   50.1081   37.4979 C   0  0  0  0  0  0  0  0  0  0  0  0
   26.5749   49.9040   38.7338 C   0  0  0  0  0  0  0  0  0  0  0  0
   26.0684   50.7549   39.8996 C   0  0  0  0  0  0  0  0  0  0  0  0
   26.9178   50.5691   41.0638 N   0  0  0  0  0  0  0  0  0  0  0  0
  1  2  1  0  0  0  0
  2  3  1  0  0  0  0
  3  4  1  0  0  0  0
  4  5  1  0  0  0  0
  5  6  1  0  0  0  0
  6  7  1  0  0  0  0
  7  8  1  0  0  0  0
  8  9  1  0  0  0  0
  9 10  1  0  0  0  0
 10 11  1  0  0  0  0
 11 12  1  0  0  0  0
 12 13  1  0  0  0  0
 13 14  1  0  0  0  0
M  END
>  <CHROM.1>
-65.95332031,176.41817402,172.12447481,174.13121675,-61.60522191,-80.25971542
67.33541670,78.91677944,168.70277462,66.84084483,-179.14175696,24.08703396
51.10121189,38.67402042,-2.01055054,0.20626103,-1.13101236

>  <Name>
ligand

>  <RI>
0

>  <Rbt.Current_Directory>
/home/itssahil/PROJECTS/Mol_Feturizer/New_Systems/rnas/4P5J

>  <Rbt.Executable>
rbdock ($Id: //depot/dev/client3/rdock/2013.1/src/exe/rbdock.cxx#4 $)

>  <Rbt.Library>
libRbt.so (2013.1, Build901 2013/11/27)

>  <Rbt.Parameter_File>
/export/apps/rDock/src/rDock_2013.1_src/data/scripts/dock_solv.prm

>  <Rbt.Receptor>
prm/pocket_docking_6.prm

>  <SCORE>
-4.79197

>  <SCORE.INTER>
2.74554

>  <SCORE.INTER.CONST>
1

>  <SCORE.INTER.POLAR>
0

>  <SCORE.INTER.ROT>
11

>  <SCORE.INTER.SOLV>
6.39669

>  <SCORE.INTER.VDW>
-11.2352

>  <SCORE.INTER.norm>
0.19611

>  <SCORE.INTRA>
-7.53751

>  <SCORE.INTRA.DIHEDRAL>
-14.9356

>  <SCORE.INTRA.DIHEDRAL.0>
17.5233

>  <SCORE.INTRA.POLAR>
0

>  <SCORE.INTRA.POLAR.0>
0

>  <SCORE.INTRA.REPUL>
0

>  <SCORE.INTRA.REPUL.0>
0

>  <SCORE.INTRA.SOLV>
1.39132

>  <SCORE.INTRA.SOLV.lig_0>
-46.1043

>  <SCORE.INTRA.VDW>
-0.765393

>  <SCORE.INTRA.VDW.0>
-0.545445

>  <SCORE.INTRA.norm>
-0.538394

>  <SCORE.RESTR>
0

>  <SCORE.RESTR.CAVITY>
0

>  <SCORE.RESTR.norm>
0

>  <SCORE.SYSTEM>
0

>  <SCORE.SYSTEM.CONST>
0

>  <SCORE.SYSTEM.DIHEDRAL>
0

>  <SCORE.SYSTEM.SOLV>
0

>  <SCORE.SYSTEM.norm>
0

>  <SCORE.heavy>
14

>  <SCORE.norm>
-0.342284

>  <RMSD>
7.053

$$$$
ligand
 OpenBabel11021811513D
libRbt.so/2013.1/901 2013/11/27
 14 13  0  0  0  0  0  0  0  0999 V2000
   24.3900   56.7072   38.8056 N   0  0  0  0  0  0  0  0  0  0  0  0
   23.9645   55.3820   38.3851 C   0  0  0  0  0  0  0  0  0  0  0  0
   23.8294   55.3253   36.8671 C   0  0  0  0  0  0  0  0  0  0  0  0
   23.3506   53.9525   36.4083 C   0  0  0  0  0  0  0  0  0  0  0  0
   24.3249   52.8962   36.6654 N   0  0  0  0  0  0  0  0  0  0  0  0
   24.0567   51.5265   36.2606 C   0  0  0  0  0  0  0  0  0  0  0  0
   25.2291   50.5896   36.5300 C   0  0  0  0  0  0  0  0  0  0  0  0
   25.4315   50.4256   38.0322 C   0  0  0  0  0  0  0  0  0  0  0  0
   24.2793   49.6209   38.6238 C   0  0  0  0  0  0  0  0  0  0  0  0
   24.5242   49.2530   40.0077 N   0  0  0  0  0  0  0  0  0  0  0  0
   23.7292   48.1962   40.6191 C   0  0  0  0  0  0  0  0  0  0  0  0
   24.2803   47.6664   41.9411 C   0  0  0  0  0  0  0  0  0  0  0  0
   24.3018   48.7712   42.9988 C   0  0  0  0  0  0  0  0  0  0  0  0
   24.8787   48.2720   44.2354 N   0  0  0  0  0  0  0  0  0  0  0  0
  1  2  1  0  0  0  0
  2  3  1  0  0  0  0
  3  4  1  0  0  0  0
  4  5  1  0  0  0  0
  5  6  1  0  0  0  0
  6  7  1  0  0  0  0
  7  8  1  0  0  0  0
  8  9  1  0  0  0  0
  9 10  1  0  0  0  0
 10 11  1  0  0  0  0
 11 12  1  0  0  0  0
 12 13  1  0  0  0  0
 13 14  1  0  0  0  0
M  END
>  <CHROM.1>
-178.60229435,-66.11877221,-178.25970235,176.12746382,67.57298972,69.87489939
170.89248778,-163.34807738,166.07288104,62.76539262,-177.65014321,24.32635600
51.32728853,39.02679020,2.22533146,1.49417859,-1.31909522

>  <Name>
ligand

>  <RI>
0

>  <Rbt.Current_Directory>
/home/itssahil/PROJECTS/Mol_Feturizer/New_Systems/rnas/4P5J

>  <Rbt.Executable>
rbdock ($Id: //depot/dev/client3/rdock/2013.1/src/exe/rbdock.cxx#4 $)

>  <Rbt.Library>
libRbt.so (2013.1, Build901 2013/11/27)

>  <Rbt.Parameter_File>
/export/apps/rDock/src/rDock_2013.1_src/data/scripts/dock_solv.prm

>  <Rbt.Receptor>
prm/pocket_docking_6.prm

>  <SCORE>
-3.65067

>  <SCORE.INTER>
5.00728

>  <SCORE.INTER.CONST>
1

>  <SCORE.INTER.POLAR>
0

>  <SCORE.INTER.ROT>
11

>  <SCORE.INTER.SOLV>
5.04795

>  <SCORE.INTER.VDW>
-9.27779

>  <SCORE.INTER.norm>
0.357663

>  <SCORE.INTRA>
-8.66529

>  <SCORE.INTRA.DIHEDRAL>
-16.0223

>  <SCORE.INTRA.DIHEDRAL.0>
17.5233

>  <SCORE.INTRA.POLAR>
0

>  <SCORE.INTRA.POLAR.0>
0

>  <SCORE.INTRA.REPUL>
0

>  <SCORE.INTRA.REPUL.0>
0

>  <SCORE.INTRA.SOLV>
-1.36172

>  <SCORE.INTRA.SOLV.lig_0>
-46.1043

>  <SCORE.INTRA.VDW>
0.0267246

>  <SCORE.INTRA.VDW.0>
-0.545445

>  <SCORE.INTRA.norm>
-0.618949

>  <SCORE.RESTR>
0.00733362

>  <SCORE.RESTR.CAVITY>
0.00733362

>  <SCORE.RESTR.norm>
0.00052383

>  <SCORE.SYSTEM>
0

>  <SCORE.SYSTEM.CONST>
0

>  <SCORE.SYSTEM.DIHEDRAL>
0

>  <SCORE.SYSTEM.SOLV>
0

>  <SCORE.SYSTEM.norm>
0

>  <SCORE.heavy>
14

>  <SCORE.norm>
-0.260762

>  <RMSD>
7.081

$$$$
ligand
 OpenBabel11021811513D
libRbt.so/2013.1/901 2013/11/27
 14 13  0  0  0  0  0  0  0  0999 V2000
   28.5202   49.5079   40.1968 N   0  0  0  0  0  0  0  0  0  0  0  0
   27.3311   49.5064   39.3602 C   0  0  0  0  0  0  0  0  0  0  0  0
   27.6018   50.2430   38.0525 C   0  0  0  0  0  0  0  0  0  0  0  0
   26.3472   50.3101   37.1889 C   0  0  0  0  0  0  0  0  0  0  0  0
   25.2540   51.0339   37.8309 N   0  0  0  0  0  0  0  0  0  0  0  0
   24.1201   51.5049   37.0534 C   0  0  0  0  0  0  0  0  0  0  0  0
   22.8972   51.8050   37.9131 C   0  0  0  0  0  0  0  0  0  0  0  0
   23.2421   52.8556   38.9627 C   0  0  0  0  0  0  0  0  0  0  0  0
   22.1359   52.9220   40.0101 C   0  0  0  0  0  0  0  0  0  0  0  0
   22.0854   51.7223   40.8277 N   0  0  0  0  0  0  0  0  0  0  0  0
   21.2457   50.6068   40.4113 C   0  0  0  0  0  0  0  0  0  0  0  0
   21.3902   49.3467   41.2620 C   0  0  0  0  0  0  0  0  0  0  0  0
   22.8159   48.7989   41.1781 C   0  0  0  0  0  0  0  0  0  0  0  0
   22.9702   47.6607   42.0678 N   0  0  0  0  0  0  0  0  0  0  0  0
  1  2  1  0  0  0  0
  2  3  1  0  0  0  0
  3  4  1  0  0  0  0
  4  5  1  0  0  0  0
  5  6  1  0  0  0  0
  6  7  1  0  0  0  0
  7  8  1  0  0  0  0
  8  9  1  0  0  0  0
  9 10  1  0  0  0  0
 10 11  1  0  0  0  0
 11 12  1  0  0  0  0
 12 13  1  0  0  0  0
 13 14  1  0  0  0  0
M  END
>  <CHROM.1>
-177.30196372,61.43355503,163.79169965,160.71257010,58.35863927,-167.11824821
68.69517674,-90.26818329,173.56990624,-62.31447912,175.72681235,24.13955718
50.55911345,39.45080594,-0.21805959,-0.34095789,2.37633296

>  <Name>
ligand

>  <RI>
0

>  <Rbt.Current_Directory>
/home/itssahil/PROJECTS/Mol_Feturizer/New_Systems/rnas/4P5J

>  <Rbt.Executable>
rbdock ($Id: //depot/dev/client3/rdock/2013.1/src/exe/rbdock.cxx#4 $)

>  <Rbt.Library>
libRbt.so (2013.1, Build901 2013/11/27)

>  <Rbt.Parameter_File>
/export/apps/rDock/src/rDock_2013.1_src/data/scripts/dock_solv.prm

>  <Rbt.Receptor>
prm/pocket_docking_7.prm

>  <SCORE>
-5.22395

>  <SCORE.INTER>
3.45421

>  <SCORE.INTER.CONST>
1

>  <SCORE.INTER.POLAR>
0

>  <SCORE.INTER.ROT>
11

>  <SCORE.INTER.SOLV>
6.90892

>  <SCORE.INTER.VDW>
-10.9335

>  <SCORE.INTER.norm>
0.246729

>  <SCORE.INTRA>
-8.67815

>  <SCORE.INTRA.DIHEDRAL>
-15.3113

>  <SCORE.INTRA.DIHEDRAL.0>
17.5233

>  <SCORE.INTRA.POLAR>
0

>  <SCORE.INTRA.POLAR.0>
0

>  <SCORE.INTRA.REPUL>
0

>  <SCORE.INTRA.REPUL.0>
0

>  <SCORE.INTRA.SOLV>
-1.06635

>  <SCORE.INTRA.SOLV.lig_0>
-46.1043

>  <SCORE.INTRA.VDW>
-0.489352

>  <SCORE.INTRA.VDW.0>
-0.545445

>  <SCORE.INTRA.norm>
-0.619868

>  <SCORE.RESTR>
0

>  <SCORE.RESTR.CAVITY>
0

>  <SCORE.RESTR.norm>
0

>  <SCORE.SYSTEM>
0

>  <SCORE.SYSTEM.CONST>
0

>  <SCORE.SYSTEM.DIHEDRAL>
0

>  <SCORE.SYSTEM.SOLV>
0

>  <SCORE.SYSTEM.norm>
0

>  <SCORE.heavy>
14

>  <SCORE.norm>
-0.373139

>  <RMSD>
7.091

$$$$
ligand
 OpenBabel11021811513D
libRbt.so/2013.1/901 2013/11/27
 14 13  0  0  0  0  0  0  0  0999 V2000
   22.9688   47.2378   42.0392 N   0  0  0  0  0  0  0  0  0  0  0  0
   22.1139   48.3446   41.6416 C   0  0  0  0  0  0  0  0  0  0  0  0
   22.4775   48.8178   40.2381 C   0  0  0  0  0  0  0  0  0  0  0  0
   23.9253   49.2913   40.1750 C   0  0  0  0  0  0  0  0  0  0  0  0
   24.2634   49.9156   38.8995 N   0  0  0  0  0  0  0  0  0  0  0  0
   25.6513   50.1072   38.5133 C   0  0  0  0  0  0  0  0  0  0  0  0
   25.8219   51.1577   37.4215 C   0  0  0  0  0  0  0  0  0  0  0  0
   25.0481   50.7448   36.1744 C   0  0  0  0  0  0  0  0  0  0  0  0
   25.1921   51.8161   35.0990 C   0  0  0  0  0  0  0  0  0  0  0  0
   26.5627   51.9426   34.6342 N   0  0  0  0  0  0  0  0  0  0  0  0
   26.8216   52.1470   33.2152 C   0  0  0  0  0  0  0  0  0  0  0  0
   28.2993   52.2531   32.8446 C   0  0  0  0  0  0  0  0  0  0  0  0
   29.0255   50.9393   33.1389 C   0  0  0  0  0  0  0  0  0  0  0  0
   30.4258   51.0446   32.7658 N   0  0  0  0  0  0  0  0  0  0  0  0
  1  2  1  0  0  0  0
  2  3  1  0  0  0  0
  3  4  1  0  0  0  0
  4  5  1  0  0  0  0
  5  6  1  0  0  0  0
  6  7  1  0  0  0  0
  7  8  1  0  0  0  0
  8  9  1  0  0  0  0
  9 10  1  0  0  0  0
 10 11  1  0  0  0  0
 11 12  1  0  0  0  0
 12 13  1  0  0  0  0
 13 14  1  0  0  0  0
M  END
>  <CHROM.1>
-60.08398678,-172.40581388,-163.66185893,-160.72786605,-59.78052886,178.51504859
65.03267075,139.93539417,-179.48601740,64.10895079,179.21023582,25.61389599
50.41153679,36.91423856,-2.19072668,0.37444996,-0.92750062

>  <Name>
ligand

>  <RI>
0

>  <Rbt.Current_Directory>
/home/itssahil/PROJECTS/Mol_Feturizer/New_Systems/rnas/4P5J

>  <Rbt.Executable>
rbdock ($Id: //depot/dev/client3/rdock/2013.1/src/exe/rbdock.cxx#4 $)

>  <Rbt.Library>
libRbt.so (2013.1, Build901 2013/11/27)

>  <Rbt.Parameter_File>
/export/apps/rDock/src/rDock_2013.1_src/data/scripts/dock_solv.prm

>  <Rbt.Receptor>
prm/pocket_docking_7.prm

>  <SCORE>
-4.13171

>  <SCORE.INTER>
4.43646

>  <SCORE.INTER.CONST>
1

>  <SCORE.INTER.POLAR>
0

>  <SCORE.INTER.ROT>
11

>  <SCORE.INTER.SOLV>
8.40835

>  <SCORE.INTER.VDW>
-10.7785

>  <SCORE.INTER.norm>
0.31689

>  <SCORE.INTRA>
-8.56817

>  <SCORE.INTRA.DIHEDRAL>
-15.7484

>  <SCORE.INTRA.DIHEDRAL.0>
17.5233

>  <SCORE.INTRA.POLAR>
0

>  <SCORE.INTRA.POLAR.0>
0

>  <SCORE.INTRA.REPUL>
0

>  <SCORE.INTRA.REPUL.0>
0

>  <SCORE.INTRA.SOLV>
-0.768432

>  <SCORE.INTRA.SOLV.lig_0>
-46.1043

>  <SCORE.INTRA.VDW>
-0.309773

>  <SCORE.INTRA.VDW.0>
-0.545445

>  <SCORE.INTRA.norm>
-0.612012

>  <SCORE.RESTR>
0

>  <SCORE.RESTR.CAVITY>
0

>  <SCORE.RESTR.norm>
0

>  <SCORE.SYSTEM>
0

>  <SCORE.SYSTEM.CONST>
0

>  <SCORE.SYSTEM.DIHEDRAL>
0

>  <SCORE.SYSTEM.SOLV>
0

>  <SCORE.SYSTEM.norm>
0

>  <SCORE.heavy>
14

>  <SCORE.norm>
-0.295122

>  <RMSD>
7.213

$$$$
ligand
 OpenBabel11021811513D
libRbt.so/2013.1/901 2013/11/27
 14 13  0  0  0  0  0  0  0  0999 V2000
   22.8523   47.7074   42.4527 N   0  0  0  0  0  0  0  0  0  0  0  0
   22.6738   48.6755   41.3828 C   0  0  0  0  0  0  0  0  0  0  0  0
   21.4112   49.4981   41.6171 C   0  0  0  0  0  0  0  0  0  0  0  0
   21.2076   50.5221   40.5062 C   0  0  0  0  0  0  0  0  0  0  0  0
   22.2347   51.5594   40.4948 N   0  0  0  0  0  0  0  0  0  0  0  0
   22.4401   52.3857   39.3172 C   0  0  0  0  0  0  0  0  0  0  0  0
   23.0566   51.6158   38.1545 C   0  0  0  0  0  0  0  0  0  0  0  0
   23.1653   52.5179   36.9303 C   0  0  0  0  0  0  0  0  0  0  0  0
   23.8666   51.7725   35.8000 C   0  0  0  0  0  0  0  0  0  0  0  0
   25.2843   51.5931   36.0614 N   0  0  0  0  0  0  0  0  0  0  0  0
   25.7183   50.5279   36.9556 C   0  0  0  0  0  0  0  0  0  0  0  0
   27.0928   50.7436   37.5855 C   0  0  0  0  0  0  0  0  0  0  0  0
   27.3867   49.6601   38.6245 C   0  0  0  0  0  0  0  0  0  0  0  0
   28.6811   49.8937   39.2419 N   0  0  0  0  0  0  0  0  0  0  0  0
  1  2  1  0  0  0  0
  2  3  1  0  0  0  0
  3  4  1  0  0  0  0
  4  5  1  0  0  0  0
  5  6  1  0  0  0  0
  6  7  1  0  0  0  0
  7  8  1  0  0  0  0
  8  9  1  0  0  0  0
  9 10  1  0  0  0  0
 10 11  1  0  0  0  0
 11 12  1  0  0  0  0
 12 13  1  0  0  0  0
 13 14  1  0  0  0  0
M  END
>  <CHROM.1>
179.88484152,-66.63049393,162.35881866,-70.38383149,176.57597246,176.24944658
-71.59378787,79.63034646,-157.25105123,173.47048101,-178.54652051,24.07624519
50.61966071,38.93719606,-2.40529323,0.29101104,-0.95478895

>  <Name>
ligand

>  <RI>
0

>  <Rbt.Current_Directory>
/home/itssahil/PROJECTS/Mol_Feturizer/New_Systems/rnas/4P5J

>  <Rbt.Executable>
rbdock ($Id: //depot/dev/client3/rdock/2013.1/src/exe/rbdock.cxx#4 $)

>  <Rbt.Library>
libRbt.so (2013.1, Build901 2013/11/27)

>  <Rbt.Parameter_File>
/export/apps/rDock/src/rDock_2013.1_src/data/scripts/dock_solv.prm

>  <Rbt.Receptor>
prm/pocket_docking_7.prm

>  <SCORE>
-6.4522

>  <SCORE.INTER>
2.34936

>  <SCORE.INTER.CONST>
1

>  <SCORE.INTER.POLAR>
0

>  <SCORE.INTER.ROT>
11

>  <SCORE.INTER.SOLV>
7.29148

>  <SCORE.INTER.VDW>
-11.7976

>  <SCORE.INTER.norm>
0.167812

>  <SCORE.INTRA>
-8.80156

>  <SCORE.INTRA.DIHEDRAL>
-15.6022

>  <SCORE.INTRA.DIHEDRAL.0>
17.5233

>  <SCORE.INTRA.POLAR>
0

>  <SCORE.INTRA.POLAR.0>
0

>  <SCORE.INTRA.REPUL>
0

>  <SCORE.INTRA.REPUL.0>
0

>  <SCORE.INTRA.SOLV>
-2.00546

>  <SCORE.INTRA.SOLV.lig_0>
-46.1043

>  <SCORE.INTRA.VDW>
0.00229447

>  <SCORE.INTRA.VDW.0>
-0.545445

>  <SCORE.INTRA.norm>
-0.628683

>  <SCORE.RESTR>
0

>  <SCORE.RESTR.CAVITY>
0

>  <SCORE.RESTR.norm>
0

>  <SCORE.SYSTEM>
0

>  <SCORE.SYSTEM.CONST>
0

>  <SCORE.SYSTEM.DIHEDRAL>
0

>  <SCORE.SYSTEM.SOLV>
0

>  <SCORE.SYSTEM.norm>
0

>  <SCORE.heavy>
14

>  <SCORE.norm>
-0.460871

>  <RMSD>
7.247

$$$$
ligand
 OpenBabel11021811513D
libRbt.so/2013.1/901 2013/11/27
 14 13  0  0  0  0  0  0  0  0999 V2000
   25.3950   47.4986   44.9969 N   0  0  0  0  0  0  0  0  0  0  0  0
   25.7627   46.6830   43.8508 C   0  0  0  0  0  0  0  0  0  0  0  0
   24.8779   47.0191   42.6550 C   0  0  0  0  0  0  0  0  0  0  0  0
   23.4241   46.6478   42.9248 C   0  0  0  0  0  0  0  0  0  0  0  0
   22.5460   46.9328   41.7939 N   0  0  0  0  0  0  0  0  0  0  0  0
   22.0151   48.2697   41.5868 C   0  0  0  0  0  0  0  0  0  0  0  0
   22.4497   48.8795   40.2586 C   0  0  0  0  0  0  0  0  0  0  0  0
   23.9696   48.9878   40.2064 C   0  0  0  0  0  0  0  0  0  0  0  0
   24.3944   49.6727   38.9120 C   0  0  0  0  0  0  0  0  0  0  0  0
   25.8375   49.6765   38.7445 N   0  0  0  0  0  0  0  0  0  0  0  0
   26.4199   50.3058   37.5666 C   0  0  0  0  0  0  0  0  0  0  0  0
   27.9147   50.0538   37.3815 C   0  0  0  0  0  0  0  0  0  0  0  0
   28.7053   50.5950   38.5739 C   0  0  0  0  0  0  0  0  0  0  0  0
   30.1320   50.4594   38.3343 N   0  0  0  0  0  0  0  0  0  0  0  0
  1  2  1  0  0  0  0
  2  3  1  0  0  0  0
  3  4  1  0  0  0  0
  4  5  1  0  0  0  0
  5  6  1  0  0  0  0
  6  7  1  0  0  0  0
  7  8  1  0  0  0  0
  8  9  1  0  0  0  0
  9 10  1  0  0  0  0
 10 11  1  0  0  0  0
 11 12  1  0  0  0  0
 12 13  1  0  0  0  0
 13 14  1  0  0  0  0
M  END
>  <CHROM.1>
-65.00739443,-179.01106447,-82.80465811,118.93945461,-60.47627746,-176.69376836
-173.96164079,-179.28998836,-170.53327489,-60.50978085,-174.88230019,25.27427618
48.69155254,40.55596973,-2.22518955,-0.11369150,-1.09348359

>  <Name>
ligand

>  <RI>
0

>  <Rbt.Current_Directory>
/home/itssahil/PROJECTS/Mol_Feturizer/New_Systems/rnas/4P5J

>  <Rbt.Executable>
rbdock ($Id: //depot/dev/client3/rdock/2013.1/src/exe/rbdock.cxx#4 $)

>  <Rbt.Library>
libRbt.so (2013.1, Build901 2013/11/27)

>  <Rbt.Parameter_File>
/export/apps/rDock/src/rDock_2013.1_src/data/scripts/dock_solv.prm

>  <Rbt.Receptor>
prm/pocket_docking_7.prm

>  <SCORE>
-5.04619

>  <SCORE.INTER>
3.68815

>  <SCORE.INTER.CONST>
1

>  <SCORE.INTER.POLAR>
0

>  <SCORE.INTER.ROT>
11

>  <SCORE.INTER.SOLV>
6.48992

>  <SCORE.INTER.VDW>
-10.6379

>  <SCORE.INTER.norm>
0.26344

>  <SCORE.INTRA>
-8.73989

>  <SCORE.INTRA.DIHEDRAL>
-15.4914

>  <SCORE.INTRA.DIHEDRAL.0>
17.5233

>  <SCORE.INTRA.POLAR>
0

>  <SCORE.INTRA.POLAR.0>
0

>  <SCORE.INTRA.REPUL>
0

>  <SCORE.INTRA.REPUL.0>
0

>  <SCORE.INTRA.SOLV>
-1.2111

>  <SCORE.INTRA.SOLV.lig_0>
-46.1043

>  <SCORE.INTRA.VDW>
-0.388632

>  <SCORE.INTRA.VDW.0>
-0.545445

>  <SCORE.INTRA.norm>
-0.624278

>  <SCORE.RESTR>
0.00555493

>  <SCORE.RESTR.CAVITY>
0.00555493

>  <SCORE.RESTR.norm>
0.00039678

>  <SCORE.SYSTEM>
0

>  <SCORE.SYSTEM.CONST>
0

>  <SCORE.SYSTEM.DIHEDRAL>
0

>  <SCORE.SYSTEM.SOLV>
0

>  <SCORE.SYSTEM.norm>
0

>  <SCORE.heavy>
14

>  <SCORE.norm>
-0.360442

>  <RMSD>
7.261

$$$$
ligand
 OpenBabel11021811513D
libRbt.so/2013.1/901 2013/11/27
 14 13  0  0  0  0  0  0  0  0999 V2000
   20.4162   57.4984   40.6637 N   0  0  0  0  0  0  0  0  0  0  0  0
   20.3134   56.2681   41.4317 C   0  0  0  0  0  0  0  0  0  0  0  0
   21.2428   55.2046   40.8564 C   0  0  0  0  0  0  0  0  0  0  0  0
   21.2039   53.9298   41.6917 C   0  0  0  0  0  0  0  0  0  0  0  0
   22.0791   52.8834   41.1719 N   0  0  0  0  0  0  0  0  0  0  0  0
   21.5227   51.6916   40.5540 C   0  0  0  0  0  0  0  0  0  0  0  0
   22.4849   51.0291   39.5741 C   0  0  0  0  0  0  0  0  0  0  0  0
   22.8384   51.9999   38.4529 C   0  0  0  0  0  0  0  0  0  0  0  0
   23.8467   51.3537   37.5090 C   0  0  0  0  0  0  0  0  0  0  0  0
   25.0876   51.0152   38.1843 N   0  0  0  0  0  0  0  0  0  0  0  0
   26.1872   50.4441   37.4179 C   0  0  0  0  0  0  0  0  0  0  0  0
   27.4883   50.2724   38.1989 C   0  0  0  0  0  0  0  0  0  0  0  0
   28.6106   49.7888   37.2789 C   0  0  0  0  0  0  0  0  0  0  0  0
   29.8531   49.6683   38.0224 N   0  0  0  0  0  0  0  0  0  0  0  0
  1  2  1  0  0  0  0
  2  3  1  0  0  0  0
  3  4  1  0  0  0  0
  4  5  1  0  0  0  0
  5  6  1  0  0  0  0
  6  7  1  0  0  0  0
  7  8  1  0  0  0  0
  8  9  1  0  0  0  0
  9 10  1  0  0  0  0
 10 11  1  0  0  0  0
 11 12  1  0  0  0  0
 12 13  1  0  0  0  0
 13 14  1  0  0  0  0
M  END
>  <CHROM.1>
177.04595228,179.86377873,-109.48039215,155.37024271,-60.14473381,177.58408730
-61.24366866,-177.21799235,173.58540251,-174.82963701,178.24715564,23.79798455
52.36037147,39.35764169,-2.46535003,-0.28485419,-2.90997571

>  <Name>
ligand

>  <RI>
0

>  <Rbt.Current_Directory>
/home/itssahil/PROJECTS/Mol_Feturizer/New_Systems/rnas/4P5J

>  <Rbt.Executable>
rbdock ($Id: //depot/dev/client3/rdock/2013.1/src/exe/rbdock.cxx#4 $)

>  <Rbt.Library>
libRbt.so (2013.1, Build901 2013/11/27)

>  <Rbt.Parameter_File>
/export/apps/rDock/src/rDock_2013.1_src/data/scripts/dock_solv.prm

>  <Rbt.Receptor>
prm/pocket_docking_7.prm

>  <SCORE>
-5.29728

>  <SCORE.INTER>
4.1008

>  <SCORE.INTER.CONST>
1

>  <SCORE.INTER.POLAR>
0

>  <SCORE.INTER.ROT>
11

>  <SCORE.INTER.SOLV>
6.11909

>  <SCORE.INTER.VDW>
-10.2392

>  <SCORE.INTER.norm>
0.292915

>  <SCORE.INTRA>
-9.39808

>  <SCORE.INTRA.DIHEDRAL>
-15.7631

>  <SCORE.INTRA.DIHEDRAL.0>
17.5233

>  <SCORE.INTRA.POLAR>
0

>  <SCORE.INTRA.POLAR.0>
0

>  <SCORE.INTRA.REPUL>
0

>  <SCORE.INTRA.REPUL.0>
0

>  <SCORE.INTRA.SOLV>
-1.86552

>  <SCORE.INTRA.SOLV.lig_0>
-46.1043

>  <SCORE.INTRA.VDW>
-0.583767

>  <SCORE.INTRA.VDW.0>
-0.545445

>  <SCORE.INTRA.norm>
-0.671291

>  <SCORE.RESTR>
0

>  <SCORE.RESTR.CAVITY>
0

>  <SCORE.RESTR.norm>
0

>  <SCORE.SYSTEM>
0

>  <SCORE.SYSTEM.CONST>
0

>  <SCORE.SYSTEM.DIHEDRAL>
0

>  <SCORE.SYSTEM.SOLV>
0

>  <SCORE.SYSTEM.norm>
0

>  <SCORE.heavy>
14

>  <SCORE.norm>
-0.378377

>  <RMSD>
7.274

$$$$
ligand
 OpenBabel11021811513D
libRbt.so/2013.1/901 2013/11/27
 14 13  0  0  0  0  0  0  0  0999 V2000
   21.1437   51.4096   45.7439 N   0  0  0  0  0  0  0  0  0  0  0  0
   21.4679   52.1483   44.5343 C   0  0  0  0  0  0  0  0  0  0  0  0
   20.2350   52.2790   43.6463 C   0  0  0  0  0  0  0  0  0  0  0  0
   20.5583   53.0382   42.3644 C   0  0  0  0  0  0  0  0  0  0  0  0
   21.4629   52.3056   41.4834 N   0  0  0  0  0  0  0  0  0  0  0  0
   21.8960   52.8816   40.2215 C   0  0  0  0  0  0  0  0  0  0  0  0
   22.6157   51.8769   39.3285 C   0  0  0  0  0  0  0  0  0  0  0  0
   22.9999   52.5340   38.0076 C   0  0  0  0  0  0  0  0  0  0  0  0
   23.7744   51.5441   37.1443 C   0  0  0  0  0  0  0  0  0  0  0  0
   25.0708   51.2203   37.7142 N   0  0  0  0  0  0  0  0  0  0  0  0
   25.8611   50.1444   37.1305 C   0  0  0  0  0  0  0  0  0  0  0  0
   27.2801   50.0231   37.6819 C   0  0  0  0  0  0  0  0  0  0  0  0
   27.2531   49.6451   39.1638 C   0  0  0  0  0  0  0  0  0  0  0  0
   28.6022   49.6297   39.7033 N   0  0  0  0  0  0  0  0  0  0  0  0
  1  2  1  0  0  0  0
  2  3  1  0  0  0  0
  3  4  1  0  0  0  0
  4  5  1  0  0  0  0
  5  6  1  0  0  0  0
  6  7  1  0  0  0  0
  7  8  1  0  0  0  0
  8  9  1  0  0  0  0
  9 10  1  0  0  0  0
 10 11  1  0  0  0  0
 11 12  1  0  0  0  0
 12 13  1  0  0  0  0
 13 14  1  0  0  0  0
M  END
>  <CHROM.1>
-179.37504289,67.19813134,-179.22289599,-169.17575864,178.14247164,177.45262937
-67.16671192,170.95447814,171.82322709,64.72925096,-175.76754159,23.58702813
51.47726283,40.27590963,-2.44736246,0.46294469,-1.41479676

>  <Name>
ligand

>  <RI>
0

>  <Rbt.Current_Directory>
/home/itssahil/PROJECTS/Mol_Feturizer/New_Systems/rnas/4P5J

>  <Rbt.Executable>
rbdock ($Id: //depot/dev/client3/rdock/2013.1/src/exe/rbdock.cxx#4 $)

>  <Rbt.Library>
libRbt.so (2013.1, Build901 2013/11/27)

>  <Rbt.Parameter_File>
/export/apps/rDock/src/rDock_2013.1_src/data/scripts/dock_solv.prm

>  <Rbt.Receptor>
prm/pocket_docking_7.prm

>  <SCORE>
-4.70654

>  <SCORE.INTER>
5.18115

>  <SCORE.INTER.CONST>
1

>  <SCORE.INTER.POLAR>
0

>  <SCORE.INTER.ROT>
11

>  <SCORE.INTER.SOLV>
5.59516

>  <SCORE.INTER.VDW>
-9.34429

>  <SCORE.INTER.norm>
0.370082

>  <SCORE.INTRA>
-9.88769

>  <SCORE.INTRA.DIHEDRAL>
-16.7296

>  <SCORE.INTRA.DIHEDRAL.0>
17.5233

>  <SCORE.INTRA.POLAR>
0

>  <SCORE.INTRA.POLAR.0>
0

>  <SCORE.INTRA.REPUL>
0

>  <SCORE.INTRA.REPUL.0>
0

>  <SCORE.INTRA.SOLV>
-1.65516

>  <SCORE.INTRA.SOLV.lig_0>
-46.1043

>  <SCORE.INTRA.VDW>
-0.695303

>  <SCORE.INTRA.VDW.0>
-0.545445

>  <SCORE.INTRA.norm>
-0.706264

>  <SCORE.RESTR>
0

>  <SCORE.RESTR.CAVITY>
0

>  <SCORE.RESTR.norm>
0

>  <SCORE.SYSTEM>
0

>  <SCORE.SYSTEM.CONST>
0

>  <SCORE.SYSTEM.DIHEDRAL>
0

>  <SCORE.SYSTEM.SOLV>
0

>  <SCORE.SYSTEM.norm>
0

>  <SCORE.heavy>
14

>  <SCORE.norm>
-0.336182

>  <RMSD>
7.462

$$$$
ligand
 OpenBabel11021811513D
libRbt.so/2013.1/901 2013/11/27
 14 13  0  0  0  0  0  0  0  0999 V2000
   24.5501   46.8336   43.9034 N   0  0  0  0  0  0  0  0  0  0  0  0
   24.4958   47.0659   42.4692 C   0  0  0  0  0  0  0  0  0  0  0  0
   23.2844   47.9226   42.1163 C   0  0  0  0  0  0  0  0  0  0  0  0
   23.1817   48.1364   40.6103 C   0  0  0  0  0  0  0  0  0  0  0  0
   24.2749   48.9426   40.0754 N   0  0  0  0  0  0  0  0  0  0  0  0
   24.1560   49.5836   38.7766 C   0  0  0  0  0  0  0  0  0  0  0  0
   25.4792   50.1491   38.2726 C   0  0  0  0  0  0  0  0  0  0  0  0
   25.2972   50.7404   36.8792 C   0  0  0  0  0  0  0  0  0  0  0  0
   24.4226   51.9870   36.9573 C   0  0  0  0  0  0  0  0  0  0  0  0
   24.0969   52.5088   35.6413 N   0  0  0  0  0  0  0  0  0  0  0  0
   22.9304   53.3667   35.4797 C   0  0  0  0  0  0  0  0  0  0  0  0
   23.1467   54.8221   35.8888 C   0  0  0  0  0  0  0  0  0  0  0  0
   24.1381   55.5064   34.9462 C   0  0  0  0  0  0  0  0  0  0  0  0
   24.3564   56.8823   35.3590 N   0  0  0  0  0  0  0  0  0  0  0  0
  1  2  1  0  0  0  0
  2  3  1  0  0  0  0
  3  4  1  0  0  0  0
  4  5  1  0  0  0  0
  5  6  1  0  0  0  0
  6  7  1  0  0  0  0
  7  8  1  0  0  0  0
  8  9  1  0  0  0  0
  9 10  1  0  0  0  0
 10 11  1  0  0  0  0
 11 12  1  0  0  0  0
 12 13  1  0  0  0  0
 13 14  1  0  0  0  0
M  END
>  <CHROM.1>
-177.98450604,-66.67316646,-161.57872155,-168.88588186,177.08084268,68.25960480
-173.77450853,158.36707054,79.98753502,66.80974082,-178.91055560,24.12924080
51.03185987,38.38381619,1.52859460,-1.08400587,2.36079901

>  <Name>
ligand

>  <RI>
0

>  <Rbt.Current_Directory>
/home/itssahil/PROJECTS/Mol_Feturizer/New_Systems/rnas/4P5J

>  <Rbt.Executable>
rbdock ($Id: //depot/dev/client3/rdock/2013.1/src/exe/rbdock.cxx#4 $)

>  <Rbt.Library>
libRbt.so (2013.1, Build901 2013/11/27)

>  <Rbt.Parameter_File>
/export/apps/rDock/src/rDock_2013.1_src/data/scripts/dock_solv.prm

>  <Rbt.Receptor>
prm/pocket_docking_8.prm

>  <SCORE>
-5.49463

>  <SCORE.INTER>
3.03661

>  <SCORE.INTER.CONST>
1

>  <SCORE.INTER.POLAR>
0

>  <SCORE.INTER.ROT>
11

>  <SCORE.INTER.SOLV>
7.83497

>  <SCORE.INTER.VDW>
-11.5206

>  <SCORE.INTER.norm>
0.216901

>  <SCORE.INTRA>
-8.53124

>  <SCORE.INTRA.DIHEDRAL>
-15.7018

>  <SCORE.INTRA.DIHEDRAL.0>
17.5233

>  <SCORE.INTRA.POLAR>
0

>  <SCORE.INTRA.POLAR.0>
0

>  <SCORE.INTRA.REPUL>
0

>  <SCORE.INTRA.REPUL.0>
0

>  <SCORE.INTRA.SOLV>
-1.82957

>  <SCORE.INTRA.SOLV.lig_0>
-46.1043

>  <SCORE.INTRA.VDW>
0.234458

>  <SCORE.INTRA.VDW.0>
-0.545445

>  <SCORE.INTRA.norm>
-0.609374

>  <SCORE.RESTR>
0

>  <SCORE.RESTR.CAVITY>
0

>  <SCORE.RESTR.norm>
0

>  <SCORE.SYSTEM>
0

>  <SCORE.SYSTEM.CONST>
0

>  <SCORE.SYSTEM.DIHEDRAL>
0

>  <SCORE.SYSTEM.SOLV>
0

>  <SCORE.SYSTEM.norm>
0

>  <SCORE.heavy>
14

>  <SCORE.norm>
-0.392474

>  <RMSD>
7.511

$$$$
ligand
 OpenBabel11021811513D
libRbt.so/2013.1/901 2013/11/27
 14 13  0  0  0  0  0  0  0  0999 V2000
   25.5293   52.7524   36.2910 N   0  0  0  0  0  0  0  0  0  0  0  0
   25.1226   51.4616   35.7593 C   0  0  0  0  0  0  0  0  0  0  0  0
   25.2990   50.3743   36.8140 C   0  0  0  0  0  0  0  0  0  0  0  0
   24.3503   50.5878   37.9882 C   0  0  0  0  0  0  0  0  0  0  0  0
   24.4453   49.5338   38.9939 N   0  0  0  0  0  0  0  0  0  0  0  0
   23.2999   49.1937   39.8210 C   0  0  0  0  0  0  0  0  0  0  0  0
   23.5506   47.9794   40.7083 C   0  0  0  0  0  0  0  0  0  0  0  0
   22.2752   47.6071   41.4561 C   0  0  0  0  0  0  0  0  0  0  0  0
   22.5304   46.3898   42.3383 C   0  0  0  0  0  0  0  0  0  0  0  0
   23.4085   46.6983   43.4537 N   0  0  0  0  0  0  0  0  0  0  0  0
   24.8454   46.5064   43.3082 C   0  0  0  0  0  0  0  0  0  0  0  0
   25.6044   46.3454   44.6236 C   0  0  0  0  0  0  0  0  0  0  0  0
   27.0957   46.1259   44.3632 C   0  0  0  0  0  0  0  0  0  0  0  0
   27.8089   45.9776   45.6204 N   0  0  0  0  0  0  0  0  0  0  0  0
  1  2  1  0  0  0  0
  2  3  1  0  0  0  0
  3  4  1  0  0  0  0
  4  5  1  0  0  0  0
  5  6  1  0  0  0  0
  6  7  1  0  0  0  0
  7  8  1  0  0  0  0
  8  9  1  0  0  0  0
  9 10  1  0  0  0  0
 10 11  1  0  0  0  0
 11 12  1  0  0  0  0
 12 13  1  0  0  0  0
 13 14  1  0  0  0  0
M  END
>  <CHROM.1>
65.87932211,177.43315449,-151.69488676,174.14568611,-175.13785213,179.82229606
69.29958594,-91.96344073,-158.07587718,179.00450347,179.84752693,24.65441654
48.39510206,40.82411818,-1.64587927,0.18924208,2.17554260

>  <Name>
ligand

>  <RI>
0

>  <Rbt.Current_Directory>
/home/itssahil/PROJECTS/Mol_Feturizer/New_Systems/rnas/4P5J

>  <Rbt.Executable>
rbdock ($Id: //depot/dev/client3/rdock/2013.1/src/exe/rbdock.cxx#4 $)

>  <Rbt.Library>
libRbt.so (2013.1, Build901 2013/11/27)

>  <Rbt.Parameter_File>
/export/apps/rDock/src/rDock_2013.1_src/data/scripts/dock_solv.prm

>  <Rbt.Receptor>
prm/pocket_docking_8.prm

>  <SCORE>
-6.46349

>  <SCORE.INTER>
2.34705

>  <SCORE.INTER.CONST>
1

>  <SCORE.INTER.POLAR>
0

>  <SCORE.INTER.ROT>
11

>  <SCORE.INTER.SOLV>
6.73131

>  <SCORE.INTER.VDW>
-11.6124

>  <SCORE.INTER.norm>
0.167646

>  <SCORE.INTRA>
-8.81054

>  <SCORE.INTRA.DIHEDRAL>
-15.3648

>  <SCORE.INTRA.DIHEDRAL.0>
17.5233

>  <SCORE.INTRA.POLAR>
0

>  <SCORE.INTRA.POLAR.0>
0

>  <SCORE.INTRA.REPUL>
0

>  <SCORE.INTRA.REPUL.0>
0

>  <SCORE.INTRA.SOLV>
-1.59831

>  <SCORE.INTRA.SOLV.lig_0>
-46.1043

>  <SCORE.INTRA.VDW>
-0.328993

>  <SCORE.INTRA.VDW.0>
-0.545445

>  <SCORE.INTRA.norm>
-0.629325

>  <SCORE.RESTR>
0

>  <SCORE.RESTR.CAVITY>
0

>  <SCORE.RESTR.norm>
0

>  <SCORE.SYSTEM>
0

>  <SCORE.SYSTEM.CONST>
0

>  <SCORE.SYSTEM.DIHEDRAL>
0

>  <SCORE.SYSTEM.SOLV>
0

>  <SCORE.SYSTEM.norm>
0

>  <SCORE.heavy>
14

>  <SCORE.norm>
-0.461678

>  <RMSD>
7.577

$$$$
ligand
 OpenBabel11021811513D
libRbt.so/2013.1/901 2013/11/27
 14 13  0  0  0  0  0  0  0  0999 V2000
   30.9996   42.2106   36.1232 N   0  0  0  0  0  0  0  0  0  0  0  0
   30.9119   43.5389   36.7077 C   0  0  0  0  0  0  0  0  0  0  0  0
   32.1258   44.3733   36.3127 C   0  0  0  0  0  0  0  0  0  0  0  0
   32.0567   45.7685   36.9235 C   0  0  0  0  0  0  0  0  0  0  0  0
   32.1139   45.7533   38.3821 N   0  0  0  0  0  0  0  0  0  0  0  0
   30.9634   46.1570   39.1728 C   0  0  0  0  0  0  0  0  0  0  0  0
   31.0975   45.7846   40.6453 C   0  0  0  0  0  0  0  0  0  0  0  0
   29.8127   46.1298   41.3900 C   0  0  0  0  0  0  0  0  0  0  0  0
   29.9452   45.7379   42.8576 C   0  0  0  0  0  0  0  0  0  0  0  0
   30.2450   44.3258   43.0208 N   0  0  0  0  0  0  0  0  0  0  0  0
   29.5307   43.5541   44.0292 C   0  0  0  0  0  0  0  0  0  0  0  0
   29.9291   42.0818   44.1070 C   0  0  0  0  0  0  0  0  0  0  0  0
   29.6333   41.3717   42.7848 C   0  0  0  0  0  0  0  0  0  0  0  0
   30.0350   39.9775   42.8623 N   0  0  0  0  0  0  0  0  0  0  0  0
  1  2  1  0  0  0  0
  2  3  1  0  0  0  0
  3  4  1  0  0  0  0
  4  5  1  0  0  0  0
  5  6  1  0  0  0  0
  6  7  1  0  0  0  0
  7  8  1  0  0  0  0
  8  9  1  0  0  0  0
  9 10  1  0  0  0  0
 10 11  1  0  0  0  0
 11 12  1  0  0  0  0
 12 13  1  0  0  0  0
 13 14  1  0  0  0  0
M  END
>  <CHROM.1>
-179.65177571,64.21655071,-113.00964377,167.17156757,-175.25605291,179.23197816
-57.65926585,-135.43294335,179.93313232,-61.53806004,179.11615418,30.67134392
44.05502743,40.38004192,0.08048263,-1.31063818,-2.76681571

>  <Name>
ligand

>  <RI>
0

>  <Rbt.Current_Directory>
/home/itssahil/PROJECTS/Mol_Feturizer/New_Systems/rnas/4P5J

>  <Rbt.Executable>
rbdock ($Id: //depot/dev/client3/rdock/2013.1/src/exe/rbdock.cxx#4 $)

>  <Rbt.Library>
libRbt.so (2013.1, Build901 2013/11/27)

>  <Rbt.Parameter_File>
/export/apps/rDock/src/rDock_2013.1_src/data/scripts/dock_solv.prm

>  <Rbt.Receptor>
prm/pocket_docking_7.prm

>  <SCORE>
-4.74726

>  <SCORE.INTER>
4.16035

>  <SCORE.INTER.CONST>
1

>  <SCORE.INTER.POLAR>
0

>  <SCORE.INTER.ROT>
11

>  <SCORE.INTER.SOLV>
10.0548

>  <SCORE.INTER.VDW>
-11.5114

>  <SCORE.INTER.norm>
0.297168

>  <SCORE.INTRA>
-8.90761

>  <SCORE.INTRA.DIHEDRAL>
-15.0309

>  <SCORE.INTRA.DIHEDRAL.0>
17.5233

>  <SCORE.INTRA.POLAR>
0

>  <SCORE.INTRA.POLAR.0>
0

>  <SCORE.INTRA.REPUL>
0

>  <SCORE.INTRA.REPUL.0>
0

>  <SCORE.INTRA.SOLV>
-1.55003

>  <SCORE.INTRA.SOLV.lig_0>
-46.1043

>  <SCORE.INTRA.VDW>
-0.617137

>  <SCORE.INTRA.VDW.0>
-0.545445

>  <SCORE.INTRA.norm>
-0.636258

>  <SCORE.RESTR>
0

>  <SCORE.RESTR.CAVITY>
0

>  <SCORE.RESTR.norm>
0

>  <SCORE.SYSTEM>
0

>  <SCORE.SYSTEM.CONST>
0

>  <SCORE.SYSTEM.DIHEDRAL>
0

>  <SCORE.SYSTEM.SOLV>
0

>  <SCORE.SYSTEM.norm>
0

>  <SCORE.heavy>
14

>  <SCORE.norm>
-0.33909

>  <RMSD>
7.633

$$$$
ligand
 OpenBabel11021811513D
libRbt.so/2013.1/901 2013/11/27
 14 13  0  0  0  0  0  0  0  0999 V2000
   25.5465   53.0979   34.8616 N   0  0  0  0  0  0  0  0  0  0  0  0
   25.9263   51.9552   35.6764 C   0  0  0  0  0  0  0  0  0  0  0  0
   24.6912   51.1547   36.0757 C   0  0  0  0  0  0  0  0  0  0  0  0
   25.0543   50.0221   37.0294 C   0  0  0  0  0  0  0  0  0  0  0  0
   25.5354   50.5004   38.3221 N   0  0  0  0  0  0  0  0  0  0  0  0
   25.8745   49.5629   39.3794 C   0  0  0  0  0  0  0  0  0  0  0  0
   24.7555   49.3932   40.4010 C   0  0  0  0  0  0  0  0  0  0  0  0
   23.4795   48.9319   39.7056 C   0  0  0  0  0  0  0  0  0  0  0  0
   22.3358   48.8708   40.7123 C   0  0  0  0  0  0  0  0  0  0  0  0
   22.1719   50.1236   41.4292 N   0  0  0  0  0  0  0  0  0  0  0  0
   21.7845   51.3221   40.6970 C   0  0  0  0  0  0  0  0  0  0  0  0
   22.0477   52.6335   41.4342 C   0  0  0  0  0  0  0  0  0  0  0  0
   21.6948   53.8305   40.5496 C   0  0  0  0  0  0  0  0  0  0  0  0
   21.9272   55.0720   41.2678 N   0  0  0  0  0  0  0  0  0  0  0  0
  1  2  1  0  0  0  0
  2  3  1  0  0  0  0
  3  4  1  0  0  0  0
  4  5  1  0  0  0  0
  5  6  1  0  0  0  0
  6  7  1  0  0  0  0
  7  8  1  0  0  0  0
  8  9  1  0  0  0  0
  9 10  1  0  0  0  0
 10 11  1  0  0  0  0
 11 12  1  0  0  0  0
 12 13  1  0  0  0  0
 13 14  1  0  0  0  0
M  END
>  <CHROM.1>
-175.08741201,66.15376302,177.35267765,-98.49861968,57.53791959,-175.51829563
53.48077644,64.29180713,-162.32859719,176.25864409,179.03845368,23.77321277
51.17607145,39.11015004,0.27819924,0.92760733,-0.47926649

>  <Name>
ligand

>  <RI>
0

>  <Rbt.Current_Directory>
/home/itssahil/PROJECTS/Mol_Feturizer/New_Systems/rnas/4P5J

>  <Rbt.Executable>
rbdock ($Id: //depot/dev/client3/rdock/2013.1/src/exe/rbdock.cxx#4 $)

>  <Rbt.Library>
libRbt.so (2013.1, Build901 2013/11/27)

>  <Rbt.Parameter_File>
/export/apps/rDock/src/rDock_2013.1_src/data/scripts/dock_solv.prm

>  <Rbt.Receptor>
prm/pocket_docking_7.prm

>  <SCORE>
-5.20697

>  <SCORE.INTER>
3.28477

>  <SCORE.INTER.CONST>
1

>  <SCORE.INTER.POLAR>
0

>  <SCORE.INTER.ROT>
11

>  <SCORE.INTER.SOLV>
5.89319

>  <SCORE.INTER.VDW>
-10.7079

>  <SCORE.INTER.norm>
0.234627

>  <SCORE.INTRA>
-8.49174

>  <SCORE.INTRA.DIHEDRAL>
-15.85

>  <SCORE.INTRA.DIHEDRAL.0>
17.5233

>  <SCORE.INTRA.POLAR>
0

>  <SCORE.INTRA.POLAR.0>
0

>  <SCORE.INTRA.REPUL>
0

>  <SCORE.INTRA.REPUL.0>
0

>  <SCORE.INTRA.SOLV>
-1.36554

>  <SCORE.INTRA.SOLV.lig_0>
-46.1043

>  <SCORE.INTRA.VDW>
0.116036

>  <SCORE.INTRA.VDW.0>
-0.545445

>  <SCORE.INTRA.norm>
-0.606553

>  <SCORE.RESTR>
0

>  <SCORE.RESTR.CAVITY>
0

>  <SCORE.RESTR.norm>
0

>  <SCORE.SYSTEM>
0

>  <SCORE.SYSTEM.CONST>
0

>  <SCORE.SYSTEM.DIHEDRAL>
0

>  <SCORE.SYSTEM.SOLV>
0

>  <SCORE.SYSTEM.norm>
0

>  <SCORE.heavy>
14

>  <SCORE.norm>
-0.371926

>  <RMSD>
7.680

$$$$
ligand
 OpenBabel11021811513D
libRbt.so/2013.1/901 2013/11/27
 14 13  0  0  0  0  0  0  0  0999 V2000
   25.2621   46.8460   45.1899 N   0  0  0  0  0  0  0  0  0  0  0  0
   25.8908   46.6944   43.8877 C   0  0  0  0  0  0  0  0  0  0  0  0
   24.8384   46.7222   42.7842 C   0  0  0  0  0  0  0  0  0  0  0  0
   24.1118   48.0620   42.7507 C   0  0  0  0  0  0  0  0  0  0  0  0
   23.1078   48.1372   41.6935 N   0  0  0  0  0  0  0  0  0  0  0  0
   23.5042   48.3165   40.3069 C   0  0  0  0  0  0  0  0  0  0  0  0
   23.8331   49.7663   39.9684 C   0  0  0  0  0  0  0  0  0  0  0  0
   24.2850   49.8737   38.5163 C   0  0  0  0  0  0  0  0  0  0  0  0
   24.5196   51.3364   38.1551 C   0  0  0  0  0  0  0  0  0  0  0  0
   24.8225   51.5088   36.7448 N   0  0  0  0  0  0  0  0  0  0  0  0
   23.7554   51.8745   35.8228 C   0  0  0  0  0  0  0  0  0  0  0  0
   24.1334   52.9448   34.8010 C   0  0  0  0  0  0  0  0  0  0  0  0
   25.2269   52.4327   33.8619 C   0  0  0  0  0  0  0  0  0  0  0  0
   25.6133   53.4741   32.9253 N   0  0  0  0  0  0  0  0  0  0  0  0
  1  2  1  0  0  0  0
  2  3  1  0  0  0  0
  3  4  1  0  0  0  0
  4  5  1  0  0  0  0
  5  6  1  0  0  0  0
  6  7  1  0  0  0  0
  7  8  1  0  0  0  0
  8  9  1  0  0  0  0
  9 10  1  0  0  0  0
 10 11  1  0  0  0  0
 11 12  1  0  0  0  0
 12 13  1  0  0  0  0
 13 14  1  0  0  0  0
M  END
>  <CHROM.1>
62.51702730,179.14288667,-75.46772156,-80.10049999,178.08770626,176.10185885
-174.23733018,96.63236178,137.02043561,64.44654768,-177.94419722,24.49308784
49.85634909,39.10059026,-1.57742455,0.03108377,-1.02156264

>  <Name>
ligand

>  <RI>
0

>  <Rbt.Current_Directory>
/home/itssahil/PROJECTS/Mol_Feturizer/New_Systems/rnas/4P5J

>  <Rbt.Executable>
rbdock ($Id: //depot/dev/client3/rdock/2013.1/src/exe/rbdock.cxx#4 $)

>  <Rbt.Library>
libRbt.so (2013.1, Build901 2013/11/27)

>  <Rbt.Parameter_File>
/export/apps/rDock/src/rDock_2013.1_src/data/scripts/dock_solv.prm

>  <Rbt.Receptor>
prm/pocket_docking_8.prm

>  <SCORE>
-4.3106

>  <SCORE.INTER>
4.04223

>  <SCORE.INTER.CONST>
1

>  <SCORE.INTER.POLAR>
0

>  <SCORE.INTER.ROT>
11

>  <SCORE.INTER.SOLV>
5.18041

>  <SCORE.INTER.VDW>
-9.96532

>  <SCORE.INTER.norm>
0.288731

>  <SCORE.INTRA>
-8.35283

>  <SCORE.INTRA.DIHEDRAL>
-14.9338

>  <SCORE.INTRA.DIHEDRAL.0>
17.5233

>  <SCORE.INTRA.POLAR>
0

>  <SCORE.INTRA.POLAR.0>
0

>  <SCORE.INTRA.REPUL>
0

>  <SCORE.INTRA.REPUL.0>
0

>  <SCORE.INTRA.SOLV>
-1.57131

>  <SCORE.INTRA.SOLV.lig_0>
-46.1043

>  <SCORE.INTRA.VDW>
-0.100264

>  <SCORE.INTRA.VDW.0>
-0.545445

>  <SCORE.INTRA.norm>
-0.59663

>  <SCORE.RESTR>
0

>  <SCORE.RESTR.CAVITY>
0

>  <SCORE.RESTR.norm>
0

>  <SCORE.SYSTEM>
0

>  <SCORE.SYSTEM.CONST>
0

>  <SCORE.SYSTEM.DIHEDRAL>
0

>  <SCORE.SYSTEM.SOLV>
0

>  <SCORE.SYSTEM.norm>
0

>  <SCORE.heavy>
14

>  <SCORE.norm>
-0.3079

>  <RMSD>
7.696

$$$$
ligand
 OpenBabel11021811513D
libRbt.so/2013.1/901 2013/11/27
 14 13  0  0  0  0  0  0  0  0999 V2000
   29.6940   51.1908   32.2228 N   0  0  0  0  0  0  0  0  0  0  0  0
   28.6925   51.8098   31.3697 C   0  0  0  0  0  0  0  0  0  0  0  0
   27.7774   52.7098   32.1933 C   0  0  0  0  0  0  0  0  0  0  0  0
   26.9236   51.8927   33.1564 C   0  0  0  0  0  0  0  0  0  0  0  0
   26.0294   52.7180   33.9629 N   0  0  0  0  0  0  0  0  0  0  0  0
   25.0086   52.1070   34.7974 C   0  0  0  0  0  0  0  0  0  0  0  0
   25.5822   51.4505   36.0484 C   0  0  0  0  0  0  0  0  0  0  0  0
   24.4532   50.9075   36.9172 C   0  0  0  0  0  0  0  0  0  0  0  0
   25.0337   50.2196   38.1480 C   0  0  0  0  0  0  0  0  0  0  0  0
   23.9968   49.7308   39.0404 N   0  0  0  0  0  0  0  0  0  0  0  0
   24.3664   48.9106   40.1863 C   0  0  0  0  0  0  0  0  0  0  0  0
   23.2539   48.0035   40.7076 C   0  0  0  0  0  0  0  0  0  0  0  0
   23.7701   47.1099   41.8367 C   0  0  0  0  0  0  0  0  0  0  0  0
   24.0921   47.9116   43.0049 N   0  0  0  0  0  0  0  0  0  0  0  0
  1  2  1  0  0  0  0
  2  3  1  0  0  0  0
  3  4  1  0  0  0  0
  4  5  1  0  0  0  0
  5  6  1  0  0  0  0
  6  7  1  0  0  0  0
  7  8  1  0  0  0  0
  8  9  1  0  0  0  0
  9 10  1  0  0  0  0
 10 11  1  0  0  0  0
 11 12  1  0  0  0  0
 12 13  1  0  0  0  0
 13 14  1  0  0  0  0
M  END
>  <CHROM.1>
-67.22119271,-179.86353424,171.20920518,74.01744342,176.51287169,178.49869915
177.62990092,172.84172145,-156.23304263,175.67014487,67.43574338,25.61942616
50.47661913,36.68498440,-1.11382341,-0.51512690,2.22602895

>  <Name>
ligand

>  <RI>
0

>  <Rbt.Current_Directory>
/home/itssahil/PROJECTS/Mol_Feturizer/New_Systems/rnas/4P5J

>  <Rbt.Executable>
rbdock ($Id: //depot/dev/client3/rdock/2013.1/src/exe/rbdock.cxx#4 $)

>  <Rbt.Library>
libRbt.so (2013.1, Build901 2013/11/27)

>  <Rbt.Parameter_File>
/export/apps/rDock/src/rDock_2013.1_src/data/scripts/dock_solv.prm

>  <Rbt.Receptor>
prm/pocket_docking_8.prm

>  <SCORE>
-5.76867

>  <SCORE.INTER>
3.27767

>  <SCORE.INTER.CONST>
1

>  <SCORE.INTER.POLAR>
0

>  <SCORE.INTER.ROT>
11

>  <SCORE.INTER.SOLV>
7.08842

>  <SCORE.INTER.VDW>
-11.111

>  <SCORE.INTER.norm>
0.234119

>  <SCORE.INTRA>
-9.04634

>  <SCORE.INTRA.DIHEDRAL>
-16.3083

>  <SCORE.INTRA.DIHEDRAL.0>
17.5233

>  <SCORE.INTRA.POLAR>
0

>  <SCORE.INTRA.POLAR.0>
0

>  <SCORE.INTRA.REPUL>
0

>  <SCORE.INTRA.REPUL.0>
0

>  <SCORE.INTRA.SOLV>
-1.27741

>  <SCORE.INTRA.SOLV.lig_0>
-46.1043

>  <SCORE.INTRA.VDW>
-0.253474

>  <SCORE.INTRA.VDW.0>
-0.545445

>  <SCORE.INTRA.norm>
-0.646167

>  <SCORE.RESTR>
0

>  <SCORE.RESTR.CAVITY>
0

>  <SCORE.RESTR.norm>
0

>  <SCORE.SYSTEM>
0

>  <SCORE.SYSTEM.CONST>
0

>  <SCORE.SYSTEM.DIHEDRAL>
0

>  <SCORE.SYSTEM.SOLV>
0

>  <SCORE.SYSTEM.norm>
0

>  <SCORE.heavy>
14

>  <SCORE.norm>
-0.412048

>  <RMSD>
7.709

$$$$
ligand
 OpenBabel11021811513D
libRbt.so/2013.1/901 2013/11/27
 14 13  0  0  0  0  0  0  0  0999 V2000
   23.0683   46.1674   43.0786 N   0  0  0  0  0  0  0  0  0  0  0  0
   24.0383   47.0977   42.5240 C   0  0  0  0  0  0  0  0  0  0  0  0
   23.5460   47.6432   41.1877 C   0  0  0  0  0  0  0  0  0  0  0  0
   24.5098   48.6844   40.6298 C   0  0  0  0  0  0  0  0  0  0  0  0
   24.1088   49.1842   39.3181 N   0  0  0  0  0  0  0  0  0  0  0  0
   24.9357   50.1444   38.6067 C   0  0  0  0  0  0  0  0  0  0  0  0
   24.4033   50.4671   37.2148 C   0  0  0  0  0  0  0  0  0  0  0  0
   25.3002   51.4983   36.5391 C   0  0  0  0  0  0  0  0  0  0  0  0
   24.6990   51.9062   35.1984 C   0  0  0  0  0  0  0  0  0  0  0  0
   23.3724   52.4794   35.3467 N   0  0  0  0  0  0  0  0  0  0  0  0
   23.0899   53.7885   34.7731 C   0  0  0  0  0  0  0  0  0  0  0  0
   23.5735   54.9704   35.6107 C   0  0  0  0  0  0  0  0  0  0  0  0
   23.2879   56.2920   34.8955 C   0  0  0  0  0  0  0  0  0  0  0  0
   23.7530   57.4094   35.6995 N   0  0  0  0  0  0  0  0  0  0  0  0
  1  2  1  0  0  0  0
  2  3  1  0  0  0  0
  3  4  1  0  0  0  0
  4  5  1  0  0  0  0
  5  6  1  0  0  0  0
  6  7  1  0  0  0  0
  7  8  1  0  0  0  0
  8  9  1  0  0  0  0
  9 10  1  0  0  0  0
 10 11  1  0  0  0  0
 11 12  1  0  0  0  0
 12 13  1  0  0  0  0
 13 14  1  0  0  0  0
M  END
>  <CHROM.1>
176.57165077,177.14750912,-177.54722713,175.79744848,178.84686559,-175.17000494
59.47591345,126.34404711,-80.30235139,177.40761769,-179.92846075,23.97775901
51.26659469,37.90142729,1.51860680,-1.21541002,2.39231582

>  <Name>
ligand

>  <RI>
0

>  <Rbt.Current_Directory>
/home/itssahil/PROJECTS/Mol_Feturizer/New_Systems/rnas/4P5J

>  <Rbt.Executable>
rbdock ($Id: //depot/dev/client3/rdock/2013.1/src/exe/rbdock.cxx#4 $)

>  <Rbt.Library>
libRbt.so (2013.1, Build901 2013/11/27)

>  <Rbt.Parameter_File>
/export/apps/rDock/src/rDock_2013.1_src/data/scripts/dock_solv.prm

>  <Rbt.Receptor>
prm/pocket_docking_8.prm

>  <SCORE>
-6.28306

>  <SCORE.INTER>
3.2723

>  <SCORE.INTER.CONST>
1

>  <SCORE.INTER.POLAR>
0

>  <SCORE.INTER.ROT>
11

>  <SCORE.INTER.SOLV>
12.3428

>  <SCORE.INTER.VDW>
-12.8661

>  <SCORE.INTER.norm>
0.233736

>  <SCORE.INTRA>
-9.55535

>  <SCORE.INTRA.DIHEDRAL>
-15.8245

>  <SCORE.INTRA.DIHEDRAL.0>
17.5233

>  <SCORE.INTRA.POLAR>
0

>  <SCORE.INTRA.POLAR.0>
0

>  <SCORE.INTRA.REPUL>
0

>  <SCORE.INTRA.REPUL.0>
0

>  <SCORE.INTRA.SOLV>
-2.28158

>  <SCORE.INTRA.SOLV.lig_0>
-46.1043

>  <SCORE.INTRA.VDW>
-0.502302

>  <SCORE.INTRA.VDW.0>
-0.545445

>  <SCORE.INTRA.norm>
-0.682525

>  <SCORE.RESTR>
0

>  <SCORE.RESTR.CAVITY>
0

>  <SCORE.RESTR.norm>
0

>  <SCORE.SYSTEM>
0

>  <SCORE.SYSTEM.CONST>
0

>  <SCORE.SYSTEM.DIHEDRAL>
0

>  <SCORE.SYSTEM.SOLV>
0

>  <SCORE.SYSTEM.norm>
0

>  <SCORE.heavy>
14

>  <SCORE.norm>
-0.44879

>  <RMSD>
7.721

$$$$
ligand
 OpenBabel11021811513D
libRbt.so/2013.1/901 2013/11/27
 14 13  0  0  0  0  0  0  0  0999 V2000
   19.4111   57.6439   42.0333 N   0  0  0  0  0  0  0  0  0  0  0  0
   19.6461   56.2914   41.5543 C   0  0  0  0  0  0  0  0  0  0  0  0
   20.3857   55.4761   42.6098 C   0  0  0  0  0  0  0  0  0  0  0  0
   20.6809   54.0667   42.1090 C   0  0  0  0  0  0  0  0  0  0  0  0
   21.5728   54.0498   40.9534 N   0  0  0  0  0  0  0  0  0  0  0  0
   21.9876   52.7916   40.3561 C   0  0  0  0  0  0  0  0  0  0  0  0
   22.7579   52.9805   39.0539 C   0  0  0  0  0  0  0  0  0  0  0  0
   23.1956   51.6270   38.5054 C   0  0  0  0  0  0  0  0  0  0  0  0
   23.9466   51.8201   37.1925 C   0  0  0  0  0  0  0  0  0  0  0  0
   24.5642   50.5890   36.7305 N   0  0  0  0  0  0  0  0  0  0  0  0
   25.9339   50.2841   37.1224 C   0  0  0  0  0  0  0  0  0  0  0  0
   26.1107   49.9211   38.5952 C   0  0  0  0  0  0  0  0  0  0  0  0
   27.5856   49.6747   38.9174 C   0  0  0  0  0  0  0  0  0  0  0  0
   28.3458   50.9033   38.7634 N   0  0  0  0  0  0  0  0  0  0  0  0
  1  2  1  0  0  0  0
  2  3  1  0  0  0  0
  3  4  1  0  0  0  0
  4  5  1  0  0  0  0
  5  6  1  0  0  0  0
  6  7  1  0  0  0  0
  7  8  1  0  0  0  0
  8  9  1  0  0  0  0
  9 10  1  0  0  0  0
 10 11  1  0  0  0  0
 11 12  1  0  0  0  0
 12 13  1  0  0  0  0
 13 14  1  0  0  0  0
M  END
>  <CHROM.1>
-178.20347243,63.32431344,178.72979806,172.15475435,178.35862212,179.13249046
171.13441538,-91.43534225,70.70168355,-177.71720986,65.44923149,23.29454039
52.72256826,39.60690033,-2.43963421,0.45872782,-2.03988637

>  <Name>
ligand

>  <RI>
0

>  <Rbt.Current_Directory>
/home/itssahil/PROJECTS/Mol_Feturizer/New_Systems/rnas/4P5J

>  <Rbt.Executable>
rbdock ($Id: //depot/dev/client3/rdock/2013.1/src/exe/rbdock.cxx#4 $)

>  <Rbt.Library>
libRbt.so (2013.1, Build901 2013/11/27)

>  <Rbt.Parameter_File>
/export/apps/rDock/src/rDock_2013.1_src/data/scripts/dock_solv.prm

>  <Rbt.Receptor>
prm/pocket_docking_8.prm

>  <SCORE>
-4.32796

>  <SCORE.INTER>
4.80917

>  <SCORE.INTER.CONST>
1

>  <SCORE.INTER.POLAR>
0

>  <SCORE.INTER.ROT>
11

>  <SCORE.INTER.SOLV>
6.72037

>  <SCORE.INTER.VDW>
-9.96735

>  <SCORE.INTER.norm>
0.343512

>  <SCORE.INTRA>
-9.13713

>  <SCORE.INTRA.DIHEDRAL>
-16.2446

>  <SCORE.INTRA.DIHEDRAL.0>
17.5233

>  <SCORE.INTRA.POLAR>
0

>  <SCORE.INTRA.POLAR.0>
0

>  <SCORE.INTRA.REPUL>
0

>  <SCORE.INTRA.REPUL.0>
0

>  <SCORE.INTRA.SOLV>
-1.55526

>  <SCORE.INTRA.SOLV.lig_0>
-46.1043

>  <SCORE.INTRA.VDW>
-0.237172

>  <SCORE.INTRA.VDW.0>
-0.545445

>  <SCORE.INTRA.norm>
-0.652652

>  <SCORE.RESTR>
0

>  <SCORE.RESTR.CAVITY>
0

>  <SCORE.RESTR.norm>
0

>  <SCORE.SYSTEM>
0

>  <SCORE.SYSTEM.CONST>
0

>  <SCORE.SYSTEM.DIHEDRAL>
0

>  <SCORE.SYSTEM.SOLV>
0

>  <SCORE.SYSTEM.norm>
0

>  <SCORE.heavy>
14

>  <SCORE.norm>
-0.30914

>  <RMSD>
7.723

$$$$
ligand
 OpenBabel11021811513D
libRbt.so/2013.1/901 2013/11/27
 14 13  0  0  0  0  0  0  0  0999 V2000
   25.3701   52.9983   35.5401 N   0  0  0  0  0  0  0  0  0  0  0  0
   23.9483   52.8049   35.3052 C   0  0  0  0  0  0  0  0  0  0  0  0
   23.3496   51.9089   36.3844 C   0  0  0  0  0  0  0  0  0  0  0  0
   23.3964   52.5858   37.7496 C   0  0  0  0  0  0  0  0  0  0  0  0
   22.7701   51.7889   38.8003 N   0  0  0  0  0  0  0  0  0  0  0  0
   23.4108   50.5826   39.2966 C   0  0  0  0  0  0  0  0  0  0  0  0
   22.4976   49.7539   40.1933 C   0  0  0  0  0  0  0  0  0  0  0  0
   23.1762   48.4375   40.5554 C   0  0  0  0  0  0  0  0  0  0  0  0
   22.2528   47.6064   41.4394 C   0  0  0  0  0  0  0  0  0  0  0  0
   22.8819   46.3728   41.8786 N   0  0  0  0  0  0  0  0  0  0  0  0
   23.6462   46.3610   43.1189 C   0  0  0  0  0  0  0  0  0  0  0  0
   25.0548   46.9402   43.0064 C   0  0  0  0  0  0  0  0  0  0  0  0
   25.7956   46.8216   44.3394 C   0  0  0  0  0  0  0  0  0  0  0  0
   27.1089   47.4353   44.2410 N   0  0  0  0  0  0  0  0  0  0  0  0
  1  2  1  0  0  0  0
  2  3  1  0  0  0  0
  3  4  1  0  0  0  0
  4  5  1  0  0  0  0
  5  6  1  0  0  0  0
  6  7  1  0  0  0  0
  7  8  1  0  0  0  0
  8  9  1  0  0  0  0
  9 10  1  0  0  0  0
 10 11  1  0  0  0  0
 11 12  1  0  0  0  0
 12 13  1  0  0  0  0
 13 14  1  0  0  0  0
M  END
>  <CHROM.1>
65.74210689,177.04429374,71.81126009,-169.29801517,173.97803062,-179.38498729
-176.65256429,89.68829472,-79.04688571,-177.29851702,-177.15064406,23.90397613
49.45692364,40.13204463,-1.67712075,0.26748558,2.29010979

>  <Name>
ligand

>  <RI>
0

>  <Rbt.Current_Directory>
/home/itssahil/PROJECTS/Mol_Feturizer/New_Systems/rnas/4P5J

>  <Rbt.Executable>
rbdock ($Id: //depot/dev/client3/rdock/2013.1/src/exe/rbdock.cxx#4 $)

>  <Rbt.Library>
libRbt.so (2013.1, Build901 2013/11/27)

>  <Rbt.Parameter_File>
/export/apps/rDock/src/rDock_2013.1_src/data/scripts/dock_solv.prm

>  <Rbt.Receptor>
prm/pocket_docking_8.prm

>  <SCORE>
-6.1464

>  <SCORE.INTER>
3.01375

>  <SCORE.INTER.CONST>
1

>  <SCORE.INTER.POLAR>
0

>  <SCORE.INTER.ROT>
11

>  <SCORE.INTER.SOLV>
8.09189

>  <SCORE.INTER.VDW>
-11.6215

>  <SCORE.INTER.norm>
0.215268

>  <SCORE.INTRA>
-9.16015

>  <SCORE.INTRA.DIHEDRAL>
-16.0608

>  <SCORE.INTRA.DIHEDRAL.0>
17.5233

>  <SCORE.INTRA.POLAR>
0

>  <SCORE.INTRA.POLAR.0>
0

>  <SCORE.INTRA.REPUL>
0

>  <SCORE.INTRA.REPUL.0>
0

>  <SCORE.INTRA.SOLV>
-1.98562

>  <SCORE.INTRA.SOLV.lig_0>
-46.1043

>  <SCORE.INTRA.VDW>
-0.136954

>  <SCORE.INTRA.VDW.0>
-0.545445

>  <SCORE.INTRA.norm>
-0.654297

>  <SCORE.RESTR>
0

>  <SCORE.RESTR.CAVITY>
0

>  <SCORE.RESTR.norm>
0

>  <SCORE.SYSTEM>
0

>  <SCORE.SYSTEM.CONST>
0

>  <SCORE.SYSTEM.DIHEDRAL>
0

>  <SCORE.SYSTEM.SOLV>
0

>  <SCORE.SYSTEM.norm>
0

>  <SCORE.heavy>
14

>  <SCORE.norm>
-0.439028

>  <RMSD>
7.749

$$$$
ligand
 OpenBabel11021811513D
libRbt.so/2013.1/901 2013/11/27
 14 13  0  0  0  0  0  0  0  0999 V2000
   24.8436   47.8071   42.1580 N   0  0  0  0  0  0  0  0  0  0  0  0
   23.5632   47.5406   41.5228 C   0  0  0  0  0  0  0  0  0  0  0  0
   23.4448   48.3234   40.2193 C   0  0  0  0  0  0  0  0  0  0  0  0
   23.5377   49.8245   40.4687 C   0  0  0  0  0  0  0  0  0  0  0  0
   23.3418   50.6146   39.2569 N   0  0  0  0  0  0  0  0  0  0  0  0
   24.2853   50.5274   38.1551 C   0  0  0  0  0  0  0  0  0  0  0  0
   23.9459   51.4744   37.0093 C   0  0  0  0  0  0  0  0  0  0  0  0
   24.8905   51.2346   35.8368 C   0  0  0  0  0  0  0  0  0  0  0  0
   24.5754   52.2138   34.7112 C   0  0  0  0  0  0  0  0  0  0  0  0
   25.4329   52.0119   33.5559 N   0  0  0  0  0  0  0  0  0  0  0  0
   26.8685   52.2245   33.6839 C   0  0  0  0  0  0  0  0  0  0  0  0
   27.6778   51.8865   32.4337 C   0  0  0  0  0  0  0  0  0  0  0  0
   29.1727   52.0890   32.6870 C   0  0  0  0  0  0  0  0  0  0  0  0
   29.9316   51.7873   31.4852 N   0  0  0  0  0  0  0  0  0  0  0  0
  1  2  1  0  0  0  0
  2  3  1  0  0  0  0
  3  4  1  0  0  0  0
  4  5  1  0  0  0  0
  5  6  1  0  0  0  0
  6  7  1  0  0  0  0
  7  8  1  0  0  0  0
  8  9  1  0  0  0  0
  9 10  1  0  0  0  0
 10 11  1  0  0  0  0
 11 12  1  0  0  0  0
 12 13  1  0  0  0  0
 13 14  1  0  0  0  0
M  END
>  <CHROM.1>
-60.46550507,-176.25612908,-64.44683627,-177.29018849,-174.47108463,-178.21421530
-178.93928452,-63.55440354,175.84590020,-177.72467305,-179.01552198,25.39349101
50.68287915,36.65600849,-2.05371560,0.38410985,-0.99059570

>  <Name>
ligand

>  <RI>
0

>  <Rbt.Current_Directory>
/home/itssahil/PROJECTS/Mol_Feturizer/New_Systems/rnas/4P5J

>  <Rbt.Executable>
rbdock ($Id: //depot/dev/client3/rdock/2013.1/src/exe/rbdock.cxx#4 $)

>  <Rbt.Library>
libRbt.so (2013.1, Build901 2013/11/27)

>  <Rbt.Parameter_File>
/export/apps/rDock/src/rDock_2013.1_src/data/scripts/dock_solv.prm

>  <Rbt.Receptor>
prm/pocket_docking_7.prm

>  <SCORE>
-4.93208

>  <SCORE.INTER>
4.1977

>  <SCORE.INTER.CONST>
1

>  <SCORE.INTER.POLAR>
0

>  <SCORE.INTER.ROT>
11

>  <SCORE.INTER.SOLV>
8.78503

>  <SCORE.INTER.VDW>
-11.0632

>  <SCORE.INTER.norm>
0.299836

>  <SCORE.INTRA>
-9.12978

>  <SCORE.INTRA.DIHEDRAL>
-17.2672

>  <SCORE.INTRA.DIHEDRAL.0>
17.5233

>  <SCORE.INTRA.POLAR>
0

>  <SCORE.INTRA.POLAR.0>
0

>  <SCORE.INTRA.REPUL>
0

>  <SCORE.INTRA.REPUL.0>
0

>  <SCORE.INTRA.SOLV>
-1.89917

>  <SCORE.INTRA.SOLV.lig_0>
-46.1043

>  <SCORE.INTRA.VDW>
0.4534

>  <SCORE.INTRA.VDW.0>
-0.545445

>  <SCORE.INTRA.norm>
-0.652127

>  <SCORE.RESTR>
0

>  <SCORE.RESTR.CAVITY>
0

>  <SCORE.RESTR.norm>
0

>  <SCORE.SYSTEM>
0

>  <SCORE.SYSTEM.CONST>
0

>  <SCORE.SYSTEM.DIHEDRAL>
0

>  <SCORE.SYSTEM.SOLV>
0

>  <SCORE.SYSTEM.norm>
0

>  <SCORE.heavy>
14

>  <SCORE.norm>
-0.352291

>  <RMSD>
7.765

$$$$
ligand
 OpenBabel11021811513D
libRbt.so/2013.1/901 2013/11/27
 14 13  0  0  0  0  0  0  0  0999 V2000
   21.4580   46.7829   42.3764 N   0  0  0  0  0  0  0  0  0  0  0  0
   22.8324   47.0470   41.9826 C   0  0  0  0  0  0  0  0  0  0  0  0
   22.8846   48.1881   40.9721 C   0  0  0  0  0  0  0  0  0  0  0  0
   24.3212   48.5001   40.5683 C   0  0  0  0  0  0  0  0  0  0  0  0
   24.4153   49.5902   39.6018 N   0  0  0  0  0  0  0  0  0  0  0  0
   25.7099   50.0523   39.1302 C   0  0  0  0  0  0  0  0  0  0  0  0
   25.5990   51.0733   38.0033 C   0  0  0  0  0  0  0  0  0  0  0  0
   24.9000   50.4493   36.8006 C   0  0  0  0  0  0  0  0  0  0  0  0
   24.7000   51.5022   35.7159 C   0  0  0  0  0  0  0  0  0  0  0  0
   23.9258   52.6358   36.1914 N   0  0  0  0  0  0  0  0  0  0  0  0
   23.1037   53.3862   35.2514 C   0  0  0  0  0  0  0  0  0  0  0  0
   22.9554   54.8709   35.5770 C   0  0  0  0  0  0  0  0  0  0  0  0
   24.2960   55.5926   35.4297 C   0  0  0  0  0  0  0  0  0  0  0  0
   24.1327   57.0135   35.6857 N   0  0  0  0  0  0  0  0  0  0  0  0
  1  2  1  0  0  0  0
  2  3  1  0  0  0  0
  3  4  1  0  0  0  0
  4  5  1  0  0  0  0
  5  6  1  0  0  0  0
  6  7  1  0  0  0  0
  7  8  1  0  0  0  0
  8  9  1  0  0  0  0
  9 10  1  0  0  0  0
 10 11  1  0  0  0  0
 11 12  1  0  0  0  0
 12 13  1  0  0  0  0
 13 14  1  0  0  0  0
M  END
>  <CHROM.1>
178.80828235,-179.91401791,178.23639628,172.91289936,-61.33617581,175.86569994
-58.11097560,-150.71554217,-148.51588031,66.63463864,177.56998912,23.94546948
51.19160229,38.09174007,1.67280228,-0.45125653,2.50398630

>  <Name>
ligand

>  <RI>
0

>  <Rbt.Current_Directory>
/home/itssahil/PROJECTS/Mol_Feturizer/New_Systems/rnas/4P5J

>  <Rbt.Executable>
rbdock ($Id: //depot/dev/client3/rdock/2013.1/src/exe/rbdock.cxx#4 $)

>  <Rbt.Library>
libRbt.so (2013.1, Build901 2013/11/27)

>  <Rbt.Parameter_File>
/export/apps/rDock/src/rDock_2013.1_src/data/scripts/dock_solv.prm

>  <Rbt.Receptor>
prm/pocket_docking_8.prm

>  <SCORE>
-6.58333

>  <SCORE.INTER>
2.69547

>  <SCORE.INTER.CONST>
1

>  <SCORE.INTER.POLAR>
0

>  <SCORE.INTER.ROT>
11

>  <SCORE.INTER.SOLV>
8.45524

>  <SCORE.INTER.VDW>
-11.9548

>  <SCORE.INTER.norm>
0.192533

>  <SCORE.INTRA>
-9.2788

>  <SCORE.INTRA.DIHEDRAL>
-15.9715

>  <SCORE.INTRA.DIHEDRAL.0>
17.5233

>  <SCORE.INTRA.POLAR>
0

>  <SCORE.INTRA.POLAR.0>
0

>  <SCORE.INTRA.REPUL>
0

>  <SCORE.INTRA.REPUL.0>
0

>  <SCORE.INTRA.SOLV>
-1.55368

>  <SCORE.INTRA.SOLV.lig_0>
-46.1043

>  <SCORE.INTRA.VDW>
-0.516185

>  <SCORE.INTRA.VDW.0>
-0.545445

>  <SCORE.INTRA.norm>
-0.662771

>  <SCORE.RESTR>
0

>  <SCORE.RESTR.CAVITY>
0

>  <SCORE.RESTR.norm>
0

>  <SCORE.SYSTEM>
0

>  <SCORE.SYSTEM.CONST>
0

>  <SCORE.SYSTEM.DIHEDRAL>
0

>  <SCORE.SYSTEM.SOLV>
0

>  <SCORE.SYSTEM.norm>
0

>  <SCORE.heavy>
14

>  <SCORE.norm>
-0.470238

>  <RMSD>
7.771

$$$$
ligand
 OpenBabel11021811513D
libRbt.so/2013.1/901 2013/11/27
 14 13  0  0  0  0  0  0  0  0999 V2000
   22.6443   54.5931   40.7014 N   0  0  0  0  0  0  0  0  0  0  0  0
   21.6999   53.5073   40.9088 C   0  0  0  0  0  0  0  0  0  0  0  0
   22.2849   52.1921   40.4049 C   0  0  0  0  0  0  0  0  0  0  0  0
   21.2986   51.0445   40.5901 C   0  0  0  0  0  0  0  0  0  0  0  0
   21.8769   49.7420   40.2734 N   0  0  0  0  0  0  0  0  0  0  0  0
   22.6873   49.0340   41.2500 C   0  0  0  0  0  0  0  0  0  0  0  0
   23.8391   48.2625   40.6152 C   0  0  0  0  0  0  0  0  0  0  0  0
   24.8352   49.2326   39.9899 C   0  0  0  0  0  0  0  0  0  0  0  0
   24.3086   49.7169   38.6433 C   0  0  0  0  0  0  0  0  0  0  0  0
   25.2913   50.5114   37.9266 N   0  0  0  0  0  0  0  0  0  0  0  0
   24.9721   51.0166   36.5978 C   0  0  0  0  0  0  0  0  0  0  0  0
   26.1019   51.7892   35.9203 C   0  0  0  0  0  0  0  0  0  0  0  0
   25.6604   52.2980   34.5470 C   0  0  0  0  0  0  0  0  0  0  0  0
   26.7502   53.0086   33.9000 N   0  0  0  0  0  0  0  0  0  0  0  0
  1  2  1  0  0  0  0
  2  3  1  0  0  0  0
  3  4  1  0  0  0  0
  4  5  1  0  0  0  0
  5  6  1  0  0  0  0
  6  7  1  0  0  0  0
  7  8  1  0  0  0  0
  8  9  1  0  0  0  0
  9 10  1  0  0  0  0
 10 11  1  0  0  0  0
 11 12  1  0  0  0  0
 12 13  1  0  0  0  0
 13 14  1  0  0  0  0
M  END
>  <CHROM.1>
-178.95256321,-172.95187370,81.97276496,-144.21957918,65.86410247,-78.92033784
-172.76908965,177.83248145,-177.62054669,-178.94420856,-178.88179303,23.87493421
51.13886839,38.73370021,2.63288573,-0.90920220,2.74410007

>  <Name>
ligand

>  <RI>
0

>  <Rbt.Current_Directory>
/home/itssahil/PROJECTS/Mol_Feturizer/New_Systems/rnas/4P5J

>  <Rbt.Executable>
rbdock ($Id: //depot/dev/client3/rdock/2013.1/src/exe/rbdock.cxx#4 $)

>  <Rbt.Library>
libRbt.so (2013.1, Build901 2013/11/27)

>  <Rbt.Parameter_File>
/export/apps/rDock/src/rDock_2013.1_src/data/scripts/dock_solv.prm

>  <Rbt.Receptor>
prm/pocket_docking_6.prm

>  <SCORE>
-4.78821

>  <SCORE.INTER>
3.64455

>  <SCORE.INTER.CONST>
1

>  <SCORE.INTER.POLAR>
0

>  <SCORE.INTER.ROT>
11

>  <SCORE.INTER.SOLV>
7.40168

>  <SCORE.INTER.VDW>
-10.9709

>  <SCORE.INTER.norm>
0.260325

>  <SCORE.INTRA>
-8.43276

>  <SCORE.INTRA.DIHEDRAL>
-14.4746

>  <SCORE.INTRA.DIHEDRAL.0>
17.5233

>  <SCORE.INTRA.POLAR>
0

>  <SCORE.INTRA.POLAR.0>
0

>  <SCORE.INTRA.REPUL>
0

>  <SCORE.INTRA.REPUL.0>
0

>  <SCORE.INTRA.SOLV>
-1.45897

>  <SCORE.INTRA.SOLV.lig_0>
-46.1043

>  <SCORE.INTRA.VDW>
-0.465982

>  <SCORE.INTRA.VDW.0>
-0.545445

>  <SCORE.INTRA.norm>
-0.60234

>  <SCORE.RESTR>
0

>  <SCORE.RESTR.CAVITY>
0

>  <SCORE.RESTR.norm>
0

>  <SCORE.SYSTEM>
0

>  <SCORE.SYSTEM.CONST>
0

>  <SCORE.SYSTEM.DIHEDRAL>
0

>  <SCORE.SYSTEM.SOLV>
0

>  <SCORE.SYSTEM.norm>
0

>  <SCORE.heavy>
14

>  <SCORE.norm>
-0.342015

>  <RMSD>
7.779

$$$$
ligand
 OpenBabel11021811513D
libRbt.so/2013.1/901 2013/11/27
 14 13  0  0  0  0  0  0  0  0999 V2000
   26.6806   47.4086   44.1596 N   0  0  0  0  0  0  0  0  0  0  0  0
   25.3740   46.7796   44.0532 C   0  0  0  0  0  0  0  0  0  0  0  0
   24.7127   47.1513   42.7302 C   0  0  0  0  0  0  0  0  0  0  0  0
   23.2920   46.6038   42.6524 C   0  0  0  0  0  0  0  0  0  0  0  0
   22.6460   46.8808   41.3729 N   0  0  0  0  0  0  0  0  0  0  0  0
   21.8868   48.1042   41.1758 C   0  0  0  0  0  0  0  0  0  0  0  0
   22.6913   49.1932   40.4747 C   0  0  0  0  0  0  0  0  0  0  0  0
   21.8136   50.4160   40.2318 C   0  0  0  0  0  0  0  0  0  0  0  0
   22.6447   51.5330   39.6101 C   0  0  0  0  0  0  0  0  0  0  0  0
   23.1843   51.1561   38.3151 N   0  0  0  0  0  0  0  0  0  0  0  0
   24.6115   50.8951   38.1826 C   0  0  0  0  0  0  0  0  0  0  0  0
   25.0498   50.4332   36.7944 C   0  0  0  0  0  0  0  0  0  0  0  0
   24.6347   51.4508   35.7306 C   0  0  0  0  0  0  0  0  0  0  0  0
   25.3285   52.7099   35.9415 N   0  0  0  0  0  0  0  0  0  0  0  0
  1  2  1  0  0  0  0
  2  3  1  0  0  0  0
  3  4  1  0  0  0  0
  4  5  1  0  0  0  0
  5  6  1  0  0  0  0
  6  7  1  0  0  0  0
  7  8  1  0  0  0  0
  8  9  1  0  0  0  0
  9 10  1  0  0  0  0
 10 11  1  0  0  0  0
 11 12  1  0  0  0  0
 12 13  1  0  0  0  0
 13 14  1  0  0  0  0
M  END
>  <CHROM.1>
-174.94888945,-177.12889732,-89.50573162,97.77420480,176.87043508,176.47844018
62.15943043,-108.42141574,176.78844417,56.47545130,64.41329479,23.89622326
49.33675634,40.10182878,-1.56061158,0.02000150,-0.93957907

>  <Name>
ligand

>  <RI>
0

>  <Rbt.Current_Directory>
/home/itssahil/PROJECTS/Mol_Feturizer/New_Systems/rnas/4P5J

>  <Rbt.Executable>
rbdock ($Id: //depot/dev/client3/rdock/2013.1/src/exe/rbdock.cxx#4 $)

>  <Rbt.Library>
libRbt.so (2013.1, Build901 2013/11/27)

>  <Rbt.Parameter_File>
/export/apps/rDock/src/rDock_2013.1_src/data/scripts/dock_solv.prm

>  <Rbt.Receptor>
prm/pocket_docking_8.prm

>  <SCORE>
-5.76782

>  <SCORE.INTER>
2.16358

>  <SCORE.INTER.CONST>
1

>  <SCORE.INTER.POLAR>
0

>  <SCORE.INTER.ROT>
11

>  <SCORE.INTER.SOLV>
8.22756

>  <SCORE.INTER.VDW>
-12.2335

>  <SCORE.INTER.norm>
0.154541

>  <SCORE.INTRA>
-7.9314

>  <SCORE.INTRA.DIHEDRAL>
-14.6459

>  <SCORE.INTRA.DIHEDRAL.0>
17.5233

>  <SCORE.INTRA.POLAR>
0

>  <SCORE.INTRA.POLAR.0>
0

>  <SCORE.INTRA.REPUL>
0

>  <SCORE.INTRA.REPUL.0>
0

>  <SCORE.INTRA.SOLV>
-0.45893

>  <SCORE.INTRA.SOLV.lig_0>
-46.1043

>  <SCORE.INTRA.VDW>
-0.378966

>  <SCORE.INTRA.VDW.0>
-0.545445

>  <SCORE.INTRA.norm>
-0.566529

>  <SCORE.RESTR>
0

>  <SCORE.RESTR.CAVITY>
0

>  <SCORE.RESTR.norm>
0

>  <SCORE.SYSTEM>
0

>  <SCORE.SYSTEM.CONST>
0

>  <SCORE.SYSTEM.DIHEDRAL>
0

>  <SCORE.SYSTEM.SOLV>
0

>  <SCORE.SYSTEM.norm>
0

>  <SCORE.heavy>
14

>  <SCORE.norm>
-0.411987

>  <RMSD>
7.797

$$$$
ligand
 OpenBabel11021811513D
libRbt.so/2013.1/901 2013/11/27
 14 13  0  0  0  0  0  0  0  0999 V2000
   24.2370   58.7013   37.1332 N   0  0  0  0  0  0  0  0  0  0  0  0
   22.9797   58.2730   36.5419 C   0  0  0  0  0  0  0  0  0  0  0  0
   22.6649   56.8369   36.9475 C   0  0  0  0  0  0  0  0  0  0  0  0
   23.6688   55.8618   36.3428 C   0  0  0  0  0  0  0  0  0  0  0  0
   23.3620   54.4679   36.6497 N   0  0  0  0  0  0  0  0  0  0  0  0
   24.3492   53.4254   36.4250 C   0  0  0  0  0  0  0  0  0  0  0  0
   23.7200   52.0755   36.0984 C   0  0  0  0  0  0  0  0  0  0  0  0
   24.8087   51.0269   35.8988 C   0  0  0  0  0  0  0  0  0  0  0  0
   25.3613   50.5922   37.2518 C   0  0  0  0  0  0  0  0  0  0  0  0
   24.3598   49.9176   38.0595 N   0  0  0  0  0  0  0  0  0  0  0  0
   24.6677   49.5729   39.4412 C   0  0  0  0  0  0  0  0  0  0  0  0
   23.6029   48.7315   40.1417 C   0  0  0  0  0  0  0  0  0  0  0  0
   24.0283   48.4057   41.5744 C   0  0  0  0  0  0  0  0  0  0  0  0
   22.9837   47.6557   42.2507 N   0  0  0  0  0  0  0  0  0  0  0  0
  1  2  1  0  0  0  0
  2  3  1  0  0  0  0
  3  4  1  0  0  0  0
  4  5  1  0  0  0  0
  5  6  1  0  0  0  0
  6  7  1  0  0  0  0
  7  8  1  0  0  0  0
  8  9  1  0  0  0  0
  9 10  1  0  0  0  0
 10 11  1  0  0  0  0
 11 12  1  0  0  0  0
 12 13  1  0  0  0  0
 13 14  1  0  0  0  0
M  END
>  <CHROM.1>
-66.75018616,-176.98544032,-166.04698585,-150.36887808,-179.04297111,76.70903829
64.67796404,-172.88118489,-173.48783611,179.11613748,177.49824633,23.91394079
52.53881787,37.91092110,1.71434516,1.21743569,-0.55446716

>  <Name>
ligand

>  <RI>
0

>  <Rbt.Current_Directory>
/home/itssahil/PROJECTS/Mol_Feturizer/New_Systems/rnas/4P5J

>  <Rbt.Executable>
rbdock ($Id: //depot/dev/client3/rdock/2013.1/src/exe/rbdock.cxx#4 $)

>  <Rbt.Library>
libRbt.so (2013.1, Build901 2013/11/27)

>  <Rbt.Parameter_File>
/export/apps/rDock/src/rDock_2013.1_src/data/scripts/dock_solv.prm

>  <Rbt.Receptor>
prm/pocket_docking_8.prm

>  <SCORE>
-4.5527

>  <SCORE.INTER>
3.83825

>  <SCORE.INTER.CONST>
1

>  <SCORE.INTER.POLAR>
0

>  <SCORE.INTER.ROT>
11

>  <SCORE.INTER.SOLV>
7.11176

>  <SCORE.INTER.VDW>
-10.7451

>  <SCORE.INTER.norm>
0.274161

>  <SCORE.INTRA>
-8.39095

>  <SCORE.INTRA.DIHEDRAL>
-15.2904

>  <SCORE.INTRA.DIHEDRAL.0>
17.5233

>  <SCORE.INTRA.POLAR>
0

>  <SCORE.INTRA.POLAR.0>
0

>  <SCORE.INTRA.REPUL>
0

>  <SCORE.INTRA.REPUL.0>
0

>  <SCORE.INTRA.SOLV>
-1.30496

>  <SCORE.INTRA.SOLV.lig_0>
-46.1043

>  <SCORE.INTRA.VDW>
-0.0932893

>  <SCORE.INTRA.VDW.0>
-0.545445

>  <SCORE.INTRA.norm>
-0.599354

>  <SCORE.RESTR>
0

>  <SCORE.RESTR.CAVITY>
0

>  <SCORE.RESTR.norm>
0

>  <SCORE.SYSTEM>
0

>  <SCORE.SYSTEM.CONST>
0

>  <SCORE.SYSTEM.DIHEDRAL>
0

>  <SCORE.SYSTEM.SOLV>
0

>  <SCORE.SYSTEM.norm>
0

>  <SCORE.heavy>
14

>  <SCORE.norm>
-0.325193

>  <RMSD>
7.802

$$$$
ligand
 OpenBabel11021811513D
libRbt.so/2013.1/901 2013/11/27
 14 13  0  0  0  0  0  0  0  0999 V2000
   23.8766   54.1323   33.8387 N   0  0  0  0  0  0  0  0  0  0  0  0
   23.1319   53.6736   35.0003 C   0  0  0  0  0  0  0  0  0  0  0  0
   23.8238   52.4706   35.6325 C   0  0  0  0  0  0  0  0  0  0  0  0
   23.1404   52.0637   36.9332 C   0  0  0  0  0  0  0  0  0  0  0  0
   23.8462   50.9963   37.6357 N   0  0  0  0  0  0  0  0  0  0  0  0
   23.6164   50.7630   39.0516 C   0  0  0  0  0  0  0  0  0  0  0  0
   23.8031   49.3027   39.4485 C   0  0  0  0  0  0  0  0  0  0  0  0
   23.5326   49.1282   40.9387 C   0  0  0  0  0  0  0  0  0  0  0  0
   23.6181   47.6517   41.3097 C   0  0  0  0  0  0  0  0  0  0  0  0
   23.4120   47.4331   42.7311 N   0  0  0  0  0  0  0  0  0  0  0  0
   23.5037   46.0819   43.2683 C   0  0  0  0  0  0  0  0  0  0  0  0
   24.3046   45.9628   44.5632 C   0  0  0  0  0  0  0  0  0  0  0  0
   25.7736   46.3156   44.3240 C   0  0  0  0  0  0  0  0  0  0  0  0
   26.5192   46.2344   45.5684 N   0  0  0  0  0  0  0  0  0  0  0  0
  1  2  1  0  0  0  0
  2  3  1  0  0  0  0
  3  4  1  0  0  0  0
  4  5  1  0  0  0  0
  5  6  1  0  0  0  0
  6  7  1  0  0  0  0
  7  8  1  0  0  0  0
  8  9  1  0  0  0  0
  9 10  1  0  0  0  0
 10 11  1  0  0  0  0
 11 12  1  0  0  0  0
 12 13  1  0  0  0  0
 13 14  1  0  0  0  0
M  END
>  <CHROM.1>
174.12266218,-174.56109626,160.40172170,150.04329292,-179.39135835,175.77838487
178.07320749,-177.99703746,135.20924289,-65.03317436,178.45800648,23.99284270
49.44346528,40.01745145,-1.69310931,0.31364860,2.25881712

>  <Name>
ligand

>  <RI>
0

>  <Rbt.Current_Directory>
/home/itssahil/PROJECTS/Mol_Feturizer/New_Systems/rnas/4P5J

>  <Rbt.Executable>
rbdock ($Id: //depot/dev/client3/rdock/2013.1/src/exe/rbdock.cxx#4 $)

>  <Rbt.Library>
libRbt.so (2013.1, Build901 2013/11/27)

>  <Rbt.Parameter_File>
/export/apps/rDock/src/rDock_2013.1_src/data/scripts/dock_solv.prm

>  <Rbt.Receptor>
prm/pocket_docking_8.prm

>  <SCORE>
-6.23671

>  <SCORE.INTER>
3.33114

>  <SCORE.INTER.CONST>
1

>  <SCORE.INTER.POLAR>
0

>  <SCORE.INTER.ROT>
11

>  <SCORE.INTER.SOLV>
7.56135

>  <SCORE.INTER.VDW>
-11.233

>  <SCORE.INTER.norm>
0.237939

>  <SCORE.INTRA>
-9.56785

>  <SCORE.INTRA.DIHEDRAL>
-15.1776

>  <SCORE.INTRA.DIHEDRAL.0>
17.5233

>  <SCORE.INTRA.POLAR>
0

>  <SCORE.INTRA.POLAR.0>
0

>  <SCORE.INTRA.REPUL>
0

>  <SCORE.INTRA.REPUL.0>
0

>  <SCORE.INTRA.SOLV>
-2.39384

>  <SCORE.INTRA.SOLV.lig_0>
-46.1043

>  <SCORE.INTRA.VDW>
-0.782115

>  <SCORE.INTRA.VDW.0>
-0.545445

>  <SCORE.INTRA.norm>
-0.683418

>  <SCORE.RESTR>
0

>  <SCORE.RESTR.CAVITY>
0

>  <SCORE.RESTR.norm>
0

>  <SCORE.SYSTEM>
0

>  <SCORE.SYSTEM.CONST>
0

>  <SCORE.SYSTEM.DIHEDRAL>
0

>  <SCORE.SYSTEM.SOLV>
0

>  <SCORE.SYSTEM.norm>
0

>  <SCORE.heavy>
14

>  <SCORE.norm>
-0.445479

>  <RMSD>
7.855

$$$$
ligand
 OpenBabel11021811513D
libRbt.so/2013.1/901 2013/11/27
 14 13  0  0  0  0  0  0  0  0999 V2000
   24.3304   53.5370   34.1567 N   0  0  0  0  0  0  0  0  0  0  0  0
   23.3404   53.4236   35.2155 C   0  0  0  0  0  0  0  0  0  0  0  0
   23.7311   52.3180   36.1906 C   0  0  0  0  0  0  0  0  0  0  0  0
   22.7593   52.2499   37.3633 C   0  0  0  0  0  0  0  0  0  0  0  0
   23.1405   51.2533   38.3596 N   0  0  0  0  0  0  0  0  0  0  0  0
   22.4125   51.1421   39.6124 C   0  0  0  0  0  0  0  0  0  0  0  0
   23.0363   50.1343   40.5716 C   0  0  0  0  0  0  0  0  0  0  0  0
   22.9501   48.7307   39.9826 C   0  0  0  0  0  0  0  0  0  0  0  0
   23.7412   47.7573   40.8495 C   0  0  0  0  0  0  0  0  0  0  0  0
   23.1866   47.6428   42.1873 N   0  0  0  0  0  0  0  0  0  0  0  0
   23.6634   46.5882   43.0722 C   0  0  0  0  0  0  0  0  0  0  0  0
   25.1077   46.7523   43.5407 C   0  0  0  0  0  0  0  0  0  0  0  0
   25.2601   48.0161   44.3888 C   0  0  0  0  0  0  0  0  0  0  0  0
   26.6379   48.1654   44.8253 N   0  0  0  0  0  0  0  0  0  0  0  0
  1  2  1  0  0  0  0
  2  3  1  0  0  0  0
  3  4  1  0  0  0  0
  4  5  1  0  0  0  0
  5  6  1  0  0  0  0
  6  7  1  0  0  0  0
  7  8  1  0  0  0  0
  8  9  1  0  0  0  0
  9 10  1  0  0  0  0
 10 11  1  0  0  0  0
 11 12  1  0  0  0  0
 12 13  1  0  0  0  0
 13 14  1  0  0  0  0
M  END
>  <CHROM.1>
175.89673755,-176.75841253,173.56660941,-174.76476388,-64.91436512,172.23690927
63.50978796,169.11650962,68.30088745,63.72257805,-179.80315610,23.80675776
49.83637499,40.02263059,-1.72790071,0.46823835,2.25188213

>  <Name>
ligand

>  <RI>
0

>  <Rbt.Current_Directory>
/home/itssahil/PROJECTS/Mol_Feturizer/New_Systems/rnas/4P5J

>  <Rbt.Executable>
rbdock ($Id: //depot/dev/client3/rdock/2013.1/src/exe/rbdock.cxx#4 $)

>  <Rbt.Library>
libRbt.so (2013.1, Build901 2013/11/27)

>  <Rbt.Parameter_File>
/export/apps/rDock/src/rDock_2013.1_src/data/scripts/dock_solv.prm

>  <Rbt.Receptor>
prm/pocket_docking_8.prm

>  <SCORE>
-6.09041

>  <SCORE.INTER>
3.38778

>  <SCORE.INTER.CONST>
1

>  <SCORE.INTER.POLAR>
0

>  <SCORE.INTER.ROT>
11

>  <SCORE.INTER.SOLV>
6.88919

>  <SCORE.INTER.VDW>
-10.9712

>  <SCORE.INTER.norm>
0.241984

>  <SCORE.INTRA>
-9.47819

>  <SCORE.INTRA.DIHEDRAL>
-16.7744

>  <SCORE.INTRA.DIHEDRAL.0>
17.5233

>  <SCORE.INTRA.POLAR>
0

>  <SCORE.INTRA.POLAR.0>
0

>  <SCORE.INTRA.REPUL>
0

>  <SCORE.INTRA.REPUL.0>
0

>  <SCORE.INTRA.SOLV>
-1.58188

>  <SCORE.INTRA.SOLV.lig_0>
-46.1043

>  <SCORE.INTRA.VDW>
-0.300069

>  <SCORE.INTRA.VDW.0>
-0.545445

>  <SCORE.INTRA.norm>
-0.677014

>  <SCORE.RESTR>
0

>  <SCORE.RESTR.CAVITY>
0

>  <SCORE.RESTR.norm>
0

>  <SCORE.SYSTEM>
0

>  <SCORE.SYSTEM.CONST>
0

>  <SCORE.SYSTEM.DIHEDRAL>
0

>  <SCORE.SYSTEM.SOLV>
0

>  <SCORE.SYSTEM.norm>
0

>  <SCORE.heavy>
14

>  <SCORE.norm>
-0.435029

>  <RMSD>
7.919

$$$$
ligand
 OpenBabel11021811513D
libRbt.so/2013.1/901 2013/11/27
 14 13  0  0  0  0  0  0  0  0999 V2000
   24.4441   56.8033   36.4000 N   0  0  0  0  0  0  0  0  0  0  0  0
   24.3794   55.6049   35.5793 C   0  0  0  0  0  0  0  0  0  0  0  0
   22.9619   55.0424   35.5729 C   0  0  0  0  0  0  0  0  0  0  0  0
   22.8718   53.7878   34.7115 C   0  0  0  0  0  0  0  0  0  0  0  0
   23.6721   52.6832   35.2316 N   0  0  0  0  0  0  0  0  0  0  0  0
   23.2939   52.0097   36.4625 C   0  0  0  0  0  0  0  0  0  0  0  0
   24.4259   51.1757   37.0524 C   0  0  0  0  0  0  0  0  0  0  0  0
   24.0468   50.6945   38.4485 C   0  0  0  0  0  0  0  0  0  0  0  0
   25.1780   49.8532   39.0297 C   0  0  0  0  0  0  0  0  0  0  0  0
   24.8470   49.3249   40.3419 N   0  0  0  0  0  0  0  0  0  0  0  0
   23.8779   48.2429   40.4545 C   0  0  0  0  0  0  0  0  0  0  0  0
   23.5437   47.8317   41.8868 C   0  0  0  0  0  0  0  0  0  0  0  0
   22.5350   46.6818   41.8971 C   0  0  0  0  0  0  0  0  0  0  0  0
   22.0979   46.4088   43.2556 N   0  0  0  0  0  0  0  0  0  0  0  0
  1  2  1  0  0  0  0
  2  3  1  0  0  0  0
  3  4  1  0  0  0  0
  4  5  1  0  0  0  0
  5  6  1  0  0  0  0
  6  7  1  0  0  0  0
  7  8  1  0  0  0  0
  8  9  1  0  0  0  0
  9 10  1  0  0  0  0
 10 11  1  0  0  0  0
 11 12  1  0  0  0  0
 12 13  1  0  0  0  0
 13 14  1  0  0  0  0
M  END
>  <CHROM.1>
179.73149220,64.31305413,69.30572740,-163.66744062,170.39311822,179.61282821
-177.77808632,72.77629006,-176.24423989,-179.29068101,-172.94691922,23.72680514
51.15314305,38.30867790,-1.45708806,1.06349104,2.34279415

>  <Name>
ligand

>  <RI>
0

>  <Rbt.Current_Directory>
/home/itssahil/PROJECTS/Mol_Feturizer/New_Systems/rnas/4P5J

>  <Rbt.Executable>
rbdock ($Id: //depot/dev/client3/rdock/2013.1/src/exe/rbdock.cxx#4 $)

>  <Rbt.Library>
libRbt.so (2013.1, Build901 2013/11/27)

>  <Rbt.Parameter_File>
/export/apps/rDock/src/rDock_2013.1_src/data/scripts/dock_solv.prm

>  <Rbt.Receptor>
prm/pocket_docking_8.prm

>  <SCORE>
-7.18036

>  <SCORE.INTER>
2.39211

>  <SCORE.INTER.CONST>
1

>  <SCORE.INTER.POLAR>
0

>  <SCORE.INTER.ROT>
11

>  <SCORE.INTER.SOLV>
8.21701

>  <SCORE.INTER.VDW>
-12.0776

>  <SCORE.INTER.norm>
0.170865

>  <SCORE.INTRA>
-9.57248

>  <SCORE.INTRA.DIHEDRAL>
-16.4867

>  <SCORE.INTRA.DIHEDRAL.0>
17.5233

>  <SCORE.INTRA.POLAR>
0

>  <SCORE.INTRA.POLAR.0>
0

>  <SCORE.INTRA.REPUL>
0

>  <SCORE.INTRA.REPUL.0>
0

>  <SCORE.INTRA.SOLV>
-2.35883

>  <SCORE.INTRA.SOLV.lig_0>
-46.1043

>  <SCORE.INTRA.VDW>
-0.149696

>  <SCORE.INTRA.VDW.0>
-0.545445

>  <SCORE.INTRA.norm>
-0.683748

>  <SCORE.RESTR>
0

>  <SCORE.RESTR.CAVITY>
0

>  <SCORE.RESTR.norm>
0

>  <SCORE.SYSTEM>
0

>  <SCORE.SYSTEM.CONST>
0

>  <SCORE.SYSTEM.DIHEDRAL>
0

>  <SCORE.SYSTEM.SOLV>
0

>  <SCORE.SYSTEM.norm>
0

>  <SCORE.heavy>
14

>  <SCORE.norm>
-0.512883

>  <RMSD>
7.929

$$$$
ligand
 OpenBabel11021811513D
libRbt.so/2013.1/901 2013/11/27
 14 13  0  0  0  0  0  0  0  0999 V2000
   24.8500   52.5331   34.5222 N   0  0  0  0  0  0  0  0  0  0  0  0
   25.5616   51.7052   35.4825 C   0  0  0  0  0  0  0  0  0  0  0  0
   24.5844   51.0883   36.4777 C   0  0  0  0  0  0  0  0  0  0  0  0
   25.3212   50.3084   37.5608 C   0  0  0  0  0  0  0  0  0  0  0  0
   24.4240   49.7481   38.5669 N   0  0  0  0  0  0  0  0  0  0  0  0
   23.5854   50.6155   39.3770 C   0  0  0  0  0  0  0  0  0  0  0  0
   23.0638   49.9282   40.6341 C   0  0  0  0  0  0  0  0  0  0  0  0
   22.2534   48.6935   40.2558 C   0  0  0  0  0  0  0  0  0  0  0  0
   21.5447   48.1431   41.4887 C   0  0  0  0  0  0  0  0  0  0  0  0
   22.4809   47.7640   42.5329 N   0  0  0  0  0  0  0  0  0  0  0  0
   22.9549   46.3882   42.6046 C   0  0  0  0  0  0  0  0  0  0  0  0
   23.9799   46.1227   43.7051 C   0  0  0  0  0  0  0  0  0  0  0  0
   25.2826   46.8728   43.4221 C   0  0  0  0  0  0  0  0  0  0  0  0
   26.2518   46.6109   44.4724 N   0  0  0  0  0  0  0  0  0  0  0  0
  1  2  1  0  0  0  0
  2  3  1  0  0  0  0
  3  4  1  0  0  0  0
  4  5  1  0  0  0  0
  5  6  1  0  0  0  0
  6  7  1  0  0  0  0
  7  8  1  0  0  0  0
  8  9  1  0  0  0  0
  9 10  1  0  0  0  0
 10 11  1  0  0  0  0
 11 12  1  0  0  0  0
 12 13  1  0  0  0  0
 13 14  1  0  0  0  0
M  END
>  <CHROM.1>
-175.38186871,177.57686022,-60.81592408,-161.90580781,-58.86157135,-170.67769862
-59.93263467,-93.17406473,177.50165383,-66.22332897,-179.85075731,24.00970288
49.03723002,40.07878455,-1.47024983,-0.04332744,2.14949906

>  <Name>
ligand

>  <RI>
0

>  <Rbt.Current_Directory>
/home/itssahil/PROJECTS/Mol_Feturizer/New_Systems/rnas/4P5J

>  <Rbt.Executable>
rbdock ($Id: //depot/dev/client3/rdock/2013.1/src/exe/rbdock.cxx#4 $)

>  <Rbt.Library>
libRbt.so (2013.1, Build901 2013/11/27)

>  <Rbt.Parameter_File>
/export/apps/rDock/src/rDock_2013.1_src/data/scripts/dock_solv.prm

>  <Rbt.Receptor>
prm/pocket_docking_8.prm

>  <SCORE>
-5.25106

>  <SCORE.INTER>
3.42888

>  <SCORE.INTER.CONST>
1

>  <SCORE.INTER.POLAR>
0

>  <SCORE.INTER.ROT>
11

>  <SCORE.INTER.SOLV>
8.75033

>  <SCORE.INTER.VDW>
-11.5642

>  <SCORE.INTER.norm>
0.24492

>  <SCORE.INTRA>
-8.67994

>  <SCORE.INTRA.DIHEDRAL>
-15.9586

>  <SCORE.INTRA.DIHEDRAL.0>
17.5233

>  <SCORE.INTRA.POLAR>
0

>  <SCORE.INTRA.POLAR.0>
0

>  <SCORE.INTRA.REPUL>
0

>  <SCORE.INTRA.REPUL.0>
0

>  <SCORE.INTRA.SOLV>
-1.58982

>  <SCORE.INTRA.SOLV.lig_0>
-46.1043

>  <SCORE.INTRA.VDW>
0.0942485

>  <SCORE.INTRA.VDW.0>
-0.545445

>  <SCORE.INTRA.norm>
-0.619995

>  <SCORE.RESTR>
0

>  <SCORE.RESTR.CAVITY>
0

>  <SCORE.RESTR.norm>
0

>  <SCORE.SYSTEM>
0

>  <SCORE.SYSTEM.CONST>
0

>  <SCORE.SYSTEM.DIHEDRAL>
0

>  <SCORE.SYSTEM.SOLV>
0

>  <SCORE.SYSTEM.norm>
0

>  <SCORE.heavy>
14

>  <SCORE.norm>
-0.375075

>  <RMSD>
7.941

$$$$
ligand
 OpenBabel11021811513D
libRbt.so/2013.1/901 2013/11/27
 14 13  0  0  0  0  0  0  0  0999 V2000
   24.7490   57.6749   35.1805 N   0  0  0  0  0  0  0  0  0  0  0  0
   23.4108   57.1082   35.1352 C   0  0  0  0  0  0  0  0  0  0  0  0
   23.3445   55.8371   35.9754 C   0  0  0  0  0  0  0  0  0  0  0  0
   24.2019   54.7318   35.3694 C   0  0  0  0  0  0  0  0  0  0  0  0
   24.2429   53.5281   36.1943 N   0  0  0  0  0  0  0  0  0  0  0  0
   23.1234   52.6016   36.2089 C   0  0  0  0  0  0  0  0  0  0  0  0
   22.8897   51.9776   37.5803 C   0  0  0  0  0  0  0  0  0  0  0  0
   24.0393   51.0388   37.9293 C   0  0  0  0  0  0  0  0  0  0  0  0
   23.8005   50.4177   39.3012 C   0  0  0  0  0  0  0  0  0  0  0  0
   24.8585   49.4947   39.6743 N   0  0  0  0  0  0  0  0  0  0  0  0
   24.7451   48.7390   40.9148 C   0  0  0  0  0  0  0  0  0  0  0  0
   23.6704   47.6540   40.9052 C   0  0  0  0  0  0  0  0  0  0  0  0
   23.7031   46.8500   42.2062 C   0  0  0  0  0  0  0  0  0  0  0  0
   23.3052   47.6876   43.3248 N   0  0  0  0  0  0  0  0  0  0  0  0
  1  2  1  0  0  0  0
  2  3  1  0  0  0  0
  3  4  1  0  0  0  0
  4  5  1  0  0  0  0
  5  6  1  0  0  0  0
  6  7  1  0  0  0  0
  7  8  1  0  0  0  0
  8  9  1  0  0  0  0
  9 10  1  0  0  0  0
 10 11  1  0  0  0  0
 11 12  1  0  0  0  0
 12 13  1  0  0  0  0
 13 14  1  0  0  0  0
M  END
>  <CHROM.1>
-66.53749585,175.86537306,77.37075305,-144.26694894,-68.39845191,-179.99490201
179.04088455,-175.74977029,70.19061980,175.62741279,66.94541929,23.86299434
51.80996424,38.27842854,-1.55539127,1.47618761,2.47490015

>  <Name>
ligand

>  <RI>
0

>  <Rbt.Current_Directory>
/home/itssahil/PROJECTS/Mol_Feturizer/New_Systems/rnas/4P5J

>  <Rbt.Executable>
rbdock ($Id: //depot/dev/client3/rdock/2013.1/src/exe/rbdock.cxx#4 $)

>  <Rbt.Library>
libRbt.so (2013.1, Build901 2013/11/27)

>  <Rbt.Parameter_File>
/export/apps/rDock/src/rDock_2013.1_src/data/scripts/dock_solv.prm

>  <Rbt.Receptor>
prm/pocket_docking_8.prm

>  <SCORE>
-4.6245

>  <SCORE.INTER>
3.61382

>  <SCORE.INTER.CONST>
1

>  <SCORE.INTER.POLAR>
0

>  <SCORE.INTER.ROT>
11

>  <SCORE.INTER.SOLV>
5.32645

>  <SCORE.INTER.VDW>
-10.2996

>  <SCORE.INTER.norm>
0.25813

>  <SCORE.INTRA>
-8.24261

>  <SCORE.INTRA.DIHEDRAL>
-15.673

>  <SCORE.INTRA.DIHEDRAL.0>
17.5233

>  <SCORE.INTRA.POLAR>
0

>  <SCORE.INTRA.POLAR.0>
0

>  <SCORE.INTRA.REPUL>
0

>  <SCORE.INTRA.REPUL.0>
0

>  <SCORE.INTRA.SOLV>
-0.842348

>  <SCORE.INTRA.SOLV.lig_0>
-46.1043

>  <SCORE.INTRA.VDW>
0.0150651

>  <SCORE.INTRA.VDW.0>
-0.545445

>  <SCORE.INTRA.norm>
-0.588758

>  <SCORE.RESTR>
0.004298

>  <SCORE.RESTR.CAVITY>
0.004298

>  <SCORE.RESTR.norm>
0.000307

>  <SCORE.SYSTEM>
0

>  <SCORE.SYSTEM.CONST>
0

>  <SCORE.SYSTEM.DIHEDRAL>
0

>  <SCORE.SYSTEM.SOLV>
0

>  <SCORE.SYSTEM.norm>
0

>  <SCORE.heavy>
14

>  <SCORE.norm>
-0.330321

>  <RMSD>
7.942

$$$$
ligand
 OpenBabel11021811513D
libRbt.so/2013.1/901 2013/11/27
 14 13  0  0  0  0  0  0  0  0999 V2000
   20.8753   57.4605   40.5253 N   0  0  0  0  0  0  0  0  0  0  0  0
   21.1203   57.9939   39.1951 C   0  0  0  0  0  0  0  0  0  0  0  0
   22.2287   57.2067   38.5040 C   0  0  0  0  0  0  0  0  0  0  0  0
   22.5307   57.7781   37.1233 C   0  0  0  0  0  0  0  0  0  0  0  0
   23.5229   56.9975   36.3902 N   0  0  0  0  0  0  0  0  0  0  0  0
   23.1262   55.8293   35.6222 C   0  0  0  0  0  0  0  0  0  0  0  0
   23.4984   54.5180   36.3053 C   0  0  0  0  0  0  0  0  0  0  0  0
   23.0157   53.3383   35.4687 C   0  0  0  0  0  0  0  0  0  0  0  0
   23.3677   52.0302   36.1688 C   0  0  0  0  0  0  0  0  0  0  0  0
   24.8031   51.8521   36.3036 N   0  0  0  0  0  0  0  0  0  0  0  0
   25.3156   50.7805   37.1471 C   0  0  0  0  0  0  0  0  0  0  0  0
   26.7613   50.9636   37.6041 C   0  0  0  0  0  0  0  0  0  0  0  0
   27.1852   49.8193   38.5264 C   0  0  0  0  0  0  0  0  0  0  0  0
   28.5450   50.0281   38.9940 N   0  0  0  0  0  0  0  0  0  0  0  0
  1  2  1  0  0  0  0
  2  3  1  0  0  0  0
  3  4  1  0  0  0  0
  4  5  1  0  0  0  0
  5  6  1  0  0  0  0
  6  7  1  0  0  0  0
  7  8  1  0  0  0  0
  8  9  1  0  0  0  0
  9 10  1  0  0  0  0
 10 11  1  0  0  0  0
 11 12  1  0  0  0  0
 12 13  1  0  0  0  0
 13 14  1  0  0  0  0
M  END
>  <CHROM.1>
-178.24148029,-176.06284595,84.56746150,-104.83555280,178.23597898,-178.96209653
-62.97476730,169.41568226,-159.90362189,177.72162109,-177.94094759,23.99240647
54.04255882,37.41959429,-2.80517829,0.92416433,-1.92154678

>  <Name>
ligand

>  <RI>
0

>  <Rbt.Current_Directory>
/home/itssahil/PROJECTS/Mol_Feturizer/New_Systems/rnas/4P5J

>  <Rbt.Executable>
rbdock ($Id: //depot/dev/client3/rdock/2013.1/src/exe/rbdock.cxx#4 $)

>  <Rbt.Library>
libRbt.so (2013.1, Build901 2013/11/27)

>  <Rbt.Parameter_File>
/export/apps/rDock/src/rDock_2013.1_src/data/scripts/dock_solv.prm

>  <Rbt.Receptor>
prm/pocket_docking_8.prm

>  <SCORE>
-6.08971

>  <SCORE.INTER>
3.43007

>  <SCORE.INTER.CONST>
1

>  <SCORE.INTER.POLAR>
0

>  <SCORE.INTER.ROT>
11

>  <SCORE.INTER.SOLV>
6.40742

>  <SCORE.INTER.VDW>
-10.7824

>  <SCORE.INTER.norm>
0.245005

>  <SCORE.INTRA>
-9.51978

>  <SCORE.INTRA.DIHEDRAL>
-15.5232

>  <SCORE.INTRA.DIHEDRAL.0>
17.5233

>  <SCORE.INTRA.POLAR>
0

>  <SCORE.INTRA.POLAR.0>
0

>  <SCORE.INTRA.REPUL>
0

>  <SCORE.INTRA.REPUL.0>
0

>  <SCORE.INTRA.SOLV>
-2.31679

>  <SCORE.INTRA.SOLV.lig_0>
-46.1043

>  <SCORE.INTRA.VDW>
-0.599799

>  <SCORE.INTRA.VDW.0>
-0.545445

>  <SCORE.INTRA.norm>
-0.679984

>  <SCORE.RESTR>
0

>  <SCORE.RESTR.CAVITY>
0

>  <SCORE.RESTR.norm>
0

>  <SCORE.SYSTEM>
0

>  <SCORE.SYSTEM.CONST>
0

>  <SCORE.SYSTEM.DIHEDRAL>
0

>  <SCORE.SYSTEM.SOLV>
0

>  <SCORE.SYSTEM.norm>
0

>  <SCORE.heavy>
14

>  <SCORE.norm>
-0.43498

>  <RMSD>
7.958

$$$$
ligand
 OpenBabel11021811513D
libRbt.so/2013.1/901 2013/11/27
 14 13  0  0  0  0  0  0  0  0999 V2000
   25.3066   53.1971   35.1353 N   0  0  0  0  0  0  0  0  0  0  0  0
   25.6372   51.8165   35.4492 C   0  0  0  0  0  0  0  0  0  0  0  0
   25.3100   51.5111   36.9071 C   0  0  0  0  0  0  0  0  0  0  0  0
   25.7196   50.0899   37.2769 C   0  0  0  0  0  0  0  0  0  0  0  0
   25.3808   49.7413   38.6534 N   0  0  0  0  0  0  0  0  0  0  0  0
   23.9945   49.5697   39.0543 C   0  0  0  0  0  0  0  0  0  0  0  0
   23.8423   48.7108   40.3048 C   0  0  0  0  0  0  0  0  0  0  0  0
   22.3664   48.4430   40.5776 C   0  0  0  0  0  0  0  0  0  0  0  0
   21.7545   49.6280   41.3168 C   0  0  0  0  0  0  0  0  0  0  0  0
   21.8319   50.8541   40.5414 N   0  0  0  0  0  0  0  0  0  0  0  0
   21.4100   52.1110   41.1454 C   0  0  0  0  0  0  0  0  0  0  0  0
   21.9100   53.3633   40.4284 C   0  0  0  0  0  0  0  0  0  0  0  0
   21.4812   54.6240   41.1811 C   0  0  0  0  0  0  0  0  0  0  0  0
   22.0004   55.8072   40.5165 N   0  0  0  0  0  0  0  0  0  0  0  0
  1  2  1  0  0  0  0
  2  3  1  0  0  0  0
  3  4  1  0  0  0  0
  4  5  1  0  0  0  0
  5  6  1  0  0  0  0
  6  7  1  0  0  0  0
  7  8  1  0  0  0  0
  8  9  1  0  0  0  0
  9 10  1  0  0  0  0
 10 11  1  0  0  0  0
 11 12  1  0  0  0  0
 12 13  1  0  0  0  0
 13 14  1  0  0  0  0
M  END
>  <CHROM.1>
-176.92437692,-177.99767917,69.49317882,157.63397002,-173.68243373,-82.44806558
61.00745240,-174.20293419,162.51913260,-176.82136820,178.04828137,23.42458552
51.39008858,39.17791503,-0.01921047,0.89140488,-0.29731567

>  <Name>
ligand

>  <RI>
0

>  <Rbt.Current_Directory>
/home/itssahil/PROJECTS/Mol_Feturizer/New_Systems/rnas/4P5J

>  <Rbt.Executable>
rbdock ($Id: //depot/dev/client3/rdock/2013.1/src/exe/rbdock.cxx#4 $)

>  <Rbt.Library>
libRbt.so (2013.1, Build901 2013/11/27)

>  <Rbt.Parameter_File>
/export/apps/rDock/src/rDock_2013.1_src/data/scripts/dock_solv.prm

>  <Rbt.Receptor>
prm/pocket_docking_6.prm

>  <SCORE>
-4.7294

>  <SCORE.INTER>
3.33649

>  <SCORE.INTER.CONST>
1

>  <SCORE.INTER.POLAR>
0

>  <SCORE.INTER.ROT>
11

>  <SCORE.INTER.SOLV>
7.95569

>  <SCORE.INTER.VDW>
-11.3609

>  <SCORE.INTER.norm>
0.238321

>  <SCORE.INTRA>
-8.06589

>  <SCORE.INTRA.DIHEDRAL>
-14.6843

>  <SCORE.INTRA.DIHEDRAL.0>
17.5233

>  <SCORE.INTRA.POLAR>
0

>  <SCORE.INTRA.POLAR.0>
0

>  <SCORE.INTRA.REPUL>
0

>  <SCORE.INTRA.REPUL.0>
0

>  <SCORE.INTRA.SOLV>
-1.57055

>  <SCORE.INTRA.SOLV.lig_0>
-46.1043

>  <SCORE.INTRA.VDW>
0.0615348

>  <SCORE.INTRA.VDW.0>
-0.545445

>  <SCORE.INTRA.norm>
-0.576135

>  <SCORE.RESTR>
0

>  <SCORE.RESTR.CAVITY>
0

>  <SCORE.RESTR.norm>
0

>  <SCORE.SYSTEM>
0

>  <SCORE.SYSTEM.CONST>
0

>  <SCORE.SYSTEM.DIHEDRAL>
0

>  <SCORE.SYSTEM.SOLV>
0

>  <SCORE.SYSTEM.norm>
0

>  <SCORE.heavy>
14

>  <SCORE.norm>
-0.337814

>  <RMSD>
7.985

$$$$
ligand
 OpenBabel11021811513D
libRbt.so/2013.1/901 2013/11/27
 14 13  0  0  0  0  0  0  0  0999 V2000
   23.4964   47.4616   42.8957 N   0  0  0  0  0  0  0  0  0  0  0  0
   23.4320   46.9821   41.5246 C   0  0  0  0  0  0  0  0  0  0  0  0
   23.2703   48.1527   40.5605 C   0  0  0  0  0  0  0  0  0  0  0  0
   24.5104   49.0394   40.5589 C   0  0  0  0  0  0  0  0  0  0  0  0
   24.3375   50.2561   39.7709 N   0  0  0  0  0  0  0  0  0  0  0  0
   24.4201   50.2174   38.3206 C   0  0  0  0  0  0  0  0  0  0  0  0
   24.2274   51.5877   37.6803 C   0  0  0  0  0  0  0  0  0  0  0  0
   24.2859   51.4671   36.1616 C   0  0  0  0  0  0  0  0  0  0  0  0
   24.3018   52.8564   35.5334 C   0  0  0  0  0  0  0  0  0  0  0  0
   24.3686   52.7992   34.0833 N   0  0  0  0  0  0  0  0  0  0  0  0
   25.5199   52.1762   33.4436 C   0  0  0  0  0  0  0  0  0  0  0  0
   26.8642   52.8133   33.7886 C   0  0  0  0  0  0  0  0  0  0  0  0
   28.0030   52.1017   33.0560 C   0  0  0  0  0  0  0  0  0  0  0  0
   29.2772   52.7130   33.3933 N   0  0  0  0  0  0  0  0  0  0  0  0
  1  2  1  0  0  0  0
  2  3  1  0  0  0  0
  3  4  1  0  0  0  0
  4  5  1  0  0  0  0
  5  6  1  0  0  0  0
  6  7  1  0  0  0  0
  7  8  1  0  0  0  0
  8  9  1  0  0  0  0
  9 10  1  0  0  0  0
 10 11  1  0  0  0  0
 11 12  1  0  0  0  0
 12 13  1  0  0  0  0
 13 14  1  0  0  0  0
M  END
>  <CHROM.1>
66.24219111,-173.19052286,-77.87617161,-179.39757515,-178.37456447,-171.60847521
179.51890994,-61.49761376,-59.04889811,-179.26764238,-179.86533088,25.02232844
50.75884362,37.19781969,-1.92298131,0.25564134,-0.95064312

>  <Name>
ligand

>  <RI>
0

>  <Rbt.Current_Directory>
/home/itssahil/PROJECTS/Mol_Feturizer/New_Systems/rnas/4P5J

>  <Rbt.Executable>
rbdock ($Id: //depot/dev/client3/rdock/2013.1/src/exe/rbdock.cxx#4 $)

>  <Rbt.Library>
libRbt.so (2013.1, Build901 2013/11/27)

>  <Rbt.Parameter_File>
/export/apps/rDock/src/rDock_2013.1_src/data/scripts/dock_solv.prm

>  <Rbt.Receptor>
prm/pocket_docking_7.prm

>  <SCORE>
-5.05317

>  <SCORE.INTER>
3.53557

>  <SCORE.INTER.CONST>
1

>  <SCORE.INTER.POLAR>
0

>  <SCORE.INTER.ROT>
11

>  <SCORE.INTER.SOLV>
5.9136

>  <SCORE.INTER.VDW>
-10.5475

>  <SCORE.INTER.norm>
0.252541

>  <SCORE.INTRA>
-8.58875

>  <SCORE.INTRA.DIHEDRAL>
-16.6529

>  <SCORE.INTRA.DIHEDRAL.0>
17.5233

>  <SCORE.INTRA.POLAR>
0

>  <SCORE.INTRA.POLAR.0>
0

>  <SCORE.INTRA.REPUL>
0

>  <SCORE.INTRA.REPUL.0>
0

>  <SCORE.INTRA.SOLV>
-1.91577

>  <SCORE.INTRA.SOLV.lig_0>
-46.1043

>  <SCORE.INTRA.VDW>
0.695591

>  <SCORE.INTRA.VDW.0>
-0.545445

>  <SCORE.INTRA.norm>
-0.613482

>  <SCORE.RESTR>
0

>  <SCORE.RESTR.CAVITY>
0

>  <SCORE.RESTR.norm>
0

>  <SCORE.SYSTEM>
0

>  <SCORE.SYSTEM.CONST>
0

>  <SCORE.SYSTEM.DIHEDRAL>
0

>  <SCORE.SYSTEM.SOLV>
0

>  <SCORE.SYSTEM.norm>
0

>  <SCORE.heavy>
14

>  <SCORE.norm>
-0.360941

>  <RMSD>
7.986

$$$$
ligand
 OpenBabel11021811513D
libRbt.so/2013.1/901 2013/11/27
 14 13  0  0  0  0  0  0  0  0999 V2000
   23.8118   57.7651   35.4739 N   0  0  0  0  0  0  0  0  0  0  0  0
   23.5275   56.4614   34.8963 C   0  0  0  0  0  0  0  0  0  0  0  0
   23.0576   55.4936   35.9772 C   0  0  0  0  0  0  0  0  0  0  0  0
   22.7526   54.1198   35.3907 C   0  0  0  0  0  0  0  0  0  0  0  0
   23.9299   53.4716   34.8206 N   0  0  0  0  0  0  0  0  0  0  0  0
   24.1821   52.0590   35.0505 C   0  0  0  0  0  0  0  0  0  0  0  0
   24.5605   51.7532   36.4955 C   0  0  0  0  0  0  0  0  0  0  0  0
   25.1327   50.3437   36.5981 C   0  0  0  0  0  0  0  0  0  0  0  0
   25.4611   50.0242   38.0524 C   0  0  0  0  0  0  0  0  0  0  0  0
   24.2665   49.7691   38.8387 N   0  0  0  0  0  0  0  0  0  0  0  0
   24.3944   49.1784   40.1643 C   0  0  0  0  0  0  0  0  0  0  0  0
   23.1086   48.5678   40.7179 C   0  0  0  0  0  0  0  0  0  0  0  0
   23.3549   47.9458   42.0935 C   0  0  0  0  0  0  0  0  0  0  0  0
   22.1112   47.4339   42.6435 N   0  0  0  0  0  0  0  0  0  0  0  0
  1  2  1  0  0  0  0
  2  3  1  0  0  0  0
  3  4  1  0  0  0  0
  4  5  1  0  0  0  0
  5  6  1  0  0  0  0
  6  7  1  0  0  0  0
  7  8  1  0  0  0  0
  8  9  1  0  0  0  0
  9 10  1  0  0  0  0
 10 11  1  0  0  0  0
 11 12  1  0  0  0  0
 12 13  1  0  0  0  0
 13 14  1  0  0  0  0
M  END
>  <CHROM.1>
179.94060004,63.46446061,137.25565883,-69.42349129,-166.36240393,-177.91271218
74.21642675,167.20144503,-162.19499350,178.59334160,176.84778559,23.83236883
51.74174603,37.65795452,1.53558362,0.98106239,-0.65697677

>  <Name>
ligand

>  <RI>
0

>  <Rbt.Current_Directory>
/home/itssahil/PROJECTS/Mol_Feturizer/New_Systems/rnas/4P5J

>  <Rbt.Executable>
rbdock ($Id: //depot/dev/client3/rdock/2013.1/src/exe/rbdock.cxx#4 $)

>  <Rbt.Library>
libRbt.so (2013.1, Build901 2013/11/27)

>  <Rbt.Parameter_File>
/export/apps/rDock/src/rDock_2013.1_src/data/scripts/dock_solv.prm

>  <Rbt.Receptor>
prm/pocket_docking_8.prm

>  <SCORE>
-6.69208

>  <SCORE.INTER>
2.01598

>  <SCORE.INTER.CONST>
1

>  <SCORE.INTER.POLAR>
0

>  <SCORE.INTER.ROT>
11

>  <SCORE.INTER.SOLV>
8.07882

>  <SCORE.INTER.VDW>
-12.2823

>  <SCORE.INTER.norm>
0.143999

>  <SCORE.INTRA>
-8.70806

>  <SCORE.INTRA.DIHEDRAL>
-14.5955

>  <SCORE.INTRA.DIHEDRAL.0>
17.5233

>  <SCORE.INTRA.POLAR>
0

>  <SCORE.INTRA.POLAR.0>
0

>  <SCORE.INTRA.REPUL>
0

>  <SCORE.INTRA.REPUL.0>
0

>  <SCORE.INTRA.SOLV>
-2.00392

>  <SCORE.INTRA.SOLV.lig_0>
-46.1043

>  <SCORE.INTRA.VDW>
-0.408365

>  <SCORE.INTRA.VDW.0>
-0.545445

>  <SCORE.INTRA.norm>
-0.622004

>  <SCORE.RESTR>
0

>  <SCORE.RESTR.CAVITY>
0

>  <SCORE.RESTR.norm>
0

>  <SCORE.SYSTEM>
0

>  <SCORE.SYSTEM.CONST>
0

>  <SCORE.SYSTEM.DIHEDRAL>
0

>  <SCORE.SYSTEM.SOLV>
0

>  <SCORE.SYSTEM.norm>
0

>  <SCORE.heavy>
14

>  <SCORE.norm>
-0.478006

>  <RMSD>
7.992

$$$$
ligand
 OpenBabel11021811513D
libRbt.so/2013.1/901 2013/11/27
 14 13  0  0  0  0  0  0  0  0999 V2000
   29.6794   52.3147   33.1582 N   0  0  0  0  0  0  0  0  0  0  0  0
   28.3338   52.5965   33.6313 C   0  0  0  0  0  0  0  0  0  0  0  0
   27.3041   51.9050   32.7440 C   0  0  0  0  0  0  0  0  0  0  0  0
   25.8838   52.2505   33.1774 C   0  0  0  0  0  0  0  0  0  0  0  0
   25.5861   51.8220   34.5408 N   0  0  0  0  0  0  0  0  0  0  0  0
   24.2714   52.0470   35.1176 C   0  0  0  0  0  0  0  0  0  0  0  0
   24.2508   51.8665   36.6315 C   0  0  0  0  0  0  0  0  0  0  0  0
   22.8876   52.2648   37.1861 C   0  0  0  0  0  0  0  0  0  0  0  0
   22.9558   52.3581   38.7065 C   0  0  0  0  0  0  0  0  0  0  0  0
   23.1051   51.0532   39.3274 N   0  0  0  0  0  0  0  0  0  0  0  0
   21.9470   50.4143   39.9384 C   0  0  0  0  0  0  0  0  0  0  0  0
   22.2136   49.0245   40.5125 C   0  0  0  0  0  0  0  0  0  0  0  0
   23.1487   49.1091   41.7201 C   0  0  0  0  0  0  0  0  0  0  0  0
   23.2559   47.8114   42.3647 N   0  0  0  0  0  0  0  0  0  0  0  0
  1  2  1  0  0  0  0
  2  3  1  0  0  0  0
  3  4  1  0  0  0  0
  4  5  1  0  0  0  0
  5  6  1  0  0  0  0
  6  7  1  0  0  0  0
  7  8  1  0  0  0  0
  8  9  1  0  0  0  0
  9 10  1  0  0  0  0
 10 11  1  0  0  0  0
 11 12  1  0  0  0  0
 12 13  1  0  0  0  0
 13 14  1  0  0  0  0
M  END
>  <CHROM.1>
-176.87412049,-61.26914192,-178.96175234,-165.31742730,173.79719398,-168.47699765
-69.98829228,-102.23784840,177.82157280,67.39428612,172.51303203,24.62989927
51.20288306,37.05391281,-0.98489759,-0.37306633,2.16130804

>  <Name>
ligand

>  <RI>
0

>  <Rbt.Current_Directory>
/home/itssahil/PROJECTS/Mol_Feturizer/New_Systems/rnas/4P5J

>  <Rbt.Executable>
rbdock ($Id: //depot/dev/client3/rdock/2013.1/src/exe/rbdock.cxx#4 $)

>  <Rbt.Library>
libRbt.so (2013.1, Build901 2013/11/27)

>  <Rbt.Parameter_File>
/export/apps/rDock/src/rDock_2013.1_src/data/scripts/dock_solv.prm

>  <Rbt.Receptor>
prm/pocket_docking_7.prm

>  <SCORE>
-5.30783

>  <SCORE.INTER>
3.6084

>  <SCORE.INTER.CONST>
1

>  <SCORE.INTER.POLAR>
0

>  <SCORE.INTER.ROT>
11

>  <SCORE.INTER.SOLV>
6.72986

>  <SCORE.INTER.VDW>
-10.771

>  <SCORE.INTER.norm>
0.257743

>  <SCORE.INTRA>
-8.91623

>  <SCORE.INTRA.DIHEDRAL>
-14.881

>  <SCORE.INTRA.DIHEDRAL.0>
17.5233

>  <SCORE.INTRA.POLAR>
0

>  <SCORE.INTRA.POLAR.0>
0

>  <SCORE.INTRA.REPUL>
0

>  <SCORE.INTRA.REPUL.0>
0

>  <SCORE.INTRA.SOLV>
-1.71211

>  <SCORE.INTRA.SOLV.lig_0>
-46.1043

>  <SCORE.INTRA.VDW>
-0.619697

>  <SCORE.INTRA.VDW.0>
-0.545445

>  <SCORE.INTRA.norm>
-0.636874

>  <SCORE.RESTR>
0

>  <SCORE.RESTR.CAVITY>
0

>  <SCORE.RESTR.norm>
0

>  <SCORE.SYSTEM>
0

>  <SCORE.SYSTEM.CONST>
0

>  <SCORE.SYSTEM.DIHEDRAL>
0

>  <SCORE.SYSTEM.SOLV>
0

>  <SCORE.SYSTEM.norm>
0

>  <SCORE.heavy>
14

>  <SCORE.norm>
-0.379131

>  <RMSD>
7.995

$$$$
ligand
 OpenBabel11021811513D
libRbt.so/2013.1/901 2013/11/27
 14 13  0  0  0  0  0  0  0  0999 V2000
   20.7001   54.0683   43.1032 N   0  0  0  0  0  0  0  0  0  0  0  0
   20.5935   52.8347   42.3411 C   0  0  0  0  0  0  0  0  0  0  0  0
   21.7231   52.7423   41.3207 C   0  0  0  0  0  0  0  0  0  0  0  0
   21.6430   51.4428   40.5275 C   0  0  0  0  0  0  0  0  0  0  0  0
   22.7573   51.2745   39.5995 N   0  0  0  0  0  0  0  0  0  0  0  0
   22.8261   52.0544   38.3752 C   0  0  0  0  0  0  0  0  0  0  0  0
   23.7995   51.4716   37.3565 C   0  0  0  0  0  0  0  0  0  0  0  0
   23.8020   52.3222   36.0912 C   0  0  0  0  0  0  0  0  0  0  0  0
   24.7918   51.7469   35.0841 C   0  0  0  0  0  0  0  0  0  0  0  0
   24.9248   52.5883   33.9074 N   0  0  0  0  0  0  0  0  0  0  0  0
   25.8880   52.2288   32.8751 C   0  0  0  0  0  0  0  0  0  0  0  0
   27.2786   52.8321   33.0617 C   0  0  0  0  0  0  0  0  0  0  0  0
   27.9561   52.2531   34.3048 C   0  0  0  0  0  0  0  0  0  0  0  0
   29.2802   52.8284   34.4696 N   0  0  0  0  0  0  0  0  0  0  0  0
  1  2  1  0  0  0  0
  2  3  1  0  0  0  0
  3  4  1  0  0  0  0
  4  5  1  0  0  0  0
  5  6  1  0  0  0  0
  6  7  1  0  0  0  0
  7  8  1  0  0  0  0
  8  9  1  0  0  0  0
  9 10  1  0  0  0  0
 10 11  1  0  0  0  0
 11 12  1  0  0  0  0
 12 13  1  0  0  0  0
 13 14  1  0  0  0  0
M  END
>  <CHROM.1>
178.99576149,-176.23437420,-73.89244775,-163.00477068,178.95692953,179.17979180
-174.73980223,176.49223766,-90.56323570,66.63360735,179.72692104,24.14017312
52.33474470,37.31536479,-2.23287843,-0.27239341,-1.80636946

>  <Name>
ligand

>  <RI>
0

>  <Rbt.Current_Directory>
/home/itssahil/PROJECTS/Mol_Feturizer/New_Systems/rnas/4P5J

>  <Rbt.Executable>
rbdock ($Id: //depot/dev/client3/rdock/2013.1/src/exe/rbdock.cxx#4 $)

>  <Rbt.Library>
libRbt.so (2013.1, Build901 2013/11/27)

>  <Rbt.Parameter_File>
/export/apps/rDock/src/rDock_2013.1_src/data/scripts/dock_solv.prm

>  <Rbt.Receptor>
prm/pocket_docking_7.prm

>  <SCORE>
-5.26655

>  <SCORE.INTER>
4.35748

>  <SCORE.INTER.CONST>
1

>  <SCORE.INTER.POLAR>
0

>  <SCORE.INTER.ROT>
11

>  <SCORE.INTER.SOLV>
6.08045

>  <SCORE.INTER.VDW>
-10.0552

>  <SCORE.INTER.norm>
0.311249

>  <SCORE.INTRA>
-9.63599

>  <SCORE.INTRA.DIHEDRAL>
-16.188

>  <SCORE.INTRA.DIHEDRAL.0>
17.5233

>  <SCORE.INTRA.POLAR>
0

>  <SCORE.INTRA.POLAR.0>
0

>  <SCORE.INTRA.REPUL>
0

>  <SCORE.INTRA.REPUL.0>
0

>  <SCORE.INTRA.SOLV>
-2.37543

>  <SCORE.INTRA.SOLV.lig_0>
-46.1043

>  <SCORE.INTRA.VDW>
-0.354279

>  <SCORE.INTRA.VDW.0>
-0.545445

>  <SCORE.INTRA.norm>
-0.688285

>  <SCORE.RESTR>
0.0119658

>  <SCORE.RESTR.CAVITY>
0.0119658

>  <SCORE.RESTR.norm>
0.000854703

>  <SCORE.SYSTEM>
0

>  <SCORE.SYSTEM.CONST>
0

>  <SCORE.SYSTEM.DIHEDRAL>
0

>  <SCORE.SYSTEM.SOLV>
0

>  <SCORE.SYSTEM.norm>
0

>  <SCORE.heavy>
14

>  <SCORE.norm>
-0.376182

>  <RMSD>
8.014

$$$$
ligand
 OpenBabel11021811513D
libRbt.so/2013.1/901 2013/11/27
 14 13  0  0  0  0  0  0  0  0999 V2000
   23.0040   47.0834   43.0985 N   0  0  0  0  0  0  0  0  0  0  0  0
   22.9227   46.7945   41.6759 C   0  0  0  0  0  0  0  0  0  0  0  0
   23.2066   48.0527   40.8621 C   0  0  0  0  0  0  0  0  0  0  0  0
   24.6258   48.5549   41.1028 C   0  0  0  0  0  0  0  0  0  0  0  0
   24.8883   49.8420   40.4659 N   0  0  0  0  0  0  0  0  0  0  0  0
   25.3646   49.9064   39.0944 C   0  0  0  0  0  0  0  0  0  0  0  0
   24.3790   50.5964   38.1578 C   0  0  0  0  0  0  0  0  0  0  0  0
   24.9623   50.6734   36.7512 C   0  0  0  0  0  0  0  0  0  0  0  0
   24.0637   51.5299   35.8657 C   0  0  0  0  0  0  0  0  0  0  0  0
   24.5688   51.6272   34.5071 N   0  0  0  0  0  0  0  0  0  0  0  0
   24.8310   52.9404   33.9330 C   0  0  0  0  0  0  0  0  0  0  0  0
   26.2912   53.1970   33.5666 C   0  0  0  0  0  0  0  0  0  0  0  0
   26.7697   52.1910   32.5183 C   0  0  0  0  0  0  0  0  0  0  0  0
   28.1439   52.4740   32.1406 N   0  0  0  0  0  0  0  0  0  0  0  0
  1  2  1  0  0  0  0
  2  3  1  0  0  0  0
  3  4  1  0  0  0  0
  4  5  1  0  0  0  0
  5  6  1  0  0  0  0
  6  7  1  0  0  0  0
  7  8  1  0  0  0  0
  8  9  1  0  0  0  0
  9 10  1  0  0  0  0
 10 11  1  0  0  0  0
 11 12  1  0  0  0  0
 12 13  1  0  0  0  0
 13 14  1  0  0  0  0
M  END
>  <CHROM.1>
62.96398967,-173.28274414,-88.00558778,116.43304973,177.96804019,-172.21494446
-179.50463789,-123.40882389,117.28201213,60.85091187,177.91125747,24.85857409
50.39027752,37.40993291,-1.84585047,0.05587176,-1.04946080

>  <Name>
ligand

>  <RI>
0

>  <Rbt.Current_Directory>
/home/itssahil/PROJECTS/Mol_Feturizer/New_Systems/rnas/4P5J

>  <Rbt.Executable>
rbdock ($Id: //depot/dev/client3/rdock/2013.1/src/exe/rbdock.cxx#4 $)

>  <Rbt.Library>
libRbt.so (2013.1, Build901 2013/11/27)

>  <Rbt.Parameter_File>
/export/apps/rDock/src/rDock_2013.1_src/data/scripts/dock_solv.prm

>  <Rbt.Receptor>
prm/pocket_docking_7.prm

>  <SCORE>
-4.43824

>  <SCORE.INTER>
3.34843

>  <SCORE.INTER.CONST>
1

>  <SCORE.INTER.POLAR>
0

>  <SCORE.INTER.ROT>
11

>  <SCORE.INTER.SOLV>
8.32191

>  <SCORE.INTER.VDW>
-11.475

>  <SCORE.INTER.norm>
0.239174

>  <SCORE.INTRA>
-7.78667

>  <SCORE.INTRA.DIHEDRAL>
-12.9232

>  <SCORE.INTRA.DIHEDRAL.0>
17.5233

>  <SCORE.INTRA.POLAR>
0

>  <SCORE.INTRA.POLAR.0>
0

>  <SCORE.INTRA.REPUL>
0

>  <SCORE.INTRA.REPUL.0>
0

>  <SCORE.INTRA.SOLV>
-1.52255

>  <SCORE.INTRA.SOLV.lig_0>
-46.1043

>  <SCORE.INTRA.VDW>
-0.563778

>  <SCORE.INTRA.VDW.0>
-0.545445

>  <SCORE.INTRA.norm>
-0.556191

>  <SCORE.RESTR>
0

>  <SCORE.RESTR.CAVITY>
0

>  <SCORE.RESTR.norm>
0

>  <SCORE.SYSTEM>
0

>  <SCORE.SYSTEM.CONST>
0

>  <SCORE.SYSTEM.DIHEDRAL>
0

>  <SCORE.SYSTEM.SOLV>
0

>  <SCORE.SYSTEM.norm>
0

>  <SCORE.heavy>
14

>  <SCORE.norm>
-0.317017

>  <RMSD>
8.078

$$$$
ligand
 OpenBabel11021811513D
libRbt.so/2013.1/901 2013/11/27
 14 13  0  0  0  0  0  0  0  0999 V2000
   24.4437   49.3110   40.3842 N   0  0  0  0  0  0  0  0  0  0  0  0
   25.3484   49.9572   39.4472 C   0  0  0  0  0  0  0  0  0  0  0  0
   24.7245   50.0072   38.0565 C   0  0  0  0  0  0  0  0  0  0  0  0
   25.6137   50.7710   37.0817 C   0  0  0  0  0  0  0  0  0  0  0  0
   25.0281   50.8858   35.7494 N   0  0  0  0  0  0  0  0  0  0  0  0
   23.8732   51.7371   35.5187 C   0  0  0  0  0  0  0  0  0  0  0  0
   24.2528   53.1893   35.2506 C   0  0  0  0  0  0  0  0  0  0  0  0
   23.0158   53.9875   34.8542 C   0  0  0  0  0  0  0  0  0  0  0  0
   23.3940   55.4471   34.6269 C   0  0  0  0  0  0  0  0  0  0  0  0
   23.6979   56.1326   35.8711 N   0  0  0  0  0  0  0  0  0  0  0  0
   22.6078   56.6404   36.6936 C   0  0  0  0  0  0  0  0  0  0  0  0
   23.0278   57.1330   38.0768 C   0  0  0  0  0  0  0  0  0  0  0  0
   21.8060   57.5616   38.8914 C   0  0  0  0  0  0  0  0  0  0  0  0
   22.2204   58.0806   40.1837 N   0  0  0  0  0  0  0  0  0  0  0  0
  1  2  1  0  0  0  0
  2  3  1  0  0  0  0
  3  4  1  0  0  0  0
  4  5  1  0  0  0  0
  5  6  1  0  0  0  0
  6  7  1  0  0  0  0
  7  8  1  0  0  0  0
  8  9  1  0  0  0  0
  9 10  1  0  0  0  0
 10 11  1  0  0  0  0
 11 12  1  0  0  0  0
 12 13  1  0  0  0  0
 13 14  1  0  0  0  0
M  END
>  <CHROM.1>
175.86815228,-177.81691701,70.32719666,85.49541558,173.25552171,178.36096230
-71.77845080,-81.38906440,170.38445581,-176.43392684,-177.62214317,23.78954668
53.63154254,37.19150908,0.21874749,-1.23757395,1.76476140

>  <Name>
ligand

>  <RI>
0

>  <Rbt.Current_Directory>
/home/itssahil/PROJECTS/Mol_Feturizer/New_Systems/rnas/4P5J

>  <Rbt.Executable>
rbdock ($Id: //depot/dev/client3/rdock/2013.1/src/exe/rbdock.cxx#4 $)

>  <Rbt.Library>
libRbt.so (2013.1, Build901 2013/11/27)

>  <Rbt.Parameter_File>
/export/apps/rDock/src/rDock_2013.1_src/data/scripts/dock_solv.prm

>  <Rbt.Receptor>
prm/pocket_docking_8.prm

>  <SCORE>
-5.58345

>  <SCORE.INTER>
3.629

>  <SCORE.INTER.CONST>
1

>  <SCORE.INTER.POLAR>
0

>  <SCORE.INTER.ROT>
11

>  <SCORE.INTER.SOLV>
8.72462

>  <SCORE.INTER.VDW>
-11.4222

>  <SCORE.INTER.norm>
0.259214

>  <SCORE.INTRA>
-9.21245

>  <SCORE.INTRA.DIHEDRAL>
-15.7232

>  <SCORE.INTRA.DIHEDRAL.0>
17.5233

>  <SCORE.INTRA.POLAR>
0

>  <SCORE.INTRA.POLAR.0>
0

>  <SCORE.INTRA.REPUL>
0

>  <SCORE.INTRA.REPUL.0>
0

>  <SCORE.INTRA.SOLV>
-2.35666

>  <SCORE.INTRA.SOLV.lig_0>
-46.1043

>  <SCORE.INTRA.VDW>
-0.172527

>  <SCORE.INTRA.VDW.0>
-0.545445

>  <SCORE.INTRA.norm>
-0.658032

>  <SCORE.RESTR>
0

>  <SCORE.RESTR.CAVITY>
0

>  <SCORE.RESTR.norm>
0

>  <SCORE.SYSTEM>
0

>  <SCORE.SYSTEM.CONST>
0

>  <SCORE.SYSTEM.DIHEDRAL>
0

>  <SCORE.SYSTEM.SOLV>
0

>  <SCORE.SYSTEM.norm>
0

>  <SCORE.heavy>
14

>  <SCORE.norm>
-0.398818

>  <RMSD>
8.086

$$$$
ligand
 OpenBabel11021811513D
libRbt.so/2013.1/901 2013/11/27
 14 13  0  0  0  0  0  0  0  0999 V2000
   23.5096   54.5254   39.7571 N   0  0  0  0  0  0  0  0  0  0  0  0
   22.9466   53.1854   39.7958 C   0  0  0  0  0  0  0  0  0  0  0  0
   21.7967   53.1220   40.7956 C   0  0  0  0  0  0  0  0  0  0  0  0
   21.2202   51.7134   40.8823 C   0  0  0  0  0  0  0  0  0  0  0  0
   22.1428   50.7585   41.4891 N   0  0  0  0  0  0  0  0  0  0  0  0
   21.8191   49.3426   41.5353 C   0  0  0  0  0  0  0  0  0  0  0  0
   22.3295   48.5790   40.3182 C   0  0  0  0  0  0  0  0  0  0  0  0
   23.8516   48.4993   40.3526 C   0  0  0  0  0  0  0  0  0  0  0  0
   24.4481   49.6921   39.6134 C   0  0  0  0  0  0  0  0  0  0  0  0
   24.1589   49.6528   38.1903 N   0  0  0  0  0  0  0  0  0  0  0  0
   25.2022   50.0084   37.2376 C   0  0  0  0  0  0  0  0  0  0  0  0
   25.1462   51.4506   36.7383 C   0  0  0  0  0  0  0  0  0  0  0  0
   23.8419   51.7102   35.9825 C   0  0  0  0  0  0  0  0  0  0  0  0
   23.8427   53.0519   35.4246 N   0  0  0  0  0  0  0  0  0  0  0  0
  1  2  1  0  0  0  0
  2  3  1  0  0  0  0
  3  4  1  0  0  0  0
  4  5  1  0  0  0  0
  5  6  1  0  0  0  0
  6  7  1  0  0  0  0
  7  8  1  0  0  0  0
  8  9  1  0  0  0  0
  9 10  1  0  0  0  0
 10 11  1  0  0  0  0
 11 12  1  0  0  0  0
 12 13  1  0  0  0  0
 13 14  1  0  0  0  0
M  END
>  <CHROM.1>
-178.26260550,68.32884286,-173.88250495,90.69220506,69.48073461,-90.66021283
-66.56606593,-138.38452589,-97.00939653,-62.41164386,-175.66334317,23.30397704
51.09190774,39.15110621,0.65754244,1.02454754,-0.38411775

>  <Name>
ligand

>  <RI>
0

>  <Rbt.Current_Directory>
/home/itssahil/PROJECTS/Mol_Feturizer/New_Systems/rnas/4P5J

>  <Rbt.Executable>
rbdock ($Id: //depot/dev/client3/rdock/2013.1/src/exe/rbdock.cxx#4 $)

>  <Rbt.Library>
libRbt.so (2013.1, Build901 2013/11/27)

>  <Rbt.Parameter_File>
/export/apps/rDock/src/rDock_2013.1_src/data/scripts/dock_solv.prm

>  <Rbt.Receptor>
prm/pocket_docking_7.prm

>  <SCORE>
-4.09229

>  <SCORE.INTER>
2.75007

>  <SCORE.INTER.CONST>
1

>  <SCORE.INTER.POLAR>
0

>  <SCORE.INTER.ROT>
11

>  <SCORE.INTER.SOLV>
9.206

>  <SCORE.INTER.VDW>
-12.1686

>  <SCORE.INTER.norm>
0.196434

>  <SCORE.INTRA>
-6.84237

>  <SCORE.INTRA.DIHEDRAL>
-11.0899

>  <SCORE.INTRA.DIHEDRAL.0>
17.5233

>  <SCORE.INTRA.POLAR>
0

>  <SCORE.INTRA.POLAR.0>
0

>  <SCORE.INTRA.REPUL>
0

>  <SCORE.INTRA.REPUL.0>
0

>  <SCORE.INTRA.SOLV>
-0.0240427

>  <SCORE.INTRA.SOLV.lig_0>
-46.1043

>  <SCORE.INTRA.VDW>
-1.28537

>  <SCORE.INTRA.VDW.0>
-0.545445

>  <SCORE.INTRA.norm>
-0.48874

>  <SCORE.RESTR>
0

>  <SCORE.RESTR.CAVITY>
0

>  <SCORE.RESTR.norm>
0

>  <SCORE.SYSTEM>
0

>  <SCORE.SYSTEM.CONST>
0

>  <SCORE.SYSTEM.DIHEDRAL>
0

>  <SCORE.SYSTEM.SOLV>
0

>  <SCORE.SYSTEM.norm>
0

>  <SCORE.heavy>
14

>  <SCORE.norm>
-0.292307

>  <RMSD>
8.189

$$$$
ligand
 OpenBabel11021811513D
libRbt.so/2013.1/901 2013/11/27
 14 13  0  0  0  0  0  0  0  0999 V2000
   22.2946   49.0242   41.5099 N   0  0  0  0  0  0  0  0  0  0  0  0
   22.8355   49.9682   40.5454 C   0  0  0  0  0  0  0  0  0  0  0  0
   21.8363   51.0902   40.2839 C   0  0  0  0  0  0  0  0  0  0  0  0
   22.4296   52.1522   39.3649 C   0  0  0  0  0  0  0  0  0  0  0  0
   22.7227   51.6462   38.0273 N   0  0  0  0  0  0  0  0  0  0  0  0
   23.8918   52.1101   37.2995 C   0  0  0  0  0  0  0  0  0  0  0  0
   23.7713   51.9044   35.7935 C   0  0  0  0  0  0  0  0  0  0  0  0
   25.0501   52.3609   35.1003 C   0  0  0  0  0  0  0  0  0  0  0  0
   24.9033   52.2048   33.5906 C   0  0  0  0  0  0  0  0  0  0  0  0
   26.1135   52.5843   32.8822 N   0  0  0  0  0  0  0  0  0  0  0  0
   26.2810   52.1910   31.4894 C   0  0  0  0  0  0  0  0  0  0  0  0
   27.6796   52.4269   30.9233 C   0  0  0  0  0  0  0  0  0  0  0  0
   28.7163   51.5956   31.6810 C   0  0  0  0  0  0  0  0  0  0  0  0
   30.0513   51.8835   31.1852 N   0  0  0  0  0  0  0  0  0  0  0  0
  1  2  1  0  0  0  0
  2  3  1  0  0  0  0
  3  4  1  0  0  0  0
  4  5  1  0  0  0  0
  5  6  1  0  0  0  0
  6  7  1  0  0  0  0
  7  8  1  0  0  0  0
  8  9  1  0  0  0  0
  9 10  1  0  0  0  0
 10 11  1  0  0  0  0
 11 12  1  0  0  0  0
 12 13  1  0  0  0  0
 13 14  1  0  0  0  0
M  END
>  <CHROM.1>
175.25058796,64.50517741,-143.74392073,-158.57130323,-177.78204881,-177.76236890
-178.05639479,164.67392461,-169.77617704,62.19167655,-176.80239960,24.89819294
51.65317878,35.69108809,-2.22243186,0.48712432,-1.05756770

>  <Name>
ligand

>  <RI>
0

>  <Rbt.Current_Directory>
/home/itssahil/PROJECTS/Mol_Feturizer/New_Systems/rnas/4P5J

>  <Rbt.Executable>
rbdock ($Id: //depot/dev/client3/rdock/2013.1/src/exe/rbdock.cxx#4 $)

>  <Rbt.Library>
libRbt.so (2013.1, Build901 2013/11/27)

>  <Rbt.Parameter_File>
/export/apps/rDock/src/rDock_2013.1_src/data/scripts/dock_solv.prm

>  <Rbt.Receptor>
prm/pocket_docking_8.prm

>  <SCORE>
-5.42575

>  <SCORE.INTER>
4.22448

>  <SCORE.INTER.CONST>
1

>  <SCORE.INTER.POLAR>
0

>  <SCORE.INTER.ROT>
11

>  <SCORE.INTER.SOLV>
7.29085

>  <SCORE.INTER.VDW>
-10.5473

>  <SCORE.INTER.norm>
0.301749

>  <SCORE.INTRA>
-9.65023

>  <SCORE.INTRA.DIHEDRAL>
-15.8517

>  <SCORE.INTRA.DIHEDRAL.0>
17.5233

>  <SCORE.INTRA.POLAR>
0

>  <SCORE.INTRA.POLAR.0>
0

>  <SCORE.INTRA.REPUL>
0

>  <SCORE.INTRA.REPUL.0>
0

>  <SCORE.INTRA.SOLV>
-2.01776

>  <SCORE.INTRA.SOLV.lig_0>
-46.1043

>  <SCORE.INTRA.VDW>
-0.71552

>  <SCORE.INTRA.VDW.0>
-0.545445

>  <SCORE.INTRA.norm>
-0.689302

>  <SCORE.RESTR>
0

>  <SCORE.RESTR.CAVITY>
0

>  <SCORE.RESTR.norm>
0

>  <SCORE.SYSTEM>
0

>  <SCORE.SYSTEM.CONST>
0

>  <SCORE.SYSTEM.DIHEDRAL>
0

>  <SCORE.SYSTEM.SOLV>
0

>  <SCORE.SYSTEM.norm>
0

>  <SCORE.heavy>
14

>  <SCORE.norm>
-0.387553

>  <RMSD>
8.228

$$$$
ligand
 OpenBabel11021811513D
libRbt.so/2013.1/901 2013/11/27
 14 13  0  0  0  0  0  0  0  0999 V2000
   23.4317   58.2869   37.9145 N   0  0  0  0  0  0  0  0  0  0  0  0
   23.6020   57.5919   36.6488 C   0  0  0  0  0  0  0  0  0  0  0  0
   22.9681   56.2064   36.7152 C   0  0  0  0  0  0  0  0  0  0  0  0
   23.1632   55.4488   35.4066 C   0  0  0  0  0  0  0  0  0  0  0  0
   22.5165   54.1400   35.4063 N   0  0  0  0  0  0  0  0  0  0  0  0
   23.2445   52.9540   35.8249 C   0  0  0  0  0  0  0  0  0  0  0  0
   23.0118   52.6036   37.2905 C   0  0  0  0  0  0  0  0  0  0  0  0
   23.8151   51.3629   37.6644 C   0  0  0  0  0  0  0  0  0  0  0  0
   23.5307   50.9807   39.1129 C   0  0  0  0  0  0  0  0  0  0  0  0
   24.3310   49.8482   39.5459 N   0  0  0  0  0  0  0  0  0  0  0  0
   23.6689   48.6082   39.9289 C   0  0  0  0  0  0  0  0  0  0  0  0
   23.4795   48.4239   41.4330 C   0  0  0  0  0  0  0  0  0  0  0  0
   22.8585   47.0592   41.7359 C   0  0  0  0  0  0  0  0  0  0  0  0
   22.6095   46.9254   43.1611 N   0  0  0  0  0  0  0  0  0  0  0  0
  1  2  1  0  0  0  0
  2  3  1  0  0  0  0
  3  4  1  0  0  0  0
  4  5  1  0  0  0  0
  5  6  1  0  0  0  0
  6  7  1  0  0  0  0
  7  8  1  0  0  0  0
  8  9  1  0  0  0  0
  9 10  1  0  0  0  0
 10 11  1  0  0  0  0
 11 12  1  0  0  0  0
 12 13  1  0  0  0  0
 13 14  1  0  0  0  0
M  END
>  <CHROM.1>
-178.73873571,-177.31705817,-91.74241595,95.47322985,-179.36184893,-177.49066550
-176.66066737,-116.73782876,-98.28022337,-176.43634217,-176.63854160,23.30223719
52.17422772,38.41325278,-1.68182721,1.55323212,2.71392011

>  <Name>
ligand

>  <RI>
0

>  <Rbt.Current_Directory>
/home/itssahil/PROJECTS/Mol_Feturizer/New_Systems/rnas/4P5J

>  <Rbt.Executable>
rbdock ($Id: //depot/dev/client3/rdock/2013.1/src/exe/rbdock.cxx#4 $)

>  <Rbt.Library>
libRbt.so (2013.1, Build901 2013/11/27)

>  <Rbt.Parameter_File>
/export/apps/rDock/src/rDock_2013.1_src/data/scripts/dock_solv.prm

>  <Rbt.Receptor>
prm/pocket_docking_7.prm

>  <SCORE>
-5.51472

>  <SCORE.INTER>
3.4267

>  <SCORE.INTER.CONST>
1

>  <SCORE.INTER.POLAR>
0

>  <SCORE.INTER.ROT>
11

>  <SCORE.INTER.SOLV>
8.39265

>  <SCORE.INTER.VDW>
-11.4464

>  <SCORE.INTER.norm>
0.244764

>  <SCORE.INTRA>
-8.94142

>  <SCORE.INTRA.DIHEDRAL>
-13.8619

>  <SCORE.INTRA.DIHEDRAL.0>
17.5233

>  <SCORE.INTRA.POLAR>
0

>  <SCORE.INTRA.POLAR.0>
0

>  <SCORE.INTRA.REPUL>
0

>  <SCORE.INTRA.REPUL.0>
0

>  <SCORE.INTRA.SOLV>
-2.73321

>  <SCORE.INTRA.SOLV.lig_0>
-46.1043

>  <SCORE.INTRA.VDW>
-0.643848

>  <SCORE.INTRA.VDW.0>
-0.545445

>  <SCORE.INTRA.norm>
-0.638673

>  <SCORE.RESTR>
0

>  <SCORE.RESTR.CAVITY>
0

>  <SCORE.RESTR.norm>
0

>  <SCORE.SYSTEM>
0

>  <SCORE.SYSTEM.CONST>
0

>  <SCORE.SYSTEM.DIHEDRAL>
0

>  <SCORE.SYSTEM.SOLV>
0

>  <SCORE.SYSTEM.norm>
0

>  <SCORE.heavy>
14

>  <SCORE.norm>
-0.393909

>  <RMSD>
8.268

$$$$
ligand
 OpenBabel11021811513D
libRbt.so/2013.1/901 2013/11/27
 14 13  0  0  0  0  0  0  0  0999 V2000
   24.2138   52.2851   34.9546 N   0  0  0  0  0  0  0  0  0  0  0  0
   24.2079   51.8142   36.3301 C   0  0  0  0  0  0  0  0  0  0  0  0
   25.3030   50.7736   36.5391 C   0  0  0  0  0  0  0  0  0  0  0  0
   25.3613   50.3207   37.9936 C   0  0  0  0  0  0  0  0  0  0  0  0
   24.1660   49.5934   38.4102 N   0  0  0  0  0  0  0  0  0  0  0  0
   23.7912   49.5258   39.8127 C   0  0  0  0  0  0  0  0  0  0  0  0
   22.7269   48.4698   40.0903 C   0  0  0  0  0  0  0  0  0  0  0  0
   22.2798   48.5495   41.5457 C   0  0  0  0  0  0  0  0  0  0  0  0
   21.2880   49.6946   41.7193 C   0  0  0  0  0  0  0  0  0  0  0  0
   21.9107   50.9916   41.5181 N   0  0  0  0  0  0  0  0  0  0  0  0
   21.0716   52.1643   41.3102 C   0  0  0  0  0  0  0  0  0  0  0  0
   21.8369   53.4533   41.0187 C   0  0  0  0  0  0  0  0  0  0  0  0
   22.6824   53.3048   39.7527 C   0  0  0  0  0  0  0  0  0  0  0  0
   23.4579   54.5117   39.5217 N   0  0  0  0  0  0  0  0  0  0  0  0
  1  2  1  0  0  0  0
  2  3  1  0  0  0  0
  3  4  1  0  0  0  0
  4  5  1  0  0  0  0
  5  6  1  0  0  0  0
  6  7  1  0  0  0  0
  7  8  1  0  0  0  0
  8  9  1  0  0  0  0
  9 10  1  0  0  0  0
 10 11  1  0  0  0  0
 11 12  1  0  0  0  0
 12 13  1  0  0  0  0
 13 14  1  0  0  0  0
M  END
>  <CHROM.1>
177.01523708,66.01139521,-156.42814560,-166.40427690,-174.24869324,79.48737879
-67.14567017,164.61962845,-176.15979100,59.91929650,-177.13019506,23.16397708
51.10343397,39.32293017,0.40653870,1.00483784,-0.28045624

>  <Name>
ligand

>  <RI>
0

>  <Rbt.Current_Directory>
/home/itssahil/PROJECTS/Mol_Feturizer/New_Systems/rnas/4P5J

>  <Rbt.Executable>
rbdock ($Id: //depot/dev/client3/rdock/2013.1/src/exe/rbdock.cxx#4 $)

>  <Rbt.Library>
libRbt.so (2013.1, Build901 2013/11/27)

>  <Rbt.Parameter_File>
/export/apps/rDock/src/rDock_2013.1_src/data/scripts/dock_solv.prm

>  <Rbt.Receptor>
prm/pocket_docking_7.prm

>  <SCORE>
-4.43411

>  <SCORE.INTER>
3.92936

>  <SCORE.INTER.CONST>
1

>  <SCORE.INTER.POLAR>
0

>  <SCORE.INTER.ROT>
11

>  <SCORE.INTER.SOLV>
10.5583

>  <SCORE.INTER.VDW>
-11.8332

>  <SCORE.INTER.norm>
0.280669

>  <SCORE.INTRA>
-8.36347

>  <SCORE.INTRA.DIHEDRAL>
-14.8044

>  <SCORE.INTRA.DIHEDRAL.0>
17.5233

>  <SCORE.INTRA.POLAR>
0

>  <SCORE.INTRA.POLAR.0>
0

>  <SCORE.INTRA.REPUL>
0

>  <SCORE.INTRA.REPUL.0>
0

>  <SCORE.INTRA.SOLV>
-0.277354

>  <SCORE.INTRA.SOLV.lig_0>
-46.1043

>  <SCORE.INTRA.VDW>
-0.822574

>  <SCORE.INTRA.VDW.0>
-0.545445

>  <SCORE.INTRA.norm>
-0.597391

>  <SCORE.RESTR>
0

>  <SCORE.RESTR.CAVITY>
0

>  <SCORE.RESTR.norm>
0

>  <SCORE.SYSTEM>
0

>  <SCORE.SYSTEM.CONST>
0

>  <SCORE.SYSTEM.DIHEDRAL>
0

>  <SCORE.SYSTEM.SOLV>
0

>  <SCORE.SYSTEM.norm>
0

>  <SCORE.heavy>
14

>  <SCORE.norm>
-0.316722

>  <RMSD>
8.282

$$$$
ligand
 OpenBabel11021811513D
libRbt.so/2013.1/901 2013/11/27
 14 13  0  0  0  0  0  0  0  0999 V2000
   25.7433   52.4789   35.4007 N   0  0  0  0  0  0  0  0  0  0  0  0
   24.6503   51.5479   35.6298 C   0  0  0  0  0  0  0  0  0  0  0  0
   23.3663   52.3060   35.9499 C   0  0  0  0  0  0  0  0  0  0  0  0
   23.4830   53.0509   37.2750 C   0  0  0  0  0  0  0  0  0  0  0  0
   23.5784   52.1550   38.4236 N   0  0  0  0  0  0  0  0  0  0  0  0
   22.3793   51.6557   39.0752 C   0  0  0  0  0  0  0  0  0  0  0  0
   22.6681   50.5332   40.0659 C   0  0  0  0  0  0  0  0  0  0  0  0
   21.3628   50.0014   40.6472 C   0  0  0  0  0  0  0  0  0  0  0  0
   21.6614   48.9496   41.7101 C   0  0  0  0  0  0  0  0  0  0  0  0
   22.3598   47.8006   41.1601 N   0  0  0  0  0  0  0  0  0  0  0  0
   22.7569   46.7132   42.0447 C   0  0  0  0  0  0  0  0  0  0  0  0
   23.8900   47.0565   43.0094 C   0  0  0  0  0  0  0  0  0  0  0  0
   24.1262   45.9106   43.9948 C   0  0  0  0  0  0  0  0  0  0  0  0
   25.1677   46.2691   44.9423 N   0  0  0  0  0  0  0  0  0  0  0  0
  1  2  1  0  0  0  0
  2  3  1  0  0  0  0
  3  4  1  0  0  0  0
  4  5  1  0  0  0  0
  5  6  1  0  0  0  0
  6  7  1  0  0  0  0
  7  8  1  0  0  0  0
  8  9  1  0  0  0  0
  9 10  1  0  0  0  0
 10 11  1  0  0  0  0
 11 12  1  0  0  0  0
 12 13  1  0  0  0  0
 13 14  1  0  0  0  0
M  END
>  <CHROM.1>
-65.76677077,-67.02941218,-87.13475568,168.72871227,-176.57868812,-175.95169714
-62.14510345,178.34331431,-70.38107303,173.66313320,-177.65417856,23.37061966
49.74493294,39.95204453,-1.52354145,-0.33026896,2.26797084

>  <Name>
ligand

>  <RI>
0

>  <Rbt.Current_Directory>
/home/itssahil/PROJECTS/Mol_Feturizer/New_Systems/rnas/4P5J

>  <Rbt.Executable>
rbdock ($Id: //depot/dev/client3/rdock/2013.1/src/exe/rbdock.cxx#4 $)

>  <Rbt.Library>
libRbt.so (2013.1, Build901 2013/11/27)

>  <Rbt.Parameter_File>
/export/apps/rDock/src/rDock_2013.1_src/data/scripts/dock_solv.prm

>  <Rbt.Receptor>
prm/pocket_docking_8.prm

>  <SCORE>
-6.01103

>  <SCORE.INTER>
2.55667

>  <SCORE.INTER.CONST>
1

>  <SCORE.INTER.POLAR>
0

>  <SCORE.INTER.ROT>
11

>  <SCORE.INTER.SOLV>
8.16624

>  <SCORE.INTER.VDW>
-11.951

>  <SCORE.INTER.norm>
0.182619

>  <SCORE.INTRA>
-8.5677

>  <SCORE.INTRA.DIHEDRAL>
-16.2117

>  <SCORE.INTRA.DIHEDRAL.0>
17.5233

>  <SCORE.INTRA.POLAR>
0

>  <SCORE.INTRA.POLAR.0>
0

>  <SCORE.INTRA.REPUL>
0

>  <SCORE.INTRA.REPUL.0>
0

>  <SCORE.INTRA.SOLV>
-0.647067

>  <SCORE.INTRA.SOLV.lig_0>
-46.1043

>  <SCORE.INTRA.VDW>
-0.138334

>  <SCORE.INTRA.VDW.0>
-0.545445

>  <SCORE.INTRA.norm>
-0.611978

>  <SCORE.RESTR>
0

>  <SCORE.RESTR.CAVITY>
0

>  <SCORE.RESTR.norm>
0

>  <SCORE.SYSTEM>
0

>  <SCORE.SYSTEM.CONST>
0

>  <SCORE.SYSTEM.DIHEDRAL>
0

>  <SCORE.SYSTEM.SOLV>
0

>  <SCORE.SYSTEM.norm>
0

>  <SCORE.heavy>
14

>  <SCORE.norm>
-0.429359

>  <RMSD>
8.314

$$$$
ligand
 OpenBabel11021811513D
libRbt.so/2013.1/901 2013/11/27
 14 13  0  0  0  0  0  0  0  0999 V2000
   28.5574   53.0161   34.8299 N   0  0  0  0  0  0  0  0  0  0  0  0
   27.4191   52.2794   35.3547 C   0  0  0  0  0  0  0  0  0  0  0  0
   26.1837   52.5302   34.4963 C   0  0  0  0  0  0  0  0  0  0  0  0
   24.9711   51.7885   35.0474 C   0  0  0  0  0  0  0  0  0  0  0  0
   24.5739   52.2552   36.3724 N   0  0  0  0  0  0  0  0  0  0  0  0
   23.6018   51.5140   37.1583 C   0  0  0  0  0  0  0  0  0  0  0  0
   23.3445   52.1402   38.5245 C   0  0  0  0  0  0  0  0  0  0  0  0
   22.3532   51.2891   39.3103 C   0  0  0  0  0  0  0  0  0  0  0  0
   22.0471   51.9551   40.6474 C   0  0  0  0  0  0  0  0  0  0  0  0
   21.3932   53.2415   40.4797 N   0  0  0  0  0  0  0  0  0  0  0  0
   21.3165   54.1584   41.6093 C   0  0  0  0  0  0  0  0  0  0  0  0
   20.9401   55.5925   41.2430 C   0  0  0  0  0  0  0  0  0  0  0  0
   21.9603   56.1870   40.2705 C   0  0  0  0  0  0  0  0  0  0  0  0
   21.6564   57.5848   40.0157 N   0  0  0  0  0  0  0  0  0  0  0  0
  1  2  1  0  0  0  0
  2  3  1  0  0  0  0
  3  4  1  0  0  0  0
  4  5  1  0  0  0  0
  5  6  1  0  0  0  0
  6  7  1  0  0  0  0
  7  8  1  0  0  0  0
  8  9  1  0  0  0  0
  9 10  1  0  0  0  0
 10 11  1  0  0  0  0
 11 12  1  0  0  0  0
 12 13  1  0  0  0  0
 13 14  1  0  0  0  0
M  END
>  <CHROM.1>
-178.82725145,63.88230557,-168.75968882,178.56962318,-178.14350646,-177.23477103
63.54089044,-165.29616327,165.13049308,-59.52706724,-175.25589938,23.59398190
53.25198217,38.24008135,-0.42071555,0.79563495,0.13148247

>  <Name>
ligand

>  <RI>
0

>  <Rbt.Current_Directory>
/home/itssahil/PROJECTS/Mol_Feturizer/New_Systems/rnas/4P5J

>  <Rbt.Executable>
rbdock ($Id: //depot/dev/client3/rdock/2013.1/src/exe/rbdock.cxx#4 $)

>  <Rbt.Library>
libRbt.so (2013.1, Build901 2013/11/27)

>  <Rbt.Parameter_File>
/export/apps/rDock/src/rDock_2013.1_src/data/scripts/dock_solv.prm

>  <Rbt.Receptor>
prm/pocket_docking_6.prm

>  <SCORE>
-4.09075

>  <SCORE.INTER>
5.78434

>  <SCORE.INTER.CONST>
1

>  <SCORE.INTER.POLAR>
0

>  <SCORE.INTER.ROT>
11

>  <SCORE.INTER.SOLV>
5.98629

>  <SCORE.INTER.VDW>
-9.07254

>  <SCORE.INTER.norm>
0.413167

>  <SCORE.INTRA>
-9.87677

>  <SCORE.INTRA.DIHEDRAL>
-16.8387

>  <SCORE.INTRA.DIHEDRAL.0>
17.5233

>  <SCORE.INTRA.POLAR>
0

>  <SCORE.INTRA.POLAR.0>
0

>  <SCORE.INTRA.REPUL>
0

>  <SCORE.INTRA.REPUL.0>
0

>  <SCORE.INTRA.SOLV>
-1.5896

>  <SCORE.INTRA.SOLV.lig_0>
-46.1043

>  <SCORE.INTRA.VDW>
-0.662634

>  <SCORE.INTRA.VDW.0>
-0.545445

>  <SCORE.INTRA.norm>
-0.705483

>  <SCORE.RESTR>
0.00167434

>  <SCORE.RESTR.CAVITY>
0.00167434

>  <SCORE.RESTR.norm>
0.000119596

>  <SCORE.SYSTEM>
0

>  <SCORE.SYSTEM.CONST>
0

>  <SCORE.SYSTEM.DIHEDRAL>
0

>  <SCORE.SYSTEM.SOLV>
0

>  <SCORE.SYSTEM.norm>
0

>  <SCORE.heavy>
14

>  <SCORE.norm>
-0.292197

>  <RMSD>
8.324

$$$$
ligand
 OpenBabel11021811513D
libRbt.so/2013.1/901 2013/11/27
 14 13  0  0  0  0  0  0  0  0999 V2000
   24.6869   47.5173   43.7841 N   0  0  0  0  0  0  0  0  0  0  0  0
   24.5219   46.7163   42.5820 C   0  0  0  0  0  0  0  0  0  0  0  0
   23.5657   47.4043   41.6134 C   0  0  0  0  0  0  0  0  0  0  0  0
   22.1582   47.4845   42.1936 C   0  0  0  0  0  0  0  0  0  0  0  0
   21.2412   48.2508   41.3551 N   0  0  0  0  0  0  0  0  0  0  0  0
   21.3090   49.7019   41.3174 C   0  0  0  0  0  0  0  0  0  0  0  0
   21.9569   50.2309   40.0426 C   0  0  0  0  0  0  0  0  0  0  0  0
   22.0716   51.7498   40.1069 C   0  0  0  0  0  0  0  0  0  0  0  0
   22.6551   52.2795   38.8014 C   0  0  0  0  0  0  0  0  0  0  0  0
   24.0060   51.7971   38.5717 N   0  0  0  0  0  0  0  0  0  0  0  0
   24.2854   50.9832   37.3961 C   0  0  0  0  0  0  0  0  0  0  0  0
   24.0100   51.6732   36.0618 C   0  0  0  0  0  0  0  0  0  0  0  0
   24.9520   52.8621   35.8641 C   0  0  0  0  0  0  0  0  0  0  0  0
   24.6706   53.5216   34.6003 N   0  0  0  0  0  0  0  0  0  0  0  0
  1  2  1  0  0  0  0
  2  3  1  0  0  0  0
  3  4  1  0  0  0  0
  4  5  1  0  0  0  0
  5  6  1  0  0  0  0
  6  7  1  0  0  0  0
  7  8  1  0  0  0  0
  8  9  1  0  0  0  0
  9 10  1  0  0  0  0
 10 11  1  0  0  0  0
 11 12  1  0  0  0  0
 12 13  1  0  0  0  0
 13 14  1  0  0  0  0
M  END
>  <CHROM.1>
-65.37279100,174.39413411,-75.48163363,104.43116936,-176.59210892,-177.15513387
-63.07438320,118.53027555,60.88254086,64.98713605,-179.27785377,23.29203893
50.15513113,39.59218748,-1.72252845,0.38459115,-0.84207903

>  <Name>
ligand

>  <RI>
0

>  <Rbt.Current_Directory>
/home/itssahil/PROJECTS/Mol_Feturizer/New_Systems/rnas/4P5J

>  <Rbt.Executable>
rbdock ($Id: //depot/dev/client3/rdock/2013.1/src/exe/rbdock.cxx#4 $)

>  <Rbt.Library>
libRbt.so (2013.1, Build901 2013/11/27)

>  <Rbt.Parameter_File>
/export/apps/rDock/src/rDock_2013.1_src/data/scripts/dock_solv.prm

>  <Rbt.Receptor>
prm/pocket_docking_8.prm

>  <SCORE>
-4.9413

>  <SCORE.INTER>
2.9458

>  <SCORE.INTER.CONST>
1

>  <SCORE.INTER.POLAR>
0

>  <SCORE.INTER.ROT>
11

>  <SCORE.INTER.SOLV>
7.33173

>  <SCORE.INTER.VDW>
-11.4134

>  <SCORE.INTER.norm>
0.210415

>  <SCORE.INTRA>
-7.88711

>  <SCORE.INTRA.DIHEDRAL>
-14.6909

>  <SCORE.INTRA.DIHEDRAL.0>
17.5233

>  <SCORE.INTRA.POLAR>
0

>  <SCORE.INTRA.POLAR.0>
0

>  <SCORE.INTRA.REPUL>
0

>  <SCORE.INTRA.REPUL.0>
0

>  <SCORE.INTRA.SOLV>
-1.1845

>  <SCORE.INTRA.SOLV.lig_0>
-46.1043

>  <SCORE.INTRA.VDW>
0.0506127

>  <SCORE.INTRA.VDW.0>
-0.545445

>  <SCORE.INTRA.norm>
-0.563365

>  <SCORE.RESTR>
0

>  <SCORE.RESTR.CAVITY>
0

>  <SCORE.RESTR.norm>
0

>  <SCORE.SYSTEM>
0

>  <SCORE.SYSTEM.CONST>
0

>  <SCORE.SYSTEM.DIHEDRAL>
0

>  <SCORE.SYSTEM.SOLV>
0

>  <SCORE.SYSTEM.norm>
0

>  <SCORE.heavy>
14

>  <SCORE.norm>
-0.35295

>  <RMSD>
8.340

$$$$
ligand
 OpenBabel11021811513D
libRbt.so/2013.1/901 2013/11/27
 14 13  0  0  0  0  0  0  0  0999 V2000
   23.0419   55.2806   39.9488 N   0  0  0  0  0  0  0  0  0  0  0  0
   22.2237   54.5466   40.9005 C   0  0  0  0  0  0  0  0  0  0  0  0
   21.9389   53.1410   40.3818 C   0  0  0  0  0  0  0  0  0  0  0  0
   21.1202   52.3390   41.3870 C   0  0  0  0  0  0  0  0  0  0  0  0
   20.8154   50.9889   40.9228 N   0  0  0  0  0  0  0  0  0  0  0  0
   21.5058   49.8394   41.4830 C   0  0  0  0  0  0  0  0  0  0  0  0
   22.4418   49.1671   40.4847 C   0  0  0  0  0  0  0  0  0  0  0  0
   23.4295   50.1861   39.9275 C   0  0  0  0  0  0  0  0  0  0  0  0
   24.3119   49.5270   38.8730 C   0  0  0  0  0  0  0  0  0  0  0  0
   25.1155   50.4971   38.1495 N   0  0  0  0  0  0  0  0  0  0  0  0
   25.4363   50.2588   36.7484 C   0  0  0  0  0  0  0  0  0  0  0  0
   25.2941   51.4812   35.8441 C   0  0  0  0  0  0  0  0  0  0  0  0
   23.8335   51.9286   35.7664 C   0  0  0  0  0  0  0  0  0  0  0  0
   23.7026   53.0639   34.8692 N   0  0  0  0  0  0  0  0  0  0  0  0
  1  2  1  0  0  0  0
  2  3  1  0  0  0  0
  3  4  1  0  0  0  0
  4  5  1  0  0  0  0
  5  6  1  0  0  0  0
  6  7  1  0  0  0  0
  7  8  1  0  0  0  0
  8  9  1  0  0  0  0
  9 10  1  0  0  0  0
 10 11  1  0  0  0  0
 11 12  1  0  0  0  0
 12 13  1  0  0  0  0
 13 14  1  0  0  0  0
M  END
>  <CHROM.1>
178.12495219,179.49385092,105.88348115,-111.45455372,55.17013208,-176.86285008
170.29296160,-147.20810411,136.35875979,-65.17387570,-178.10751720,23.15793286
51.58858803,38.97781848,2.95442643,-1.00890797,2.81459765

>  <Name>
ligand

>  <RI>
0

>  <Rbt.Current_Directory>
/home/itssahil/PROJECTS/Mol_Feturizer/New_Systems/rnas/4P5J

>  <Rbt.Executable>
rbdock ($Id: //depot/dev/client3/rdock/2013.1/src/exe/rbdock.cxx#4 $)

>  <Rbt.Library>
libRbt.so (2013.1, Build901 2013/11/27)

>  <Rbt.Parameter_File>
/export/apps/rDock/src/rDock_2013.1_src/data/scripts/dock_solv.prm

>  <Rbt.Receptor>
prm/pocket_docking_7.prm

>  <SCORE>
-4.54763

>  <SCORE.INTER>
3.7611

>  <SCORE.INTER.CONST>
1

>  <SCORE.INTER.POLAR>
0

>  <SCORE.INTER.ROT>
11

>  <SCORE.INTER.SOLV>
10.782

>  <SCORE.INTER.VDW>
-12.0199

>  <SCORE.INTER.norm>
0.26865

>  <SCORE.INTRA>
-8.30873

>  <SCORE.INTRA.DIHEDRAL>
-13.0522

>  <SCORE.INTRA.DIHEDRAL.0>
17.5233

>  <SCORE.INTRA.POLAR>
0

>  <SCORE.INTRA.POLAR.0>
0

>  <SCORE.INTRA.REPUL>
0

>  <SCORE.INTRA.REPUL.0>
0

>  <SCORE.INTRA.SOLV>
-1.95978

>  <SCORE.INTRA.SOLV.lig_0>
-46.1043

>  <SCORE.INTRA.VDW>
-0.802759

>  <SCORE.INTRA.VDW.0>
-0.545445

>  <SCORE.INTRA.norm>
-0.593481

>  <SCORE.RESTR>
0

>  <SCORE.RESTR.CAVITY>
0

>  <SCORE.RESTR.norm>
0

>  <SCORE.SYSTEM>
0

>  <SCORE.SYSTEM.CONST>
0

>  <SCORE.SYSTEM.DIHEDRAL>
0

>  <SCORE.SYSTEM.SOLV>
0

>  <SCORE.SYSTEM.norm>
0

>  <SCORE.heavy>
14

>  <SCORE.norm>
-0.324831

>  <RMSD>
8.342

$$$$
ligand
 OpenBabel11021811513D
libRbt.so/2013.1/901 2013/11/27
 14 13  0  0  0  0  0  0  0  0999 V2000
   22.9902   48.6431   41.4291 N   0  0  0  0  0  0  0  0  0  0  0  0
   23.1673   48.9524   40.0195 C   0  0  0  0  0  0  0  0  0  0  0  0
   24.5648   49.5101   39.7705 C   0  0  0  0  0  0  0  0  0  0  0  0
   24.7375   49.9324   38.3159 C   0  0  0  0  0  0  0  0  0  0  0  0
   23.8628   51.0384   37.9379 N   0  0  0  0  0  0  0  0  0  0  0  0
   23.8647   51.5533   36.5790 C   0  0  0  0  0  0  0  0  0  0  0  0
   23.2812   52.9584   36.4780 C   0  0  0  0  0  0  0  0  0  0  0  0
   23.4692   53.5013   35.0658 C   0  0  0  0  0  0  0  0  0  0  0  0
   23.0532   54.9674   35.0165 C   0  0  0  0  0  0  0  0  0  0  0  0
   23.8996   55.8035   35.8501 N   0  0  0  0  0  0  0  0  0  0  0  0
   23.4510   56.1686   37.1873 C   0  0  0  0  0  0  0  0  0  0  0  0
   22.5675   57.4128   37.2467 C   0  0  0  0  0  0  0  0  0  0  0  0
   22.0944   57.6714   38.6781 C   0  0  0  0  0  0  0  0  0  0  0  0
   21.3273   58.9039   38.7391 N   0  0  0  0  0  0  0  0  0  0  0  0
  1  2  1  0  0  0  0
  2  3  1  0  0  0  0
  3  4  1  0  0  0  0
  4  5  1  0  0  0  0
  5  6  1  0  0  0  0
  6  7  1  0  0  0  0
  7  8  1  0  0  0  0
  8  9  1  0  0  0  0
  9 10  1  0  0  0  0
 10 11  1  0  0  0  0
 11 12  1  0  0  0  0
 12 13  1  0  0  0  0
 13 14  1  0  0  0  0
M  END
>  <CHROM.1>
-176.01050759,64.48575361,-178.43494834,-160.36270234,173.09526297,-172.58142826
64.01399267,-97.87405381,-86.27916439,177.20924589,176.31384351,23.30945379
53.35825587,37.73636752,1.09794172,-1.22263654,2.40521097

>  <Name>
ligand

>  <RI>
0

>  <Rbt.Current_Directory>
/home/itssahil/PROJECTS/Mol_Feturizer/New_Systems/rnas/4P5J

>  <Rbt.Executable>
rbdock ($Id: //depot/dev/client3/rdock/2013.1/src/exe/rbdock.cxx#4 $)

>  <Rbt.Library>
libRbt.so (2013.1, Build901 2013/11/27)

>  <Rbt.Parameter_File>
/export/apps/rDock/src/rDock_2013.1_src/data/scripts/dock_solv.prm

>  <Rbt.Receptor>
prm/pocket_docking_8.prm

>  <SCORE>
-6.24221

>  <SCORE.INTER>
2.69598

>  <SCORE.INTER.CONST>
1

>  <SCORE.INTER.POLAR>
0

>  <SCORE.INTER.ROT>
11

>  <SCORE.INTER.SOLV>
6.93604

>  <SCORE.INTER.VDW>
-11.448

>  <SCORE.INTER.norm>
0.19257

>  <SCORE.INTRA>
-8.93819

>  <SCORE.INTRA.DIHEDRAL>
-15.2233

>  <SCORE.INTRA.DIHEDRAL.0>
17.5233

>  <SCORE.INTRA.POLAR>
0

>  <SCORE.INTRA.POLAR.0>
0

>  <SCORE.INTRA.REPUL>
0

>  <SCORE.INTRA.REPUL.0>
0

>  <SCORE.INTRA.SOLV>
-1.89286

>  <SCORE.INTRA.SOLV.lig_0>
-46.1043

>  <SCORE.INTRA.VDW>
-0.380127

>  <SCORE.INTRA.VDW.0>
-0.545445

>  <SCORE.INTRA.norm>
-0.638442

>  <SCORE.RESTR>
0

>  <SCORE.RESTR.CAVITY>
0

>  <SCORE.RESTR.norm>
0

>  <SCORE.SYSTEM>
0

>  <SCORE.SYSTEM.CONST>
0

>  <SCORE.SYSTEM.DIHEDRAL>
0

>  <SCORE.SYSTEM.SOLV>
0

>  <SCORE.SYSTEM.norm>
0

>  <SCORE.heavy>
14

>  <SCORE.norm>
-0.445872

>  <RMSD>
8.373

$$$$
ligand
 OpenBabel11021811513D
libRbt.so/2013.1/901 2013/11/27
 14 13  0  0  0  0  0  0  0  0999 V2000
   21.8683   46.8159   42.8763 N   0  0  0  0  0  0  0  0  0  0  0  0
   22.9020   47.0010   41.8708 C   0  0  0  0  0  0  0  0  0  0  0  0
   22.6992   48.3236   41.1391 C   0  0  0  0  0  0  0  0  0  0  0  0
   23.8127   48.5687   40.1270 C   0  0  0  0  0  0  0  0  0  0  0  0
   23.6593   49.8303   39.4084 N   0  0  0  0  0  0  0  0  0  0  0  0
   24.4737   50.1213   38.2406 C   0  0  0  0  0  0  0  0  0  0  0  0
   23.9260   51.2771   37.4106 C   0  0  0  0  0  0  0  0  0  0  0  0
   24.8046   51.5019   36.1850 C   0  0  0  0  0  0  0  0  0  0  0  0
   24.2570   52.6637   35.3631 C   0  0  0  0  0  0  0  0  0  0  0  0
   25.1165   52.9895   34.2381 N   0  0  0  0  0  0  0  0  0  0  0  0
   25.0093   52.2167   33.0077 C   0  0  0  0  0  0  0  0  0  0  0  0
   26.1776   52.3920   32.0399 C   0  0  0  0  0  0  0  0  0  0  0  0
   27.4800   51.8959   32.6701 C   0  0  0  0  0  0  0  0  0  0  0  0
   28.5923   52.1098   31.7599 N   0  0  0  0  0  0  0  0  0  0  0  0
  1  2  1  0  0  0  0
  2  3  1  0  0  0  0
  3  4  1  0  0  0  0
  4  5  1  0  0  0  0
  5  6  1  0  0  0  0
  6  7  1  0  0  0  0
  7  8  1  0  0  0  0
  8  9  1  0  0  0  0
  9 10  1  0  0  0  0
 10 11  1  0  0  0  0
 11 12  1  0  0  0  0
 12 13  1  0  0  0  0
 13 14  1  0  0  0  0
M  END
>  <CHROM.1>
177.21303034,-179.70477192,-168.52648850,164.18744348,-178.44220666,-179.67702074
175.47841596,82.36819332,-164.84636001,62.97661348,-178.02135022,24.62694758
50.55056555,36.88111145,-2.02453670,0.61857532,-0.81533727

>  <Name>
ligand

>  <RI>
0

>  <Rbt.Current_Directory>
/home/itssahil/PROJECTS/Mol_Feturizer/New_Systems/rnas/4P5J

>  <Rbt.Executable>
rbdock ($Id: //depot/dev/client3/rdock/2013.1/src/exe/rbdock.cxx#4 $)

>  <Rbt.Library>
libRbt.so (2013.1, Build901 2013/11/27)

>  <Rbt.Parameter_File>
/export/apps/rDock/src/rDock_2013.1_src/data/scripts/dock_solv.prm

>  <Rbt.Receptor>
prm/pocket_docking_8.prm

>  <SCORE>
-7.42531

>  <SCORE.INTER>
2.61081

>  <SCORE.INTER.CONST>
1

>  <SCORE.INTER.POLAR>
0

>  <SCORE.INTER.ROT>
11

>  <SCORE.INTER.SOLV>
7.70224

>  <SCORE.INTER.VDW>
-11.7602

>  <SCORE.INTER.norm>
0.186487

>  <SCORE.INTRA>
-10.0361

>  <SCORE.INTRA.DIHEDRAL>
-16.5138

>  <SCORE.INTRA.DIHEDRAL.0>
17.5233

>  <SCORE.INTRA.POLAR>
0

>  <SCORE.INTRA.POLAR.0>
0

>  <SCORE.INTRA.REPUL>
0

>  <SCORE.INTRA.REPUL.0>
0

>  <SCORE.INTRA.SOLV>
-2.37532

>  <SCORE.INTRA.SOLV.lig_0>
-46.1043

>  <SCORE.INTRA.VDW>
-0.591556

>  <SCORE.INTRA.VDW.0>
-0.545445

>  <SCORE.INTRA.norm>
-0.716866

>  <SCORE.RESTR>
0

>  <SCORE.RESTR.CAVITY>
0

>  <SCORE.RESTR.norm>
0

>  <SCORE.SYSTEM>
0

>  <SCORE.SYSTEM.CONST>
0

>  <SCORE.SYSTEM.DIHEDRAL>
0

>  <SCORE.SYSTEM.SOLV>
0

>  <SCORE.SYSTEM.norm>
0

>  <SCORE.heavy>
14

>  <SCORE.norm>
-0.530379

>  <RMSD>
8.383

$$$$
ligand
 OpenBabel11021811513D
libRbt.so/2013.1/901 2013/11/27
 14 13  0  0  0  0  0  0  0  0999 V2000
   21.2962   47.4228   44.5759 N   0  0  0  0  0  0  0  0  0  0  0  0
   22.3564   47.7611   43.6401 C   0  0  0  0  0  0  0  0  0  0  0  0
   22.3783   46.7688   42.4822 C   0  0  0  0  0  0  0  0  0  0  0  0
   23.5069   47.0856   41.5075 C   0  0  0  0  0  0  0  0  0  0  0  0
   23.4087   48.4278   40.9419 N   0  0  0  0  0  0  0  0  0  0  0  0
   24.4834   48.9688   40.1270 C   0  0  0  0  0  0  0  0  0  0  0  0
   23.9803   49.8839   39.0160 C   0  0  0  0  0  0  0  0  0  0  0  0
   25.1219   50.2272   38.0656 C   0  0  0  0  0  0  0  0  0  0  0  0
   24.5822   51.0033   36.8691 C   0  0  0  0  0  0  0  0  0  0  0  0
   25.6271   51.3314   35.9147 N   0  0  0  0  0  0  0  0  0  0  0  0
   25.2792   52.0286   34.6836 C   0  0  0  0  0  0  0  0  0  0  0  0
   26.4135   52.1323   33.6663 C   0  0  0  0  0  0  0  0  0  0  0  0
   25.9353   52.8339   32.3939 C   0  0  0  0  0  0  0  0  0  0  0  0
   27.0246   52.9387   31.4381 N   0  0  0  0  0  0  0  0  0  0  0  0
  1  2  1  0  0  0  0
  2  3  1  0  0  0  0
  3  4  1  0  0  0  0
  4  5  1  0  0  0  0
  5  6  1  0  0  0  0
  6  7  1  0  0  0  0
  7  8  1  0  0  0  0
  8  9  1  0  0  0  0
  9 10  1  0  0  0  0
 10 11  1  0  0  0  0
 11 12  1  0  0  0  0
 12 13  1  0  0  0  0
 13 14  1  0  0  0  0
M  END
>  <CHROM.1>
-178.54823001,-58.77330729,172.13104027,146.15210136,-170.60562760,173.31454830
-178.74466953,177.65647675,-171.16493736,177.97333084,179.46278185,24.38531414
49.91525641,38.23727114,2.05075086,-0.79954821,2.39809214

>  <Name>
ligand

>  <RI>
0

>  <Rbt.Current_Directory>
/home/itssahil/PROJECTS/Mol_Feturizer/New_Systems/rnas/4P5J

>  <Rbt.Executable>
rbdock ($Id: //depot/dev/client3/rdock/2013.1/src/exe/rbdock.cxx#4 $)

>  <Rbt.Library>
libRbt.so (2013.1, Build901 2013/11/27)

>  <Rbt.Parameter_File>
/export/apps/rDock/src/rDock_2013.1_src/data/scripts/dock_solv.prm

>  <Rbt.Receptor>
prm/pocket_docking_8.prm

>  <SCORE>
-5.91068

>  <SCORE.INTER>
3.96116

>  <SCORE.INTER.CONST>
1

>  <SCORE.INTER.POLAR>
0

>  <SCORE.INTER.ROT>
11

>  <SCORE.INTER.SOLV>
6.51491

>  <SCORE.INTER.VDW>
-10.4642

>  <SCORE.INTER.norm>
0.28294

>  <SCORE.INTRA>
-9.87184

>  <SCORE.INTRA.DIHEDRAL>
-16.1364

>  <SCORE.INTRA.DIHEDRAL.0>
17.5233

>  <SCORE.INTRA.POLAR>
0

>  <SCORE.INTRA.POLAR.0>
0

>  <SCORE.INTRA.REPUL>
0

>  <SCORE.INTRA.REPUL.0>
0

>  <SCORE.INTRA.SOLV>
-2.31606

>  <SCORE.INTRA.SOLV.lig_0>
-46.1043

>  <SCORE.INTRA.VDW>
-0.645608

>  <SCORE.INTRA.VDW.0>
-0.545445

>  <SCORE.INTRA.norm>
-0.705131

>  <SCORE.RESTR>
0

>  <SCORE.RESTR.CAVITY>
0

>  <SCORE.RESTR.norm>
0

>  <SCORE.SYSTEM>
0

>  <SCORE.SYSTEM.CONST>
0

>  <SCORE.SYSTEM.DIHEDRAL>
0

>  <SCORE.SYSTEM.SOLV>
0

>  <SCORE.SYSTEM.norm>
0

>  <SCORE.heavy>
14

>  <SCORE.norm>
-0.422192

>  <RMSD>
8.493

$$$$
ligand
 OpenBabel11021811513D
libRbt.so/2013.1/901 2013/11/27
 14 13  0  0  0  0  0  0  0  0999 V2000
   20.9335   57.9343   40.2681 N   0  0  0  0  0  0  0  0  0  0  0  0
   20.5366   56.5597   40.5264 C   0  0  0  0  0  0  0  0  0  0  0  0
   20.3375   56.3372   42.0219 C   0  0  0  0  0  0  0  0  0  0  0  0
   19.9723   54.8871   42.3187 C   0  0  0  0  0  0  0  0  0  0  0  0
   21.0379   53.9510   41.9729 N   0  0  0  0  0  0  0  0  0  0  0  0
   20.7487   52.5413   41.7707 C   0  0  0  0  0  0  0  0  0  0  0  0
   21.9319   51.7715   41.1943 C   0  0  0  0  0  0  0  0  0  0  0  0
   21.5267   50.3301   40.9070 C   0  0  0  0  0  0  0  0  0  0  0  0
   22.7456   49.5302   40.4601 C   0  0  0  0  0  0  0  0  0  0  0  0
   23.3331   50.0642   39.2435 N   0  0  0  0  0  0  0  0  0  0  0  0
   24.7419   49.8215   38.9623 C   0  0  0  0  0  0  0  0  0  0  0  0
   25.2199   50.3356   37.6060 C   0  0  0  0  0  0  0  0  0  0  0  0
   26.7351   50.1752   37.4712 C   0  0  0  0  0  0  0  0  0  0  0  0
   27.4177   51.0132   38.4422 N   0  0  0  0  0  0  0  0  0  0  0  0
  1  2  1  0  0  0  0
  2  3  1  0  0  0  0
  3  4  1  0  0  0  0
  4  5  1  0  0  0  0
  5  6  1  0  0  0  0
  6  7  1  0  0  0  0
  7  8  1  0  0  0  0
  8  9  1  0  0  0  0
  9 10  1  0  0  0  0
 10 11  1  0  0  0  0
 11 12  1  0  0  0  0
 12 13  1  0  0  0  0
 13 14  1  0  0  0  0
M  END
>  <CHROM.1>
-177.84104841,64.16886547,-160.04967450,170.43191048,-175.60355311,-174.49887349
-60.86536628,155.12404860,175.41083340,173.65751807,-64.74996908,22.65824593
52.51771937,40.22620315,-2.42291460,-0.62766510,3.02713407

>  <Name>
ligand

>  <RI>
0

>  <Rbt.Current_Directory>
/home/itssahil/PROJECTS/Mol_Feturizer/New_Systems/rnas/4P5J

>  <Rbt.Executable>
rbdock ($Id: //depot/dev/client3/rdock/2013.1/src/exe/rbdock.cxx#4 $)

>  <Rbt.Library>
libRbt.so (2013.1, Build901 2013/11/27)

>  <Rbt.Parameter_File>
/export/apps/rDock/src/rDock_2013.1_src/data/scripts/dock_solv.prm

>  <Rbt.Receptor>
prm/pocket_docking_7.prm

>  <SCORE>
-4.97551

>  <SCORE.INTER>
4.11172

>  <SCORE.INTER.CONST>
1

>  <SCORE.INTER.POLAR>
0

>  <SCORE.INTER.ROT>
11

>  <SCORE.INTER.SOLV>
5.63283

>  <SCORE.INTER.VDW>
-10.0698

>  <SCORE.INTER.norm>
0.293694

>  <SCORE.INTRA>
-9.09432

>  <SCORE.INTRA.DIHEDRAL>
-16.1722

>  <SCORE.INTRA.DIHEDRAL.0>
17.5233

>  <SCORE.INTRA.POLAR>
0

>  <SCORE.INTRA.POLAR.0>
0

>  <SCORE.INTRA.REPUL>
0

>  <SCORE.INTRA.REPUL.0>
0

>  <SCORE.INTRA.SOLV>
-1.0908

>  <SCORE.INTRA.SOLV.lig_0>
-46.1043

>  <SCORE.INTRA.VDW>
-0.462828

>  <SCORE.INTRA.VDW.0>
-0.545445

>  <SCORE.INTRA.norm>
-0.649594

>  <SCORE.RESTR>
0.00709419

>  <SCORE.RESTR.CAVITY>
0.00709419

>  <SCORE.RESTR.norm>
0.000506728

>  <SCORE.SYSTEM>
0

>  <SCORE.SYSTEM.CONST>
0

>  <SCORE.SYSTEM.DIHEDRAL>
0

>  <SCORE.SYSTEM.SOLV>
0

>  <SCORE.SYSTEM.norm>
0

>  <SCORE.heavy>
14

>  <SCORE.norm>
-0.355393

>  <RMSD>
8.527

$$$$
ligand
 OpenBabel11021811513D
libRbt.so/2013.1/901 2013/11/27
 14 13  0  0  0  0  0  0  0  0999 V2000
   24.2745   46.9639   44.7831 N   0  0  0  0  0  0  0  0  0  0  0  0
   24.3327   46.6547   43.3636 C   0  0  0  0  0  0  0  0  0  0  0  0
   22.9770   46.1573   42.8732 C   0  0  0  0  0  0  0  0  0  0  0  0
   21.9294   47.2631   42.9367 C   0  0  0  0  0  0  0  0  0  0  0  0
   22.2762   48.4215   42.1188 N   0  0  0  0  0  0  0  0  0  0  0  0
   22.4147   48.2960   40.6776 C   0  0  0  0  0  0  0  0  0  0  0  0
   22.9500   49.5643   40.0221 C   0  0  0  0  0  0  0  0  0  0  0  0
   21.8959   50.6644   40.0760 C   0  0  0  0  0  0  0  0  0  0  0  0
   22.4399   51.9332   39.4284 C   0  0  0  0  0  0  0  0  0  0  0  0
   22.7405   51.7416   38.0200 N   0  0  0  0  0  0  0  0  0  0  0  0
   23.2697   52.8546   37.2430 C   0  0  0  0  0  0  0  0  0  0  0  0
   23.5154   52.5437   35.7681 C   0  0  0  0  0  0  0  0  0  0  0  0
   23.9661   53.7991   35.0193 C   0  0  0  0  0  0  0  0  0  0  0  0
   24.2215   53.4872   33.6234 N   0  0  0  0  0  0  0  0  0  0  0  0
  1  2  1  0  0  0  0
  2  3  1  0  0  0  0
  3  4  1  0  0  0  0
  4  5  1  0  0  0  0
  5  6  1  0  0  0  0
  6  7  1  0  0  0  0
  7  8  1  0  0  0  0
  8  9  1  0  0  0  0
  9 10  1  0  0  0  0
 10 11  1  0  0  0  0
 11 12  1  0  0  0  0
 12 13  1  0  0  0  0
 13 14  1  0  0  0  0
M  END
>  <CHROM.1>
66.55922765,59.95270497,62.35379235,-172.72676963,-70.00248630,179.59254610
62.70734323,179.95376255,-178.60800251,175.64903966,178.92060112,23.08585117
50.02454433,39.71098356,-1.61965725,0.50282095,-0.87762735

>  <Name>
ligand

>  <RI>
0

>  <Rbt.Current_Directory>
/home/itssahil/PROJECTS/Mol_Feturizer/New_Systems/rnas/4P5J

>  <Rbt.Executable>
rbdock ($Id: //depot/dev/client3/rdock/2013.1/src/exe/rbdock.cxx#4 $)

>  <Rbt.Library>
libRbt.so (2013.1, Build901 2013/11/27)

>  <Rbt.Parameter_File>
/export/apps/rDock/src/rDock_2013.1_src/data/scripts/dock_solv.prm

>  <Rbt.Receptor>
prm/pocket_docking_8.prm

>  <SCORE>
-5.10406

>  <SCORE.INTER>
3.35874

>  <SCORE.INTER.CONST>
1

>  <SCORE.INTER.POLAR>
0

>  <SCORE.INTER.ROT>
11

>  <SCORE.INTER.SOLV>
7.78087

>  <SCORE.INTER.VDW>
-11.2878

>  <SCORE.INTER.norm>
0.23991

>  <SCORE.INTRA>
-8.4628

>  <SCORE.INTRA.DIHEDRAL>
-16.8389

>  <SCORE.INTRA.DIHEDRAL.0>
17.5233

>  <SCORE.INTRA.POLAR>
0

>  <SCORE.INTRA.POLAR.0>
0

>  <SCORE.INTRA.REPUL>
0

>  <SCORE.INTRA.REPUL.0>
0

>  <SCORE.INTRA.SOLV>
-0.179874

>  <SCORE.INTRA.SOLV.lig_0>
-46.1043

>  <SCORE.INTRA.VDW>
0.0465971

>  <SCORE.INTRA.VDW.0>
-0.545445

>  <SCORE.INTRA.norm>
-0.604486

>  <SCORE.RESTR>
0

>  <SCORE.RESTR.CAVITY>
0

>  <SCORE.RESTR.norm>
0

>  <SCORE.SYSTEM>
0

>  <SCORE.SYSTEM.CONST>
0

>  <SCORE.SYSTEM.DIHEDRAL>
0

>  <SCORE.SYSTEM.SOLV>
0

>  <SCORE.SYSTEM.norm>
0

>  <SCORE.heavy>
14

>  <SCORE.norm>
-0.364575

>  <RMSD>
8.571

$$$$
ligand
 OpenBabel11021811513D
libRbt.so/2013.1/901 2013/11/27
 14 13  0  0  0  0  0  0  0  0999 V2000
   25.3421   53.0734   33.9471 N   0  0  0  0  0  0  0  0  0  0  0  0
   24.1187   52.9765   34.7268 C   0  0  0  0  0  0  0  0  0  0  0  0
   24.3865   52.2620   36.0472 C   0  0  0  0  0  0  0  0  0  0  0  0
   23.1345   52.2243   36.9162 C   0  0  0  0  0  0  0  0  0  0  0  0
   23.3660   51.6081   38.2193 N   0  0  0  0  0  0  0  0  0  0  0  0
   22.2821   51.4725   39.1777 C   0  0  0  0  0  0  0  0  0  0  0  0
   22.4906   50.3138   40.1465 C   0  0  0  0  0  0  0  0  0  0  0  0
   21.2087   50.0504   40.9288 C   0  0  0  0  0  0  0  0  0  0  0  0
   21.4512   48.9585   41.9652 C   0  0  0  0  0  0  0  0  0  0  0  0
   21.9086   47.7208   41.3575 N   0  0  0  0  0  0  0  0  0  0  0  0
   22.4302   46.6569   42.2053 C   0  0  0  0  0  0  0  0  0  0  0  0
   23.7167   47.0070   42.9500 C   0  0  0  0  0  0  0  0  0  0  0  0
   24.0803   45.9055   43.9472 C   0  0  0  0  0  0  0  0  0  0  0  0
   25.2597   46.2841   44.7066 N   0  0  0  0  0  0  0  0  0  0  0  0
  1  2  1  0  0  0  0
  2  3  1  0  0  0  0
  3  4  1  0  0  0  0
  4  5  1  0  0  0  0
  5  6  1  0  0  0  0
  6  7  1  0  0  0  0
  7  8  1  0  0  0  0
  8  9  1  0  0  0  0
  9 10  1  0  0  0  0
 10 11  1  0  0  0  0
 11 12  1  0  0  0  0
 12 13  1  0  0  0  0
 13 14  1  0  0  0  0
M  END
>  <CHROM.1>
176.58548002,-177.06732280,-179.37362434,153.86019816,-168.57047529,-175.97097419
-58.19899087,168.41532604,-64.59095197,172.50209756,-176.59934442,23.22654544
49.75102267,39.80305093,-1.49305033,-0.31002876,2.24176096

>  <Name>
ligand

>  <RI>
0

>  <Rbt.Current_Directory>
/home/itssahil/PROJECTS/Mol_Feturizer/New_Systems/rnas/4P5J

>  <Rbt.Executable>
rbdock ($Id: //depot/dev/client3/rdock/2013.1/src/exe/rbdock.cxx#4 $)

>  <Rbt.Library>
libRbt.so (2013.1, Build901 2013/11/27)

>  <Rbt.Parameter_File>
/export/apps/rDock/src/rDock_2013.1_src/data/scripts/dock_solv.prm

>  <Rbt.Receptor>
prm/pocket_docking_8.prm

>  <SCORE>
-6.20816

>  <SCORE.INTER>
3.1536

>  <SCORE.INTER.CONST>
1

>  <SCORE.INTER.POLAR>
0

>  <SCORE.INTER.ROT>
11

>  <SCORE.INTER.SOLV>
8.8113

>  <SCORE.INTER.VDW>
-11.768

>  <SCORE.INTER.norm>
0.225257

>  <SCORE.INTRA>
-9.36176

>  <SCORE.INTRA.DIHEDRAL>
-16.0293

>  <SCORE.INTRA.DIHEDRAL.0>
17.5233

>  <SCORE.INTRA.POLAR>
0

>  <SCORE.INTRA.POLAR.0>
0

>  <SCORE.INTRA.REPUL>
0

>  <SCORE.INTRA.REPUL.0>
0

>  <SCORE.INTRA.SOLV>
-2.2848

>  <SCORE.INTRA.SOLV.lig_0>
-46.1043

>  <SCORE.INTRA.VDW>
-0.20472

>  <SCORE.INTRA.VDW.0>
-0.545445

>  <SCORE.INTRA.norm>
-0.668697

>  <SCORE.RESTR>
0

>  <SCORE.RESTR.CAVITY>
0

>  <SCORE.RESTR.norm>
0

>  <SCORE.SYSTEM>
0

>  <SCORE.SYSTEM.CONST>
0

>  <SCORE.SYSTEM.DIHEDRAL>
0

>  <SCORE.SYSTEM.SOLV>
0

>  <SCORE.SYSTEM.norm>
0

>  <SCORE.heavy>
14

>  <SCORE.norm>
-0.44344

>  <RMSD>
8.572

$$$$
ligand
 OpenBabel11021811513D
libRbt.so/2013.1/901 2013/11/27
 14 13  0  0  0  0  0  0  0  0999 V2000
   24.0282   54.1481   33.7340 N   0  0  0  0  0  0  0  0  0  0  0  0
   24.6086   52.9970   33.0617 C   0  0  0  0  0  0  0  0  0  0  0  0
   25.5054   52.2198   34.0196 C   0  0  0  0  0  0  0  0  0  0  0  0
   24.6885   51.5599   35.1248 C   0  0  0  0  0  0  0  0  0  0  0  0
   25.5182   50.8856   36.1188 N   0  0  0  0  0  0  0  0  0  0  0  0
   24.9112   50.1091   37.1867 C   0  0  0  0  0  0  0  0  0  0  0  0
   24.4198   50.9746   38.3417 C   0  0  0  0  0  0  0  0  0  0  0  0
   23.2677   51.8589   37.8779 C   0  0  0  0  0  0  0  0  0  0  0  0
   22.8552   52.8019   39.0029 C   0  0  0  0  0  0  0  0  0  0  0  0
   22.2650   52.0900   40.1233 N   0  0  0  0  0  0  0  0  0  0  0  0
   21.4311   52.8148   41.0730 C   0  0  0  0  0  0  0  0  0  0  0  0
   20.9205   51.9770   42.2434 C   0  0  0  0  0  0  0  0  0  0  0  0
   19.9712   52.7957   43.1200 C   0  0  0  0  0  0  0  0  0  0  0  0
   20.6944   53.8726   43.7746 N   0  0  0  0  0  0  0  0  0  0  0  0
  1  2  1  0  0  0  0
  2  3  1  0  0  0  0
  3  4  1  0  0  0  0
  4  5  1  0  0  0  0
  5  6  1  0  0  0  0
  6  7  1  0  0  0  0
  7  8  1  0  0  0  0
  8  9  1  0  0  0  0
  9 10  1  0  0  0  0
 10 11  1  0  0  0  0
 11 12  1  0  0  0  0
 12 13  1  0  0  0  0
 13 14  1  0  0  0  0
M  END
>  <CHROM.1>
67.69333279,-175.84210511,-174.99074985,-80.75848193,66.11278393,-175.42566754
-67.10727994,-160.07215157,-177.25474125,-175.60448626,-66.51508870,23.22039526
52.22157505,38.20007931,0.78035629,0.88822734,-0.98035934

>  <Name>
ligand

>  <RI>
0

>  <Rbt.Current_Directory>
/home/itssahil/PROJECTS/Mol_Feturizer/New_Systems/rnas/4P5J

>  <Rbt.Executable>
rbdock ($Id: //depot/dev/client3/rdock/2013.1/src/exe/rbdock.cxx#4 $)

>  <Rbt.Library>
libRbt.so (2013.1, Build901 2013/11/27)

>  <Rbt.Parameter_File>
/export/apps/rDock/src/rDock_2013.1_src/data/scripts/dock_solv.prm

>  <Rbt.Receptor>
prm/pocket_docking_8.prm

>  <SCORE>
-3.51433

>  <SCORE.INTER>
4.50756

>  <SCORE.INTER.CONST>
1

>  <SCORE.INTER.POLAR>
0

>  <SCORE.INTER.ROT>
11

>  <SCORE.INTER.SOLV>
7.95165

>  <SCORE.INTER.VDW>
-10.5788

>  <SCORE.INTER.norm>
0.321968

>  <SCORE.INTRA>
-8.02188

>  <SCORE.INTRA.DIHEDRAL>
-15.9434

>  <SCORE.INTRA.DIHEDRAL.0>
17.5233

>  <SCORE.INTRA.POLAR>
0

>  <SCORE.INTRA.POLAR.0>
0

>  <SCORE.INTRA.REPUL>
0

>  <SCORE.INTRA.REPUL.0>
0

>  <SCORE.INTRA.SOLV>
-0.441491

>  <SCORE.INTRA.SOLV.lig_0>
-46.1043

>  <SCORE.INTRA.VDW>
0.170542

>  <SCORE.INTRA.VDW.0>
-0.545445

>  <SCORE.INTRA.norm>
-0.572992

>  <SCORE.RESTR>
0

>  <SCORE.RESTR.CAVITY>
0

>  <SCORE.RESTR.norm>
0

>  <SCORE.SYSTEM>
0

>  <SCORE.SYSTEM.CONST>
0

>  <SCORE.SYSTEM.DIHEDRAL>
0

>  <SCORE.SYSTEM.SOLV>
0

>  <SCORE.SYSTEM.norm>
0

>  <SCORE.heavy>
14

>  <SCORE.norm>
-0.251023

>  <RMSD>
8.606

$$$$
ligand
 OpenBabel11021811513D
libRbt.so/2013.1/901 2013/11/27
 14 13  0  0  0  0  0  0  0  0999 V2000
   25.7946   47.6016   44.3608 N   0  0  0  0  0  0  0  0  0  0  0  0
   25.3490   47.7668   42.9867 C   0  0  0  0  0  0  0  0  0  0  0  0
   24.2101   46.8005   42.6788 C   0  0  0  0  0  0  0  0  0  0  0  0
   23.7794   46.9047   41.2201 C   0  0  0  0  0  0  0  0  0  0  0  0
   23.0927   48.1573   40.9188 N   0  0  0  0  0  0  0  0  0  0  0  0
   21.6440   48.2445   40.9939 C   0  0  0  0  0  0  0  0  0  0  0  0
   21.1639   49.4878   41.7346 C   0  0  0  0  0  0  0  0  0  0  0  0
   21.4271   50.7312   40.8926 C   0  0  0  0  0  0  0  0  0  0  0  0
   21.1168   51.9821   41.7075 C   0  0  0  0  0  0  0  0  0  0  0  0
   21.4171   53.1998   40.9743 N   0  0  0  0  0  0  0  0  0  0  0  0
   21.0268   54.4871   41.5339 C   0  0  0  0  0  0  0  0  0  0  0  0
   21.2124   55.6751   40.5924 C   0  0  0  0  0  0  0  0  0  0  0  0
   20.7444   56.9702   41.2583 C   0  0  0  0  0  0  0  0  0  0  0  0
   20.9893   58.1030   40.3819 N   0  0  0  0  0  0  0  0  0  0  0  0
  1  2  1  0  0  0  0
  2  3  1  0  0  0  0
  3  4  1  0  0  0  0
  4  5  1  0  0  0  0
  5  6  1  0  0  0  0
  6  7  1  0  0  0  0
  7  8  1  0  0  0  0
  8  9  1  0  0  0  0
  9 10  1  0  0  0  0
 10 11  1  0  0  0  0
 11 12  1  0  0  0  0
 12 13  1  0  0  0  0
 13 14  1  0  0  0  0
M  END
>  <CHROM.1>
-176.89502168,-70.19757439,-92.74666979,133.89021256,70.81907492,-172.58436504
177.01939497,172.37333051,-171.69591470,178.62873805,177.04565171,22.35463422
51.15058313,41.58815754,-1.14764079,-0.60582649,0.07893249

>  <Name>
ligand

>  <RI>
0

>  <Rbt.Current_Directory>
/home/itssahil/PROJECTS/Mol_Feturizer/New_Systems/rnas/4P5J

>  <Rbt.Executable>
rbdock ($Id: //depot/dev/client3/rdock/2013.1/src/exe/rbdock.cxx#4 $)

>  <Rbt.Library>
libRbt.so (2013.1, Build901 2013/11/27)

>  <Rbt.Parameter_File>
/export/apps/rDock/src/rDock_2013.1_src/data/scripts/dock_solv.prm

>  <Rbt.Receptor>
prm/pocket_docking_7.prm

>  <SCORE>
-5.25155

>  <SCORE.INTER>
3.79793

>  <SCORE.INTER.CONST>
1

>  <SCORE.INTER.POLAR>
0

>  <SCORE.INTER.ROT>
11

>  <SCORE.INTER.SOLV>
6.83677

>  <SCORE.INTER.VDW>
-10.6803

>  <SCORE.INTER.norm>
0.27128

>  <SCORE.INTRA>
-9.0547

>  <SCORE.INTRA.DIHEDRAL>
-14.533

>  <SCORE.INTRA.DIHEDRAL.0>
17.5233

>  <SCORE.INTRA.POLAR>
0

>  <SCORE.INTRA.POLAR.0>
0

>  <SCORE.INTRA.REPUL>
0

>  <SCORE.INTRA.REPUL.0>
0

>  <SCORE.INTRA.SOLV>
-2.0751

>  <SCORE.INTRA.SOLV.lig_0>
-46.1043

>  <SCORE.INTRA.VDW>
-0.750666

>  <SCORE.INTRA.VDW.0>
-0.545445

>  <SCORE.INTRA.norm>
-0.646764

>  <SCORE.RESTR>
0.00522387

>  <SCORE.RESTR.CAVITY>
0.00522387

>  <SCORE.RESTR.norm>
0.000373133

>  <SCORE.SYSTEM>
0

>  <SCORE.SYSTEM.CONST>
0

>  <SCORE.SYSTEM.DIHEDRAL>
0

>  <SCORE.SYSTEM.SOLV>
0

>  <SCORE.SYSTEM.norm>
0

>  <SCORE.heavy>
14

>  <SCORE.norm>
-0.375111

>  <RMSD>
8.613

$$$$
ligand
 OpenBabel11021811513D
libRbt.so/2013.1/901 2013/11/27
 14 13  0  0  0  0  0  0  0  0999 V2000
   21.6319   53.3163   43.0023 N   0  0  0  0  0  0  0  0  0  0  0  0
   21.2839   53.5890   41.6172 C   0  0  0  0  0  0  0  0  0  0  0  0
   21.8730   52.5205   40.7022 C   0  0  0  0  0  0  0  0  0  0  0  0
   21.2200   51.1649   40.9478 C   0  0  0  0  0  0  0  0  0  0  0  0
   21.8050   50.0983   40.1408 N   0  0  0  0  0  0  0  0  0  0  0  0
   23.0890   49.5187   40.4974 C   0  0  0  0  0  0  0  0  0  0  0  0
   23.9536   49.2031   39.2818 C   0  0  0  0  0  0  0  0  0  0  0  0
   24.2186   50.4757   38.4852 C   0  0  0  0  0  0  0  0  0  0  0  0
   25.0287   50.1442   37.2366 C   0  0  0  0  0  0  0  0  0  0  0  0
   25.1504   51.2853   36.3458 N   0  0  0  0  0  0  0  0  0  0  0  0
   24.0005   51.7010   35.5535 C   0  0  0  0  0  0  0  0  0  0  0  0
   24.1431   53.0693   34.8905 C   0  0  0  0  0  0  0  0  0  0  0  0
   24.2374   54.1733   35.9451 C   0  0  0  0  0  0  0  0  0  0  0  0
   24.3828   55.4693   35.3044 N   0  0  0  0  0  0  0  0  0  0  0  0
  1  2  1  0  0  0  0
  2  3  1  0  0  0  0
  3  4  1  0  0  0  0
  4  5  1  0  0  0  0
  5  6  1  0  0  0  0
  6  7  1  0  0  0  0
  7  8  1  0  0  0  0
  8  9  1  0  0  0  0
  9 10  1  0  0  0  0
 10 11  1  0  0  0  0
 11 12  1  0  0  0  0
 12 13  1  0  0  0  0
 13 14  1  0  0  0  0
M  END
>  <CHROM.1>
66.89461770,-176.96708967,76.67961323,-141.60166155,59.43235983,-177.38825092
171.95078041,-74.11813470,167.49036645,-64.55092731,179.57497066,23.28700635
51.83749850,38.56784617,2.54729939,-1.05141141,2.69200162

>  <Name>
ligand

>  <RI>
0

>  <Rbt.Current_Directory>
/home/itssahil/PROJECTS/Mol_Feturizer/New_Systems/rnas/4P5J

>  <Rbt.Executable>
rbdock ($Id: //depot/dev/client3/rdock/2013.1/src/exe/rbdock.cxx#4 $)

>  <Rbt.Library>
libRbt.so (2013.1, Build901 2013/11/27)

>  <Rbt.Parameter_File>
/export/apps/rDock/src/rDock_2013.1_src/data/scripts/dock_solv.prm

>  <Rbt.Receptor>
prm/pocket_docking_7.prm

>  <SCORE>
-5.73518

>  <SCORE.INTER>
2.95533

>  <SCORE.INTER.CONST>
1

>  <SCORE.INTER.POLAR>
0

>  <SCORE.INTER.ROT>
11

>  <SCORE.INTER.SOLV>
7.03988

>  <SCORE.INTER.VDW>
-11.3097

>  <SCORE.INTER.norm>
0.211095

>  <SCORE.INTRA>
-8.69052

>  <SCORE.INTRA.DIHEDRAL>
-15.6098

>  <SCORE.INTRA.DIHEDRAL.0>
17.5233

>  <SCORE.INTRA.POLAR>
0

>  <SCORE.INTRA.POLAR.0>
0

>  <SCORE.INTRA.REPUL>
0

>  <SCORE.INTRA.REPUL.0>
0

>  <SCORE.INTRA.SOLV>
-1.19737

>  <SCORE.INTRA.SOLV.lig_0>
-46.1043

>  <SCORE.INTRA.VDW>
-0.286907

>  <SCORE.INTRA.VDW.0>
-0.545445

>  <SCORE.INTRA.norm>
-0.620751

>  <SCORE.RESTR>
0

>  <SCORE.RESTR.CAVITY>
0

>  <SCORE.RESTR.norm>
0

>  <SCORE.SYSTEM>
0

>  <SCORE.SYSTEM.CONST>
0

>  <SCORE.SYSTEM.DIHEDRAL>
0

>  <SCORE.SYSTEM.SOLV>
0

>  <SCORE.SYSTEM.norm>
0

>  <SCORE.heavy>
14

>  <SCORE.norm>
-0.409656

>  <RMSD>
8.638

$$$$
ligand
 OpenBabel11021811513D
libRbt.so/2013.1/901 2013/11/27
 14 13  0  0  0  0  0  0  0  0999 V2000
   23.5162   58.2655   35.8847 N   0  0  0  0  0  0  0  0  0  0  0  0
   24.0168   57.1167   35.1474 C   0  0  0  0  0  0  0  0  0  0  0  0
   23.1220   55.9044   35.3829 C   0  0  0  0  0  0  0  0  0  0  0  0
   23.6555   54.6768   34.6532 C   0  0  0  0  0  0  0  0  0  0  0  0
   22.8781   53.4716   34.9260 N   0  0  0  0  0  0  0  0  0  0  0  0
   22.8485   52.8953   36.2597 C   0  0  0  0  0  0  0  0  0  0  0  0
   23.8296   51.7401   36.4268 C   0  0  0  0  0  0  0  0  0  0  0  0
   23.8404   51.2702   37.8772 C   0  0  0  0  0  0  0  0  0  0  0  0
   24.7232   50.0344   38.0132 C   0  0  0  0  0  0  0  0  0  0  0  0
   24.7144   49.5031   39.3653 N   0  0  0  0  0  0  0  0  0  0  0  0
   23.5876   48.6931   39.8090 C   0  0  0  0  0  0  0  0  0  0  0  0
   22.8889   49.2055   41.0665 C   0  0  0  0  0  0  0  0  0  0  0  0
   22.2125   50.5510   40.7983 C   0  0  0  0  0  0  0  0  0  0  0  0
   21.6125   51.0640   42.0181 N   0  0  0  0  0  0  0  0  0  0  0  0
  1  2  1  0  0  0  0
  2  3  1  0  0  0  0
  3  4  1  0  0  0  0
  4  5  1  0  0  0  0
  5  6  1  0  0  0  0
  6  7  1  0  0  0  0
  7  8  1  0  0  0  0
  8  9  1  0  0  0  0
  9 10  1  0  0  0  0
 10 11  1  0  0  0  0
 11 12  1  0  0  0  0
 12 13  1  0  0  0  0
 13 14  1  0  0  0  0
M  END
>  <CHROM.1>
-178.18768116,176.08488326,-65.76674883,-97.64933336,174.74201566,174.77656215
-177.04449129,78.94869290,-123.88115472,65.82320353,-176.94911342,23.38910494
52.45630055,37.68759124,1.48146658,1.13053469,-0.58606547

>  <Name>
ligand

>  <RI>
0

>  <Rbt.Current_Directory>
/home/itssahil/PROJECTS/Mol_Feturizer/New_Systems/rnas/4P5J

>  <Rbt.Executable>
rbdock ($Id: //depot/dev/client3/rdock/2013.1/src/exe/rbdock.cxx#4 $)

>  <Rbt.Library>
libRbt.so (2013.1, Build901 2013/11/27)

>  <Rbt.Parameter_File>
/export/apps/rDock/src/rDock_2013.1_src/data/scripts/dock_solv.prm

>  <Rbt.Receptor>
prm/pocket_docking_8.prm

>  <SCORE>
-5.22612

>  <SCORE.INTER>
3.63187

>  <SCORE.INTER.CONST>
1

>  <SCORE.INTER.POLAR>
0

>  <SCORE.INTER.ROT>
11

>  <SCORE.INTER.SOLV>
10.043

>  <SCORE.INTER.VDW>
-11.8598

>  <SCORE.INTER.norm>
0.25942

>  <SCORE.INTRA>
-8.858

>  <SCORE.INTRA.DIHEDRAL>
-14.7194

>  <SCORE.INTRA.DIHEDRAL.0>
17.5233

>  <SCORE.INTRA.POLAR>
0

>  <SCORE.INTRA.POLAR.0>
0

>  <SCORE.INTRA.REPUL>
0

>  <SCORE.INTRA.REPUL.0>
0

>  <SCORE.INTRA.SOLV>
-2.37837

>  <SCORE.INTRA.SOLV.lig_0>
-46.1043

>  <SCORE.INTRA.VDW>
-0.309124

>  <SCORE.INTRA.VDW.0>
-0.545445

>  <SCORE.INTRA.norm>
-0.632714

>  <SCORE.RESTR>
0

>  <SCORE.RESTR.CAVITY>
0

>  <SCORE.RESTR.norm>
0

>  <SCORE.SYSTEM>
0

>  <SCORE.SYSTEM.CONST>
0

>  <SCORE.SYSTEM.DIHEDRAL>
0

>  <SCORE.SYSTEM.SOLV>
0

>  <SCORE.SYSTEM.norm>
0

>  <SCORE.heavy>
14

>  <SCORE.norm>
-0.373294

>  <RMSD>
8.685

$$$$
ligand
 OpenBabel11021811513D
libRbt.so/2013.1/901 2013/11/27
 14 13  0  0  0  0  0  0  0  0999 V2000
   20.4434   47.4609   43.4846 N   0  0  0  0  0  0  0  0  0  0  0  0
   21.2630   47.4679   42.2838 C   0  0  0  0  0  0  0  0  0  0  0  0
   22.5588   46.6996   42.5216 C   0  0  0  0  0  0  0  0  0  0  0  0
   23.4938   46.8133   41.3229 C   0  0  0  0  0  0  0  0  0  0  0  0
   24.0050   48.1668   41.1278 N   0  0  0  0  0  0  0  0  0  0  0  0
   23.4521   49.0256   40.0941 C   0  0  0  0  0  0  0  0  0  0  0  0
   22.5530   50.1222   40.6544 C   0  0  0  0  0  0  0  0  0  0  0  0
   22.1173   51.0622   39.5360 C   0  0  0  0  0  0  0  0  0  0  0  0
   23.3063   51.8941   39.0679 C   0  0  0  0  0  0  0  0  0  0  0  0
   22.9476   52.8025   37.9924 N   0  0  0  0  0  0  0  0  0  0  0  0
   22.9895   52.3324   36.6141 C   0  0  0  0  0  0  0  0  0  0  0  0
   23.0137   53.4395   35.5624 C   0  0  0  0  0  0  0  0  0  0  0  0
   24.3015   54.2580   35.6695 C   0  0  0  0  0  0  0  0  0  0  0  0
   24.3137   55.3094   34.6667 N   0  0  0  0  0  0  0  0  0  0  0  0
  1  2  1  0  0  0  0
  2  3  1  0  0  0  0
  3  4  1  0  0  0  0
  4  5  1  0  0  0  0
  5  6  1  0  0  0  0
  6  7  1  0  0  0  0
  7  8  1  0  0  0  0
  8  9  1  0  0  0  0
  9 10  1  0  0  0  0
 10 11  1  0  0  0  0
 11 12  1  0  0  0  0
 12 13  1  0  0  0  0
 13 14  1  0  0  0  0
M  END
>  <CHROM.1>
-174.28507750,67.36023856,-102.51784052,105.60868668,174.59528675,-70.42139189
179.56337781,-86.59632744,-162.30560583,64.77343782,-179.90991395,22.91132345
50.48942795,39.32844086,1.75637015,-0.48832233,2.45740822

>  <Name>
ligand

>  <RI>
0

>  <Rbt.Current_Directory>
/home/itssahil/PROJECTS/Mol_Feturizer/New_Systems/rnas/4P5J

>  <Rbt.Executable>
rbdock ($Id: //depot/dev/client3/rdock/2013.1/src/exe/rbdock.cxx#4 $)

>  <Rbt.Library>
libRbt.so (2013.1, Build901 2013/11/27)

>  <Rbt.Parameter_File>
/export/apps/rDock/src/rDock_2013.1_src/data/scripts/dock_solv.prm

>  <Rbt.Receptor>
prm/pocket_docking_8.prm

>  <SCORE>
-5.08576

>  <SCORE.INTER>
2.54633

>  <SCORE.INTER.CONST>
1

>  <SCORE.INTER.POLAR>
0

>  <SCORE.INTER.ROT>
11

>  <SCORE.INTER.SOLV>
8.4176

>  <SCORE.INTER.VDW>
-12.0416

>  <SCORE.INTER.norm>
0.181881

>  <SCORE.INTRA>
-7.63209

>  <SCORE.INTRA.DIHEDRAL>
-13.821

>  <SCORE.INTRA.DIHEDRAL.0>
17.5233

>  <SCORE.INTRA.POLAR>
0

>  <SCORE.INTRA.POLAR.0>
0

>  <SCORE.INTRA.REPUL>
0

>  <SCORE.INTRA.REPUL.0>
0

>  <SCORE.INTRA.SOLV>
-1.53615

>  <SCORE.INTRA.SOLV.lig_0>
-46.1043

>  <SCORE.INTRA.VDW>
0.0465018

>  <SCORE.INTRA.VDW.0>
-0.545445

>  <SCORE.INTRA.norm>
-0.54515

>  <SCORE.RESTR>
0

>  <SCORE.RESTR.CAVITY>
0

>  <SCORE.RESTR.norm>
0

>  <SCORE.SYSTEM>
0

>  <SCORE.SYSTEM.CONST>
0

>  <SCORE.SYSTEM.DIHEDRAL>
0

>  <SCORE.SYSTEM.SOLV>
0

>  <SCORE.SYSTEM.norm>
0

>  <SCORE.heavy>
14

>  <SCORE.norm>
-0.363269

>  <RMSD>
8.695

$$$$
ligand
 OpenBabel11021811513D
libRbt.so/2013.1/901 2013/11/27
 14 13  0  0  0  0  0  0  0  0999 V2000
   21.0785   53.4550   43.5009 N   0  0  0  0  0  0  0  0  0  0  0  0
   20.4354   52.8646   42.3382 C   0  0  0  0  0  0  0  0  0  0  0  0
   21.4232   51.9908   41.5724 C   0  0  0  0  0  0  0  0  0  0  0  0
   21.8090   50.7576   42.3815 C   0  0  0  0  0  0  0  0  0  0  0  0
   22.8025   49.9254   41.7094 N   0  0  0  0  0  0  0  0  0  0  0  0
   22.4256   49.0822   40.5874 C   0  0  0  0  0  0  0  0  0  0  0  0
   23.5640   48.8753   39.5944 C   0  0  0  0  0  0  0  0  0  0  0  0
   23.9517   50.2064   38.9600 C   0  0  0  0  0  0  0  0  0  0  0  0
   24.9854   49.9743   37.8635 C   0  0  0  0  0  0  0  0  0  0  0  0
   25.4067   51.2162   37.2384 N   0  0  0  0  0  0  0  0  0  0  0  0
   24.5875   51.8016   36.1854 C   0  0  0  0  0  0  0  0  0  0  0  0
   23.5174   52.7747   36.6755 C   0  0  0  0  0  0  0  0  0  0  0  0
   22.8650   53.4986   35.4964 C   0  0  0  0  0  0  0  0  0  0  0  0
   23.8266   54.3758   34.8507 N   0  0  0  0  0  0  0  0  0  0  0  0
  1  2  1  0  0  0  0
  2  3  1  0  0  0  0
  3  4  1  0  0  0  0
  4  5  1  0  0  0  0
  5  6  1  0  0  0  0
  6  7  1  0  0  0  0
  7  8  1  0  0  0  0
  8  9  1  0  0  0  0
  9 10  1  0  0  0  0
 10 11  1  0  0  0  0
 11 12  1  0  0  0  0
 12 13  1  0  0  0  0
 13 14  1  0  0  0  0
M  END
>  <CHROM.1>
67.58900264,-177.29999448,-75.06206752,150.11585977,-63.66983647,-174.03370004
-179.08577798,-82.36537990,89.85994390,171.01676739,-66.94227514,23.04836866
51.48530472,39.21095160,2.29147241,-0.96206550,2.35988525

>  <Name>
ligand

>  <RI>
0

>  <Rbt.Current_Directory>
/home/itssahil/PROJECTS/Mol_Feturizer/New_Systems/rnas/4P5J

>  <Rbt.Executable>
rbdock ($Id: //depot/dev/client3/rdock/2013.1/src/exe/rbdock.cxx#4 $)

>  <Rbt.Library>
libRbt.so (2013.1, Build901 2013/11/27)

>  <Rbt.Parameter_File>
/export/apps/rDock/src/rDock_2013.1_src/data/scripts/dock_solv.prm

>  <Rbt.Receptor>
prm/pocket_docking_8.prm

>  <SCORE>
-5.01601

>  <SCORE.INTER>
2.97422

>  <SCORE.INTER.CONST>
1

>  <SCORE.INTER.POLAR>
0

>  <SCORE.INTER.ROT>
11

>  <SCORE.INTER.SOLV>
5.80843

>  <SCORE.INTER.VDW>
-10.8867

>  <SCORE.INTER.norm>
0.212444

>  <SCORE.INTRA>
-7.99022

>  <SCORE.INTRA.DIHEDRAL>
-14.863

>  <SCORE.INTRA.DIHEDRAL.0>
17.5233

>  <SCORE.INTRA.POLAR>
0

>  <SCORE.INTRA.POLAR.0>
0

>  <SCORE.INTRA.REPUL>
0

>  <SCORE.INTRA.REPUL.0>
0

>  <SCORE.INTRA.SOLV>
-0.769574

>  <SCORE.INTRA.SOLV.lig_0>
-46.1043

>  <SCORE.INTRA.VDW>
-0.173927

>  <SCORE.INTRA.VDW.0>
-0.545445

>  <SCORE.INTRA.norm>
-0.57073

>  <SCORE.RESTR>
0

>  <SCORE.RESTR.CAVITY>
0

>  <SCORE.RESTR.norm>
0

>  <SCORE.SYSTEM>
0

>  <SCORE.SYSTEM.CONST>
0

>  <SCORE.SYSTEM.DIHEDRAL>
0

>  <SCORE.SYSTEM.SOLV>
0

>  <SCORE.SYSTEM.norm>
0

>  <SCORE.heavy>
14

>  <SCORE.norm>
-0.358286

>  <RMSD>
8.714

$$$$
ligand
 OpenBabel11021811513D
libRbt.so/2013.1/901 2013/11/27
 14 13  0  0  0  0  0  0  0  0999 V2000
   20.0765   54.1088   44.3311 N   0  0  0  0  0  0  0  0  0  0  0  0
   19.8910   53.3692   43.0931 C   0  0  0  0  0  0  0  0  0  0  0  0
   21.2326   52.8684   42.5685 C   0  0  0  0  0  0  0  0  0  0  0  0
   21.0487   51.9961   41.3317 C   0  0  0  0  0  0  0  0  0  0  0  0
   22.3117   51.4975   40.7956 N   0  0  0  0  0  0  0  0  0  0  0  0
   22.4424   51.1771   39.3842 C   0  0  0  0  0  0  0  0  0  0  0  0
   22.8464   52.3803   38.5394 C   0  0  0  0  0  0  0  0  0  0  0  0
   22.9672   51.9730   37.0751 C   0  0  0  0  0  0  0  0  0  0  0  0
   23.4662   53.1542   36.2500 C   0  0  0  0  0  0  0  0  0  0  0  0
   23.5631   52.8310   34.8369 N   0  0  0  0  0  0  0  0  0  0  0  0
   24.7239   52.0989   34.3478 C   0  0  0  0  0  0  0  0  0  0  0  0
   25.8840   52.9775   33.8847 C   0  0  0  0  0  0  0  0  0  0  0  0
   26.9948   52.1250   33.2689 C   0  0  0  0  0  0  0  0  0  0  0  0
   28.0688   52.9740   32.7823 N   0  0  0  0  0  0  0  0  0  0  0  0
  1  2  1  0  0  0  0
  2  3  1  0  0  0  0
  3  4  1  0  0  0  0
  4  5  1  0  0  0  0
  5  6  1  0  0  0  0
  6  7  1  0  0  0  0
  7  8  1  0  0  0  0
  8  9  1  0  0  0  0
  9 10  1  0  0  0  0
 10 11  1  0  0  0  0
 11 12  1  0  0  0  0
 12 13  1  0  0  0  0
 13 14  1  0  0  0  0
M  END
>  <CHROM.1>
175.45829255,179.88644366,-152.80390601,87.50232064,179.89709624,-176.02844059
-178.35096433,-80.62615373,-90.87640958,-174.61212299,177.67146038,23.25113930
52.53779857,38.03489561,-2.47114855,-0.84891039,-2.36341796

>  <Name>
ligand

>  <RI>
0

>  <Rbt.Current_Directory>
/home/itssahil/PROJECTS/Mol_Feturizer/New_Systems/rnas/4P5J

>  <Rbt.Executable>
rbdock ($Id: //depot/dev/client3/rdock/2013.1/src/exe/rbdock.cxx#4 $)

>  <Rbt.Library>
libRbt.so (2013.1, Build901 2013/11/27)

>  <Rbt.Parameter_File>
/export/apps/rDock/src/rDock_2013.1_src/data/scripts/dock_solv.prm

>  <Rbt.Receptor>
prm/pocket_docking_7.prm

>  <SCORE>
-4.96676

>  <SCORE.INTER>
4.45109

>  <SCORE.INTER.CONST>
1

>  <SCORE.INTER.POLAR>
0

>  <SCORE.INTER.ROT>
11

>  <SCORE.INTER.SOLV>
5.78813

>  <SCORE.INTER.VDW>
-9.89532

>  <SCORE.INTER.norm>
0.317935

>  <SCORE.INTRA>
-9.41785

>  <SCORE.INTRA.DIHEDRAL>
-15.261

>  <SCORE.INTRA.DIHEDRAL.0>
17.5233

>  <SCORE.INTRA.POLAR>
0

>  <SCORE.INTRA.POLAR.0>
0

>  <SCORE.INTRA.REPUL>
0

>  <SCORE.INTRA.REPUL.0>
0

>  <SCORE.INTRA.SOLV>
-2.73202

>  <SCORE.INTRA.SOLV.lig_0>
-46.1043

>  <SCORE.INTRA.VDW>
-0.42133

>  <SCORE.INTRA.VDW.0>
-0.545445

>  <SCORE.INTRA.norm>
-0.672704

>  <SCORE.RESTR>
0

>  <SCORE.RESTR.CAVITY>
0

>  <SCORE.RESTR.norm>
0

>  <SCORE.SYSTEM>
0

>  <SCORE.SYSTEM.CONST>
0

>  <SCORE.SYSTEM.DIHEDRAL>
0

>  <SCORE.SYSTEM.SOLV>
0

>  <SCORE.SYSTEM.norm>
0

>  <SCORE.heavy>
14

>  <SCORE.norm>
-0.354769

>  <RMSD>
8.764

$$$$
ligand
 OpenBabel11021811513D
libRbt.so/2013.1/901 2013/11/27
 14 13  0  0  0  0  0  0  0  0999 V2000
   20.5523   56.1177   44.3244 N   0  0  0  0  0  0  0  0  0  0  0  0
   19.3884   55.3573   43.8986 C   0  0  0  0  0  0  0  0  0  0  0  0
   19.7125   54.5479   42.6473 C   0  0  0  0  0  0  0  0  0  0  0  0
   20.7412   53.4629   42.9451 C   0  0  0  0  0  0  0  0  0  0  0  0
   21.0708   52.6561   41.7739 N   0  0  0  0  0  0  0  0  0  0  0  0
   21.9650   53.1684   40.7493 C   0  0  0  0  0  0  0  0  0  0  0  0
   22.2529   52.1495   39.6521 C   0  0  0  0  0  0  0  0  0  0  0  0
   23.1391   52.7735   38.5799 C   0  0  0  0  0  0  0  0  0  0  0  0
   23.2800   51.8138   37.4034 C   0  0  0  0  0  0  0  0  0  0  0  0
   24.1401   52.3490   36.3621 N   0  0  0  0  0  0  0  0  0  0  0  0
   24.2758   51.6268   35.1040 C   0  0  0  0  0  0  0  0  0  0  0  0
   25.2023   52.2875   34.0855 C   0  0  0  0  0  0  0  0  0  0  0  0
   26.6409   52.3182   34.6042 C   0  0  0  0  0  0  0  0  0  0  0  0
   27.5137   52.9487   33.6286 N   0  0  0  0  0  0  0  0  0  0  0  0
  1  2  1  0  0  0  0
  2  3  1  0  0  0  0
  3  4  1  0  0  0  0
  4  5  1  0  0  0  0
  5  6  1  0  0  0  0
  6  7  1  0  0  0  0
  7  8  1  0  0  0  0
  8  9  1  0  0  0  0
  9 10  1  0  0  0  0
 10 11  1  0  0  0  0
 11 12  1  0  0  0  0
 12 13  1  0  0  0  0
 13 14  1  0  0  0  0
M  END
>  <CHROM.1>
66.36249173,179.48804984,77.48960829,176.49571610,177.26149118,-172.91934088
-178.79391724,-173.66547308,179.83017252,64.73385827,-179.98111517,22.84801553
53.11249499,38.98271069,-2.40428511,-0.78106920,-2.49095198

>  <Name>
ligand

>  <RI>
0

>  <Rbt.Current_Directory>
/home/itssahil/PROJECTS/Mol_Feturizer/New_Systems/rnas/4P5J

>  <Rbt.Executable>
rbdock ($Id: //depot/dev/client3/rdock/2013.1/src/exe/rbdock.cxx#4 $)

>  <Rbt.Library>
libRbt.so (2013.1, Build901 2013/11/27)

>  <Rbt.Parameter_File>
/export/apps/rDock/src/rDock_2013.1_src/data/scripts/dock_solv.prm

>  <Rbt.Receptor>
prm/pocket_docking_8.prm

>  <SCORE>
-3.9146

>  <SCORE.INTER>
5.71578

>  <SCORE.INTER.CONST>
1

>  <SCORE.INTER.POLAR>
0

>  <SCORE.INTER.ROT>
11

>  <SCORE.INTER.SOLV>
5.38907

>  <SCORE.INTER.VDW>
-8.91917

>  <SCORE.INTER.norm>
0.40827

>  <SCORE.INTRA>
-9.63038

>  <SCORE.INTRA.DIHEDRAL>
-16.7672

>  <SCORE.INTRA.DIHEDRAL.0>
17.5233

>  <SCORE.INTRA.POLAR>
0

>  <SCORE.INTRA.POLAR.0>
0

>  <SCORE.INTRA.REPUL>
0

>  <SCORE.INTRA.REPUL.0>
0

>  <SCORE.INTRA.SOLV>
-1.65214

>  <SCORE.INTRA.SOLV.lig_0>
-46.1043

>  <SCORE.INTRA.VDW>
-0.420719

>  <SCORE.INTRA.VDW.0>
-0.545445

>  <SCORE.INTRA.norm>
-0.687884

>  <SCORE.RESTR>
0

>  <SCORE.RESTR.CAVITY>
0

>  <SCORE.RESTR.norm>
0

>  <SCORE.SYSTEM>
0

>  <SCORE.SYSTEM.CONST>
0

>  <SCORE.SYSTEM.DIHEDRAL>
0

>  <SCORE.SYSTEM.SOLV>
0

>  <SCORE.SYSTEM.norm>
0

>  <SCORE.heavy>
14

>  <SCORE.norm>
-0.279614

>  <RMSD>
8.968

$$$$
ligand
 OpenBabel11021811513D
libRbt.so/2013.1/901 2013/11/27
 14 13  0  0  0  0  0  0  0  0999 V2000
   20.2311   57.5847   42.4026 N   0  0  0  0  0  0  0  0  0  0  0  0
   19.5828   57.0043   41.2377 C   0  0  0  0  0  0  0  0  0  0  0  0
   20.6262   56.4971   40.2479 C   0  0  0  0  0  0  0  0  0  0  0  0
   21.4077   55.3226   40.8259 C   0  0  0  0  0  0  0  0  0  0  0  0
   22.3733   54.7644   39.8839 N   0  0  0  0  0  0  0  0  0  0  0  0
   23.2291   53.6553   40.2703 C   0  0  0  0  0  0  0  0  0  0  0  0
   23.9173   52.9965   39.0799 C   0  0  0  0  0  0  0  0  0  0  0  0
   22.8847   52.3033   38.1981 C   0  0  0  0  0  0  0  0  0  0  0  0
   23.5875   51.5534   37.0716 C   0  0  0  0  0  0  0  0  0  0  0  0
   24.2286   52.4564   36.1314 N   0  0  0  0  0  0  0  0  0  0  0  0
   24.7386   51.9336   34.8708 C   0  0  0  0  0  0  0  0  0  0  0  0
   25.4023   52.9733   33.9703 C   0  0  0  0  0  0  0  0  0  0  0  0
   25.8665   52.3353   32.6599 C   0  0  0  0  0  0  0  0  0  0  0  0
   26.5164   53.3273   31.8204 N   0  0  0  0  0  0  0  0  0  0  0  0
  1  2  1  0  0  0  0
  2  3  1  0  0  0  0
  3  4  1  0  0  0  0
  4  5  1  0  0  0  0
  5  6  1  0  0  0  0
  6  7  1  0  0  0  0
  7  8  1  0  0  0  0
  8  9  1  0  0  0  0
  9 10  1  0  0  0  0
 10 11  1  0  0  0  0
 11 12  1  0  0  0  0
 12 13  1  0  0  0  0
 13 14  1  0  0  0  0
M  END
>  <CHROM.1>
66.38752779,177.17246351,178.72416841,166.11322414,-66.99605789,-175.51785461
-67.44021321,-169.03032435,-179.47781756,-178.37869056,-179.03026578,23.18507808
53.90741677,37.76228667,2.88310750,-1.03977796,2.38259445

>  <Name>
ligand

>  <RI>
0

>  <Rbt.Current_Directory>
/home/itssahil/PROJECTS/Mol_Feturizer/New_Systems/rnas/4P5J

>  <Rbt.Executable>
rbdock ($Id: //depot/dev/client3/rdock/2013.1/src/exe/rbdock.cxx#4 $)

>  <Rbt.Library>
libRbt.so (2013.1, Build901 2013/11/27)

>  <Rbt.Parameter_File>
/export/apps/rDock/src/rDock_2013.1_src/data/scripts/dock_solv.prm

>  <Rbt.Receptor>
prm/pocket_docking_8.prm

>  <SCORE>
-4.0354

>  <SCORE.INTER>
5.394

>  <SCORE.INTER.CONST>
1

>  <SCORE.INTER.POLAR>
0

>  <SCORE.INTER.ROT>
11

>  <SCORE.INTER.SOLV>
5.45868

>  <SCORE.INTER.VDW>
-9.15689

>  <SCORE.INTER.norm>
0.385286

>  <SCORE.INTRA>
-9.4294

>  <SCORE.INTRA.DIHEDRAL>
-16.6033

>  <SCORE.INTRA.DIHEDRAL.0>
17.5233

>  <SCORE.INTRA.POLAR>
0

>  <SCORE.INTRA.POLAR.0>
0

>  <SCORE.INTRA.REPUL>
0

>  <SCORE.INTRA.REPUL.0>
0

>  <SCORE.INTRA.SOLV>
-1.23524

>  <SCORE.INTRA.SOLV.lig_0>
-46.1043

>  <SCORE.INTRA.VDW>
-0.510134

>  <SCORE.INTRA.VDW.0>
-0.545445

>  <SCORE.INTRA.norm>
-0.673528

>  <SCORE.RESTR>
0

>  <SCORE.RESTR.CAVITY>
0

>  <SCORE.RESTR.norm>
0

>  <SCORE.SYSTEM>
0

>  <SCORE.SYSTEM.CONST>
0

>  <SCORE.SYSTEM.DIHEDRAL>
0

>  <SCORE.SYSTEM.SOLV>
0

>  <SCORE.SYSTEM.norm>
0

>  <SCORE.heavy>
14

>  <SCORE.norm>
-0.288243

>  <RMSD>
9.045

$$$$
ligand
 OpenBabel11021811513D
libRbt.so/2013.1/901 2013/11/27
 14 13  0  0  0  0  0  0  0  0999 V2000
   24.7471   52.2426   36.1981 N   0  0  0  0  0  0  0  0  0  0  0  0
   24.0014   51.4030   37.1217 C   0  0  0  0  0  0  0  0  0  0  0  0
   24.9481   50.4807   37.8825 C   0  0  0  0  0  0  0  0  0  0  0  0
   24.1886   49.6167   38.8829 C   0  0  0  0  0  0  0  0  0  0  0  0
   23.5178   50.4004   39.9159 N   0  0  0  0  0  0  0  0  0  0  0  0
   22.0697   50.3822   40.0362 C   0  0  0  0  0  0  0  0  0  0  0  0
   21.5344   51.5119   40.9091 C   0  0  0  0  0  0  0  0  0  0  0  0
   21.9115   52.8606   40.3064 C   0  0  0  0  0  0  0  0  0  0  0  0
   21.3689   53.9865   41.1800 C   0  0  0  0  0  0  0  0  0  0  0  0
   21.6366   55.2962   40.6113 N   0  0  0  0  0  0  0  0  0  0  0  0
   20.8562   56.4432   41.0564 C   0  0  0  0  0  0  0  0  0  0  0  0
   20.2924   57.3074   39.9305 C   0  0  0  0  0  0  0  0  0  0  0  0
   21.4220   57.8893   39.0789 C   0  0  0  0  0  0  0  0  0  0  0  0
   22.2171   58.8173   39.8649 N   0  0  0  0  0  0  0  0  0  0  0  0
  1  2  1  0  0  0  0
  2  3  1  0  0  0  0
  3  4  1  0  0  0  0
  4  5  1  0  0  0  0
  5  6  1  0  0  0  0
  6  7  1  0  0  0  0
  7  8  1  0  0  0  0
  8  9  1  0  0  0  0
  9 10  1  0  0  0  0
 10 11  1  0  0  0  0
 11 12  1  0  0  0  0
 12 13  1  0  0  0  0
 13 14  1  0  0  0  0
M  END
>  <CHROM.1>
178.53218940,-62.45874810,116.98099271,-165.13558271,60.75223864,179.76631464
-176.81164119,160.80541243,-131.60092401,-60.87238946,-65.67710722,22.47917833
53.47384255,39.49834657,-0.94732860,0.91506848,-0.28291531

>  <Name>
ligand

>  <RI>
0

>  <Rbt.Current_Directory>
/home/itssahil/PROJECTS/Mol_Feturizer/New_Systems/rnas/4P5J

>  <Rbt.Executable>
rbdock ($Id: //depot/dev/client3/rdock/2013.1/src/exe/rbdock.cxx#4 $)

>  <Rbt.Library>
libRbt.so (2013.1, Build901 2013/11/27)

>  <Rbt.Parameter_File>
/export/apps/rDock/src/rDock_2013.1_src/data/scripts/dock_solv.prm

>  <Rbt.Receptor>
prm/pocket_docking_8.prm

>  <SCORE>
-4.94838

>  <SCORE.INTER>
3.10816

>  <SCORE.INTER.CONST>
1

>  <SCORE.INTER.POLAR>
0

>  <SCORE.INTER.ROT>
11

>  <SCORE.INTER.SOLV>
6.08096

>  <SCORE.INTER.VDW>
-10.8882

>  <SCORE.INTER.norm>
0.222012

>  <SCORE.INTRA>
-8.05655

>  <SCORE.INTRA.DIHEDRAL>
-14.5913

>  <SCORE.INTRA.DIHEDRAL.0>
17.5233

>  <SCORE.INTRA.POLAR>
0

>  <SCORE.INTRA.POLAR.0>
0

>  <SCORE.INTRA.REPUL>
0

>  <SCORE.INTRA.REPUL.0>
0

>  <SCORE.INTRA.SOLV>
-0.149462

>  <SCORE.INTRA.SOLV.lig_0>
-46.1043

>  <SCORE.INTRA.VDW>
-0.686141

>  <SCORE.INTRA.VDW.0>
-0.545445

>  <SCORE.INTRA.norm>
-0.575468

>  <SCORE.RESTR>
0

>  <SCORE.RESTR.CAVITY>
0

>  <SCORE.RESTR.norm>
0

>  <SCORE.SYSTEM>
0

>  <SCORE.SYSTEM.CONST>
0

>  <SCORE.SYSTEM.DIHEDRAL>
0

>  <SCORE.SYSTEM.SOLV>
0

>  <SCORE.SYSTEM.norm>
0

>  <SCORE.heavy>
14

>  <SCORE.norm>
-0.353456

>  <RMSD>
9.087

$$$$
ligand
 OpenBabel11021811513D
libRbt.so/2013.1/901 2013/11/27
 14 13  0  0  0  0  0  0  0  0999 V2000
   21.3690   57.0946   41.7065 N   0  0  0  0  0  0  0  0  0  0  0  0
   20.4965   56.5533   40.6771 C   0  0  0  0  0  0  0  0  0  0  0  0
   20.5702   57.4081   39.4163 C   0  0  0  0  0  0  0  0  0  0  0  0
   21.9518   57.3273   38.7768 C   0  0  0  0  0  0  0  0  0  0  0  0
   22.0300   58.0355   37.5026 N   0  0  0  0  0  0  0  0  0  0  0  0
   23.2228   57.9460   36.6774 C   0  0  0  0  0  0  0  0  0  0  0  0
   23.1974   56.7530   35.7283 C   0  0  0  0  0  0  0  0  0  0  0  0
   23.3001   55.4540   36.5199 C   0  0  0  0  0  0  0  0  0  0  0  0
   23.2657   54.2643   35.5668 C   0  0  0  0  0  0  0  0  0  0  0  0
   23.2646   52.9964   36.2760 N   0  0  0  0  0  0  0  0  0  0  0  0
   23.7616   51.8014   35.6071 C   0  0  0  0  0  0  0  0  0  0  0  0
   25.2728   51.6005   35.6985 C   0  0  0  0  0  0  0  0  0  0  0  0
   25.6968   51.3422   37.1453 C   0  0  0  0  0  0  0  0  0  0  0  0
   27.1428   51.2301   37.2330 N   0  0  0  0  0  0  0  0  0  0  0  0
  1  2  1  0  0  0  0
  2  3  1  0  0  0  0
  3  4  1  0  0  0  0
  4  5  1  0  0  0  0
  5  6  1  0  0  0  0
  6  7  1  0  0  0  0
  7  8  1  0  0  0  0
  8  9  1  0  0  0  0
  9 10  1  0  0  0  0
 10 11  1  0  0  0  0
 11 12  1  0  0  0  0
 12 13  1  0  0  0  0
 13 14  1  0  0  0  0
M  END
>  <CHROM.1>
66.21957272,174.85794254,-173.21679843,87.47360110,-68.31926675,179.66086253
-175.90406808,-155.53557530,85.48940390,65.77091047,-176.68819544,23.18146818
54.98625289,37.46625362,3.11335970,1.02716175,-1.03389198

>  <Name>
ligand

>  <RI>
0

>  <Rbt.Current_Directory>
/home/itssahil/PROJECTS/Mol_Feturizer/New_Systems/rnas/4P5J

>  <Rbt.Executable>
rbdock ($Id: //depot/dev/client3/rdock/2013.1/src/exe/rbdock.cxx#4 $)

>  <Rbt.Library>
libRbt.so (2013.1, Build901 2013/11/27)

>  <Rbt.Parameter_File>
/export/apps/rDock/src/rDock_2013.1_src/data/scripts/dock_solv.prm

>  <Rbt.Receptor>
prm/pocket_docking_8.prm

>  <SCORE>
-4.70033

>  <SCORE.INTER>
3.93233

>  <SCORE.INTER.CONST>
1

>  <SCORE.INTER.POLAR>
0

>  <SCORE.INTER.ROT>
11

>  <SCORE.INTER.SOLV>
7.4072

>  <SCORE.INTER.VDW>
-10.7808

>  <SCORE.INTER.norm>
0.280881

>  <SCORE.INTRA>
-8.63266

>  <SCORE.INTRA.DIHEDRAL>
-15.3445

>  <SCORE.INTRA.DIHEDRAL.0>
17.5233

>  <SCORE.INTRA.POLAR>
0

>  <SCORE.INTRA.POLAR.0>
0

>  <SCORE.INTRA.REPUL>
0

>  <SCORE.INTRA.REPUL.0>
0

>  <SCORE.INTRA.SOLV>
-1.28364

>  <SCORE.INTRA.SOLV.lig_0>
-46.1043

>  <SCORE.INTRA.VDW>
-0.318606

>  <SCORE.INTRA.VDW.0>
-0.545445

>  <SCORE.INTRA.norm>
-0.616619

>  <SCORE.RESTR>
0

>  <SCORE.RESTR.CAVITY>
0

>  <SCORE.RESTR.norm>
0

>  <SCORE.SYSTEM>
0

>  <SCORE.SYSTEM.CONST>
0

>  <SCORE.SYSTEM.DIHEDRAL>
0

>  <SCORE.SYSTEM.SOLV>
0

>  <SCORE.SYSTEM.norm>
0

>  <SCORE.heavy>
14

>  <SCORE.norm>
-0.335738

>  <RMSD>
9.114

$$$$
ligand
 OpenBabel11021811513D
libRbt.so/2013.1/901 2013/11/27
 14 13  0  0  0  0  0  0  0  0999 V2000
   24.2359   54.7522   33.9153 N   0  0  0  0  0  0  0  0  0  0  0  0
   23.6129   53.6384   34.6119 C   0  0  0  0  0  0  0  0  0  0  0  0
   24.6279   52.9409   35.5114 C   0  0  0  0  0  0  0  0  0  0  0  0
   23.9910   51.7744   36.2583 C   0  0  0  0  0  0  0  0  0  0  0  0
   24.8942   51.1587   37.2259 N   0  0  0  0  0  0  0  0  0  0  0  0
   24.4192   50.1230   38.1279 C   0  0  0  0  0  0  0  0  0  0  0  0
   23.8302   50.6857   39.4169 C   0  0  0  0  0  0  0  0  0  0  0  0
   22.5834   51.5063   39.1063 C   0  0  0  0  0  0  0  0  0  0  0  0
   22.1049   52.2163   40.3680 C   0  0  0  0  0  0  0  0  0  0  0  0
   21.7066   51.2792   41.4042 N   0  0  0  0  0  0  0  0  0  0  0  0
   21.5501   51.7503   42.7739 C   0  0  0  0  0  0  0  0  0  0  0  0
   20.3232   52.6283   43.0108 C   0  0  0  0  0  0  0  0  0  0  0  0
   20.2809   53.1177   44.4595 C   0  0  0  0  0  0  0  0  0  0  0  0
   19.1049   53.9428   44.6772 N   0  0  0  0  0  0  0  0  0  0  0  0
  1  2  1  0  0  0  0
  2  3  1  0  0  0  0
  3  4  1  0  0  0  0
  4  5  1  0  0  0  0
  5  6  1  0  0  0  0
  6  7  1  0  0  0  0
  7  8  1  0  0  0  0
  8  9  1  0  0  0  0
  9 10  1  0  0  0  0
 10 11  1  0  0  0  0
 11 12  1  0  0  0  0
 12 13  1  0  0  0  0
 13 14  1  0  0  0  0
M  END
>  <CHROM.1>
179.62818603,-174.51045510,173.62261209,-87.67886962,64.29959271,-172.55789418
-63.01810074,164.44824388,71.93042880,-177.62230057,-179.54124895,22.66187150
52.25078827,39.34769888,0.75894795,0.92665946,-0.86648929

>  <Name>
ligand

>  <RI>
0

>  <Rbt.Current_Directory>
/home/itssahil/PROJECTS/Mol_Feturizer/New_Systems/rnas/4P5J

>  <Rbt.Executable>
rbdock ($Id: //depot/dev/client3/rdock/2013.1/src/exe/rbdock.cxx#4 $)

>  <Rbt.Library>
libRbt.so (2013.1, Build901 2013/11/27)

>  <Rbt.Parameter_File>
/export/apps/rDock/src/rDock_2013.1_src/data/scripts/dock_solv.prm

>  <Rbt.Receptor>
prm/pocket_docking_8.prm

>  <SCORE>
-3.05505

>  <SCORE.INTER>
6.00761

>  <SCORE.INTER.CONST>
1

>  <SCORE.INTER.POLAR>
0

>  <SCORE.INTER.ROT>
11

>  <SCORE.INTER.SOLV>
5.25827

>  <SCORE.INTER.VDW>
-8.68102

>  <SCORE.INTER.norm>
0.429115

>  <SCORE.INTRA>
-9.06265

>  <SCORE.INTRA.DIHEDRAL>
-16.1921

>  <SCORE.INTRA.DIHEDRAL.0>
17.5233

>  <SCORE.INTRA.POLAR>
0

>  <SCORE.INTRA.POLAR.0>
0

>  <SCORE.INTRA.REPUL>
0

>  <SCORE.INTRA.REPUL.0>
0

>  <SCORE.INTRA.SOLV>
-1.89257

>  <SCORE.INTRA.SOLV.lig_0>
-46.1043

>  <SCORE.INTRA.VDW>
-0.0203346

>  <SCORE.INTRA.VDW.0>
-0.545445

>  <SCORE.INTRA.norm>
-0.647332

>  <SCORE.RESTR>
0

>  <SCORE.RESTR.CAVITY>
0

>  <SCORE.RESTR.norm>
0

>  <SCORE.SYSTEM>
0

>  <SCORE.SYSTEM.CONST>
0

>  <SCORE.SYSTEM.DIHEDRAL>
0

>  <SCORE.SYSTEM.SOLV>
0

>  <SCORE.SYSTEM.norm>
0

>  <SCORE.heavy>
14

>  <SCORE.norm>
-0.218218

>  <RMSD>
9.130

$$$$
ligand
 OpenBabel11021811513D
libRbt.so/2013.1/901 2013/11/27
 14 13  0  0  0  0  0  0  0  0999 V2000
   23.5376   57.4132   36.1354 N   0  0  0  0  0  0  0  0  0  0  0  0
   23.3545   55.9709   36.1204 C   0  0  0  0  0  0  0  0  0  0  0  0
   23.3300   55.4543   34.6856 C   0  0  0  0  0  0  0  0  0  0  0  0
   23.1175   53.9451   34.6478 C   0  0  0  0  0  0  0  0  0  0  0  0
   24.2110   53.2020   35.2669 N   0  0  0  0  0  0  0  0  0  0  0  0
   24.3154   51.7621   35.1010 C   0  0  0  0  0  0  0  0  0  0  0  0
   24.7950   51.0543   36.3635 C   0  0  0  0  0  0  0  0  0  0  0  0
   23.8515   51.3575   37.5221 C   0  0  0  0  0  0  0  0  0  0  0  0
   24.2442   50.5266   38.7389 C   0  0  0  0  0  0  0  0  0  0  0  0
   23.4466   50.8581   39.9069 N   0  0  0  0  0  0  0  0  0  0  0  0
   22.0717   50.3838   39.9932 C   0  0  0  0  0  0  0  0  0  0  0  0
   21.1903   51.1560   40.9725 C   0  0  0  0  0  0  0  0  0  0  0  0
   21.7330   51.0362   42.3976 C   0  0  0  0  0  0  0  0  0  0  0  0
   20.9277   51.8295   43.3105 N   0  0  0  0  0  0  0  0  0  0  0  0
  1  2  1  0  0  0  0
  2  3  1  0  0  0  0
  3  4  1  0  0  0  0
  4  5  1  0  0  0  0
  5  6  1  0  0  0  0
  6  7  1  0  0  0  0
  7  8  1  0  0  0  0
  8  9  1  0  0  0  0
  9 10  1  0  0  0  0
 10 11  1  0  0  0  0
 11 12  1  0  0  0  0
 12 13  1  0  0  0  0
 13 14  1  0  0  0  0
M  END
>  <CHROM.1>
-179.13875069,-63.82950980,-168.05851376,-142.04951048,57.83198307,173.70650983
175.21047390,75.42498465,-159.78374886,-61.79336105,177.09100530,23.15190302
52.56751424,37.93985261,1.02940298,1.08148226,-0.54244310

>  <Name>
ligand

>  <RI>
0

>  <Rbt.Current_Directory>
/home/itssahil/PROJECTS/Mol_Feturizer/New_Systems/rnas/4P5J

>  <Rbt.Executable>
rbdock ($Id: //depot/dev/client3/rdock/2013.1/src/exe/rbdock.cxx#4 $)

>  <Rbt.Library>
libRbt.so (2013.1, Build901 2013/11/27)

>  <Rbt.Parameter_File>
/export/apps/rDock/src/rDock_2013.1_src/data/scripts/dock_solv.prm

>  <Rbt.Receptor>
prm/pocket_docking_8.prm

>  <SCORE>
-5.9097

>  <SCORE.INTER>
3.04843

>  <SCORE.INTER.CONST>
1

>  <SCORE.INTER.POLAR>
0

>  <SCORE.INTER.ROT>
11

>  <SCORE.INTER.SOLV>
6.90332

>  <SCORE.INTER.VDW>
-11.2022

>  <SCORE.INTER.norm>
0.217745

>  <SCORE.INTRA>
-8.96499

>  <SCORE.INTRA.DIHEDRAL>
-15.705

>  <SCORE.INTRA.DIHEDRAL.0>
17.5233

>  <SCORE.INTRA.POLAR>
0

>  <SCORE.INTRA.POLAR.0>
0

>  <SCORE.INTRA.REPUL>
0

>  <SCORE.INTRA.REPUL.0>
0

>  <SCORE.INTRA.SOLV>
-1.58042

>  <SCORE.INTRA.SOLV.lig_0>
-46.1043

>  <SCORE.INTRA.VDW>
-0.32227

>  <SCORE.INTRA.VDW.0>
-0.545445

>  <SCORE.INTRA.norm>
-0.640356

>  <SCORE.RESTR>
0.00685477

>  <SCORE.RESTR.CAVITY>
0.00685477

>  <SCORE.RESTR.norm>
0.000489627

>  <SCORE.SYSTEM>
0

>  <SCORE.SYSTEM.CONST>
0

>  <SCORE.SYSTEM.DIHEDRAL>
0

>  <SCORE.SYSTEM.SOLV>
0

>  <SCORE.SYSTEM.norm>
0

>  <SCORE.heavy>
14

>  <SCORE.norm>
-0.422122

>  <RMSD>
9.159

$$$$
ligand
 OpenBabel11021811513D
libRbt.so/2013.1/901 2013/11/27
 14 13  0  0  0  0  0  0  0  0999 V2000
   23.5177   59.0005   36.9827 N   0  0  0  0  0  0  0  0  0  0  0  0
   22.8234   57.7672   36.6498 C   0  0  0  0  0  0  0  0  0  0  0  0
   23.8136   56.7182   36.1549 C   0  0  0  0  0  0  0  0  0  0  0  0
   23.1057   55.4124   35.8111 C   0  0  0  0  0  0  0  0  0  0  0  0
   24.0259   54.3637   35.3815 N   0  0  0  0  0  0  0  0  0  0  0  0
   23.5368   53.0315   35.0685 C   0  0  0  0  0  0  0  0  0  0  0  0
   23.7306   52.0456   36.2153 C   0  0  0  0  0  0  0  0  0  0  0  0
   22.8693   52.4535   37.4054 C   0  0  0  0  0  0  0  0  0  0  0  0
   23.1257   51.5104   38.5758 C   0  0  0  0  0  0  0  0  0  0  0  0
   22.2200   51.7573   39.6845 N   0  0  0  0  0  0  0  0  0  0  0  0
   21.4066   50.6648   40.2015 C   0  0  0  0  0  0  0  0  0  0  0  0
   22.1509   49.6899   41.1114 C   0  0  0  0  0  0  0  0  0  0  0  0
   21.2074   48.5989   41.6206 C   0  0  0  0  0  0  0  0  0  0  0  0
   21.9014   47.7309   42.5567 N   0  0  0  0  0  0  0  0  0  0  0  0
  1  2  1  0  0  0  0
  2  3  1  0  0  0  0
  3  4  1  0  0  0  0
  4  5  1  0  0  0  0
  5  6  1  0  0  0  0
  6  7  1  0  0  0  0
  7  8  1  0  0  0  0
  8  9  1  0  0  0  0
  9 10  1  0  0  0  0
 10 11  1  0  0  0  0
 11 12  1  0  0  0  0
 12 13  1  0  0  0  0
 13 14  1  0  0  0  0
M  END
>  <CHROM.1>
179.53454462,-177.78573709,177.31493375,-99.10843162,65.72395343,-176.83040519
-173.37077487,124.53896379,78.10237419,178.95192165,-176.09747077,22.81674605
52.91022272,38.10118568,0.98049228,1.24012948,-0.03772853

>  <Name>
ligand

>  <RI>
0

>  <Rbt.Current_Directory>
/home/itssahil/PROJECTS/Mol_Feturizer/New_Systems/rnas/4P5J

>  <Rbt.Executable>
rbdock ($Id: //depot/dev/client3/rdock/2013.1/src/exe/rbdock.cxx#4 $)

>  <Rbt.Library>
libRbt.so (2013.1, Build901 2013/11/27)

>  <Rbt.Parameter_File>
/export/apps/rDock/src/rDock_2013.1_src/data/scripts/dock_solv.prm

>  <Rbt.Receptor>
prm/pocket_docking_8.prm

>  <SCORE>
-6.03906

>  <SCORE.INTER>
2.99304

>  <SCORE.INTER.CONST>
1

>  <SCORE.INTER.POLAR>
0

>  <SCORE.INTER.ROT>
11

>  <SCORE.INTER.SOLV>
6.5855

>  <SCORE.INTER.VDW>
-11.1331

>  <SCORE.INTER.norm>
0.213788

>  <SCORE.INTRA>
-9.0321

>  <SCORE.INTRA.DIHEDRAL>
-14.7983

>  <SCORE.INTRA.DIHEDRAL.0>
17.5233

>  <SCORE.INTRA.POLAR>
0

>  <SCORE.INTRA.POLAR.0>
0

>  <SCORE.INTRA.REPUL>
0

>  <SCORE.INTRA.REPUL.0>
0

>  <SCORE.INTRA.SOLV>
-2.32182

>  <SCORE.INTRA.SOLV.lig_0>
-46.1043

>  <SCORE.INTRA.VDW>
-0.472055

>  <SCORE.INTRA.VDW.0>
-0.545445

>  <SCORE.INTRA.norm>
-0.64515

>  <SCORE.RESTR>
0

>  <SCORE.RESTR.CAVITY>
0

>  <SCORE.RESTR.norm>
0

>  <SCORE.SYSTEM>
0

>  <SCORE.SYSTEM.CONST>
0

>  <SCORE.SYSTEM.DIHEDRAL>
0

>  <SCORE.SYSTEM.SOLV>
0

>  <SCORE.SYSTEM.norm>
0

>  <SCORE.heavy>
14

>  <SCORE.norm>
-0.431361

>  <RMSD>
9.163

$$$$
ligand
 OpenBabel11021811513D
libRbt.so/2013.1/901 2013/11/27
 14 13  0  0  0  0  0  0  0  0999 V2000
   21.2070   59.0968   38.6017 N   0  0  0  0  0  0  0  0  0  0  0  0
   20.4785   58.0003   39.2190 C   0  0  0  0  0  0  0  0  0  0  0  0
   21.4371   57.0854   39.9739 C   0  0  0  0  0  0  0  0  0  0  0  0
   20.6888   55.9410   40.6484 C   0  0  0  0  0  0  0  0  0  0  0  0
   21.5602   55.0876   41.4506 N   0  0  0  0  0  0  0  0  0  0  0  0
   21.1983   53.7068   41.7228 C   0  0  0  0  0  0  0  0  0  0  0  0
   21.7669   52.7329   40.6967 C   0  0  0  0  0  0  0  0  0  0  0  0
   21.3948   51.3028   41.0722 C   0  0  0  0  0  0  0  0  0  0  0  0
   21.9763   50.3324   40.0498 C   0  0  0  0  0  0  0  0  0  0  0  0
   23.4251   50.4140   39.9820 N   0  0  0  0  0  0  0  0  0  0  0  0
   24.1392   49.6442   38.9720 C   0  0  0  0  0  0  0  0  0  0  0  0
   24.9136   50.4840   37.9585 C   0  0  0  0  0  0  0  0  0  0  0  0
   23.9718   51.4244   37.2044 C   0  0  0  0  0  0  0  0  0  0  0  0
   24.7273   52.2702   36.2960 N   0  0  0  0  0  0  0  0  0  0  0  0
  1  2  1  0  0  0  0
  2  3  1  0  0  0  0
  3  4  1  0  0  0  0
  4  5  1  0  0  0  0
  5  6  1  0  0  0  0
  6  7  1  0  0  0  0
  7  8  1  0  0  0  0
  8  9  1  0  0  0  0
  9 10  1  0  0  0  0
 10 11  1  0  0  0  0
 11 12  1  0  0  0  0
 12 13  1  0  0  0  0
 13 14  1  0  0  0  0
M  END
>  <CHROM.1>
179.05509544,-176.45508019,-155.30142457,92.05212106,177.82345759,-179.50067541
60.08010952,-174.46060790,117.24300387,-59.42103810,176.86890437,22.34876317
53.39415774,39.56076331,-2.27620942,-0.95066401,2.70243206

>  <Name>
ligand

>  <RI>
0

>  <Rbt.Current_Directory>
/home/itssahil/PROJECTS/Mol_Feturizer/New_Systems/rnas/4P5J

>  <Rbt.Executable>
rbdock ($Id: //depot/dev/client3/rdock/2013.1/src/exe/rbdock.cxx#4 $)

>  <Rbt.Library>
libRbt.so (2013.1, Build901 2013/11/27)

>  <Rbt.Parameter_File>
/export/apps/rDock/src/rDock_2013.1_src/data/scripts/dock_solv.prm

>  <Rbt.Receptor>
prm/pocket_docking_8.prm

>  <SCORE>
-6.15243

>  <SCORE.INTER>
2.99717

>  <SCORE.INTER.CONST>
1

>  <SCORE.INTER.POLAR>
0

>  <SCORE.INTER.ROT>
11

>  <SCORE.INTER.SOLV>
6.40572

>  <SCORE.INTER.VDW>
-11.0705

>  <SCORE.INTER.norm>
0.214084

>  <SCORE.INTRA>
-9.1496

>  <SCORE.INTRA.DIHEDRAL>
-15.0965

>  <SCORE.INTRA.DIHEDRAL.0>
17.5233

>  <SCORE.INTRA.POLAR>
0

>  <SCORE.INTRA.POLAR.0>
0

>  <SCORE.INTRA.REPUL>
0

>  <SCORE.INTRA.REPUL.0>
0

>  <SCORE.INTRA.SOLV>
-1.89909

>  <SCORE.INTRA.SOLV.lig_0>
-46.1043

>  <SCORE.INTRA.VDW>
-0.651807

>  <SCORE.INTRA.VDW.0>
-0.545445

>  <SCORE.INTRA.norm>
-0.653543

>  <SCORE.RESTR>
0

>  <SCORE.RESTR.CAVITY>
0

>  <SCORE.RESTR.norm>
0

>  <SCORE.SYSTEM>
0

>  <SCORE.SYSTEM.CONST>
0

>  <SCORE.SYSTEM.DIHEDRAL>
0

>  <SCORE.SYSTEM.SOLV>
0

>  <SCORE.SYSTEM.norm>
0

>  <SCORE.heavy>
14

>  <SCORE.norm>
-0.439459

>  <RMSD>
9.201

$$$$
ligand
 OpenBabel11021811513D
libRbt.so/2013.1/901 2013/11/27
 14 13  0  0  0  0  0  0  0  0999 V2000
   24.3948   55.4082   35.0254 N   0  0  0  0  0  0  0  0  0  0  0  0
   24.5297   54.0061   35.3856 C   0  0  0  0  0  0  0  0  0  0  0  0
   23.1856   53.4422   35.8343 C   0  0  0  0  0  0  0  0  0  0  0  0
   23.3121   51.9795   36.2450 C   0  0  0  0  0  0  0  0  0  0  0  0
   24.1513   51.7915   37.4247 N   0  0  0  0  0  0  0  0  0  0  0  0
   23.7180   52.2714   38.7261 C   0  0  0  0  0  0  0  0  0  0  0  0
   22.5049   51.5181   39.2606 C   0  0  0  0  0  0  0  0  0  0  0  0
   22.1488   52.0237   40.6541 C   0  0  0  0  0  0  0  0  0  0  0  0
   21.6477   53.4613   40.5695 C   0  0  0  0  0  0  0  0  0  0  0  0
   21.2687   53.9849   41.8706 N   0  0  0  0  0  0  0  0  0  0  0  0
   20.4400   55.1807   41.9475 C   0  0  0  0  0  0  0  0  0  0  0  0
   20.4930   55.9090   43.2888 C   0  0  0  0  0  0  0  0  0  0  0  0
   21.9002   56.4455   43.5567 C   0  0  0  0  0  0  0  0  0  0  0  0
   21.9421   57.1284   44.8386 N   0  0  0  0  0  0  0  0  0  0  0  0
  1  2  1  0  0  0  0
  2  3  1  0  0  0  0
  3  4  1  0  0  0  0
  4  5  1  0  0  0  0
  5  6  1  0  0  0  0
  6  7  1  0  0  0  0
  7  8  1  0  0  0  0
  8  9  1  0  0  0  0
  9 10  1  0  0  0  0
 10 11  1  0  0  0  0
 11 12  1  0  0  0  0
 12 13  1  0  0  0  0
 13 14  1  0  0  0  0
M  END
>  <CHROM.1>
-178.78673180,65.10879468,67.86959041,67.12221686,177.16720109,67.39995602
178.87386973,-163.33627557,-160.10385718,63.91962766,-179.61714463,22.54532523
53.89618643,39.61617327,-0.55402774,1.18375418,0.23132553

>  <Name>
ligand

>  <RI>
0

>  <Rbt.Current_Directory>
/home/itssahil/PROJECTS/Mol_Feturizer/New_Systems/rnas/4P5J

>  <Rbt.Executable>
rbdock ($Id: //depot/dev/client3/rdock/2013.1/src/exe/rbdock.cxx#4 $)

>  <Rbt.Library>
libRbt.so (2013.1, Build901 2013/11/27)

>  <Rbt.Parameter_File>
/export/apps/rDock/src/rDock_2013.1_src/data/scripts/dock_solv.prm

>  <Rbt.Receptor>
prm/pocket_docking_7.prm

>  <SCORE>
-1.76479

>  <SCORE.INTER>
6.5751

>  <SCORE.INTER.CONST>
1

>  <SCORE.INTER.POLAR>
0

>  <SCORE.INTER.ROT>
11

>  <SCORE.INTER.SOLV>
3.90222

>  <SCORE.INTER.VDW>
-7.85068

>  <SCORE.INTER.norm>
0.46965

>  <SCORE.INTRA>
-8.33989

>  <SCORE.INTRA.DIHEDRAL>
-16.4963

>  <SCORE.INTRA.DIHEDRAL.0>
17.5233

>  <SCORE.INTRA.POLAR>
0

>  <SCORE.INTRA.POLAR.0>
0

>  <SCORE.INTRA.REPUL>
0

>  <SCORE.INTRA.REPUL.0>
0

>  <SCORE.INTRA.SOLV>
-1.77171

>  <SCORE.INTRA.SOLV.lig_0>
-46.1043

>  <SCORE.INTRA.VDW>
0.794095

>  <SCORE.INTRA.VDW.0>
-0.545445

>  <SCORE.INTRA.norm>
-0.595706

>  <SCORE.RESTR>
0

>  <SCORE.RESTR.CAVITY>
0

>  <SCORE.RESTR.norm>
0

>  <SCORE.SYSTEM>
0

>  <SCORE.SYSTEM.CONST>
0

>  <SCORE.SYSTEM.DIHEDRAL>
0

>  <SCORE.SYSTEM.SOLV>
0

>  <SCORE.SYSTEM.norm>
0

>  <SCORE.heavy>
14

>  <SCORE.norm>
-0.126056

>  <RMSD>
9.640

$$$$
ligand
 OpenBabel11021811513D
libRbt.so/2013.1/901 2013/11/27
 14 13  0  0  0  0  0  0  0  0999 V2000
   24.6002   43.3033   32.8248 N   0  0  0  0  0  0  0  0  0  0  0  0
   23.5679   44.1115   32.1963 C   0  0  0  0  0  0  0  0  0  0  0  0
   23.7946   44.1837   30.6899 C   0  0  0  0  0  0  0  0  0  0  0  0
   22.6744   44.9551   30.0013 C   0  0  0  0  0  0  0  0  0  0  0  0
   21.3766   44.2967   30.1176 N   0  0  0  0  0  0  0  0  0  0  0  0
   20.4369   44.6895   31.1542 C   0  0  0  0  0  0  0  0  0  0  0  0
   19.0834   44.0010   31.0174 C   0  0  0  0  0  0  0  0  0  0  0  0
   18.1370   44.4889   32.1086 C   0  0  0  0  0  0  0  0  0  0  0  0
   16.7539   43.8808   31.9026 C   0  0  0  0  0  0  0  0  0  0  0  0
   15.8452   44.2111   32.9869 N   0  0  0  0  0  0  0  0  0  0  0  0
   15.0544   43.1552   33.6051 C   0  0  0  0  0  0  0  0  0  0  0  0
   13.5895   43.1196   33.1749 C   0  0  0  0  0  0  0  0  0  0  0  0
   12.8537   41.9660   33.8587 C   0  0  0  0  0  0  0  0  0  0  0  0
   11.4557   41.9566   33.4629 N   0  0  0  0  0  0  0  0  0  0  0  0
  1  2  1  0  0  0  0
  2  3  1  0  0  0  0
  3  4  1  0  0  0  0
  4  5  1  0  0  0  0
  5  6  1  0  0  0  0
  6  7  1  0  0  0  0
  7  8  1  0  0  0  0
  8  9  1  0  0  0  0
  9 10  1  0  0  0  0
 10 11  1  0  0  0  0
 11 12  1  0  0  0  0
 12 13  1  0  0  0  0
 13 14  1  0  0  0  0
M  END
>  <CHROM.1>
176.49023523,-64.30267742,96.62316858,173.52602287,-178.32099170,175.60804007
174.52592253,-131.93519092,-103.07473880,179.04291591,178.90452662,18.51604283
43.73718441,32.07853739,-0.26062009,0.02117103,2.09963585

>  <Name>
ligand

>  <RI>
0

>  <Rbt.Current_Directory>
/home/itssahil/PROJECTS/Mol_Feturizer/New_Systems/rnas/4P5J

>  <Rbt.Executable>
rbdock ($Id: //depot/dev/client3/rdock/2013.1/src/exe/rbdock.cxx#4 $)

>  <Rbt.Library>
libRbt.so (2013.1, Build901 2013/11/27)

>  <Rbt.Parameter_File>
/export/apps/rDock/src/rDock_2013.1_src/data/scripts/dock_solv.prm

>  <Rbt.Receptor>
prm/blind_docking_80.prm

>  <SCORE>
-12.9634

>  <SCORE.INTER>
-4.07584

>  <SCORE.INTER.CONST>
1

>  <SCORE.INTER.POLAR>
0

>  <SCORE.INTER.ROT>
11

>  <SCORE.INTER.SOLV>
11.9168

>  <SCORE.INTER.VDW>
-17.6228

>  <SCORE.INTER.norm>
-0.291131

>  <SCORE.INTRA>
-8.88753

>  <SCORE.INTRA.DIHEDRAL>
-14.2912

>  <SCORE.INTRA.DIHEDRAL.0>
17.5233

>  <SCORE.INTRA.POLAR>
0

>  <SCORE.INTRA.POLAR.0>
0

>  <SCORE.INTRA.REPUL>
0

>  <SCORE.INTRA.REPUL.0>
0

>  <SCORE.INTRA.SOLV>
-2.31594

>  <SCORE.INTRA.SOLV.lig_0>
-46.1043

>  <SCORE.INTRA.VDW>
-0.583979

>  <SCORE.INTRA.VDW.0>
-0.545445

>  <SCORE.INTRA.norm>
-0.634824

>  <SCORE.RESTR>
0

>  <SCORE.RESTR.CAVITY>
0

>  <SCORE.RESTR.norm>
0

>  <SCORE.SYSTEM>
0

>  <SCORE.SYSTEM.CONST>
0

>  <SCORE.SYSTEM.DIHEDRAL>
0

>  <SCORE.SYSTEM.SOLV>
0

>  <SCORE.SYSTEM.norm>
0

>  <SCORE.heavy>
14

>  <SCORE.norm>
-0.925955

>  <RMSD>
15.282

$$$$
ligand
 OpenBabel11021811513D
libRbt.so/2013.1/901 2013/11/27
 14 13  0  0  0  0  0  0  0  0999 V2000
   22.9496   44.9240   26.0128 N   0  0  0  0  0  0  0  0  0  0  0  0
   22.5799   45.1492   27.4008 C   0  0  0  0  0  0  0  0  0  0  0  0
   21.5741   44.0984   27.8589 C   0  0  0  0  0  0  0  0  0  0  0  0
   21.1246   44.3553   29.2928 C   0  0  0  0  0  0  0  0  0  0  0  0
   20.1855   43.3505   29.7822 N   0  0  0  0  0  0  0  0  0  0  0  0
   20.6608   42.0639   30.2625 C   0  0  0  0  0  0  0  0  0  0  0  0
   19.8329   41.5231   31.4231 C   0  0  0  0  0  0  0  0  0  0  0  0
   20.0308   42.3966   32.6569 C   0  0  0  0  0  0  0  0  0  0  0  0
   19.1992   43.6683   32.5281 C   0  0  0  0  0  0  0  0  0  0  0  0
   17.7771   43.3842   32.4414 N   0  0  0  0  0  0  0  0  0  0  0  0
   16.9019   44.3171   31.7440 C   0  0  0  0  0  0  0  0  0  0  0  0
   15.4255   44.2096   32.1195 C   0  0  0  0  0  0  0  0  0  0  0  0
   15.2114   44.5945   33.5844 C   0  0  0  0  0  0  0  0  0  0  0  0
   13.8038   44.4930   33.9303 N   0  0  0  0  0  0  0  0  0  0  0  0
  1  2  1  0  0  0  0
  2  3  1  0  0  0  0
  3  4  1  0  0  0  0
  4  5  1  0  0  0  0
  5  6  1  0  0  0  0
  6  7  1  0  0  0  0
  7  8  1  0  0  0  0
  8  9  1  0  0  0  0
  9 10  1  0  0  0  0
 10 11  1  0  0  0  0
 11 12  1  0  0  0  0
 12 13  1  0  0  0  0
 13 14  1  0  0  0  0
M  END
>  <CHROM.1>
-177.37737506,-178.53822107,80.33494355,145.16091567,-67.58757036,78.25882659
61.60268359,-152.72306224,-159.27529655,64.88164697,179.82407829,19.08996029
43.75186326,30.78851745,0.51362366,0.48861167,-0.84543634

>  <Name>
ligand

>  <RI>
0

>  <Rbt.Current_Directory>
/home/itssahil/PROJECTS/Mol_Feturizer/New_Systems/rnas/4P5J

>  <Rbt.Executable>
rbdock ($Id: //depot/dev/client3/rdock/2013.1/src/exe/rbdock.cxx#4 $)

>  <Rbt.Library>
libRbt.so (2013.1, Build901 2013/11/27)

>  <Rbt.Parameter_File>
/export/apps/rDock/src/rDock_2013.1_src/data/scripts/dock_solv.prm

>  <Rbt.Receptor>
prm/blind_docking_60.prm

>  <SCORE>
-9.10704

>  <SCORE.INTER>
-1.85434

>  <SCORE.INTER.CONST>
1

>  <SCORE.INTER.POLAR>
0

>  <SCORE.INTER.ROT>
11

>  <SCORE.INTER.SOLV>
12.5916

>  <SCORE.INTER.VDW>
-16.3667

>  <SCORE.INTER.norm>
-0.132453

>  <SCORE.INTRA>
-7.2527

>  <SCORE.INTRA.DIHEDRAL>
-13.9854

>  <SCORE.INTRA.DIHEDRAL.0>
17.5233

>  <SCORE.INTRA.POLAR>
0

>  <SCORE.INTRA.POLAR.0>
0

>  <SCORE.INTRA.REPUL>
0

>  <SCORE.INTRA.REPUL.0>
0

>  <SCORE.INTRA.SOLV>
-0.208989

>  <SCORE.INTRA.SOLV.lig_0>
-46.1043

>  <SCORE.INTRA.VDW>
-0.155486

>  <SCORE.INTRA.VDW.0>
-0.545445

>  <SCORE.INTRA.norm>
-0.51805

>  <SCORE.RESTR>
0

>  <SCORE.RESTR.CAVITY>
0

>  <SCORE.RESTR.norm>
0

>  <SCORE.SYSTEM>
0

>  <SCORE.SYSTEM.CONST>
0

>  <SCORE.SYSTEM.DIHEDRAL>
0

>  <SCORE.SYSTEM.SOLV>
0

>  <SCORE.SYSTEM.norm>
0

>  <SCORE.heavy>
14

>  <SCORE.norm>
-0.650503

>  <RMSD>
15.485

$$$$
ligand
 OpenBabel11021811513D
libRbt.so/2013.1/901 2013/11/27
 14 13  0  0  0  0  0  0  0  0999 V2000
   12.2037   43.4326   33.7416 N   0  0  0  0  0  0  0  0  0  0  0  0
   13.2872   42.6614   34.3292 C   0  0  0  0  0  0  0  0  0  0  0  0
   14.4650   42.5809   33.3637 C   0  0  0  0  0  0  0  0  0  0  0  0
   15.1122   43.9476   33.1701 C   0  0  0  0  0  0  0  0  0  0  0  0
   16.2452   43.9142   32.2502 N   0  0  0  0  0  0  0  0  0  0  0  0
   17.4666   43.2111   32.6045 C   0  0  0  0  0  0  0  0  0  0  0  0
   18.7220   43.9170   32.1040 C   0  0  0  0  0  0  0  0  0  0  0  0
   19.9598   43.1114   32.4826 C   0  0  0  0  0  0  0  0  0  0  0  0
   21.2167   43.8973   32.1254 C   0  0  0  0  0  0  0  0  0  0  0  0
   21.3593   44.0768   30.6909 N   0  0  0  0  0  0  0  0  0  0  0  0
   22.5789   44.6725   30.1615 C   0  0  0  0  0  0  0  0  0  0  0  0
   22.4690   45.1836   28.7266 C   0  0  0  0  0  0  0  0  0  0  0  0
   22.2399   44.0237   27.7562 C   0  0  0  0  0  0  0  0  0  0  0  0
   22.2886   44.4991   26.3840 N   0  0  0  0  0  0  0  0  0  0  0  0
  1  2  1  0  0  0  0
  2  3  1  0  0  0  0
  3  4  1  0  0  0  0
  4  5  1  0  0  0  0
  5  6  1  0  0  0  0
  6  7  1  0  0  0  0
  7  8  1  0  0  0  0
  8  9  1  0  0  0  0
  9 10  1  0  0  0  0
 10 11  1  0  0  0  0
 11 12  1  0  0  0  0
 12 13  1  0  0  0  0
 13 14  1  0  0  0  0
M  END
>  <CHROM.1>
67.40673174,-179.94569196,-67.26890253,-143.51489486,-178.74093924,-173.43788272
-65.75088490,-173.09416949,-163.01626580,-65.49496259,-173.54019813,18.54408782
43.79486661,31.42102785,2.60122679,0.06096470,1.72685656

>  <Name>
ligand

>  <RI>
0

>  <Rbt.Current_Directory>
/home/itssahil/PROJECTS/Mol_Feturizer/New_Systems/rnas/4P5J

>  <Rbt.Executable>
rbdock ($Id: //depot/dev/client3/rdock/2013.1/src/exe/rbdock.cxx#4 $)

>  <Rbt.Library>
libRbt.so (2013.1, Build901 2013/11/27)

>  <Rbt.Parameter_File>
/export/apps/rDock/src/rDock_2013.1_src/data/scripts/dock_solv.prm

>  <Rbt.Receptor>
prm/blind_docking_60.prm

>  <SCORE>
-11.5

>  <SCORE.INTER>
-2.8557

>  <SCORE.INTER.CONST>
1

>  <SCORE.INTER.POLAR>
0

>  <SCORE.INTER.ROT>
11

>  <SCORE.INTER.SOLV>
10.7873

>  <SCORE.INTER.VDW>
-16.4329

>  <SCORE.INTER.norm>
-0.203979

>  <SCORE.INTRA>
-8.64429

>  <SCORE.INTRA.DIHEDRAL>
-15.6359

>  <SCORE.INTRA.DIHEDRAL.0>
17.5233

>  <SCORE.INTRA.POLAR>
0

>  <SCORE.INTRA.POLAR.0>
0

>  <SCORE.INTRA.REPUL>
0

>  <SCORE.INTRA.REPUL.0>
0

>  <SCORE.INTRA.SOLV>
-1.30583

>  <SCORE.INTRA.SOLV.lig_0>
-46.1043

>  <SCORE.INTRA.VDW>
-0.173444

>  <SCORE.INTRA.VDW.0>
-0.545445

>  <SCORE.INTRA.norm>
-0.617449

>  <SCORE.RESTR>
0

>  <SCORE.RESTR.CAVITY>
0

>  <SCORE.RESTR.norm>
0

>  <SCORE.SYSTEM>
0

>  <SCORE.SYSTEM.CONST>
0

>  <SCORE.SYSTEM.DIHEDRAL>
0

>  <SCORE.SYSTEM.SOLV>
0

>  <SCORE.SYSTEM.norm>
0

>  <SCORE.heavy>
14

>  <SCORE.norm>
-0.821428

>  <RMSD>
15.625

$$$$
ligand
 OpenBabel11021811513D
libRbt.so/2013.1/901 2013/11/27
 14 13  0  0  0  0  0  0  0  0999 V2000
   22.8063   43.7869   29.7153 N   0  0  0  0  0  0  0  0  0  0  0  0
   23.5164   44.5178   30.7523 C   0  0  0  0  0  0  0  0  0  0  0  0
   23.4492   43.7615   32.0749 C   0  0  0  0  0  0  0  0  0  0  0  0
   22.0575   43.8524   32.6905 C   0  0  0  0  0  0  0  0  0  0  0  0
   21.0547   43.1021   31.9405 N   0  0  0  0  0  0  0  0  0  0  0  0
   19.8878   43.7707   31.3898 C   0  0  0  0  0  0  0  0  0  0  0  0
   18.7189   43.8217   32.3675 C   0  0  0  0  0  0  0  0  0  0  0  0
   17.5089   44.4668   31.7012 C   0  0  0  0  0  0  0  0  0  0  0  0
   16.3803   44.6181   32.7153 C   0  0  0  0  0  0  0  0  0  0  0  0
   15.8718   43.3327   33.1621 N   0  0  0  0  0  0  0  0  0  0  0  0
   14.5503   43.2578   33.7708 C   0  0  0  0  0  0  0  0  0  0  0  0
   13.6822   42.1045   33.2721 C   0  0  0  0  0  0  0  0  0  0  0  0
   12.2797   42.1831   33.8777 C   0  0  0  0  0  0  0  0  0  0  0  0
   11.4021   41.2163   33.2404 N   0  0  0  0  0  0  0  0  0  0  0  0
  1  2  1  0  0  0  0
  2  3  1  0  0  0  0
  3  4  1  0  0  0  0
  4  5  1  0  0  0  0
  5  6  1  0  0  0  0
  6  7  1  0  0  0  0
  7  8  1  0  0  0  0
  8  9  1  0  0  0  0
  9 10  1  0  0  0  0
 10 11  1  0  0  0  0
 11 12  1  0  0  0  0
 12 13  1  0  0  0  0
 13 14  1  0  0  0  0
M  END
>  <CHROM.1>
-73.15386582,69.50862889,-121.08064250,-88.71042258,-176.96504310,-175.45022898
-65.73236844,-160.21955554,135.18618310,-175.11294557,170.95389942,18.08341659
43.41398510,32.33372843,0.27284456,-0.03693684,-1.06611528

>  <Name>
ligand

>  <RI>
0

>  <Rbt.Current_Directory>
/home/itssahil/PROJECTS/Mol_Feturizer/New_Systems/rnas/4P5J

>  <Rbt.Executable>
rbdock ($Id: //depot/dev/client3/rdock/2013.1/src/exe/rbdock.cxx#4 $)

>  <Rbt.Library>
libRbt.so (2013.1, Build901 2013/11/27)

>  <Rbt.Parameter_File>
/export/apps/rDock/src/rDock_2013.1_src/data/scripts/dock_solv.prm

>  <Rbt.Receptor>
prm/blind_docking_60.prm

>  <SCORE>
-9.09283

>  <SCORE.INTER>
-2.50153

>  <SCORE.INTER.CONST>
1

>  <SCORE.INTER.POLAR>
0

>  <SCORE.INTER.ROT>
11

>  <SCORE.INTER.SOLV>
12.4811

>  <SCORE.INTER.VDW>
-16.7614

>  <SCORE.INTER.norm>
-0.17868

>  <SCORE.INTRA>
-6.59131

>  <SCORE.INTRA.DIHEDRAL>
-12.8481

>  <SCORE.INTRA.DIHEDRAL.0>
17.5233

>  <SCORE.INTRA.POLAR>
0

>  <SCORE.INTRA.POLAR.0>
0

>  <SCORE.INTRA.REPUL>
0

>  <SCORE.INTRA.REPUL.0>
0

>  <SCORE.INTRA.SOLV>
1.04254

>  <SCORE.INTRA.SOLV.lig_0>
-46.1043

>  <SCORE.INTRA.VDW>
-0.688543

>  <SCORE.INTRA.VDW.0>
-0.545445

>  <SCORE.INTRA.norm>
-0.470808

>  <SCORE.RESTR>
0

>  <SCORE.RESTR.CAVITY>
0

>  <SCORE.RESTR.norm>
0

>  <SCORE.SYSTEM>
0

>  <SCORE.SYSTEM.CONST>
0

>  <SCORE.SYSTEM.DIHEDRAL>
0

>  <SCORE.SYSTEM.SOLV>
0

>  <SCORE.SYSTEM.norm>
0

>  <SCORE.heavy>
14

>  <SCORE.norm>
-0.649488

>  <RMSD>
15.629

$$$$
ligand
 OpenBabel11021811513D
libRbt.so/2013.1/901 2013/11/27
 14 13  0  0  0  0  0  0  0  0999 V2000
   13.3139   43.7323   34.5596 N   0  0  0  0  0  0  0  0  0  0  0  0
   13.8710   43.1852   33.3330 C   0  0  0  0  0  0  0  0  0  0  0  0
   14.2403   44.3093   32.3708 C   0  0  0  0  0  0  0  0  0  0  0  0
   15.4403   45.0987   32.8817 C   0  0  0  0  0  0  0  0  0  0  0  0
   16.6782   44.3250   32.8640 N   0  0  0  0  0  0  0  0  0  0  0  0
   17.2920   43.9379   31.6049 C   0  0  0  0  0  0  0  0  0  0  0  0
   18.3671   42.8702   31.7745 C   0  0  0  0  0  0  0  0  0  0  0  0
   19.5279   43.4237   32.5933 C   0  0  0  0  0  0  0  0  0  0  0  0
   20.3089   44.4366   31.7630 C   0  0  0  0  0  0  0  0  0  0  0  0
   20.9086   43.8315   30.5863 N   0  0  0  0  0  0  0  0  0  0  0  0
   21.5803   44.6782   29.6093 C   0  0  0  0  0  0  0  0  0  0  0  0
   21.6297   44.1051   28.1946 C   0  0  0  0  0  0  0  0  0  0  0  0
   22.3919   45.0440   27.2579 C   0  0  0  0  0  0  0  0  0  0  0  0
   22.4375   44.4875   25.9164 N   0  0  0  0  0  0  0  0  0  0  0  0
  1  2  1  0  0  0  0
  2  3  1  0  0  0  0
  3  4  1  0  0  0  0
  4  5  1  0  0  0  0
  5  6  1  0  0  0  0
  6  7  1  0  0  0  0
  7  8  1  0  0  0  0
  8  9  1  0  0  0  0
  9 10  1  0  0  0  0
 10 11  1  0  0  0  0
 11 12  1  0  0  0  0
 12 13  1  0  0  0  0
 13 14  1  0  0  0  0
M  END
>  <CHROM.1>
69.83573838,68.27667074,68.21905982,-166.16172691,-64.46735618,-71.49792794
-62.74812707,173.97350614,-154.57886530,-178.15838193,179.78037977,18.42773000
44.10465445,31.09357715,2.51634869,-0.07481437,1.77583183

>  <Name>
ligand

>  <RI>
0

>  <Rbt.Current_Directory>
/home/itssahil/PROJECTS/Mol_Feturizer/New_Systems/rnas/4P5J

>  <Rbt.Executable>
rbdock ($Id: //depot/dev/client3/rdock/2013.1/src/exe/rbdock.cxx#4 $)

>  <Rbt.Library>
libRbt.so (2013.1, Build901 2013/11/27)

>  <Rbt.Parameter_File>
/export/apps/rDock/src/rDock_2013.1_src/data/scripts/dock_solv.prm

>  <Rbt.Receptor>
prm/blind_docking_60.prm

>  <SCORE>
-10.1098

>  <SCORE.INTER>
-2.74602

>  <SCORE.INTER.CONST>
1

>  <SCORE.INTER.POLAR>
0

>  <SCORE.INTER.ROT>
11

>  <SCORE.INTER.SOLV>
12.157

>  <SCORE.INTER.VDW>
-16.8163

>  <SCORE.INTER.norm>
-0.196144

>  <SCORE.INTRA>
-7.36374

>  <SCORE.INTRA.DIHEDRAL>
-15.5629

>  <SCORE.INTRA.DIHEDRAL.0>
17.5233

>  <SCORE.INTRA.POLAR>
0

>  <SCORE.INTRA.POLAR.0>
0

>  <SCORE.INTRA.REPUL>
0

>  <SCORE.INTRA.REPUL.0>
0

>  <SCORE.INTRA.SOLV>
0.0206806

>  <SCORE.INTRA.SOLV.lig_0>
-46.1043

>  <SCORE.INTRA.VDW>
0.407363

>  <SCORE.INTRA.VDW.0>
-0.545445

>  <SCORE.INTRA.norm>
-0.525982

>  <SCORE.RESTR>
0

>  <SCORE.RESTR.CAVITY>
0

>  <SCORE.RESTR.norm>
0

>  <SCORE.SYSTEM>
0

>  <SCORE.SYSTEM.CONST>
0

>  <SCORE.SYSTEM.DIHEDRAL>
0

>  <SCORE.SYSTEM.SOLV>
0

>  <SCORE.SYSTEM.norm>
0

>  <SCORE.heavy>
14

>  <SCORE.norm>
-0.722126

>  <RMSD>
15.701

$$$$
ligand
 OpenBabel11021811513D
libRbt.so/2013.1/901 2013/11/27
 14 13  0  0  0  0  0  0  0  0999 V2000
   22.6597   44.9635   28.3604 N   0  0  0  0  0  0  0  0  0  0  0  0
   22.1942   44.9684   29.7378 C   0  0  0  0  0  0  0  0  0  0  0  0
   22.9331   43.9109   30.5511 C   0  0  0  0  0  0  0  0  0  0  0  0
   22.3729   43.8139   31.9657 C   0  0  0  0  0  0  0  0  0  0  0  0
   21.0081   43.2972   32.0017 N   0  0  0  0  0  0  0  0  0  0  0  0
   19.8770   44.2006   32.1292 C   0  0  0  0  0  0  0  0  0  0  0  0
   18.5399   43.4701   32.1865 C   0  0  0  0  0  0  0  0  0  0  0  0
   17.4044   44.4727   32.3596 C   0  0  0  0  0  0  0  0  0  0  0  0
   16.0776   43.7328   32.4905 C   0  0  0  0  0  0  0  0  0  0  0  0
   14.9579   44.6441   32.6524 N   0  0  0  0  0  0  0  0  0  0  0  0
   13.5976   44.1283   32.5731 C   0  0  0  0  0  0  0  0  0  0  0  0
   12.9541   43.8150   33.9222 C   0  0  0  0  0  0  0  0  0  0  0  0
   13.5392   42.5319   34.5147 C   0  0  0  0  0  0  0  0  0  0  0  0
   13.1470   41.3842   33.7144 N   0  0  0  0  0  0  0  0  0  0  0  0
  1  2  1  0  0  0  0
  2  3  1  0  0  0  0
  3  4  1  0  0  0  0
  4  5  1  0  0  0  0
  5  6  1  0  0  0  0
  6  7  1  0  0  0  0
  7  8  1  0  0  0  0
  8  9  1  0  0  0  0
  9 10  1  0  0  0  0
 10 11  1  0  0  0  0
 11 12  1  0  0  0  0
 12 13  1  0  0  0  0
 13 14  1  0  0  0  0
M  END
>  <CHROM.1>
-174.90484146,67.07089612,-99.40923548,-178.44145429,178.40114268,-177.01714799
-179.75438513,170.01741258,96.47032432,-74.37986986,-67.71748524,17.94734376
43.80963998,32.08297903,0.34244488,0.14696358,-0.83819239

>  <Name>
ligand

>  <RI>
0

>  <Rbt.Current_Directory>
/home/itssahil/PROJECTS/Mol_Feturizer/New_Systems/rnas/4P5J

>  <Rbt.Executable>
rbdock ($Id: //depot/dev/client3/rdock/2013.1/src/exe/rbdock.cxx#4 $)

>  <Rbt.Library>
libRbt.so (2013.1, Build901 2013/11/27)

>  <Rbt.Parameter_File>
/export/apps/rDock/src/rDock_2013.1_src/data/scripts/dock_solv.prm

>  <Rbt.Receptor>
prm/blind_docking_60.prm

>  <SCORE>
-9.06476

>  <SCORE.INTER>
-1.0337

>  <SCORE.INTER.CONST>
1

>  <SCORE.INTER.POLAR>
0

>  <SCORE.INTER.ROT>
11

>  <SCORE.INTER.SOLV>
15.3491

>  <SCORE.INTER.VDW>
-16.7388

>  <SCORE.INTER.norm>
-0.0738359

>  <SCORE.INTRA>
-8.03106

>  <SCORE.INTRA.DIHEDRAL>
-14.4579

>  <SCORE.INTRA.DIHEDRAL.0>
17.5233

>  <SCORE.INTRA.POLAR>
0

>  <SCORE.INTRA.POLAR.0>
0

>  <SCORE.INTRA.REPUL>
0

>  <SCORE.INTRA.REPUL.0>
0

>  <SCORE.INTRA.SOLV>
-0.304329

>  <SCORE.INTRA.SOLV.lig_0>
-46.1043

>  <SCORE.INTRA.VDW>
-0.649965

>  <SCORE.INTRA.VDW.0>
-0.545445

>  <SCORE.INTRA.norm>
-0.573647

>  <SCORE.RESTR>
0

>  <SCORE.RESTR.CAVITY>
0

>  <SCORE.RESTR.norm>
0

>  <SCORE.SYSTEM>
0

>  <SCORE.SYSTEM.CONST>
0

>  <SCORE.SYSTEM.DIHEDRAL>
0

>  <SCORE.SYSTEM.SOLV>
0

>  <SCORE.SYSTEM.norm>
0

>  <SCORE.heavy>
14

>  <SCORE.norm>
-0.647483

>  <RMSD>
15.714

$$$$
ligand
 OpenBabel11021811513D
libRbt.so/2013.1/901 2013/11/27
 14 13  0  0  0  0  0  0  0  0999 V2000
   23.5995   42.9868   31.1721 N   0  0  0  0  0  0  0  0  0  0  0  0
   22.8106   42.6734   29.9917 C   0  0  0  0  0  0  0  0  0  0  0  0
   22.3720   43.9553   29.2914 C   0  0  0  0  0  0  0  0  0  0  0  0
   21.4859   44.8020   30.1982 C   0  0  0  0  0  0  0  0  0  0  0  0
   20.2302   44.1418   30.5424 N   0  0  0  0  0  0  0  0  0  0  0  0
   19.3036   44.7545   31.4793 C   0  0  0  0  0  0  0  0  0  0  0  0
   17.9571   44.0412   31.5318 C   0  0  0  0  0  0  0  0  0  0  0  0
   16.9677   44.8541   32.3593 C   0  0  0  0  0  0  0  0  0  0  0  0
   15.6023   44.1753   32.3451 C   0  0  0  0  0  0  0  0  0  0  0  0
   15.5840   42.9685   33.1536 N   0  0  0  0  0  0  0  0  0  0  0  0
   14.3254   42.2646   33.3609 C   0  0  0  0  0  0  0  0  0  0  0  0
   13.5552   42.6882   34.6098 C   0  0  0  0  0  0  0  0  0  0  0  0
   13.0902   44.1406   34.4907 C   0  0  0  0  0  0  0  0  0  0  0  0
   12.0349   44.2507   33.4981 N   0  0  0  0  0  0  0  0  0  0  0  0
  1  2  1  0  0  0  0
  2  3  1  0  0  0  0
  3  4  1  0  0  0  0
  4  5  1  0  0  0  0
  5  6  1  0  0  0  0
  6  7  1  0  0  0  0
  7  8  1  0  0  0  0
  8  9  1  0  0  0  0
  9 10  1  0  0  0  0
 10 11  1  0  0  0  0
 11 12  1  0  0  0  0
 12 13  1  0  0  0  0
 13 14  1  0  0  0  0
M  END
>  <CHROM.1>
-61.83567551,-63.65185953,175.32997424,170.28821385,-171.16347386,176.91402863
72.65448519,173.96321245,-91.85551573,65.32628808,70.46950325,17.77987924
43.76414509,32.00171216,-0.19098502,-0.33765429,2.65920045

>  <Name>
ligand

>  <RI>
0

>  <Rbt.Current_Directory>
/home/itssahil/PROJECTS/Mol_Feturizer/New_Systems/rnas/4P5J

>  <Rbt.Executable>
rbdock ($Id: //depot/dev/client3/rdock/2013.1/src/exe/rbdock.cxx#4 $)

>  <Rbt.Library>
libRbt.so (2013.1, Build901 2013/11/27)

>  <Rbt.Parameter_File>
/export/apps/rDock/src/rDock_2013.1_src/data/scripts/dock_solv.prm

>  <Rbt.Receptor>
prm/blind_docking_60.prm

>  <SCORE>
-9.08777

>  <SCORE.INTER>
-1.97138

>  <SCORE.INTER.CONST>
1

>  <SCORE.INTER.POLAR>
0

>  <SCORE.INTER.ROT>
11

>  <SCORE.INTER.SOLV>
8.77534

>  <SCORE.INTER.VDW>
-15.1727

>  <SCORE.INTER.norm>
-0.140813

>  <SCORE.INTRA>
-7.11638

>  <SCORE.INTRA.DIHEDRAL>
-15.2534

>  <SCORE.INTRA.DIHEDRAL.0>
17.5233

>  <SCORE.INTRA.POLAR>
0

>  <SCORE.INTRA.POLAR.0>
0

>  <SCORE.INTRA.REPUL>
0

>  <SCORE.INTRA.REPUL.0>
0

>  <SCORE.INTRA.SOLV>
1.74223

>  <SCORE.INTRA.SOLV.lig_0>
-46.1043

>  <SCORE.INTRA.VDW>
-0.36077

>  <SCORE.INTRA.VDW.0>
-0.545445

>  <SCORE.INTRA.norm>
-0.508313

>  <SCORE.RESTR>
0

>  <SCORE.RESTR.CAVITY>
0

>  <SCORE.RESTR.norm>
0

>  <SCORE.SYSTEM>
0

>  <SCORE.SYSTEM.CONST>
0

>  <SCORE.SYSTEM.DIHEDRAL>
0

>  <SCORE.SYSTEM.SOLV>
0

>  <SCORE.SYSTEM.norm>
0

>  <SCORE.heavy>
14

>  <SCORE.norm>
-0.649126

>  <RMSD>
15.748

$$$$
ligand
 OpenBabel11021811513D
libRbt.so/2013.1/901 2013/11/27
 14 13  0  0  0  0  0  0  0  0999 V2000
   22.2303   44.6220   25.8881 N   0  0  0  0  0  0  0  0  0  0  0  0
   22.7643   45.0072   27.1844 C   0  0  0  0  0  0  0  0  0  0  0  0
   21.7609   44.6877   28.2875 C   0  0  0  0  0  0  0  0  0  0  0  0
   22.3174   45.0509   29.6596 C   0  0  0  0  0  0  0  0  0  0  0  0
   21.3473   44.8619   30.7340 N   0  0  0  0  0  0  0  0  0  0  0  0
   20.9945   43.5270   31.1872 C   0  0  0  0  0  0  0  0  0  0  0  0
   19.5370   43.1745   30.9109 C   0  0  0  0  0  0  0  0  0  0  0  0
   18.6175   44.1075   31.6909 C   0  0  0  0  0  0  0  0  0  0  0  0
   17.1619   43.7821   31.3737 C   0  0  0  0  0  0  0  0  0  0  0  0
   16.2395   44.5941   32.1485 N   0  0  0  0  0  0  0  0  0  0  0  0
   14.9079   44.0815   32.4429 C   0  0  0  0  0  0  0  0  0  0  0  0
   14.8431   43.1122   33.6213 C   0  0  0  0  0  0  0  0  0  0  0  0
   13.4220   42.5760   33.8019 C   0  0  0  0  0  0  0  0  0  0  0  0
   12.4991   43.6709   34.0482 N   0  0  0  0  0  0  0  0  0  0  0  0
  1  2  1  0  0  0  0
  2  3  1  0  0  0  0
  3  4  1  0  0  0  0
  4  5  1  0  0  0  0
  5  6  1  0  0  0  0
  6  7  1  0  0  0  0
  7  8  1  0  0  0  0
  8  9  1  0  0  0  0
  9 10  1  0  0  0  0
 10 11  1  0  0  0  0
 11 12  1  0  0  0  0
 12 13  1  0  0  0  0
 13 14  1  0  0  0  0
M  END
>  <CHROM.1>
178.51068835,175.33647188,73.50246262,-114.91142076,-63.30894125,178.04721596
176.80239639,-153.26700062,81.15105764,-177.00381573,-59.71619796,18.47464340
44.06095254,30.92716777,0.58597858,-0.04967745,-1.41031750

>  <Name>
ligand

>  <RI>
0

>  <Rbt.Current_Directory>
/home/itssahil/PROJECTS/Mol_Feturizer/New_Systems/rnas/4P5J

>  <Rbt.Executable>
rbdock ($Id: //depot/dev/client3/rdock/2013.1/src/exe/rbdock.cxx#4 $)

>  <Rbt.Library>
libRbt.so (2013.1, Build901 2013/11/27)

>  <Rbt.Parameter_File>
/export/apps/rDock/src/rDock_2013.1_src/data/scripts/dock_solv.prm

>  <Rbt.Receptor>
prm/blind_docking_60.prm

>  <SCORE>
-11.8546

>  <SCORE.INTER>
-3.41253

>  <SCORE.INTER.CONST>
1

>  <SCORE.INTER.POLAR>
0

>  <SCORE.INTER.ROT>
11

>  <SCORE.INTER.SOLV>
12.8083

>  <SCORE.INTER.VDW>
-17.4778

>  <SCORE.INTER.norm>
-0.243752

>  <SCORE.INTRA>
-8.45397

>  <SCORE.INTRA.DIHEDRAL>
-15.1506

>  <SCORE.INTRA.DIHEDRAL.0>
17.5233

>  <SCORE.INTRA.POLAR>
0

>  <SCORE.INTRA.POLAR.0>
0

>  <SCORE.INTRA.REPUL>
0

>  <SCORE.INTRA.REPUL.0>
0

>  <SCORE.INTRA.SOLV>
-1.46656

>  <SCORE.INTRA.SOLV.lig_0>
-46.1043

>  <SCORE.INTRA.VDW>
-0.145395

>  <SCORE.INTRA.VDW.0>
-0.545445

>  <SCORE.INTRA.norm>
-0.603855

>  <SCORE.RESTR>
0.0119069

>  <SCORE.RESTR.CAVITY>
0.0119069

>  <SCORE.RESTR.norm>
0.000850492

>  <SCORE.SYSTEM>
0

>  <SCORE.SYSTEM.CONST>
0

>  <SCORE.SYSTEM.DIHEDRAL>
0

>  <SCORE.SYSTEM.SOLV>
0

>  <SCORE.SYSTEM.norm>
0

>  <SCORE.heavy>
14

>  <SCORE.norm>
-0.846756

>  <RMSD>
15.824

$$$$
ligand
 OpenBabel11021811513D
libRbt.so/2013.1/901 2013/11/27
 14 13  0  0  0  0  0  0  0  0999 V2000
   22.5066   45.0202   26.8386 N   0  0  0  0  0  0  0  0  0  0  0  0
   22.0246   44.4056   28.0650 C   0  0  0  0  0  0  0  0  0  0  0  0
   22.4940   45.2026   29.2775 C   0  0  0  0  0  0  0  0  0  0  0  0
   22.0753   44.5245   30.5772 C   0  0  0  0  0  0  0  0  0  0  0  0
   20.6264   44.4194   30.7218 N   0  0  0  0  0  0  0  0  0  0  0  0
   20.0140   43.1771   31.1616 C   0  0  0  0  0  0  0  0  0  0  0  0
   18.5113   43.1358   30.9068 C   0  0  0  0  0  0  0  0  0  0  0  0
   17.7987   44.1211   31.8264 C   0  0  0  0  0  0  0  0  0  0  0  0
   16.2911   44.0232   31.6194 C   0  0  0  0  0  0  0  0  0  0  0  0
   15.5593   44.9098   32.5076 N   0  0  0  0  0  0  0  0  0  0  0  0
   15.1498   44.4294   33.8207 C   0  0  0  0  0  0  0  0  0  0  0  0
   14.3648   43.1195   33.8050 C   0  0  0  0  0  0  0  0  0  0  0  0
   13.0465   43.2889   33.0480 C   0  0  0  0  0  0  0  0  0  0  0  0
   12.1748   44.2103   33.7567 N   0  0  0  0  0  0  0  0  0  0  0  0
  1  2  1  0  0  0  0
  2  3  1  0  0  0  0
  3  4  1  0  0  0  0
  4  5  1  0  0  0  0
  5  6  1  0  0  0  0
  6  7  1  0  0  0  0
  7  8  1  0  0  0  0
  8  9  1  0  0  0  0
  9 10  1  0  0  0  0
 10 11  1  0  0  0  0
 11 12  1  0  0  0  0
 12 13  1  0  0  0  0
 13 14  1  0  0  0  0
M  END
>  <CHROM.1>
-176.31730334,-61.89750803,134.51452274,-164.96386952,-69.32242273,-177.04638438
177.95916923,-89.43072343,-52.98894514,-62.85081178,-65.59182169,18.04564251
44.14174786,31.28101587,0.50807602,0.02707864,-1.35916112

>  <Name>
ligand

>  <RI>
0

>  <Rbt.Current_Directory>
/home/itssahil/PROJECTS/Mol_Feturizer/New_Systems/rnas/4P5J

>  <Rbt.Executable>
rbdock ($Id: //depot/dev/client3/rdock/2013.1/src/exe/rbdock.cxx#4 $)

>  <Rbt.Library>
libRbt.so (2013.1, Build901 2013/11/27)

>  <Rbt.Parameter_File>
/export/apps/rDock/src/rDock_2013.1_src/data/scripts/dock_solv.prm

>  <Rbt.Receptor>
prm/blind_docking_60.prm

>  <SCORE>
-9.97889

>  <SCORE.INTER>
-2.52465

>  <SCORE.INTER.CONST>
1

>  <SCORE.INTER.POLAR>
0

>  <SCORE.INTER.ROT>
11

>  <SCORE.INTER.SOLV>
11.9746

>  <SCORE.INTER.VDW>
-16.608

>  <SCORE.INTER.norm>
-0.180332

>  <SCORE.INTRA>
-7.45424

>  <SCORE.INTRA.DIHEDRAL>
-15.1022

>  <SCORE.INTRA.DIHEDRAL.0>
17.5233

>  <SCORE.INTRA.POLAR>
0

>  <SCORE.INTRA.POLAR.0>
0

>  <SCORE.INTRA.REPUL>
0

>  <SCORE.INTRA.REPUL.0>
0

>  <SCORE.INTRA.SOLV>
-0.217664

>  <SCORE.INTRA.SOLV.lig_0>
-46.1043

>  <SCORE.INTRA.VDW>
0.205715

>  <SCORE.INTRA.VDW.0>
-0.545445

>  <SCORE.INTRA.norm>
-0.532446

>  <SCORE.RESTR>
0

>  <SCORE.RESTR.CAVITY>
0

>  <SCORE.RESTR.norm>
0

>  <SCORE.SYSTEM>
0

>  <SCORE.SYSTEM.CONST>
0

>  <SCORE.SYSTEM.DIHEDRAL>
0

>  <SCORE.SYSTEM.SOLV>
0

>  <SCORE.SYSTEM.norm>
0

>  <SCORE.heavy>
14

>  <SCORE.norm>
-0.712778

>  <RMSD>
15.862

$$$$
ligand
 OpenBabel11021811513D
libRbt.so/2013.1/901 2013/11/27
 14 13  0  0  0  0  0  0  0  0999 V2000
   12.9166   41.8002   33.8266 N   0  0  0  0  0  0  0  0  0  0  0  0
   13.8951   42.8632   33.6638 C   0  0  0  0  0  0  0  0  0  0  0  0
   13.4954   43.7801   32.5125 C   0  0  0  0  0  0  0  0  0  0  0  0
   14.5233   44.8874   32.3088 C   0  0  0  0  0  0  0  0  0  0  0  0
   15.7952   44.3931   31.7900 N   0  0  0  0  0  0  0  0  0  0  0  0
   16.8042   43.8583   32.6887 C   0  0  0  0  0  0  0  0  0  0  0  0
   18.2136   43.9429   32.1132 C   0  0  0  0  0  0  0  0  0  0  0  0
   18.3184   43.0805   30.8603 C   0  0  0  0  0  0  0  0  0  0  0  0
   19.7852   42.8452   30.5164 C   0  0  0  0  0  0  0  0  0  0  0  0
   20.4595   44.0732   30.1319 N   0  0  0  0  0  0  0  0  0  0  0  0
   21.9020   44.1823   30.3050 C   0  0  0  0  0  0  0  0  0  0  0  0
   22.5646   45.2745   29.4681 C   0  0  0  0  0  0  0  0  0  0  0  0
   22.2768   45.0645   27.9805 C   0  0  0  0  0  0  0  0  0  0  0  0
   23.0011   43.9055   27.4872 N   0  0  0  0  0  0  0  0  0  0  0  0
  1  2  1  0  0  0  0
  2  3  1  0  0  0  0
  3  4  1  0  0  0  0
  4  5  1  0  0  0  0
  5  6  1  0  0  0  0
  6  7  1  0  0  0  0
  7  8  1  0  0  0  0
  8  9  1  0  0  0  0
  9 10  1  0  0  0  0
 10 11  1  0  0  0  0
 11 12  1  0  0  0  0
 12 13  1  0  0  0  0
 13 14  1  0  0  0  0
M  END
>  <CHROM.1>
-178.94669458,69.28106360,-84.19938021,-155.74547097,-63.59481775,-164.00471176
-65.89799822,154.65266587,160.44220273,-57.25980902,-70.69185983,18.13938596
43.85377018,31.11819785,-2.84579461,0.39342697,-0.40801603

>  <Name>
ligand

>  <RI>
0

>  <Rbt.Current_Directory>
/home/itssahil/PROJECTS/Mol_Feturizer/New_Systems/rnas/4P5J

>  <Rbt.Executable>
rbdock ($Id: //depot/dev/client3/rdock/2013.1/src/exe/rbdock.cxx#4 $)

>  <Rbt.Library>
libRbt.so (2013.1, Build901 2013/11/27)

>  <Rbt.Parameter_File>
/export/apps/rDock/src/rDock_2013.1_src/data/scripts/dock_solv.prm

>  <Rbt.Receptor>
prm/blind_docking_60.prm

>  <SCORE>
-9.30272

>  <SCORE.INTER>
-2.29119

>  <SCORE.INTER.CONST>
1

>  <SCORE.INTER.POLAR>
0

>  <SCORE.INTER.ROT>
11

>  <SCORE.INTER.SOLV>
13.9677

>  <SCORE.INTER.VDW>
-17.1167

>  <SCORE.INTER.norm>
-0.163657

>  <SCORE.INTRA>
-7.01837

>  <SCORE.INTRA.DIHEDRAL>
-13.9726

>  <SCORE.INTRA.DIHEDRAL.0>
17.5233

>  <SCORE.INTRA.POLAR>
0

>  <SCORE.INTRA.POLAR.0>
0

>  <SCORE.INTRA.REPUL>
0

>  <SCORE.INTRA.REPUL.0>
0

>  <SCORE.INTRA.SOLV>
0.27316

>  <SCORE.INTRA.SOLV.lig_0>
-46.1043

>  <SCORE.INTRA.VDW>
-0.168662

>  <SCORE.INTRA.VDW.0>
-0.545445

>  <SCORE.INTRA.norm>
-0.501312

>  <SCORE.RESTR>
0.00683908

>  <SCORE.RESTR.CAVITY>
0.00683908

>  <SCORE.RESTR.norm>
0.000488506

>  <SCORE.SYSTEM>
0

>  <SCORE.SYSTEM.CONST>
0

>  <SCORE.SYSTEM.DIHEDRAL>
0

>  <SCORE.SYSTEM.SOLV>
0

>  <SCORE.SYSTEM.norm>
0

>  <SCORE.heavy>
14

>  <SCORE.norm>
-0.66448

>  <RMSD>
15.993

$$$$
ligand
 OpenBabel11021811513D
libRbt.so/2013.1/901 2013/11/27
 14 13  0  0  0  0  0  0  0  0999 V2000
   12.4875   44.8064   32.7390 N   0  0  0  0  0  0  0  0  0  0  0  0
   12.1943   43.8113   33.7578 C   0  0  0  0  0  0  0  0  0  0  0  0
   13.4418   43.5141   34.5832 C   0  0  0  0  0  0  0  0  0  0  0  0
   14.4665   42.7318   33.7694 C   0  0  0  0  0  0  0  0  0  0  0  0
   14.9967   43.4926   32.6419 N   0  0  0  0  0  0  0  0  0  0  0  0
   16.0534   44.4705   32.8396 C   0  0  0  0  0  0  0  0  0  0  0  0
   17.2849   44.1916   31.9850 C   0  0  0  0  0  0  0  0  0  0  0  0
   17.9842   42.9281   32.4739 C   0  0  0  0  0  0  0  0  0  0  0  0
   19.1631   42.6047   31.5624 C   0  0  0  0  0  0  0  0  0  0  0  0
   20.2008   43.6189   31.6312 N   0  0  0  0  0  0  0  0  0  0  0  0
   20.1972   44.7134   30.6696 C   0  0  0  0  0  0  0  0  0  0  0  0
   20.7867   44.3656   29.3043 C   0  0  0  0  0  0  0  0  0  0  0  0
   22.2960   44.1404   29.4092 C   0  0  0  0  0  0  0  0  0  0  0  0
   22.8606   43.8974   28.0927 N   0  0  0  0  0  0  0  0  0  0  0  0
  1  2  1  0  0  0  0
  2  3  1  0  0  0  0
  3  4  1  0  0  0  0
  4  5  1  0  0  0  0
  5  6  1  0  0  0  0
  6  7  1  0  0  0  0
  7  8  1  0  0  0  0
  8  9  1  0  0  0  0
  9 10  1  0  0  0  0
 10 11  1  0  0  0  0
 11 12  1  0  0  0  0
 12 13  1  0  0  0  0
 13 14  1  0  0  0  0
M  END
>  <CHROM.1>
-71.05704502,65.02011203,80.74494872,123.11200871,-68.78686032,176.43320383
65.39235380,-93.44949070,-80.46330857,-68.90694872,-176.25305106,17.45805189
43.80613767,31.81874764,2.78381113,-0.29307588,2.28160167

>  <Name>
ligand

>  <RI>
0

>  <Rbt.Current_Directory>
/home/itssahil/PROJECTS/Mol_Feturizer/New_Systems/rnas/4P5J

>  <Rbt.Executable>
rbdock ($Id: //depot/dev/client3/rdock/2013.1/src/exe/rbdock.cxx#4 $)

>  <Rbt.Library>
libRbt.so (2013.1, Build901 2013/11/27)

>  <Rbt.Parameter_File>
/export/apps/rDock/src/rDock_2013.1_src/data/scripts/dock_solv.prm

>  <Rbt.Receptor>
prm/blind_docking_60.prm

>  <SCORE>
-8.86966

>  <SCORE.INTER>
-2.70542

>  <SCORE.INTER.CONST>
1

>  <SCORE.INTER.POLAR>
0

>  <SCORE.INTER.ROT>
11

>  <SCORE.INTER.SOLV>
8.84327

>  <SCORE.INTER.VDW>
-15.6847

>  <SCORE.INTER.norm>
-0.193245

>  <SCORE.INTRA>
-6.16423

>  <SCORE.INTRA.DIHEDRAL>
-13.6485

>  <SCORE.INTRA.DIHEDRAL.0>
17.5233

>  <SCORE.INTRA.POLAR>
0

>  <SCORE.INTRA.POLAR.0>
0

>  <SCORE.INTRA.REPUL>
0

>  <SCORE.INTRA.REPUL.0>
0

>  <SCORE.INTRA.SOLV>
1.61939

>  <SCORE.INTRA.SOLV.lig_0>
-46.1043

>  <SCORE.INTRA.VDW>
-0.149666

>  <SCORE.INTRA.VDW.0>
-0.545445

>  <SCORE.INTRA.norm>
-0.440302

>  <SCORE.RESTR>
0

>  <SCORE.RESTR.CAVITY>
0

>  <SCORE.RESTR.norm>
0

>  <SCORE.SYSTEM>
0

>  <SCORE.SYSTEM.CONST>
0

>  <SCORE.SYSTEM.DIHEDRAL>
0

>  <SCORE.SYSTEM.SOLV>
0

>  <SCORE.SYSTEM.norm>
0

>  <SCORE.heavy>
14

>  <SCORE.norm>
-0.633547

>  <RMSD>
16.089

$$$$
ligand
 OpenBabel11021811513D
libRbt.so/2013.1/901 2013/11/27
 14 13  0  0  0  0  0  0  0  0999 V2000
   12.6122   41.5518   33.7827 N   0  0  0  0  0  0  0  0  0  0  0  0
   13.7707   42.4248   33.6848 C   0  0  0  0  0  0  0  0  0  0  0  0
   13.4633   43.7851   34.3020 C   0  0  0  0  0  0  0  0  0  0  0  0
   14.6305   44.7487   34.1189 C   0  0  0  0  0  0  0  0  0  0  0  0
   14.8874   45.0698   32.7182 N   0  0  0  0  0  0  0  0  0  0  0  0
   16.0782   45.8088   32.3340 C   0  0  0  0  0  0  0  0  0  0  0  0
   17.3336   44.9435   32.3229 C   0  0  0  0  0  0  0  0  0  0  0  0
   17.1883   43.8263   31.2957 C   0  0  0  0  0  0  0  0  0  0  0  0
   18.4106   42.9160   31.3465 C   0  0  0  0  0  0  0  0  0  0  0  0
   19.6322   43.6224   31.0015 N   0  0  0  0  0  0  0  0  0  0  0  0
   20.0470   43.6964   29.6068 C   0  0  0  0  0  0  0  0  0  0  0  0
   21.4574   43.1792   29.3319 C   0  0  0  0  0  0  0  0  0  0  0  0
   21.5529   41.6832   29.6364 C   0  0  0  0  0  0  0  0  0  0  0  0
   21.4668   41.4553   31.0689 N   0  0  0  0  0  0  0  0  0  0  0  0
  1  2  1  0  0  0  0
  2  3  1  0  0  0  0
  3  4  1  0  0  0  0
  4  5  1  0  0  0  0
  5  6  1  0  0  0  0
  6  7  1  0  0  0  0
  7  8  1  0  0  0  0
  8  9  1  0  0  0  0
  9 10  1  0  0  0  0
 10 11  1  0  0  0  0
 11 12  1  0  0  0  0
 12 13  1  0  0  0  0
 13 14  1  0  0  0  0
M  END
>  <CHROM.1>
-175.86161504,64.63912539,-170.73213883,77.56375735,62.08703332,-176.68055256
-62.41458007,-88.67312556,-124.59918533,64.18885286,-69.93124247,17.32373017
43.47961974,31.89641239,3.04764890,0.48130351,-0.05451323

>  <Name>
ligand

>  <RI>
0

>  <Rbt.Current_Directory>
/home/itssahil/PROJECTS/Mol_Feturizer/New_Systems/rnas/4P5J

>  <Rbt.Executable>
rbdock ($Id: //depot/dev/client3/rdock/2013.1/src/exe/rbdock.cxx#4 $)

>  <Rbt.Library>
libRbt.so (2013.1, Build901 2013/11/27)

>  <Rbt.Parameter_File>
/export/apps/rDock/src/rDock_2013.1_src/data/scripts/dock_solv.prm

>  <Rbt.Receptor>
prm/blind_docking_60.prm

>  <SCORE>
-8.71279

>  <SCORE.INTER>
-1.83627

>  <SCORE.INTER.CONST>
1

>  <SCORE.INTER.POLAR>
0

>  <SCORE.INTER.ROT>
11

>  <SCORE.INTER.SOLV>
11.5052

>  <SCORE.INTER.VDW>
-15.9926

>  <SCORE.INTER.norm>
-0.131162

>  <SCORE.INTRA>
-6.87652

>  <SCORE.INTRA.DIHEDRAL>
-14.8155

>  <SCORE.INTRA.DIHEDRAL.0>
17.5233

>  <SCORE.INTRA.POLAR>
0

>  <SCORE.INTRA.POLAR.0>
0

>  <SCORE.INTRA.REPUL>
0

>  <SCORE.INTRA.REPUL.0>
0

>  <SCORE.INTRA.SOLV>
1.91105

>  <SCORE.INTRA.SOLV.lig_0>
-46.1043

>  <SCORE.INTRA.VDW>
-0.424273

>  <SCORE.INTRA.VDW.0>
-0.545445

>  <SCORE.INTRA.norm>
-0.49118

>  <SCORE.RESTR>
0

>  <SCORE.RESTR.CAVITY>
0

>  <SCORE.RESTR.norm>
0

>  <SCORE.SYSTEM>
0

>  <SCORE.SYSTEM.CONST>
0

>  <SCORE.SYSTEM.DIHEDRAL>
0

>  <SCORE.SYSTEM.SOLV>
0

>  <SCORE.SYSTEM.norm>
0

>  <SCORE.heavy>
14

>  <SCORE.norm>
-0.622342

>  <RMSD>
16.158

$$$$
ligand
 OpenBabel11021811513D
libRbt.so/2013.1/901 2013/11/27
 14 13  0  0  0  0  0  0  0  0999 V2000
   22.1888   44.3615   28.5505 N   0  0  0  0  0  0  0  0  0  0  0  0
   22.0203   45.1210   29.7789 C   0  0  0  0  0  0  0  0  0  0  0  0
   22.4076   44.2716   30.9848 C   0  0  0  0  0  0  0  0  0  0  0  0
   21.4865   43.0651   31.1267 C   0  0  0  0  0  0  0  0  0  0  0  0
   20.1264   43.4312   31.5108 N   0  0  0  0  0  0  0  0  0  0  0  0
   19.1395   42.4067   31.8082 C   0  0  0  0  0  0  0  0  0  0  0  0
   17.9118   42.9583   32.5246 C   0  0  0  0  0  0  0  0  0  0  0  0
   17.1057   43.8386   31.5761 C   0  0  0  0  0  0  0  0  0  0  0  0
   15.9318   44.4628   32.3228 C   0  0  0  0  0  0  0  0  0  0  0  0
   15.0306   43.4583   32.8607 N   0  0  0  0  0  0  0  0  0  0  0  0
   14.1401   43.8098   33.9589 C   0  0  0  0  0  0  0  0  0  0  0  0
   13.4953   42.6185   34.6642 C   0  0  0  0  0  0  0  0  0  0  0  0
   12.3929   42.0091   33.7964 C   0  0  0  0  0  0  0  0  0  0  0  0
   12.9736   41.3205   32.6563 N   0  0  0  0  0  0  0  0  0  0  0  0
  1  2  1  0  0  0  0
  2  3  1  0  0  0  0
  3  4  1  0  0  0  0
  4  5  1  0  0  0  0
  5  6  1  0  0  0  0
  6  7  1  0  0  0  0
  7  8  1  0  0  0  0
  8  9  1  0  0  0  0
  9 10  1  0  0  0  0
 10 11  1  0  0  0  0
 11 12  1  0  0  0  0
 12 13  1  0  0  0  0
 13 14  1  0  0  0  0
M  END
>  <CHROM.1>
-63.49612613,-68.95264121,-174.52541096,165.22402697,69.15839389,-176.19398838
-60.53719569,159.05317436,-165.74518707,-74.24248214,71.15285541,17.59651252
43.36674921,32.00881427,0.27560857,0.31910947,-0.31458831

>  <Name>
ligand

>  <RI>
0

>  <Rbt.Current_Directory>
/home/itssahil/PROJECTS/Mol_Feturizer/New_Systems/rnas/4P5J

>  <Rbt.Executable>
rbdock ($Id: //depot/dev/client3/rdock/2013.1/src/exe/rbdock.cxx#4 $)

>  <Rbt.Library>
libRbt.so (2013.1, Build901 2013/11/27)

>  <Rbt.Parameter_File>
/export/apps/rDock/src/rDock_2013.1_src/data/scripts/dock_solv.prm

>  <Rbt.Receptor>
prm/blind_docking_60.prm

>  <SCORE>
-9.21312

>  <SCORE.INTER>
-2.34082

>  <SCORE.INTER.CONST>
1

>  <SCORE.INTER.POLAR>
0

>  <SCORE.INTER.ROT>
11

>  <SCORE.INTER.SOLV>
13.3526

>  <SCORE.INTER.VDW>
-16.9447

>  <SCORE.INTER.norm>
-0.167202

>  <SCORE.INTRA>
-6.87229

>  <SCORE.INTRA.DIHEDRAL>
-14.9357

>  <SCORE.INTRA.DIHEDRAL.0>
17.5233

>  <SCORE.INTRA.POLAR>
0

>  <SCORE.INTRA.POLAR.0>
0

>  <SCORE.INTRA.REPUL>
0

>  <SCORE.INTRA.REPUL.0>
0

>  <SCORE.INTRA.SOLV>
2.29654

>  <SCORE.INTRA.SOLV.lig_0>
-46.1043

>  <SCORE.INTRA.VDW>
-0.552716

>  <SCORE.INTRA.VDW.0>
-0.545445

>  <SCORE.INTRA.norm>
-0.490878

>  <SCORE.RESTR>
0

>  <SCORE.RESTR.CAVITY>
0

>  <SCORE.RESTR.norm>
0

>  <SCORE.SYSTEM>
0

>  <SCORE.SYSTEM.CONST>
0

>  <SCORE.SYSTEM.DIHEDRAL>
0

>  <SCORE.SYSTEM.SOLV>
0

>  <SCORE.SYSTEM.norm>
0

>  <SCORE.heavy>
14

>  <SCORE.norm>
-0.65808

>  <RMSD>
16.173

$$$$
ligand
 OpenBabel11021811513D
libRbt.so/2013.1/901 2013/11/27
 14 13  0  0  0  0  0  0  0  0999 V2000
   22.3365   44.6199   26.8519 N   0  0  0  0  0  0  0  0  0  0  0  0
   21.7834   44.5669   28.1955 C   0  0  0  0  0  0  0  0  0  0  0  0
   21.1311   43.2116   28.4472 C   0  0  0  0  0  0  0  0  0  0  0  0
   20.6781   43.0798   29.8970 C   0  0  0  0  0  0  0  0  0  0  0  0
   19.5570   43.9560   30.2234 N   0  0  0  0  0  0  0  0  0  0  0  0
   19.4909   44.6257   31.5115 C   0  0  0  0  0  0  0  0  0  0  0  0
   18.0601   44.8772   31.9747 C   0  0  0  0  0  0  0  0  0  0  0  0
   17.3781   43.5541   32.3043 C   0  0  0  0  0  0  0  0  0  0  0  0
   15.9516   43.8122   32.7772 C   0  0  0  0  0  0  0  0  0  0  0  0
   15.2837   42.5899   33.1902 N   0  0  0  0  0  0  0  0  0  0  0  0
   13.8413   42.5962   33.3948 C   0  0  0  0  0  0  0  0  0  0  0  0
   13.3931   43.0992   34.7654 C   0  0  0  0  0  0  0  0  0  0  0  0
   13.5029   44.6229   34.8438 C   0  0  0  0  0  0  0  0  0  0  0  0
   12.5054   45.2434   33.9887 N   0  0  0  0  0  0  0  0  0  0  0  0
  1  2  1  0  0  0  0
  2  3  1  0  0  0  0
  3  4  1  0  0  0  0
  4  5  1  0  0  0  0
  5  6  1  0  0  0  0
  6  7  1  0  0  0  0
  7  8  1  0  0  0  0
  8  9  1  0  0  0  0
  9 10  1  0  0  0  0
 10 11  1  0  0  0  0
 11 12  1  0  0  0  0
 12 13  1  0  0  0  0
 13 14  1  0  0  0  0
M  END
>  <CHROM.1>
173.88598000,68.97084960,-141.26460030,-150.44952682,68.26136376,179.56460292
-176.16433008,-166.82899247,-83.28242862,75.89388037,69.45036387,17.49240120
43.88955558,31.59775303,0.03846403,0.62881576,-0.01832328

>  <Name>
ligand

>  <RI>
0

>  <Rbt.Current_Directory>
/home/itssahil/PROJECTS/Mol_Feturizer/New_Systems/rnas/4P5J

>  <Rbt.Executable>
rbdock ($Id: //depot/dev/client3/rdock/2013.1/src/exe/rbdock.cxx#4 $)

>  <Rbt.Library>
libRbt.so (2013.1, Build901 2013/11/27)

>  <Rbt.Parameter_File>
/export/apps/rDock/src/rDock_2013.1_src/data/scripts/dock_solv.prm

>  <Rbt.Receptor>
prm/blind_docking_60.prm

>  <SCORE>
-9.60569

>  <SCORE.INTER>
-2.24926

>  <SCORE.INTER.CONST>
1

>  <SCORE.INTER.POLAR>
0

>  <SCORE.INTER.ROT>
11

>  <SCORE.INTER.SOLV>
12.45

>  <SCORE.INTER.VDW>
-16.5828

>  <SCORE.INTER.norm>
-0.160661

>  <SCORE.INTRA>
-7.35643

>  <SCORE.INTRA.DIHEDRAL>
-13.5595

>  <SCORE.INTRA.DIHEDRAL.0>
17.5233

>  <SCORE.INTRA.POLAR>
0

>  <SCORE.INTRA.POLAR.0>
0

>  <SCORE.INTRA.REPUL>
0

>  <SCORE.INTRA.REPUL.0>
0

>  <SCORE.INTRA.SOLV>
-0.0690541

>  <SCORE.INTRA.SOLV.lig_0>
-46.1043

>  <SCORE.INTRA.VDW>
-0.542133

>  <SCORE.INTRA.VDW.0>
-0.545445

>  <SCORE.INTRA.norm>
-0.525459

>  <SCORE.RESTR>
0

>  <SCORE.RESTR.CAVITY>
0

>  <SCORE.RESTR.norm>
0

>  <SCORE.SYSTEM>
0

>  <SCORE.SYSTEM.CONST>
0

>  <SCORE.SYSTEM.DIHEDRAL>
0

>  <SCORE.SYSTEM.SOLV>
0

>  <SCORE.SYSTEM.norm>
0

>  <SCORE.heavy>
14

>  <SCORE.norm>
-0.686121

>  <RMSD>
16.184

$$$$
ligand
 OpenBabel11021811513D
libRbt.so/2013.1/901 2013/11/27
 14 13  0  0  0  0  0  0  0  0999 V2000
   11.4283   42.0201   33.3614 N   0  0  0  0  0  0  0  0  0  0  0  0
   12.8564   41.8833   33.5975 C   0  0  0  0  0  0  0  0  0  0  0  0
   13.5694   43.2013   33.3140 C   0  0  0  0  0  0  0  0  0  0  0  0
   15.0678   43.0820   33.5686 C   0  0  0  0  0  0  0  0  0  0  0  0
   15.7633   44.3622   33.4757 N   0  0  0  0  0  0  0  0  0  0  0  0
   16.1895   44.8820   32.1873 C   0  0  0  0  0  0  0  0  0  0  0  0
   17.6686   44.6361   31.9102 C   0  0  0  0  0  0  0  0  0  0  0  0
   17.9179   43.1483   31.6893 C   0  0  0  0  0  0  0  0  0  0  0  0
   19.4083   42.8992   31.4852 C   0  0  0  0  0  0  0  0  0  0  0  0
   19.8988   43.4982   30.2560 N   0  0  0  0  0  0  0  0  0  0  0  0
   20.6339   44.7547   30.3154 C   0  0  0  0  0  0  0  0  0  0  0  0
   22.1490   44.6148   30.1845 C   0  0  0  0  0  0  0  0  0  0  0  0
   22.5211   44.0235   28.8237 C   0  0  0  0  0  0  0  0  0  0  0  0
   22.1837   44.9557   27.7614 N   0  0  0  0  0  0  0  0  0  0  0  0
  1  2  1  0  0  0  0
  2  3  1  0  0  0  0
  3  4  1  0  0  0  0
  4  5  1  0  0  0  0
  5  6  1  0  0  0  0
  6  7  1  0  0  0  0
  7  8  1  0  0  0  0
  8  9  1  0  0  0  0
  9 10  1  0  0  0  0
 10 11  1  0  0  0  0
 11 12  1  0  0  0  0
 12 13  1  0  0  0  0
 13 14  1  0  0  0  0
M  END
>  <CHROM.1>
179.46994319,-172.61012265,-83.77137485,-99.76507386,69.35004080,-177.05184665
-66.19914746,101.58203804,101.98470663,62.34713522,66.60099317,17.66128554
43.71152799,31.56658608,3.08588676,0.48008477,0.49706099

>  <Name>
ligand

>  <RI>
0

>  <Rbt.Current_Directory>
/home/itssahil/PROJECTS/Mol_Feturizer/New_Systems/rnas/4P5J

>  <Rbt.Executable>
rbdock ($Id: //depot/dev/client3/rdock/2013.1/src/exe/rbdock.cxx#4 $)

>  <Rbt.Library>
libRbt.so (2013.1, Build901 2013/11/27)

>  <Rbt.Parameter_File>
/export/apps/rDock/src/rDock_2013.1_src/data/scripts/dock_solv.prm

>  <Rbt.Receptor>
prm/blind_docking_60.prm

>  <SCORE>
-10.2856

>  <SCORE.INTER>
-3.22097

>  <SCORE.INTER.CONST>
1

>  <SCORE.INTER.POLAR>
0

>  <SCORE.INTER.ROT>
11

>  <SCORE.INTER.SOLV>
12.4262

>  <SCORE.INTER.VDW>
-17.2227

>  <SCORE.INTER.norm>
-0.230069

>  <SCORE.INTRA>
-7.06466

>  <SCORE.INTRA.DIHEDRAL>
-13.4338

>  <SCORE.INTRA.DIHEDRAL.0>
17.5233

>  <SCORE.INTRA.POLAR>
0

>  <SCORE.INTRA.POLAR.0>
0

>  <SCORE.INTRA.REPUL>
0

>  <SCORE.INTRA.REPUL.0>
0

>  <SCORE.INTRA.SOLV>
-0.250249

>  <SCORE.INTRA.SOLV.lig_0>
-46.1043

>  <SCORE.INTRA.VDW>
-0.222624

>  <SCORE.INTRA.VDW.0>
-0.545445

>  <SCORE.INTRA.norm>
-0.504619

>  <SCORE.RESTR>
0

>  <SCORE.RESTR.CAVITY>
0

>  <SCORE.RESTR.norm>
0

>  <SCORE.SYSTEM>
0

>  <SCORE.SYSTEM.CONST>
0

>  <SCORE.SYSTEM.DIHEDRAL>
0

>  <SCORE.SYSTEM.SOLV>
0

>  <SCORE.SYSTEM.norm>
0

>  <SCORE.heavy>
14

>  <SCORE.norm>
-0.734688

>  <RMSD>
16.198

$$$$
ligand
 OpenBabel11021811513D
libRbt.so/2013.1/901 2013/11/27
 14 13  0  0  0  0  0  0  0  0999 V2000
   11.5302   44.2715   33.8552 N   0  0  0  0  0  0  0  0  0  0  0  0
   12.8391   44.1191   33.2406 C   0  0  0  0  0  0  0  0  0  0  0  0
   13.6408   43.0402   33.9610 C   0  0  0  0  0  0  0  0  0  0  0  0
   15.0158   42.8613   33.3273 C   0  0  0  0  0  0  0  0  0  0  0  0
   15.8750   44.0295   33.4956 N   0  0  0  0  0  0  0  0  0  0  0  0
   16.5134   44.6511   32.3476 C   0  0  0  0  0  0  0  0  0  0  0  0
   17.4060   43.6876   31.5733 C   0  0  0  0  0  0  0  0  0  0  0  0
   18.5425   43.1986   32.4643 C   0  0  0  0  0  0  0  0  0  0  0  0
   19.4308   42.2343   31.6857 C   0  0  0  0  0  0  0  0  0  0  0  0
   20.3138   42.9283   30.7642 N   0  0  0  0  0  0  0  0  0  0  0  0
   19.7872   43.4110   29.4944 C   0  0  0  0  0  0  0  0  0  0  0  0
   20.7670   44.2465   28.6733 C   0  0  0  0  0  0  0  0  0  0  0  0
   21.9520   43.3943   28.2157 C   0  0  0  0  0  0  0  0  0  0  0  0
   22.8516   44.1847   27.3928 N   0  0  0  0  0  0  0  0  0  0  0  0
  1  2  1  0  0  0  0
  2  3  1  0  0  0  0
  3  4  1  0  0  0  0
  4  5  1  0  0  0  0
  5  6  1  0  0  0  0
  6  7  1  0  0  0  0
  7  8  1  0  0  0  0
  8  9  1  0  0  0  0
  9 10  1  0  0  0  0
 10 11  1  0  0  0  0
 11 12  1  0  0  0  0
 12 13  1  0  0  0  0
 13 14  1  0  0  0  0
M  END
>  <CHROM.1>
179.77436049,66.49996909,-126.91446101,-58.23314766,-62.17196656,179.93247161
76.86196572,-78.58360898,174.06598825,65.57682146,177.81463893,17.60465318
43.58975166,31.46367351,2.70188848,-0.33358530,2.14632378

>  <Name>
ligand

>  <RI>
0

>  <Rbt.Current_Directory>
/home/itssahil/PROJECTS/Mol_Feturizer/New_Systems/rnas/4P5J

>  <Rbt.Executable>
rbdock ($Id: //depot/dev/client3/rdock/2013.1/src/exe/rbdock.cxx#4 $)

>  <Rbt.Library>
libRbt.so (2013.1, Build901 2013/11/27)

>  <Rbt.Parameter_File>
/export/apps/rDock/src/rDock_2013.1_src/data/scripts/dock_solv.prm

>  <Rbt.Receptor>
prm/blind_docking_60.prm

>  <SCORE>
-9.92614

>  <SCORE.INTER>
-2.29421

>  <SCORE.INTER.CONST>
1

>  <SCORE.INTER.POLAR>
0

>  <SCORE.INTER.ROT>
11

>  <SCORE.INTER.SOLV>
9.50604

>  <SCORE.INTER.VDW>
-15.6315

>  <SCORE.INTER.norm>
-0.163872

>  <SCORE.INTRA>
-7.63764

>  <SCORE.INTRA.DIHEDRAL>
-14.7497

>  <SCORE.INTRA.DIHEDRAL.0>
17.5233

>  <SCORE.INTRA.POLAR>
0

>  <SCORE.INTRA.POLAR.0>
0

>  <SCORE.INTRA.REPUL>
0

>  <SCORE.INTRA.REPUL.0>
0

>  <SCORE.INTRA.SOLV>
-1.34602

>  <SCORE.INTRA.SOLV.lig_0>
-46.1043

>  <SCORE.INTRA.VDW>
0.410221

>  <SCORE.INTRA.VDW.0>
-0.545445

>  <SCORE.INTRA.norm>
-0.545546

>  <SCORE.RESTR>
0.00571035

>  <SCORE.RESTR.CAVITY>
0.00571035

>  <SCORE.RESTR.norm>
0.000407882

>  <SCORE.SYSTEM>
0

>  <SCORE.SYSTEM.CONST>
0

>  <SCORE.SYSTEM.DIHEDRAL>
0

>  <SCORE.SYSTEM.SOLV>
0

>  <SCORE.SYSTEM.norm>
0

>  <SCORE.heavy>
14

>  <SCORE.norm>
-0.70901

>  <RMSD>
16.212

$$$$
ligand
 OpenBabel11021811513D
libRbt.so/2013.1/901 2013/11/27
 14 13  0  0  0  0  0  0  0  0999 V2000
   12.4054   41.7304   33.7960 N   0  0  0  0  0  0  0  0  0  0  0  0
   13.2329   42.9259   33.7829 C   0  0  0  0  0  0  0  0  0  0  0  0
   12.7228   43.9125   32.7378 C   0  0  0  0  0  0  0  0  0  0  0  0
   13.5360   45.2019   32.7553 C   0  0  0  0  0  0  0  0  0  0  0  0
   14.9073   45.0147   32.2909 N   0  0  0  0  0  0  0  0  0  0  0  0
   15.9624   44.6545   33.2230 C   0  0  0  0  0  0  0  0  0  0  0  0
   17.3439   44.6447   32.5777 C   0  0  0  0  0  0  0  0  0  0  0  0
   17.3714   43.6547   31.4186 C   0  0  0  0  0  0  0  0  0  0  0  0
   18.8113   43.4166   30.9768 C   0  0  0  0  0  0  0  0  0  0  0  0
   19.5073   44.6593   30.6908 N   0  0  0  0  0  0  0  0  0  0  0  0
   20.9278   44.7707   30.9947 C   0  0  0  0  0  0  0  0  0  0  0  0
   21.8320   44.9210   29.7732 C   0  0  0  0  0  0  0  0  0  0  0  0
   21.6936   43.7118   28.8467 C   0  0  0  0  0  0  0  0  0  0  0  0
   22.0894   42.4985   29.5413 N   0  0  0  0  0  0  0  0  0  0  0  0
  1  2  1  0  0  0  0
  2  3  1  0  0  0  0
  3  4  1  0  0  0  0
  4  5  1  0  0  0  0
  5  6  1  0  0  0  0
  6  7  1  0  0  0  0
  7  8  1  0  0  0  0
  8  9  1  0  0  0  0
  9 10  1  0  0  0  0
 10 11  1  0  0  0  0
 11 12  1  0  0  0  0
 12 13  1  0  0  0  0
 13 14  1  0  0  0  0
M  END
>  <CHROM.1>
177.22693678,68.16981620,-89.04210053,-174.10473383,-58.97256604,-167.53466450
-53.02196490,145.31432313,113.84520888,-60.18327098,-61.01684355,17.31028343
43.97999498,31.67185834,-3.13805082,0.40091342,0.09549255

>  <Name>
ligand

>  <RI>
0

>  <Rbt.Current_Directory>
/home/itssahil/PROJECTS/Mol_Feturizer/New_Systems/rnas/4P5J

>  <Rbt.Executable>
rbdock ($Id: //depot/dev/client3/rdock/2013.1/src/exe/rbdock.cxx#4 $)

>  <Rbt.Library>
libRbt.so (2013.1, Build901 2013/11/27)

>  <Rbt.Parameter_File>
/export/apps/rDock/src/rDock_2013.1_src/data/scripts/dock_solv.prm

>  <Rbt.Receptor>
prm/blind_docking_60.prm

>  <SCORE>
-6.58741

>  <SCORE.INTER>
-0.176443

>  <SCORE.INTER.CONST>
1

>  <SCORE.INTER.POLAR>
0

>  <SCORE.INTER.ROT>
11

>  <SCORE.INTER.SOLV>
12.8738

>  <SCORE.INTER.VDW>
-15.3422

>  <SCORE.INTER.norm>
-0.0126031

>  <SCORE.INTRA>
-6.41097

>  <SCORE.INTRA.DIHEDRAL>
-13.9132

>  <SCORE.INTRA.DIHEDRAL.0>
17.5233

>  <SCORE.INTRA.POLAR>
0

>  <SCORE.INTRA.POLAR.0>
0

>  <SCORE.INTRA.REPUL>
0

>  <SCORE.INTRA.REPUL.0>
0

>  <SCORE.INTRA.SOLV>
1.10956

>  <SCORE.INTRA.SOLV.lig_0>
-46.1043

>  <SCORE.INTRA.VDW>
-0.00912484

>  <SCORE.INTRA.VDW.0>
-0.545445

>  <SCORE.INTRA.norm>
-0.457926

>  <SCORE.RESTR>
0

>  <SCORE.RESTR.CAVITY>
0

>  <SCORE.RESTR.norm>
0

>  <SCORE.SYSTEM>
0

>  <SCORE.SYSTEM.CONST>
0

>  <SCORE.SYSTEM.DIHEDRAL>
0

>  <SCORE.SYSTEM.SOLV>
0

>  <SCORE.SYSTEM.norm>
0

>  <SCORE.heavy>
14

>  <SCORE.norm>
-0.47053

>  <RMSD>
16.218

$$$$
ligand
 OpenBabel11021811513D
libRbt.so/2013.1/901 2013/11/27
 14 13  0  0  0  0  0  0  0  0999 V2000
   23.3096   42.8501   30.9991 N   0  0  0  0  0  0  0  0  0  0  0  0
   23.2452   43.8374   32.0645 C   0  0  0  0  0  0  0  0  0  0  0  0
   21.8700   43.8174   32.7236 C   0  0  0  0  0  0  0  0  0  0  0  0
   20.7812   44.2244   31.7372 C   0  0  0  0  0  0  0  0  0  0  0  0
   19.4439   44.1905   32.3217 N   0  0  0  0  0  0  0  0  0  0  0  0
   18.3333   44.8643   31.6702 C   0  0  0  0  0  0  0  0  0  0  0  0
   17.0778   44.9064   32.5344 C   0  0  0  0  0  0  0  0  0  0  0  0
   16.5055   43.5021   32.6920 C   0  0  0  0  0  0  0  0  0  0  0  0
   15.1868   43.5645   33.4551 C   0  0  0  0  0  0  0  0  0  0  0  0
   14.5222   42.2736   33.5032 N   0  0  0  0  0  0  0  0  0  0  0  0
   13.2756   42.1372   34.2448 C   0  0  0  0  0  0  0  0  0  0  0  0
   12.0532   41.8205   33.3859 C   0  0  0  0  0  0  0  0  0  0  0  0
   11.6819   43.0197   32.5119 C   0  0  0  0  0  0  0  0  0  0  0  0
   11.2683   44.1380   33.3423 N   0  0  0  0  0  0  0  0  0  0  0  0
  1  2  1  0  0  0  0
  2  3  1  0  0  0  0
  3  4  1  0  0  0  0
  4  5  1  0  0  0  0
  5  6  1  0  0  0  0
  6  7  1  0  0  0  0
  7  8  1  0  0  0  0
  8  9  1  0  0  0  0
  9 10  1  0  0  0  0
 10 11  1  0  0  0  0
 11 12  1  0  0  0  0
 12 13  1  0  0  0  0
 13 14  1  0  0  0  0
M  END
>  <CHROM.1>
-63.75581205,178.76144429,163.86984824,-170.83450385,-68.35858933,-175.17448134
173.51935674,177.32062000,114.36590967,-69.03955162,-64.68416888,17.03956630
43.51049471,32.65616683,-0.13702196,-0.11942342,2.83319316

>  <Name>
ligand

>  <RI>
0

>  <Rbt.Current_Directory>
/home/itssahil/PROJECTS/Mol_Feturizer/New_Systems/rnas/4P5J

>  <Rbt.Executable>
rbdock ($Id: //depot/dev/client3/rdock/2013.1/src/exe/rbdock.cxx#4 $)

>  <Rbt.Library>
libRbt.so (2013.1, Build901 2013/11/27)

>  <Rbt.Parameter_File>
/export/apps/rDock/src/rDock_2013.1_src/data/scripts/dock_solv.prm

>  <Rbt.Receptor>
prm/blind_docking_60.prm

>  <SCORE>
-11.0642

>  <SCORE.INTER>
-3.32053

>  <SCORE.INTER.CONST>
1

>  <SCORE.INTER.POLAR>
0

>  <SCORE.INTER.ROT>
11

>  <SCORE.INTER.SOLV>
10.2457

>  <SCORE.INTER.VDW>
-16.5623

>  <SCORE.INTER.norm>
-0.237181

>  <SCORE.INTRA>
-7.74364

>  <SCORE.INTRA.DIHEDRAL>
-15.1143

>  <SCORE.INTRA.DIHEDRAL.0>
17.5233

>  <SCORE.INTRA.POLAR>
0

>  <SCORE.INTRA.POLAR.0>
0

>  <SCORE.INTRA.REPUL>
0

>  <SCORE.INTRA.REPUL.0>
0

>  <SCORE.INTRA.SOLV>
0.634453

>  <SCORE.INTRA.SOLV.lig_0>
-46.1043

>  <SCORE.INTRA.VDW>
-0.503725

>  <SCORE.INTRA.VDW.0>
-0.545445

>  <SCORE.INTRA.norm>
-0.553117

>  <SCORE.RESTR>
0

>  <SCORE.RESTR.CAVITY>
0

>  <SCORE.RESTR.norm>
0

>  <SCORE.SYSTEM>
0

>  <SCORE.SYSTEM.CONST>
0

>  <SCORE.SYSTEM.DIHEDRAL>
0

>  <SCORE.SYSTEM.SOLV>
0

>  <SCORE.SYSTEM.norm>
0

>  <SCORE.heavy>
14

>  <SCORE.norm>
-0.790298

>  <RMSD>
16.218

$$$$
ligand
 OpenBabel11021811513D
libRbt.so/2013.1/901 2013/11/27
 14 13  0  0  0  0  0  0  0  0999 V2000
   22.6509   44.8142   30.0793 N   0  0  0  0  0  0  0  0  0  0  0  0
   22.6019   44.3012   28.7198 C   0  0  0  0  0  0  0  0  0  0  0  0
   21.1674   44.3074   28.2020 C   0  0  0  0  0  0  0  0  0  0  0  0
   20.2894   43.3520   29.0025 C   0  0  0  0  0  0  0  0  0  0  0  0
   20.0540   43.8075   30.3693 N   0  0  0  0  0  0  0  0  0  0  0  0
   19.6064   42.8782   31.3930 C   0  0  0  0  0  0  0  0  0  0  0  0
   18.6594   43.5198   32.4012 C   0  0  0  0  0  0  0  0  0  0  0  0
   17.3361   43.8656   31.7274 C   0  0  0  0  0  0  0  0  0  0  0  0
   16.3970   44.5164   32.7371 C   0  0  0  0  0  0  0  0  0  0  0  0
   15.0534   44.6768   32.2086 N   0  0  0  0  0  0  0  0  0  0  0  0
   13.9526   43.9402   32.8154 C   0  0  0  0  0  0  0  0  0  0  0  0
   14.3334   42.5727   33.3788 C   0  0  0  0  0  0  0  0  0  0  0  0
   13.0996   41.6770   33.5024 C   0  0  0  0  0  0  0  0  0  0  0  0
   12.1109   42.2997   34.3660 N   0  0  0  0  0  0  0  0  0  0  0  0
  1  2  1  0  0  0  0
  2  3  1  0  0  0  0
  3  4  1  0  0  0  0
  4  5  1  0  0  0  0
  5  6  1  0  0  0  0
  6  7  1  0  0  0  0
  7  8  1  0  0  0  0
  8  9  1  0  0  0  0
  9 10  1  0  0  0  0
 10 11  1  0  0  0  0
 11 12  1  0  0  0  0
 12 13  1  0  0  0  0
 13 14  1  0  0  0  0
M  END
>  <CHROM.1>
-64.53959526,69.18883344,-161.05956227,-145.40734434,68.18436832,-179.56782173
-171.03519456,114.96121511,-32.24973492,-158.64433152,-58.68194538,17.66525208
43.60907026,31.49294909,0.21784338,0.44612970,-0.17778785

>  <Name>
ligand

>  <RI>
0

>  <Rbt.Current_Directory>
/home/itssahil/PROJECTS/Mol_Feturizer/New_Systems/rnas/4P5J

>  <Rbt.Executable>
rbdock ($Id: //depot/dev/client3/rdock/2013.1/src/exe/rbdock.cxx#4 $)

>  <Rbt.Library>
libRbt.so (2013.1, Build901 2013/11/27)

>  <Rbt.Parameter_File>
/export/apps/rDock/src/rDock_2013.1_src/data/scripts/dock_solv.prm

>  <Rbt.Receptor>
prm/blind_docking_80.prm

>  <SCORE>
-6.69687

>  <SCORE.INTER>
-2.42312

>  <SCORE.INTER.CONST>
1

>  <SCORE.INTER.POLAR>
0

>  <SCORE.INTER.ROT>
11

>  <SCORE.INTER.SOLV>
14.4983

>  <SCORE.INTER.VDW>
-17.3815

>  <SCORE.INTER.norm>
-0.17308

>  <SCORE.INTRA>
-4.27376

>  <SCORE.INTRA.DIHEDRAL>
-12.3006

>  <SCORE.INTRA.DIHEDRAL.0>
17.5233

>  <SCORE.INTRA.POLAR>
0

>  <SCORE.INTRA.POLAR.0>
0

>  <SCORE.INTRA.REPUL>
0

>  <SCORE.INTRA.REPUL.0>
0

>  <SCORE.INTRA.SOLV>
1.62849

>  <SCORE.INTRA.SOLV.lig_0>
-46.1043

>  <SCORE.INTRA.VDW>
1.06232

>  <SCORE.INTRA.VDW.0>
-0.545445

>  <SCORE.INTRA.norm>
-0.305268

>  <SCORE.RESTR>
0

>  <SCORE.RESTR.CAVITY>
0

>  <SCORE.RESTR.norm>
0

>  <SCORE.SYSTEM>
0

>  <SCORE.SYSTEM.CONST>
0

>  <SCORE.SYSTEM.DIHEDRAL>
0

>  <SCORE.SYSTEM.SOLV>
0

>  <SCORE.SYSTEM.norm>
0

>  <SCORE.heavy>
14

>  <SCORE.norm>
-0.478348

>  <RMSD>
16.235

$$$$
ligand
 OpenBabel11021811513D
libRbt.so/2013.1/901 2013/11/27
 14 13  0  0  0  0  0  0  0  0999 V2000
   23.9224   44.7783   30.8236 N   0  0  0  0  0  0  0  0  0  0  0  0
   23.2331   43.6202   31.3692 C   0  0  0  0  0  0  0  0  0  0  0  0
   21.8188   43.9979   31.7970 C   0  0  0  0  0  0  0  0  0  0  0  0
   20.9805   44.4348   30.6009 C   0  0  0  0  0  0  0  0  0  0  0  0
   19.5652   44.5875   30.9249 N   0  0  0  0  0  0  0  0  0  0  0  0
   18.6700   43.4433   30.8917 C   0  0  0  0  0  0  0  0  0  0  0  0
   17.6988   43.4178   32.0668 C   0  0  0  0  0  0  0  0  0  0  0  0
   16.6996   44.5626   31.9430 C   0  0  0  0  0  0  0  0  0  0  0  0
   15.7006   44.5029   33.0935 C   0  0  0  0  0  0  0  0  0  0  0  0
   14.8584   43.3212   33.0245 N   0  0  0  0  0  0  0  0  0  0  0  0
   14.0446   42.9538   34.1758 C   0  0  0  0  0  0  0  0  0  0  0  0
   13.0943   41.7822   33.9379 C   0  0  0  0  0  0  0  0  0  0  0  0
   12.0800   42.1228   32.8448 C   0  0  0  0  0  0  0  0  0  0  0  0
   11.0812   41.0726   32.7410 N   0  0  0  0  0  0  0  0  0  0  0  0
  1  2  1  0  0  0  0
  2  3  1  0  0  0  0
  3  4  1  0  0  0  0
  4  5  1  0  0  0  0
  5  6  1  0  0  0  0
  6  7  1  0  0  0  0
  7  8  1  0  0  0  0
  8  9  1  0  0  0  0
  9 10  1  0  0  0  0
 10 11  1  0  0  0  0
 11 12  1  0  0  0  0
 12 13  1  0  0  0  0
 13 14  1  0  0  0  0
M  END
>  <CHROM.1>
63.69891302,170.26989910,-85.13380128,137.97123102,68.42381919,177.99565765
-66.02341883,167.29884387,173.93477526,-62.07491839,-172.95160220,17.38911853
43.47129250,32.15972410,-0.16867728,-0.25711758,-2.98024333

>  <Name>
ligand

>  <RI>
0

>  <Rbt.Current_Directory>
/home/itssahil/PROJECTS/Mol_Feturizer/New_Systems/rnas/4P5J

>  <Rbt.Executable>
rbdock ($Id: //depot/dev/client3/rdock/2013.1/src/exe/rbdock.cxx#4 $)

>  <Rbt.Library>
libRbt.so (2013.1, Build901 2013/11/27)

>  <Rbt.Parameter_File>
/export/apps/rDock/src/rDock_2013.1_src/data/scripts/dock_solv.prm

>  <Rbt.Receptor>
prm/blind_docking_80.prm

>  <SCORE>
-11.2723

>  <SCORE.INTER>
-2.96313

>  <SCORE.INTER.CONST>
1

>  <SCORE.INTER.POLAR>
0

>  <SCORE.INTER.ROT>
11

>  <SCORE.INTER.SOLV>
15.9244

>  <SCORE.INTER.VDW>
-18.2169

>  <SCORE.INTER.norm>
-0.211652

>  <SCORE.INTRA>
-8.30918

>  <SCORE.INTRA.DIHEDRAL>
-14.9419

>  <SCORE.INTRA.DIHEDRAL.0>
17.5233

>  <SCORE.INTRA.POLAR>
0

>  <SCORE.INTRA.POLAR.0>
0

>  <SCORE.INTRA.REPUL>
0

>  <SCORE.INTRA.REPUL.0>
0

>  <SCORE.INTRA.SOLV>
-0.896808

>  <SCORE.INTRA.SOLV.lig_0>
-46.1043

>  <SCORE.INTRA.VDW>
-0.389822

>  <SCORE.INTRA.VDW.0>
-0.545445

>  <SCORE.INTRA.norm>
-0.593513

>  <SCORE.RESTR>
0

>  <SCORE.RESTR.CAVITY>
0

>  <SCORE.RESTR.norm>
0

>  <SCORE.SYSTEM>
0

>  <SCORE.SYSTEM.CONST>
0

>  <SCORE.SYSTEM.DIHEDRAL>
0

>  <SCORE.SYSTEM.SOLV>
0

>  <SCORE.SYSTEM.norm>
0

>  <SCORE.heavy>
14

>  <SCORE.norm>
-0.805165

>  <RMSD>
16.245

$$$$
ligand
 OpenBabel11021811513D
libRbt.so/2013.1/901 2013/11/27
 14 13  0  0  0  0  0  0  0  0999 V2000
   11.1331   42.8082   33.6910 N   0  0  0  0  0  0  0  0  0  0  0  0
   12.1926   41.8162   33.7763 C   0  0  0  0  0  0  0  0  0  0  0  0
   13.4810   42.3630   33.1707 C   0  0  0  0  0  0  0  0  0  0  0  0
   14.0211   43.5307   33.9886 C   0  0  0  0  0  0  0  0  0  0  0  0
   15.0721   44.2707   33.2966 N   0  0  0  0  0  0  0  0  0  0  0  0
   16.2770   43.5966   32.8431 C   0  0  0  0  0  0  0  0  0  0  0  0
   17.0074   44.3644   31.7467 C   0  0  0  0  0  0  0  0  0  0  0  0
   18.2065   43.5604   31.2567 C   0  0  0  0  0  0  0  0  0  0  0  0
   19.2785   43.5193   32.3403 C   0  0  0  0  0  0  0  0  0  0  0  0
   20.5523   43.0418   31.8304 N   0  0  0  0  0  0  0  0  0  0  0  0
   21.5686   44.0048   31.4275 C   0  0  0  0  0  0  0  0  0  0  0  0
   21.1858   44.8744   30.2319 C   0  0  0  0  0  0  0  0  0  0  0  0
   20.9793   44.0152   28.9833 C   0  0  0  0  0  0  0  0  0  0  0  0
   22.2453   43.4525   28.5453 N   0  0  0  0  0  0  0  0  0  0  0  0
  1  2  1  0  0  0  0
  2  3  1  0  0  0  0
  3  4  1  0  0  0  0
  4  5  1  0  0  0  0
  5  6  1  0  0  0  0
  6  7  1  0  0  0  0
  7  8  1  0  0  0  0
  8  9  1  0  0  0  0
  9 10  1  0  0  0  0
 10 11  1  0  0  0  0
 11 12  1  0  0  0  0
 12 13  1  0  0  0  0
 13 14  1  0  0  0  0
M  END
>  <CHROM.1>
65.79796463,-167.21717616,-57.37597577,159.59394007,-176.34057489,-69.90558979
-166.67953708,96.50478826,-64.74406746,-62.88845944,-68.26815309,17.37152739
43.51563519,31.93777204,2.77801206,0.19490642,1.39805006

>  <Name>
ligand

>  <RI>
0

>  <Rbt.Current_Directory>
/home/itssahil/PROJECTS/Mol_Feturizer/New_Systems/rnas/4P5J

>  <Rbt.Executable>
rbdock ($Id: //depot/dev/client3/rdock/2013.1/src/exe/rbdock.cxx#4 $)

>  <Rbt.Library>
libRbt.so (2013.1, Build901 2013/11/27)

>  <Rbt.Parameter_File>
/export/apps/rDock/src/rDock_2013.1_src/data/scripts/dock_solv.prm

>  <Rbt.Receptor>
prm/blind_docking_60.prm

>  <SCORE>
-9.13677

>  <SCORE.INTER>
-3.20362

>  <SCORE.INTER.CONST>
1

>  <SCORE.INTER.POLAR>
0

>  <SCORE.INTER.ROT>
11

>  <SCORE.INTER.SOLV>
8.52307

>  <SCORE.INTER.VDW>
-15.9101

>  <SCORE.INTER.norm>
-0.22883

>  <SCORE.INTRA>
-5.93316

>  <SCORE.INTRA.DIHEDRAL>
-14.2824

>  <SCORE.INTRA.DIHEDRAL.0>
17.5233

>  <SCORE.INTRA.POLAR>
0

>  <SCORE.INTRA.POLAR.0>
0

>  <SCORE.INTRA.REPUL>
0

>  <SCORE.INTRA.REPUL.0>
0

>  <SCORE.INTRA.SOLV>
0.0323117

>  <SCORE.INTRA.SOLV.lig_0>
-46.1043

>  <SCORE.INTRA.VDW>
1.19189

>  <SCORE.INTRA.VDW.0>
-0.545445

>  <SCORE.INTRA.norm>
-0.423797

>  <SCORE.RESTR>
0

>  <SCORE.RESTR.CAVITY>
0

>  <SCORE.RESTR.norm>
0

>  <SCORE.SYSTEM>
0

>  <SCORE.SYSTEM.CONST>
0

>  <SCORE.SYSTEM.DIHEDRAL>
0

>  <SCORE.SYSTEM.SOLV>
0

>  <SCORE.SYSTEM.norm>
0

>  <SCORE.heavy>
14

>  <SCORE.norm>
-0.652627

>  <RMSD>
16.266

$$$$
ligand
 OpenBabel11021811513D
libRbt.so/2013.1/901 2013/11/27
 14 13  0  0  0  0  0  0  0  0999 V2000
   11.4001   41.7043   33.1857 N   0  0  0  0  0  0  0  0  0  0  0  0
   12.8197   41.7818   33.4904 C   0  0  0  0  0  0  0  0  0  0  0  0
   13.2726   43.2372   33.5404 C   0  0  0  0  0  0  0  0  0  0  0  0
   14.7748   43.3379   33.7803 C   0  0  0  0  0  0  0  0  0  0  0  0
   15.2400   44.7168   33.8968 N   0  0  0  0  0  0  0  0  0  0  0  0
   15.5054   45.5118   32.7097 C   0  0  0  0  0  0  0  0  0  0  0  0
   16.9159   45.3111   32.1664 C   0  0  0  0  0  0  0  0  0  0  0  0
   17.0881   43.8770   31.6785 C   0  0  0  0  0  0  0  0  0  0  0  0
   18.5142   43.6686   31.1807 C   0  0  0  0  0  0  0  0  0  0  0  0
   18.7648   42.2880   30.8042 N   0  0  0  0  0  0  0  0  0  0  0  0
   19.3276   41.3692   31.7849 C   0  0  0  0  0  0  0  0  0  0  0  0
   20.7115   41.7564   32.3018 C   0  0  0  0  0  0  0  0  0  0  0  0
   21.7000   41.9001   31.1433 C   0  0  0  0  0  0  0  0  0  0  0  0
   22.9728   42.4061   31.6284 N   0  0  0  0  0  0  0  0  0  0  0  0
  1  2  1  0  0  0  0
  2  3  1  0  0  0  0
  3  4  1  0  0  0  0
  4  5  1  0  0  0  0
  5  6  1  0  0  0  0
  6  7  1  0  0  0  0
  7  8  1  0  0  0  0
  8  9  1  0  0  0  0
  9 10  1  0  0  0  0
 10 11  1  0  0  0  0
 11 12  1  0  0  0  0
 12 13  1  0  0  0  0
 13 14  1  0  0  0  0
M  END
>  <CHROM.1>
-176.77612830,-177.33419106,-81.96774859,-85.97024772,65.04342203,-178.06678965
175.34150860,-93.05817940,-61.47928631,-56.67015168,173.92951398,17.07196776
43.06199529,32.37797096,3.03390307,0.23573854,0.03017793

>  <Name>
ligand

>  <RI>
0

>  <Rbt.Current_Directory>
/home/itssahil/PROJECTS/Mol_Feturizer/New_Systems/rnas/4P5J

>  <Rbt.Executable>
rbdock ($Id: //depot/dev/client3/rdock/2013.1/src/exe/rbdock.cxx#4 $)

>  <Rbt.Library>
libRbt.so (2013.1, Build901 2013/11/27)

>  <Rbt.Parameter_File>
/export/apps/rDock/src/rDock_2013.1_src/data/scripts/dock_solv.prm

>  <Rbt.Receptor>
prm/blind_docking_60.prm

>  <SCORE>
-10.9295

>  <SCORE.INTER>
-2.6387

>  <SCORE.INTER.CONST>
1

>  <SCORE.INTER.POLAR>
0

>  <SCORE.INTER.ROT>
11

>  <SCORE.INTER.SOLV>
11.311

>  <SCORE.INTER.VDW>
-16.4628

>  <SCORE.INTER.norm>
-0.188478

>  <SCORE.INTRA>
-8.29078

>  <SCORE.INTRA.DIHEDRAL>
-15.5572

>  <SCORE.INTRA.DIHEDRAL.0>
17.5233

>  <SCORE.INTRA.POLAR>
0

>  <SCORE.INTRA.POLAR.0>
0

>  <SCORE.INTRA.REPUL>
0

>  <SCORE.INTRA.REPUL.0>
0

>  <SCORE.INTRA.SOLV>
-1.81991

>  <SCORE.INTRA.SOLV.lig_0>
-46.1043

>  <SCORE.INTRA.VDW>
0.397798

>  <SCORE.INTRA.VDW.0>
-0.545445

>  <SCORE.INTRA.norm>
-0.592199

>  <SCORE.RESTR>
0

>  <SCORE.RESTR.CAVITY>
0

>  <SCORE.RESTR.norm>
0

>  <SCORE.SYSTEM>
0

>  <SCORE.SYSTEM.CONST>
0

>  <SCORE.SYSTEM.DIHEDRAL>
0

>  <SCORE.SYSTEM.SOLV>
0

>  <SCORE.SYSTEM.norm>
0

>  <SCORE.heavy>
14

>  <SCORE.norm>
-0.780677

>  <RMSD>
16.270

$$$$
ligand
 OpenBabel11021811513D
libRbt.so/2013.1/901 2013/11/27
 14 13  0  0  0  0  0  0  0  0999 V2000
   11.4189   42.3068   32.8960 N   0  0  0  0  0  0  0  0  0  0  0  0
   12.4797   41.5320   33.5191 C   0  0  0  0  0  0  0  0  0  0  0  0
   13.4617   42.4553   34.2326 C   0  0  0  0  0  0  0  0  0  0  0  0
   14.2455   43.3011   33.2353 C   0  0  0  0  0  0  0  0  0  0  0  0
   15.2349   44.1627   33.8756 N   0  0  0  0  0  0  0  0  0  0  0  0
   16.1869   44.9173   33.0780 C   0  0  0  0  0  0  0  0  0  0  0  0
   17.2771   44.0405   32.4718 C   0  0  0  0  0  0  0  0  0  0  0  0
   18.2843   44.9043   31.7209 C   0  0  0  0  0  0  0  0  0  0  0  0
   19.3516   44.0195   31.0860 C   0  0  0  0  0  0  0  0  0  0  0  0
   20.3170   44.7910   30.3224 N   0  0  0  0  0  0  0  0  0  0  0  0
   21.7020   44.3436   30.2591 C   0  0  0  0  0  0  0  0  0  0  0  0
   22.5835   45.1304   29.2915 C   0  0  0  0  0  0  0  0  0  0  0  0
   22.1032   44.9454   27.8511 C   0  0  0  0  0  0  0  0  0  0  0  0
   22.1052   43.5360   27.4977 N   0  0  0  0  0  0  0  0  0  0  0  0
  1  2  1  0  0  0  0
  2  3  1  0  0  0  0
  3  4  1  0  0  0  0
  4  5  1  0  0  0  0
  5  6  1  0  0  0  0
  6  7  1  0  0  0  0
  7  8  1  0  0  0  0
  8  9  1  0  0  0  0
  9 10  1  0  0  0  0
 10 11  1  0  0  0  0
 11 12  1  0  0  0  0
 12 13  1  0  0  0  0
 13 14  1  0  0  0  0
M  END
>  <CHROM.1>
-68.08754533,-177.75996362,172.39875414,-73.36704125,-176.60571485,-178.51766619
178.27106098,147.02240985,172.73208380,-64.33894779,-57.86199463,17.62525226
43.88476899,31.52424360,2.85708412,0.44111222,0.98167462

>  <Name>
ligand

>  <RI>
0

>  <Rbt.Current_Directory>
/home/itssahil/PROJECTS/Mol_Feturizer/New_Systems/rnas/4P5J

>  <Rbt.Executable>
rbdock ($Id: //depot/dev/client3/rdock/2013.1/src/exe/rbdock.cxx#4 $)

>  <Rbt.Library>
libRbt.so (2013.1, Build901 2013/11/27)

>  <Rbt.Parameter_File>
/export/apps/rDock/src/rDock_2013.1_src/data/scripts/dock_solv.prm

>  <Rbt.Receptor>
prm/blind_docking_60.prm

>  <SCORE>
-11.6171

>  <SCORE.INTER>
-3.37364

>  <SCORE.INTER.CONST>
1

>  <SCORE.INTER.POLAR>
0

>  <SCORE.INTER.ROT>
11

>  <SCORE.INTER.SOLV>
12.0529

>  <SCORE.INTER.VDW>
-17.2001

>  <SCORE.INTER.norm>
-0.240975

>  <SCORE.INTRA>
-8.24346

>  <SCORE.INTRA.DIHEDRAL>
-16.1843

>  <SCORE.INTRA.DIHEDRAL.0>
17.5233

>  <SCORE.INTRA.POLAR>
0

>  <SCORE.INTRA.POLAR.0>
0

>  <SCORE.INTRA.REPUL>
0

>  <SCORE.INTRA.REPUL.0>
0

>  <SCORE.INTRA.SOLV>
-0.0128035

>  <SCORE.INTRA.SOLV.lig_0>
-46.1043

>  <SCORE.INTRA.VDW>
-0.1449

>  <SCORE.INTRA.VDW.0>
-0.545445

>  <SCORE.INTRA.norm>
-0.588818

>  <SCORE.RESTR>
0

>  <SCORE.RESTR.CAVITY>
0

>  <SCORE.RESTR.norm>
0

>  <SCORE.SYSTEM>
0

>  <SCORE.SYSTEM.CONST>
0

>  <SCORE.SYSTEM.DIHEDRAL>
0

>  <SCORE.SYSTEM.SOLV>
0

>  <SCORE.SYSTEM.norm>
0

>  <SCORE.heavy>
14

>  <SCORE.norm>
-0.829793

>  <RMSD>
16.271

$$$$
ligand
 OpenBabel11021811513D
libRbt.so/2013.1/901 2013/11/27
 14 13  0  0  0  0  0  0  0  0999 V2000
   21.6008   40.8876   30.6361 N   0  0  0  0  0  0  0  0  0  0  0  0
   21.2026   42.1704   30.0794 C   0  0  0  0  0  0  0  0  0  0  0  0
   21.6589   43.3073   30.9878 C   0  0  0  0  0  0  0  0  0  0  0  0
   21.2238   44.6604   30.4365 C   0  0  0  0  0  0  0  0  0  0  0  0
   19.7799   44.7576   30.2444 N   0  0  0  0  0  0  0  0  0  0  0  0
   18.8730   44.6451   31.3743 C   0  0  0  0  0  0  0  0  0  0  0  0
   17.9214   43.4599   31.2532 C   0  0  0  0  0  0  0  0  0  0  0  0
   17.0693   43.3440   32.5121 C   0  0  0  0  0  0  0  0  0  0  0  0
   16.0013   44.4324   32.5149 C   0  0  0  0  0  0  0  0  0  0  0  0
   15.2307   44.4380   33.7464 N   0  0  0  0  0  0  0  0  0  0  0  0
   13.8637   43.9342   33.7381 C   0  0  0  0  0  0  0  0  0  0  0  0
   13.7445   42.4122   33.7003 C   0  0  0  0  0  0  0  0  0  0  0  0
   12.2756   41.9858   33.6842 C   0  0  0  0  0  0  0  0  0  0  0  0
   11.6455   42.4001   32.4422 N   0  0  0  0  0  0  0  0  0  0  0  0
  1  2  1  0  0  0  0
  2  3  1  0  0  0  0
  3  4  1  0  0  0  0
  4  5  1  0  0  0  0
  5  6  1  0  0  0  0
  6  7  1  0  0  0  0
  7  8  1  0  0  0  0
  8  9  1  0  0  0  0
  9 10  1  0  0  0  0
 10 11  1  0  0  0  0
 11 12  1  0  0  0  0
 12 13  1  0  0  0  0
 13 14  1  0  0  0  0
M  END
>  <CHROM.1>
-178.75027227,57.22735300,62.16535608,-118.49124822,176.02143511,74.67103696
-175.20630613,-106.23777807,76.18962382,-179.59925219,66.40268913,17.29230231
43.34545995,31.95364387,-0.00007674,-0.34453525,-3.04989539

>  <Name>
ligand

>  <RI>
0

>  <Rbt.Current_Directory>
/home/itssahil/PROJECTS/Mol_Feturizer/New_Systems/rnas/4P5J

>  <Rbt.Executable>
rbdock ($Id: //depot/dev/client3/rdock/2013.1/src/exe/rbdock.cxx#4 $)

>  <Rbt.Library>
libRbt.so (2013.1, Build901 2013/11/27)

>  <Rbt.Parameter_File>
/export/apps/rDock/src/rDock_2013.1_src/data/scripts/dock_solv.prm

>  <Rbt.Receptor>
prm/blind_docking_60.prm

>  <SCORE>
-8.65205

>  <SCORE.INTER>
-1.5722

>  <SCORE.INTER.CONST>
1

>  <SCORE.INTER.POLAR>
0

>  <SCORE.INTER.ROT>
11

>  <SCORE.INTER.SOLV>
12.4353

>  <SCORE.INTER.VDW>
-16.1266

>  <SCORE.INTER.norm>
-0.1123

>  <SCORE.INTRA>
-7.08065

>  <SCORE.INTRA.DIHEDRAL>
-13.8728

>  <SCORE.INTRA.DIHEDRAL.0>
17.5233

>  <SCORE.INTRA.POLAR>
0

>  <SCORE.INTRA.POLAR.0>
0

>  <SCORE.INTRA.REPUL>
0

>  <SCORE.INTRA.REPUL.0>
0

>  <SCORE.INTRA.SOLV>
-1.15839

>  <SCORE.INTRA.SOLV.lig_0>
-46.1043

>  <SCORE.INTRA.VDW>
0.434955

>  <SCORE.INTRA.VDW.0>
-0.545445

>  <SCORE.INTRA.norm>
-0.505761

>  <SCORE.RESTR>
0.000804034

>  <SCORE.RESTR.CAVITY>
0.000804034

>  <SCORE.RESTR.norm>
5.7431e-05

>  <SCORE.SYSTEM>
0

>  <SCORE.SYSTEM.CONST>
0

>  <SCORE.SYSTEM.DIHEDRAL>
0

>  <SCORE.SYSTEM.SOLV>
0

>  <SCORE.SYSTEM.norm>
0

>  <SCORE.heavy>
14

>  <SCORE.norm>
-0.618003

>  <RMSD>
16.276

$$$$
ligand
 OpenBabel11021811513D
libRbt.so/2013.1/901 2013/11/27
 14 13  0  0  0  0  0  0  0  0999 V2000
   11.8164   43.5587   33.7531 N   0  0  0  0  0  0  0  0  0  0  0  0
   12.6198   42.3536   33.6250 C   0  0  0  0  0  0  0  0  0  0  0  0
   14.0909   42.6678   33.8759 C   0  0  0  0  0  0  0  0  0  0  0  0
   14.6310   43.6412   32.8342 C   0  0  0  0  0  0  0  0  0  0  0  0
   16.0865   43.7502   32.8597 N   0  0  0  0  0  0  0  0  0  0  0  0
   16.7681   44.7557   32.0621 C   0  0  0  0  0  0  0  0  0  0  0  0
   18.2241   44.4007   31.7809 C   0  0  0  0  0  0  0  0  0  0  0  0
   18.2975   43.1660   30.8895 C   0  0  0  0  0  0  0  0  0  0  0  0
   19.7447   42.7010   30.7694 C   0  0  0  0  0  0  0  0  0  0  0  0
   20.5925   43.7079   30.1547 N   0  0  0  0  0  0  0  0  0  0  0  0
   20.8420   43.6553   28.7203 C   0  0  0  0  0  0  0  0  0  0  0  0
   21.8567   44.6766   28.2109 C   0  0  0  0  0  0  0  0  0  0  0  0
   22.1581   44.4456   26.7291 C   0  0  0  0  0  0  0  0  0  0  0  0
   23.0930   45.4467   26.2444 N   0  0  0  0  0  0  0  0  0  0  0  0
  1  2  1  0  0  0  0
  2  3  1  0  0  0  0
  3  4  1  0  0  0  0
  4  5  1  0  0  0  0
  5  6  1  0  0  0  0
  6  7  1  0  0  0  0
  7  8  1  0  0  0  0
  8  9  1  0  0  0  0
  9 10  1  0  0  0  0
 10 11  1  0  0  0  0
 11 12  1  0  0  0  0
 12 13  1  0  0  0  0
 13 14  1  0  0  0  0
M  END
>  <CHROM.1>
-62.87256718,-167.76987011,-171.90378489,-157.70782927,66.18757902,-172.19777614
-61.71679339,-94.72025959,-174.11367087,174.05206585,178.27969377,17.91581151
43.78037312,30.89357600,2.59453315,-0.29166655,2.23168102

>  <Name>
ligand

>  <RI>
0

>  <Rbt.Current_Directory>
/home/itssahil/PROJECTS/Mol_Feturizer/New_Systems/rnas/4P5J

>  <Rbt.Executable>
rbdock ($Id: //depot/dev/client3/rdock/2013.1/src/exe/rbdock.cxx#4 $)

>  <Rbt.Library>
libRbt.so (2013.1, Build901 2013/11/27)

>  <Rbt.Parameter_File>
/export/apps/rDock/src/rDock_2013.1_src/data/scripts/dock_solv.prm

>  <Rbt.Receptor>
prm/blind_docking_60.prm

>  <SCORE>
-11.9964

>  <SCORE.INTER>
-3.45497

>  <SCORE.INTER.CONST>
1

>  <SCORE.INTER.POLAR>
0

>  <SCORE.INTER.ROT>
11

>  <SCORE.INTER.SOLV>
14.2878

>  <SCORE.INTER.VDW>
-17.9992

>  <SCORE.INTER.norm>
-0.246784

>  <SCORE.INTRA>
-8.54139

>  <SCORE.INTRA.DIHEDRAL>
-15.2023

>  <SCORE.INTRA.DIHEDRAL.0>
17.5233

>  <SCORE.INTRA.POLAR>
0

>  <SCORE.INTRA.POLAR.0>
0

>  <SCORE.INTRA.REPUL>
0

>  <SCORE.INTRA.REPUL.0>
0

>  <SCORE.INTRA.SOLV>
-1.15317

>  <SCORE.INTRA.SOLV.lig_0>
-46.1043

>  <SCORE.INTRA.VDW>
-0.363675

>  <SCORE.INTRA.VDW.0>
-0.545445

>  <SCORE.INTRA.norm>
-0.610099

>  <SCORE.RESTR>
0

>  <SCORE.RESTR.CAVITY>
0

>  <SCORE.RESTR.norm>
0

>  <SCORE.SYSTEM>
0

>  <SCORE.SYSTEM.CONST>
0

>  <SCORE.SYSTEM.DIHEDRAL>
0

>  <SCORE.SYSTEM.SOLV>
0

>  <SCORE.SYSTEM.norm>
0

>  <SCORE.heavy>
14

>  <SCORE.norm>
-0.856883

>  <RMSD>
16.344

$$$$
ligand
 OpenBabel11021811513D
libRbt.so/2013.1/901 2013/11/27
 14 13  0  0  0  0  0  0  0  0999 V2000
   11.5015   40.9318   32.6238 N   0  0  0  0  0  0  0  0  0  0  0  0
   12.0907   42.1969   33.0318 C   0  0  0  0  0  0  0  0  0  0  0  0
   13.4244   41.9593   33.7322 C   0  0  0  0  0  0  0  0  0  0  0  0
   13.9861   43.2575   34.3010 C   0  0  0  0  0  0  0  0  0  0  0  0
   14.2960   44.2424   33.2689 N   0  0  0  0  0  0  0  0  0  0  0  0
   15.6620   44.6926   33.0608 C   0  0  0  0  0  0  0  0  0  0  0  0
   16.4433   43.7920   32.1105 C   0  0  0  0  0  0  0  0  0  0  0  0
   17.8917   44.2596   32.0208 C   0  0  0  0  0  0  0  0  0  0  0  0
   18.6770   43.3341   31.0979 C   0  0  0  0  0  0  0  0  0  0  0  0
   20.0793   43.7049   31.0172 N   0  0  0  0  0  0  0  0  0  0  0  0
   20.5731   44.3837   29.8264 C   0  0  0  0  0  0  0  0  0  0  0  0
   22.0085   44.8944   29.9316 C   0  0  0  0  0  0  0  0  0  0  0  0
   22.9880   43.7276   30.0699 C   0  0  0  0  0  0  0  0  0  0  0  0
   22.7901   43.0532   31.3416 N   0  0  0  0  0  0  0  0  0  0  0  0
  1  2  1  0  0  0  0
  2  3  1  0  0  0  0
  3  4  1  0  0  0  0
  4  5  1  0  0  0  0
  5  6  1  0  0  0  0
  6  7  1  0  0  0  0
  7  8  1  0  0  0  0
  8  9  1  0  0  0  0
  9 10  1  0  0  0  0
 10 11  1  0  0  0  0
 11 12  1  0  0  0  0
 12 13  1  0  0  0  0
 13 14  1  0  0  0  0
M  END
>  <CHROM.1>
-173.85692740,-63.41429868,-116.88359750,86.61315001,-175.72261875,178.52784199
-177.77679801,-104.47557775,171.95062590,64.95344889,-66.85501581,17.31518941
43.45948909,31.95954671,-3.09660352,0.34690947,0.34668516

>  <Name>
ligand

>  <RI>
0

>  <Rbt.Current_Directory>
/home/itssahil/PROJECTS/Mol_Feturizer/New_Systems/rnas/4P5J

>  <Rbt.Executable>
rbdock ($Id: //depot/dev/client3/rdock/2013.1/src/exe/rbdock.cxx#4 $)

>  <Rbt.Library>
libRbt.so (2013.1, Build901 2013/11/27)

>  <Rbt.Parameter_File>
/export/apps/rDock/src/rDock_2013.1_src/data/scripts/dock_solv.prm

>  <Rbt.Receptor>
prm/blind_docking_60.prm

>  <SCORE>
-11.2507

>  <SCORE.INTER>
-3.87356

>  <SCORE.INTER.CONST>
1

>  <SCORE.INTER.POLAR>
0

>  <SCORE.INTER.ROT>
11

>  <SCORE.INTER.SOLV>
9.53136

>  <SCORE.INTER.VDW>
-16.6928

>  <SCORE.INTER.norm>
-0.276683

>  <SCORE.INTRA>
-7.37716

>  <SCORE.INTRA.DIHEDRAL>
-14.2217

>  <SCORE.INTRA.DIHEDRAL.0>
17.5233

>  <SCORE.INTRA.POLAR>
0

>  <SCORE.INTRA.POLAR.0>
0

>  <SCORE.INTRA.REPUL>
0

>  <SCORE.INTRA.REPUL.0>
0

>  <SCORE.INTRA.SOLV>
0.584053

>  <SCORE.INTRA.SOLV.lig_0>
-46.1043

>  <SCORE.INTRA.VDW>
-0.558331

>  <SCORE.INTRA.VDW.0>
-0.545445

>  <SCORE.INTRA.norm>
-0.52694

>  <SCORE.RESTR>
0

>  <SCORE.RESTR.CAVITY>
0

>  <SCORE.RESTR.norm>
0

>  <SCORE.SYSTEM>
0

>  <SCORE.SYSTEM.CONST>
0

>  <SCORE.SYSTEM.DIHEDRAL>
0

>  <SCORE.SYSTEM.SOLV>
0

>  <SCORE.SYSTEM.norm>
0

>  <SCORE.heavy>
14

>  <SCORE.norm>
-0.803623

>  <RMSD>
16.372

$$$$
ligand
 OpenBabel11021811513D
libRbt.so/2013.1/901 2013/11/27
 14 13  0  0  0  0  0  0  0  0999 V2000
   12.1542   41.1654   32.3858 N   0  0  0  0  0  0  0  0  0  0  0  0
   11.8972   42.2585   33.3093 C   0  0  0  0  0  0  0  0  0  0  0  0
   12.9425   42.2714   34.4198 C   0  0  0  0  0  0  0  0  0  0  0  0
   14.3217   42.6224   33.8730 C   0  0  0  0  0  0  0  0  0  0  0  0
   14.3898   43.9759   33.3303 N   0  0  0  0  0  0  0  0  0  0  0  0
   15.6697   44.6438   33.1640 C   0  0  0  0  0  0  0  0  0  0  0  0
   16.5734   43.9472   32.1526 C   0  0  0  0  0  0  0  0  0  0  0  0
   17.9214   44.6560   32.0822 C   0  0  0  0  0  0  0  0  0  0  0  0
   18.8467   43.9121   31.1254 C   0  0  0  0  0  0  0  0  0  0  0  0
   20.1451   44.5538   31.0119 N   0  0  0  0  0  0  0  0  0  0  0  0
   21.3401   43.7322   30.8721 C   0  0  0  0  0  0  0  0  0  0  0  0
   22.5911   44.4934   30.4388 C   0  0  0  0  0  0  0  0  0  0  0  0
   22.4443   45.0009   29.0033 C   0  0  0  0  0  0  0  0  0  0  0  0
   22.4062   43.8827   28.0762 N   0  0  0  0  0  0  0  0  0  0  0  0
  1  2  1  0  0  0  0
  2  3  1  0  0  0  0
  3  4  1  0  0  0  0
  4  5  1  0  0  0  0
  5  6  1  0  0  0  0
  6  7  1  0  0  0  0
  7  8  1  0  0  0  0
  8  9  1  0  0  0  0
  9 10  1  0  0  0  0
 10 11  1  0  0  0  0
 11 12  1  0  0  0  0
 12 13  1  0  0  0  0
 13 14  1  0  0  0  0
M  END
>  <CHROM.1>
67.11073616,64.39923167,160.11634776,64.03940505,-177.05260866,176.99644095
179.50511726,143.45203353,166.41595475,-67.63789538,-66.77246990,17.40313209
43.65124350,31.80343473,2.97093169,0.41002888,0.87349524

>  <Name>
ligand

>  <RI>
0

>  <Rbt.Current_Directory>
/home/itssahil/PROJECTS/Mol_Feturizer/New_Systems/rnas/4P5J

>  <Rbt.Executable>
rbdock ($Id: //depot/dev/client3/rdock/2013.1/src/exe/rbdock.cxx#4 $)

>  <Rbt.Library>
libRbt.so (2013.1, Build901 2013/11/27)

>  <Rbt.Parameter_File>
/export/apps/rDock/src/rDock_2013.1_src/data/scripts/dock_solv.prm

>  <Rbt.Receptor>
prm/blind_docking_60.prm

>  <SCORE>
-11.0277

>  <SCORE.INTER>
-3.47732

>  <SCORE.INTER.CONST>
1

>  <SCORE.INTER.POLAR>
0

>  <SCORE.INTER.ROT>
11

>  <SCORE.INTER.SOLV>
12.8864

>  <SCORE.INTER.VDW>
-17.547

>  <SCORE.INTER.norm>
-0.24838

>  <SCORE.INTRA>
-7.55041

>  <SCORE.INTRA.DIHEDRAL>
-15.5429

>  <SCORE.INTRA.DIHEDRAL.0>
17.5233

>  <SCORE.INTRA.POLAR>
0

>  <SCORE.INTRA.POLAR.0>
0

>  <SCORE.INTRA.REPUL>
0

>  <SCORE.INTRA.REPUL.0>
0

>  <SCORE.INTRA.SOLV>
0.570175

>  <SCORE.INTRA.SOLV.lig_0>
-46.1043

>  <SCORE.INTRA.VDW>
-0.0640416

>  <SCORE.INTRA.VDW.0>
-0.545445

>  <SCORE.INTRA.norm>
-0.539315

>  <SCORE.RESTR>
0

>  <SCORE.RESTR.CAVITY>
0

>  <SCORE.RESTR.norm>
0

>  <SCORE.SYSTEM>
0

>  <SCORE.SYSTEM.CONST>
0

>  <SCORE.SYSTEM.DIHEDRAL>
0

>  <SCORE.SYSTEM.SOLV>
0

>  <SCORE.SYSTEM.norm>
0

>  <SCORE.heavy>
14

>  <SCORE.norm>
-0.787695

>  <RMSD>
16.381

$$$$
ligand
 OpenBabel11021811513D
libRbt.so/2013.1/901 2013/11/27
 14 13  0  0  0  0  0  0  0  0999 V2000
   22.8879   43.9394   28.1376 N   0  0  0  0  0  0  0  0  0  0  0  0
   21.5750   44.5510   28.0098 C   0  0  0  0  0  0  0  0  0  0  0  0
   20.5154   43.6745   28.6692 C   0  0  0  0  0  0  0  0  0  0  0  0
   20.7326   43.5880   30.1757 C   0  0  0  0  0  0  0  0  0  0  0  0
   19.8576   42.6134   30.8205 N   0  0  0  0  0  0  0  0  0  0  0  0
   19.5070   42.7474   32.2245 C   0  0  0  0  0  0  0  0  0  0  0  0
   18.0027   42.8477   32.4516 C   0  0  0  0  0  0  0  0  0  0  0  0
   17.5019   44.2247   32.0303 C   0  0  0  0  0  0  0  0  0  0  0  0
   15.9793   44.2650   32.1027 C   0  0  0  0  0  0  0  0  0  0  0  0
   15.4838   43.8597   33.4067 N   0  0  0  0  0  0  0  0  0  0  0  0
   14.0731   44.0385   33.7239 C   0  0  0  0  0  0  0  0  0  0  0  0
   13.4647   42.9272   34.5766 C   0  0  0  0  0  0  0  0  0  0  0  0
   13.2585   41.6599   33.7452 C   0  0  0  0  0  0  0  0  0  0  0  0
   12.2389   41.8824   32.7341 N   0  0  0  0  0  0  0  0  0  0  0  0
  1  2  1  0  0  0  0
  2  3  1  0  0  0  0
  3  4  1  0  0  0  0
  4  5  1  0  0  0  0
  5  6  1  0  0  0  0
  6  7  1  0  0  0  0
  7  8  1  0  0  0  0
  8  9  1  0  0  0  0
  9 10  1  0  0  0  0
 10 11  1  0  0  0  0
 11 12  1  0  0  0  0
 12 13  1  0  0  0  0
 13 14  1  0  0  0  0
M  END
>  <CHROM.1>
65.33967560,-171.95313984,-154.73476384,121.59570071,-74.10043184,173.32950148
53.77172392,170.38538162,143.34634631,-73.80782227,-67.02910344,17.50555028
43.34430347,31.62932303,0.54254376,0.00522301,-1.35002205

>  <Name>
ligand

>  <RI>
0

>  <Rbt.Current_Directory>
/home/itssahil/PROJECTS/Mol_Feturizer/New_Systems/rnas/4P5J

>  <Rbt.Executable>
rbdock ($Id: //depot/dev/client3/rdock/2013.1/src/exe/rbdock.cxx#4 $)

>  <Rbt.Library>
libRbt.so (2013.1, Build901 2013/11/27)

>  <Rbt.Parameter_File>
/export/apps/rDock/src/rDock_2013.1_src/data/scripts/dock_solv.prm

>  <Rbt.Receptor>
prm/blind_docking_60.prm

>  <SCORE>
-10.4119

>  <SCORE.INTER>
-3.86791

>  <SCORE.INTER.CONST>
1

>  <SCORE.INTER.POLAR>
0

>  <SCORE.INTER.ROT>
11

>  <SCORE.INTER.SOLV>
11.4804

>  <SCORE.INTER.VDW>
-17.3387

>  <SCORE.INTER.norm>
-0.27628

>  <SCORE.INTRA>
-6.54402

>  <SCORE.INTRA.DIHEDRAL>
-12.7206

>  <SCORE.INTRA.DIHEDRAL.0>
17.5233

>  <SCORE.INTRA.POLAR>
0

>  <SCORE.INTRA.POLAR.0>
0

>  <SCORE.INTRA.REPUL>
0

>  <SCORE.INTRA.REPUL.0>
0

>  <SCORE.INTRA.SOLV>
0.558825

>  <SCORE.INTRA.SOLV.lig_0>
-46.1043

>  <SCORE.INTRA.VDW>
-0.463109

>  <SCORE.INTRA.VDW.0>
-0.545445

>  <SCORE.INTRA.norm>
-0.46743

>  <SCORE.RESTR>
0

>  <SCORE.RESTR.CAVITY>
0

>  <SCORE.RESTR.norm>
0

>  <SCORE.SYSTEM>
0

>  <SCORE.SYSTEM.CONST>
0

>  <SCORE.SYSTEM.DIHEDRAL>
0

>  <SCORE.SYSTEM.SOLV>
0

>  <SCORE.SYSTEM.norm>
0

>  <SCORE.heavy>
14

>  <SCORE.norm>
-0.74371

>  <RMSD>
16.402

$$$$
ligand
 OpenBabel11021811513D
libRbt.so/2013.1/901 2013/11/27
 14 13  0  0  0  0  0  0  0  0999 V2000
   11.4088   42.0373   33.3965 N   0  0  0  0  0  0  0  0  0  0  0  0
   12.8224   41.7758   33.1784 C   0  0  0  0  0  0  0  0  0  0  0  0
   13.6450   42.2945   34.3532 C   0  0  0  0  0  0  0  0  0  0  0  0
   13.5225   43.8084   34.4846 C   0  0  0  0  0  0  0  0  0  0  0  0
   13.9616   44.5197   33.2878 N   0  0  0  0  0  0  0  0  0  0  0  0
   15.3587   44.8777   33.1095 C   0  0  0  0  0  0  0  0  0  0  0  0
   16.1307   43.8547   32.2833 C   0  0  0  0  0  0  0  0  0  0  0  0
   17.4939   44.4176   31.8970 C   0  0  0  0  0  0  0  0  0  0  0  0
   18.2572   43.3949   31.0623 C   0  0  0  0  0  0  0  0  0  0  0  0
   18.6081   42.2142   31.8324 N   0  0  0  0  0  0  0  0  0  0  0  0
   19.7158   41.3759   31.3931 C   0  0  0  0  0  0  0  0  0  0  0  0
   20.6889   40.9727   32.4989 C   0  0  0  0  0  0  0  0  0  0  0  0
   21.3659   42.2062   33.0988 C   0  0  0  0  0  0  0  0  0  0  0  0
   22.2192   42.8422   32.1095 N   0  0  0  0  0  0  0  0  0  0  0  0
  1  2  1  0  0  0  0
  2  3  1  0  0  0  0
  3  4  1  0  0  0  0
  4  5  1  0  0  0  0
  5  6  1  0  0  0  0
  6  7  1  0  0  0  0
  7  8  1  0  0  0  0
  8  9  1  0  0  0  0
  9 10  1  0  0  0  0
 10 11  1  0  0  0  0
 11 12  1  0  0  0  0
 12 13  1  0  0  0  0
 13 14  1  0  0  0  0
M  END
>  <CHROM.1>
-63.13998698,-58.88905856,-86.99913402,95.20103214,168.57799644,-179.57581539
-66.64041506,-157.72117889,133.73085920,-62.43618256,-66.04021721,16.80001640
42.89942058,32.71325986,3.06255990,0.20522724,-0.12636428

>  <Name>
ligand

>  <RI>
0

>  <Rbt.Current_Directory>
/home/itssahil/PROJECTS/Mol_Feturizer/New_Systems/rnas/4P5J

>  <Rbt.Executable>
rbdock ($Id: //depot/dev/client3/rdock/2013.1/src/exe/rbdock.cxx#4 $)

>  <Rbt.Library>
libRbt.so (2013.1, Build901 2013/11/27)

>  <Rbt.Parameter_File>
/export/apps/rDock/src/rDock_2013.1_src/data/scripts/dock_solv.prm

>  <Rbt.Receptor>
prm/blind_docking_60.prm

>  <SCORE>
-11.9661

>  <SCORE.INTER>
-5.39126

>  <SCORE.INTER.CONST>
1

>  <SCORE.INTER.POLAR>
0

>  <SCORE.INTER.ROT>
11

>  <SCORE.INTER.SOLV>
9.66882

>  <SCORE.INTER.VDW>
-17.7504

>  <SCORE.INTER.norm>
-0.38509

>  <SCORE.INTRA>
-6.5748

>  <SCORE.INTRA.DIHEDRAL>
-13.9942

>  <SCORE.INTRA.DIHEDRAL.0>
17.5233

>  <SCORE.INTRA.POLAR>
0

>  <SCORE.INTRA.POLAR.0>
0

>  <SCORE.INTRA.REPUL>
0

>  <SCORE.INTRA.REPUL.0>
0

>  <SCORE.INTRA.SOLV>
1.67748

>  <SCORE.INTRA.SOLV.lig_0>
-46.1043

>  <SCORE.INTRA.VDW>
-0.416462

>  <SCORE.INTRA.VDW.0>
-0.545445

>  <SCORE.INTRA.norm>
-0.469628

>  <SCORE.RESTR>
0

>  <SCORE.RESTR.CAVITY>
0

>  <SCORE.RESTR.norm>
0

>  <SCORE.SYSTEM>
0

>  <SCORE.SYSTEM.CONST>
0

>  <SCORE.SYSTEM.DIHEDRAL>
0

>  <SCORE.SYSTEM.SOLV>
0

>  <SCORE.SYSTEM.norm>
0

>  <SCORE.heavy>
14

>  <SCORE.norm>
-0.854719

>  <RMSD>
16.418

$$$$
ligand
 OpenBabel11021811513D
libRbt.so/2013.1/901 2013/11/27
 14 13  0  0  0  0  0  0  0  0999 V2000
   21.3651   42.4189   29.8464 N   0  0  0  0  0  0  0  0  0  0  0  0
   21.6669   41.2811   30.6998 C   0  0  0  0  0  0  0  0  0  0  0  0
   20.4058   40.4637   30.9594 C   0  0  0  0  0  0  0  0  0  0  0  0
   19.3932   41.2589   31.7758 C   0  0  0  0  0  0  0  0  0  0  0  0
   18.8565   42.4074   31.0519 N   0  0  0  0  0  0  0  0  0  0  0  0
   18.6439   43.6760   31.7282 C   0  0  0  0  0  0  0  0  0  0  0  0
   17.1722   44.0678   31.8018 C   0  0  0  0  0  0  0  0  0  0  0  0
   17.0287   45.4365   32.4579 C   0  0  0  0  0  0  0  0  0  0  0  0
   15.5532   45.7504   32.6805 C   0  0  0  0  0  0  0  0  0  0  0  0
   14.9439   44.8531   33.6470 N   0  0  0  0  0  0  0  0  0  0  0  0
   14.1321   43.7385   33.1766 C   0  0  0  0  0  0  0  0  0  0  0  0
   13.7834   42.7064   34.2469 C   0  0  0  0  0  0  0  0  0  0  0  0
   12.8998   41.6019   33.6645 C   0  0  0  0  0  0  0  0  0  0  0  0
   11.5806   42.1253   33.3530 N   0  0  0  0  0  0  0  0  0  0  0  0
  1  2  1  0  0  0  0
  2  3  1  0  0  0  0
  3  4  1  0  0  0  0
  4  5  1  0  0  0  0
  5  6  1  0  0  0  0
  6  7  1  0  0  0  0
  7  8  1  0  0  0  0
  8  9  1  0  0  0  0
  9 10  1  0  0  0  0
 10 11  1  0  0  0  0
 11 12  1  0  0  0  0
 12 13  1  0  0  0  0
 13 14  1  0  0  0  0
M  END
>  <CHROM.1>
-65.88586551,66.50908967,-139.58274534,-115.01330579,-177.14199843,-173.27904964
65.90305194,-100.69668053,168.03804486,178.40016311,-69.42797965,16.95906944
42.98471952,32.22078555,-0.20214443,0.35933809,0.04162873

>  <Name>
ligand

>  <RI>
0

>  <Rbt.Current_Directory>
/home/itssahil/PROJECTS/Mol_Feturizer/New_Systems/rnas/4P5J

>  <Rbt.Executable>
rbdock ($Id: //depot/dev/client3/rdock/2013.1/src/exe/rbdock.cxx#4 $)

>  <Rbt.Library>
libRbt.so (2013.1, Build901 2013/11/27)

>  <Rbt.Parameter_File>
/export/apps/rDock/src/rDock_2013.1_src/data/scripts/dock_solv.prm

>  <Rbt.Receptor>
prm/blind_docking_60.prm

>  <SCORE>
-11.5481

>  <SCORE.INTER>
-5.27244

>  <SCORE.INTER.CONST>
1

>  <SCORE.INTER.POLAR>
0

>  <SCORE.INTER.ROT>
11

>  <SCORE.INTER.SOLV>
11.8077

>  <SCORE.INTER.VDW>
-18.3842

>  <SCORE.INTER.norm>
-0.376603

>  <SCORE.INTRA>
-6.28624

>  <SCORE.INTRA.DIHEDRAL>
-13.4226

>  <SCORE.INTRA.DIHEDRAL.0>
17.5233

>  <SCORE.INTRA.POLAR>
0

>  <SCORE.INTRA.POLAR.0>
0

>  <SCORE.INTRA.REPUL>
0

>  <SCORE.INTRA.REPUL.0>
0

>  <SCORE.INTRA.SOLV>
1.84631

>  <SCORE.INTRA.SOLV.lig_0>
-46.1043

>  <SCORE.INTRA.VDW>
-0.498116

>  <SCORE.INTRA.VDW.0>
-0.545445

>  <SCORE.INTRA.norm>
-0.449017

>  <SCORE.RESTR>
0.0105544

>  <SCORE.RESTR.CAVITY>
0.0105544

>  <SCORE.RESTR.norm>
0.000753889

>  <SCORE.SYSTEM>
0

>  <SCORE.SYSTEM.CONST>
0

>  <SCORE.SYSTEM.DIHEDRAL>
0

>  <SCORE.SYSTEM.SOLV>
0

>  <SCORE.SYSTEM.norm>
0

>  <SCORE.heavy>
14

>  <SCORE.norm>
-0.824866

>  <RMSD>
16.444

$$$$
ligand
 OpenBabel11021811513D
libRbt.so/2013.1/901 2013/11/27
 14 13  0  0  0  0  0  0  0  0999 V2000
   21.6995   45.3526   26.7551 N   0  0  0  0  0  0  0  0  0  0  0  0
   22.5142   44.6344   27.7218 C   0  0  0  0  0  0  0  0  0  0  0  0
   21.7178   44.3719   28.9956 C   0  0  0  0  0  0  0  0  0  0  0  0
   20.4958   43.5056   28.7117 C   0  0  0  0  0  0  0  0  0  0  0  0
   19.9557   42.8748   29.9123 N   0  0  0  0  0  0  0  0  0  0  0  0
   19.3874   43.6798   30.9803 C   0  0  0  0  0  0  0  0  0  0  0  0
   17.8840   43.4788   31.1368 C   0  0  0  0  0  0  0  0  0  0  0  0
   17.3946   44.1678   32.4057 C   0  0  0  0  0  0  0  0  0  0  0  0
   15.9003   43.9218   32.5835 C   0  0  0  0  0  0  0  0  0  0  0  0
   15.4122   44.4227   33.8568 N   0  0  0  0  0  0  0  0  0  0  0  0
   13.9785   44.5822   34.0613 C   0  0  0  0  0  0  0  0  0  0  0  0
   13.2323   43.2898   34.3858 C   0  0  0  0  0  0  0  0  0  0  0  0
   13.1095   42.4100   33.1406 C   0  0  0  0  0  0  0  0  0  0  0  0
   12.1103   41.3764   33.3519 N   0  0  0  0  0  0  0  0  0  0  0  0
  1  2  1  0  0  0  0
  2  3  1  0  0  0  0
  3  4  1  0  0  0  0
  4  5  1  0  0  0  0
  5  6  1  0  0  0  0
  6  7  1  0  0  0  0
  7  8  1  0  0  0  0
  8  9  1  0  0  0  0
  9 10  1  0  0  0  0
 10 11  1  0  0  0  0
 11 12  1  0  0  0  0
 12 13  1  0  0  0  0
 13 14  1  0  0  0  0
M  END
>  <CHROM.1>
61.46505350,161.37227591,64.87900112,112.88746286,170.77615415,-177.99030264
173.25754324,164.66915733,79.30143275,-73.18764177,-164.69626524,17.48524523
43.71927236,31.28578458,0.29302000,-0.54466472,-2.38730238

>  <Name>
ligand

>  <RI>
0

>  <Rbt.Current_Directory>
/home/itssahil/PROJECTS/Mol_Feturizer/New_Systems/rnas/4P5J

>  <Rbt.Executable>
rbdock ($Id: //depot/dev/client3/rdock/2013.1/src/exe/rbdock.cxx#4 $)

>  <Rbt.Library>
libRbt.so (2013.1, Build901 2013/11/27)

>  <Rbt.Parameter_File>
/export/apps/rDock/src/rDock_2013.1_src/data/scripts/dock_solv.prm

>  <Rbt.Receptor>
prm/blind_docking_60.prm

>  <SCORE>
-8.59482

>  <SCORE.INTER>
-1.66477

>  <SCORE.INTER.CONST>
1

>  <SCORE.INTER.POLAR>
0

>  <SCORE.INTER.ROT>
11

>  <SCORE.INTER.SOLV>
17.2394

>  <SCORE.INTER.VDW>
-17.7897

>  <SCORE.INTER.norm>
-0.118912

>  <SCORE.INTRA>
-6.93005

>  <SCORE.INTRA.DIHEDRAL>
-12.6858

>  <SCORE.INTRA.DIHEDRAL.0>
17.5233

>  <SCORE.INTRA.POLAR>
0

>  <SCORE.INTRA.POLAR.0>
0

>  <SCORE.INTRA.REPUL>
0

>  <SCORE.INTRA.REPUL.0>
0

>  <SCORE.INTRA.SOLV>
-1.59882

>  <SCORE.INTRA.SOLV.lig_0>
-46.1043

>  <SCORE.INTRA.VDW>
0.212255

>  <SCORE.INTRA.VDW.0>
-0.545445

>  <SCORE.INTRA.norm>
-0.495003

>  <SCORE.RESTR>
0

>  <SCORE.RESTR.CAVITY>
0

>  <SCORE.RESTR.norm>
0

>  <SCORE.SYSTEM>
0

>  <SCORE.SYSTEM.CONST>
0

>  <SCORE.SYSTEM.DIHEDRAL>
0

>  <SCORE.SYSTEM.SOLV>
0

>  <SCORE.SYSTEM.norm>
0

>  <SCORE.heavy>
14

>  <SCORE.norm>
-0.613916

>  <RMSD>
16.523

$$$$
ligand
 OpenBabel11021811513D
libRbt.so/2013.1/901 2013/11/27
 14 13  0  0  0  0  0  0  0  0999 V2000
   11.3777   41.8691   33.6879 N   0  0  0  0  0  0  0  0  0  0  0  0
   11.1708   43.1675   33.0672 C   0  0  0  0  0  0  0  0  0  0  0  0
   12.4973   43.7385   32.5772 C   0  0  0  0  0  0  0  0  0  0  0  0
   13.3799   44.1607   33.7464 C   0  0  0  0  0  0  0  0  0  0  0  0
   14.7131   44.5832   33.3279 N   0  0  0  0  0  0  0  0  0  0  0  0
   15.7446   43.6012   33.0388 C   0  0  0  0  0  0  0  0  0  0  0  0
   16.9975   44.2211   32.4298 C   0  0  0  0  0  0  0  0  0  0  0  0
   18.0945   43.1692   32.3091 C   0  0  0  0  0  0  0  0  0  0  0  0
   19.3712   43.8128   31.7791 C   0  0  0  0  0  0  0  0  0  0  0  0
   20.4454   42.8473   31.6232 N   0  0  0  0  0  0  0  0  0  0  0  0
   20.4884   42.0103   30.4315 C   0  0  0  0  0  0  0  0  0  0  0  0
   21.6553   42.2999   29.4898 C   0  0  0  0  0  0  0  0  0  0  0  0
   21.5484   43.7140   28.9164 C   0  0  0  0  0  0  0  0  0  0  0  0
   22.6579   43.9765   28.0158 N   0  0  0  0  0  0  0  0  0  0  0  0
  1  2  1  0  0  0  0
  2  3  1  0  0  0  0
  3  4  1  0  0  0  0
  4  5  1  0  0  0  0
  5  6  1  0  0  0  0
  6  7  1  0  0  0  0
  7  8  1  0  0  0  0
  8  9  1  0  0  0  0
  9 10  1  0  0  0  0
 10 11  1  0  0  0  0
 11 12  1  0  0  0  0
 12 13  1  0  0  0  0
 13 14  1  0  0  0  0
M  END
>  <CHROM.1>
-70.76895504,174.00459175,-80.77342915,171.79655995,173.18376865,-176.57834564
-179.03202567,81.58177748,112.25563819,-63.88472112,-179.63970832,17.15294352
43.36939963,31.74575927,2.84485723,0.26301026,0.81828895

>  <Name>
ligand

>  <RI>
0

>  <Rbt.Current_Directory>
/home/itssahil/PROJECTS/Mol_Feturizer/New_Systems/rnas/4P5J

>  <Rbt.Executable>
rbdock ($Id: //depot/dev/client3/rdock/2013.1/src/exe/rbdock.cxx#4 $)

>  <Rbt.Library>
libRbt.so (2013.1, Build901 2013/11/27)

>  <Rbt.Parameter_File>
/export/apps/rDock/src/rDock_2013.1_src/data/scripts/dock_solv.prm

>  <Rbt.Receptor>
prm/blind_docking_60.prm

>  <SCORE>
-7.54729

>  <SCORE.INTER>
1.042

>  <SCORE.INTER.CONST>
1

>  <SCORE.INTER.POLAR>
0

>  <SCORE.INTER.ROT>
11

>  <SCORE.INTER.SOLV>
8.63212

>  <SCORE.INTER.VDW>
-13.116

>  <SCORE.INTER.norm>
0.0744285

>  <SCORE.INTRA>
-8.58929

>  <SCORE.INTRA.DIHEDRAL>
-14.8062

>  <SCORE.INTRA.DIHEDRAL.0>
17.5233

>  <SCORE.INTRA.POLAR>
0

>  <SCORE.INTRA.POLAR.0>
0

>  <SCORE.INTRA.REPUL>
0

>  <SCORE.INTRA.REPUL.0>
0

>  <SCORE.INTRA.SOLV>
-1.65225

>  <SCORE.INTRA.SOLV.lig_0>
-46.1043

>  <SCORE.INTRA.VDW>
-0.360082

>  <SCORE.INTRA.VDW.0>
-0.545445

>  <SCORE.INTRA.norm>
-0.613521

>  <SCORE.RESTR>
0

>  <SCORE.RESTR.CAVITY>
0

>  <SCORE.RESTR.norm>
0

>  <SCORE.SYSTEM>
0

>  <SCORE.SYSTEM.CONST>
0

>  <SCORE.SYSTEM.DIHEDRAL>
0

>  <SCORE.SYSTEM.SOLV>
0

>  <SCORE.SYSTEM.norm>
0

>  <SCORE.heavy>
14

>  <SCORE.norm>
-0.539092

>  <RMSD>
16.529

$$$$
ligand
 OpenBabel11021811513D
libRbt.so/2013.1/901 2013/11/27
 14 13  0  0  0  0  0  0  0  0999 V2000
   11.4334   41.5250   31.5531 N   0  0  0  0  0  0  0  0  0  0  0  0
   11.4352   41.2311   32.9770 C   0  0  0  0  0  0  0  0  0  0  0  0
   12.1916   42.3128   33.7408 C   0  0  0  0  0  0  0  0  0  0  0  0
   13.6756   42.2972   33.3918 C   0  0  0  0  0  0  0  0  0  0  0  0
   14.4235   43.3684   34.0433 N   0  0  0  0  0  0  0  0  0  0  0  0
   15.3348   44.2053   33.2810 C   0  0  0  0  0  0  0  0  0  0  0  0
   16.4818   43.4167   32.6587 C   0  0  0  0  0  0  0  0  0  0  0  0
   17.4035   44.3558   31.8887 C   0  0  0  0  0  0  0  0  0  0  0  0
   18.4703   43.5480   31.1576 C   0  0  0  0  0  0  0  0  0  0  0  0
   19.4765   44.3991   30.5465 N   0  0  0  0  0  0  0  0  0  0  0  0
   20.8507   44.3416   31.0269 C   0  0  0  0  0  0  0  0  0  0  0  0
   21.8981   44.8210   30.0242 C   0  0  0  0  0  0  0  0  0  0  0  0
   23.3100   44.5633   30.5533 C   0  0  0  0  0  0  0  0  0  0  0  0
   23.5574   43.1348   30.6507 N   0  0  0  0  0  0  0  0  0  0  0  0
  1  2  1  0  0  0  0
  2  3  1  0  0  0  0
  3  4  1  0  0  0  0
  4  5  1  0  0  0  0
  5  6  1  0  0  0  0
  6  7  1  0  0  0  0
  7  8  1  0  0  0  0
  8  9  1  0  0  0  0
  9 10  1  0  0  0  0
 10 11  1  0  0  0  0
 11 12  1  0  0  0  0
 12 13  1  0  0  0  0
 13 14  1  0  0  0  0
M  END
>  <CHROM.1>
-66.66191838,176.65987626,-131.60821018,-61.85574405,-179.41452958,-174.54760467
-172.68133899,114.75888993,157.27036845,-173.08974231,65.93497101,17.13872537
43.39440652,31.96393910,3.06314902,0.31611816,0.93278617

>  <Name>
ligand

>  <RI>
0

>  <Rbt.Current_Directory>
/home/itssahil/PROJECTS/Mol_Feturizer/New_Systems/rnas/4P5J

>  <Rbt.Executable>
rbdock ($Id: //depot/dev/client3/rdock/2013.1/src/exe/rbdock.cxx#4 $)

>  <Rbt.Library>
libRbt.so (2013.1, Build901 2013/11/27)

>  <Rbt.Parameter_File>
/export/apps/rDock/src/rDock_2013.1_src/data/scripts/dock_solv.prm

>  <Rbt.Receptor>
prm/blind_docking_60.prm

>  <SCORE>
-10.603

>  <SCORE.INTER>
-3.02012

>  <SCORE.INTER.CONST>
1

>  <SCORE.INTER.POLAR>
0

>  <SCORE.INTER.ROT>
11

>  <SCORE.INTER.SOLV>
12.3188

>  <SCORE.INTER.VDW>
-17.053

>  <SCORE.INTER.norm>
-0.215723

>  <SCORE.INTRA>
-7.5829

>  <SCORE.INTRA.DIHEDRAL>
-14.0288

>  <SCORE.INTRA.DIHEDRAL.0>
17.5233

>  <SCORE.INTRA.POLAR>
0

>  <SCORE.INTRA.POLAR.0>
0

>  <SCORE.INTRA.REPUL>
0

>  <SCORE.INTRA.REPUL.0>
0

>  <SCORE.INTRA.SOLV>
-1.13251

>  <SCORE.INTRA.SOLV.lig_0>
-46.1043

>  <SCORE.INTRA.VDW>
-0.00226889

>  <SCORE.INTRA.VDW.0>
-0.545445

>  <SCORE.INTRA.norm>
-0.541636

>  <SCORE.RESTR>
0

>  <SCORE.RESTR.CAVITY>
0

>  <SCORE.RESTR.norm>
0

>  <SCORE.SYSTEM>
0

>  <SCORE.SYSTEM.CONST>
0

>  <SCORE.SYSTEM.DIHEDRAL>
0

>  <SCORE.SYSTEM.SOLV>
0

>  <SCORE.SYSTEM.norm>
0

>  <SCORE.heavy>
14

>  <SCORE.norm>
-0.757358

>  <RMSD>
16.616

$$$$
ligand
 OpenBabel11021811513D
libRbt.so/2013.1/901 2013/11/27
 14 13  0  0  0  0  0  0  0  0999 V2000
   22.1617   44.3981   31.2946 N   0  0  0  0  0  0  0  0  0  0  0  0
   22.2191   44.6995   29.8734 C   0  0  0  0  0  0  0  0  0  0  0  0
   21.5255   43.6040   29.0705 C   0  0  0  0  0  0  0  0  0  0  0  0
   20.0092   43.7162   29.1824 C   0  0  0  0  0  0  0  0  0  0  0  0
   19.5273   43.5543   30.5508 N   0  0  0  0  0  0  0  0  0  0  0  0
   18.1271   43.2678   30.8140 C   0  0  0  0  0  0  0  0  0  0  0  0
   17.5153   44.2070   31.8477 C   0  0  0  0  0  0  0  0  0  0  0  0
   16.0392   43.8788   32.0421 C   0  0  0  0  0  0  0  0  0  0  0  0
   15.4605   44.7427   33.1574 C   0  0  0  0  0  0  0  0  0  0  0  0
   14.0412   44.5026   33.3535 N   0  0  0  0  0  0  0  0  0  0  0  0
   13.6082   43.5791   34.3938 C   0  0  0  0  0  0  0  0  0  0  0  0
   13.5828   42.1110   33.9740 C   0  0  0  0  0  0  0  0  0  0  0  0
   12.5501   41.8831   32.8688 C   0  0  0  0  0  0  0  0  0  0  0  0
   11.2105   42.1319   33.3735 N   0  0  0  0  0  0  0  0  0  0  0  0
  1  2  1  0  0  0  0
  2  3  1  0  0  0  0
  3  4  1  0  0  0  0
  4  5  1  0  0  0  0
  5  6  1  0  0  0  0
  6  7  1  0  0  0  0
  7  8  1  0  0  0  0
  8  9  1  0  0  0  0
  9 10  1  0  0  0  0
 10 11  1  0  0  0  0
 11 12  1  0  0  0  0
 12 13  1  0  0  0  0
 13 14  1  0  0  0  0
M  END
>  <CHROM.1>
75.34646256,-61.94842948,-163.21063188,-129.26659163,178.23550057,175.37298917
178.00590780,96.49095304,-85.11337214,-64.30828004,-65.29636033,16.96993212
43.59112547,31.84248975,-0.20676184,0.37391189,0.84803221

>  <Name>
ligand

>  <RI>
0

>  <Rbt.Current_Directory>
/home/itssahil/PROJECTS/Mol_Feturizer/New_Systems/rnas/4P5J

>  <Rbt.Executable>
rbdock ($Id: //depot/dev/client3/rdock/2013.1/src/exe/rbdock.cxx#4 $)

>  <Rbt.Library>
libRbt.so (2013.1, Build901 2013/11/27)

>  <Rbt.Parameter_File>
/export/apps/rDock/src/rDock_2013.1_src/data/scripts/dock_solv.prm

>  <Rbt.Receptor>
prm/blind_docking_80.prm

>  <SCORE>
-11.2637

>  <SCORE.INTER>
-4.70262

>  <SCORE.INTER.CONST>
1

>  <SCORE.INTER.POLAR>
0

>  <SCORE.INTER.ROT>
11

>  <SCORE.INTER.SOLV>
9.71966

>  <SCORE.INTER.VDW>
-17.3083

>  <SCORE.INTER.norm>
-0.335902

>  <SCORE.INTRA>
-6.56107

>  <SCORE.INTRA.DIHEDRAL>
-13.7771

>  <SCORE.INTRA.DIHEDRAL.0>
17.5233

>  <SCORE.INTRA.POLAR>
0

>  <SCORE.INTRA.POLAR.0>
0

>  <SCORE.INTRA.REPUL>
0

>  <SCORE.INTRA.REPUL.0>
0

>  <SCORE.INTRA.SOLV>
1.79743

>  <SCORE.INTRA.SOLV.lig_0>
-46.1043

>  <SCORE.INTRA.VDW>
-0.57125

>  <SCORE.INTRA.VDW.0>
-0.545445

>  <SCORE.INTRA.norm>
-0.468648

>  <SCORE.RESTR>
0

>  <SCORE.RESTR.CAVITY>
0

>  <SCORE.RESTR.norm>
0

>  <SCORE.SYSTEM>
0

>  <SCORE.SYSTEM.CONST>
0

>  <SCORE.SYSTEM.DIHEDRAL>
0

>  <SCORE.SYSTEM.SOLV>
0

>  <SCORE.SYSTEM.norm>
0

>  <SCORE.heavy>
14

>  <SCORE.norm>
-0.80455

>  <RMSD>
16.621

$$$$
ligand
 OpenBabel11021811513D
libRbt.so/2013.1/901 2013/11/27
 14 13  0  0  0  0  0  0  0  0999 V2000
   11.2986   41.0038   32.6532 N   0  0  0  0  0  0  0  0  0  0  0  0
   12.2138   42.1261   32.7824 C   0  0  0  0  0  0  0  0  0  0  0  0
   13.1910   41.8843   33.9280 C   0  0  0  0  0  0  0  0  0  0  0  0
   14.1363   43.0674   34.1037 C   0  0  0  0  0  0  0  0  0  0  0  0
   15.0215   43.2619   32.9592 N   0  0  0  0  0  0  0  0  0  0  0  0
   15.8842   44.4287   32.8798 C   0  0  0  0  0  0  0  0  0  0  0  0
   16.8750   44.3542   31.7233 C   0  0  0  0  0  0  0  0  0  0  0  0
   17.8953   43.2509   31.9805 C   0  0  0  0  0  0  0  0  0  0  0  0
   18.8587   43.1536   30.8026 C   0  0  0  0  0  0  0  0  0  0  0  0
   19.6079   44.3828   30.6069 N   0  0  0  0  0  0  0  0  0  0  0  0
   21.0338   44.4075   30.9050 C   0  0  0  0  0  0  0  0  0  0  0  0
   21.9213   44.8479   29.7428 C   0  0  0  0  0  0  0  0  0  0  0  0
   21.7412   43.9167   28.5427 C   0  0  0  0  0  0  0  0  0  0  0  0
   22.6348   44.3067   27.4654 N   0  0  0  0  0  0  0  0  0  0  0  0
  1  2  1  0  0  0  0
  2  3  1  0  0  0  0
  3  4  1  0  0  0  0
  4  5  1  0  0  0  0
  5  6  1  0  0  0  0
  6  7  1  0  0  0  0
  7  8  1  0  0  0  0
  8  9  1  0  0  0  0
  9 10  1  0  0  0  0
 10 11  1  0  0  0  0
 11 12  1  0  0  0  0
 12 13  1  0  0  0  0
 13 14  1  0  0  0  0
M  END
>  <CHROM.1>
-178.48939416,-65.09130956,172.94478239,171.57474447,-67.90061637,178.35447668
61.40941535,109.88817552,123.85544192,-59.32113222,-177.35882959,17.30816321
43.45668115,31.50562927,2.88604218,0.41877022,1.04705273

>  <Name>
ligand

>  <RI>
0

>  <Rbt.Current_Directory>
/home/itssahil/PROJECTS/Mol_Feturizer/New_Systems/rnas/4P5J

>  <Rbt.Executable>
rbdock ($Id: //depot/dev/client3/rdock/2013.1/src/exe/rbdock.cxx#4 $)

>  <Rbt.Library>
libRbt.so (2013.1, Build901 2013/11/27)

>  <Rbt.Parameter_File>
/export/apps/rDock/src/rDock_2013.1_src/data/scripts/dock_solv.prm

>  <Rbt.Receptor>
prm/blind_docking_60.prm

>  <SCORE>
-13.019

>  <SCORE.INTER>
-4.51005

>  <SCORE.INTER.CONST>
1

>  <SCORE.INTER.POLAR>
0

>  <SCORE.INTER.ROT>
11

>  <SCORE.INTER.SOLV>
13.738

>  <SCORE.INTER.VDW>
-18.5194

>  <SCORE.INTER.norm>
-0.322146

>  <SCORE.INTRA>
-8.50891

>  <SCORE.INTRA.DIHEDRAL>
-14.7338

>  <SCORE.INTRA.DIHEDRAL.0>
17.5233

>  <SCORE.INTRA.POLAR>
0

>  <SCORE.INTRA.POLAR.0>
0

>  <SCORE.INTRA.REPUL>
0

>  <SCORE.INTRA.REPUL.0>
0

>  <SCORE.INTRA.SOLV>
-1.22735

>  <SCORE.INTRA.SOLV.lig_0>
-46.1043

>  <SCORE.INTRA.VDW>
-0.528326

>  <SCORE.INTRA.VDW.0>
-0.545445

>  <SCORE.INTRA.norm>
-0.607779

>  <SCORE.RESTR>
0

>  <SCORE.RESTR.CAVITY>
0

>  <SCORE.RESTR.norm>
0

>  <SCORE.SYSTEM>
0

>  <SCORE.SYSTEM.CONST>
0

>  <SCORE.SYSTEM.DIHEDRAL>
0

>  <SCORE.SYSTEM.SOLV>
0

>  <SCORE.SYSTEM.norm>
0

>  <SCORE.heavy>
14

>  <SCORE.norm>
-0.929925

>  <RMSD>
16.658

$$$$
ligand
 OpenBabel11021811513D
libRbt.so/2013.1/901 2013/11/27
 14 13  0  0  0  0  0  0  0  0999 V2000
   11.0971   42.8401   33.2112 N   0  0  0  0  0  0  0  0  0  0  0  0
   12.0995   41.9192   32.7001 C   0  0  0  0  0  0  0  0  0  0  0  0
   13.1299   41.6044   33.7794 C   0  0  0  0  0  0  0  0  0  0  0  0
   13.9396   42.8433   34.1451 C   0  0  0  0  0  0  0  0  0  0  0  0
   14.8187   43.2857   33.0668 N   0  0  0  0  0  0  0  0  0  0  0  0
   15.5791   44.5181   33.1893 C   0  0  0  0  0  0  0  0  0  0  0  0
   16.7988   44.5540   32.2751 C   0  0  0  0  0  0  0  0  0  0  0  0
   17.7262   43.3873   32.5960 C   0  0  0  0  0  0  0  0  0  0  0  0
   19.1654   43.7646   32.2623 C   0  0  0  0  0  0  0  0  0  0  0  0
   19.3490   44.0161   30.8434 N   0  0  0  0  0  0  0  0  0  0  0  0
   19.9967   43.0075   30.0153 C   0  0  0  0  0  0  0  0  0  0  0  0
   20.4342   43.4980   28.6368 C   0  0  0  0  0  0  0  0  0  0  0  0
   21.5612   44.5247   28.7616 C   0  0  0  0  0  0  0  0  0  0  0  0
   22.7688   43.8876   29.2585 N   0  0  0  0  0  0  0  0  0  0  0  0
  1  2  1  0  0  0  0
  2  3  1  0  0  0  0
  3  4  1  0  0  0  0
  4  5  1  0  0  0  0
  5  6  1  0  0  0  0
  6  7  1  0  0  0  0
  7  8  1  0  0  0  0
  8  9  1  0  0  0  0
  9 10  1  0  0  0  0
 10 11  1  0  0  0  0
 11 12  1  0  0  0  0
 12 13  1  0  0  0  0
 13 14  1  0  0  0  0
M  END
>  <CHROM.1>
-65.81023251,-68.21767308,174.54130762,157.76390013,-59.01874017,-151.39470509
-63.53612393,-103.46765131,-166.11082850,67.07342000,67.66823623,17.03316192
43.40357412,31.76728321,2.81102104,0.32230423,1.14256959

>  <Name>
ligand

>  <RI>
0

>  <Rbt.Current_Directory>
/home/itssahil/PROJECTS/Mol_Feturizer/New_Systems/rnas/4P5J

>  <Rbt.Executable>
rbdock ($Id: //depot/dev/client3/rdock/2013.1/src/exe/rbdock.cxx#4 $)

>  <Rbt.Library>
libRbt.so (2013.1, Build901 2013/11/27)

>  <Rbt.Parameter_File>
/export/apps/rDock/src/rDock_2013.1_src/data/scripts/dock_solv.prm

>  <Rbt.Receptor>
prm/blind_docking_60.prm

>  <SCORE>
-10.8294

>  <SCORE.INTER>
-4.98676

>  <SCORE.INTER.CONST>
1

>  <SCORE.INTER.POLAR>
0

>  <SCORE.INTER.ROT>
11

>  <SCORE.INTER.SOLV>
9.04241

>  <SCORE.INTER.VDW>
-17.272

>  <SCORE.INTER.norm>
-0.356197

>  <SCORE.INTRA>
-5.84263

>  <SCORE.INTRA.DIHEDRAL>
-12.323

>  <SCORE.INTRA.DIHEDRAL.0>
17.5233

>  <SCORE.INTRA.POLAR>
0

>  <SCORE.INTRA.POLAR.0>
0

>  <SCORE.INTRA.REPUL>
0

>  <SCORE.INTRA.REPUL.0>
0

>  <SCORE.INTRA.SOLV>
1.25541

>  <SCORE.INTRA.SOLV.lig_0>
-46.1043

>  <SCORE.INTRA.VDW>
-0.308839

>  <SCORE.INTRA.VDW.0>
-0.545445

>  <SCORE.INTRA.norm>
-0.417331

>  <SCORE.RESTR>
0

>  <SCORE.RESTR.CAVITY>
0

>  <SCORE.RESTR.norm>
0

>  <SCORE.SYSTEM>
0

>  <SCORE.SYSTEM.CONST>
0

>  <SCORE.SYSTEM.DIHEDRAL>
0

>  <SCORE.SYSTEM.SOLV>
0

>  <SCORE.SYSTEM.norm>
0

>  <SCORE.heavy>
14

>  <SCORE.norm>
-0.773528

>  <RMSD>
16.677

$$$$
ligand
 OpenBabel11021811513D
libRbt.so/2013.1/901 2013/11/27
 14 13  0  0  0  0  0  0  0  0999 V2000
   11.6180   43.4631   33.0972 N   0  0  0  0  0  0  0  0  0  0  0  0
   12.0035   42.2754   33.8420 C   0  0  0  0  0  0  0  0  0  0  0  0
   13.3958   41.8153   33.4230 C   0  0  0  0  0  0  0  0  0  0  0  0
   14.4584   42.8241   33.8441 C   0  0  0  0  0  0  0  0  0  0  0  0
   14.3631   44.0863   33.1168 N   0  0  0  0  0  0  0  0  0  0  0  0
   15.4670   45.0314   33.1253 C   0  0  0  0  0  0  0  0  0  0  0  0
   16.5162   44.7252   32.0622 C   0  0  0  0  0  0  0  0  0  0  0  0
   17.2799   43.4586   32.4321 C   0  0  0  0  0  0  0  0  0  0  0  0
   18.2860   43.1236   31.3365 C   0  0  0  0  0  0  0  0  0  0  0  0
   19.3378   44.1208   31.2375 N   0  0  0  0  0  0  0  0  0  0  0  0
   20.4855   43.8679   30.3764 C   0  0  0  0  0  0  0  0  0  0  0  0
   20.1514   43.7246   28.8931 C   0  0  0  0  0  0  0  0  0  0  0  0
   21.4122   43.4188   28.0827 C   0  0  0  0  0  0  0  0  0  0  0  0
   22.3341   44.5401   28.1450 N   0  0  0  0  0  0  0  0  0  0  0  0
  1  2  1  0  0  0  0
  2  3  1  0  0  0  0
  3  4  1  0  0  0  0
  4  5  1  0  0  0  0
  5  6  1  0  0  0  0
  6  7  1  0  0  0  0
  7  8  1  0  0  0  0
  8  9  1  0  0  0  0
  9 10  1  0  0  0  0
 10 11  1  0  0  0  0
 11 12  1  0  0  0  0
 12 13  1  0  0  0  0
 13 14  1  0  0  0  0
M  END
>  <CHROM.1>
67.13775074,-67.84967803,-164.33995577,85.01062838,-70.35420617,177.56889872
66.22957484,171.36841068,62.76660024,-178.22656243,-64.70904231,16.93636616
43.60519071,31.64394377,2.97052315,0.49062329,0.55049419

>  <Name>
ligand

>  <RI>
0

>  <Rbt.Current_Directory>
/home/itssahil/PROJECTS/Mol_Feturizer/New_Systems/rnas/4P5J

>  <Rbt.Executable>
rbdock ($Id: //depot/dev/client3/rdock/2013.1/src/exe/rbdock.cxx#4 $)

>  <Rbt.Library>
libRbt.so (2013.1, Build901 2013/11/27)

>  <Rbt.Parameter_File>
/export/apps/rDock/src/rDock_2013.1_src/data/scripts/dock_solv.prm

>  <Rbt.Receptor>
prm/blind_docking_60.prm

>  <SCORE>
-10.9654

>  <SCORE.INTER>
-4.2642

>  <SCORE.INTER.CONST>
1

>  <SCORE.INTER.POLAR>
0

>  <SCORE.INTER.ROT>
11

>  <SCORE.INTER.SOLV>
9.97937

>  <SCORE.INTER.VDW>
-17.1026

>  <SCORE.INTER.norm>
-0.304586

>  <SCORE.INTRA>
-6.7012

>  <SCORE.INTRA.DIHEDRAL>
-15.7393

>  <SCORE.INTRA.DIHEDRAL.0>
17.5233

>  <SCORE.INTRA.POLAR>
0

>  <SCORE.INTRA.POLAR.0>
0

>  <SCORE.INTRA.REPUL>
0

>  <SCORE.INTRA.REPUL.0>
0

>  <SCORE.INTRA.SOLV>
1.72469

>  <SCORE.INTRA.SOLV.lig_0>
-46.1043

>  <SCORE.INTRA.VDW>
0.306096

>  <SCORE.INTRA.VDW.0>
-0.545445

>  <SCORE.INTRA.norm>
-0.478657

>  <SCORE.RESTR>
0

>  <SCORE.RESTR.CAVITY>
0

>  <SCORE.RESTR.norm>
0

>  <SCORE.SYSTEM>
0

>  <SCORE.SYSTEM.CONST>
0

>  <SCORE.SYSTEM.DIHEDRAL>
0

>  <SCORE.SYSTEM.SOLV>
0

>  <SCORE.SYSTEM.norm>
0

>  <SCORE.heavy>
14

>  <SCORE.norm>
-0.783243

>  <RMSD>
16.705

$$$$
ligand
 OpenBabel11021811513D
libRbt.so/2013.1/901 2013/11/27
 14 13  0  0  0  0  0  0  0  0999 V2000
   10.9362   42.6137   33.5472 N   0  0  0  0  0  0  0  0  0  0  0  0
   11.7903   41.6387   32.8885 C   0  0  0  0  0  0  0  0  0  0  0  0
   13.2334   41.7964   33.3557 C   0  0  0  0  0  0  0  0  0  0  0  0
   13.7747   43.1798   33.0129 C   0  0  0  0  0  0  0  0  0  0  0  0
   15.2125   43.2984   33.2361 N   0  0  0  0  0  0  0  0  0  0  0  0
   15.9240   44.5070   32.8554 C   0  0  0  0  0  0  0  0  0  0  0  0
   17.1003   44.2326   31.9248 C   0  0  0  0  0  0  0  0  0  0  0  0
   18.0221   43.1873   32.5430 C   0  0  0  0  0  0  0  0  0  0  0  0
   19.3859   43.2343   31.8627 C   0  0  0  0  0  0  0  0  0  0  0  0
   19.2937   42.9760   30.4361 N   0  0  0  0  0  0  0  0  0  0  0  0
   20.4916   43.0712   29.6123 C   0  0  0  0  0  0  0  0  0  0  0  0
   20.9879   44.4950   29.3697 C   0  0  0  0  0  0  0  0  0  0  0  0
   22.3524   44.4808   28.6785 C   0  0  0  0  0  0  0  0  0  0  0  0
   22.2289   43.9464   27.3330 N   0  0  0  0  0  0  0  0  0  0  0  0
  1  2  1  0  0  0  0
  2  3  1  0  0  0  0
  3  4  1  0  0  0  0
  4  5  1  0  0  0  0
  5  6  1  0  0  0  0
  6  7  1  0  0  0  0
  7  8  1  0  0  0  0
  8  9  1  0  0  0  0
  9 10  1  0  0  0  0
 10 11  1  0  0  0  0
 11 12  1  0  0  0  0
 12 13  1  0  0  0  0
 13 14  1  0  0  0  0
M  END
>  <CHROM.1>
-61.02968795,-170.28818581,174.63253130,-124.93654585,-53.65811478,-162.00225132
-59.54768240,175.88127972,-72.65808726,171.55939185,66.82283987,17.19540009
43.33272588,31.47557950,2.79381309,0.33391118,1.15320892

>  <Name>
ligand

>  <RI>
0

>  <Rbt.Current_Directory>
/home/itssahil/PROJECTS/Mol_Feturizer/New_Systems/rnas/4P5J

>  <Rbt.Executable>
rbdock ($Id: //depot/dev/client3/rdock/2013.1/src/exe/rbdock.cxx#4 $)

>  <Rbt.Library>
libRbt.so (2013.1, Build901 2013/11/27)

>  <Rbt.Parameter_File>
/export/apps/rDock/src/rDock_2013.1_src/data/scripts/dock_solv.prm

>  <Rbt.Receptor>
prm/blind_docking_60.prm

>  <SCORE>
-10.1909

>  <SCORE.INTER>
-3.2612

>  <SCORE.INTER.CONST>
1

>  <SCORE.INTER.POLAR>
0

>  <SCORE.INTER.ROT>
11

>  <SCORE.INTER.SOLV>
11.5702

>  <SCORE.INTER.VDW>
-16.9642

>  <SCORE.INTER.norm>
-0.232943

>  <SCORE.INTRA>
-6.93562

>  <SCORE.INTRA.DIHEDRAL>
-13.9735

>  <SCORE.INTRA.DIHEDRAL.0>
17.5233

>  <SCORE.INTRA.POLAR>
0

>  <SCORE.INTRA.POLAR.0>
0

>  <SCORE.INTRA.REPUL>
0

>  <SCORE.INTRA.REPUL.0>
0

>  <SCORE.INTRA.SOLV>
-0.37632

>  <SCORE.INTRA.SOLV.lig_0>
-46.1043

>  <SCORE.INTRA.VDW>
0.239271

>  <SCORE.INTRA.VDW.0>
-0.545445

>  <SCORE.INTRA.norm>
-0.495401

>  <SCORE.RESTR>
0.00587823

>  <SCORE.RESTR.CAVITY>
0.00587823

>  <SCORE.RESTR.norm>
0.000419874

>  <SCORE.SYSTEM>
0

>  <SCORE.SYSTEM.CONST>
0

>  <SCORE.SYSTEM.DIHEDRAL>
0

>  <SCORE.SYSTEM.SOLV>
0

>  <SCORE.SYSTEM.norm>
0

>  <SCORE.heavy>
14

>  <SCORE.norm>
-0.727924

>  <RMSD>
16.744

$$$$
ligand
 OpenBabel11021811513D
libRbt.so/2013.1/901 2013/11/27
 14 13  0  0  0  0  0  0  0  0999 V2000
   22.6131   45.2147   26.7239 N   0  0  0  0  0  0  0  0  0  0  0  0
   22.2122   44.0810   27.5412 C   0  0  0  0  0  0  0  0  0  0  0  0
   20.9847   44.4354   28.3739 C   0  0  0  0  0  0  0  0  0  0  0  0
   20.5033   43.2358   29.1824 C   0  0  0  0  0  0  0  0  0  0  0  0
   19.2958   43.5179   29.9527 N   0  0  0  0  0  0  0  0  0  0  0  0
   19.3491   44.3711   31.1278 C   0  0  0  0  0  0  0  0  0  0  0  0
   18.5298   43.8260   32.2924 C   0  0  0  0  0  0  0  0  0  0  0  0
   17.0439   43.8784   31.9549 C   0  0  0  0  0  0  0  0  0  0  0  0
   16.2333   43.2749   33.0968 C   0  0  0  0  0  0  0  0  0  0  0  0
   14.8032   43.3617   32.8565 N   0  0  0  0  0  0  0  0  0  0  0  0
   13.8787   42.7783   33.8195 C   0  0  0  0  0  0  0  0  0  0  0  0
   12.5192   43.4696   33.8990 C   0  0  0  0  0  0  0  0  0  0  0  0
   11.7719   43.3458   32.5701 C   0  0  0  0  0  0  0  0  0  0  0  0
   10.5220   44.0847   32.6256 N   0  0  0  0  0  0  0  0  0  0  0  0
  1  2  1  0  0  0  0
  2  3  1  0  0  0  0
  3  4  1  0  0  0  0
  4  5  1  0  0  0  0
  5  6  1  0  0  0  0
  6  7  1  0  0  0  0
  7  8  1  0  0  0  0
  8  9  1  0  0  0  0
  9 10  1  0  0  0  0
 10 11  1  0  0  0  0
 11 12  1  0  0  0  0
 12 13  1  0  0  0  0
 13 14  1  0  0  0  0
M  END
>  <CHROM.1>
176.95671337,-177.64602589,-72.14153483,-137.08186377,-67.78329024,177.48672846
177.06021345,177.24593924,150.60383414,63.48496219,-176.05909999,17.16160278
43.77669575,31.14428653,0.51247554,0.05088185,-1.31192182

>  <Name>
ligand

>  <RI>
0

>  <Rbt.Current_Directory>
/home/itssahil/PROJECTS/Mol_Feturizer/New_Systems/rnas/4P5J

>  <Rbt.Executable>
rbdock ($Id: //depot/dev/client3/rdock/2013.1/src/exe/rbdock.cxx#4 $)

>  <Rbt.Library>
libRbt.so (2013.1, Build901 2013/11/27)

>  <Rbt.Parameter_File>
/export/apps/rDock/src/rDock_2013.1_src/data/scripts/dock_solv.prm

>  <Rbt.Receptor>
prm/blind_docking_60.prm

>  <SCORE>
-10.4537

>  <SCORE.INTER>
-1.40215

>  <SCORE.INTER.CONST>
1

>  <SCORE.INTER.POLAR>
0

>  <SCORE.INTER.ROT>
11

>  <SCORE.INTER.SOLV>
13.3065

>  <SCORE.INTER.VDW>
-16.3036

>  <SCORE.INTER.norm>
-0.100154

>  <SCORE.INTRA>
-9.0515

>  <SCORE.INTRA.DIHEDRAL>
-15.3978

>  <SCORE.INTRA.DIHEDRAL.0>
17.5233

>  <SCORE.INTRA.POLAR>
0

>  <SCORE.INTRA.POLAR.0>
0

>  <SCORE.INTRA.REPUL>
0

>  <SCORE.INTRA.REPUL.0>
0

>  <SCORE.INTRA.SOLV>
-1.97435

>  <SCORE.INTRA.SOLV.lig_0>
-46.1043

>  <SCORE.INTRA.VDW>
-0.365422

>  <SCORE.INTRA.VDW.0>
-0.545445

>  <SCORE.INTRA.norm>
-0.646536

>  <SCORE.RESTR>
0

>  <SCORE.RESTR.CAVITY>
0

>  <SCORE.RESTR.norm>
0

>  <SCORE.SYSTEM>
0

>  <SCORE.SYSTEM.CONST>
0

>  <SCORE.SYSTEM.DIHEDRAL>
0

>  <SCORE.SYSTEM.SOLV>
0

>  <SCORE.SYSTEM.norm>
0

>  <SCORE.heavy>
14

>  <SCORE.norm>
-0.746689

>  <RMSD>
16.773

$$$$
ligand
 OpenBabel11021811513D
libRbt.so/2013.1/901 2013/11/27
 14 13  0  0  0  0  0  0  0  0999 V2000
   10.9187   42.5185   33.6913 N   0  0  0  0  0  0  0  0  0  0  0  0
   12.0409   41.8888   33.0144 C   0  0  0  0  0  0  0  0  0  0  0  0
   13.2502   41.8230   33.9413 C   0  0  0  0  0  0  0  0  0  0  0  0
   13.7069   43.2191   34.3496 C   0  0  0  0  0  0  0  0  0  0  0  0
   13.9941   44.0798   33.2059 N   0  0  0  0  0  0  0  0  0  0  0  0
   14.9101   45.2006   33.3339 C   0  0  0  0  0  0  0  0  0  0  0  0
   16.3567   44.8189   33.0397 C   0  0  0  0  0  0  0  0  0  0  0  0
   16.4578   44.1818   31.6583 C   0  0  0  0  0  0  0  0  0  0  0  0
   17.8979   43.7594   31.3885 C   0  0  0  0  0  0  0  0  0  0  0  0
   18.3367   42.7084   32.2904 N   0  0  0  0  0  0  0  0  0  0  0  0
   19.6773   42.1560   32.1477 C   0  0  0  0  0  0  0  0  0  0  0  0
   19.7479   40.8454   31.3668 C   0  0  0  0  0  0  0  0  0  0  0  0
   21.2003   40.3991   31.1909 C   0  0  0  0  0  0  0  0  0  0  0  0
   21.9553   41.4148   30.4769 N   0  0  0  0  0  0  0  0  0  0  0  0
  1  2  1  0  0  0  0
  2  3  1  0  0  0  0
  3  4  1  0  0  0  0
  4  5  1  0  0  0  0
  5  6  1  0  0  0  0
  6  7  1  0  0  0  0
  7  8  1  0  0  0  0
  8  9  1  0  0  0  0
  9 10  1  0  0  0  0
 10 11  1  0  0  0  0
 11 12  1  0  0  0  0
 12 13  1  0  0  0  0
 13 14  1  0  0  0  0
M  END
>  <CHROM.1>
-61.62369024,-55.56026767,-155.36316225,89.45205134,55.29267754,-178.10071262
65.07435279,178.20539726,-98.13380057,176.14466269,-59.41227301,16.46083856
42.78672520,32.50685879,2.94430969,0.28515111,0.04787102

>  <Name>
ligand

>  <RI>
0

>  <Rbt.Current_Directory>
/home/itssahil/PROJECTS/Mol_Feturizer/New_Systems/rnas/4P5J

>  <Rbt.Executable>
rbdock ($Id: //depot/dev/client3/rdock/2013.1/src/exe/rbdock.cxx#4 $)

>  <Rbt.Library>
libRbt.so (2013.1, Build901 2013/11/27)

>  <Rbt.Parameter_File>
/export/apps/rDock/src/rDock_2013.1_src/data/scripts/dock_solv.prm

>  <Rbt.Receptor>
prm/blind_docking_60.prm

>  <SCORE>
-12.3541

>  <SCORE.INTER>
-5.23363

>  <SCORE.INTER.CONST>
1

>  <SCORE.INTER.POLAR>
0

>  <SCORE.INTER.ROT>
11

>  <SCORE.INTER.SOLV>
10.253

>  <SCORE.INTER.VDW>
-17.8401

>  <SCORE.INTER.norm>
-0.37383

>  <SCORE.INTRA>
-7.12048

>  <SCORE.INTRA.DIHEDRAL>
-15.3193

>  <SCORE.INTRA.DIHEDRAL.0>
17.5233

>  <SCORE.INTRA.POLAR>
0

>  <SCORE.INTRA.POLAR.0>
0

>  <SCORE.INTRA.REPUL>
0

>  <SCORE.INTRA.REPUL.0>
0

>  <SCORE.INTRA.SOLV>
0.991306

>  <SCORE.INTRA.SOLV.lig_0>
-46.1043

>  <SCORE.INTRA.VDW>
0.0435247

>  <SCORE.INTRA.VDW.0>
-0.545445

>  <SCORE.INTRA.norm>
-0.508606

>  <SCORE.RESTR>
0

>  <SCORE.RESTR.CAVITY>
0

>  <SCORE.RESTR.norm>
0

>  <SCORE.SYSTEM>
0

>  <SCORE.SYSTEM.CONST>
0

>  <SCORE.SYSTEM.DIHEDRAL>
0

>  <SCORE.SYSTEM.SOLV>
0

>  <SCORE.SYSTEM.norm>
0

>  <SCORE.heavy>
14

>  <SCORE.norm>
-0.882436

>  <RMSD>
16.794

$$$$
ligand
 OpenBabel11021811513D
libRbt.so/2013.1/901 2013/11/27
 14 13  0  0  0  0  0  0  0  0999 V2000
   12.4741   41.2514   32.8202 N   0  0  0  0  0  0  0  0  0  0  0  0
   11.4547   42.0707   33.4555 C   0  0  0  0  0  0  0  0  0  0  0  0
   11.8524   43.5423   33.4093 C   0  0  0  0  0  0  0  0  0  0  0  0
   13.0838   43.8066   34.2684 C   0  0  0  0  0  0  0  0  0  0  0  0
   14.2875   43.1647   33.7484 N   0  0  0  0  0  0  0  0  0  0  0  0
   15.1569   43.8643   32.8176 C   0  0  0  0  0  0  0  0  0  0  0  0
   16.5816   43.3211   32.8164 C   0  0  0  0  0  0  0  0  0  0  0  0
   17.4090   44.0284   31.7489 C   0  0  0  0  0  0  0  0  0  0  0  0
   18.8144   43.4382   31.7095 C   0  0  0  0  0  0  0  0  0  0  0  0
   18.8111   42.0481   31.2875 N   0  0  0  0  0  0  0  0  0  0  0  0
   19.7900   41.1269   31.8496 C   0  0  0  0  0  0  0  0  0  0  0  0
   20.6724   40.4261   30.8189 C   0  0  0  0  0  0  0  0  0  0  0  0
   21.5347   41.4412   30.0667 C   0  0  0  0  0  0  0  0  0  0  0  0
   22.4854   42.0626   30.9729 N   0  0  0  0  0  0  0  0  0  0  0  0
  1  2  1  0  0  0  0
  2  3  1  0  0  0  0
  3  4  1  0  0  0  0
  4  5  1  0  0  0  0
  5  6  1  0  0  0  0
  6  7  1  0  0  0  0
  7  8  1  0  0  0  0
  8  9  1  0  0  0  0
  9 10  1  0  0  0  0
 10 11  1  0  0  0  0
 11 12  1  0  0  0  0
 12 13  1  0  0  0  0
 13 14  1  0  0  0  0
M  END
>  <CHROM.1>
-66.55529675,66.77164533,90.54176252,156.93247879,175.84620391,-177.47072773
64.95500118,-146.02866543,-122.78879067,63.58223792,65.69532810,16.74331701
42.54249544,32.27071690,2.93420720,0.25855588,0.23963848

>  <Name>
ligand

>  <RI>
0

>  <Rbt.Current_Directory>
/home/itssahil/PROJECTS/Mol_Feturizer/New_Systems/rnas/4P5J

>  <Rbt.Executable>
rbdock ($Id: //depot/dev/client3/rdock/2013.1/src/exe/rbdock.cxx#4 $)

>  <Rbt.Library>
libRbt.so (2013.1, Build901 2013/11/27)

>  <Rbt.Parameter_File>
/export/apps/rDock/src/rDock_2013.1_src/data/scripts/dock_solv.prm

>  <Rbt.Receptor>
prm/blind_docking_60.prm

>  <SCORE>
-8.50573

>  <SCORE.INTER>
-2.66839

>  <SCORE.INTER.CONST>
1

>  <SCORE.INTER.POLAR>
0

>  <SCORE.INTER.ROT>
11

>  <SCORE.INTER.SOLV>
12.3672

>  <SCORE.INTER.VDW>
-16.8347

>  <SCORE.INTER.norm>
-0.190599

>  <SCORE.INTRA>
-5.83734

>  <SCORE.INTRA.DIHEDRAL>
-13.9148

>  <SCORE.INTRA.DIHEDRAL.0>
17.5233

>  <SCORE.INTRA.POLAR>
0

>  <SCORE.INTRA.POLAR.0>
0

>  <SCORE.INTRA.REPUL>
0

>  <SCORE.INTRA.REPUL.0>
0

>  <SCORE.INTRA.SOLV>
3.23818

>  <SCORE.INTRA.SOLV.lig_0>
-46.1043

>  <SCORE.INTRA.VDW>
-0.499055

>  <SCORE.INTRA.VDW.0>
-0.545445

>  <SCORE.INTRA.norm>
-0.416953

>  <SCORE.RESTR>
0

>  <SCORE.RESTR.CAVITY>
0

>  <SCORE.RESTR.norm>
0

>  <SCORE.SYSTEM>
0

>  <SCORE.SYSTEM.CONST>
0

>  <SCORE.SYSTEM.DIHEDRAL>
0

>  <SCORE.SYSTEM.SOLV>
0

>  <SCORE.SYSTEM.norm>
0

>  <SCORE.heavy>
14

>  <SCORE.norm>
-0.607552

>  <RMSD>
16.800

$$$$
ligand
 OpenBabel11021811513D
libRbt.so/2013.1/901 2013/11/27
 14 13  0  0  0  0  0  0  0  0999 V2000
   10.9763   41.0392   32.3190 N   0  0  0  0  0  0  0  0  0  0  0  0
   11.6199   41.7123   33.4355 C   0  0  0  0  0  0  0  0  0  0  0  0
   13.1101   41.8864   33.1620 C   0  0  0  0  0  0  0  0  0  0  0  0
   13.8075   42.5729   34.3311 C   0  0  0  0  0  0  0  0  0  0  0  0
   15.1556   43.0259   34.0015 N   0  0  0  0  0  0  0  0  0  0  0  0
   15.3724   44.3323   33.4030 C   0  0  0  0  0  0  0  0  0  0  0  0
   15.9979   44.2507   32.0149 C   0  0  0  0  0  0  0  0  0  0  0  0
   17.4778   44.6099   32.0874 C   0  0  0  0  0  0  0  0  0  0  0  0
   18.2778   43.4074   32.5763 C   0  0  0  0  0  0  0  0  0  0  0  0
   18.4107   42.3866   31.5511 N   0  0  0  0  0  0  0  0  0  0  0  0
   19.2789   41.2412   31.7894 C   0  0  0  0  0  0  0  0  0  0  0  0
   20.5673   41.2352   30.9694 C   0  0  0  0  0  0  0  0  0  0  0  0
   21.4488   42.4290   31.3400 C   0  0  0  0  0  0  0  0  0  0  0  0
   22.6244   42.4697   30.4870 N   0  0  0  0  0  0  0  0  0  0  0  0
  1  2  1  0  0  0  0
  2  3  1  0  0  0  0
  3  4  1  0  0  0  0
  4  5  1  0  0  0  0
  5  6  1  0  0  0  0
  6  7  1  0  0  0  0
  7  8  1  0  0  0  0
  8  9  1  0  0  0  0
  9 10  1  0  0  0  0
 10 11  1  0  0  0  0
 11 12  1  0  0  0  0
 12 13  1  0  0  0  0
 13 14  1  0  0  0  0
M  END
>  <CHROM.1>
-179.17210694,-167.21352698,87.03078875,-117.81771771,-103.64020729,80.20862177
74.18340108,172.64905334,-108.67813781,63.58541390,-175.82094442,16.72322034
42.61436129,32.39067116,3.08103397,0.24229915,0.32548350

>  <Name>
ligand

>  <RI>
0

>  <Rbt.Current_Directory>
/home/itssahil/PROJECTS/Mol_Feturizer/New_Systems/rnas/4P5J

>  <Rbt.Executable>
rbdock ($Id: //depot/dev/client3/rdock/2013.1/src/exe/rbdock.cxx#4 $)

>  <Rbt.Library>
libRbt.so (2013.1, Build901 2013/11/27)

>  <Rbt.Parameter_File>
/export/apps/rDock/src/rDock_2013.1_src/data/scripts/dock_solv.prm

>  <Rbt.Receptor>
prm/blind_docking_60.prm

>  <SCORE>
-8.3958

>  <SCORE.INTER>
-3.69059

>  <SCORE.INTER.CONST>
1

>  <SCORE.INTER.POLAR>
0

>  <SCORE.INTER.ROT>
11

>  <SCORE.INTER.SOLV>
12.6247

>  <SCORE.INTER.VDW>
-17.602

>  <SCORE.INTER.norm>
-0.263613

>  <SCORE.INTRA>
-4.70521

>  <SCORE.INTRA.DIHEDRAL>
-7.11227

>  <SCORE.INTRA.DIHEDRAL.0>
17.5233

>  <SCORE.INTRA.POLAR>
0

>  <SCORE.INTRA.POLAR.0>
0

>  <SCORE.INTRA.REPUL>
0

>  <SCORE.INTRA.REPUL.0>
0

>  <SCORE.INTRA.SOLV>
-1.13248

>  <SCORE.INTRA.SOLV.lig_0>
-46.1043

>  <SCORE.INTRA.VDW>
-0.582836

>  <SCORE.INTRA.VDW.0>
-0.545445

>  <SCORE.INTRA.norm>
-0.336087

>  <SCORE.RESTR>
0

>  <SCORE.RESTR.CAVITY>
0

>  <SCORE.RESTR.norm>
0

>  <SCORE.SYSTEM>
0

>  <SCORE.SYSTEM.CONST>
0

>  <SCORE.SYSTEM.DIHEDRAL>
0

>  <SCORE.SYSTEM.SOLV>
0

>  <SCORE.SYSTEM.norm>
0

>  <SCORE.heavy>
14

>  <SCORE.norm>
-0.5997

>  <RMSD>
16.806

$$$$
ligand
 OpenBabel11021811513D
libRbt.so/2013.1/901 2013/11/27
 14 13  0  0  0  0  0  0  0  0999 V2000
   22.3722   44.6258   28.2659 N   0  0  0  0  0  0  0  0  0  0  0  0
   22.1355   44.5101   29.6957 C   0  0  0  0  0  0  0  0  0  0  0  0
   20.6413   44.5794   29.9932 C   0  0  0  0  0  0  0  0  0  0  0  0
   20.3705   44.4363   31.4867 C   0  0  0  0  0  0  0  0  0  0  0  0
   18.9664   44.6388   31.8312 N   0  0  0  0  0  0  0  0  0  0  0  0
   17.9735   43.6243   31.5197 C   0  0  0  0  0  0  0  0  0  0  0  0
   16.8428   43.5700   32.5411 C   0  0  0  0  0  0  0  0  0  0  0  0
   16.1201   44.9114   32.5916 C   0  0  0  0  0  0  0  0  0  0  0  0
   15.0859   44.8991   33.7121 C   0  0  0  0  0  0  0  0  0  0  0  0
   14.0075   43.9619   33.4494 N   0  0  0  0  0  0  0  0  0  0  0  0
   13.9840   42.6834   34.1476 C   0  0  0  0  0  0  0  0  0  0  0  0
   12.6543   41.9365   34.0675 C   0  0  0  0  0  0  0  0  0  0  0  0
   12.3260   41.5722   32.6187 C   0  0  0  0  0  0  0  0  0  0  0  0
   10.9911   41.0046   32.5332 N   0  0  0  0  0  0  0  0  0  0  0  0
  1  2  1  0  0  0  0
  2  3  1  0  0  0  0
  3  4  1  0  0  0  0
  4  5  1  0  0  0  0
  5  6  1  0  0  0  0
  6  7  1  0  0  0  0
  7  8  1  0  0  0  0
  8  9  1  0  0  0  0
  9 10  1  0  0  0  0
 10 11  1  0  0  0  0
 11 12  1  0  0  0  0
 12 13  1  0  0  0  0
 13 14  1  0  0  0  0
M  END
>  <CHROM.1>
179.04978630,173.88760532,73.78128921,147.48130421,60.21190543,-174.22605564
-66.40112857,103.28369982,165.48319502,62.75671213,-173.30727948,16.74801827
43.63959011,32.03261737,0.10989285,-0.43803880,-2.29879897

>  <Name>
ligand

>  <RI>
0

>  <Rbt.Current_Directory>
/home/itssahil/PROJECTS/Mol_Feturizer/New_Systems/rnas/4P5J

>  <Rbt.Executable>
rbdock ($Id: //depot/dev/client3/rdock/2013.1/src/exe/rbdock.cxx#4 $)

>  <Rbt.Library>
libRbt.so (2013.1, Build901 2013/11/27)

>  <Rbt.Parameter_File>
/export/apps/rDock/src/rDock_2013.1_src/data/scripts/dock_solv.prm

>  <Rbt.Receptor>
prm/blind_docking_60.prm

>  <SCORE>
-12.1189

>  <SCORE.INTER>
-3.67697

>  <SCORE.INTER.CONST>
1

>  <SCORE.INTER.POLAR>
0

>  <SCORE.INTER.ROT>
11

>  <SCORE.INTER.SOLV>
13.3055

>  <SCORE.INTER.VDW>
-17.8198

>  <SCORE.INTER.norm>
-0.262641

>  <SCORE.INTRA>
-8.44189

>  <SCORE.INTRA.DIHEDRAL>
-14.9127

>  <SCORE.INTRA.DIHEDRAL.0>
17.5233

>  <SCORE.INTRA.POLAR>
0

>  <SCORE.INTRA.POLAR.0>
0

>  <SCORE.INTRA.REPUL>
0

>  <SCORE.INTRA.REPUL.0>
0

>  <SCORE.INTRA.SOLV>
-1.5129

>  <SCORE.INTRA.SOLV.lig_0>
-46.1043

>  <SCORE.INTRA.VDW>
-0.229095

>  <SCORE.INTRA.VDW.0>
-0.545445

>  <SCORE.INTRA.norm>
-0.602992

>  <SCORE.RESTR>
0

>  <SCORE.RESTR.CAVITY>
0

>  <SCORE.RESTR.norm>
0

>  <SCORE.SYSTEM>
0

>  <SCORE.SYSTEM.CONST>
0

>  <SCORE.SYSTEM.DIHEDRAL>
0

>  <SCORE.SYSTEM.SOLV>
0

>  <SCORE.SYSTEM.norm>
0

>  <SCORE.heavy>
14

>  <SCORE.norm>
-0.865633

>  <RMSD>
16.820

$$$$
ligand
 OpenBabel11021811513D
libRbt.so/2013.1/901 2013/11/27
 14 13  0  0  0  0  0  0  0  0999 V2000
   22.4321   44.9111   28.3917 N   0  0  0  0  0  0  0  0  0  0  0  0
   21.0833   44.4090   28.1858 C   0  0  0  0  0  0  0  0  0  0  0  0
   20.5995   43.6646   29.4258 C   0  0  0  0  0  0  0  0  0  0  0  0
   20.4559   44.6095   30.6136 C   0  0  0  0  0  0  0  0  0  0  0  0
   20.1221   43.9157   31.8540 N   0  0  0  0  0  0  0  0  0  0  0  0
   18.8195   43.2955   32.0285 C   0  0  0  0  0  0  0  0  0  0  0  0
   17.7264   44.3018   32.3710 C   0  0  0  0  0  0  0  0  0  0  0  0
   16.4699   43.5711   32.8310 C   0  0  0  0  0  0  0  0  0  0  0  0
   15.4367   44.5793   33.3222 C   0  0  0  0  0  0  0  0  0  0  0  0
   14.2960   43.9318   33.9468 N   0  0  0  0  0  0  0  0  0  0  0  0
   13.3490   43.1959   33.1196 C   0  0  0  0  0  0  0  0  0  0  0  0
   12.7708   41.9423   33.7726 C   0  0  0  0  0  0  0  0  0  0  0  0
   11.8153   41.2268   32.8161 C   0  0  0  0  0  0  0  0  0  0  0  0
   10.6073   42.0129   32.6310 N   0  0  0  0  0  0  0  0  0  0  0  0
  1  2  1  0  0  0  0
  2  3  1  0  0  0  0
  3  4  1  0  0  0  0
  4  5  1  0  0  0  0
  5  6  1  0  0  0  0
  6  7  1  0  0  0  0
  7  8  1  0  0  0  0
  8  9  1  0  0  0  0
  9 10  1  0  0  0  0
 10 11  1  0  0  0  0
 11 12  1  0  0  0  0
 12 13  1  0  0  0  0
 13 14  1  0  0  0  0
M  END
>  <CHROM.1>
65.50907852,-174.32092709,-68.94270831,-78.60765041,-167.88947805,173.59344024
-171.87302136,-71.11812324,144.17945640,-178.74713972,-69.60391192,16.85598802
43.54046438,31.80786878,0.29492237,-0.34373454,-1.92364216

>  <Name>
ligand

>  <RI>
0

>  <Rbt.Current_Directory>
/home/itssahil/PROJECTS/Mol_Feturizer/New_Systems/rnas/4P5J

>  <Rbt.Executable>
rbdock ($Id: //depot/dev/client3/rdock/2013.1/src/exe/rbdock.cxx#4 $)

>  <Rbt.Library>
libRbt.so (2013.1, Build901 2013/11/27)

>  <Rbt.Parameter_File>
/export/apps/rDock/src/rDock_2013.1_src/data/scripts/dock_solv.prm

>  <Rbt.Receptor>
prm/blind_docking_80.prm

>  <SCORE>
-10.9901

>  <SCORE.INTER>
-3.30948

>  <SCORE.INTER.CONST>
1

>  <SCORE.INTER.POLAR>
0

>  <SCORE.INTER.ROT>
11

>  <SCORE.INTER.SOLV>
11.364

>  <SCORE.INTER.VDW>
-16.9277

>  <SCORE.INTER.norm>
-0.236392

>  <SCORE.INTRA>
-7.68058

>  <SCORE.INTRA.DIHEDRAL>
-14.7809

>  <SCORE.INTRA.DIHEDRAL.0>
17.5233

>  <SCORE.INTRA.POLAR>
0

>  <SCORE.INTRA.POLAR.0>
0

>  <SCORE.INTRA.REPUL>
0

>  <SCORE.INTRA.REPUL.0>
0

>  <SCORE.INTRA.SOLV>
-1.21524

>  <SCORE.INTRA.SOLV.lig_0>
-46.1043

>  <SCORE.INTRA.VDW>
0.317489

>  <SCORE.INTRA.VDW.0>
-0.545445

>  <SCORE.INTRA.norm>
-0.548613

>  <SCORE.RESTR>
0

>  <SCORE.RESTR.CAVITY>
0

>  <SCORE.RESTR.norm>
0

>  <SCORE.SYSTEM>
0

>  <SCORE.SYSTEM.CONST>
0

>  <SCORE.SYSTEM.DIHEDRAL>
0

>  <SCORE.SYSTEM.SOLV>
0

>  <SCORE.SYSTEM.norm>
0

>  <SCORE.heavy>
14

>  <SCORE.norm>
-0.785005

>  <RMSD>
16.849

$$$$
ligand
 OpenBabel11021811513D
libRbt.so/2013.1/901 2013/11/27
 14 13  0  0  0  0  0  0  0  0999 V2000
   21.9767   44.9091   27.5738 N   0  0  0  0  0  0  0  0  0  0  0  0
   21.6706   44.4421   28.9162 C   0  0  0  0  0  0  0  0  0  0  0  0
   20.6752   43.2879   28.8621 C   0  0  0  0  0  0  0  0  0  0  0  0
   20.3434   42.7815   30.2613 C   0  0  0  0  0  0  0  0  0  0  0  0
   19.6363   43.7699   31.0701 N   0  0  0  0  0  0  0  0  0  0  0  0
   18.1981   43.6811   31.2583 C   0  0  0  0  0  0  0  0  0  0  0  0
   17.6544   44.7652   32.1824 C   0  0  0  0  0  0  0  0  0  0  0  0
   16.1337   44.6791   32.2499 C   0  0  0  0  0  0  0  0  0  0  0  0
   15.7215   43.5288   33.1621 C   0  0  0  0  0  0  0  0  0  0  0  0
   14.2778   43.4062   33.2679 N   0  0  0  0  0  0  0  0  0  0  0  0
   13.7076   42.3655   34.1130 C   0  0  0  0  0  0  0  0  0  0  0  0
   12.5810   41.5631   33.4654 C   0  0  0  0  0  0  0  0  0  0  0  0
   11.3325   42.4294   33.2905 C   0  0  0  0  0  0  0  0  0  0  0  0
   11.5677   43.4532   32.2866 N   0  0  0  0  0  0  0  0  0  0  0  0
  1  2  1  0  0  0  0
  2  3  1  0  0  0  0
  3  4  1  0  0  0  0
  4  5  1  0  0  0  0
  5  6  1  0  0  0  0
  6  7  1  0  0  0  0
  7  8  1  0  0  0  0
  8  9  1  0  0  0  0
  9 10  1  0  0  0  0
 10 11  1  0  0  0  0
 11 12  1  0  0  0  0
 12 13  1  0  0  0  0
 13 14  1  0  0  0  0
M  END
>  <CHROM.1>
179.86970742,65.49966900,101.36835640,177.43524799,175.66951828,77.37116287
179.68773114,-179.34050252,-133.14950247,-69.40262344,68.70757619,16.81974213
43.50429033,31.56875602,0.45996312,-0.14946033,-1.55052069

>  <Name>
ligand

>  <RI>
0

>  <Rbt.Current_Directory>
/home/itssahil/PROJECTS/Mol_Feturizer/New_Systems/rnas/4P5J

>  <Rbt.Executable>
rbdock ($Id: //depot/dev/client3/rdock/2013.1/src/exe/rbdock.cxx#4 $)

>  <Rbt.Library>
libRbt.so (2013.1, Build901 2013/11/27)

>  <Rbt.Parameter_File>
/export/apps/rDock/src/rDock_2013.1_src/data/scripts/dock_solv.prm

>  <Rbt.Receptor>
prm/blind_docking_60.prm

>  <SCORE>
-10.4071

>  <SCORE.INTER>
-3.69623

>  <SCORE.INTER.CONST>
1

>  <SCORE.INTER.POLAR>
0

>  <SCORE.INTER.ROT>
11

>  <SCORE.INTER.SOLV>
12.1668

>  <SCORE.INTER.VDW>
-17.4531

>  <SCORE.INTER.norm>
-0.264017

>  <SCORE.INTRA>
-6.71088

>  <SCORE.INTRA.DIHEDRAL>
-13.5425

>  <SCORE.INTRA.DIHEDRAL.0>
17.5233

>  <SCORE.INTRA.POLAR>
0

>  <SCORE.INTRA.POLAR.0>
0

>  <SCORE.INTRA.REPUL>
0

>  <SCORE.INTRA.REPUL.0>
0

>  <SCORE.INTRA.SOLV>
0.596816

>  <SCORE.INTRA.SOLV.lig_0>
-46.1043

>  <SCORE.INTRA.VDW>
-0.238044

>  <SCORE.INTRA.VDW.0>
-0.545445

>  <SCORE.INTRA.norm>
-0.479349

>  <SCORE.RESTR>
0

>  <SCORE.RESTR.CAVITY>
0

>  <SCORE.RESTR.norm>
0

>  <SCORE.SYSTEM>
0

>  <SCORE.SYSTEM.CONST>
0

>  <SCORE.SYSTEM.DIHEDRAL>
0

>  <SCORE.SYSTEM.SOLV>
0

>  <SCORE.SYSTEM.norm>
0

>  <SCORE.heavy>
14

>  <SCORE.norm>
-0.743365

>  <RMSD>
16.913

$$$$
ligand
 OpenBabel11021811513D
libRbt.so/2013.1/901 2013/11/27
 14 13  0  0  0  0  0  0  0  0999 V2000
   10.9760   41.0533   32.7974 N   0  0  0  0  0  0  0  0  0  0  0  0
   12.1488   41.9120   32.7638 C   0  0  0  0  0  0  0  0  0  0  0  0
   12.9333   41.7895   34.0658 C   0  0  0  0  0  0  0  0  0  0  0  0
   14.1423   42.7182   34.0691 C   0  0  0  0  0  0  0  0  0  0  0  0
   13.7743   44.1297   34.0096 N   0  0  0  0  0  0  0  0  0  0  0  0
   13.7945   44.8479   32.7464 C   0  0  0  0  0  0  0  0  0  0  0  0
   15.1480   45.4839   32.4492 C   0  0  0  0  0  0  0  0  0  0  0  0
   16.2008   44.4000   32.2466 C   0  0  0  0  0  0  0  0  0  0  0  0
   17.5554   45.0416   31.9662 C   0  0  0  0  0  0  0  0  0  0  0  0
   18.6048   44.0510   31.7997 N   0  0  0  0  0  0  0  0  0  0  0  0
   19.9933   44.4851   31.7210 C   0  0  0  0  0  0  0  0  0  0  0  0
   21.0152   43.3510   31.6758 C   0  0  0  0  0  0  0  0  0  0  0  0
   20.7908   42.4706   30.4452 C   0  0  0  0  0  0  0  0  0  0  0  0
   21.7575   41.3862   30.4200 N   0  0  0  0  0  0  0  0  0  0  0  0
  1  2  1  0  0  0  0
  2  3  1  0  0  0  0
  3  4  1  0  0  0  0
  4  5  1  0  0  0  0
  5  6  1  0  0  0  0
  6  7  1  0  0  0  0
  7  8  1  0  0  0  0
  8  9  1  0  0  0  0
  9 10  1  0  0  0  0
 10 11  1  0  0  0  0
 11 12  1  0  0  0  0
 12 13  1  0  0  0  0
 13 14  1  0  0  0  0
M  END
>  <CHROM.1>
-178.08730229,63.55961058,-98.12046488,-89.25533456,65.50366865,-179.33223629
178.48447745,-171.04507591,174.63191939,60.73907686,-179.32785482,16.34538310
43.36600640,32.36973369,-3.11675955,0.27526934,0.13385162

>  <Name>
ligand

>  <RI>
0

>  <Rbt.Current_Directory>
/home/itssahil/PROJECTS/Mol_Feturizer/New_Systems/rnas/4P5J

>  <Rbt.Executable>
rbdock ($Id: //depot/dev/client3/rdock/2013.1/src/exe/rbdock.cxx#4 $)

>  <Rbt.Library>
libRbt.so (2013.1, Build901 2013/11/27)

>  <Rbt.Parameter_File>
/export/apps/rDock/src/rDock_2013.1_src/data/scripts/dock_solv.prm

>  <Rbt.Receptor>
prm/blind_docking_100.prm

>  <SCORE>
-10.8849

>  <SCORE.INTER>
-1.9488

>  <SCORE.INTER.CONST>
1

>  <SCORE.INTER.POLAR>
0

>  <SCORE.INTER.ROT>
11

>  <SCORE.INTER.SOLV>
11.0061

>  <SCORE.INTER.VDW>
-15.9012

>  <SCORE.INTER.norm>
-0.1392

>  <SCORE.INTRA>
-8.93605

>  <SCORE.INTRA.DIHEDRAL>
-15.8211

>  <SCORE.INTRA.DIHEDRAL.0>
17.5233

>  <SCORE.INTRA.POLAR>
0

>  <SCORE.INTRA.POLAR.0>
0

>  <SCORE.INTRA.REPUL>
0

>  <SCORE.INTRA.REPUL.0>
0

>  <SCORE.INTRA.SOLV>
-1.56874

>  <SCORE.INTRA.SOLV.lig_0>
-46.1043

>  <SCORE.INTRA.VDW>
-0.241124

>  <SCORE.INTRA.VDW.0>
-0.545445

>  <SCORE.INTRA.norm>
-0.638289

>  <SCORE.RESTR>
0

>  <SCORE.RESTR.CAVITY>
0

>  <SCORE.RESTR.norm>
0

>  <SCORE.SYSTEM>
0

>  <SCORE.SYSTEM.CONST>
0

>  <SCORE.SYSTEM.DIHEDRAL>
0

>  <SCORE.SYSTEM.SOLV>
0

>  <SCORE.SYSTEM.norm>
0

>  <SCORE.heavy>
14

>  <SCORE.norm>
-0.77749

>  <RMSD>
16.926

$$$$
ligand
 OpenBabel11021811513D
libRbt.so/2013.1/901 2013/11/27
 14 13  0  0  0  0  0  0  0  0999 V2000
   10.9546   43.1703   33.4913 N   0  0  0  0  0  0  0  0  0  0  0  0
   11.7061   42.2590   32.6434 C   0  0  0  0  0  0  0  0  0  0  0  0
   12.7630   41.5239   33.4609 C   0  0  0  0  0  0  0  0  0  0  0  0
   13.7865   42.4955   34.0376 C   0  0  0  0  0  0  0  0  0  0  0  0
   14.4240   43.3212   33.0164 N   0  0  0  0  0  0  0  0  0  0  0  0
   15.8680   43.4827   32.9894 C   0  0  0  0  0  0  0  0  0  0  0  0
   16.3285   44.5173   31.9685 C   0  0  0  0  0  0  0  0  0  0  0  0
   17.8517   44.5741   31.9337 C   0  0  0  0  0  0  0  0  0  0  0  0
   18.3963   43.3688   31.1749 C   0  0  0  0  0  0  0  0  0  0  0  0
   19.8427   43.4123   31.0468 N   0  0  0  0  0  0  0  0  0  0  0  0
   20.4988   42.5754   30.0509 C   0  0  0  0  0  0  0  0  0  0  0  0
   20.6919   43.2372   28.6881 C   0  0  0  0  0  0  0  0  0  0  0  0
   21.6096   44.4554   28.8045 C   0  0  0  0  0  0  0  0  0  0  0  0
   21.9166   44.9813   27.4853 N   0  0  0  0  0  0  0  0  0  0  0  0
  1  2  1  0  0  0  0
  2  3  1  0  0  0  0
  3  4  1  0  0  0  0
  4  5  1  0  0  0  0
  5  6  1  0  0  0  0
  6  7  1  0  0  0  0
  7  8  1  0  0  0  0
  8  9  1  0  0  0  0
  9 10  1  0  0  0  0
 10 11  1  0  0  0  0
 11 12  1  0  0  0  0
 12 13  1  0  0  0  0
 13 14  1  0  0  0  0
M  END
>  <CHROM.1>
-62.88314041,-55.60409977,-132.21972387,-172.60485021,-176.57274792,76.17364626
176.77497446,-162.64762918,90.87977499,62.92084496,173.16507418,16.90279738
43.38374590,31.48520424,2.65316929,0.06235820,1.75491721

>  <Name>
ligand

>  <RI>
0

>  <Rbt.Current_Directory>
/home/itssahil/PROJECTS/Mol_Feturizer/New_Systems/rnas/4P5J

>  <Rbt.Executable>
rbdock ($Id: //depot/dev/client3/rdock/2013.1/src/exe/rbdock.cxx#4 $)

>  <Rbt.Library>
libRbt.so (2013.1, Build901 2013/11/27)

>  <Rbt.Parameter_File>
/export/apps/rDock/src/rDock_2013.1_src/data/scripts/dock_solv.prm

>  <Rbt.Receptor>
prm/blind_docking_60.prm

>  <SCORE>
-11.5794

>  <SCORE.INTER>
-4.48095

>  <SCORE.INTER.CONST>
1

>  <SCORE.INTER.POLAR>
0

>  <SCORE.INTER.ROT>
11

>  <SCORE.INTER.SOLV>
11.5522

>  <SCORE.INTER.VDW>
-17.7714

>  <SCORE.INTER.norm>
-0.320068

>  <SCORE.INTRA>
-7.09844

>  <SCORE.INTRA.DIHEDRAL>
-14.1108

>  <SCORE.INTRA.DIHEDRAL.0>
17.5233

>  <SCORE.INTRA.POLAR>
0

>  <SCORE.INTRA.POLAR.0>
0

>  <SCORE.INTRA.REPUL>
0

>  <SCORE.INTRA.REPUL.0>
0

>  <SCORE.INTRA.SOLV>
-0.252172

>  <SCORE.INTRA.SOLV.lig_0>
-46.1043

>  <SCORE.INTRA.VDW>
0.0830362

>  <SCORE.INTRA.VDW.0>
-0.545445

>  <SCORE.INTRA.norm>
-0.507032

>  <SCORE.RESTR>
0

>  <SCORE.RESTR.CAVITY>
0

>  <SCORE.RESTR.norm>
0

>  <SCORE.SYSTEM>
0

>  <SCORE.SYSTEM.CONST>
0

>  <SCORE.SYSTEM.DIHEDRAL>
0

>  <SCORE.SYSTEM.SOLV>
0

>  <SCORE.SYSTEM.norm>
0

>  <SCORE.heavy>
14

>  <SCORE.norm>
-0.827099

>  <RMSD>
16.929

$$$$
ligand
 OpenBabel11021811513D
libRbt.so/2013.1/901 2013/11/27
 14 13  0  0  0  0  0  0  0  0999 V2000
   21.4548   43.6678   29.5626 N   0  0  0  0  0  0  0  0  0  0  0  0
   22.1373   44.4142   30.6071 C   0  0  0  0  0  0  0  0  0  0  0  0
   21.7943   43.8418   31.9784 C   0  0  0  0  0  0  0  0  0  0  0  0
   20.3281   44.0790   32.3224 C   0  0  0  0  0  0  0  0  0  0  0  0
   19.4155   43.3192   31.4732 N   0  0  0  0  0  0  0  0  0  0  0  0
   18.0553   43.7792   31.2499 C   0  0  0  0  0  0  0  0  0  0  0  0
   17.1436   43.5336   32.4471 C   0  0  0  0  0  0  0  0  0  0  0  0
   15.7704   44.1447   32.1916 C   0  0  0  0  0  0  0  0  0  0  0  0
   14.8645   43.9002   33.3935 C   0  0  0  0  0  0  0  0  0  0  0  0
   14.5250   42.4958   33.5447 N   0  0  0  0  0  0  0  0  0  0  0  0
   13.3296   42.1243   34.2900 C   0  0  0  0  0  0  0  0  0  0  0  0
   12.0450   42.0980   33.4645 C   0  0  0  0  0  0  0  0  0  0  0  0
   12.1313   41.0381   32.3650 C   0  0  0  0  0  0  0  0  0  0  0  0
   10.9770   41.1294   31.4871 N   0  0  0  0  0  0  0  0  0  0  0  0
  1  2  1  0  0  0  0
  2  3  1  0  0  0  0
  3  4  1  0  0  0  0
  4  5  1  0  0  0  0
  5  6  1  0  0  0  0
  6  7  1  0  0  0  0
  7  8  1  0  0  0  0
  8  9  1  0  0  0  0
  9 10  1  0  0  0  0
 10 11  1  0  0  0  0
 11 12  1  0  0  0  0
 12 13  1  0  0  0  0
 13 14  1  0  0  0  0
M  END
>  <CHROM.1>
-67.47589176,67.59423593,-154.68704447,-75.62247034,175.17317360,-179.81233458
-68.34020879,-157.74236448,86.48654562,63.07570725,-173.13539384,16.71232458
43.11199888,32.17006635,0.10959447,-0.28992561,-1.92697847

>  <Name>
ligand

>  <RI>
0

>  <Rbt.Current_Directory>
/home/itssahil/PROJECTS/Mol_Feturizer/New_Systems/rnas/4P5J

>  <Rbt.Executable>
rbdock ($Id: //depot/dev/client3/rdock/2013.1/src/exe/rbdock.cxx#4 $)

>  <Rbt.Library>
libRbt.so (2013.1, Build901 2013/11/27)

>  <Rbt.Parameter_File>
/export/apps/rDock/src/rDock_2013.1_src/data/scripts/dock_solv.prm

>  <Rbt.Receptor>
prm/blind_docking_60.prm

>  <SCORE>
-11.6179

>  <SCORE.INTER>
-4.35413

>  <SCORE.INTER.CONST>
1

>  <SCORE.INTER.POLAR>
0

>  <SCORE.INTER.ROT>
11

>  <SCORE.INTER.SOLV>
11.3335

>  <SCORE.INTER.VDW>
-17.6139

>  <SCORE.INTER.norm>
-0.311009

>  <SCORE.INTRA>
-7.2638

>  <SCORE.INTRA.DIHEDRAL>
-15.0426

>  <SCORE.INTRA.DIHEDRAL.0>
17.5233

>  <SCORE.INTRA.POLAR>
0

>  <SCORE.INTRA.POLAR.0>
0

>  <SCORE.INTRA.REPUL>
0

>  <SCORE.INTRA.REPUL.0>
0

>  <SCORE.INTRA.SOLV>
1.23888

>  <SCORE.INTRA.SOLV.lig_0>
-46.1043

>  <SCORE.INTRA.VDW>
-0.36192

>  <SCORE.INTRA.VDW.0>
-0.545445

>  <SCORE.INTRA.norm>
-0.518843

>  <SCORE.RESTR>
0

>  <SCORE.RESTR.CAVITY>
0

>  <SCORE.RESTR.norm>
0

>  <SCORE.SYSTEM>
0

>  <SCORE.SYSTEM.CONST>
0

>  <SCORE.SYSTEM.DIHEDRAL>
0

>  <SCORE.SYSTEM.SOLV>
0

>  <SCORE.SYSTEM.norm>
0

>  <SCORE.heavy>
14

>  <SCORE.norm>
-0.829852

>  <RMSD>
16.941

$$$$
ligand
 OpenBabel11021811513D
libRbt.so/2013.1/901 2013/11/27
 14 13  0  0  0  0  0  0  0  0999 V2000
   11.5545   43.8745   32.5729 N   0  0  0  0  0  0  0  0  0  0  0  0
   11.1873   42.7636   33.4361 C   0  0  0  0  0  0  0  0  0  0  0  0
   12.1452   41.5946   33.2322 C   0  0  0  0  0  0  0  0  0  0  0  0
   13.5496   41.9440   33.7116 C   0  0  0  0  0  0  0  0  0  0  0  0
   14.2218   42.9080   32.8456 N   0  0  0  0  0  0  0  0  0  0  0  0
   15.5647   43.3703   33.1538 C   0  0  0  0  0  0  0  0  0  0  0  0
   16.1261   44.3078   32.0904 C   0  0  0  0  0  0  0  0  0  0  0  0
   17.5268   44.7638   32.4837 C   0  0  0  0  0  0  0  0  0  0  0  0
   18.5350   43.6634   32.1709 C   0  0  0  0  0  0  0  0  0  0  0  0
   18.8479   43.5963   30.7539 N   0  0  0  0  0  0  0  0  0  0  0  0
   19.9849   42.8016   30.3085 C   0  0  0  0  0  0  0  0  0  0  0  0
   20.5802   43.2331   28.9700 C   0  0  0  0  0  0  0  0  0  0  0  0
   21.3896   44.5212   29.1291 C   0  0  0  0  0  0  0  0  0  0  0  0
   22.0079   44.8857   27.8657 N   0  0  0  0  0  0  0  0  0  0  0  0
  1  2  1  0  0  0  0
  2  3  1  0  0  0  0
  3  4  1  0  0  0  0
  4  5  1  0  0  0  0
  5  6  1  0  0  0  0
  6  7  1  0  0  0  0
  7  8  1  0  0  0  0
  8  9  1  0  0  0  0
  9 10  1  0  0  0  0
 10 11  1  0  0  0  0
 11 12  1  0  0  0  0
 12 13  1  0  0  0  0
 13 14  1  0  0  0  0
M  END
>  <CHROM.1>
66.65213163,-71.11906565,179.34704369,176.57706001,179.41839312,78.70752119
77.08592403,167.39970336,-155.58259572,74.59455458,177.08475278,16.65869307
43.44469483,31.62342344,2.72669599,-0.20273879,2.32699294

>  <Name>
ligand

>  <RI>
0

>  <Rbt.Current_Directory>
/home/itssahil/PROJECTS/Mol_Feturizer/New_Systems/rnas/4P5J

>  <Rbt.Executable>
rbdock ($Id: //depot/dev/client3/rdock/2013.1/src/exe/rbdock.cxx#4 $)

>  <Rbt.Library>
libRbt.so (2013.1, Build901 2013/11/27)

>  <Rbt.Parameter_File>
/export/apps/rDock/src/rDock_2013.1_src/data/scripts/dock_solv.prm

>  <Rbt.Receptor>
prm/blind_docking_60.prm

>  <SCORE>
-9.47916

>  <SCORE.INTER>
-3.03466

>  <SCORE.INTER.CONST>
1

>  <SCORE.INTER.POLAR>
0

>  <SCORE.INTER.ROT>
11

>  <SCORE.INTER.SOLV>
13.0274

>  <SCORE.INTER.VDW>
-17.2989

>  <SCORE.INTER.norm>
-0.216761

>  <SCORE.INTRA>
-6.4445

>  <SCORE.INTRA.DIHEDRAL>
-13.1521

>  <SCORE.INTRA.DIHEDRAL.0>
17.5233

>  <SCORE.INTRA.POLAR>
0

>  <SCORE.INTRA.POLAR.0>
0

>  <SCORE.INTRA.REPUL>
0

>  <SCORE.INTRA.REPUL.0>
0

>  <SCORE.INTRA.SOLV>
1.08972

>  <SCORE.INTRA.SOLV.lig_0>
-46.1043

>  <SCORE.INTRA.VDW>
-0.41332

>  <SCORE.INTRA.VDW.0>
-0.545445

>  <SCORE.INTRA.norm>
-0.460321

>  <SCORE.RESTR>
0

>  <SCORE.RESTR.CAVITY>
0

>  <SCORE.RESTR.norm>
0

>  <SCORE.SYSTEM>
0

>  <SCORE.SYSTEM.CONST>
0

>  <SCORE.SYSTEM.DIHEDRAL>
0

>  <SCORE.SYSTEM.SOLV>
0

>  <SCORE.SYSTEM.norm>
0

>  <SCORE.heavy>
14

>  <SCORE.norm>
-0.677083

>  <RMSD>
17.022

$$$$
ligand
 OpenBabel11021811513D
libRbt.so/2013.1/901 2013/11/27
 14 13  0  0  0  0  0  0  0  0999 V2000
   22.0606   43.5497   29.3806 N   0  0  0  0  0  0  0  0  0  0  0  0
   21.9647   42.9483   30.7009 C   0  0  0  0  0  0  0  0  0  0  0  0
   21.6422   44.0114   31.7457 C   0  0  0  0  0  0  0  0  0  0  0  0
   20.2616   44.6136   31.5098 C   0  0  0  0  0  0  0  0  0  0  0  0
   19.1818   43.6490   31.6964 N   0  0  0  0  0  0  0  0  0  0  0  0
   17.8057   44.0113   31.4016 C   0  0  0  0  0  0  0  0  0  0  0  0
   16.8534   43.7024   32.5516 C   0  0  0  0  0  0  0  0  0  0  0  0
   15.4541   44.2097   32.2210 C   0  0  0  0  0  0  0  0  0  0  0  0
   14.5113   43.9189   33.3836 C   0  0  0  0  0  0  0  0  0  0  0  0
   14.3121   42.4936   33.5817 N   0  0  0  0  0  0  0  0  0  0  0  0
   13.1886   42.0327   34.3865 C   0  0  0  0  0  0  0  0  0  0  0  0
   11.8255   42.1539   33.7086 C   0  0  0  0  0  0  0  0  0  0  0  0
   11.7717   41.2922   32.4459 C   0  0  0  0  0  0  0  0  0  0  0  0
   10.4829   41.4395   31.7913 N   0  0  0  0  0  0  0  0  0  0  0  0
  1  2  1  0  0  0  0
  2  3  1  0  0  0  0
  3  4  1  0  0  0  0
  4  5  1  0  0  0  0
  5  6  1  0  0  0  0
  6  7  1  0  0  0  0
  7  8  1  0  0  0  0
  8  9  1  0  0  0  0
  9 10  1  0  0  0  0
 10 11  1  0  0  0  0
 11 12  1  0  0  0  0
 12 13  1  0  0  0  0
 13 14  1  0  0  0  0
M  END
>  <CHROM.1>
64.99167125,65.45115994,-174.62486435,-128.57970333,175.39023409,-179.06793410
-65.79423128,-163.45895225,73.74335311,62.05604101,-178.63235257,16.52258910
43.14487395,32.17918882,0.10592299,-0.28171489,-2.10687406

>  <Name>
ligand

>  <RI>
0

>  <Rbt.Current_Directory>
/home/itssahil/PROJECTS/Mol_Feturizer/New_Systems/rnas/4P5J

>  <Rbt.Executable>
rbdock ($Id: //depot/dev/client3/rdock/2013.1/src/exe/rbdock.cxx#4 $)

>  <Rbt.Library>
libRbt.so (2013.1, Build901 2013/11/27)

>  <Rbt.Parameter_File>
/export/apps/rDock/src/rDock_2013.1_src/data/scripts/dock_solv.prm

>  <Rbt.Receptor>
prm/blind_docking_80.prm

>  <SCORE>
-11.4885

>  <SCORE.INTER>
-3.25258

>  <SCORE.INTER.CONST>
1

>  <SCORE.INTER.POLAR>
0

>  <SCORE.INTER.ROT>
11

>  <SCORE.INTER.SOLV>
9.80701

>  <SCORE.INTER.VDW>
-16.3707

>  <SCORE.INTER.norm>
-0.232327

>  <SCORE.INTRA>
-8.23596

>  <SCORE.INTRA.DIHEDRAL>
-15.561

>  <SCORE.INTRA.DIHEDRAL.0>
17.5233

>  <SCORE.INTRA.POLAR>
0

>  <SCORE.INTRA.POLAR.0>
0

>  <SCORE.INTRA.REPUL>
0

>  <SCORE.INTRA.REPUL.0>
0

>  <SCORE.INTRA.SOLV>
-0.268117

>  <SCORE.INTRA.SOLV.lig_0>
-46.1043

>  <SCORE.INTRA.VDW>
-0.321404

>  <SCORE.INTRA.VDW.0>
-0.545445

>  <SCORE.INTRA.norm>
-0.588283

>  <SCORE.RESTR>
0

>  <SCORE.RESTR.CAVITY>
0

>  <SCORE.RESTR.norm>
0

>  <SCORE.SYSTEM>
0

>  <SCORE.SYSTEM.CONST>
0

>  <SCORE.SYSTEM.DIHEDRAL>
0

>  <SCORE.SYSTEM.SOLV>
0

>  <SCORE.SYSTEM.norm>
0

>  <SCORE.heavy>
14

>  <SCORE.norm>
-0.82061

>  <RMSD>
17.049

$$$$
ligand
 OpenBabel11021811513D
libRbt.so/2013.1/901 2013/11/27
 14 13  0  0  0  0  0  0  0  0999 V2000
   22.4072   41.4013   29.7976 N   0  0  0  0  0  0  0  0  0  0  0  0
   21.2965   42.0778   30.4476 C   0  0  0  0  0  0  0  0  0  0  0  0
   20.3651   41.0615   31.1000 C   0  0  0  0  0  0  0  0  0  0  0  0
   19.2084   41.7533   31.8125 C   0  0  0  0  0  0  0  0  0  0  0  0
   18.3932   42.5662   30.9148 N   0  0  0  0  0  0  0  0  0  0  0  0
   17.8118   43.8174   31.3712 C   0  0  0  0  0  0  0  0  0  0  0  0
   16.7186   43.6158   32.4148 C   0  0  0  0  0  0  0  0  0  0  0  0
   16.1052   44.9590   32.7943 C   0  0  0  0  0  0  0  0  0  0  0  0
   15.0464   44.7571   33.8728 C   0  0  0  0  0  0  0  0  0  0  0  0
   13.9759   43.8806   33.4298 N   0  0  0  0  0  0  0  0  0  0  0  0
   13.6721   42.6784   34.1946 C   0  0  0  0  0  0  0  0  0  0  0  0
   12.7853   41.6679   33.4700 C   0  0  0  0  0  0  0  0  0  0  0  0
   11.3969   42.2556   33.2113 C   0  0  0  0  0  0  0  0  0  0  0  0
   10.5801   41.3086   32.4716 N   0  0  0  0  0  0  0  0  0  0  0  0
  1  2  1  0  0  0  0
  2  3  1  0  0  0  0
  3  4  1  0  0  0  0
  4  5  1  0  0  0  0
  5  6  1  0  0  0  0
  6  7  1  0  0  0  0
  7  8  1  0  0  0  0
  8  9  1  0  0  0  0
  9 10  1  0  0  0  0
 10 11  1  0  0  0  0
 11 12  1  0  0  0  0
 12 13  1  0  0  0  0
 13 14  1  0  0  0  0
M  END
>  <CHROM.1>
178.81388005,59.70296771,-144.19085720,-68.40034942,-177.08124708,-178.05447283
-59.82259406,123.09731835,-165.59729996,-64.63871991,177.56718931,16.41165169
42.70020513,32.23616642,0.18236849,-0.26384103,-2.76845766

>  <Name>
ligand

>  <RI>
0

>  <Rbt.Current_Directory>
/home/itssahil/PROJECTS/Mol_Feturizer/New_Systems/rnas/4P5J

>  <Rbt.Executable>
rbdock ($Id: //depot/dev/client3/rdock/2013.1/src/exe/rbdock.cxx#4 $)

>  <Rbt.Library>
libRbt.so (2013.1, Build901 2013/11/27)

>  <Rbt.Parameter_File>
/export/apps/rDock/src/rDock_2013.1_src/data/scripts/dock_solv.prm

>  <Rbt.Receptor>
prm/blind_docking_80.prm

>  <SCORE>
-13.1813

>  <SCORE.INTER>
-4.56552

>  <SCORE.INTER.CONST>
1

>  <SCORE.INTER.POLAR>
0

>  <SCORE.INTER.ROT>
11

>  <SCORE.INTER.SOLV>
9.97244

>  <SCORE.INTER.VDW>
-17.3012

>  <SCORE.INTER.norm>
-0.326109

>  <SCORE.INTRA>
-8.61576

>  <SCORE.INTRA.DIHEDRAL>
-15.1745

>  <SCORE.INTRA.DIHEDRAL.0>
17.5233

>  <SCORE.INTRA.POLAR>
0

>  <SCORE.INTRA.POLAR.0>
0

>  <SCORE.INTRA.REPUL>
0

>  <SCORE.INTRA.REPUL.0>
0

>  <SCORE.INTRA.SOLV>
-1.56032

>  <SCORE.INTRA.SOLV.lig_0>
-46.1043

>  <SCORE.INTRA.VDW>
-0.248355

>  <SCORE.INTRA.VDW.0>
-0.545445

>  <SCORE.INTRA.norm>
-0.615412

>  <SCORE.RESTR>
0

>  <SCORE.RESTR.CAVITY>
0

>  <SCORE.RESTR.norm>
0

>  <SCORE.SYSTEM>
0

>  <SCORE.SYSTEM.CONST>
0

>  <SCORE.SYSTEM.DIHEDRAL>
0

>  <SCORE.SYSTEM.SOLV>
0

>  <SCORE.SYSTEM.norm>
0

>  <SCORE.heavy>
14

>  <SCORE.norm>
-0.94152

>  <RMSD>
17.063

$$$$
ligand
 OpenBabel11021811513D
libRbt.so/2013.1/901 2013/11/27
 14 13  0  0  0  0  0  0  0  0999 V2000
   11.2660   41.5491   31.5819 N   0  0  0  0  0  0  0  0  0  0  0  0
   12.1826   41.1928   32.6529 C   0  0  0  0  0  0  0  0  0  0  0  0
   11.9479   42.0820   33.8694 C   0  0  0  0  0  0  0  0  0  0  0  0
   12.4494   43.4998   33.6195 C   0  0  0  0  0  0  0  0  0  0  0  0
   13.9058   43.5864   33.5691 N   0  0  0  0  0  0  0  0  0  0  0  0
   14.5693   44.8776   33.5032 C   0  0  0  0  0  0  0  0  0  0  0  0
   16.0572   44.7629   33.1904 C   0  0  0  0  0  0  0  0  0  0  0  0
   16.2552   44.1037   31.8301 C   0  0  0  0  0  0  0  0  0  0  0  0
   17.7418   43.8764   31.5778 C   0  0  0  0  0  0  0  0  0  0  0  0
   18.3285   42.9711   32.5508 N   0  0  0  0  0  0  0  0  0  0  0  0
   19.6312   42.3768   32.2814 C   0  0  0  0  0  0  0  0  0  0  0  0
   19.5828   41.0382   31.5478 C   0  0  0  0  0  0  0  0  0  0  0  0
   20.9952   40.5001   31.3124 C   0  0  0  0  0  0  0  0  0  0  0  0
   21.7397   41.4024   30.4505 N   0  0  0  0  0  0  0  0  0  0  0  0
  1  2  1  0  0  0  0
  2  3  1  0  0  0  0
  3  4  1  0  0  0  0
  4  5  1  0  0  0  0
  5  6  1  0  0  0  0
  6  7  1  0  0  0  0
  7  8  1  0  0  0  0
  8  9  1  0  0  0  0
  9 10  1  0  0  0  0
 10 11  1  0  0  0  0
 11 12  1  0  0  0  0
 12 13  1  0  0  0  0
 13 14  1  0  0  0  0
M  END
>  <CHROM.1>
-72.23310576,-70.49816026,-172.43621218,-169.00860666,61.19458952,-174.89350496
62.46947364,164.67717100,-90.45501573,179.95078555,-63.06155044,16.18943153
42.70150995,32.39564808,2.95569241,0.15922833,0.33039383

>  <Name>
ligand

>  <RI>
0

>  <Rbt.Current_Directory>
/home/itssahil/PROJECTS/Mol_Feturizer/New_Systems/rnas/4P5J

>  <Rbt.Executable>
rbdock ($Id: //depot/dev/client3/rdock/2013.1/src/exe/rbdock.cxx#4 $)

>  <Rbt.Library>
libRbt.so (2013.1, Build901 2013/11/27)

>  <Rbt.Parameter_File>
/export/apps/rDock/src/rDock_2013.1_src/data/scripts/dock_solv.prm

>  <Rbt.Receptor>
prm/blind_docking_60.prm

>  <SCORE>
-10.7262

>  <SCORE.INTER>
-2.87321

>  <SCORE.INTER.CONST>
1

>  <SCORE.INTER.POLAR>
0

>  <SCORE.INTER.ROT>
11

>  <SCORE.INTER.SOLV>
11.8021

>  <SCORE.INTER.VDW>
-16.7828

>  <SCORE.INTER.norm>
-0.205229

>  <SCORE.INTRA>
-7.85298

>  <SCORE.INTRA.DIHEDRAL>
-15.4567

>  <SCORE.INTRA.DIHEDRAL.0>
17.5233

>  <SCORE.INTRA.POLAR>
0

>  <SCORE.INTRA.POLAR.0>
0

>  <SCORE.INTRA.REPUL>
0

>  <SCORE.INTRA.REPUL.0>
0

>  <SCORE.INTRA.SOLV>
0.371119

>  <SCORE.INTRA.SOLV.lig_0>
-46.1043

>  <SCORE.INTRA.VDW>
-0.310186

>  <SCORE.INTRA.VDW.0>
-0.545445

>  <SCORE.INTRA.norm>
-0.560927

>  <SCORE.RESTR>
0

>  <SCORE.RESTR.CAVITY>
0

>  <SCORE.RESTR.norm>
0

>  <SCORE.SYSTEM>
0

>  <SCORE.SYSTEM.CONST>
0

>  <SCORE.SYSTEM.DIHEDRAL>
0

>  <SCORE.SYSTEM.SOLV>
0

>  <SCORE.SYSTEM.norm>
0

>  <SCORE.heavy>
14

>  <SCORE.norm>
-0.766157

>  <RMSD>
17.158

$$$$
ligand
 OpenBabel11021811513D
libRbt.so/2013.1/901 2013/11/27
 14 13  0  0  0  0  0  0  0  0999 V2000
   22.2964   44.7011   28.3714 N   0  0  0  0  0  0  0  0  0  0  0  0
   22.5930   45.1434   29.7243 C   0  0  0  0  0  0  0  0  0  0  0  0
   21.7384   44.3804   30.7310 C   0  0  0  0  0  0  0  0  0  0  0  0
   20.2624   44.7293   30.5759 C   0  0  0  0  0  0  0  0  0  0  0  0
   19.4038   43.9863   31.4935 N   0  0  0  0  0  0  0  0  0  0  0  0
   18.0008   44.3348   31.6415 C   0  0  0  0  0  0  0  0  0  0  0  0
   17.2514   43.3888   32.5733 C   0  0  0  0  0  0  0  0  0  0  0  0
   15.7901   43.8103   32.6800 C   0  0  0  0  0  0  0  0  0  0  0  0
   15.0350   42.8340   33.5754 C   0  0  0  0  0  0  0  0  0  0  0  0
   13.6226   43.1606   33.6702 N   0  0  0  0  0  0  0  0  0  0  0  0
   12.7041   42.1999   34.2668 C   0  0  0  0  0  0  0  0  0  0  0  0
   11.5358   41.7927   33.3714 C   0  0  0  0  0  0  0  0  0  0  0  0
   12.0367   41.0298   32.1438 C   0  0  0  0  0  0  0  0  0  0  0  0
   10.9259   40.7086   31.2639 N   0  0  0  0  0  0  0  0  0  0  0  0
  1  2  1  0  0  0  0
  2  3  1  0  0  0  0
  3  4  1  0  0  0  0
  4  5  1  0  0  0  0
  5  6  1  0  0  0  0
  6  7  1  0  0  0  0
  7  8  1  0  0  0  0
  8  9  1  0  0  0  0
  9 10  1  0  0  0  0
 10 11  1  0  0  0  0
 11 12  1  0  0  0  0
 12 13  1  0  0  0  0
 13 14  1  0  0  0  0
M  END
>  <CHROM.1>
-66.55394794,178.12388697,170.17110772,176.20739718,-179.89528379,178.11007525
-177.78541761,168.25899247,-123.79255122,65.40316413,-177.01054798,16.65693144
43.30006725,31.86330657,0.17820789,-0.38146707,-1.90463273

>  <Name>
ligand

>  <RI>
0

>  <Rbt.Current_Directory>
/home/itssahil/PROJECTS/Mol_Feturizer/New_Systems/rnas/4P5J

>  <Rbt.Executable>
rbdock ($Id: //depot/dev/client3/rdock/2013.1/src/exe/rbdock.cxx#4 $)

>  <Rbt.Library>
libRbt.so (2013.1, Build901 2013/11/27)

>  <Rbt.Parameter_File>
/export/apps/rDock/src/rDock_2013.1_src/data/scripts/dock_solv.prm

>  <Rbt.Receptor>
prm/blind_docking_60.prm

>  <SCORE>
-13.4017

>  <SCORE.INTER>
-4.01631

>  <SCORE.INTER.CONST>
1

>  <SCORE.INTER.POLAR>
0

>  <SCORE.INTER.ROT>
11

>  <SCORE.INTER.SOLV>
12.8489

>  <SCORE.INTER.VDW>
-17.8939

>  <SCORE.INTER.norm>
-0.28688

>  <SCORE.INTRA>
-9.38542

>  <SCORE.INTRA.DIHEDRAL>
-15.7845

>  <SCORE.INTRA.DIHEDRAL.0>
17.5233

>  <SCORE.INTRA.POLAR>
0

>  <SCORE.INTRA.POLAR.0>
0

>  <SCORE.INTRA.REPUL>
0

>  <SCORE.INTRA.REPUL.0>
0

>  <SCORE.INTRA.SOLV>
-1.61915

>  <SCORE.INTRA.SOLV.lig_0>
-46.1043

>  <SCORE.INTRA.VDW>
-0.683605

>  <SCORE.INTRA.VDW.0>
-0.545445

>  <SCORE.INTRA.norm>
-0.670387

>  <SCORE.RESTR>
0

>  <SCORE.RESTR.CAVITY>
0

>  <SCORE.RESTR.norm>
0

>  <SCORE.SYSTEM>
0

>  <SCORE.SYSTEM.CONST>
0

>  <SCORE.SYSTEM.DIHEDRAL>
0

>  <SCORE.SYSTEM.SOLV>
0

>  <SCORE.SYSTEM.norm>
0

>  <SCORE.heavy>
14

>  <SCORE.norm>
-0.957267

>  <RMSD>
17.198

$$$$
ligand
 OpenBabel11021811513D
libRbt.so/2013.1/901 2013/11/27
 14 13  0  0  0  0  0  0  0  0999 V2000
    9.8502   41.3493   31.9791 N   0  0  0  0  0  0  0  0  0  0  0  0
   10.7091   41.4249   33.1497 C   0  0  0  0  0  0  0  0  0  0  0  0
   12.1195   41.8420   32.7465 C   0  0  0  0  0  0  0  0  0  0  0  0
   13.0509   41.8705   33.9532 C   0  0  0  0  0  0  0  0  0  0  0  0
   14.3903   42.3499   33.6255 N   0  0  0  0  0  0  0  0  0  0  0  0
   14.7005   43.7690   33.6694 C   0  0  0  0  0  0  0  0  0  0  0  0
   15.5281   44.2308   32.4750 C   0  0  0  0  0  0  0  0  0  0  0  0
   16.8970   43.5600   32.4978 C   0  0  0  0  0  0  0  0  0  0  0  0
   17.7006   43.9843   31.2733 C   0  0  0  0  0  0  0  0  0  0  0  0
   19.0044   43.3452   31.2275 N   0  0  0  0  0  0  0  0  0  0  0  0
   19.8029   43.4337   30.0122 C   0  0  0  0  0  0  0  0  0  0  0  0
   21.0499   44.3075   30.1299 C   0  0  0  0  0  0  0  0  0  0  0  0
   21.9959   43.7573   31.1986 C   0  0  0  0  0  0  0  0  0  0  0  0
   23.2381   44.5111   31.2064 N   0  0  0  0  0  0  0  0  0  0  0  0
  1  2  1  0  0  0  0
  2  3  1  0  0  0  0
  3  4  1  0  0  0  0
  4  5  1  0  0  0  0
  5  6  1  0  0  0  0
  6  7  1  0  0  0  0
  7  8  1  0  0  0  0
  8  9  1  0  0  0  0
  9 10  1  0  0  0  0
 10 11  1  0  0  0  0
 11 12  1  0  0  0  0
 12 13  1  0  0  0  0
 13 14  1  0  0  0  0
M  END
>  <CHROM.1>
-177.62531776,-176.21792013,88.14294934,-136.53760981,-64.68131036,177.86389198
-178.52007974,168.53024569,110.20101446,60.90791294,174.06554068,16.43116512
43.12406298,32.08175911,2.98662693,0.26943545,1.31639145

>  <Name>
ligand

>  <RI>
0

>  <Rbt.Current_Directory>
/home/itssahil/PROJECTS/Mol_Feturizer/New_Systems/rnas/4P5J

>  <Rbt.Executable>
rbdock ($Id: //depot/dev/client3/rdock/2013.1/src/exe/rbdock.cxx#4 $)

>  <Rbt.Library>
libRbt.so (2013.1, Build901 2013/11/27)

>  <Rbt.Parameter_File>
/export/apps/rDock/src/rDock_2013.1_src/data/scripts/dock_solv.prm

>  <Rbt.Receptor>
prm/blind_docking_80.prm

>  <SCORE>
-11.8929

>  <SCORE.INTER>
-3.1088

>  <SCORE.INTER.CONST>
1

>  <SCORE.INTER.POLAR>
0

>  <SCORE.INTER.ROT>
11

>  <SCORE.INTER.SOLV>
11.9383

>  <SCORE.INTER.VDW>
-16.9853

>  <SCORE.INTER.norm>
-0.222057

>  <SCORE.INTRA>
-8.78407

>  <SCORE.INTRA.DIHEDRAL>
-14.4446

>  <SCORE.INTRA.DIHEDRAL.0>
17.5233

>  <SCORE.INTRA.POLAR>
0

>  <SCORE.INTRA.POLAR.0>
0

>  <SCORE.INTRA.REPUL>
0

>  <SCORE.INTRA.REPUL.0>
0

>  <SCORE.INTRA.SOLV>
-1.9928

>  <SCORE.INTRA.SOLV.lig_0>
-46.1043

>  <SCORE.INTRA.VDW>
-0.565373

>  <SCORE.INTRA.VDW.0>
-0.545445

>  <SCORE.INTRA.norm>
-0.627434

>  <SCORE.RESTR>
0

>  <SCORE.RESTR.CAVITY>
0

>  <SCORE.RESTR.norm>
0

>  <SCORE.SYSTEM>
0

>  <SCORE.SYSTEM.CONST>
0

>  <SCORE.SYSTEM.DIHEDRAL>
0

>  <SCORE.SYSTEM.SOLV>
0

>  <SCORE.SYSTEM.norm>
0

>  <SCORE.heavy>
14

>  <SCORE.norm>
-0.849491

>  <RMSD>
17.200

$$$$
ligand
 OpenBabel11021811513D
libRbt.so/2013.1/901 2013/11/27
 14 13  0  0  0  0  0  0  0  0999 V2000
   10.9636   41.0524   32.5045 N   0  0  0  0  0  0  0  0  0  0  0  0
   11.6748   41.8819   33.4636 C   0  0  0  0  0  0  0  0  0  0  0  0
   13.1808   41.7609   33.2555 C   0  0  0  0  0  0  0  0  0  0  0  0
   13.9428   42.6795   34.2040 C   0  0  0  0  0  0  0  0  0  0  0  0
   13.5738   44.0839   34.0529 N   0  0  0  0  0  0  0  0  0  0  0  0
   13.8142   44.7826   32.8015 C   0  0  0  0  0  0  0  0  0  0  0  0
   15.2816   45.1431   32.5977 C   0  0  0  0  0  0  0  0  0  0  0  0
   16.0614   43.9163   32.1378 C   0  0  0  0  0  0  0  0  0  0  0  0
   17.4931   44.3132   31.7947 C   0  0  0  0  0  0  0  0  0  0  0  0
   18.2605   43.1940   31.2761 N   0  0  0  0  0  0  0  0  0  0  0  0
   18.8147   42.2154   32.2023 C   0  0  0  0  0  0  0  0  0  0  0  0
   19.6211   41.0982   31.5435 C   0  0  0  0  0  0  0  0  0  0  0  0
   20.8439   41.6678   30.8224 C   0  0  0  0  0  0  0  0  0  0  0  0
   21.5867   40.6011   30.1730 N   0  0  0  0  0  0  0  0  0  0  0  0
  1  2  1  0  0  0  0
  2  3  1  0  0  0  0
  3  4  1  0  0  0  0
  4  5  1  0  0  0  0
  5  6  1  0  0  0  0
  6  7  1  0  0  0  0
  7  8  1  0  0  0  0
  8  9  1  0  0  0  0
  9 10  1  0  0  0  0
 10 11  1  0  0  0  0
 11 12  1  0  0  0  0
 12 13  1  0  0  0  0
 13 14  1  0  0  0  0
M  END
>  <CHROM.1>
177.02755661,-58.24456099,-62.85165699,-75.41013162,78.31846422,174.07722259
-176.67194579,-79.61962600,-179.01769307,62.43286838,-178.66505761,16.07950437
42.74235812,32.34511507,2.98005641,0.27397014,0.13339423

>  <Name>
ligand

>  <RI>
0

>  <Rbt.Current_Directory>
/home/itssahil/PROJECTS/Mol_Feturizer/New_Systems/rnas/4P5J

>  <Rbt.Executable>
rbdock ($Id: //depot/dev/client3/rdock/2013.1/src/exe/rbdock.cxx#4 $)

>  <Rbt.Library>
libRbt.so (2013.1, Build901 2013/11/27)

>  <Rbt.Parameter_File>
/export/apps/rDock/src/rDock_2013.1_src/data/scripts/dock_solv.prm

>  <Rbt.Receptor>
prm/blind_docking_60.prm

>  <SCORE>
-11.4977

>  <SCORE.INTER>
-3.24179

>  <SCORE.INTER.CONST>
1

>  <SCORE.INTER.POLAR>
0

>  <SCORE.INTER.ROT>
11

>  <SCORE.INTER.SOLV>
14.5101

>  <SCORE.INTER.VDW>
-17.9312

>  <SCORE.INTER.norm>
-0.231556

>  <SCORE.INTRA>
-8.25591

>  <SCORE.INTRA.DIHEDRAL>
-15.6041

>  <SCORE.INTRA.DIHEDRAL.0>
17.5233

>  <SCORE.INTRA.POLAR>
0

>  <SCORE.INTRA.POLAR.0>
0

>  <SCORE.INTRA.REPUL>
0

>  <SCORE.INTRA.REPUL.0>
0

>  <SCORE.INTRA.SOLV>
-1.62513

>  <SCORE.INTRA.SOLV.lig_0>
-46.1043

>  <SCORE.INTRA.VDW>
0.358711

>  <SCORE.INTRA.VDW.0>
-0.545445

>  <SCORE.INTRA.norm>
-0.589708

>  <SCORE.RESTR>
0

>  <SCORE.RESTR.CAVITY>
0

>  <SCORE.RESTR.norm>
0

>  <SCORE.SYSTEM>
0

>  <SCORE.SYSTEM.CONST>
0

>  <SCORE.SYSTEM.DIHEDRAL>
0

>  <SCORE.SYSTEM.SOLV>
0

>  <SCORE.SYSTEM.norm>
0

>  <SCORE.heavy>
14

>  <SCORE.norm>
-0.821264

>  <RMSD>
17.260

$$$$
ligand
 OpenBabel11021811513D
libRbt.so/2013.1/901 2013/11/27
 14 13  0  0  0  0  0  0  0  0999 V2000
   21.7860   43.6213   28.2723 N   0  0  0  0  0  0  0  0  0  0  0  0
   20.5956   43.3395   29.0582 C   0  0  0  0  0  0  0  0  0  0  0  0
   20.8915   42.2696   30.1039 C   0  0  0  0  0  0  0  0  0  0  0  0
   19.6612   41.9775   30.9554 C   0  0  0  0  0  0  0  0  0  0  0  0
   19.2414   43.1222   31.7583 N   0  0  0  0  0  0  0  0  0  0  0  0
   17.9267   43.7136   31.5746 C   0  0  0  0  0  0  0  0  0  0  0  0
   16.9541   43.3524   32.6919 C   0  0  0  0  0  0  0  0  0  0  0  0
   15.6357   44.0925   32.4959 C   0  0  0  0  0  0  0  0  0  0  0  0
   14.6472   43.6834   33.5824 C   0  0  0  0  0  0  0  0  0  0  0  0
   13.3775   44.3778   33.4550 N   0  0  0  0  0  0  0  0  0  0  0  0
   12.4595   44.0013   32.3881 C   0  0  0  0  0  0  0  0  0  0  0  0
   11.3858   45.0408   32.0735 C   0  0  0  0  0  0  0  0  0  0  0  0
   10.4757   44.5526   30.9451 C   0  0  0  0  0  0  0  0  0  0  0  0
    9.5475   45.6014   30.5586 N   0  0  0  0  0  0  0  0  0  0  0  0
  1  2  1  0  0  0  0
  2  3  1  0  0  0  0
  3  4  1  0  0  0  0
  4  5  1  0  0  0  0
  5  6  1  0  0  0  0
  6  7  1  0  0  0  0
  7  8  1  0  0  0  0
  8  9  1  0  0  0  0
  9 10  1  0  0  0  0
 10 11  1  0  0  0  0
 11 12  1  0  0  0  0
 12 13  1  0  0  0  0
 13 14  1  0  0  0  0
M  END
>  <CHROM.1>
178.99699525,-64.55418421,118.91266223,104.82630251,175.49366862,177.64986241
179.06792500,73.53811351,-161.99567957,-179.95188816,-174.08032729,16.04185073
43.76738750,31.42253599,0.15501599,0.22951603,-1.36946343

>  <Name>
ligand

>  <RI>
0

>  <Rbt.Current_Directory>
/home/itssahil/PROJECTS/Mol_Feturizer/New_Systems/rnas/4P5J

>  <Rbt.Executable>
rbdock ($Id: //depot/dev/client3/rdock/2013.1/src/exe/rbdock.cxx#4 $)

>  <Rbt.Library>
libRbt.so (2013.1, Build901 2013/11/27)

>  <Rbt.Parameter_File>
/export/apps/rDock/src/rDock_2013.1_src/data/scripts/dock_solv.prm

>  <Rbt.Receptor>
prm/blind_docking_60.prm

>  <SCORE>
-7.44059

>  <SCORE.INTER>
1.45835

>  <SCORE.INTER.CONST>
1

>  <SCORE.INTER.POLAR>
0

>  <SCORE.INTER.ROT>
11

>  <SCORE.INTER.SOLV>
8.22781

>  <SCORE.INTER.VDW>
-12.7037

>  <SCORE.INTER.norm>
0.104168

>  <SCORE.INTRA>
-8.89894

>  <SCORE.INTRA.DIHEDRAL>
-14.5956

>  <SCORE.INTRA.DIHEDRAL.0>
17.5233

>  <SCORE.INTRA.POLAR>
0

>  <SCORE.INTRA.POLAR.0>
0

>  <SCORE.INTRA.REPUL>
0

>  <SCORE.INTRA.REPUL.0>
0

>  <SCORE.INTRA.SOLV>
-2.35086

>  <SCORE.INTRA.SOLV.lig_0>
-46.1043

>  <SCORE.INTRA.VDW>
-0.425724

>  <SCORE.INTRA.VDW.0>
-0.545445

>  <SCORE.INTRA.norm>
-0.635638

>  <SCORE.RESTR>
0

>  <SCORE.RESTR.CAVITY>
0

>  <SCORE.RESTR.norm>
0

>  <SCORE.SYSTEM>
0

>  <SCORE.SYSTEM.CONST>
0

>  <SCORE.SYSTEM.DIHEDRAL>
0

>  <SCORE.SYSTEM.SOLV>
0

>  <SCORE.SYSTEM.norm>
0

>  <SCORE.heavy>
14

>  <SCORE.norm>
-0.531471

>  <RMSD>
17.349

$$$$
ligand
 OpenBabel11021811513D
libRbt.so/2013.1/901 2013/11/27
 14 13  0  0  0  0  0  0  0  0999 V2000
   10.9162   41.0854   31.3243 N   0  0  0  0  0  0  0  0  0  0  0  0
   12.0471   41.0564   32.2376 C   0  0  0  0  0  0  0  0  0  0  0  0
   11.7761   41.9467   33.4458 C   0  0  0  0  0  0  0  0  0  0  0  0
   12.9725   41.9716   34.3904 C   0  0  0  0  0  0  0  0  0  0  0  0
   14.1393   42.6310   33.8117 N   0  0  0  0  0  0  0  0  0  0  0  0
   14.2362   44.0808   33.7903 C   0  0  0  0  0  0  0  0  0  0  0  0
   15.6278   44.5752   33.4109 C   0  0  0  0  0  0  0  0  0  0  0  0
   15.9897   44.0915   32.0111 C   0  0  0  0  0  0  0  0  0  0  0  0
   17.4215   44.4973   31.6786 C   0  0  0  0  0  0  0  0  0  0  0  0
   18.3906   43.8233   32.5253 N   0  0  0  0  0  0  0  0  0  0  0  0
   19.7755   43.7185   32.0852 C   0  0  0  0  0  0  0  0  0  0  0  0
   20.0024   42.7671   30.9123 C   0  0  0  0  0  0  0  0  0  0  0  0
   19.7100   41.3232   31.3238 C   0  0  0  0  0  0  0  0  0  0  0  0
   20.6782   40.8759   32.3106 N   0  0  0  0  0  0  0  0  0  0  0  0
  1  2  1  0  0  0  0
  2  3  1  0  0  0  0
  3  4  1  0  0  0  0
  4  5  1  0  0  0  0
  5  6  1  0  0  0  0
  6  7  1  0  0  0  0
  7  8  1  0  0  0  0
  8  9  1  0  0  0  0
  9 10  1  0  0  0  0
 10 11  1  0  0  0  0
 11 12  1  0  0  0  0
 12 13  1  0  0  0  0
 13 14  1  0  0  0  0
M  END
>  <CHROM.1>
-177.84904744,67.21237991,79.91335063,168.42022833,60.98718183,-175.68818852
65.83584147,159.21991481,-70.43023309,-66.22806048,-66.28894342,15.97733952
42.74624767,32.51843155,-3.10673171,0.17869826,0.35272500

>  <Name>
ligand

>  <RI>
0

>  <Rbt.Current_Directory>
/home/itssahil/PROJECTS/Mol_Feturizer/New_Systems/rnas/4P5J

>  <Rbt.Executable>
rbdock ($Id: //depot/dev/client3/rdock/2013.1/src/exe/rbdock.cxx#4 $)

>  <Rbt.Library>
libRbt.so (2013.1, Build901 2013/11/27)

>  <Rbt.Parameter_File>
/export/apps/rDock/src/rDock_2013.1_src/data/scripts/dock_solv.prm

>  <Rbt.Receptor>
prm/blind_docking_60.prm

>  <SCORE>
-11.3913

>  <SCORE.INTER>
-3.33892

>  <SCORE.INTER.CONST>
1

>  <SCORE.INTER.POLAR>
0

>  <SCORE.INTER.ROT>
11

>  <SCORE.INTER.SOLV>
14.4041

>  <SCORE.INTER.VDW>
-17.9607

>  <SCORE.INTER.norm>
-0.238494

>  <SCORE.INTRA>
-8.0524

>  <SCORE.INTRA.DIHEDRAL>
-15.9951

>  <SCORE.INTRA.DIHEDRAL.0>
17.5233

>  <SCORE.INTRA.POLAR>
0

>  <SCORE.INTRA.POLAR.0>
0

>  <SCORE.INTRA.REPUL>
0

>  <SCORE.INTRA.REPUL.0>
0

>  <SCORE.INTRA.SOLV>
0.0849943

>  <SCORE.INTRA.SOLV.lig_0>
-46.1043

>  <SCORE.INTRA.VDW>
-0.0973697

>  <SCORE.INTRA.VDW.0>
-0.545445

>  <SCORE.INTRA.norm>
-0.575171

>  <SCORE.RESTR>
0

>  <SCORE.RESTR.CAVITY>
0

>  <SCORE.RESTR.norm>
0

>  <SCORE.SYSTEM>
0

>  <SCORE.SYSTEM.CONST>
0

>  <SCORE.SYSTEM.DIHEDRAL>
0

>  <SCORE.SYSTEM.SOLV>
0

>  <SCORE.SYSTEM.norm>
0

>  <SCORE.heavy>
14

>  <SCORE.norm>
-0.813666

>  <RMSD>
17.367

$$$$
ligand
 OpenBabel11021811513D
libRbt.so/2013.1/901 2013/11/27
 14 13  0  0  0  0  0  0  0  0999 V2000
   22.6888   44.1527   28.7284 N   0  0  0  0  0  0  0  0  0  0  0  0
   22.1459   44.5972   30.0019 C   0  0  0  0  0  0  0  0  0  0  0  0
   20.6277   44.4535   30.0102 C   0  0  0  0  0  0  0  0  0  0  0  0
   20.0432   44.8678   31.3559 C   0  0  0  0  0  0  0  0  0  0  0  0
   18.5853   44.7981   31.3875 N   0  0  0  0  0  0  0  0  0  0  0  0
   17.9090   43.7907   32.1872 C   0  0  0  0  0  0  0  0  0  0  0  0
   16.4454   44.1281   32.4494 C   0  0  0  0  0  0  0  0  0  0  0  0
   15.8326   43.0971   33.3906 C   0  0  0  0  0  0  0  0  0  0  0  0
   14.4108   43.5107   33.7547 C   0  0  0  0  0  0  0  0  0  0  0  0
   13.5076   43.4172   32.6207 N   0  0  0  0  0  0  0  0  0  0  0  0
   12.0752   43.2905   32.8548 C   0  0  0  0  0  0  0  0  0  0  0  0
   11.6180   41.8954   33.2755 C   0  0  0  0  0  0  0  0  0  0  0  0
   11.8885   40.8804   32.1636 C   0  0  0  0  0  0  0  0  0  0  0  0
   10.9960   41.1146   31.0412 N   0  0  0  0  0  0  0  0  0  0  0  0
  1  2  1  0  0  0  0
  2  3  1  0  0  0  0
  3  4  1  0  0  0  0
  4  5  1  0  0  0  0
  5  6  1  0  0  0  0
  6  7  1  0  0  0  0
  7  8  1  0  0  0  0
  8  9  1  0  0  0  0
  9 10  1  0  0  0  0
 10 11  1  0  0  0  0
 11 12  1  0  0  0  0
 12 13  1  0  0  0  0
 13 14  1  0  0  0  0
M  END
>  <CHROM.1>
177.96493277,177.59363988,110.49448113,161.97067595,-175.06577534,174.64901116
68.76423671,157.71855473,-77.18414638,-63.40660944,-70.13521138,16.34096417
43.42815779,31.80188795,0.08738953,-0.34889517,-2.11051405

>  <Name>
ligand

>  <RI>
0

>  <Rbt.Current_Directory>
/home/itssahil/PROJECTS/Mol_Feturizer/New_Systems/rnas/4P5J

>  <Rbt.Executable>
rbdock ($Id: //depot/dev/client3/rdock/2013.1/src/exe/rbdock.cxx#4 $)

>  <Rbt.Library>
libRbt.so (2013.1, Build901 2013/11/27)

>  <Rbt.Parameter_File>
/export/apps/rDock/src/rDock_2013.1_src/data/scripts/dock_solv.prm

>  <Rbt.Receptor>
prm/blind_docking_60.prm

>  <SCORE>
-10.1805

>  <SCORE.INTER>
-2.04896

>  <SCORE.INTER.CONST>
1

>  <SCORE.INTER.POLAR>
0

>  <SCORE.INTER.ROT>
11

>  <SCORE.INTER.SOLV>
12.8925

>  <SCORE.INTER.VDW>
-16.5968

>  <SCORE.INTER.norm>
-0.146354

>  <SCORE.INTRA>
-8.13152

>  <SCORE.INTRA.DIHEDRAL>
-14.5996

>  <SCORE.INTRA.DIHEDRAL.0>
17.5233

>  <SCORE.INTRA.POLAR>
0

>  <SCORE.INTRA.POLAR.0>
0

>  <SCORE.INTRA.REPUL>
0

>  <SCORE.INTRA.REPUL.0>
0

>  <SCORE.INTRA.SOLV>
-0.766514

>  <SCORE.INTRA.SOLV.lig_0>
-46.1043

>  <SCORE.INTRA.VDW>
-0.448449

>  <SCORE.INTRA.VDW.0>
-0.545445

>  <SCORE.INTRA.norm>
-0.580823

>  <SCORE.RESTR>
0

>  <SCORE.RESTR.CAVITY>
0

>  <SCORE.RESTR.norm>
0

>  <SCORE.SYSTEM>
0

>  <SCORE.SYSTEM.CONST>
0

>  <SCORE.SYSTEM.DIHEDRAL>
0

>  <SCORE.SYSTEM.SOLV>
0

>  <SCORE.SYSTEM.norm>
0

>  <SCORE.heavy>
14

>  <SCORE.norm>
-0.727177

>  <RMSD>
17.375

$$$$
ligand
 OpenBabel11021811513D
libRbt.so/2013.1/901 2013/11/27
 14 13  0  0  0  0  0  0  0  0999 V2000
   20.5928   41.8745   30.9242 N   0  0  0  0  0  0  0  0  0  0  0  0
   21.2456   42.9000   30.1266 C   0  0  0  0  0  0  0  0  0  0  0  0
   21.1572   44.2522   30.8262 C   0  0  0  0  0  0  0  0  0  0  0  0
   19.7239   44.7715   30.8405 C   0  0  0  0  0  0  0  0  0  0  0  0
   18.8458   43.9914   31.7075 N   0  0  0  0  0  0  0  0  0  0  0  0
   17.4093   44.2106   31.6972 C   0  0  0  0  0  0  0  0  0  0  0  0
   16.7006   43.5431   32.8707 C   0  0  0  0  0  0  0  0  0  0  0  0
   15.1900   43.6731   32.7105 C   0  0  0  0  0  0  0  0  0  0  0  0
   14.4866   43.0067   33.8879 C   0  0  0  0  0  0  0  0  0  0  0  0
   13.0621   42.8455   33.6526 N   0  0  0  0  0  0  0  0  0  0  0  0
   12.5494   41.5513   33.2227 C   0  0  0  0  0  0  0  0  0  0  0  0
   11.0284   41.4726   33.1101 C   0  0  0  0  0  0  0  0  0  0  0  0
   10.5270   42.3384   31.9530 C   0  0  0  0  0  0  0  0  0  0  0  0
   10.6780   43.7467   32.2769 N   0  0  0  0  0  0  0  0  0  0  0  0
  1  2  1  0  0  0  0
  2  3  1  0  0  0  0
  3  4  1  0  0  0  0
  4  5  1  0  0  0  0
  5  6  1  0  0  0  0
  6  7  1  0  0  0  0
  7  8  1  0  0  0  0
  8  9  1  0  0  0  0
  9 10  1  0  0  0  0
 10 11  1  0  0  0  0
 11 12  1  0  0  0  0
 12 13  1  0  0  0  0
 13 14  1  0  0  0  0
M  END
>  <CHROM.1>
-69.06492913,69.07386290,-170.80984840,-167.05529633,-173.39739908,-179.87955757
-167.65778498,99.84474516,175.56001071,68.47996932,-70.57277976,15.94268238
43.15555693,32.12903523,-0.12406507,-0.22152993,3.13305661

>  <Name>
ligand

>  <RI>
0

>  <Rbt.Current_Directory>
/home/itssahil/PROJECTS/Mol_Feturizer/New_Systems/rnas/4P5J

>  <Rbt.Executable>
rbdock ($Id: //depot/dev/client3/rdock/2013.1/src/exe/rbdock.cxx#4 $)

>  <Rbt.Library>
libRbt.so (2013.1, Build901 2013/11/27)

>  <Rbt.Parameter_File>
/export/apps/rDock/src/rDock_2013.1_src/data/scripts/dock_solv.prm

>  <Rbt.Receptor>
prm/blind_docking_80.prm

>  <SCORE>
-7.97277

>  <SCORE.INTER>
-1.61687

>  <SCORE.INTER.CONST>
1

>  <SCORE.INTER.POLAR>
0

>  <SCORE.INTER.ROT>
11

>  <SCORE.INTER.SOLV>
8.43824

>  <SCORE.INTER.VDW>
-14.824

>  <SCORE.INTER.norm>
-0.115491

>  <SCORE.INTRA>
-6.3559

>  <SCORE.INTRA.DIHEDRAL>
-14.4001

>  <SCORE.INTRA.DIHEDRAL.0>
17.5233

>  <SCORE.INTRA.POLAR>
0

>  <SCORE.INTRA.POLAR.0>
0

>  <SCORE.INTRA.REPUL>
0

>  <SCORE.INTRA.REPUL.0>
0

>  <SCORE.INTRA.SOLV>
3.18883

>  <SCORE.INTRA.SOLV.lig_0>
-46.1043

>  <SCORE.INTRA.VDW>
-0.750269

>  <SCORE.INTRA.VDW.0>
-0.545445

>  <SCORE.INTRA.norm>
-0.453993

>  <SCORE.RESTR>
0

>  <SCORE.RESTR.CAVITY>
0

>  <SCORE.RESTR.norm>
0

>  <SCORE.SYSTEM>
0

>  <SCORE.SYSTEM.CONST>
0

>  <SCORE.SYSTEM.DIHEDRAL>
0

>  <SCORE.SYSTEM.SOLV>
0

>  <SCORE.SYSTEM.norm>
0

>  <SCORE.heavy>
14

>  <SCORE.norm>
-0.569483

>  <RMSD>
17.460

$$$$
ligand
 OpenBabel11021811513D
libRbt.so/2013.1/901 2013/11/27
 14 13  0  0  0  0  0  0  0  0999 V2000
   21.9317   44.1657   28.6728 N   0  0  0  0  0  0  0  0  0  0  0  0
   22.1110   44.9461   29.8865 C   0  0  0  0  0  0  0  0  0  0  0  0
   21.2613   44.3730   31.0158 C   0  0  0  0  0  0  0  0  0  0  0  0
   19.7741   44.5377   30.7233 C   0  0  0  0  0  0  0  0  0  0  0  0
   18.9241   43.9509   31.7550 N   0  0  0  0  0  0  0  0  0  0  0  0
   17.4803   44.1079   31.7029 C   0  0  0  0  0  0  0  0  0  0  0  0
   16.7642   43.3713   32.8296 C   0  0  0  0  0  0  0  0  0  0  0  0
   15.2668   43.6512   32.7672 C   0  0  0  0  0  0  0  0  0  0  0  0
   14.5551   42.9080   33.8924 C   0  0  0  0  0  0  0  0  0  0  0  0
   13.1144   43.0865   33.8390 N   0  0  0  0  0  0  0  0  0  0  0  0
   12.2752   41.9966   33.3589 C   0  0  0  0  0  0  0  0  0  0  0  0
   10.7739   42.2668   33.4324 C   0  0  0  0  0  0  0  0  0  0  0  0
    9.9849   41.0950   32.8456 C   0  0  0  0  0  0  0  0  0  0  0  0
    8.5622   41.3897   32.8599 N   0  0  0  0  0  0  0  0  0  0  0  0
  1  2  1  0  0  0  0
  2  3  1  0  0  0  0
  3  4  1  0  0  0  0
  4  5  1  0  0  0  0
  5  6  1  0  0  0  0
  6  7  1  0  0  0  0
  7  8  1  0  0  0  0
  8  9  1  0  0  0  0
  9 10  1  0  0  0  0
 10 11  1  0  0  0  0
 11 12  1  0  0  0  0
 12 13  1  0  0  0  0
 13 14  1  0  0  0  0
M  END
>  <CHROM.1>
-66.55074974,177.57301634,174.86181682,177.34582019,176.37720680,179.77668838
-177.11246206,104.75587628,176.23623951,177.28266201,-177.20070857,15.91292866
43.27479799,32.11309122,0.21136053,-0.29969067,-1.80091715

>  <Name>
ligand

>  <RI>
0

>  <Rbt.Current_Directory>
/home/itssahil/PROJECTS/Mol_Feturizer/New_Systems/rnas/4P5J

>  <Rbt.Executable>
rbdock ($Id: //depot/dev/client3/rdock/2013.1/src/exe/rbdock.cxx#4 $)

>  <Rbt.Library>
libRbt.so (2013.1, Build901 2013/11/27)

>  <Rbt.Parameter_File>
/export/apps/rDock/src/rDock_2013.1_src/data/scripts/dock_solv.prm

>  <Rbt.Receptor>
prm/blind_docking_80.prm

>  <SCORE>
-12.8976

>  <SCORE.INTER>
-3.2723

>  <SCORE.INTER.CONST>
1

>  <SCORE.INTER.POLAR>
0

>  <SCORE.INTER.ROT>
11

>  <SCORE.INTER.SOLV>
8.2047

>  <SCORE.INTER.VDW>
-15.8498

>  <SCORE.INTER.norm>
-0.233736

>  <SCORE.INTRA>
-9.62526

>  <SCORE.INTRA.DIHEDRAL>
-16.1438

>  <SCORE.INTRA.DIHEDRAL.0>
17.5233

>  <SCORE.INTRA.POLAR>
0

>  <SCORE.INTRA.POLAR.0>
0

>  <SCORE.INTRA.REPUL>
0

>  <SCORE.INTRA.REPUL.0>
0

>  <SCORE.INTRA.SOLV>
-1.96405

>  <SCORE.INTRA.SOLV.lig_0>
-46.1043

>  <SCORE.INTRA.VDW>
-0.571333

>  <SCORE.INTRA.VDW.0>
-0.545445

>  <SCORE.INTRA.norm>
-0.687518

>  <SCORE.RESTR>
0

>  <SCORE.RESTR.CAVITY>
0

>  <SCORE.RESTR.norm>
0

>  <SCORE.SYSTEM>
0

>  <SCORE.SYSTEM.CONST>
0

>  <SCORE.SYSTEM.DIHEDRAL>
0

>  <SCORE.SYSTEM.SOLV>
0

>  <SCORE.SYSTEM.norm>
0

>  <SCORE.heavy>
14

>  <SCORE.norm>
-0.921254

>  <RMSD>
17.650

$$$$
ligand
 OpenBabel11021811513D
libRbt.so/2013.1/901 2013/11/27
 14 13  0  0  0  0  0  0  0  0999 V2000
   19.1666   63.5902   28.6818 N   0  0  0  0  0  0  0  0  0  0  0  0
   20.1620   62.5580   28.9222 C   0  0  0  0  0  0  0  0  0  0  0  0
   20.4408   61.7813   27.6397 C   0  0  0  0  0  0  0  0  0  0  0  0
   21.5052   60.7131   27.8638 C   0  0  0  0  0  0  0  0  0  0  0  0
   21.8641   60.0034   26.6396 N   0  0  0  0  0  0  0  0  0  0  0  0
   22.1802   58.5853   26.6710 C   0  0  0  0  0  0  0  0  0  0  0  0
   22.4417   58.0067   25.2848 C   0  0  0  0  0  0  0  0  0  0  0  0
   21.2327   58.2393   24.3855 C   0  0  0  0  0  0  0  0  0  0  0  0
   21.2721   57.2728   23.2068 C   0  0  0  0  0  0  0  0  0  0  0  0
   21.2522   55.8855   23.6373 N   0  0  0  0  0  0  0  0  0  0  0  0
   20.2512   54.9799   23.0890 C   0  0  0  0  0  0  0  0  0  0  0  0
   19.9443   53.7641   23.9608 C   0  0  0  0  0  0  0  0  0  0  0  0
   21.1853   52.8833   24.1153 C   0  0  0  0  0  0  0  0  0  0  0  0
   22.1583   53.5323   24.9775 N   0  0  0  0  0  0  0  0  0  0  0  0
  1  2  1  0  0  0  0
  2  3  1  0  0  0  0
  3  4  1  0  0  0  0
  4  5  1  0  0  0  0
  5  6  1  0  0  0  0
  6  7  1  0  0  0  0
  7  8  1  0  0  0  0
  8  9  1  0  0  0  0
  9 10  1  0  0  0  0
 10 11  1  0  0  0  0
 11 12  1  0  0  0  0
 12 13  1  0  0  0  0
 13 14  1  0  0  0  0
M  END
>  <CHROM.1>
178.76262812,-176.29020274,-143.90843919,176.30798692,-57.37558530,-160.20844158
59.92836459,126.70785891,-156.71937506,-63.06136122,71.84471555,21.07546542
57.98526045,25.64809592,1.67737470,-0.83098748,0.57954938

>  <Name>
ligand

>  <RI>
0

>  <Rbt.Current_Directory>
/home/itssahil/PROJECTS/Mol_Feturizer/New_Systems/rnas/4P5J

>  <Rbt.Executable>
rbdock ($Id: //depot/dev/client3/rdock/2013.1/src/exe/rbdock.cxx#4 $)

>  <Rbt.Library>
libRbt.so (2013.1, Build901 2013/11/27)

>  <Rbt.Parameter_File>
/export/apps/rDock/src/rDock_2013.1_src/data/scripts/dock_solv.prm

>  <Rbt.Receptor>
prm/blind_docking_80.prm

>  <SCORE>
-7.79842

>  <SCORE.INTER>
-1.31443

>  <SCORE.INTER.CONST>
1

>  <SCORE.INTER.POLAR>
0

>  <SCORE.INTER.ROT>
11

>  <SCORE.INTER.SOLV>
6.49669

>  <SCORE.INTER.VDW>
-13.9752

>  <SCORE.INTER.norm>
-0.0938881

>  <SCORE.INTRA>
-6.48399

>  <SCORE.INTRA.DIHEDRAL>
-13.0331

>  <SCORE.INTRA.DIHEDRAL.0>
17.5233

>  <SCORE.INTRA.POLAR>
0

>  <SCORE.INTRA.POLAR.0>
0

>  <SCORE.INTRA.REPUL>
0

>  <SCORE.INTRA.REPUL.0>
0

>  <SCORE.INTRA.SOLV>
1.09316

>  <SCORE.INTRA.SOLV.lig_0>
-46.1043

>  <SCORE.INTRA.VDW>
-0.514031

>  <SCORE.INTRA.VDW.0>
-0.545445

>  <SCORE.INTRA.norm>
-0.463142

>  <SCORE.RESTR>
0

>  <SCORE.RESTR.CAVITY>
0

>  <SCORE.RESTR.norm>
0

>  <SCORE.SYSTEM>
0

>  <SCORE.SYSTEM.CONST>
0

>  <SCORE.SYSTEM.DIHEDRAL>
0

>  <SCORE.SYSTEM.SOLV>
0

>  <SCORE.SYSTEM.norm>
0

>  <SCORE.heavy>
14

>  <SCORE.norm>
-0.55703

>  <RMSD>
18.560

$$$$
ligand
 OpenBabel11021811513D
libRbt.so/2013.1/901 2013/11/27
 14 13  0  0  0  0  0  0  0  0999 V2000
   17.3831   62.5680   29.8787 N   0  0  0  0  0  0  0  0  0  0  0  0
   16.9758   63.3776   28.7418 C   0  0  0  0  0  0  0  0  0  0  0  0
   17.8563   63.0762   27.5336 C   0  0  0  0  0  0  0  0  0  0  0  0
   19.3093   63.4496   27.8050 C   0  0  0  0  0  0  0  0  0  0  0  0
   19.9761   62.5168   28.7086 N   0  0  0  0  0  0  0  0  0  0  0  0
   21.1197   61.7404   28.2599 C   0  0  0  0  0  0  0  0  0  0  0  0
   20.7482   60.6837   27.2255 C   0  0  0  0  0  0  0  0  0  0  0  0
   21.9767   59.8593   26.8572 C   0  0  0  0  0  0  0  0  0  0  0  0
   21.6131   58.8437   25.7795 C   0  0  0  0  0  0  0  0  0  0  0  0
   22.7524   58.0321   25.3874 N   0  0  0  0  0  0  0  0  0  0  0  0
   22.5444   56.8726   24.5302 C   0  0  0  0  0  0  0  0  0  0  0  0
   22.7711   55.5253   25.2126 C   0  0  0  0  0  0  0  0  0  0  0  0
   22.5221   54.3758   24.2346 C   0  0  0  0  0  0  0  0  0  0  0  0
   22.6556   53.0990   24.9152 N   0  0  0  0  0  0  0  0  0  0  0  0
  1  2  1  0  0  0  0
  2  3  1  0  0  0  0
  3  4  1  0  0  0  0
  4  5  1  0  0  0  0
  5  6  1  0  0  0  0
  6  7  1  0  0  0  0
  7  8  1  0  0  0  0
  8  9  1  0  0  0  0
  9 10  1  0  0  0  0
 10 11  1  0  0  0  0
 11 12  1  0  0  0  0
 12 13  1  0  0  0  0
 13 14  1  0  0  0  0
M  END
>  <CHROM.1>
-63.12478389,73.73311009,117.49477042,-68.85274807,-176.92110818,-177.59964042
179.81300126,170.19582137,-110.97691040,179.73256670,-176.32120901,20.72887409
59.57308259,26.79052611,2.05306209,0.31880754,0.28780927

>  <Name>
ligand

>  <RI>
0

>  <Rbt.Current_Directory>
/home/itssahil/PROJECTS/Mol_Feturizer/New_Systems/rnas/4P5J

>  <Rbt.Executable>
rbdock ($Id: //depot/dev/client3/rdock/2013.1/src/exe/rbdock.cxx#4 $)

>  <Rbt.Library>
libRbt.so (2013.1, Build901 2013/11/27)

>  <Rbt.Parameter_File>
/export/apps/rDock/src/rDock_2013.1_src/data/scripts/dock_solv.prm

>  <Rbt.Receptor>
prm/blind_docking_100.prm

>  <SCORE>
-3.53897

>  <SCORE.INTER>
3.87875

>  <SCORE.INTER.CONST>
1

>  <SCORE.INTER.POLAR>
0

>  <SCORE.INTER.ROT>
11

>  <SCORE.INTER.SOLV>
8.21269

>  <SCORE.INTER.VDW>
-11.0851

>  <SCORE.INTER.norm>
0.277053

>  <SCORE.INTRA>
-7.41772

>  <SCORE.INTRA.DIHEDRAL>
-14.222

>  <SCORE.INTRA.DIHEDRAL.0>
17.5233

>  <SCORE.INTRA.POLAR>
0

>  <SCORE.INTRA.POLAR.0>
0

>  <SCORE.INTRA.REPUL>
0

>  <SCORE.INTRA.REPUL.0>
0

>  <SCORE.INTRA.SOLV>
0.199256

>  <SCORE.INTRA.SOLV.lig_0>
-46.1043

>  <SCORE.INTRA.VDW>
-0.406365

>  <SCORE.INTRA.VDW.0>
-0.545445

>  <SCORE.INTRA.norm>
-0.529837

>  <SCORE.RESTR>
0

>  <SCORE.RESTR.CAVITY>
0

>  <SCORE.RESTR.norm>
0

>  <SCORE.SYSTEM>
0

>  <SCORE.SYSTEM.CONST>
0

>  <SCORE.SYSTEM.DIHEDRAL>
0

>  <SCORE.SYSTEM.SOLV>
0

>  <SCORE.SYSTEM.norm>
0

>  <SCORE.heavy>
14

>  <SCORE.norm>
-0.252784

>  <RMSD>
18.637

$$$$
ligand
 OpenBabel11021811513D
libRbt.so/2013.1/901 2013/11/27
 14 13  0  0  0  0  0  0  0  0999 V2000
    8.0210   44.9210   27.8407 N   0  0  0  0  0  0  0  0  0  0  0  0
    9.0559   45.9286   28.0071 C   0  0  0  0  0  0  0  0  0  0  0  0
   10.2523   45.3425   28.7494 C   0  0  0  0  0  0  0  0  0  0  0  0
    9.8916   44.9999   30.1905 C   0  0  0  0  0  0  0  0  0  0  0  0
   11.0076   44.4218   30.9331 N   0  0  0  0  0  0  0  0  0  0  0  0
   10.8421   44.0088   32.3166 C   0  0  0  0  0  0  0  0  0  0  0  0
   12.0402   43.2302   32.8488 C   0  0  0  0  0  0  0  0  0  0  0  0
   13.2920   44.0988   32.7968 C   0  0  0  0  0  0  0  0  0  0  0  0
   14.4912   43.3077   33.3079 C   0  0  0  0  0  0  0  0  0  0  0  0
   15.7151   44.0898   33.2760 N   0  0  0  0  0  0  0  0  0  0  0  0
   16.7769   43.7203   32.3494 C   0  0  0  0  0  0  0  0  0  0  0  0
   17.8979   44.7494   32.2200 C   0  0  0  0  0  0  0  0  0  0  0  0
   18.9751   44.2557   31.2526 C   0  0  0  0  0  0  0  0  0  0  0  0
   19.6342   43.0787   31.7923 N   0  0  0  0  0  0  0  0  0  0  0  0
  1  2  1  0  0  0  0
  2  3  1  0  0  0  0
  3  4  1  0  0  0  0
  4  5  1  0  0  0  0
  5  6  1  0  0  0  0
  6  7  1  0  0  0  0
  7  8  1  0  0  0  0
  8  9  1  0  0  0  0
  9 10  1  0  0  0  0
 10 11  1  0  0  0  0
 11 12  1  0  0  0  0
 12 13  1  0  0  0  0
 13 14  1  0  0  0  0
M  END
>  <CHROM.1>
-67.01750829,179.38529109,-178.81044054,170.78322150,60.93339777,-179.04555300
179.83055284,-112.34868855,169.35302191,178.69800381,-65.32432878,13.42086698
44.29671720,31.27735666,-2.77597194,-0.01448288,1.91262430

>  <Name>
ligand

>  <RI>
0

>  <Rbt.Current_Directory>
/home/itssahil/PROJECTS/Mol_Feturizer/New_Systems/rnas/4P5J

>  <Rbt.Executable>
rbdock ($Id: //depot/dev/client3/rdock/2013.1/src/exe/rbdock.cxx#4 $)

>  <Rbt.Library>
libRbt.so (2013.1, Build901 2013/11/27)

>  <Rbt.Parameter_File>
/export/apps/rDock/src/rDock_2013.1_src/data/scripts/dock_solv.prm

>  <Rbt.Receptor>
prm/blind_docking_60.prm

>  <SCORE>
-6.70216

>  <SCORE.INTER>
1.97076

>  <SCORE.INTER.CONST>
1

>  <SCORE.INTER.POLAR>
0

>  <SCORE.INTER.ROT>
11

>  <SCORE.INTER.SOLV>
12.641

>  <SCORE.INTER.VDW>
-13.8331

>  <SCORE.INTER.norm>
0.140769

>  <SCORE.INTRA>
-8.67292

>  <SCORE.INTRA.DIHEDRAL>
-15.9044

>  <SCORE.INTRA.DIHEDRAL.0>
17.5233

>  <SCORE.INTRA.POLAR>
0

>  <SCORE.INTRA.POLAR.0>
0

>  <SCORE.INTRA.REPUL>
0

>  <SCORE.INTRA.REPUL.0>
0

>  <SCORE.INTRA.SOLV>
-0.772585

>  <SCORE.INTRA.SOLV.lig_0>
-46.1043

>  <SCORE.INTRA.VDW>
-0.334421

>  <SCORE.INTRA.VDW.0>
-0.545445

>  <SCORE.INTRA.norm>
-0.619494

>  <SCORE.RESTR>
0

>  <SCORE.RESTR.CAVITY>
0

>  <SCORE.RESTR.norm>
0

>  <SCORE.SYSTEM>
0

>  <SCORE.SYSTEM.CONST>
0

>  <SCORE.SYSTEM.DIHEDRAL>
0

>  <SCORE.SYSTEM.SOLV>
0

>  <SCORE.SYSTEM.norm>
0

>  <SCORE.heavy>
14

>  <SCORE.norm>
-0.478726

>  <RMSD>
19.588

$$$$
ligand
 OpenBabel11021811513D
libRbt.so/2013.1/901 2013/11/27
 14 13  0  0  0  0  0  0  0  0999 V2000
   22.6771   53.0483   18.9682 N   0  0  0  0  0  0  0  0  0  0  0  0
   21.9367   54.2211   19.4046 C   0  0  0  0  0  0  0  0  0  0  0  0
   22.3608   54.6220   20.8136 C   0  0  0  0  0  0  0  0  0  0  0  0
   21.6648   55.9050   21.2535 C   0  0  0  0  0  0  0  0  0  0  0  0
   22.0229   56.3090   22.6098 N   0  0  0  0  0  0  0  0  0  0  0  0
   21.3100   57.3870   23.2743 C   0  0  0  0  0  0  0  0  0  0  0  0
   21.9597   57.8036   24.5893 C   0  0  0  0  0  0  0  0  0  0  0  0
   21.2267   59.0048   25.1761 C   0  0  0  0  0  0  0  0  0  0  0  0
   21.8498   59.3867   26.5144 C   0  0  0  0  0  0  0  0  0  0  0  0
   21.1320   60.4716   27.1611 N   0  0  0  0  0  0  0  0  0  0  0  0
   21.6614   61.0483   28.3898 C   0  0  0  0  0  0  0  0  0  0  0  0
   20.8854   62.2541   28.9152 C   0  0  0  0  0  0  0  0  0  0  0  0
   20.9221   63.4020   27.9048 C   0  0  0  0  0  0  0  0  0  0  0  0
   20.2175   64.5583   28.4318 N   0  0  0  0  0  0  0  0  0  0  0  0
  1  2  1  0  0  0  0
  2  3  1  0  0  0  0
  3  4  1  0  0  0  0
  4  5  1  0  0  0  0
  5  6  1  0  0  0  0
  6  7  1  0  0  0  0
  7  8  1  0  0  0  0
  8  9  1  0  0  0  0
  9 10  1  0  0  0  0
 10 11  1  0  0  0  0
 11 12  1  0  0  0  0
 12 13  1  0  0  0  0
 13 14  1  0  0  0  0
M  END
>  <CHROM.1>
176.15468306,178.81047378,-170.60217560,-171.22983538,175.62414163,178.03676383
-176.16068863,-174.34188260,175.24537438,-62.00879632,-178.19565945,21.55908939
58.53010470,24.52911891,1.29253834,1.15835810,-2.10673031

>  <Name>
ligand

>  <RI>
0

>  <Rbt.Current_Directory>
/home/itssahil/PROJECTS/Mol_Feturizer/New_Systems/rnas/4P5J

>  <Rbt.Executable>
rbdock ($Id: //depot/dev/client3/rdock/2013.1/src/exe/rbdock.cxx#4 $)

>  <Rbt.Library>
libRbt.so (2013.1, Build901 2013/11/27)

>  <Rbt.Parameter_File>
/export/apps/rDock/src/rDock_2013.1_src/data/scripts/dock_solv.prm

>  <Rbt.Receptor>
prm/blind_docking_80.prm

>  <SCORE>
-7.61099

>  <SCORE.INTER>
2.85107

>  <SCORE.INTER.CONST>
1

>  <SCORE.INTER.POLAR>
0

>  <SCORE.INTER.ROT>
11

>  <SCORE.INTER.SOLV>
8.71636

>  <SCORE.INTER.VDW>
-11.9381

>  <SCORE.INTER.norm>
0.203648

>  <SCORE.INTRA>
-10.4621

>  <SCORE.INTRA.DIHEDRAL>
-17.1128

>  <SCORE.INTRA.DIHEDRAL.0>
17.5233

>  <SCORE.INTRA.POLAR>
0

>  <SCORE.INTRA.POLAR.0>
0

>  <SCORE.INTRA.REPUL>
0

>  <SCORE.INTRA.REPUL.0>
0

>  <SCORE.INTRA.SOLV>
-2.39203

>  <SCORE.INTRA.SOLV.lig_0>
-46.1043

>  <SCORE.INTRA.VDW>
-0.709666

>  <SCORE.INTRA.VDW.0>
-0.545445

>  <SCORE.INTRA.norm>
-0.747291

>  <SCORE.RESTR>
0

>  <SCORE.RESTR.CAVITY>
0

>  <SCORE.RESTR.norm>
0

>  <SCORE.SYSTEM>
0

>  <SCORE.SYSTEM.CONST>
0

>  <SCORE.SYSTEM.DIHEDRAL>
0

>  <SCORE.SYSTEM.SOLV>
0

>  <SCORE.SYSTEM.norm>
0

>  <SCORE.heavy>
14

>  <SCORE.norm>
-0.543642

>  <RMSD>
19.595

$$$$
ligand
 OpenBabel11021811513D
libRbt.so/2013.1/901 2013/11/27
 14 13  0  0  0  0  0  0  0  0999 V2000
   22.0158   55.7441   22.9570 N   0  0  0  0  0  0  0  0  0  0  0  0
   22.3705   56.8196   23.8689 C   0  0  0  0  0  0  0  0  0  0  0  0
   21.3306   57.9333   23.8052 C   0  0  0  0  0  0  0  0  0  0  0  0
   21.7408   59.1191   24.6712 C   0  0  0  0  0  0  0  0  0  0  0  0
   21.7988   58.7912   26.0926 N   0  0  0  0  0  0  0  0  0  0  0  0
   22.3959   59.7149   27.0423 C   0  0  0  0  0  0  0  0  0  0  0  0
   21.3600   60.5512   27.7854 C   0  0  0  0  0  0  0  0  0  0  0  0
   20.5541   61.3845   26.7951 C   0  0  0  0  0  0  0  0  0  0  0  0
   19.5935   62.2971   27.5497 C   0  0  0  0  0  0  0  0  0  0  0  0
   18.5802   61.5465   28.2710 N   0  0  0  0  0  0  0  0  0  0  0  0
   17.6828   62.2462   29.1807 C   0  0  0  0  0  0  0  0  0  0  0  0
   16.2257   62.2974   28.7262 C   0  0  0  0  0  0  0  0  0  0  0  0
   16.0940   63.0861   27.4222 C   0  0  0  0  0  0  0  0  0  0  0  0
   14.6981   63.1793   27.0299 N   0  0  0  0  0  0  0  0  0  0  0  0
  1  2  1  0  0  0  0
  2  3  1  0  0  0  0
  3  4  1  0  0  0  0
  4  5  1  0  0  0  0
  5  6  1  0  0  0  0
  6  7  1  0  0  0  0
  7  8  1  0  0  0  0
  8  9  1  0  0  0  0
  9 10  1  0  0  0  0
 10 11  1  0  0  0  0
 11 12  1  0  0  0  0
 12 13  1  0  0  0  0
 13 14  1  0  0  0  0
M  END
>  <CHROM.1>
-175.50240663,-64.33570075,168.96196691,99.18654254,-60.45378516,-175.69664795
-65.35405731,172.32360280,111.89004203,-63.50565262,-177.48815862,19.74596784
60.33667691,26.51426513,0.82950557,0.28577348,-2.25696493

>  <Name>
ligand

>  <RI>
0

>  <Rbt.Current_Directory>
/home/itssahil/PROJECTS/Mol_Feturizer/New_Systems/rnas/4P5J

>  <Rbt.Executable>
rbdock ($Id: //depot/dev/client3/rdock/2013.1/src/exe/rbdock.cxx#4 $)

>  <Rbt.Library>
libRbt.so (2013.1, Build901 2013/11/27)

>  <Rbt.Parameter_File>
/export/apps/rDock/src/rDock_2013.1_src/data/scripts/dock_solv.prm

>  <Rbt.Receptor>
prm/blind_docking_100.prm

>  <SCORE>
-7.68103

>  <SCORE.INTER>
0.837855

>  <SCORE.INTER.CONST>
1

>  <SCORE.INTER.POLAR>
0

>  <SCORE.INTER.ROT>
11

>  <SCORE.INTER.SOLV>
10.696

>  <SCORE.INTER.VDW>
-13.9401

>  <SCORE.INTER.norm>
0.0598468

>  <SCORE.INTRA>
-8.51889

>  <SCORE.INTRA.DIHEDRAL>
-14.9506

>  <SCORE.INTRA.DIHEDRAL.0>
17.5233

>  <SCORE.INTRA.POLAR>
0

>  <SCORE.INTRA.POLAR.0>
0

>  <SCORE.INTRA.REPUL>
0

>  <SCORE.INTRA.REPUL.0>
0

>  <SCORE.INTRA.SOLV>
-1.27039

>  <SCORE.INTRA.SOLV.lig_0>
-46.1043

>  <SCORE.INTRA.VDW>
-0.40838

>  <SCORE.INTRA.VDW.0>
-0.545445

>  <SCORE.INTRA.norm>
-0.608492

>  <SCORE.RESTR>
0

>  <SCORE.RESTR.CAVITY>
0

>  <SCORE.RESTR.norm>
0

>  <SCORE.SYSTEM>
0

>  <SCORE.SYSTEM.CONST>
0

>  <SCORE.SYSTEM.DIHEDRAL>
0

>  <SCORE.SYSTEM.SOLV>
0

>  <SCORE.SYSTEM.norm>
0

>  <SCORE.heavy>
14

>  <SCORE.norm>
-0.548645

>  <RMSD>
19.795

$$$$
ligand
 OpenBabel11021811513D
libRbt.so/2013.1/901 2013/11/27
 14 13  0  0  0  0  0  0  0  0999 V2000
   20.6820   64.0941   23.3454 N   0  0  0  0  0  0  0  0  0  0  0  0
   21.8415   63.4152   22.7900 C   0  0  0  0  0  0  0  0  0  0  0  0
   22.5523   62.6086   23.8717 C   0  0  0  0  0  0  0  0  0  0  0  0
   21.6759   61.4655   24.3709 C   0  0  0  0  0  0  0  0  0  0  0  0
   22.3229   60.6638   25.4052 N   0  0  0  0  0  0  0  0  0  0  0  0
   21.7043   59.4416   25.8905 C   0  0  0  0  0  0  0  0  0  0  0  0
   22.1315   58.2087   25.1016 C   0  0  0  0  0  0  0  0  0  0  0  0
   21.5445   58.2596   23.6955 C   0  0  0  0  0  0  0  0  0  0  0  0
   22.1209   57.1262   22.8539 C   0  0  0  0  0  0  0  0  0  0  0  0
   21.7561   55.8198   23.3740 N   0  0  0  0  0  0  0  0  0  0  0  0
   22.4655   54.6378   22.9026 C   0  0  0  0  0  0  0  0  0  0  0  0
   21.6459   53.3493   22.9269 C   0  0  0  0  0  0  0  0  0  0  0  0
   22.4868   52.1653   22.4465 C   0  0  0  0  0  0  0  0  0  0  0  0
   22.9170   52.3779   21.0750 N   0  0  0  0  0  0  0  0  0  0  0  0
  1  2  1  0  0  0  0
  2  3  1  0  0  0  0
  3  4  1  0  0  0  0
  4  5  1  0  0  0  0
  5  6  1  0  0  0  0
  6  7  1  0  0  0  0
  7  8  1  0  0  0  0
  8  9  1  0  0  0  0
  9 10  1  0  0  0  0
 10 11  1  0  0  0  0
 11 12  1  0  0  0  0
 12 13  1  0  0  0  0
 13 14  1  0  0  0  0
M  END
>  <CHROM.1>
65.76655001,179.75355548,-172.85340933,90.28156255,-69.38314739,172.52583086
63.36879283,-165.39713696,-151.26638866,-178.66140761,-61.45209831,21.98909631
58.11661835,23.57509768,-3.06827232,-1.50204960,1.81496978

>  <Name>
ligand

>  <RI>
0

>  <Rbt.Current_Directory>
/home/itssahil/PROJECTS/Mol_Feturizer/New_Systems/rnas/4P5J

>  <Rbt.Executable>
rbdock ($Id: //depot/dev/client3/rdock/2013.1/src/exe/rbdock.cxx#4 $)

>  <Rbt.Library>
libRbt.so (2013.1, Build901 2013/11/27)

>  <Rbt.Parameter_File>
/export/apps/rDock/src/rDock_2013.1_src/data/scripts/dock_solv.prm

>  <Rbt.Receptor>
prm/blind_docking_80.prm

>  <SCORE>
-6.74312

>  <SCORE.INTER>
1.2726

>  <SCORE.INTER.CONST>
1

>  <SCORE.INTER.POLAR>
0

>  <SCORE.INTER.ROT>
11

>  <SCORE.INTER.SOLV>
7.04207

>  <SCORE.INTER.VDW>
-12.4323

>  <SCORE.INTER.norm>
0.0909001

>  <SCORE.INTRA>
-8.01573

>  <SCORE.INTRA.DIHEDRAL>
-15.4052

>  <SCORE.INTRA.DIHEDRAL.0>
17.5233

>  <SCORE.INTRA.POLAR>
0

>  <SCORE.INTRA.POLAR.0>
0

>  <SCORE.INTRA.REPUL>
0

>  <SCORE.INTRA.REPUL.0>
0

>  <SCORE.INTRA.SOLV>
-0.335421

>  <SCORE.INTRA.SOLV.lig_0>
-46.1043

>  <SCORE.INTRA.VDW>
-0.145411

>  <SCORE.INTRA.VDW.0>
-0.545445

>  <SCORE.INTRA.norm>
-0.572552

>  <SCORE.RESTR>
0

>  <SCORE.RESTR.CAVITY>
0

>  <SCORE.RESTR.norm>
0

>  <SCORE.SYSTEM>
0

>  <SCORE.SYSTEM.CONST>
0

>  <SCORE.SYSTEM.DIHEDRAL>
0

>  <SCORE.SYSTEM.SOLV>
0

>  <SCORE.SYSTEM.norm>
0

>  <SCORE.heavy>
14

>  <SCORE.norm>
-0.481652

>  <RMSD>
19.871

$$$$
ligand
 OpenBabel11021811513D
libRbt.so/2013.1/901 2013/11/27
 14 13  0  0  0  0  0  0  0  0999 V2000
   20.7679   61.6365   21.2391 N   0  0  0  0  0  0  0  0  0  0  0  0
   21.4669   60.8587   22.2493 C   0  0  0  0  0  0  0  0  0  0  0  0
   20.4903   60.3762   23.3167 C   0  0  0  0  0  0  0  0  0  0  0  0
   21.1977   59.5250   24.3651 C   0  0  0  0  0  0  0  0  0  0  0  0
   22.1746   60.2796   25.1444 N   0  0  0  0  0  0  0  0  0  0  0  0
   23.0892   59.5984   26.0452 C   0  0  0  0  0  0  0  0  0  0  0  0
   22.4038   59.0834   27.3061 C   0  0  0  0  0  0  0  0  0  0  0  0
   21.9991   60.2539   28.1952 C   0  0  0  0  0  0  0  0  0  0  0  0
   20.7989   60.9726   27.5885 C   0  0  0  0  0  0  0  0  0  0  0  0
   20.2775   62.0037   28.4691 N   0  0  0  0  0  0  0  0  0  0  0  0
   19.3349   62.9833   27.9451 C   0  0  0  0  0  0  0  0  0  0  0  0
   17.8991   62.4802   27.8122 C   0  0  0  0  0  0  0  0  0  0  0  0
   17.3056   62.1714   29.1878 C   0  0  0  0  0  0  0  0  0  0  0  0
   15.9253   61.7379   29.0539 N   0  0  0  0  0  0  0  0  0  0  0  0
  1  2  1  0  0  0  0
  2  3  1  0  0  0  0
  3  4  1  0  0  0  0
  4  5  1  0  0  0  0
  5  6  1  0  0  0  0
  6  7  1  0  0  0  0
  7  8  1  0  0  0  0
  8  9  1  0  0  0  0
  9 10  1  0  0  0  0
 10 11  1  0  0  0  0
 11 12  1  0  0  0  0
 12 13  1  0  0  0  0
 13 14  1  0  0  0  0
M  END
>  <CHROM.1>
178.40078271,65.31539946,-170.51045530,-73.00936893,-69.85226006,73.55075572
173.54801555,166.42481461,78.73751601,65.25871381,178.03877860,20.36672228
60.99703362,26.27997436,0.90601593,0.47974528,-1.52380724

>  <Name>
ligand

>  <RI>
0

>  <Rbt.Current_Directory>
/home/itssahil/PROJECTS/Mol_Feturizer/New_Systems/rnas/4P5J

>  <Rbt.Executable>
rbdock ($Id: //depot/dev/client3/rdock/2013.1/src/exe/rbdock.cxx#4 $)

>  <Rbt.Library>
libRbt.so (2013.1, Build901 2013/11/27)

>  <Rbt.Parameter_File>
/export/apps/rDock/src/rDock_2013.1_src/data/scripts/dock_solv.prm

>  <Rbt.Receptor>
prm/blind_docking_80.prm

>  <SCORE>
-6.92809

>  <SCORE.INTER>
0.96375

>  <SCORE.INTER.CONST>
1

>  <SCORE.INTER.POLAR>
0

>  <SCORE.INTER.ROT>
11

>  <SCORE.INTER.SOLV>
8.17116

>  <SCORE.INTER.VDW>
-13.0146

>  <SCORE.INTER.norm>
0.0688393

>  <SCORE.INTRA>
-7.89184

>  <SCORE.INTRA.DIHEDRAL>
-15.4172

>  <SCORE.INTRA.DIHEDRAL.0>
17.5233

>  <SCORE.INTRA.POLAR>
0

>  <SCORE.INTRA.POLAR.0>
0

>  <SCORE.INTRA.REPUL>
0

>  <SCORE.INTRA.REPUL.0>
0

>  <SCORE.INTRA.SOLV>
-0.965466

>  <SCORE.INTRA.SOLV.lig_0>
-46.1043

>  <SCORE.INTRA.VDW>
0.299501

>  <SCORE.INTRA.VDW.0>
-0.545445

>  <SCORE.INTRA.norm>
-0.563703

>  <SCORE.RESTR>
0

>  <SCORE.RESTR.CAVITY>
0

>  <SCORE.RESTR.norm>
0

>  <SCORE.SYSTEM>
0

>  <SCORE.SYSTEM.CONST>
0

>  <SCORE.SYSTEM.DIHEDRAL>
0

>  <SCORE.SYSTEM.SOLV>
0

>  <SCORE.SYSTEM.norm>
0

>  <SCORE.heavy>
14

>  <SCORE.norm>
-0.494863

>  <RMSD>
20.250

$$$$
ligand
 OpenBabel11021811513D
libRbt.so/2013.1/901 2013/11/27
 14 13  0  0  0  0  0  0  0  0999 V2000
   18.8603   65.6203   28.1216 N   0  0  0  0  0  0  0  0  0  0  0  0
   20.1894   65.2980   27.6281 C   0  0  0  0  0  0  0  0  0  0  0  0
   20.1236   64.8766   26.1639 C   0  0  0  0  0  0  0  0  0  0  0  0
   21.5064   64.5164   25.6324 C   0  0  0  0  0  0  0  0  0  0  0  0
   21.4880   64.1123   24.2297 N   0  0  0  0  0  0  0  0  0  0  0  0
   22.5266   63.2485   23.6940 C   0  0  0  0  0  0  0  0  0  0  0  0
   22.3963   61.8043   24.1654 C   0  0  0  0  0  0  0  0  0  0  0  0
   20.9696   61.3118   23.9501 C   0  0  0  0  0  0  0  0  0  0  0  0
   20.8534   59.8568   24.3914 C   0  0  0  0  0  0  0  0  0  0  0  0
   21.5581   58.9565   23.4951 N   0  0  0  0  0  0  0  0  0  0  0  0
   21.4130   57.5170   23.6666 C   0  0  0  0  0  0  0  0  0  0  0  0
   22.5566   56.8459   24.4242 C   0  0  0  0  0  0  0  0  0  0  0  0
   22.3541   55.3306   24.4763 C   0  0  0  0  0  0  0  0  0  0  0  0
   23.4639   54.6986   25.1693 N   0  0  0  0  0  0  0  0  0  0  0  0
  1  2  1  0  0  0  0
  2  3  1  0  0  0  0
  3  4  1  0  0  0  0
  4  5  1  0  0  0  0
  5  6  1  0  0  0  0
  6  7  1  0  0  0  0
  7  8  1  0  0  0  0
  8  9  1  0  0  0  0
  9 10  1  0  0  0  0
 10 11  1  0  0  0  0
 11 12  1  0  0  0  0
 12 13  1  0  0  0  0
 13 14  1  0  0  0  0
M  END
>  <CHROM.1>
-179.24690030,-179.74796069,-155.09854612,73.01819200,49.92478580,178.62307752
-70.30146303,-172.25981303,-99.02221928,-176.52754035,178.55885093,21.44712841
60.99960645,24.94330741,2.08024961,1.09540591,-0.23051629

>  <Name>
ligand

>  <RI>
0

>  <Rbt.Current_Directory>
/home/itssahil/PROJECTS/Mol_Feturizer/New_Systems/rnas/4P5J

>  <Rbt.Executable>
rbdock ($Id: //depot/dev/client3/rdock/2013.1/src/exe/rbdock.cxx#4 $)

>  <Rbt.Library>
libRbt.so (2013.1, Build901 2013/11/27)

>  <Rbt.Parameter_File>
/export/apps/rDock/src/rDock_2013.1_src/data/scripts/dock_solv.prm

>  <Rbt.Receptor>
prm/blind_docking_100.prm

>  <SCORE>
-7.33342

>  <SCORE.INTER>
1.45991

>  <SCORE.INTER.CONST>
1

>  <SCORE.INTER.POLAR>
0

>  <SCORE.INTER.ROT>
11

>  <SCORE.INTER.SOLV>
6.73443

>  <SCORE.INTER.VDW>
-12.2049

>  <SCORE.INTER.norm>
0.104279

>  <SCORE.INTRA>
-8.79332

>  <SCORE.INTRA.DIHEDRAL>
-15.1951

>  <SCORE.INTRA.DIHEDRAL.0>
17.5233

>  <SCORE.INTRA.POLAR>
0

>  <SCORE.INTRA.POLAR.0>
0

>  <SCORE.INTRA.REPUL>
0

>  <SCORE.INTRA.REPUL.0>
0

>  <SCORE.INTRA.SOLV>
-1.87278

>  <SCORE.INTRA.SOLV.lig_0>
-46.1043

>  <SCORE.INTRA.VDW>
-0.259374

>  <SCORE.INTRA.VDW.0>
-0.545445

>  <SCORE.INTRA.norm>
-0.628094

>  <SCORE.RESTR>
0

>  <SCORE.RESTR.CAVITY>
0

>  <SCORE.RESTR.norm>
0

>  <SCORE.SYSTEM>
0

>  <SCORE.SYSTEM.CONST>
0

>  <SCORE.SYSTEM.DIHEDRAL>
0

>  <SCORE.SYSTEM.SOLV>
0

>  <SCORE.SYSTEM.norm>
0

>  <SCORE.heavy>
14

>  <SCORE.norm>
-0.523815

>  <RMSD>
20.383

$$$$
ligand
 OpenBabel11021811513D
libRbt.so/2013.1/901 2013/11/27
 14 13  0  0  0  0  0  0  0  0999 V2000
   20.9725   56.6902   20.4340 N   0  0  0  0  0  0  0  0  0  0  0  0
   20.7960   57.8034   21.3525 C   0  0  0  0  0  0  0  0  0  0  0  0
   21.5521   57.5442   22.6513 C   0  0  0  0  0  0  0  0  0  0  0  0
   21.3443   58.6814   23.6452 C   0  0  0  0  0  0  0  0  0  0  0  0
   22.0783   58.4871   24.8921 N   0  0  0  0  0  0  0  0  0  0  0  0
   21.5194   58.9316   26.1577 C   0  0  0  0  0  0  0  0  0  0  0  0
   21.5933   60.4437   26.3386 C   0  0  0  0  0  0  0  0  0  0  0  0
   20.8177   60.8590   27.5838 C   0  0  0  0  0  0  0  0  0  0  0  0
   20.9712   62.3588   27.8116 C   0  0  0  0  0  0  0  0  0  0  0  0
   20.5163   63.1339   26.6702 N   0  0  0  0  0  0  0  0  0  0  0  0
   20.9151   64.5298   26.5478 C   0  0  0  0  0  0  0  0  0  0  0  0
   20.1565   65.4927   27.4588 C   0  0  0  0  0  0  0  0  0  0  0  0
   18.6744   65.5372   27.0830 C   0  0  0  0  0  0  0  0  0  0  0  0
   17.9637   66.4618   27.9496 N   0  0  0  0  0  0  0  0  0  0  0  0
  1  2  1  0  0  0  0
  2  3  1  0  0  0  0
  3  4  1  0  0  0  0
  4  5  1  0  0  0  0
  5  6  1  0  0  0  0
  6  7  1  0  0  0  0
  7  8  1  0  0  0  0
  8  9  1  0  0  0  0
  9 10  1  0  0  0  0
 10 11  1  0  0  0  0
 11 12  1  0  0  0  0
 12 13  1  0  0  0  0
 13 14  1  0  0  0  0
M  END
>  <CHROM.1>
-178.24658506,-178.62780115,-145.10296763,-75.08638633,171.95182727,176.28128702
57.81828231,-163.23448063,-76.68703189,-64.62153094,-179.64246732,20.70519481
61.21106884,25.46993181,1.18009920,1.03160522,-2.20478315

>  <Name>
ligand

>  <RI>
0

>  <Rbt.Current_Directory>
/home/itssahil/PROJECTS/Mol_Feturizer/New_Systems/rnas/4P5J

>  <Rbt.Executable>
rbdock ($Id: //depot/dev/client3/rdock/2013.1/src/exe/rbdock.cxx#4 $)

>  <Rbt.Library>
libRbt.so (2013.1, Build901 2013/11/27)

>  <Rbt.Parameter_File>
/export/apps/rDock/src/rDock_2013.1_src/data/scripts/dock_solv.prm

>  <Rbt.Receptor>
prm/blind_docking_80.prm

>  <SCORE>
-7.43778

>  <SCORE.INTER>
1.58518

>  <SCORE.INTER.CONST>
1

>  <SCORE.INTER.POLAR>
0

>  <SCORE.INTER.ROT>
11

>  <SCORE.INTER.SOLV>
6.33876

>  <SCORE.INTER.VDW>
-11.9895

>  <SCORE.INTER.norm>
0.113227

>  <SCORE.INTRA>
-9.02296

>  <SCORE.INTRA.DIHEDRAL>
-15.745

>  <SCORE.INTRA.DIHEDRAL.0>
17.5233

>  <SCORE.INTRA.POLAR>
0

>  <SCORE.INTRA.POLAR.0>
0

>  <SCORE.INTRA.REPUL>
0

>  <SCORE.INTRA.REPUL.0>
0

>  <SCORE.INTRA.SOLV>
-1.97352

>  <SCORE.INTRA.SOLV.lig_0>
-46.1043

>  <SCORE.INTRA.VDW>
-0.163695

>  <SCORE.INTRA.VDW.0>
-0.545445

>  <SCORE.INTRA.norm>
-0.644497

>  <SCORE.RESTR>
0

>  <SCORE.RESTR.CAVITY>
0

>  <SCORE.RESTR.norm>
0

>  <SCORE.SYSTEM>
0

>  <SCORE.SYSTEM.CONST>
0

>  <SCORE.SYSTEM.DIHEDRAL>
0

>  <SCORE.SYSTEM.SOLV>
0

>  <SCORE.SYSTEM.norm>
0

>  <SCORE.heavy>
14

>  <SCORE.norm>
-0.53127

>  <RMSD>
20.626

$$$$
ligand
 OpenBabel11021811513D
libRbt.so/2013.1/901 2013/11/27
 14 13  0  0  0  0  0  0  0  0999 V2000
   23.0379   54.3575   22.4693 N   0  0  0  0  0  0  0  0  0  0  0  0
   21.9319   55.2943   22.5835 C   0  0  0  0  0  0  0  0  0  0  0  0
   22.4161   56.6180   23.1659 C   0  0  0  0  0  0  0  0  0  0  0  0
   21.2657   57.6072   23.3148 C   0  0  0  0  0  0  0  0  0  0  0  0
   21.7021   58.9195   23.7822 N   0  0  0  0  0  0  0  0  0  0  0  0
   20.7363   59.9770   24.0289 C   0  0  0  0  0  0  0  0  0  0  0  0
   21.3785   61.2512   24.5661 C   0  0  0  0  0  0  0  0  0  0  0  0
   22.3345   61.8309   23.5296 C   0  0  0  0  0  0  0  0  0  0  0  0
   22.7995   63.2140   23.9722 C   0  0  0  0  0  0  0  0  0  0  0  0
   21.7259   64.1916   23.9260 N   0  0  0  0  0  0  0  0  0  0  0  0
   20.8808   64.3829   25.0972 C   0  0  0  0  0  0  0  0  0  0  0  0
   21.5641   65.0825   26.2702 C   0  0  0  0  0  0  0  0  0  0  0  0
   20.5799   65.2911   27.4224 C   0  0  0  0  0  0  0  0  0  0  0  0
   20.1903   64.0110   27.9886 N   0  0  0  0  0  0  0  0  0  0  0  0
  1  2  1  0  0  0  0
  2  3  1  0  0  0  0
  3  4  1  0  0  0  0
  4  5  1  0  0  0  0
  5  6  1  0  0  0  0
  6  7  1  0  0  0  0
  7  8  1  0  0  0  0
  8  9  1  0  0  0  0
  9 10  1  0  0  0  0
 10 11  1  0  0  0  0
 11 12  1  0  0  0  0
 12 13  1  0  0  0  0
 13 14  1  0  0  0  0
M  END
>  <CHROM.1>
-179.08145504,-176.00022216,-177.77640896,177.61554773,63.35431194,170.86057290
-68.94355698,89.35006206,71.40675953,177.47202266,66.75938799,21.61021983
60.85938497,24.43688007,1.33044679,-1.04499355,-2.98563023

>  <Name>
ligand

>  <RI>
0

>  <Rbt.Current_Directory>
/home/itssahil/PROJECTS/Mol_Feturizer/New_Systems/rnas/4P5J

>  <Rbt.Executable>
rbdock ($Id: //depot/dev/client3/rdock/2013.1/src/exe/rbdock.cxx#4 $)

>  <Rbt.Library>
libRbt.so (2013.1, Build901 2013/11/27)

>  <Rbt.Parameter_File>
/export/apps/rDock/src/rDock_2013.1_src/data/scripts/dock_solv.prm

>  <Rbt.Receptor>
prm/blind_docking_80.prm

>  <SCORE>
-8.13763

>  <SCORE.INTER>
0.372114

>  <SCORE.INTER.CONST>
1

>  <SCORE.INTER.POLAR>
0

>  <SCORE.INTER.ROT>
11

>  <SCORE.INTER.SOLV>
5.93302

>  <SCORE.INTER.VDW>
-12.6629

>  <SCORE.INTER.norm>
0.0265796

>  <SCORE.INTRA>
-8.50974

>  <SCORE.INTRA.DIHEDRAL>
-15.8891

>  <SCORE.INTRA.DIHEDRAL.0>
17.5233

>  <SCORE.INTRA.POLAR>
0

>  <SCORE.INTRA.POLAR.0>
0

>  <SCORE.INTRA.REPUL>
0

>  <SCORE.INTRA.REPUL.0>
0

>  <SCORE.INTRA.SOLV>
-1.07888

>  <SCORE.INTRA.SOLV.lig_0>
-46.1043

>  <SCORE.INTRA.VDW>
-0.0257667

>  <SCORE.INTRA.VDW.0>
-0.545445

>  <SCORE.INTRA.norm>
-0.607839

>  <SCORE.RESTR>
0

>  <SCORE.RESTR.CAVITY>
0

>  <SCORE.RESTR.norm>
0

>  <SCORE.SYSTEM>
0

>  <SCORE.SYSTEM.CONST>
0

>  <SCORE.SYSTEM.DIHEDRAL>
0

>  <SCORE.SYSTEM.SOLV>
0

>  <SCORE.SYSTEM.norm>
0

>  <SCORE.heavy>
14

>  <SCORE.norm>
-0.581259

>  <RMSD>
20.654

$$$$
ligand
 OpenBabel11021811513D
libRbt.so/2013.1/901 2013/11/27
 14 13  0  0  0  0  0  0  0  0999 V2000
   20.4179   64.0665   29.0777 N   0  0  0  0  0  0  0  0  0  0  0  0
   20.6982   64.8301   27.8726 C   0  0  0  0  0  0  0  0  0  0  0  0
   20.8518   63.8962   26.6768 C   0  0  0  0  0  0  0  0  0  0  0  0
   21.1897   64.6749   25.4104 C   0  0  0  0  0  0  0  0  0  0  0  0
   21.3408   63.8165   24.2393 N   0  0  0  0  0  0  0  0  0  0  0  0
   22.6177   63.1908   23.9393 C   0  0  0  0  0  0  0  0  0  0  0  0
   22.4891   62.0171   22.9746 C   0  0  0  0  0  0  0  0  0  0  0  0
   21.7686   60.8586   23.6551 C   0  0  0  0  0  0  0  0  0  0  0  0
   21.5315   59.7363   22.6505 C   0  0  0  0  0  0  0  0  0  0  0  0
   21.0060   58.5389   23.2835 N   0  0  0  0  0  0  0  0  0  0  0  0
   20.9218   57.3023   22.5177 C   0  0  0  0  0  0  0  0  0  0  0  0
   20.5793   56.0631   23.3419 C   0  0  0  0  0  0  0  0  0  0  0  0
   20.4784   54.8285   22.4445 C   0  0  0  0  0  0  0  0  0  0  0  0
   20.1271   53.6605   23.2340 N   0  0  0  0  0  0  0  0  0  0  0  0
  1  2  1  0  0  0  0
  2  3  1  0  0  0  0
  3  4  1  0  0  0  0
  4  5  1  0  0  0  0
  5  6  1  0  0  0  0
  6  7  1  0  0  0  0
  7  8  1  0  0  0  0
  8  9  1  0  0  0  0
  9 10  1  0  0  0  0
 10 11  1  0  0  0  0
 11 12  1  0  0  0  0
 12 13  1  0  0  0  0
 13 14  1  0  0  0  0
M  END
>  <CHROM.1>
-178.21988833,-179.80154253,-86.23589427,161.90201522,-68.81360096,174.94541260
172.48749519,-170.20623224,170.20627538,178.50656727,-178.90637887,21.14429982
60.53453336,24.37962535,1.44156550,1.13273216,0.52144186

>  <Name>
ligand

>  <RI>
0

>  <Rbt.Current_Directory>
/home/itssahil/PROJECTS/Mol_Feturizer/New_Systems/rnas/4P5J

>  <Rbt.Executable>
rbdock ($Id: //depot/dev/client3/rdock/2013.1/src/exe/rbdock.cxx#4 $)

>  <Rbt.Library>
libRbt.so (2013.1, Build901 2013/11/27)

>  <Rbt.Parameter_File>
/export/apps/rDock/src/rDock_2013.1_src/data/scripts/dock_solv.prm

>  <Rbt.Receptor>
prm/blind_docking_100.prm

>  <SCORE>
-7.95307

>  <SCORE.INTER>
1.90447

>  <SCORE.INTER.CONST>
1

>  <SCORE.INTER.POLAR>
0

>  <SCORE.INTER.ROT>
11

>  <SCORE.INTER.SOLV>
7.93964

>  <SCORE.INTER.VDW>
-12.3102

>  <SCORE.INTER.norm>
0.136033

>  <SCORE.INTRA>
-9.85753

>  <SCORE.INTRA.DIHEDRAL>
-16.0055

>  <SCORE.INTRA.DIHEDRAL.0>
17.5233

>  <SCORE.INTRA.POLAR>
0

>  <SCORE.INTRA.POLAR.0>
0

>  <SCORE.INTRA.REPUL>
0

>  <SCORE.INTRA.REPUL.0>
0

>  <SCORE.INTRA.SOLV>
-2.34749

>  <SCORE.INTRA.SOLV.lig_0>
-46.1043

>  <SCORE.INTRA.VDW>
-0.681053

>  <SCORE.INTRA.VDW.0>
-0.545445

>  <SCORE.INTRA.norm>
-0.704109

>  <SCORE.RESTR>
0

>  <SCORE.RESTR.CAVITY>
0

>  <SCORE.RESTR.norm>
0

>  <SCORE.SYSTEM>
0

>  <SCORE.SYSTEM.CONST>
0

>  <SCORE.SYSTEM.DIHEDRAL>
0

>  <SCORE.SYSTEM.SOLV>
0

>  <SCORE.SYSTEM.norm>
0

>  <SCORE.heavy>
14

>  <SCORE.norm>
-0.568076

>  <RMSD>
20.771

$$$$
ligand
 OpenBabel11021811513D
libRbt.so/2013.1/901 2013/11/27
 14 13  0  0  0  0  0  0  0  0999 V2000
   18.0040   66.2951   27.9630 N   0  0  0  0  0  0  0  0  0  0  0  0
   19.3952   65.8785   27.8937 C   0  0  0  0  0  0  0  0  0  0  0  0
   19.4901   64.4138   27.4795 C   0  0  0  0  0  0  0  0  0  0  0  0
   20.9420   63.9531   27.4154 C   0  0  0  0  0  0  0  0  0  0  0  0
   21.0770   62.5543   27.0200 N   0  0  0  0  0  0  0  0  0  0  0  0
   20.8698   61.4883   27.9857 C   0  0  0  0  0  0  0  0  0  0  0  0
   21.9332   60.3988   27.9014 C   0  0  0  0  0  0  0  0  0  0  0  0
   21.7410   59.5791   26.6304 C   0  0  0  0  0  0  0  0  0  0  0  0
   22.2781   60.3523   25.4309 C   0  0  0  0  0  0  0  0  0  0  0  0
   22.1162   59.6155   24.1894 N   0  0  0  0  0  0  0  0  0  0  0  0
   20.8655   59.7243   23.4501 C   0  0  0  0  0  0  0  0  0  0  0  0
   20.7786   58.8389   22.2089 C   0  0  0  0  0  0  0  0  0  0  0  0
   21.7650   59.3103   21.1390 C   0  0  0  0  0  0  0  0  0  0  0  0
   21.3479   60.5942   20.6016 N   0  0  0  0  0  0  0  0  0  0  0  0
  1  2  1  0  0  0  0
  2  3  1  0  0  0  0
  3  4  1  0  0  0  0
  4  5  1  0  0  0  0
  5  6  1  0  0  0  0
  6  7  1  0  0  0  0
  7  8  1  0  0  0  0
  8  9  1  0  0  0  0
  9 10  1  0  0  0  0
 10 11  1  0  0  0  0
 11 12  1  0  0  0  0
 12 13  1  0  0  0  0
 13 14  1  0  0  0  0
M  END
>  <CHROM.1>
-179.39190053,-179.92466256,-79.80260585,-135.57811190,-71.52846376,77.65028174
-179.85182492,86.43973831,-176.35926688,-67.64521758,-68.79698590,20.90036577
61.64235164,25.52231145,2.10748994,-1.06828526,1.28930427

>  <Name>
ligand

>  <RI>
0

>  <Rbt.Current_Directory>
/home/itssahil/PROJECTS/Mol_Feturizer/New_Systems/rnas/4P5J

>  <Rbt.Executable>
rbdock ($Id: //depot/dev/client3/rdock/2013.1/src/exe/rbdock.cxx#4 $)

>  <Rbt.Library>
libRbt.so (2013.1, Build901 2013/11/27)

>  <Rbt.Parameter_File>
/export/apps/rDock/src/rDock_2013.1_src/data/scripts/dock_solv.prm

>  <Rbt.Receptor>
prm/blind_docking_100.prm

>  <SCORE>
-4.49602

>  <SCORE.INTER>
2.12663

>  <SCORE.INTER.CONST>
1

>  <SCORE.INTER.POLAR>
0

>  <SCORE.INTER.ROT>
11

>  <SCORE.INTER.SOLV>
5.18752

>  <SCORE.INTER.VDW>
-11.2448

>  <SCORE.INTER.norm>
0.151902

>  <SCORE.INTRA>
-6.62264

>  <SCORE.INTRA.DIHEDRAL>
-13.5063

>  <SCORE.INTRA.DIHEDRAL.0>
17.5233

>  <SCORE.INTRA.POLAR>
0

>  <SCORE.INTRA.POLAR.0>
0

>  <SCORE.INTRA.REPUL>
0

>  <SCORE.INTRA.REPUL.0>
0

>  <SCORE.INTRA.SOLV>
-0.0260312

>  <SCORE.INTRA.SOLV.lig_0>
-46.1043

>  <SCORE.INTRA.VDW>
0.143524

>  <SCORE.INTRA.VDW.0>
-0.545445

>  <SCORE.INTRA.norm>
-0.473046

>  <SCORE.RESTR>
0

>  <SCORE.RESTR.CAVITY>
0

>  <SCORE.RESTR.norm>
0

>  <SCORE.SYSTEM>
0

>  <SCORE.SYSTEM.CONST>
0

>  <SCORE.SYSTEM.DIHEDRAL>
0

>  <SCORE.SYSTEM.SOLV>
0

>  <SCORE.SYSTEM.norm>
0

>  <SCORE.heavy>
14

>  <SCORE.norm>
-0.321144

>  <RMSD>
20.810

$$$$
ligand
 OpenBabel11021811513D
libRbt.so/2013.1/901 2013/11/27
 14 13  0  0  0  0  0  0  0  0999 V2000
   20.6107   63.4559   29.4734 N   0  0  0  0  0  0  0  0  0  0  0  0
   21.3953   64.1469   28.4630 C   0  0  0  0  0  0  0  0  0  0  0  0
   20.6824   64.1019   27.1156 C   0  0  0  0  0  0  0  0  0  0  0  0
   21.5168   64.7709   26.0290 C   0  0  0  0  0  0  0  0  0  0  0  0
   20.9014   64.6868   24.7079 N   0  0  0  0  0  0  0  0  0  0  0  0
   21.3342   63.6817   23.7517 C   0  0  0  0  0  0  0  0  0  0  0  0
   20.7686   62.2978   24.0513 C   0  0  0  0  0  0  0  0  0  0  0  0
   21.6436   61.5875   25.0781 C   0  0  0  0  0  0  0  0  0  0  0  0
   20.9386   60.3305   25.5761 C   0  0  0  0  0  0  0  0  0  0  0  0
   20.7147   59.3708   24.5087 N   0  0  0  0  0  0  0  0  0  0  0  0
   21.6945   58.3181   24.2751 C   0  0  0  0  0  0  0  0  0  0  0  0
   21.1587   57.1035   23.5202 C   0  0  0  0  0  0  0  0  0  0  0  0
   20.7319   57.4930   22.1039 C   0  0  0  0  0  0  0  0  0  0  0  0
   21.8921   57.8719   21.3155 N   0  0  0  0  0  0  0  0  0  0  0  0
  1  2  1  0  0  0  0
  2  3  1  0  0  0  0
  3  4  1  0  0  0  0
  4  5  1  0  0  0  0
  5  6  1  0  0  0  0
  6  7  1  0  0  0  0
  7  8  1  0  0  0  0
  8  9  1  0  0  0  0
  9 10  1  0  0  0  0
 10 11  1  0  0  0  0
 11 12  1  0  0  0  0
 12 13  1  0  0  0  0
 13 14  1  0  0  0  0
M  END
>  <CHROM.1>
-177.62561521,176.94605095,-99.45223871,77.84454388,-84.51387560,169.04899983
62.48443885,93.38473229,158.72378660,64.13420781,67.10811614,21.14171762
61.37265330,24.99780862,2.00536882,1.49929941,0.17089495

>  <Name>
ligand

>  <RI>
0

>  <Rbt.Current_Directory>
/home/itssahil/PROJECTS/Mol_Feturizer/New_Systems/rnas/4P5J

>  <Rbt.Executable>
rbdock ($Id: //depot/dev/client3/rdock/2013.1/src/exe/rbdock.cxx#4 $)

>  <Rbt.Library>
libRbt.so (2013.1, Build901 2013/11/27)

>  <Rbt.Parameter_File>
/export/apps/rDock/src/rDock_2013.1_src/data/scripts/dock_solv.prm

>  <Rbt.Receptor>
prm/blind_docking_80.prm

>  <SCORE>
-5.22847

>  <SCORE.INTER>
1.71545

>  <SCORE.INTER.CONST>
1

>  <SCORE.INTER.POLAR>
0

>  <SCORE.INTER.ROT>
11

>  <SCORE.INTER.SOLV>
8.80807

>  <SCORE.INTER.VDW>
-12.7257

>  <SCORE.INTER.norm>
0.122532

>  <SCORE.INTRA>
-6.94392

>  <SCORE.INTRA.DIHEDRAL>
-12.5531

>  <SCORE.INTRA.DIHEDRAL.0>
17.5233

>  <SCORE.INTRA.POLAR>
0

>  <SCORE.INTRA.POLAR.0>
0

>  <SCORE.INTRA.REPUL>
0

>  <SCORE.INTRA.REPUL.0>
0

>  <SCORE.INTRA.SOLV>
-0.370538

>  <SCORE.INTRA.SOLV.lig_0>
-46.1043

>  <SCORE.INTRA.VDW>
-0.482087

>  <SCORE.INTRA.VDW.0>
-0.545445

>  <SCORE.INTRA.norm>
-0.495994

>  <SCORE.RESTR>
0

>  <SCORE.RESTR.CAVITY>
0

>  <SCORE.RESTR.norm>
0

>  <SCORE.SYSTEM>
0

>  <SCORE.SYSTEM.CONST>
0

>  <SCORE.SYSTEM.DIHEDRAL>
0

>  <SCORE.SYSTEM.SOLV>
0

>  <SCORE.SYSTEM.norm>
0

>  <SCORE.heavy>
14

>  <SCORE.norm>
-0.373462

>  <RMSD>
20.818

$$$$
ligand
 OpenBabel11021811513D
libRbt.so/2013.1/901 2013/11/27
 14 13  0  0  0  0  0  0  0  0999 V2000
   22.0319   59.9442   26.1966 N   0  0  0  0  0  0  0  0  0  0  0  0
   22.8950   59.9839   27.3660 C   0  0  0  0  0  0  0  0  0  0  0  0
   22.0591   60.0309   28.6407 C   0  0  0  0  0  0  0  0  0  0  0  0
   21.2333   61.3106   28.7101 C   0  0  0  0  0  0  0  0  0  0  0  0
   22.0471   62.4995   28.9451 N   0  0  0  0  0  0  0  0  0  0  0  0
   21.4300   63.7517   29.3488 C   0  0  0  0  0  0  0  0  0  0  0  0
   20.5286   64.3418   28.2698 C   0  0  0  0  0  0  0  0  0  0  0  0
   21.3294   64.5829   26.9951 C   0  0  0  0  0  0  0  0  0  0  0  0
   20.3887   64.9728   25.8601 C   0  0  0  0  0  0  0  0  0  0  0  0
   21.0640   64.9939   24.5741 N   0  0  0  0  0  0  0  0  0  0  0  0
   21.2811   63.7433   23.8588 C   0  0  0  0  0  0  0  0  0  0  0  0
   22.7046   63.1970   23.9456 C   0  0  0  0  0  0  0  0  0  0  0  0
   22.7602   61.7525   23.4455 C   0  0  0  0  0  0  0  0  0  0  0  0
   22.4309   61.6971   22.0314 N   0  0  0  0  0  0  0  0  0  0  0  0
  1  2  1  0  0  0  0
  2  3  1  0  0  0  0
  3  4  1  0  0  0  0
  4  5  1  0  0  0  0
  5  6  1  0  0  0  0
  6  7  1  0  0  0  0
  7  8  1  0  0  0  0
  8  9  1  0  0  0  0
  9 10  1  0  0  0  0
 10 11  1  0  0  0  0
 11 12  1  0  0  0  0
 12 13  1  0  0  0  0
 13 14  1  0  0  0  0
M  END
>  <CHROM.1>
-63.69550007,-70.53806312,-165.60058683,-65.71621737,-58.54932572,171.54263154
-170.26282838,80.68059759,-102.58146845,167.22935178,64.70858922,21.72736057
62.62886767,26.29946845,-1.77553354,1.21763922,-1.19547184

>  <Name>
ligand

>  <RI>
0

>  <Rbt.Current_Directory>
/home/itssahil/PROJECTS/Mol_Feturizer/New_Systems/rnas/4P5J

>  <Rbt.Executable>
rbdock ($Id: //depot/dev/client3/rdock/2013.1/src/exe/rbdock.cxx#4 $)

>  <Rbt.Library>
libRbt.so (2013.1, Build901 2013/11/27)

>  <Rbt.Parameter_File>
/export/apps/rDock/src/rDock_2013.1_src/data/scripts/dock_solv.prm

>  <Rbt.Receptor>
prm/blind_docking_80.prm

>  <SCORE>
-6.47378

>  <SCORE.INTER>
0.265689

>  <SCORE.INTER.CONST>
1

>  <SCORE.INTER.POLAR>
0

>  <SCORE.INTER.ROT>
11

>  <SCORE.INTER.SOLV>
11.24

>  <SCORE.INTER.VDW>
-14.5029

>  <SCORE.INTER.norm>
0.0189778

>  <SCORE.INTRA>
-6.73947

>  <SCORE.INTRA.DIHEDRAL>
-14.255

>  <SCORE.INTRA.DIHEDRAL.0>
17.5233

>  <SCORE.INTRA.POLAR>
0

>  <SCORE.INTRA.POLAR.0>
0

>  <SCORE.INTRA.REPUL>
0

>  <SCORE.INTRA.REPUL.0>
0

>  <SCORE.INTRA.SOLV>
1.65198

>  <SCORE.INTRA.SOLV.lig_0>
-46.1043

>  <SCORE.INTRA.VDW>
-0.437977

>  <SCORE.INTRA.VDW.0>
-0.545445

>  <SCORE.INTRA.norm>
-0.481391

>  <SCORE.RESTR>
0

>  <SCORE.RESTR.CAVITY>
0

>  <SCORE.RESTR.norm>
0

>  <SCORE.SYSTEM>
0

>  <SCORE.SYSTEM.CONST>
0

>  <SCORE.SYSTEM.DIHEDRAL>
0

>  <SCORE.SYSTEM.SOLV>
0

>  <SCORE.SYSTEM.norm>
0

>  <SCORE.heavy>
14

>  <SCORE.norm>
-0.462413

>  <RMSD>
20.845

$$$$
ligand
 OpenBabel11021811513D
libRbt.so/2013.1/901 2013/11/27
 14 13  0  0  0  0  0  0  0  0999 V2000
   21.5344   64.4564   25.3709 N   0  0  0  0  0  0  0  0  0  0  0  0
   21.6406   65.2093   26.6102 C   0  0  0  0  0  0  0  0  0  0  0  0
   20.6124   64.7137   27.6216 C   0  0  0  0  0  0  0  0  0  0  0  0
   20.9915   63.3401   28.1634 C   0  0  0  0  0  0  0  0  0  0  0  0
   20.9654   62.2990   27.1403 N   0  0  0  0  0  0  0  0  0  0  0  0
   20.9644   60.8943   27.5126 C   0  0  0  0  0  0  0  0  0  0  0  0
   21.7089   60.0167   26.5125 C   0  0  0  0  0  0  0  0  0  0  0  0
   21.0184   60.0720   25.1543 C   0  0  0  0  0  0  0  0  0  0  0  0
   21.7131   59.1240   24.1828 C   0  0  0  0  0  0  0  0  0  0  0  0
   21.1092   59.1570   22.8619 N   0  0  0  0  0  0  0  0  0  0  0  0
   20.7968   57.9047   22.1860 C   0  0  0  0  0  0  0  0  0  0  0  0
   19.9631   58.0558   20.9154 C   0  0  0  0  0  0  0  0  0  0  0  0
   19.5640   56.6854   20.3653 C   0  0  0  0  0  0  0  0  0  0  0  0
   20.7417   55.9596   19.9211 N   0  0  0  0  0  0  0  0  0  0  0  0
  1  2  1  0  0  0  0
  2  3  1  0  0  0  0
  3  4  1  0  0  0  0
  4  5  1  0  0  0  0
  5  6  1  0  0  0  0
  6  7  1  0  0  0  0
  7  8  1  0  0  0  0
  8  9  1  0  0  0  0
  9 10  1  0  0  0  0
 10 11  1  0  0  0  0
 11 12  1  0  0  0  0
 12 13  1  0  0  0  0
 13 14  1  0  0  0  0
M  END
>  <CHROM.1>
71.94639585,-65.12921430,-164.44770810,-146.82086509,-62.80143440,-176.37521333
-178.89124128,-132.72630124,170.44603177,-173.97018711,-65.81033208,20.95164443
60.56347448,24.60877541,0.82263989,-1.44729982,0.01238015

>  <Name>
ligand

>  <RI>
0

>  <Rbt.Current_Directory>
/home/itssahil/PROJECTS/Mol_Feturizer/New_Systems/rnas/4P5J

>  <Rbt.Executable>
rbdock ($Id: //depot/dev/client3/rdock/2013.1/src/exe/rbdock.cxx#4 $)

>  <Rbt.Library>
libRbt.so (2013.1, Build901 2013/11/27)

>  <Rbt.Parameter_File>
/export/apps/rDock/src/rDock_2013.1_src/data/scripts/dock_solv.prm

>  <Rbt.Receptor>
prm/blind_docking_80.prm

>  <SCORE>
-6.99035

>  <SCORE.INTER>
0.0826986

>  <SCORE.INTER.CONST>
1

>  <SCORE.INTER.POLAR>
0

>  <SCORE.INTER.ROT>
11

>  <SCORE.INTER.SOLV>
8.50738

>  <SCORE.INTER.VDW>
-13.714

>  <SCORE.INTER.norm>
0.00590704

>  <SCORE.INTRA>
-7.07305

>  <SCORE.INTRA.DIHEDRAL>
-14.5166

>  <SCORE.INTRA.DIHEDRAL.0>
17.5233

>  <SCORE.INTRA.POLAR>
0

>  <SCORE.INTRA.POLAR.0>
0

>  <SCORE.INTRA.REPUL>
0

>  <SCORE.INTRA.REPUL.0>
0

>  <SCORE.INTRA.SOLV>
1.4794

>  <SCORE.INTRA.SOLV.lig_0>
-46.1043

>  <SCORE.INTRA.VDW>
-0.554449

>  <SCORE.INTRA.VDW.0>
-0.545445

>  <SCORE.INTRA.norm>
-0.505218

>  <SCORE.RESTR>
0

>  <SCORE.RESTR.CAVITY>
0

>  <SCORE.RESTR.norm>
0

>  <SCORE.SYSTEM>
0

>  <SCORE.SYSTEM.CONST>
0

>  <SCORE.SYSTEM.DIHEDRAL>
0

>  <SCORE.SYSTEM.SOLV>
0

>  <SCORE.SYSTEM.norm>
0

>  <SCORE.heavy>
14

>  <SCORE.norm>
-0.499311

>  <RMSD>
20.890

$$$$
ligand
 OpenBabel11021811513D
libRbt.so/2013.1/901 2013/11/27
 14 13  0  0  0  0  0  0  0  0999 V2000
   19.9070   54.0404   16.6083 N   0  0  0  0  0  0  0  0  0  0  0  0
   20.0186   54.6833   17.9076 C   0  0  0  0  0  0  0  0  0  0  0  0
   18.8377   54.2986   18.7927 C   0  0  0  0  0  0  0  0  0  0  0  0
   18.9250   54.9805   20.1535 C   0  0  0  0  0  0  0  0  0  0  0  0
   20.0392   54.4944   20.9618 N   0  0  0  0  0  0  0  0  0  0  0  0
   20.2786   55.0295   22.2916 C   0  0  0  0  0  0  0  0  0  0  0  0
   20.8957   56.4235   22.2660 C   0  0  0  0  0  0  0  0  0  0  0  0
   21.1147   56.9235   23.6896 C   0  0  0  0  0  0  0  0  0  0  0  0
   21.6776   58.3403   23.6585 C   0  0  0  0  0  0  0  0  0  0  0  0
   21.9169   58.8621   24.9930 N   0  0  0  0  0  0  0  0  0  0  0  0
   21.0587   59.9183   25.5133 C   0  0  0  0  0  0  0  0  0  0  0  0
   21.2617   60.2346   26.9936 C   0  0  0  0  0  0  0  0  0  0  0  0
   20.3767   61.4064   27.4217 C   0  0  0  0  0  0  0  0  0  0  0  0
   20.6287   61.7449   28.8121 N   0  0  0  0  0  0  0  0  0  0  0  0
  1  2  1  0  0  0  0
  2  3  1  0  0  0  0
  3  4  1  0  0  0  0
  4  5  1  0  0  0  0
  5  6  1  0  0  0  0
  6  7  1  0  0  0  0
  7  8  1  0  0  0  0
  8  9  1  0  0  0  0
  9 10  1  0  0  0  0
 10 11  1  0  0  0  0
 11 12  1  0  0  0  0
 12 13  1  0  0  0  0
 13 14  1  0  0  0  0
M  END
>  <CHROM.1>
-179.11615279,-67.70185517,-179.93241517,-75.20134617,179.81595300,-177.64952622
-179.48932601,-109.10312467,170.90107107,176.70138678,-176.99850993,20.49544508
57.24143946,22.86166115,-2.38207012,1.39538675,1.73533948

>  <Name>
ligand

>  <RI>
0

>  <Rbt.Current_Directory>
/home/itssahil/PROJECTS/Mol_Feturizer/New_Systems/rnas/4P5J

>  <Rbt.Executable>
rbdock ($Id: //depot/dev/client3/rdock/2013.1/src/exe/rbdock.cxx#4 $)

>  <Rbt.Library>
libRbt.so (2013.1, Build901 2013/11/27)

>  <Rbt.Parameter_File>
/export/apps/rDock/src/rDock_2013.1_src/data/scripts/dock_solv.prm

>  <Rbt.Receptor>
prm/blind_docking_80.prm

>  <SCORE>
-8.79584

>  <SCORE.INTER>
0.836691

>  <SCORE.INTER.CONST>
1

>  <SCORE.INTER.POLAR>
0

>  <SCORE.INTER.ROT>
11

>  <SCORE.INTER.SOLV>
10.0702

>  <SCORE.INTER.VDW>
-13.7323

>  <SCORE.INTER.norm>
0.0597636

>  <SCORE.INTRA>
-9.63253

>  <SCORE.INTRA.DIHEDRAL>
-15.8476

>  <SCORE.INTRA.DIHEDRAL.0>
17.5233

>  <SCORE.INTRA.POLAR>
0

>  <SCORE.INTRA.POLAR.0>
0

>  <SCORE.INTRA.REPUL>
0

>  <SCORE.INTRA.REPUL.0>
0

>  <SCORE.INTRA.SOLV>
-2.41251

>  <SCORE.INTRA.SOLV.lig_0>
-46.1043

>  <SCORE.INTRA.VDW>
-0.502489

>  <SCORE.INTRA.VDW.0>
-0.545445

>  <SCORE.INTRA.norm>
-0.688038

>  <SCORE.RESTR>
0

>  <SCORE.RESTR.CAVITY>
0

>  <SCORE.RESTR.norm>
0

>  <SCORE.SYSTEM>
0

>  <SCORE.SYSTEM.CONST>
0

>  <SCORE.SYSTEM.DIHEDRAL>
0

>  <SCORE.SYSTEM.SOLV>
0

>  <SCORE.SYSTEM.norm>
0

>  <SCORE.heavy>
14

>  <SCORE.norm>
-0.628274

>  <RMSD>
20.963

$$$$
ligand
 OpenBabel11021811513D
libRbt.so/2013.1/901 2013/11/27
 14 13  0  0  0  0  0  0  0  0999 V2000
   19.0856   57.2284   18.9818 N   0  0  0  0  0  0  0  0  0  0  0  0
   19.4823   57.7560   20.2773 C   0  0  0  0  0  0  0  0  0  0  0  0
   21.0017   57.8493   20.3692 C   0  0  0  0  0  0  0  0  0  0  0  0
   21.4369   58.4358   21.7074 C   0  0  0  0  0  0  0  0  0  0  0  0
   21.1005   57.5780   22.8397 N   0  0  0  0  0  0  0  0  0  0  0  0
   21.7046   57.8002   24.1426 C   0  0  0  0  0  0  0  0  0  0  0  0
   21.0636   58.9563   24.9025 C   0  0  0  0  0  0  0  0  0  0  0  0
   21.7697   59.1580   26.2386 C   0  0  0  0  0  0  0  0  0  0  0  0
   21.0681   60.2541   27.0333 C   0  0  0  0  0  0  0  0  0  0  0  0
   21.1401   61.5430   26.3669 N   0  0  0  0  0  0  0  0  0  0  0  0
   20.6752   62.7356   27.0626 C   0  0  0  0  0  0  0  0  0  0  0  0
   20.9206   64.0458   26.3173 C   0  0  0  0  0  0  0  0  0  0  0  0
   20.5585   65.2436   27.1970 C   0  0  0  0  0  0  0  0  0  0  0  0
   19.1364   65.2367   27.4950 N   0  0  0  0  0  0  0  0  0  0  0  0
  1  2  1  0  0  0  0
  2  3  1  0  0  0  0
  3  4  1  0  0  0  0
  4  5  1  0  0  0  0
  5  6  1  0  0  0  0
  6  7  1  0  0  0  0
  7  8  1  0  0  0  0
  8  9  1  0  0  0  0
  9 10  1  0  0  0  0
 10 11  1  0  0  0  0
 11 12  1  0  0  0  0
 12 13  1  0  0  0  0
 13 14  1  0  0  0  0
M  END
>  <CHROM.1>
178.48162891,65.28985149,165.17644926,78.36337074,-178.39317163,-176.31950056
-63.50564637,-172.10756688,174.50663758,-173.01172857,-64.09078563,20.72479750
60.27287138,24.35240107,1.58978378,1.08072049,-2.36552980

>  <Name>
ligand

>  <RI>
0

>  <Rbt.Current_Directory>
/home/itssahil/PROJECTS/Mol_Feturizer/New_Systems/rnas/4P5J

>  <Rbt.Executable>
rbdock ($Id: //depot/dev/client3/rdock/2013.1/src/exe/rbdock.cxx#4 $)

>  <Rbt.Library>
libRbt.so (2013.1, Build901 2013/11/27)

>  <Rbt.Parameter_File>
/export/apps/rDock/src/rDock_2013.1_src/data/scripts/dock_solv.prm

>  <Rbt.Receptor>
prm/blind_docking_100.prm

>  <SCORE>
-7.66551

>  <SCORE.INTER>
1.45979

>  <SCORE.INTER.CONST>
1

>  <SCORE.INTER.POLAR>
0

>  <SCORE.INTER.ROT>
11

>  <SCORE.INTER.SOLV>
6.76141

>  <SCORE.INTER.VDW>
-12.2139

>  <SCORE.INTER.norm>
0.104271

>  <SCORE.INTRA>
-9.1253

>  <SCORE.INTRA.DIHEDRAL>
-16.5472

>  <SCORE.INTRA.DIHEDRAL.0>
17.5233

>  <SCORE.INTRA.POLAR>
0

>  <SCORE.INTRA.POLAR.0>
0

>  <SCORE.INTRA.REPUL>
0

>  <SCORE.INTRA.REPUL.0>
0

>  <SCORE.INTRA.SOLV>
-1.22038

>  <SCORE.INTRA.SOLV.lig_0>
-46.1043

>  <SCORE.INTRA.VDW>
-0.24151

>  <SCORE.INTRA.VDW.0>
-0.545445

>  <SCORE.INTRA.norm>
-0.651807

>  <SCORE.RESTR>
0

>  <SCORE.RESTR.CAVITY>
0

>  <SCORE.RESTR.norm>
0

>  <SCORE.SYSTEM>
0

>  <SCORE.SYSTEM.CONST>
0

>  <SCORE.SYSTEM.DIHEDRAL>
0

>  <SCORE.SYSTEM.SOLV>
0

>  <SCORE.SYSTEM.norm>
0

>  <SCORE.heavy>
14

>  <SCORE.norm>
-0.547537

>  <RMSD>
21.024

$$$$
ligand
 OpenBabel11021811513D
libRbt.so/2013.1/901 2013/11/27
 14 13  0  0  0  0  0  0  0  0999 V2000
   18.0983   56.6891   16.2324 N   0  0  0  0  0  0  0  0  0  0  0  0
   17.2778   55.8310   17.0717 C   0  0  0  0  0  0  0  0  0  0  0  0
   17.7040   55.9523   18.5310 C   0  0  0  0  0  0  0  0  0  0  0  0
   19.1520   55.5141   18.7195 C   0  0  0  0  0  0  0  0  0  0  0  0
   19.5536   55.4692   20.1223 N   0  0  0  0  0  0  0  0  0  0  0  0
   19.0205   54.4524   21.0133 C   0  0  0  0  0  0  0  0  0  0  0  0
   19.5938   54.5418   22.4233 C   0  0  0  0  0  0  0  0  0  0  0  0
   18.9680   53.4710   23.3100 C   0  0  0  0  0  0  0  0  0  0  0  0
   19.5239   53.5830   24.7255 C   0  0  0  0  0  0  0  0  0  0  0  0
   20.9553   53.3391   24.7708 N   0  0  0  0  0  0  0  0  0  0  0  0
   21.5188   52.5884   25.8850 C   0  0  0  0  0  0  0  0  0  0  0  0
   23.0424   52.4830   25.8782 C   0  0  0  0  0  0  0  0  0  0  0  0
   23.5281   51.7611   24.6202 C   0  0  0  0  0  0  0  0  0  0  0  0
   23.3256   52.5986   23.4502 N   0  0  0  0  0  0  0  0  0  0  0  0
  1  2  1  0  0  0  0
  2  3  1  0  0  0  0
  3  4  1  0  0  0  0
  4  5  1  0  0  0  0
  5  6  1  0  0  0  0
  6  7  1  0  0  0  0
  7  8  1  0  0  0  0
  8  9  1  0  0  0  0
  9 10  1  0  0  0  0
 10 11  1  0  0  0  0
 11 12  1  0  0  0  0
 12 13  1  0  0  0  0
 13 14  1  0  0  0  0
M  END
>  <CHROM.1>
-61.26270449,-173.42763371,70.10057034,178.06827967,178.63160998,-178.86364404
-63.01150721,-141.13723520,-175.73205285,-61.11359199,70.19924837,20.08999656
54.16228954,21.91127410,-2.06233112,-0.28193440,1.85892602

>  <Name>
ligand

>  <RI>
0

>  <Rbt.Current_Directory>
/home/itssahil/PROJECTS/Mol_Feturizer/New_Systems/rnas/4P5J

>  <Rbt.Executable>
rbdock ($Id: //depot/dev/client3/rdock/2013.1/src/exe/rbdock.cxx#4 $)

>  <Rbt.Library>
libRbt.so (2013.1, Build901 2013/11/27)

>  <Rbt.Parameter_File>
/export/apps/rDock/src/rDock_2013.1_src/data/scripts/dock_solv.prm

>  <Rbt.Receptor>
prm/blind_docking_80.prm

>  <SCORE>
-11.1204

>  <SCORE.INTER>
-3.92887

>  <SCORE.INTER.CONST>
1

>  <SCORE.INTER.POLAR>
0

>  <SCORE.INTER.ROT>
11

>  <SCORE.INTER.SOLV>
12.4943

>  <SCORE.INTER.VDW>
-17.7174

>  <SCORE.INTER.norm>
-0.280634

>  <SCORE.INTRA>
-7.19148

>  <SCORE.INTRA.DIHEDRAL>
-15.9512

>  <SCORE.INTRA.DIHEDRAL.0>
17.5233

>  <SCORE.INTRA.POLAR>
0

>  <SCORE.INTRA.POLAR.0>
0

>  <SCORE.INTRA.REPUL>
0

>  <SCORE.INTRA.REPUL.0>
0

>  <SCORE.INTRA.SOLV>
1.82558

>  <SCORE.INTRA.SOLV.lig_0>
-46.1043

>  <SCORE.INTRA.VDW>
-0.128671

>  <SCORE.INTRA.VDW.0>
-0.545445

>  <SCORE.INTRA.norm>
-0.513677

>  <SCORE.RESTR>
0

>  <SCORE.RESTR.CAVITY>
0

>  <SCORE.RESTR.norm>
0

>  <SCORE.SYSTEM>
0

>  <SCORE.SYSTEM.CONST>
0

>  <SCORE.SYSTEM.DIHEDRAL>
0

>  <SCORE.SYSTEM.SOLV>
0

>  <SCORE.SYSTEM.norm>
0

>  <SCORE.heavy>
14

>  <SCORE.norm>
-0.794311

>  <RMSD>
21.047

$$$$
ligand
 OpenBabel11021811513D
libRbt.so/2013.1/901 2013/11/27
 14 13  0  0  0  0  0  0  0  0999 V2000
   18.1977   60.1621   19.8938 N   0  0  0  0  0  0  0  0  0  0  0  0
   19.1912   59.2839   20.4902 C   0  0  0  0  0  0  0  0  0  0  0  0
   19.0286   57.8628   19.9610 C   0  0  0  0  0  0  0  0  0  0  0  0
   20.1049   56.9403   20.5222 C   0  0  0  0  0  0  0  0  0  0  0  0
   20.0289   56.7958   21.9729 N   0  0  0  0  0  0  0  0  0  0  0  0
   21.2332   56.5967   22.7616 C   0  0  0  0  0  0  0  0  0  0  0  0
   21.4035   57.6445   23.8560 C   0  0  0  0  0  0  0  0  0  0  0  0
   21.5233   59.0322   23.2360 C   0  0  0  0  0  0  0  0  0  0  0  0
   21.7707   60.0666   24.3287 C   0  0  0  0  0  0  0  0  0  0  0  0
   20.6483   60.1720   25.2449 N   0  0  0  0  0  0  0  0  0  0  0  0
   20.6771   61.1765   26.2998 C   0  0  0  0  0  0  0  0  0  0  0  0
   21.3217   60.7138   27.6046 C   0  0  0  0  0  0  0  0  0  0  0  0
   21.3324   61.8461   28.6330 C   0  0  0  0  0  0  0  0  0  0  0  0
   19.9727   62.2320   28.9698 N   0  0  0  0  0  0  0  0  0  0  0  0
  1  2  1  0  0  0  0
  2  3  1  0  0  0  0
  3  4  1  0  0  0  0
  4  5  1  0  0  0  0
  5  6  1  0  0  0  0
  6  7  1  0  0  0  0
  7  8  1  0  0  0  0
  8  9  1  0  0  0  0
  9 10  1  0  0  0  0
 10 11  1  0  0  0  0
 11 12  1  0  0  0  0
 12 13  1  0  0  0  0
 13 14  1  0  0  0  0
M  END
>  <CHROM.1>
177.20224300,63.20183104,-147.62696918,123.84963773,-61.50977917,-176.88003878
-64.26960233,-175.95734696,-88.93693801,178.66936614,62.92294393,20.45990288
59.32302680,23.84095736,1.84053509,0.92891291,-2.24670963

>  <Name>
ligand

>  <RI>
0

>  <Rbt.Current_Directory>
/home/itssahil/PROJECTS/Mol_Feturizer/New_Systems/rnas/4P5J

>  <Rbt.Executable>
rbdock ($Id: //depot/dev/client3/rdock/2013.1/src/exe/rbdock.cxx#4 $)

>  <Rbt.Library>
libRbt.so (2013.1, Build901 2013/11/27)

>  <Rbt.Parameter_File>
/export/apps/rDock/src/rDock_2013.1_src/data/scripts/dock_solv.prm

>  <Rbt.Receptor>
prm/blind_docking_80.prm

>  <SCORE>
-5.31391

>  <SCORE.INTER>
3.11261

>  <SCORE.INTER.CONST>
1

>  <SCORE.INTER.POLAR>
0

>  <SCORE.INTER.ROT>
11

>  <SCORE.INTER.SOLV>
11.3024

>  <SCORE.INTER.VDW>
-12.6257

>  <SCORE.INTER.norm>
0.22233

>  <SCORE.INTRA>
-8.42652

>  <SCORE.INTRA.DIHEDRAL>
-14.8558

>  <SCORE.INTRA.DIHEDRAL.0>
17.5233

>  <SCORE.INTRA.POLAR>
0

>  <SCORE.INTRA.POLAR.0>
0

>  <SCORE.INTRA.REPUL>
0

>  <SCORE.INTRA.REPUL.0>
0

>  <SCORE.INTRA.SOLV>
-0.743746

>  <SCORE.INTRA.SOLV.lig_0>
-46.1043

>  <SCORE.INTRA.VDW>
-0.626744

>  <SCORE.INTRA.VDW.0>
-0.545445

>  <SCORE.INTRA.norm>
-0.601894

>  <SCORE.RESTR>
0

>  <SCORE.RESTR.CAVITY>
0

>  <SCORE.RESTR.norm>
0

>  <SCORE.SYSTEM>
0

>  <SCORE.SYSTEM.CONST>
0

>  <SCORE.SYSTEM.DIHEDRAL>
0

>  <SCORE.SYSTEM.SOLV>
0

>  <SCORE.SYSTEM.norm>
0

>  <SCORE.heavy>
14

>  <SCORE.norm>
-0.379565

>  <RMSD>
21.157

$$$$
ligand
 OpenBabel11021811513D
libRbt.so/2013.1/901 2013/11/27
 14 13  0  0  0  0  0  0  0  0999 V2000
   19.9324   62.5432   28.5052 N   0  0  0  0  0  0  0  0  0  0  0  0
   20.4277   62.0446   27.2325 C   0  0  0  0  0  0  0  0  0  0  0  0
   20.9219   60.6095   27.3813 C   0  0  0  0  0  0  0  0  0  0  0  0
   21.4627   60.0741   26.0602 C   0  0  0  0  0  0  0  0  0  0  0  0
   21.8088   58.6572   26.1208 N   0  0  0  0  0  0  0  0  0  0  0  0
   22.3171   57.9679   24.9467 C   0  0  0  0  0  0  0  0  0  0  0  0
   21.2923   57.8825   23.8210 C   0  0  0  0  0  0  0  0  0  0  0  0
   21.8841   57.1336   22.6322 C   0  0  0  0  0  0  0  0  0  0  0  0
   20.8898   57.1315   21.4761 C   0  0  0  0  0  0  0  0  0  0  0  0
   21.3945   56.4061   20.3231 N   0  0  0  0  0  0  0  0  0  0  0  0
   21.0563   56.8669   18.9830 C   0  0  0  0  0  0  0  0  0  0  0  0
   21.4929   55.9318   17.8572 C   0  0  0  0  0  0  0  0  0  0  0  0
   21.2157   56.5638   16.4921 C   0  0  0  0  0  0  0  0  0  0  0  0
   19.7856   56.7309   16.2967 N   0  0  0  0  0  0  0  0  0  0  0  0
  1  2  1  0  0  0  0
  2  3  1  0  0  0  0
  3  4  1  0  0  0  0
  4  5  1  0  0  0  0
  5  6  1  0  0  0  0
  6  7  1  0  0  0  0
  7  8  1  0  0  0  0
  8  9  1  0  0  0  0
  9 10  1  0  0  0  0
 10 11  1  0  0  0  0
 11 12  1  0  0  0  0
 12 13  1  0  0  0  0
 13 14  1  0  0  0  0
M  END
>  <CHROM.1>
-179.26450454,-173.61450525,178.84216325,-65.13295904,-179.24923104,-176.25969424
-178.87112559,-145.30911997,-172.66819974,-174.52207766,-64.72673325,21.13457746
58.32443595,22.72340579,1.58405636,-0.96830302,1.14207247

>  <Name>
ligand

>  <RI>
0

>  <Rbt.Current_Directory>
/home/itssahil/PROJECTS/Mol_Feturizer/New_Systems/rnas/4P5J

>  <Rbt.Executable>
rbdock ($Id: //depot/dev/client3/rdock/2013.1/src/exe/rbdock.cxx#4 $)

>  <Rbt.Library>
libRbt.so (2013.1, Build901 2013/11/27)

>  <Rbt.Parameter_File>
/export/apps/rDock/src/rDock_2013.1_src/data/scripts/dock_solv.prm

>  <Rbt.Receptor>
prm/blind_docking_80.prm

>  <SCORE>
-6.97733

>  <SCORE.INTER>
2.33199

>  <SCORE.INTER.CONST>
1

>  <SCORE.INTER.POLAR>
0

>  <SCORE.INTER.ROT>
11

>  <SCORE.INTER.SOLV>
8.48378

>  <SCORE.INTER.VDW>
-12.2066

>  <SCORE.INTER.norm>
0.166571

>  <SCORE.INTRA>
-9.30932

>  <SCORE.INTRA.DIHEDRAL>
-16.2939

>  <SCORE.INTRA.DIHEDRAL.0>
17.5233

>  <SCORE.INTRA.POLAR>
0

>  <SCORE.INTRA.POLAR.0>
0

>  <SCORE.INTRA.REPUL>
0

>  <SCORE.INTRA.REPUL.0>
0

>  <SCORE.INTRA.SOLV>
-1.97931

>  <SCORE.INTRA.SOLV.lig_0>
-46.1043

>  <SCORE.INTRA.VDW>
-0.172717

>  <SCORE.INTRA.VDW.0>
-0.545445

>  <SCORE.INTRA.norm>
-0.664952

>  <SCORE.RESTR>
0

>  <SCORE.RESTR.CAVITY>
0

>  <SCORE.RESTR.norm>
0

>  <SCORE.SYSTEM>
0

>  <SCORE.SYSTEM.CONST>
0

>  <SCORE.SYSTEM.DIHEDRAL>
0

>  <SCORE.SYSTEM.SOLV>
0

>  <SCORE.SYSTEM.norm>
0

>  <SCORE.heavy>
14

>  <SCORE.norm>
-0.498381

>  <RMSD>
21.273

$$$$
ligand
 OpenBabel11021811513D
libRbt.so/2013.1/901 2013/11/27
 14 13  0  0  0  0  0  0  0  0999 V2000
   22.5157   59.0456   28.1250 N   0  0  0  0  0  0  0  0  0  0  0  0
   22.5279   58.9144   26.6770 C   0  0  0  0  0  0  0  0  0  0  0  0
   22.0367   60.2019   26.0237 C   0  0  0  0  0  0  0  0  0  0  0  0
   22.0347   60.0817   24.5039 C   0  0  0  0  0  0  0  0  0  0  0  0
   21.6190   61.3123   23.8375 N   0  0  0  0  0  0  0  0  0  0  0  0
   22.5360   62.4325   23.7113 C   0  0  0  0  0  0  0  0  0  0  0  0
   21.8786   63.7730   24.0207 C   0  0  0  0  0  0  0  0  0  0  0  0
   21.3489   63.7768   25.4504 C   0  0  0  0  0  0  0  0  0  0  0  0
   20.8940   65.1821   25.8289 C   0  0  0  0  0  0  0  0  0  0  0  0
   20.4647   65.2624   27.2144 N   0  0  0  0  0  0  0  0  0  0  0  0
   19.0420   65.2281   27.5263 C   0  0  0  0  0  0  0  0  0  0  0  0
   18.3162   66.5593   27.3438 C   0  0  0  0  0  0  0  0  0  0  0  0
   16.8138   66.3918   27.5773 C   0  0  0  0  0  0  0  0  0  0  0  0
   16.2472   65.4972   26.5823 N   0  0  0  0  0  0  0  0  0  0  0  0
  1  2  1  0  0  0  0
  2  3  1  0  0  0  0
  3  4  1  0  0  0  0
  4  5  1  0  0  0  0
  5  6  1  0  0  0  0
  6  7  1  0  0  0  0
  7  8  1  0  0  0  0
  8  9  1  0  0  0  0
  9 10  1  0  0  0  0
 10 11  1  0  0  0  0
 11 12  1  0  0  0  0
 12 13  1  0  0  0  0
 13 14  1  0  0  0  0
M  END
>  <CHROM.1>
-179.68753595,-177.80055150,77.37105170,-136.31331403,60.10995096,171.05890348
-176.04531952,-99.85355405,-80.48592626,175.08273014,-63.49884677,20.59124433
63.11863602,26.03001715,0.48271216,-0.84497461,2.42424837

>  <Name>
ligand

>  <RI>
0

>  <Rbt.Current_Directory>
/home/itssahil/PROJECTS/Mol_Feturizer/New_Systems/rnas/4P5J

>  <Rbt.Executable>
rbdock ($Id: //depot/dev/client3/rdock/2013.1/src/exe/rbdock.cxx#4 $)

>  <Rbt.Library>
libRbt.so (2013.1, Build901 2013/11/27)

>  <Rbt.Parameter_File>
/export/apps/rDock/src/rDock_2013.1_src/data/scripts/dock_solv.prm

>  <Rbt.Receptor>
prm/blind_docking_80.prm

>  <SCORE>
-8.68995

>  <SCORE.INTER>
-0.371711

>  <SCORE.INTER.CONST>
1

>  <SCORE.INTER.POLAR>
0

>  <SCORE.INTER.ROT>
11

>  <SCORE.INTER.SOLV>
8.25505

>  <SCORE.INTER.VDW>
-13.9328

>  <SCORE.INTER.norm>
-0.0265508

>  <SCORE.INTRA>
-8.31824

>  <SCORE.INTRA.DIHEDRAL>
-14.5442

>  <SCORE.INTRA.DIHEDRAL.0>
17.5233

>  <SCORE.INTRA.POLAR>
0

>  <SCORE.INTRA.POLAR.0>
0

>  <SCORE.INTRA.REPUL>
0

>  <SCORE.INTRA.REPUL.0>
0

>  <SCORE.INTRA.SOLV>
-1.47755

>  <SCORE.INTRA.SOLV.lig_0>
-46.1043

>  <SCORE.INTRA.VDW>
-0.30734

>  <SCORE.INTRA.VDW.0>
-0.545445

>  <SCORE.INTRA.norm>
-0.59416

>  <SCORE.RESTR>
0

>  <SCORE.RESTR.CAVITY>
0

>  <SCORE.RESTR.norm>
0

>  <SCORE.SYSTEM>
0

>  <SCORE.SYSTEM.CONST>
0

>  <SCORE.SYSTEM.DIHEDRAL>
0

>  <SCORE.SYSTEM.SOLV>
0

>  <SCORE.SYSTEM.norm>
0

>  <SCORE.heavy>
14

>  <SCORE.norm>
-0.620711

>  <RMSD>
21.280

$$$$
ligand
 OpenBabel11021811513D
libRbt.so/2013.1/901 2013/11/27
 14 13  0  0  0  0  0  0  0  0999 V2000
   19.9214   62.8355   26.8922 N   0  0  0  0  0  0  0  0  0  0  0  0
   20.7763   61.7957   26.3427 C   0  0  0  0  0  0  0  0  0  0  0  0
   21.0102   60.6998   27.3772 C   0  0  0  0  0  0  0  0  0  0  0  0
   22.0550   59.7005   26.8935 C   0  0  0  0  0  0  0  0  0  0  0  0
   21.6241   58.9540   25.7152 N   0  0  0  0  0  0  0  0  0  0  0  0
   22.5115   57.9936   25.0813 C   0  0  0  0  0  0  0  0  0  0  0  0
   21.7858   57.0688   24.1103 C   0  0  0  0  0  0  0  0  0  0  0  0
   21.2824   57.8632   22.9103 C   0  0  0  0  0  0  0  0  0  0  0  0
   20.5612   56.9331   21.9409 C   0  0  0  0  0  0  0  0  0  0  0  0
   20.1369   57.6236   20.7352 N   0  0  0  0  0  0  0  0  0  0  0  0
   18.9748   57.1376   20.0032 C   0  0  0  0  0  0  0  0  0  0  0  0
   19.0975   55.7049   19.4888 C   0  0  0  0  0  0  0  0  0  0  0  0
   17.8958   55.3398   18.6157 C   0  0  0  0  0  0  0  0  0  0  0  0
   17.9043   56.1266   17.3942 N   0  0  0  0  0  0  0  0  0  0  0  0
  1  2  1  0  0  0  0
  2  3  1  0  0  0  0
  3  4  1  0  0  0  0
  4  5  1  0  0  0  0
  5  6  1  0  0  0  0
  6  7  1  0  0  0  0
  7  8  1  0  0  0  0
  8  9  1  0  0  0  0
  9 10  1  0  0  0  0
 10 11  1  0  0  0  0
 11 12  1  0  0  0  0
 12 13  1  0  0  0  0
 13 14  1  0  0  0  0
M  END
>  <CHROM.1>
-172.12173490,-64.81136976,177.55247321,165.26564734,67.20903301,179.83463408
-176.21443746,-152.43828616,-60.02458497,-174.15478197,66.74935849,20.39571277
58.26950622,23.10736129,1.18873668,-0.75282430,0.76265188

>  <Name>
ligand

>  <RI>
0

>  <Rbt.Current_Directory>
/home/itssahil/PROJECTS/Mol_Feturizer/New_Systems/rnas/4P5J

>  <Rbt.Executable>
rbdock ($Id: //depot/dev/client3/rdock/2013.1/src/exe/rbdock.cxx#4 $)

>  <Rbt.Library>
libRbt.so (2013.1, Build901 2013/11/27)

>  <Rbt.Parameter_File>
/export/apps/rDock/src/rDock_2013.1_src/data/scripts/dock_solv.prm

>  <Rbt.Receptor>
prm/blind_docking_100.prm

>  <SCORE>
-7.93475

>  <SCORE.INTER>
0.701627

>  <SCORE.INTER.CONST>
1

>  <SCORE.INTER.POLAR>
0

>  <SCORE.INTER.ROT>
11

>  <SCORE.INTER.SOLV>
8.90639

>  <SCORE.INTER.VDW>
-13.4344

>  <SCORE.INTER.norm>
0.0501162

>  <SCORE.INTRA>
-8.63638

>  <SCORE.INTRA.DIHEDRAL>
-15.959

>  <SCORE.INTRA.DIHEDRAL.0>
17.5233

>  <SCORE.INTRA.POLAR>
0

>  <SCORE.INTRA.POLAR.0>
0

>  <SCORE.INTRA.REPUL>
0

>  <SCORE.INTRA.REPUL.0>
0

>  <SCORE.INTRA.SOLV>
-1.24072

>  <SCORE.INTRA.SOLV.lig_0>
-46.1043

>  <SCORE.INTRA.VDW>
-0.0365282

>  <SCORE.INTRA.VDW.0>
-0.545445

>  <SCORE.INTRA.norm>
-0.616884

>  <SCORE.RESTR>
0

>  <SCORE.RESTR.CAVITY>
0

>  <SCORE.RESTR.norm>
0

>  <SCORE.SYSTEM>
0

>  <SCORE.SYSTEM.CONST>
0

>  <SCORE.SYSTEM.DIHEDRAL>
0

>  <SCORE.SYSTEM.SOLV>
0

>  <SCORE.SYSTEM.norm>
0

>  <SCORE.heavy>
14

>  <SCORE.norm>
-0.566768

>  <RMSD>
21.291

$$$$
ligand
 OpenBabel11021811513D
libRbt.so/2013.1/901 2013/11/27
 14 13  0  0  0  0  0  0  0  0999 V2000
   21.3004   62.7371   30.9954 N   0  0  0  0  0  0  0  0  0  0  0  0
   21.8040   63.6711   30.0014 C   0  0  0  0  0  0  0  0  0  0  0  0
   20.8865   63.6951   28.7834 C   0  0  0  0  0  0  0  0  0  0  0  0
   21.4269   64.6282   27.7058 C   0  0  0  0  0  0  0  0  0  0  0  0
   20.5873   64.6637   26.5121 N   0  0  0  0  0  0  0  0  0  0  0  0
   21.1719   64.8943   25.2017 C   0  0  0  0  0  0  0  0  0  0  0  0
   20.1405   64.8595   24.0794 C   0  0  0  0  0  0  0  0  0  0  0  0
   20.8329   65.0100   22.7294 C   0  0  0  0  0  0  0  0  0  0  0  0
   21.4030   63.6662   22.2887 C   0  0  0  0  0  0  0  0  0  0  0  0
   22.3421   63.1273   23.2573 N   0  0  0  0  0  0  0  0  0  0  0  0
   22.7865   61.7456   23.1315 C   0  0  0  0  0  0  0  0  0  0  0  0
   23.0506   61.0367   24.4582 C   0  0  0  0  0  0  0  0  0  0  0  0
   21.7430   60.8089   25.2185 C   0  0  0  0  0  0  0  0  0  0  0  0
   22.0011   60.1039   26.4625 N   0  0  0  0  0  0  0  0  0  0  0  0
  1  2  1  0  0  0  0
  2  3  1  0  0  0  0
  3  4  1  0  0  0  0
  4  5  1  0  0  0  0
  5  6  1  0  0  0  0
  6  7  1  0  0  0  0
  7  8  1  0  0  0  0
  8  9  1  0  0  0  0
  9 10  1  0  0  0  0
 10 11  1  0  0  0  0
 11 12  1  0  0  0  0
 12 13  1  0  0  0  0
 13 14  1  0  0  0  0
M  END
>  <CHROM.1>
-177.77202941,179.08648781,-148.92181376,178.49801916,-176.03665602,81.15315388
-58.10412862,168.24345665,-146.23598090,68.60699824,178.54844469,21.53404181
63.18933904,25.77280222,-1.72183825,1.18967990,-1.44293958

>  <Name>
ligand

>  <RI>
0

>  <Rbt.Current_Directory>
/home/itssahil/PROJECTS/Mol_Feturizer/New_Systems/rnas/4P5J

>  <Rbt.Executable>
rbdock ($Id: //depot/dev/client3/rdock/2013.1/src/exe/rbdock.cxx#4 $)

>  <Rbt.Library>
libRbt.so (2013.1, Build901 2013/11/27)

>  <Rbt.Parameter_File>
/export/apps/rDock/src/rDock_2013.1_src/data/scripts/dock_solv.prm

>  <Rbt.Receptor>
prm/blind_docking_80.prm

>  <SCORE>
-7.92906

>  <SCORE.INTER>
0.168654

>  <SCORE.INTER.CONST>
1

>  <SCORE.INTER.POLAR>
0

>  <SCORE.INTER.ROT>
11

>  <SCORE.INTER.SOLV>
9.35241

>  <SCORE.INTER.VDW>
-13.9384

>  <SCORE.INTER.norm>
0.0120467

>  <SCORE.INTRA>
-8.09771

>  <SCORE.INTRA.DIHEDRAL>
-13.989

>  <SCORE.INTRA.DIHEDRAL.0>
17.5233

>  <SCORE.INTRA.POLAR>
0

>  <SCORE.INTRA.POLAR.0>
0

>  <SCORE.INTRA.REPUL>
0

>  <SCORE.INTRA.REPUL.0>
0

>  <SCORE.INTRA.SOLV>
-0.764407

>  <SCORE.INTRA.SOLV.lig_0>
-46.1043

>  <SCORE.INTRA.VDW>
-0.721002

>  <SCORE.INTRA.VDW.0>
-0.545445

>  <SCORE.INTRA.norm>
-0.578408

>  <SCORE.RESTR>
0

>  <SCORE.RESTR.CAVITY>
0

>  <SCORE.RESTR.norm>
0

>  <SCORE.SYSTEM>
0

>  <SCORE.SYSTEM.CONST>
0

>  <SCORE.SYSTEM.DIHEDRAL>
0

>  <SCORE.SYSTEM.SOLV>
0

>  <SCORE.SYSTEM.norm>
0

>  <SCORE.heavy>
14

>  <SCORE.norm>
-0.566361

>  <RMSD>
21.317

$$$$
ligand
 OpenBabel11021811513D
libRbt.so/2013.1/901 2013/11/27
 14 13  0  0  0  0  0  0  0  0999 V2000
   17.8820   61.9717   20.8643 N   0  0  0  0  0  0  0  0  0  0  0  0
   17.9471   60.7146   20.1367 C   0  0  0  0  0  0  0  0  0  0  0  0
   18.7765   59.6959   20.9113 C   0  0  0  0  0  0  0  0  0  0  0  0
   18.9060   58.3890   20.1370 C   0  0  0  0  0  0  0  0  0  0  0  0
   19.5920   57.3461   20.8940 N   0  0  0  0  0  0  0  0  0  0  0  0
   21.0369   57.3711   21.0478 C   0  0  0  0  0  0  0  0  0  0  0  0
   21.4762   57.3866   22.5077 C   0  0  0  0  0  0  0  0  0  0  0  0
   21.0373   58.6872   23.1711 C   0  0  0  0  0  0  0  0  0  0  0  0
   21.4376   58.6773   24.6424 C   0  0  0  0  0  0  0  0  0  0  0  0
   20.9856   59.8692   25.3393 N   0  0  0  0  0  0  0  0  0  0  0  0
   21.4236   60.1076   26.7082 C   0  0  0  0  0  0  0  0  0  0  0  0
   20.7077   61.2556   27.4167 C   0  0  0  0  0  0  0  0  0  0  0  0
   21.2967   61.4812   28.8103 C   0  0  0  0  0  0  0  0  0  0  0  0
   20.6376   62.6019   29.4591 N   0  0  0  0  0  0  0  0  0  0  0  0
  1  2  1  0  0  0  0
  2  3  1  0  0  0  0
  3  4  1  0  0  0  0
  4  5  1  0  0  0  0
  5  6  1  0  0  0  0
  6  7  1  0  0  0  0
  7  8  1  0  0  0  0
  8  9  1  0  0  0  0
  9 10  1  0  0  0  0
 10 11  1  0  0  0  0
 11 12  1  0  0  0  0
 12 13  1  0  0  0  0
 13 14  1  0  0  0  0
M  END
>  <CHROM.1>
-177.60557957,-174.89653599,-76.69884508,122.57167804,-65.56237251,178.09686041
-177.24468880,-172.29566298,-170.21264183,-176.45543900,178.20937879,20.22466027
59.68217379,23.71738358,1.93083279,0.88398448,-2.17024846

>  <Name>
ligand

>  <RI>
0

>  <Rbt.Current_Directory>
/home/itssahil/PROJECTS/Mol_Feturizer/New_Systems/rnas/4P5J

>  <Rbt.Executable>
rbdock ($Id: //depot/dev/client3/rdock/2013.1/src/exe/rbdock.cxx#4 $)

>  <Rbt.Library>
libRbt.so (2013.1, Build901 2013/11/27)

>  <Rbt.Parameter_File>
/export/apps/rDock/src/rDock_2013.1_src/data/scripts/dock_solv.prm

>  <Rbt.Receptor>
prm/blind_docking_100.prm

>  <SCORE>
-8.19962

>  <SCORE.INTER>
1.45864

>  <SCORE.INTER.CONST>
1

>  <SCORE.INTER.POLAR>
0

>  <SCORE.INTER.ROT>
11

>  <SCORE.INTER.SOLV>
9.373

>  <SCORE.INTER.VDW>
-13.0852

>  <SCORE.INTER.norm>
0.104189

>  <SCORE.INTRA>
-9.65826

>  <SCORE.INTRA.DIHEDRAL>
-15.6492

>  <SCORE.INTRA.DIHEDRAL.0>
17.5233

>  <SCORE.INTRA.POLAR>
0

>  <SCORE.INTRA.POLAR.0>
0

>  <SCORE.INTRA.REPUL>
0

>  <SCORE.INTRA.REPUL.0>
0

>  <SCORE.INTRA.SOLV>
-2.34334

>  <SCORE.INTRA.SOLV.lig_0>
-46.1043

>  <SCORE.INTRA.VDW>
-0.662012

>  <SCORE.INTRA.VDW.0>
-0.545445

>  <SCORE.INTRA.norm>
-0.689876

>  <SCORE.RESTR>
0

>  <SCORE.RESTR.CAVITY>
0

>  <SCORE.RESTR.norm>
0

>  <SCORE.SYSTEM>
0

>  <SCORE.SYSTEM.CONST>
0

>  <SCORE.SYSTEM.DIHEDRAL>
0

>  <SCORE.SYSTEM.SOLV>
0

>  <SCORE.SYSTEM.norm>
0

>  <SCORE.heavy>
14

>  <SCORE.norm>
-0.585687

>  <RMSD>
21.666

$$$$
ligand
 OpenBabel11021811513D
libRbt.so/2013.1/901 2013/11/27
 14 13  0  0  0  0  0  0  0  0999 V2000
   17.1548   55.4428   17.2039 N   0  0  0  0  0  0  0  0  0  0  0  0
   17.7329   56.7574   17.4312 C   0  0  0  0  0  0  0  0  0  0  0  0
   17.9617   56.9856   18.9216 C   0  0  0  0  0  0  0  0  0  0  0  0
   18.9951   56.0109   19.4751 C   0  0  0  0  0  0  0  0  0  0  0  0
   19.3404   56.2797   20.8679 N   0  0  0  0  0  0  0  0  0  0  0  0
   20.4390   55.5758   21.5078 C   0  0  0  0  0  0  0  0  0  0  0  0
   20.7155   56.0723   22.9226 C   0  0  0  0  0  0  0  0  0  0  0  0
   21.1224   57.5413   22.8900 C   0  0  0  0  0  0  0  0  0  0  0  0
   21.4743   58.0112   24.2973 C   0  0  0  0  0  0  0  0  0  0  0  0
   21.7630   59.4342   24.3416 N   0  0  0  0  0  0  0  0  0  0  0  0
   22.6100   59.9603   25.4039 C   0  0  0  0  0  0  0  0  0  0  0  0
   21.9991   59.8888   26.8018 C   0  0  0  0  0  0  0  0  0  0  0  0
   20.7358   60.7474   26.8836 C   0  0  0  0  0  0  0  0  0  0  0  0
   21.0709   62.1517   26.7201 N   0  0  0  0  0  0  0  0  0  0  0  0
  1  2  1  0  0  0  0
  2  3  1  0  0  0  0
  3  4  1  0  0  0  0
  4  5  1  0  0  0  0
  5  6  1  0  0  0  0
  6  7  1  0  0  0  0
  7  8  1  0  0  0  0
  8  9  1  0  0  0  0
  9 10  1  0  0  0  0
 10 11  1  0  0  0  0
 11 12  1  0  0  0  0
 12 13  1  0  0  0  0
 13 14  1  0  0  0  0
M  END
>  <CHROM.1>
64.43419437,174.36740263,-171.40171409,175.37194419,-61.95264239,-176.79839782
-175.24113452,-155.37908156,-67.49400199,-62.98520932,-65.60491590,20.22266517
57.91836514,22.54784420,2.16303195,0.85384381,-2.55356165

>  <Name>
ligand

>  <RI>
0

>  <Rbt.Current_Directory>
/home/itssahil/PROJECTS/Mol_Feturizer/New_Systems/rnas/4P5J

>  <Rbt.Executable>
rbdock ($Id: //depot/dev/client3/rdock/2013.1/src/exe/rbdock.cxx#4 $)

>  <Rbt.Library>
libRbt.so (2013.1, Build901 2013/11/27)

>  <Rbt.Parameter_File>
/export/apps/rDock/src/rDock_2013.1_src/data/scripts/dock_solv.prm

>  <Rbt.Receptor>
prm/blind_docking_80.prm

>  <SCORE>
-7.66214

>  <SCORE.INTER>
0.511043

>  <SCORE.INTER.CONST>
1

>  <SCORE.INTER.POLAR>
0

>  <SCORE.INTER.ROT>
11

>  <SCORE.INTER.SOLV>
12.1559

>  <SCORE.INTER.VDW>
-14.6446

>  <SCORE.INTER.norm>
0.0365031

>  <SCORE.INTRA>
-8.17318

>  <SCORE.INTRA.DIHEDRAL>
-16.4797

>  <SCORE.INTRA.DIHEDRAL.0>
17.5233

>  <SCORE.INTRA.POLAR>
0

>  <SCORE.INTRA.POLAR.0>
0

>  <SCORE.INTRA.REPUL>
0

>  <SCORE.INTRA.REPUL.0>
0

>  <SCORE.INTRA.SOLV>
0.172225

>  <SCORE.INTRA.SOLV.lig_0>
-46.1043

>  <SCORE.INTRA.VDW>
-0.0194362

>  <SCORE.INTRA.VDW.0>
-0.545445

>  <SCORE.INTRA.norm>
-0.583799

>  <SCORE.RESTR>
0

>  <SCORE.RESTR.CAVITY>
0

>  <SCORE.RESTR.norm>
0

>  <SCORE.SYSTEM>
0

>  <SCORE.SYSTEM.CONST>
0

>  <SCORE.SYSTEM.DIHEDRAL>
0

>  <SCORE.SYSTEM.SOLV>
0

>  <SCORE.SYSTEM.norm>
0

>  <SCORE.heavy>
14

>  <SCORE.norm>
-0.547296

>  <RMSD>
21.740

$$$$
ligand
 OpenBabel11021811513D
libRbt.so/2013.1/901 2013/11/27
 14 13  0  0  0  0  0  0  0  0999 V2000
   20.5147   62.9760   28.0385 N   0  0  0  0  0  0  0  0  0  0  0  0
   21.2713   64.2172   28.0090 C   0  0  0  0  0  0  0  0  0  0  0  0
   20.9214   65.0221   26.7618 C   0  0  0  0  0  0  0  0  0  0  0  0
   21.5566   64.4123   25.5173 C   0  0  0  0  0  0  0  0  0  0  0  0
   21.0653   63.0681   25.2295 N   0  0  0  0  0  0  0  0  0  0  0  0
   21.5862   62.3147   24.1013 C   0  0  0  0  0  0  0  0  0  0  0  0
   20.9577   60.9315   23.9728 C   0  0  0  0  0  0  0  0  0  0  0  0
   21.5147   60.2170   22.7465 C   0  0  0  0  0  0  0  0  0  0  0  0
   20.8852   58.8336   22.6245 C   0  0  0  0  0  0  0  0  0  0  0  0
   21.4269   58.0841   21.5041 N   0  0  0  0  0  0  0  0  0  0  0  0
   20.6423   57.0055   20.9179 C   0  0  0  0  0  0  0  0  0  0  0  0
   19.4090   57.4621   20.1416 C   0  0  0  0  0  0  0  0  0  0  0  0
   18.6325   56.2585   19.6048 C   0  0  0  0  0  0  0  0  0  0  0  0
   19.4327   55.5387   18.6287 N   0  0  0  0  0  0  0  0  0  0  0  0
  1  2  1  0  0  0  0
  2  3  1  0  0  0  0
  3  4  1  0  0  0  0
  4  5  1  0  0  0  0
  5  6  1  0  0  0  0
  6  7  1  0  0  0  0
  7  8  1  0  0  0  0
  8  9  1  0  0  0  0
  9 10  1  0  0  0  0
 10 11  1  0  0  0  0
 11 12  1  0  0  0  0
 12 13  1  0  0  0  0
 13 14  1  0  0  0  0
M  END
>  <CHROM.1>
-74.51047581,63.16038082,-178.27740392,179.56119627,178.15008471,179.88388976
-177.39528628,-156.75510343,70.14191574,-178.24193608,-64.81472564,20.70120936
60.45317040,23.41418601,1.35872600,0.87256875,0.91306291

>  <Name>
ligand

>  <RI>
0

>  <Rbt.Current_Directory>
/home/itssahil/PROJECTS/Mol_Feturizer/New_Systems/rnas/4P5J

>  <Rbt.Executable>
rbdock ($Id: //depot/dev/client3/rdock/2013.1/src/exe/rbdock.cxx#4 $)

>  <Rbt.Library>
libRbt.so (2013.1, Build901 2013/11/27)

>  <Rbt.Parameter_File>
/export/apps/rDock/src/rDock_2013.1_src/data/scripts/dock_solv.prm

>  <Rbt.Receptor>
prm/blind_docking_100.prm

>  <SCORE>
-6.21309

>  <SCORE.INTER>
1.65649

>  <SCORE.INTER.CONST>
1

>  <SCORE.INTER.POLAR>
0

>  <SCORE.INTER.ROT>
11

>  <SCORE.INTER.SOLV>
3.93087

>  <SCORE.INTER.VDW>
-11.1393

>  <SCORE.INTER.norm>
0.11832

>  <SCORE.INTRA>
-7.86958

>  <SCORE.INTRA.DIHEDRAL>
-16.1116

>  <SCORE.INTRA.DIHEDRAL.0>
17.5233

>  <SCORE.INTRA.POLAR>
0

>  <SCORE.INTRA.POLAR.0>
0

>  <SCORE.INTRA.REPUL>
0

>  <SCORE.INTRA.REPUL.0>
0

>  <SCORE.INTRA.SOLV>
0.999285

>  <SCORE.INTRA.SOLV.lig_0>
-46.1043

>  <SCORE.INTRA.VDW>
-0.313413

>  <SCORE.INTRA.VDW.0>
-0.545445

>  <SCORE.INTRA.norm>
-0.562113

>  <SCORE.RESTR>
0

>  <SCORE.RESTR.CAVITY>
0

>  <SCORE.RESTR.norm>
0

>  <SCORE.SYSTEM>
0

>  <SCORE.SYSTEM.CONST>
0

>  <SCORE.SYSTEM.DIHEDRAL>
0

>  <SCORE.SYSTEM.SOLV>
0

>  <SCORE.SYSTEM.norm>
0

>  <SCORE.heavy>
14

>  <SCORE.norm>
-0.443792

>  <RMSD>
21.782

$$$$
ligand
 OpenBabel11021811513D
libRbt.so/2013.1/901 2013/11/27
 14 13  0  0  0  0  0  0  0  0999 V2000
   18.1240   56.0269   17.8191 N   0  0  0  0  0  0  0  0  0  0  0  0
   18.3886   56.1934   19.2390 C   0  0  0  0  0  0  0  0  0  0  0  0
   19.0753   54.9523   19.7995 C   0  0  0  0  0  0  0  0  0  0  0  0
   19.4209   55.1331   21.2733 C   0  0  0  0  0  0  0  0  0  0  0  0
   20.3453   56.2383   21.5084 N   0  0  0  0  0  0  0  0  0  0  0  0
   20.7766   56.5695   22.8560 C   0  0  0  0  0  0  0  0  0  0  0  0
   21.0127   58.0631   23.0513 C   0  0  0  0  0  0  0  0  0  0  0  0
   21.5130   58.3318   24.4662 C   0  0  0  0  0  0  0  0  0  0  0  0
   21.5932   59.8350   24.7090 C   0  0  0  0  0  0  0  0  0  0  0  0
   22.3795   60.5112   23.6916 N   0  0  0  0  0  0  0  0  0  0  0  0
   23.1220   61.7145   24.0428 C   0  0  0  0  0  0  0  0  0  0  0  0
   22.3700   63.0217   23.8021 C   0  0  0  0  0  0  0  0  0  0  0  0
   21.1513   63.1207   24.7212 C   0  0  0  0  0  0  0  0  0  0  0  0
   20.3813   64.3125   24.4083 N   0  0  0  0  0  0  0  0  0  0  0  0
  1  2  1  0  0  0  0
  2  3  1  0  0  0  0
  3  4  1  0  0  0  0
  4  5  1  0  0  0  0
  5  6  1  0  0  0  0
  6  7  1  0  0  0  0
  7  8  1  0  0  0  0
  8  9  1  0  0  0  0
  9 10  1  0  0  0  0
 10 11  1  0  0  0  0
 11 12  1  0  0  0  0
 12 13  1  0  0  0  0
 13 14  1  0  0  0  0
M  END
>  <CHROM.1>
177.31895881,-61.33501701,179.33785479,-146.66908655,-177.82709093,-173.47825017
-53.58535505,-149.40516328,-92.66522713,65.28792646,-175.27551772,20.68970964
58.85868819,22.52797891,2.15244692,0.95511168,-3.05561376

>  <Name>
ligand

>  <RI>
0

>  <Rbt.Current_Directory>
/home/itssahil/PROJECTS/Mol_Feturizer/New_Systems/rnas/4P5J

>  <Rbt.Executable>
rbdock ($Id: //depot/dev/client3/rdock/2013.1/src/exe/rbdock.cxx#4 $)

>  <Rbt.Library>
libRbt.so (2013.1, Build901 2013/11/27)

>  <Rbt.Parameter_File>
/export/apps/rDock/src/rDock_2013.1_src/data/scripts/dock_solv.prm

>  <Rbt.Receptor>
prm/blind_docking_80.prm

>  <SCORE>
-9.26625

>  <SCORE.INTER>
-0.814522

>  <SCORE.INTER.CONST>
1

>  <SCORE.INTER.POLAR>
0

>  <SCORE.INTER.ROT>
11

>  <SCORE.INTER.SOLV>
8.5719

>  <SCORE.INTER.VDW>
-14.3336

>  <SCORE.INTER.norm>
-0.0581801

>  <SCORE.INTRA>
-8.45173

>  <SCORE.INTRA.DIHEDRAL>
-14.9449

>  <SCORE.INTRA.DIHEDRAL.0>
17.5233

>  <SCORE.INTRA.POLAR>
0

>  <SCORE.INTRA.POLAR.0>
0

>  <SCORE.INTRA.REPUL>
0

>  <SCORE.INTRA.REPUL.0>
0

>  <SCORE.INTRA.SOLV>
-1.45663

>  <SCORE.INTRA.SOLV.lig_0>
-46.1043

>  <SCORE.INTRA.VDW>
-0.250961

>  <SCORE.INTRA.VDW.0>
-0.545445

>  <SCORE.INTRA.norm>
-0.603695

>  <SCORE.RESTR>
0

>  <SCORE.RESTR.CAVITY>
0

>  <SCORE.RESTR.norm>
0

>  <SCORE.SYSTEM>
0

>  <SCORE.SYSTEM.CONST>
0

>  <SCORE.SYSTEM.DIHEDRAL>
0

>  <SCORE.SYSTEM.SOLV>
0

>  <SCORE.SYSTEM.norm>
0

>  <SCORE.heavy>
14

>  <SCORE.norm>
-0.661875

>  <RMSD>
21.788

$$$$
ligand
 OpenBabel11021811513D
libRbt.so/2013.1/901 2013/11/27
 14 13  0  0  0  0  0  0  0  0999 V2000
   18.9796   68.1414   30.1499 N   0  0  0  0  0  0  0  0  0  0  0  0
   17.8972   68.1932   29.1806 C   0  0  0  0  0  0  0  0  0  0  0  0
   17.8895   66.9299   28.3262 C   0  0  0  0  0  0  0  0  0  0  0  0
   16.7193   66.9337   27.3490 C   0  0  0  0  0  0  0  0  0  0  0  0
   16.6815   65.7441   26.5037 N   0  0  0  0  0  0  0  0  0  0  0  0
   17.4315   65.6950   25.2600 C   0  0  0  0  0  0  0  0  0  0  0  0
   18.5017   64.6090   25.2570 C   0  0  0  0  0  0  0  0  0  0  0  0
   19.6236   64.9791   26.2208 C   0  0  0  0  0  0  0  0  0  0  0  0
   20.6239   63.8321   26.3139 C   0  0  0  0  0  0  0  0  0  0  0  0
   20.0221   62.6252   26.8540 N   0  0  0  0  0  0  0  0  0  0  0  0
   20.6300   61.3324   26.5686 C   0  0  0  0  0  0  0  0  0  0  0  0
   21.4816   60.7633   27.7015 C   0  0  0  0  0  0  0  0  0  0  0  0
   22.1885   59.4825   27.2548 C   0  0  0  0  0  0  0  0  0  0  0  0
   22.9688   58.9311   28.3494 N   0  0  0  0  0  0  0  0  0  0  0  0
  1  2  1  0  0  0  0
  2  3  1  0  0  0  0
  3  4  1  0  0  0  0
  4  5  1  0  0  0  0
  5  6  1  0  0  0  0
  6  7  1  0  0  0  0
  7  8  1  0  0  0  0
  8  9  1  0  0  0  0
  9 10  1  0  0  0  0
 10 11  1  0  0  0  0
 11 12  1  0  0  0  0
 12 13  1  0  0  0  0
 13 14  1  0  0  0  0
M  END
>  <CHROM.1>
177.19189513,179.55917797,-86.67467850,117.45751272,-69.57414702,174.66511512
-62.77767301,157.31898386,100.84722145,-174.16698516,-178.57038374,19.40266762
64.15669408,27.23466653,-2.49226779,0.86306897,-2.28809800

>  <Name>
ligand

>  <RI>
0

>  <Rbt.Current_Directory>
/home/itssahil/PROJECTS/Mol_Feturizer/New_Systems/rnas/4P5J

>  <Rbt.Executable>
rbdock ($Id: //depot/dev/client3/rdock/2013.1/src/exe/rbdock.cxx#4 $)

>  <Rbt.Library>
libRbt.so (2013.1, Build901 2013/11/27)

>  <Rbt.Parameter_File>
/export/apps/rDock/src/rDock_2013.1_src/data/scripts/dock_solv.prm

>  <Rbt.Receptor>
prm/blind_docking_80.prm

>  <SCORE>
-7.22169

>  <SCORE.INTER>
1.40655

>  <SCORE.INTER.CONST>
1

>  <SCORE.INTER.POLAR>
0

>  <SCORE.INTER.ROT>
11

>  <SCORE.INTER.SOLV>
11.5369

>  <SCORE.INTER.VDW>
-13.8413

>  <SCORE.INTER.norm>
0.100468

>  <SCORE.INTRA>
-8.62824

>  <SCORE.INTRA.DIHEDRAL>
-13.8808

>  <SCORE.INTRA.DIHEDRAL.0>
17.5233

>  <SCORE.INTRA.POLAR>
0

>  <SCORE.INTRA.POLAR.0>
0

>  <SCORE.INTRA.REPUL>
0

>  <SCORE.INTRA.REPUL.0>
0

>  <SCORE.INTRA.SOLV>
-1.91504

>  <SCORE.INTRA.SOLV.lig_0>
-46.1043

>  <SCORE.INTRA.VDW>
-0.730311

>  <SCORE.INTRA.VDW.0>
-0.545445

>  <SCORE.INTRA.norm>
-0.616303

>  <SCORE.RESTR>
0

>  <SCORE.RESTR.CAVITY>
0

>  <SCORE.RESTR.norm>
0

>  <SCORE.SYSTEM>
0

>  <SCORE.SYSTEM.CONST>
0

>  <SCORE.SYSTEM.DIHEDRAL>
0

>  <SCORE.SYSTEM.SOLV>
0

>  <SCORE.SYSTEM.norm>
0

>  <SCORE.heavy>
14

>  <SCORE.norm>
-0.515835

>  <RMSD>
21.826

$$$$
ligand
 OpenBabel11021811513D
libRbt.so/2013.1/901 2013/11/27
 14 13  0  0  0  0  0  0  0  0999 V2000
   17.6699   67.2032   28.7293 N   0  0  0  0  0  0  0  0  0  0  0  0
   19.0648   66.8247   28.5709 C   0  0  0  0  0  0  0  0  0  0  0  0
   19.2062   65.7630   27.4852 C   0  0  0  0  0  0  0  0  0  0  0  0
   20.6639   65.3573   27.2990 C   0  0  0  0  0  0  0  0  0  0  0  0
   20.8569   64.4249   26.1924 N   0  0  0  0  0  0  0  0  0  0  0  0
   20.8413   64.8940   24.8171 C   0  0  0  0  0  0  0  0  0  0  0  0
   21.0874   63.7775   23.8084 C   0  0  0  0  0  0  0  0  0  0  0  0
   22.4590   63.1546   24.0436 C   0  0  0  0  0  0  0  0  0  0  0  0
   22.6760   62.0009   23.0705 C   0  0  0  0  0  0  0  0  0  0  0  0
   21.7107   60.9330   23.2657 N   0  0  0  0  0  0  0  0  0  0  0  0
   21.6728   59.8212   22.3249 C   0  0  0  0  0  0  0  0  0  0  0  0
   21.0809   58.5300   22.8859 C   0  0  0  0  0  0  0  0  0  0  0  0
   21.2589   57.3789   21.8945 C   0  0  0  0  0  0  0  0  0  0  0  0
   20.5508   57.6658   20.6586 N   0  0  0  0  0  0  0  0  0  0  0  0
  1  2  1  0  0  0  0
  2  3  1  0  0  0  0
  3  4  1  0  0  0  0
  4  5  1  0  0  0  0
  5  6  1  0  0  0  0
  6  7  1  0  0  0  0
  7  8  1  0  0  0  0
  8  9  1  0  0  0  0
  9 10  1  0  0  0  0
 10 11  1  0  0  0  0
 11 12  1  0  0  0  0
 12 13  1  0  0  0  0
 13 14  1  0  0  0  0
M  END
>  <CHROM.1>
179.72326452,-175.18413613,76.95184675,178.85863241,-60.95634717,177.64646707
-62.39447928,173.01714734,156.04262024,-172.27078292,-61.95670192,20.77164426
62.69498519,24.64611971,1.82279652,0.54681088,0.52086828

>  <Name>
ligand

>  <RI>
0

>  <Rbt.Current_Directory>
/home/itssahil/PROJECTS/Mol_Feturizer/New_Systems/rnas/4P5J

>  <Rbt.Executable>
rbdock ($Id: //depot/dev/client3/rdock/2013.1/src/exe/rbdock.cxx#4 $)

>  <Rbt.Library>
libRbt.so (2013.1, Build901 2013/11/27)

>  <Rbt.Parameter_File>
/export/apps/rDock/src/rDock_2013.1_src/data/scripts/dock_solv.prm

>  <Rbt.Receptor>
prm/blind_docking_100.prm

>  <SCORE>
-7.2376

>  <SCORE.INTER>
1.63722

>  <SCORE.INTER.CONST>
1

>  <SCORE.INTER.POLAR>
0

>  <SCORE.INTER.ROT>
11

>  <SCORE.INTER.SOLV>
5.6782

>  <SCORE.INTER.VDW>
-11.7346

>  <SCORE.INTER.norm>
0.116944

>  <SCORE.INTRA>
-8.87482

>  <SCORE.INTRA.DIHEDRAL>
-16.4747

>  <SCORE.INTRA.DIHEDRAL.0>
17.5233

>  <SCORE.INTRA.POLAR>
0

>  <SCORE.INTRA.POLAR.0>
0

>  <SCORE.INTRA.REPUL>
0

>  <SCORE.INTRA.REPUL.0>
0

>  <SCORE.INTRA.SOLV>
-1.07557

>  <SCORE.INTRA.SOLV.lig_0>
-46.1043

>  <SCORE.INTRA.VDW>
-0.0996937

>  <SCORE.INTRA.VDW.0>
-0.545445

>  <SCORE.INTRA.norm>
-0.633916

>  <SCORE.RESTR>
0

>  <SCORE.RESTR.CAVITY>
0

>  <SCORE.RESTR.norm>
0

>  <SCORE.SYSTEM>
0

>  <SCORE.SYSTEM.CONST>
0

>  <SCORE.SYSTEM.DIHEDRAL>
0

>  <SCORE.SYSTEM.SOLV>
0

>  <SCORE.SYSTEM.norm>
0

>  <SCORE.heavy>
14

>  <SCORE.norm>
-0.516971

>  <RMSD>
21.924

$$$$
ligand
 OpenBabel11021811513D
libRbt.so/2013.1/901 2013/11/27
 14 13  0  0  0  0  0  0  0  0999 V2000
   21.0226   57.6155   22.3519 N   0  0  0  0  0  0  0  0  0  0  0  0
   21.3641   58.6065   23.3596 C   0  0  0  0  0  0  0  0  0  0  0  0
   21.1578   60.0142   22.8104 C   0  0  0  0  0  0  0  0  0  0  0  0
   21.6240   61.0680   23.8086 C   0  0  0  0  0  0  0  0  0  0  0  0
   21.4618   62.4313   23.3124 N   0  0  0  0  0  0  0  0  0  0  0  0
   21.9282   63.5644   24.0936 C   0  0  0  0  0  0  0  0  0  0  0  0
   21.0589   63.8381   25.3160 C   0  0  0  0  0  0  0  0  0  0  0  0
   21.7144   64.8963   26.1963 C   0  0  0  0  0  0  0  0  0  0  0  0
   20.9361   65.0383   27.4997 C   0  0  0  0  0  0  0  0  0  0  0  0
   19.6855   65.7539   27.3138 N   0  0  0  0  0  0  0  0  0  0  0  0
   19.1324   66.5277   28.4173 C   0  0  0  0  0  0  0  0  0  0  0  0
   18.0187   67.4955   28.0233 C   0  0  0  0  0  0  0  0  0  0  0  0
   17.6048   68.3575   29.2172 C   0  0  0  0  0  0  0  0  0  0  0  0
   16.4646   69.1872   28.8669 N   0  0  0  0  0  0  0  0  0  0  0  0
  1  2  1  0  0  0  0
  2  3  1  0  0  0  0
  3  4  1  0  0  0  0
  4  5  1  0  0  0  0
  5  6  1  0  0  0  0
  6  7  1  0  0  0  0
  7  8  1  0  0  0  0
  8  9  1  0  0  0  0
  9 10  1  0  0  0  0
 10 11  1  0  0  0  0
 11 12  1  0  0  0  0
 12 13  1  0  0  0  0
 13 14  1  0  0  0  0
M  END
>  <CHROM.1>
-175.09870804,179.15074239,-176.19958053,-72.43630716,171.64280243,-172.82683240
-74.74212954,-151.02999058,165.95080732,-174.26082108,-174.79765738,20.22692837
63.88536595,25.75633801,1.23035586,-0.26091569,-2.63817717

>  <Name>
ligand

>  <RI>
0

>  <Rbt.Current_Directory>
/home/itssahil/PROJECTS/Mol_Feturizer/New_Systems/rnas/4P5J

>  <Rbt.Executable>
rbdock ($Id: //depot/dev/client3/rdock/2013.1/src/exe/rbdock.cxx#4 $)

>  <Rbt.Library>
libRbt.so (2013.1, Build901 2013/11/27)

>  <Rbt.Parameter_File>
/export/apps/rDock/src/rDock_2013.1_src/data/scripts/dock_solv.prm

>  <Rbt.Receptor>
prm/blind_docking_100.prm

>  <SCORE>
-7.59395

>  <SCORE.INTER>
1.63526

>  <SCORE.INTER.CONST>
1

>  <SCORE.INTER.POLAR>
0

>  <SCORE.INTER.ROT>
11

>  <SCORE.INTER.SOLV>
12.7359

>  <SCORE.INTER.VDW>
-14.0885

>  <SCORE.INTER.norm>
0.116804

>  <SCORE.INTRA>
-9.22921

>  <SCORE.INTRA.DIHEDRAL>
-15.0917

>  <SCORE.INTRA.DIHEDRAL.0>
17.5233

>  <SCORE.INTRA.POLAR>
0

>  <SCORE.INTRA.POLAR.0>
0

>  <SCORE.INTRA.REPUL>
0

>  <SCORE.INTRA.REPUL.0>
0

>  <SCORE.INTRA.SOLV>
-2.39899

>  <SCORE.INTRA.SOLV.lig_0>
-46.1043

>  <SCORE.INTRA.VDW>
-0.483848

>  <SCORE.INTRA.VDW.0>
-0.545445

>  <SCORE.INTRA.norm>
-0.659229

>  <SCORE.RESTR>
0

>  <SCORE.RESTR.CAVITY>
0

>  <SCORE.RESTR.norm>
0

>  <SCORE.SYSTEM>
0

>  <SCORE.SYSTEM.CONST>
0

>  <SCORE.SYSTEM.DIHEDRAL>
0

>  <SCORE.SYSTEM.SOLV>
0

>  <SCORE.SYSTEM.norm>
0

>  <SCORE.heavy>
14

>  <SCORE.norm>
-0.542425

>  <RMSD>
22.179

$$$$
ligand
 OpenBabel11021811513D
libRbt.so/2013.1/901 2013/11/27
 14 13  0  0  0  0  0  0  0  0999 V2000
   22.1662   61.4560   24.3175 N   0  0  0  0  0  0  0  0  0  0  0  0
   22.7730   62.6999   23.8719 C   0  0  0  0  0  0  0  0  0  0  0  0
   21.7343   63.8161   23.8432 C   0  0  0  0  0  0  0  0  0  0  0  0
   21.2292   64.1339   25.2461 C   0  0  0  0  0  0  0  0  0  0  0  0
   20.1565   65.1242   25.2527 N   0  0  0  0  0  0  0  0  0  0  0  0
   19.2915   65.2716   26.4111 C   0  0  0  0  0  0  0  0  0  0  0  0
   17.9100   65.8083   26.0533 C   0  0  0  0  0  0  0  0  0  0  0  0
   17.0169   65.8159   27.2890 C   0  0  0  0  0  0  0  0  0  0  0  0
   16.6741   64.3846   27.6874 C   0  0  0  0  0  0  0  0  0  0  0  0
   15.8609   64.3324   28.8900 N   0  0  0  0  0  0  0  0  0  0  0  0
   15.6552   63.0554   29.5605 C   0  0  0  0  0  0  0  0  0  0  0  0
   14.5046   63.0396   30.5646 C   0  0  0  0  0  0  0  0  0  0  0  0
   14.7830   64.0023   31.7202 C   0  0  0  0  0  0  0  0  0  0  0  0
   15.9169   63.5367   32.5004 N   0  0  0  0  0  0  0  0  0  0  0  0
  1  2  1  0  0  0  0
  2  3  1  0  0  0  0
  3  4  1  0  0  0  0
  4  5  1  0  0  0  0
  5  6  1  0  0  0  0
  6  7  1  0  0  0  0
  7  8  1  0  0  0  0
  8  9  1  0  0  0  0
  9 10  1  0  0  0  0
 10 11  1  0  0  0  0
 11 12  1  0  0  0  0
 12 13  1  0  0  0  0
 13 14  1  0  0  0  0
M  END
>  <CHROM.1>
65.15464211,-175.46126942,161.95496180,-152.87476743,174.79017597,-69.88704626
177.99505212,-168.22417474,-164.12647228,-63.64754319,-66.23892808,18.26220613
64.03423055,27.37184141,-0.39393413,-0.69397222,2.51504069

>  <Name>
ligand

>  <RI>
0

>  <Rbt.Current_Directory>
/home/itssahil/PROJECTS/Mol_Feturizer/New_Systems/rnas/4P5J

>  <Rbt.Executable>
rbdock ($Id: //depot/dev/client3/rdock/2013.1/src/exe/rbdock.cxx#4 $)

>  <Rbt.Library>
libRbt.so (2013.1, Build901 2013/11/27)

>  <Rbt.Parameter_File>
/export/apps/rDock/src/rDock_2013.1_src/data/scripts/dock_solv.prm

>  <Rbt.Receptor>
prm/blind_docking_100.prm

>  <SCORE>
-5.23941

>  <SCORE.INTER>
2.26124

>  <SCORE.INTER.CONST>
1

>  <SCORE.INTER.POLAR>
0

>  <SCORE.INTER.ROT>
11

>  <SCORE.INTER.SOLV>
7.30515

>  <SCORE.INTER.VDW>
-11.8609

>  <SCORE.INTER.norm>
0.161517

>  <SCORE.INTRA>
-7.50065

>  <SCORE.INTRA.DIHEDRAL>
-15.5669

>  <SCORE.INTRA.DIHEDRAL.0>
17.5233

>  <SCORE.INTRA.POLAR>
0

>  <SCORE.INTRA.POLAR.0>
0

>  <SCORE.INTRA.REPUL>
0

>  <SCORE.INTRA.REPUL.0>
0

>  <SCORE.INTRA.SOLV>
0.0429677

>  <SCORE.INTRA.SOLV.lig_0>
-46.1043

>  <SCORE.INTRA.VDW>
0.261307

>  <SCORE.INTRA.VDW.0>
-0.545445

>  <SCORE.INTRA.norm>
-0.535761

>  <SCORE.RESTR>
0

>  <SCORE.RESTR.CAVITY>
0

>  <SCORE.RESTR.norm>
0

>  <SCORE.SYSTEM>
0

>  <SCORE.SYSTEM.CONST>
0

>  <SCORE.SYSTEM.DIHEDRAL>
0

>  <SCORE.SYSTEM.SOLV>
0

>  <SCORE.SYSTEM.norm>
0

>  <SCORE.heavy>
14

>  <SCORE.norm>
-0.374243

>  <RMSD>
22.510

$$$$
ligand
 OpenBabel11021811513D
libRbt.so/2013.1/901 2013/11/27
 14 13  0  0  0  0  0  0  0  0999 V2000
   17.6828   55.6355   17.6648 N   0  0  0  0  0  0  0  0  0  0  0  0
   17.7703   56.5257   18.8110 C   0  0  0  0  0  0  0  0  0  0  0  0
   18.7992   57.6216   18.5540 C   0  0  0  0  0  0  0  0  0  0  0  0
   18.8735   58.5926   19.7271 C   0  0  0  0  0  0  0  0  0  0  0  0
   19.3362   57.9605   20.9590 N   0  0  0  0  0  0  0  0  0  0  0  0
   20.7226   57.5502   21.1056 C   0  0  0  0  0  0  0  0  0  0  0  0
   21.2149   57.6332   22.5463 C   0  0  0  0  0  0  0  0  0  0  0  0
   21.2141   59.0838   23.0154 C   0  0  0  0  0  0  0  0  0  0  0  0
   21.8375   59.1780   24.4038 C   0  0  0  0  0  0  0  0  0  0  0  0
   22.0094   60.5552   24.8328 N   0  0  0  0  0  0  0  0  0  0  0  0
   23.0149   61.3869   24.1848 C   0  0  0  0  0  0  0  0  0  0  0  0
   22.5313   62.7797   23.7868 C   0  0  0  0  0  0  0  0  0  0  0  0
   21.3985   62.6861   22.7633 C   0  0  0  0  0  0  0  0  0  0  0  0
   20.9051   64.0132   22.4368 N   0  0  0  0  0  0  0  0  0  0  0  0
  1  2  1  0  0  0  0
  2  3  1  0  0  0  0
  3  4  1  0  0  0  0
  4  5  1  0  0  0  0
  5  6  1  0  0  0  0
  6  7  1  0  0  0  0
  7  8  1  0  0  0  0
  8  9  1  0  0  0  0
  9 10  1  0  0  0  0
 10 11  1  0  0  0  0
 11 12  1  0  0  0  0
 12 13  1  0  0  0  0
 13 14  1  0  0  0  0
M  END
>  <CHROM.1>
178.16564779,63.76174083,71.30893642,148.81253322,-64.64311558,-174.34480304
173.08077627,-70.28153989,133.51817434,-62.22607787,177.43317196,20.52237330
59.37152372,21.77093986,2.50757680,0.96708232,3.06407905

>  <Name>
ligand

>  <RI>
0

>  <Rbt.Current_Directory>
/home/itssahil/PROJECTS/Mol_Feturizer/New_Systems/rnas/4P5J

>  <Rbt.Executable>
rbdock ($Id: //depot/dev/client3/rdock/2013.1/src/exe/rbdock.cxx#4 $)

>  <Rbt.Library>
libRbt.so (2013.1, Build901 2013/11/27)

>  <Rbt.Parameter_File>
/export/apps/rDock/src/rDock_2013.1_src/data/scripts/dock_solv.prm

>  <Rbt.Receptor>
prm/blind_docking_100.prm

>  <SCORE>
-7.16285

>  <SCORE.INTER>
1.43446

>  <SCORE.INTER.CONST>
1

>  <SCORE.INTER.POLAR>
0

>  <SCORE.INTER.ROT>
11

>  <SCORE.INTER.SOLV>
8.94423

>  <SCORE.INTER.VDW>
-12.9584

>  <SCORE.INTER.norm>
0.102461

>  <SCORE.INTRA>
-8.5973

>  <SCORE.INTRA.DIHEDRAL>
-15.1399

>  <SCORE.INTRA.DIHEDRAL.0>
17.5233

>  <SCORE.INTRA.POLAR>
0

>  <SCORE.INTRA.POLAR.0>
0

>  <SCORE.INTRA.REPUL>
0

>  <SCORE.INTRA.REPUL.0>
0

>  <SCORE.INTRA.SOLV>
-1.60867

>  <SCORE.INTRA.SOLV.lig_0>
-46.1043

>  <SCORE.INTRA.VDW>
-0.223005

>  <SCORE.INTRA.VDW.0>
-0.545445

>  <SCORE.INTRA.norm>
-0.614093

>  <SCORE.RESTR>
0

>  <SCORE.RESTR.CAVITY>
0

>  <SCORE.RESTR.norm>
0

>  <SCORE.SYSTEM>
0

>  <SCORE.SYSTEM.CONST>
0

>  <SCORE.SYSTEM.DIHEDRAL>
0

>  <SCORE.SYSTEM.SOLV>
0

>  <SCORE.SYSTEM.norm>
0

>  <SCORE.heavy>
14

>  <SCORE.norm>
-0.511632

>  <RMSD>
22.732

$$$$
ligand
 OpenBabel11021811513D
libRbt.so/2013.1/901 2013/11/27
 14 13  0  0  0  0  0  0  0  0999 V2000
   12.4973   62.3411   23.9498 N   0  0  0  0  0  0  0  0  0  0  0  0
   13.8516   62.3192   23.4214 C   0  0  0  0  0  0  0  0  0  0  0  0
   14.8119   61.7280   24.4480 C   0  0  0  0  0  0  0  0  0  0  0  0
   14.8837   62.5970   25.6986 C   0  0  0  0  0  0  0  0  0  0  0  0
   15.5554   63.8722   25.4662 N   0  0  0  0  0  0  0  0  0  0  0  0
   15.4217   64.9638   26.4161 C   0  0  0  0  0  0  0  0  0  0  0  0
   16.7112   65.7588   26.5891 C   0  0  0  0  0  0  0  0  0  0  0  0
   16.4771   66.9345   27.5311 C   0  0  0  0  0  0  0  0  0  0  0  0
   17.8067   67.6035   27.8623 C   0  0  0  0  0  0  0  0  0  0  0  0
   18.6574   66.7537   28.6776 N   0  0  0  0  0  0  0  0  0  0  0  0
   19.6103   65.8621   28.0298 C   0  0  0  0  0  0  0  0  0  0  0  0
   19.9574   64.6085   28.8300 C   0  0  0  0  0  0  0  0  0  0  0  0
   21.0416   63.7969   28.1190 C   0  0  0  0  0  0  0  0  0  0  0  0
   21.3619   62.6053   28.8862 N   0  0  0  0  0  0  0  0  0  0  0  0
  1  2  1  0  0  0  0
  2  3  1  0  0  0  0
  3  4  1  0  0  0  0
  4  5  1  0  0  0  0
  5  6  1  0  0  0  0
  6  7  1  0  0  0  0
  7  8  1  0  0  0  0
  8  9  1  0  0  0  0
  9 10  1  0  0  0  0
 10 11  1  0  0  0  0
 11 12  1  0  0  0  0
 12 13  1  0  0  0  0
 13 14  1  0  0  0  0
M  END
>  <CHROM.1>
-63.63470134,-69.81921008,163.96999272,142.45879323,176.59430688,171.75434967
-68.35617126,91.45718460,-152.51536148,-175.57578871,-179.85225980,17.04609178
64.41054689,26.70894079,-2.63429411,-0.48059495,0.31626283

>  <Name>
ligand

>  <RI>
0

>  <Rbt.Current_Directory>
/home/itssahil/PROJECTS/Mol_Feturizer/New_Systems/rnas/4P5J

>  <Rbt.Executable>
rbdock ($Id: //depot/dev/client3/rdock/2013.1/src/exe/rbdock.cxx#4 $)

>  <Rbt.Library>
libRbt.so (2013.1, Build901 2013/11/27)

>  <Rbt.Parameter_File>
/export/apps/rDock/src/rDock_2013.1_src/data/scripts/dock_solv.prm

>  <Rbt.Receptor>
prm/blind_docking_80.prm

>  <SCORE>
-6.12626

>  <SCORE.INTER>
1.75708

>  <SCORE.INTER.CONST>
1

>  <SCORE.INTER.POLAR>
0

>  <SCORE.INTER.ROT>
11

>  <SCORE.INTER.SOLV>
9.49187

>  <SCORE.INTER.VDW>
-12.9259

>  <SCORE.INTER.norm>
0.125505

>  <SCORE.INTRA>
-7.88333

>  <SCORE.INTRA.DIHEDRAL>
-14.2613

>  <SCORE.INTRA.DIHEDRAL.0>
17.5233

>  <SCORE.INTRA.POLAR>
0

>  <SCORE.INTRA.POLAR.0>
0

>  <SCORE.INTRA.REPUL>
0

>  <SCORE.INTRA.REPUL.0>
0

>  <SCORE.INTRA.SOLV>
-0.61682

>  <SCORE.INTRA.SOLV.lig_0>
-46.1043

>  <SCORE.INTRA.VDW>
-0.444263

>  <SCORE.INTRA.VDW.0>
-0.545445

>  <SCORE.INTRA.norm>
-0.563095

>  <SCORE.RESTR>
0

>  <SCORE.RESTR.CAVITY>
0

>  <SCORE.RESTR.norm>
0

>  <SCORE.SYSTEM>
0

>  <SCORE.SYSTEM.CONST>
0

>  <SCORE.SYSTEM.DIHEDRAL>
0

>  <SCORE.SYSTEM.SOLV>
0

>  <SCORE.SYSTEM.norm>
0

>  <SCORE.heavy>
14

>  <SCORE.norm>
-0.43759

>  <RMSD>
23.964

$$$$
ligand
 OpenBabel11021811513D
libRbt.so/2013.1/901 2013/11/27
 14 13  0  0  0  0  0  0  0  0999 V2000
   10.9734   61.5809   23.3692 N   0  0  0  0  0  0  0  0  0  0  0  0
   12.1587   62.4064   23.2040 C   0  0  0  0  0  0  0  0  0  0  0  0
   13.4169   61.5876   23.4729 C   0  0  0  0  0  0  0  0  0  0  0  0
   14.6669   62.4566   23.3906 C   0  0  0  0  0  0  0  0  0  0  0  0
   14.7185   63.4773   24.4330 N   0  0  0  0  0  0  0  0  0  0  0  0
   15.1851   63.1485   25.7694 C   0  0  0  0  0  0  0  0  0  0  0  0
   15.2097   64.3552   26.7010 C   0  0  0  0  0  0  0  0  0  0  0  0
   16.1289   65.4323   26.1358 C   0  0  0  0  0  0  0  0  0  0  0  0
   16.3302   66.5344   27.1702 C   0  0  0  0  0  0  0  0  0  0  0  0
   17.0679   66.0659   28.3307 N   0  0  0  0  0  0  0  0  0  0  0  0
   18.4555   65.6495   28.1769 C   0  0  0  0  0  0  0  0  0  0  0  0
   18.9870   64.7696   29.3063 C   0  0  0  0  0  0  0  0  0  0  0  0
   20.3890   64.2548   28.9758 C   0  0  0  0  0  0  0  0  0  0  0  0
   20.8744   63.3976   30.0438 N   0  0  0  0  0  0  0  0  0  0  0  0
  1  2  1  0  0  0  0
  2  3  1  0  0  0  0
  3  4  1  0  0  0  0
  4  5  1  0  0  0  0
  5  6  1  0  0  0  0
  6  7  1  0  0  0  0
  7  8  1  0  0  0  0
  8  9  1  0  0  0  0
  9 10  1  0  0  0  0
 10 11  1  0  0  0  0
 11 12  1  0  0  0  0
 12 13  1  0  0  0  0
 13 14  1  0  0  0  0
M  END
>  <CHROM.1>
-176.43612864,65.17932404,81.75413052,178.07631696,-59.46337077,-170.81694507
66.68511902,65.30090672,-160.95245993,173.44873319,-178.86538856,16.04021616
63.93703146,26.31987610,-2.64640589,-0.58495213,0.33102261

>  <Name>
ligand

>  <RI>
0

>  <Rbt.Current_Directory>
/home/itssahil/PROJECTS/Mol_Feturizer/New_Systems/rnas/4P5J

>  <Rbt.Executable>
rbdock ($Id: //depot/dev/client3/rdock/2013.1/src/exe/rbdock.cxx#4 $)

>  <Rbt.Library>
libRbt.so (2013.1, Build901 2013/11/27)

>  <Rbt.Parameter_File>
/export/apps/rDock/src/rDock_2013.1_src/data/scripts/dock_solv.prm

>  <Rbt.Receptor>
prm/blind_docking_100.prm

>  <SCORE>
-6.0582

>  <SCORE.INTER>
2.72552

>  <SCORE.INTER.CONST>
1

>  <SCORE.INTER.POLAR>
0

>  <SCORE.INTER.ROT>
11

>  <SCORE.INTER.SOLV>
6.85405

>  <SCORE.INTER.VDW>
-11.401

>  <SCORE.INTER.norm>
0.19468

>  <SCORE.INTRA>
-8.78371

>  <SCORE.INTRA.DIHEDRAL>
-16.044

>  <SCORE.INTRA.DIHEDRAL.0>
17.5233

>  <SCORE.INTRA.POLAR>
0

>  <SCORE.INTRA.POLAR.0>
0

>  <SCORE.INTRA.REPUL>
0

>  <SCORE.INTRA.REPUL.0>
0

>  <SCORE.INTRA.SOLV>
-1.52352

>  <SCORE.INTRA.SOLV.lig_0>
-46.1043

>  <SCORE.INTRA.VDW>
6.27558e-05

>  <SCORE.INTRA.VDW.0>
-0.545445

>  <SCORE.INTRA.norm>
-0.627408

>  <SCORE.RESTR>
0

>  <SCORE.RESTR.CAVITY>
0

>  <SCORE.RESTR.norm>
0

>  <SCORE.SYSTEM>
0

>  <SCORE.SYSTEM.CONST>
0

>  <SCORE.SYSTEM.DIHEDRAL>
0

>  <SCORE.SYSTEM.SOLV>
0

>  <SCORE.SYSTEM.norm>
0

>  <SCORE.heavy>
14

>  <SCORE.norm>
-0.432728

>  <RMSD>
24.510

$$$$
ligand
 OpenBabel11021811513D
libRbt.so/2013.1/901 2013/11/27
 14 13  0  0  0  0  0  0  0  0999 V2000
   15.3177   61.8217   29.6360 N   0  0  0  0  0  0  0  0  0  0  0  0
   15.9264   62.3184   28.4126 C   0  0  0  0  0  0  0  0  0  0  0  0
   15.2339   63.5987   27.9576 C   0  0  0  0  0  0  0  0  0  0  0  0
   15.8348   64.1165   26.6557 C   0  0  0  0  0  0  0  0  0  0  0  0
   15.5413   63.2564   25.5132 N   0  0  0  0  0  0  0  0  0  0  0  0
   16.1398   63.5189   24.2152 C   0  0  0  0  0  0  0  0  0  0  0  0
   15.3017   62.9854   23.0586 C   0  0  0  0  0  0  0  0  0  0  0  0
   15.3466   61.4616   23.0411 C   0  0  0  0  0  0  0  0  0  0  0  0
   14.4758   60.9063   24.1629 C   0  0  0  0  0  0  0  0  0  0  0  0
   14.3091   59.4666   24.0630 N   0  0  0  0  0  0  0  0  0  0  0  0
   13.3162   58.8013   24.8962 C   0  0  0  0  0  0  0  0  0  0  0  0
   11.9097   59.3896   24.8063 C   0  0  0  0  0  0  0  0  0  0  0  0
   11.3837   59.3148   23.3719 C   0  0  0  0  0  0  0  0  0  0  0  0
   10.0892   59.9678   23.2765 N   0  0  0  0  0  0  0  0  0  0  0  0
  1  2  1  0  0  0  0
  2  3  1  0  0  0  0
  3  4  1  0  0  0  0
  4  5  1  0  0  0  0
  5  6  1  0  0  0  0
  6  7  1  0  0  0  0
  7  8  1  0  0  0  0
  8  9  1  0  0  0  0
  9 10  1  0  0  0  0
 10 11  1  0  0  0  0
 11 12  1  0  0  0  0
 12 13  1  0  0  0  0
 13 14  1  0  0  0  0
M  END
>  <CHROM.1>
-178.54482247,68.83649214,-173.95630484,-153.98162581,-70.36466223,74.73545084
170.77452358,-168.73111708,52.87839721,59.83251310,-175.67185878,14.29490343
61.49470763,25.21890169,0.58143678,0.78609456,1.62387640

>  <Name>
ligand

>  <RI>
0

>  <Rbt.Current_Directory>
/home/itssahil/PROJECTS/Mol_Feturizer/New_Systems/rnas/4P5J

>  <Rbt.Executable>
rbdock ($Id: //depot/dev/client3/rdock/2013.1/src/exe/rbdock.cxx#4 $)

>  <Rbt.Library>
libRbt.so (2013.1, Build901 2013/11/27)

>  <Rbt.Parameter_File>
/export/apps/rDock/src/rDock_2013.1_src/data/scripts/dock_solv.prm

>  <Rbt.Receptor>
prm/blind_docking_80.prm

>  <SCORE>
-6.50554

>  <SCORE.INTER>
0.837622

>  <SCORE.INTER.CONST>
1

>  <SCORE.INTER.POLAR>
0

>  <SCORE.INTER.ROT>
11

>  <SCORE.INTER.SOLV>
10.586

>  <SCORE.INTER.VDW>
-13.9036

>  <SCORE.INTER.norm>
0.0598301

>  <SCORE.INTRA>
-7.34316

>  <SCORE.INTRA.DIHEDRAL>
-14.9273

>  <SCORE.INTRA.DIHEDRAL.0>
17.5233

>  <SCORE.INTRA.POLAR>
0

>  <SCORE.INTRA.POLAR.0>
0

>  <SCORE.INTRA.REPUL>
0

>  <SCORE.INTRA.REPUL.0>
0

>  <SCORE.INTRA.SOLV>
-0.82559

>  <SCORE.INTRA.SOLV.lig_0>
-46.1043

>  <SCORE.INTRA.VDW>
0.533277

>  <SCORE.INTRA.VDW.0>
-0.545445

>  <SCORE.INTRA.norm>
-0.524512

>  <SCORE.RESTR>
0

>  <SCORE.RESTR.CAVITY>
0

>  <SCORE.RESTR.norm>
0

>  <SCORE.SYSTEM>
0

>  <SCORE.SYSTEM.CONST>
0

>  <SCORE.SYSTEM.DIHEDRAL>
0

>  <SCORE.SYSTEM.SOLV>
0

>  <SCORE.SYSTEM.norm>
0

>  <SCORE.heavy>
14

>  <SCORE.norm>
-0.464682

>  <RMSD>
24.678

$$$$
ligand
 OpenBabel11021811513D
libRbt.so/2013.1/901 2013/11/27
 14 13  0  0  0  0  0  0  0  0999 V2000
   17.4971   64.7419   26.6604 N   0  0  0  0  0  0  0  0  0  0  0  0
   16.4739   63.7106   26.7194 C   0  0  0  0  0  0  0  0  0  0  0  0
   15.0927   64.3414   26.8608 C   0  0  0  0  0  0  0  0  0  0  0  0
   14.0080   63.2746   26.9586 C   0  0  0  0  0  0  0  0  0  0  0  0
   13.9487   62.4154   25.7799 N   0  0  0  0  0  0  0  0  0  0  0  0
   13.4162   62.9164   24.5240 C   0  0  0  0  0  0  0  0  0  0  0  0
   13.9026   62.1225   23.3166 C   0  0  0  0  0  0  0  0  0  0  0  0
   15.4145   62.2596   23.1764 C   0  0  0  0  0  0  0  0  0  0  0  0
   15.8928   61.4806   21.9559 C   0  0  0  0  0  0  0  0  0  0  0  0
   17.3234   61.6201   21.7454 N   0  0  0  0  0  0  0  0  0  0  0  0
   17.9188   61.1144   20.5156 C   0  0  0  0  0  0  0  0  0  0  0  0
   18.2400   59.6214   20.5288 C   0  0  0  0  0  0  0  0  0  0  0  0
   18.8532   59.1891   19.1958 C   0  0  0  0  0  0  0  0  0  0  0  0
   19.2354   57.7883   19.2490 N   0  0  0  0  0  0  0  0  0  0  0  0
  1  2  1  0  0  0  0
  2  3  1  0  0  0  0
  3  4  1  0  0  0  0
  4  5  1  0  0  0  0
  5  6  1  0  0  0  0
  6  7  1  0  0  0  0
  7  8  1  0  0  0  0
  8  9  1  0  0  0  0
  9 10  1  0  0  0  0
 10 11  1  0  0  0  0
 11 12  1  0  0  0  0
 12 13  1  0  0  0  0
 13 14  1  0  0  0  0
M  END
>  <CHROM.1>
-178.61587998,-60.58705773,-72.80870871,157.98990729,-63.54826680,-179.17774074
177.77738137,-170.68974273,-83.21546063,179.75019079,176.28746448,16.22949901
61.89984459,23.37047801,-1.99899741,-0.05057997,-2.17626853

>  <Name>
ligand

>  <RI>
0

>  <Rbt.Current_Directory>
/home/itssahil/PROJECTS/Mol_Feturizer/New_Systems/rnas/4P5J

>  <Rbt.Executable>
rbdock ($Id: //depot/dev/client3/rdock/2013.1/src/exe/rbdock.cxx#4 $)

>  <Rbt.Library>
libRbt.so (2013.1, Build901 2013/11/27)

>  <Rbt.Parameter_File>
/export/apps/rDock/src/rDock_2013.1_src/data/scripts/dock_solv.prm

>  <Rbt.Receptor>
prm/blind_docking_80.prm

>  <SCORE>
-8.24009

>  <SCORE.INTER>
1.43216

>  <SCORE.INTER.CONST>
1

>  <SCORE.INTER.POLAR>
0

>  <SCORE.INTER.ROT>
11

>  <SCORE.INTER.SOLV>
6.30187

>  <SCORE.INTER.VDW>
-12.0792

>  <SCORE.INTER.norm>
0.102297

>  <SCORE.INTRA>
-9.67226

>  <SCORE.INTRA.DIHEDRAL>
-16.4461

>  <SCORE.INTRA.DIHEDRAL.0>
17.5233

>  <SCORE.INTRA.POLAR>
0

>  <SCORE.INTRA.POLAR.0>
0

>  <SCORE.INTRA.REPUL>
0

>  <SCORE.INTRA.REPUL.0>
0

>  <SCORE.INTRA.SOLV>
-1.93648

>  <SCORE.INTRA.SOLV.lig_0>
-46.1043

>  <SCORE.INTRA.VDW>
-0.48096

>  <SCORE.INTRA.VDW.0>
-0.545445

>  <SCORE.INTRA.norm>
-0.690875

>  <SCORE.RESTR>
0

>  <SCORE.RESTR.CAVITY>
0

>  <SCORE.RESTR.norm>
0

>  <SCORE.SYSTEM>
0

>  <SCORE.SYSTEM.CONST>
0

>  <SCORE.SYSTEM.DIHEDRAL>
0

>  <SCORE.SYSTEM.SOLV>
0

>  <SCORE.SYSTEM.norm>
0

>  <SCORE.heavy>
14

>  <SCORE.norm>
-0.588578

>  <RMSD>
24.690

$$$$
ligand
 OpenBabel11021811513D
libRbt.so/2013.1/901 2013/11/27
 14 13  0  0  0  0  0  0  0  0999 V2000
   17.4072   65.8641   27.4578 N   0  0  0  0  0  0  0  0  0  0  0  0
   16.2739   65.6748   26.5667 C   0  0  0  0  0  0  0  0  0  0  0  0
   15.6223   64.3191   26.8182 C   0  0  0  0  0  0  0  0  0  0  0  0
   14.4889   64.0620   25.8315 C   0  0  0  0  0  0  0  0  0  0  0  0
   13.8810   62.7449   25.9956 N   0  0  0  0  0  0  0  0  0  0  0  0
   14.5132   61.5622   25.4358 C   0  0  0  0  0  0  0  0  0  0  0  0
   13.8361   61.0781   24.1583 C   0  0  0  0  0  0  0  0  0  0  0  0
   13.8486   62.1845   23.1094 C   0  0  0  0  0  0  0  0  0  0  0  0
   15.2826   62.4698   22.6767 C   0  0  0  0  0  0  0  0  0  0  0  0
   15.8756   61.3441   21.9756 N   0  0  0  0  0  0  0  0  0  0  0  0
   17.1799   61.4997   21.3452 C   0  0  0  0  0  0  0  0  0  0  0  0
   17.7506   60.2213   20.7351 C   0  0  0  0  0  0  0  0  0  0  0  0
   19.1145   60.4897   20.0968 C   0  0  0  0  0  0  0  0  0  0  0  0
   19.6429   59.2707   19.5086 N   0  0  0  0  0  0  0  0  0  0  0  0
  1  2  1  0  0  0  0
  2  3  1  0  0  0  0
  3  4  1  0  0  0  0
  4  5  1  0  0  0  0
  5  6  1  0  0  0  0
  6  7  1  0  0  0  0
  7  8  1  0  0  0  0
  8  9  1  0  0  0  0
  9 10  1  0  0  0  0
 10 11  1  0  0  0  0
 11 12  1  0  0  0  0
 12 13  1  0  0  0  0
 13 14  1  0  0  0  0
M  END
>  <CHROM.1>
-176.24519957,177.15068760,-80.17889321,-103.08066940,58.31774138,66.30614108
66.02703726,172.39796725,175.37015219,179.81254088,-179.46368596,16.05097464
62.34180032,23.69365713,-1.96252612,-0.30870877,-2.28744025

>  <Name>
ligand

>  <RI>
0

>  <Rbt.Current_Directory>
/home/itssahil/PROJECTS/Mol_Feturizer/New_Systems/rnas/4P5J

>  <Rbt.Executable>
rbdock ($Id: //depot/dev/client3/rdock/2013.1/src/exe/rbdock.cxx#4 $)

>  <Rbt.Library>
libRbt.so (2013.1, Build901 2013/11/27)

>  <Rbt.Parameter_File>
/export/apps/rDock/src/rDock_2013.1_src/data/scripts/dock_solv.prm

>  <Rbt.Receptor>
prm/blind_docking_80.prm

>  <SCORE>
-6.79132

>  <SCORE.INTER>
1.35507

>  <SCORE.INTER.CONST>
1

>  <SCORE.INTER.POLAR>
0

>  <SCORE.INTER.ROT>
11

>  <SCORE.INTER.SOLV>
7.43595

>  <SCORE.INTER.VDW>
-12.5086

>  <SCORE.INTER.norm>
0.0967907

>  <SCORE.INTRA>
-8.14639

>  <SCORE.INTRA.DIHEDRAL>
-15.7771

>  <SCORE.INTRA.DIHEDRAL.0>
17.5233

>  <SCORE.INTRA.POLAR>
0

>  <SCORE.INTRA.POLAR.0>
0

>  <SCORE.INTRA.REPUL>
0

>  <SCORE.INTRA.REPUL.0>
0

>  <SCORE.INTRA.SOLV>
-1.37403

>  <SCORE.INTRA.SOLV.lig_0>
-46.1043

>  <SCORE.INTRA.VDW>
0.42915

>  <SCORE.INTRA.VDW.0>
-0.545445

>  <SCORE.INTRA.norm>
-0.581885

>  <SCORE.RESTR>
0

>  <SCORE.RESTR.CAVITY>
0

>  <SCORE.RESTR.norm>
0

>  <SCORE.SYSTEM>
0

>  <SCORE.SYSTEM.CONST>
0

>  <SCORE.SYSTEM.DIHEDRAL>
0

>  <SCORE.SYSTEM.SOLV>
0

>  <SCORE.SYSTEM.norm>
0

>  <SCORE.heavy>
14

>  <SCORE.norm>
-0.485094

>  <RMSD>
24.834

$$$$
ligand
 OpenBabel11021811513D
libRbt.so/2013.1/901 2013/11/27
 14 13  0  0  0  0  0  0  0  0999 V2000
   12.8595   62.6534   25.9275 N   0  0  0  0  0  0  0  0  0  0  0  0
   11.5621   62.5742   25.2761 C   0  0  0  0  0  0  0  0  0  0  0  0
   11.7230   62.6580   23.7618 C   0  0  0  0  0  0  0  0  0  0  0  0
   12.4783   61.4492   23.2211 C   0  0  0  0  0  0  0  0  0  0  0  0
   13.8947   61.4599   23.5746 N   0  0  0  0  0  0  0  0  0  0  0  0
   14.8794   62.0309   22.6713 C   0  0  0  0  0  0  0  0  0  0  0  0
   16.0810   62.6201   23.4020 C   0  0  0  0  0  0  0  0  0  0  0  0
   15.6413   63.7980   24.2644 C   0  0  0  0  0  0  0  0  0  0  0  0
   16.8556   64.4239   24.9416 C   0  0  0  0  0  0  0  0  0  0  0  0
   16.4874   65.5290   25.8097 N   0  0  0  0  0  0  0  0  0  0  0  0
   17.5331   66.3129   26.4537 C   0  0  0  0  0  0  0  0  0  0  0  0
   17.1401   66.9180   27.7997 C   0  0  0  0  0  0  0  0  0  0  0  0
   18.2996   67.7230   28.3891 C   0  0  0  0  0  0  0  0  0  0  0  0
   17.9564   68.1991   29.7183 N   0  0  0  0  0  0  0  0  0  0  0  0
  1  2  1  0  0  0  0
  2  3  1  0  0  0  0
  3  4  1  0  0  0  0
  4  5  1  0  0  0  0
  5  6  1  0  0  0  0
  6  7  1  0  0  0  0
  7  8  1  0  0  0  0
  8  9  1  0  0  0  0
  9 10  1  0  0  0  0
 10 11  1  0  0  0  0
 11 12  1  0  0  0  0
 12 13  1  0  0  0  0
 13 14  1  0  0  0  0
M  END
>  <CHROM.1>
65.29465844,-71.11613598,-93.35350959,149.85413057,-64.24399094,-177.36962026
-178.26591526,-175.07484098,-150.39516556,-179.79021212,-175.17680578,15.24222050
64.16770768,25.37184597,2.21594165,-0.32207382,-2.21843984

>  <Name>
ligand

>  <RI>
0

>  <Rbt.Current_Directory>
/home/itssahil/PROJECTS/Mol_Feturizer/New_Systems/rnas/4P5J

>  <Rbt.Executable>
rbdock ($Id: //depot/dev/client3/rdock/2013.1/src/exe/rbdock.cxx#4 $)

>  <Rbt.Library>
libRbt.so (2013.1, Build901 2013/11/27)

>  <Rbt.Parameter_File>
/export/apps/rDock/src/rDock_2013.1_src/data/scripts/dock_solv.prm

>  <Rbt.Receptor>
prm/blind_docking_80.prm

>  <SCORE>
-6.27123

>  <SCORE.INTER>
1.11196

>  <SCORE.INTER.CONST>
1

>  <SCORE.INTER.POLAR>
0

>  <SCORE.INTER.ROT>
11

>  <SCORE.INTER.SOLV>
10.2414

>  <SCORE.INTER.VDW>
-13.6058

>  <SCORE.INTER.norm>
0.0794256

>  <SCORE.INTRA>
-7.38319

>  <SCORE.INTRA.DIHEDRAL>
-14.8507

>  <SCORE.INTRA.DIHEDRAL.0>
17.5233

>  <SCORE.INTRA.POLAR>
0

>  <SCORE.INTRA.POLAR.0>
0

>  <SCORE.INTRA.REPUL>
0

>  <SCORE.INTRA.REPUL.0>
0

>  <SCORE.INTRA.SOLV>
2.10495

>  <SCORE.INTRA.SOLV.lig_0>
-46.1043

>  <SCORE.INTRA.VDW>
-1.01032

>  <SCORE.INTRA.VDW.0>
-0.545445

>  <SCORE.INTRA.norm>
-0.527371

>  <SCORE.RESTR>
0

>  <SCORE.RESTR.CAVITY>
0

>  <SCORE.RESTR.norm>
0

>  <SCORE.SYSTEM>
0

>  <SCORE.SYSTEM.CONST>
0

>  <SCORE.SYSTEM.DIHEDRAL>
0

>  <SCORE.SYSTEM.SOLV>
0

>  <SCORE.SYSTEM.norm>
0

>  <SCORE.heavy>
14

>  <SCORE.norm>
-0.447945

>  <RMSD>
25.527

$$$$
ligand
 OpenBabel11021811513D
libRbt.so/2013.1/901 2013/11/27
 14 13  0  0  0  0  0  0  0  0999 V2000
   10.9957   60.0230   22.5835 N   0  0  0  0  0  0  0  0  0  0  0  0
   11.8129   61.1405   23.0276 C   0  0  0  0  0  0  0  0  0  0  0  0
   11.1244   61.8800   24.1699 C   0  0  0  0  0  0  0  0  0  0  0  0
   11.9510   63.0761   24.6284 C   0  0  0  0  0  0  0  0  0  0  0  0
   13.2325   62.6906   25.2117 N   0  0  0  0  0  0  0  0  0  0  0  0
   14.1245   63.6936   25.7689 C   0  0  0  0  0  0  0  0  0  0  0  0
   15.1237   64.2287   24.7490 C   0  0  0  0  0  0  0  0  0  0  0  0
   15.6390   65.5941   25.1901 C   0  0  0  0  0  0  0  0  0  0  0  0
   16.5206   65.4393   26.4246 C   0  0  0  0  0  0  0  0  0  0  0  0
   17.0442   66.7138   26.8850 N   0  0  0  0  0  0  0  0  0  0  0  0
   17.8523   66.7604   28.0963 C   0  0  0  0  0  0  0  0  0  0  0  0
   18.3115   68.1587   28.5040 C   0  0  0  0  0  0  0  0  0  0  0  0
   19.1811   68.0965   29.7609 C   0  0  0  0  0  0  0  0  0  0  0  0
   18.3964   67.6330   30.8925 N   0  0  0  0  0  0  0  0  0  0  0  0
  1  2  1  0  0  0  0
  2  3  1  0  0  0  0
  3  4  1  0  0  0  0
  4  5  1  0  0  0  0
  5  6  1  0  0  0  0
  6  7  1  0  0  0  0
  7  8  1  0  0  0  0
  8  9  1  0  0  0  0
  9 10  1  0  0  0  0
 10 11  1  0  0  0  0
 11 12  1  0  0  0  0
 12 13  1  0  0  0  0
 13 14  1  0  0  0  0
M  END
>  <CHROM.1>
-178.66740481,-64.82850516,-176.73415251,-91.26616029,158.12695502,69.17728829
179.76314489,176.88825845,-178.26273313,-178.47162138,-65.16277862,15.09362323
64.65217246,26.13506402,2.54019629,-0.70019852,-1.65873320

>  <Name>
ligand

>  <RI>
0

>  <Rbt.Current_Directory>
/home/itssahil/PROJECTS/Mol_Feturizer/New_Systems/rnas/4P5J

>  <Rbt.Executable>
rbdock ($Id: //depot/dev/client3/rdock/2013.1/src/exe/rbdock.cxx#4 $)

>  <Rbt.Library>
libRbt.so (2013.1, Build901 2013/11/27)

>  <Rbt.Parameter_File>
/export/apps/rDock/src/rDock_2013.1_src/data/scripts/dock_solv.prm

>  <Rbt.Receptor>
prm/blind_docking_100.prm

>  <SCORE>
-7.3903

>  <SCORE.INTER>
0.364009

>  <SCORE.INTER.CONST>
1

>  <SCORE.INTER.POLAR>
0

>  <SCORE.INTER.ROT>
11

>  <SCORE.INTER.SOLV>
10.4628

>  <SCORE.INTER.VDW>
-14.1783

>  <SCORE.INTER.norm>
0.0260006

>  <SCORE.INTRA>
-7.75431

>  <SCORE.INTRA.DIHEDRAL>
-14.6934

>  <SCORE.INTRA.DIHEDRAL.0>
17.5233

>  <SCORE.INTRA.POLAR>
0

>  <SCORE.INTRA.POLAR.0>
0

>  <SCORE.INTRA.REPUL>
0

>  <SCORE.INTRA.REPUL.0>
0

>  <SCORE.INTRA.SOLV>
-1.38087

>  <SCORE.INTRA.SOLV.lig_0>
-46.1043

>  <SCORE.INTRA.VDW>
0.282838

>  <SCORE.INTRA.VDW.0>
-0.545445

>  <SCORE.INTRA.norm>
-0.553879

>  <SCORE.RESTR>
0

>  <SCORE.RESTR.CAVITY>
0

>  <SCORE.RESTR.norm>
0

>  <SCORE.SYSTEM>
0

>  <SCORE.SYSTEM.CONST>
0

>  <SCORE.SYSTEM.DIHEDRAL>
0

>  <SCORE.SYSTEM.SOLV>
0

>  <SCORE.SYSTEM.norm>
0

>  <SCORE.heavy>
14

>  <SCORE.norm>
-0.527879

>  <RMSD>
25.602

$$$$
ligand
 OpenBabel11021811513D
libRbt.so/2013.1/901 2013/11/27
 14 13  0  0  0  0  0  0  0  0999 V2000
    7.8849   62.2623   22.4074 N   0  0  0  0  0  0  0  0  0  0  0  0
    8.5480   61.9204   21.1594 C   0  0  0  0  0  0  0  0  0  0  0  0
    8.8660   60.4295   21.1189 C   0  0  0  0  0  0  0  0  0  0  0  0
    9.8378   60.0439   22.2285 C   0  0  0  0  0  0  0  0  0  0  0  0
   11.1279   60.7173   22.1126 N   0  0  0  0  0  0  0  0  0  0  0  0
   12.0214   60.8080   23.2552 C   0  0  0  0  0  0  0  0  0  0  0  0
   12.9013   62.0528   23.2206 C   0  0  0  0  0  0  0  0  0  0  0  0
   13.8628   62.0452   24.4038 C   0  0  0  0  0  0  0  0  0  0  0  0
   14.6801   63.3325   24.4134 C   0  0  0  0  0  0  0  0  0  0  0  0
   15.6047   63.3839   25.5327 N   0  0  0  0  0  0  0  0  0  0  0  0
   16.2786   64.6365   25.8478 C   0  0  0  0  0  0  0  0  0  0  0  0
   15.7649   65.3398   27.1023 C   0  0  0  0  0  0  0  0  0  0  0  0
   16.5728   66.6089   27.3791 C   0  0  0  0  0  0  0  0  0  0  0  0
   17.9283   66.2656   27.7741 N   0  0  0  0  0  0  0  0  0  0  0  0
  1  2  1  0  0  0  0
  2  3  1  0  0  0  0
  3  4  1  0  0  0  0
  4  5  1  0  0  0  0
  5  6  1  0  0  0  0
  6  7  1  0  0  0  0
  7  8  1  0  0  0  0
  8  9  1  0  0  0  0
  9 10  1  0  0  0  0
 10 11  1  0  0  0  0
 11 12  1  0  0  0  0
 12 13  1  0  0  0  0
 13 14  1  0  0  0  0
M  END
>  <CHROM.1>
-62.77647301,-61.88183543,161.14563725,-150.56117008,-176.92482004,-176.50291624
179.35473493,-168.35230062,106.87187996,177.58902368,-68.51867141,12.99134253
62.84605927,24.13956611,2.46215762,0.33022780,-2.67278110

>  <Name>
ligand

>  <RI>
0

>  <Rbt.Current_Directory>
/home/itssahil/PROJECTS/Mol_Feturizer/New_Systems/rnas/4P5J

>  <Rbt.Executable>
rbdock ($Id: //depot/dev/client3/rdock/2013.1/src/exe/rbdock.cxx#4 $)

>  <Rbt.Library>
libRbt.so (2013.1, Build901 2013/11/27)

>  <Rbt.Parameter_File>
/export/apps/rDock/src/rDock_2013.1_src/data/scripts/dock_solv.prm

>  <Rbt.Receptor>
prm/blind_docking_80.prm

>  <SCORE>
-6.38737

>  <SCORE.INTER>
1.61874

>  <SCORE.INTER.CONST>
1

>  <SCORE.INTER.POLAR>
0

>  <SCORE.INTER.ROT>
11

>  <SCORE.INTER.SOLV>
6.61081

>  <SCORE.INTER.VDW>
-12.0578

>  <SCORE.INTER.norm>
0.115624

>  <SCORE.INTRA>
-8.0061

>  <SCORE.INTRA.DIHEDRAL>
-15.0767

>  <SCORE.INTRA.DIHEDRAL.0>
17.5233

>  <SCORE.INTRA.POLAR>
0

>  <SCORE.INTRA.POLAR.0>
0

>  <SCORE.INTRA.REPUL>
0

>  <SCORE.INTRA.REPUL.0>
0

>  <SCORE.INTRA.SOLV>
0.014576

>  <SCORE.INTRA.SOLV.lig_0>
-46.1043

>  <SCORE.INTRA.VDW>
-0.475048

>  <SCORE.INTRA.VDW.0>
-0.545445

>  <SCORE.INTRA.norm>
-0.571865

>  <SCORE.RESTR>
0

>  <SCORE.RESTR.CAVITY>
0

>  <SCORE.RESTR.norm>
0

>  <SCORE.SYSTEM>
0

>  <SCORE.SYSTEM.CONST>
0

>  <SCORE.SYSTEM.DIHEDRAL>
0

>  <SCORE.SYSTEM.SOLV>
0

>  <SCORE.SYSTEM.norm>
0

>  <SCORE.heavy>
14

>  <SCORE.norm>
-0.456241

>  <RMSD>
27.051

$$$$
ligand
 OpenBabel11021811513D
libRbt.so/2013.1/901 2013/11/27
 14 13  0  0  0  0  0  0  0  0999 V2000
   17.4708   63.1586   23.0813 N   0  0  0  0  0  0  0  0  0  0  0  0
   16.9537   62.2724   22.0512 C   0  0  0  0  0  0  0  0  0  0  0  0
   16.0075   61.2442   22.6623 C   0  0  0  0  0  0  0  0  0  0  0  0
   14.7409   61.9080   23.1910 C   0  0  0  0  0  0  0  0  0  0  0  0
   13.8030   60.9554   23.7775 N   0  0  0  0  0  0  0  0  0  0  0  0
   12.4175   60.9156   23.3408 C   0  0  0  0  0  0  0  0  0  0  0  0
   11.8213   59.5132   23.3917 C   0  0  0  0  0  0  0  0  0  0  0  0
   10.3667   59.5476   22.9363 C   0  0  0  0  0  0  0  0  0  0  0  0
   10.3016   59.8038   21.4345 C   0  0  0  0  0  0  0  0  0  0  0  0
    8.9505   60.0979   20.9889 N   0  0  0  0  0  0  0  0  0  0  0  0
    8.3602   61.3931   21.2994 C   0  0  0  0  0  0  0  0  0  0  0  0
    6.8337   61.4040   21.3471 C   0  0  0  0  0  0  0  0  0  0  0  0
    6.3308   60.8314   22.6734 C   0  0  0  0  0  0  0  0  0  0  0  0
    6.5408   61.7887   23.7461 N   0  0  0  0  0  0  0  0  0  0  0  0
  1  2  1  0  0  0  0
  2  3  1  0  0  0  0
  3  4  1  0  0  0  0
  4  5  1  0  0  0  0
  5  6  1  0  0  0  0
  6  7  1  0  0  0  0
  7  8  1  0  0  0  0
  8  9  1  0  0  0  0
  9 10  1  0  0  0  0
 10 11  1  0  0  0  0
 11 12  1  0  0  0  0
 12 13  1  0  0  0  0
 13 14  1  0  0  0  0
M  END
>  <CHROM.1>
67.04170487,179.62402400,-127.05788633,147.26951893,179.39196105,71.08210235
-169.10633929,73.59258294,-154.81358745,78.98682788,74.21223934,11.49270533
61.05938829,22.56568475,0.12643448,-0.07237590,0.06080375

>  <Name>
ligand

>  <RI>
0

>  <Rbt.Current_Directory>
/home/itssahil/PROJECTS/Mol_Feturizer/New_Systems/rnas/4P5J

>  <Rbt.Executable>
rbdock ($Id: //depot/dev/client3/rdock/2013.1/src/exe/rbdock.cxx#4 $)

>  <Rbt.Library>
libRbt.so (2013.1, Build901 2013/11/27)

>  <Rbt.Parameter_File>
/export/apps/rDock/src/rDock_2013.1_src/data/scripts/dock_solv.prm

>  <Rbt.Receptor>
prm/blind_docking_100.prm

>  <SCORE>
-6.80674

>  <SCORE.INTER>
-0.831331

>  <SCORE.INTER.CONST>
1

>  <SCORE.INTER.POLAR>
0

>  <SCORE.INTER.ROT>
11

>  <SCORE.INTER.SOLV>
8.34928

>  <SCORE.INTER.VDW>
-14.2706

>  <SCORE.INTER.norm>
-0.0593808

>  <SCORE.INTRA>
-5.97541

>  <SCORE.INTRA.DIHEDRAL>
-11.9723

>  <SCORE.INTRA.DIHEDRAL.0>
17.5233

>  <SCORE.INTRA.POLAR>
0

>  <SCORE.INTRA.POLAR.0>
0

>  <SCORE.INTRA.REPUL>
0

>  <SCORE.INTRA.REPUL.0>
0

>  <SCORE.INTRA.SOLV>
-0.331376

>  <SCORE.INTRA.SOLV.lig_0>
-46.1043

>  <SCORE.INTRA.VDW>
0.176429

>  <SCORE.INTRA.VDW.0>
-0.545445

>  <SCORE.INTRA.norm>
-0.426815

>  <SCORE.RESTR>
0

>  <SCORE.RESTR.CAVITY>
0

>  <SCORE.RESTR.norm>
0

>  <SCORE.SYSTEM>
0

>  <SCORE.SYSTEM.CONST>
0

>  <SCORE.SYSTEM.DIHEDRAL>
0

>  <SCORE.SYSTEM.SOLV>
0

>  <SCORE.SYSTEM.norm>
0

>  <SCORE.heavy>
14

>  <SCORE.norm>
-0.486196

>  <RMSD>
27.829

$$$$
ligand
 OpenBabel11021811513D
libRbt.so/2013.1/901 2013/11/27
 14 13  0  0  0  0  0  0  0  0999 V2000
    4.9428   61.6995   21.3436 N   0  0  0  0  0  0  0  0  0  0  0  0
    6.0574   61.1615   22.1067 C   0  0  0  0  0  0  0  0  0  0  0  0
    7.2987   61.0530   21.2274 C   0  0  0  0  0  0  0  0  0  0  0  0
    8.5119   60.6147   22.0399 C   0  0  0  0  0  0  0  0  0  0  0  0
    9.7175   60.4729   21.2289 N   0  0  0  0  0  0  0  0  0  0  0  0
   10.6970   59.4429   21.5315 C   0  0  0  0  0  0  0  0  0  0  0  0
   11.4173   59.6819   22.8540 C   0  0  0  0  0  0  0  0  0  0  0  0
   12.1419   61.0228   22.8188 C   0  0  0  0  0  0  0  0  0  0  0  0
   13.0405   61.1566   24.0434 C   0  0  0  0  0  0  0  0  0  0  0  0
   13.7385   62.4304   24.0719 N   0  0  0  0  0  0  0  0  0  0  0  0
   14.6382   62.7292   25.1782 C   0  0  0  0  0  0  0  0  0  0  0  0
   14.9110   64.2161   25.3953 C   0  0  0  0  0  0  0  0  0  0  0  0
   15.6281   64.8160   24.1847 C   0  0  0  0  0  0  0  0  0  0  0  0
   16.9709   64.2718   24.0753 N   0  0  0  0  0  0  0  0  0  0  0  0
  1  2  1  0  0  0  0
  2  3  1  0  0  0  0
  3  4  1  0  0  0  0
  4  5  1  0  0  0  0
  5  6  1  0  0  0  0
  6  7  1  0  0  0  0
  7  8  1  0  0  0  0
  8  9  1  0  0  0  0
  9 10  1  0  0  0  0
 10 11  1  0  0  0  0
 11 12  1  0  0  0  0
 12 13  1  0  0  0  0
 13 14  1  0  0  0  0
M  END
>  <CHROM.1>
174.67886432,178.86348384,-145.45370113,-67.40219540,-59.41028390,-170.84495075
-178.97484628,179.76453991,-158.64142462,-63.55057784,-67.74680173,11.40800574
61.76905496,23.00724411,2.74304023,0.22816387,-2.81743937

>  <Name>
ligand

>  <RI>
0

>  <Rbt.Current_Directory>
/home/itssahil/PROJECTS/Mol_Feturizer/New_Systems/rnas/4P5J

>  <Rbt.Executable>
rbdock ($Id: //depot/dev/client3/rdock/2013.1/src/exe/rbdock.cxx#4 $)

>  <Rbt.Library>
libRbt.so (2013.1, Build901 2013/11/27)

>  <Rbt.Parameter_File>
/export/apps/rDock/src/rDock_2013.1_src/data/scripts/dock_solv.prm

>  <Rbt.Receptor>
prm/blind_docking_100.prm

>  <SCORE>
-6.63879

>  <SCORE.INTER>
1.66715

>  <SCORE.INTER.CONST>
1

>  <SCORE.INTER.POLAR>
0

>  <SCORE.INTER.ROT>
11

>  <SCORE.INTER.SOLV>
7.56538

>  <SCORE.INTER.VDW>
-12.3437

>  <SCORE.INTER.norm>
0.119082

>  <SCORE.INTRA>
-8.30593

>  <SCORE.INTRA.DIHEDRAL>
-15.6666

>  <SCORE.INTRA.DIHEDRAL.0>
17.5233

>  <SCORE.INTRA.POLAR>
0

>  <SCORE.INTRA.POLAR.0>
0

>  <SCORE.INTRA.REPUL>
0

>  <SCORE.INTRA.REPUL.0>
0

>  <SCORE.INTRA.SOLV>
-0.648251

>  <SCORE.INTRA.SOLV.lig_0>
-46.1043

>  <SCORE.INTRA.VDW>
-0.148532

>  <SCORE.INTRA.VDW.0>
-0.545445

>  <SCORE.INTRA.norm>
-0.593281

>  <SCORE.RESTR>
0

>  <SCORE.RESTR.CAVITY>
0

>  <SCORE.RESTR.norm>
0

>  <SCORE.SYSTEM>
0

>  <SCORE.SYSTEM.CONST>
0

>  <SCORE.SYSTEM.DIHEDRAL>
0

>  <SCORE.SYSTEM.SOLV>
0

>  <SCORE.SYSTEM.norm>
0

>  <SCORE.heavy>
14

>  <SCORE.norm>
-0.474199

>  <RMSD>
28.075

$$$$
ligand
 OpenBabel11021811513D
libRbt.so/2013.1/901 2013/11/27
 14 13  0  0  0  0  0  0  0  0999 V2000
   18.1335   63.4265   20.7370 N   0  0  0  0  0  0  0  0  0  0  0  0
   17.2597   63.0645   21.8412 C   0  0  0  0  0  0  0  0  0  0  0  0
   16.6940   61.6637   21.6326 C   0  0  0  0  0  0  0  0  0  0  0  0
   15.7930   61.2558   22.7928 C   0  0  0  0  0  0  0  0  0  0  0  0
   14.6241   62.1189   22.9347 N   0  0  0  0  0  0  0  0  0  0  0  0
   13.3801   61.5982   23.4760 C   0  0  0  0  0  0  0  0  0  0  0  0
   12.1599   62.3935   23.0250 C   0  0  0  0  0  0  0  0  0  0  0  0
   10.8884   61.7518   23.5691 C   0  0  0  0  0  0  0  0  0  0  0  0
    9.6693   62.5278   23.0826 C   0  0  0  0  0  0  0  0  0  0  0  0
    8.4260   61.8472   23.4010 N   0  0  0  0  0  0  0  0  0  0  0  0
    7.4754   61.5570   22.3357 C   0  0  0  0  0  0  0  0  0  0  0  0
    6.2416   60.7728   22.7773 C   0  0  0  0  0  0  0  0  0  0  0  0
    5.2895   60.5561   21.5998 C   0  0  0  0  0  0  0  0  0  0  0  0
    4.7386   61.8261   21.1586 N   0  0  0  0  0  0  0  0  0  0  0  0
  1  2  1  0  0  0  0
  2  3  1  0  0  0  0
  3  4  1  0  0  0  0
  4  5  1  0  0  0  0
  5  6  1  0  0  0  0
  6  7  1  0  0  0  0
  7  8  1  0  0  0  0
  8  9  1  0  0  0  0
  9 10  1  0  0  0  0
 10 11  1  0  0  0  0
 11 12  1  0  0  0  0
 12 13  1  0  0  0  0
 13 14  1  0  0  0  0
M  END
>  <CHROM.1>
179.03255044,62.27438590,150.09185320,-155.68493774,177.08437921,-178.40409182
171.28809423,-125.51727067,176.83995890,178.31076284,-66.32876523,11.48378650
61.88267813,22.45469802,0.04840242,-0.09527590,-1.31072615

>  <Name>
ligand

>  <RI>
0

>  <Rbt.Current_Directory>
/home/itssahil/PROJECTS/Mol_Feturizer/New_Systems/rnas/4P5J

>  <Rbt.Executable>
rbdock ($Id: //depot/dev/client3/rdock/2013.1/src/exe/rbdock.cxx#4 $)

>  <Rbt.Library>
libRbt.so (2013.1, Build901 2013/11/27)

>  <Rbt.Parameter_File>
/export/apps/rDock/src/rDock_2013.1_src/data/scripts/dock_solv.prm

>  <Rbt.Receptor>
prm/blind_docking_80.prm

>  <SCORE>
-8.5869

>  <SCORE.INTER>
0.154991

>  <SCORE.INTER.CONST>
1

>  <SCORE.INTER.POLAR>
0

>  <SCORE.INTER.ROT>
11

>  <SCORE.INTER.SOLV>
9.50238

>  <SCORE.INTER.VDW>
-13.9975

>  <SCORE.INTER.norm>
0.0110708

>  <SCORE.INTRA>
-8.74189

>  <SCORE.INTRA.DIHEDRAL>
-14.8098

>  <SCORE.INTRA.DIHEDRAL.0>
17.5233

>  <SCORE.INTRA.POLAR>
0

>  <SCORE.INTRA.POLAR.0>
0

>  <SCORE.INTRA.REPUL>
0

>  <SCORE.INTRA.REPUL.0>
0

>  <SCORE.INTRA.SOLV>
-1.58064

>  <SCORE.INTRA.SOLV.lig_0>
-46.1043

>  <SCORE.INTRA.VDW>
-0.546667

>  <SCORE.INTRA.VDW.0>
-0.545445

>  <SCORE.INTRA.norm>
-0.624421

>  <SCORE.RESTR>
0

>  <SCORE.RESTR.CAVITY>
0

>  <SCORE.RESTR.norm>
0

>  <SCORE.SYSTEM>
0

>  <SCORE.SYSTEM.CONST>
0

>  <SCORE.SYSTEM.DIHEDRAL>
0

>  <SCORE.SYSTEM.SOLV>
0

>  <SCORE.SYSTEM.norm>
0

>  <SCORE.heavy>
14

>  <SCORE.norm>
-0.61335

>  <RMSD>
28.291

$$$$
ligand
 OpenBabel11021811513D
libRbt.so/2013.1/901 2013/11/27
 14 13  0  0  0  0  0  0  0  0999 V2000
   10.5214   63.5386   29.4852 N   0  0  0  0  0  0  0  0  0  0  0  0
   11.8776   63.2239   29.0659 C   0  0  0  0  0  0  0  0  0  0  0  0
   12.0323   63.4415   27.5644 C   0  0  0  0  0  0  0  0  0  0  0  0
   13.4287   63.0513   27.0930 C   0  0  0  0  0  0  0  0  0  0  0  0
   13.6822   63.4189   25.7031 N   0  0  0  0  0  0  0  0  0  0  0  0
   13.1071   62.6454   24.6155 C   0  0  0  0  0  0  0  0  0  0  0  0
   11.6788   63.0628   24.2835 C   0  0  0  0  0  0  0  0  0  0  0  0
   11.1357   62.2058   23.1455 C   0  0  0  0  0  0  0  0  0  0  0  0
    9.7384   62.6811   22.7624 C   0  0  0  0  0  0  0  0  0  0  0  0
    9.1682   61.8890   21.6864 N   0  0  0  0  0  0  0  0  0  0  0  0
    8.0895   62.4462   20.8811 C   0  0  0  0  0  0  0  0  0  0  0  0
    6.6942   62.2778   21.4787 C   0  0  0  0  0  0  0  0  0  0  0  0
    6.3166   60.7978   21.5604 C   0  0  0  0  0  0  0  0  0  0  0  0
    4.9760   60.6501   22.1009 N   0  0  0  0  0  0  0  0  0  0  0  0
  1  2  1  0  0  0  0
  2  3  1  0  0  0  0
  3  4  1  0  0  0  0
  4  5  1  0  0  0  0
  5  6  1  0  0  0  0
  6  7  1  0  0  0  0
  7  8  1  0  0  0  0
  8  9  1  0  0  0  0
  9 10  1  0  0  0  0
 10 11  1  0  0  0  0
 11 12  1  0  0  0  0
 12 13  1  0  0  0  0
 13 14  1  0  0  0  0
M  END
>  <CHROM.1>
-177.20744145,-171.87262431,-75.89596843,83.90614854,-179.54657095,-176.68134214
-179.52675086,-158.68942254,-84.45212050,-64.60848809,-178.67244846,10.17501027
62.52365218,24.38741789,0.82636096,0.19228274,1.46339713

>  <Name>
ligand

>  <RI>
0

>  <Rbt.Current_Directory>
/home/itssahil/PROJECTS/Mol_Feturizer/New_Systems/rnas/4P5J

>  <Rbt.Executable>
rbdock ($Id: //depot/dev/client3/rdock/2013.1/src/exe/rbdock.cxx#4 $)

>  <Rbt.Library>
libRbt.so (2013.1, Build901 2013/11/27)

>  <Rbt.Parameter_File>
/export/apps/rDock/src/rDock_2013.1_src/data/scripts/dock_solv.prm

>  <Rbt.Receptor>
prm/blind_docking_80.prm

>  <SCORE>
-7.17084

>  <SCORE.INTER>
2.12157

>  <SCORE.INTER.CONST>
1

>  <SCORE.INTER.POLAR>
0

>  <SCORE.INTER.ROT>
11

>  <SCORE.INTER.SOLV>
12.2203

>  <SCORE.INTER.VDW>
-13.5924

>  <SCORE.INTER.norm>
0.151541

>  <SCORE.INTRA>
-9.29241

>  <SCORE.INTRA.DIHEDRAL>
-15.741

>  <SCORE.INTRA.DIHEDRAL.0>
17.5233

>  <SCORE.INTRA.POLAR>
0

>  <SCORE.INTRA.POLAR.0>
0

>  <SCORE.INTRA.REPUL>
0

>  <SCORE.INTRA.REPUL.0>
0

>  <SCORE.INTRA.SOLV>
-2.41651

>  <SCORE.INTRA.SOLV.lig_0>
-46.1043

>  <SCORE.INTRA.VDW>
-0.213672

>  <SCORE.INTRA.VDW.0>
-0.545445

>  <SCORE.INTRA.norm>
-0.663744

>  <SCORE.RESTR>
0

>  <SCORE.RESTR.CAVITY>
0

>  <SCORE.RESTR.norm>
0

>  <SCORE.SYSTEM>
0

>  <SCORE.SYSTEM.CONST>
0

>  <SCORE.SYSTEM.DIHEDRAL>
0

>  <SCORE.SYSTEM.SOLV>
0

>  <SCORE.SYSTEM.norm>
0

>  <SCORE.heavy>
14

>  <SCORE.norm>
-0.512203

>  <RMSD>
28.520

$$$$
ligand
 OpenBabel11021811513D
libRbt.so/2013.1/901 2013/11/27
 14 13  0  0  0  0  0  0  0  0999 V2000
   12.7101   57.9995   25.5743 N   0  0  0  0  0  0  0  0  0  0  0  0
   13.4994   58.6485   24.5401 C   0  0  0  0  0  0  0  0  0  0  0  0
   12.9610   60.0480   24.2620 C   0  0  0  0  0  0  0  0  0  0  0  0
   11.5495   59.9907   23.6887 C   0  0  0  0  0  0  0  0  0  0  0  0
   11.5165   59.5206   22.3070 N   0  0  0  0  0  0  0  0  0  0  0  0
   10.2603   59.4443   21.5803 C   0  0  0  0  0  0  0  0  0  0  0  0
    9.4191   60.7084   21.7187 C   0  0  0  0  0  0  0  0  0  0  0  0
    8.1370   60.5738   20.9047 C   0  0  0  0  0  0  0  0  0  0  0  0
    7.2424   61.7848   21.1462 C   0  0  0  0  0  0  0  0  0  0  0  0
    6.6371   61.7619   22.4667 N   0  0  0  0  0  0  0  0  0  0  0  0
    5.5884   62.7199   22.7904 C   0  0  0  0  0  0  0  0  0  0  0  0
    4.7412   62.3524   24.0068 C   0  0  0  0  0  0  0  0  0  0  0  0
    3.7016   63.4384   24.2888 C   0  0  0  0  0  0  0  0  0  0  0  0
    2.7168   63.4810   23.2213 N   0  0  0  0  0  0  0  0  0  0  0  0
  1  2  1  0  0  0  0
  2  3  1  0  0  0  0
  3  4  1  0  0  0  0
  4  5  1  0  0  0  0
  5  6  1  0  0  0  0
  6  7  1  0  0  0  0
  7  8  1  0  0  0  0
  8  9  1  0  0  0  0
  9 10  1  0  0  0  0
 10 11  1  0  0  0  0
 11 12  1  0  0  0  0
 12 13  1  0  0  0  0
 13 14  1  0  0  0  0
M  END
>  <CHROM.1>
-64.43154830,-72.71587660,-177.89061790,47.26312512,178.53392354,174.89924602
-72.59474912,-170.11130420,162.23158844,178.21555077,67.31963291,8.62010896
60.89095978,23.03528702,0.07112741,-0.43829741,1.54204035

>  <Name>
ligand

>  <RI>
0

>  <Rbt.Current_Directory>
/home/itssahil/PROJECTS/Mol_Feturizer/New_Systems/rnas/4P5J

>  <Rbt.Executable>
rbdock ($Id: //depot/dev/client3/rdock/2013.1/src/exe/rbdock.cxx#4 $)

>  <Rbt.Library>
libRbt.so (2013.1, Build901 2013/11/27)

>  <Rbt.Parameter_File>
/export/apps/rDock/src/rDock_2013.1_src/data/scripts/dock_solv.prm

>  <Rbt.Receptor>
prm/blind_docking_100.prm

>  <SCORE>
-6.12551

>  <SCORE.INTER>
1.10885

>  <SCORE.INTER.CONST>
1

>  <SCORE.INTER.POLAR>
0

>  <SCORE.INTER.ROT>
11

>  <SCORE.INTER.SOLV>
11.6153

>  <SCORE.INTER.VDW>
-14.0659

>  <SCORE.INTER.norm>
0.0792037

>  <SCORE.INTRA>
-7.23436

>  <SCORE.INTRA.DIHEDRAL>
-15.4999

>  <SCORE.INTRA.DIHEDRAL.0>
17.5233

>  <SCORE.INTRA.POLAR>
0

>  <SCORE.INTRA.POLAR.0>
0

>  <SCORE.INTRA.REPUL>
0

>  <SCORE.INTRA.REPUL.0>
0

>  <SCORE.INTRA.SOLV>
-0.0419179

>  <SCORE.INTRA.SOLV.lig_0>
-46.1043

>  <SCORE.INTRA.VDW>
0.536563

>  <SCORE.INTRA.VDW.0>
-0.545445

>  <SCORE.INTRA.norm>
-0.51674

>  <SCORE.RESTR>
0

>  <SCORE.RESTR.CAVITY>
0

>  <SCORE.RESTR.norm>
0

>  <SCORE.SYSTEM>
0

>  <SCORE.SYSTEM.CONST>
0

>  <SCORE.SYSTEM.DIHEDRAL>
0

>  <SCORE.SYSTEM.SOLV>
0

>  <SCORE.SYSTEM.norm>
0

>  <SCORE.heavy>
14

>  <SCORE.norm>
-0.437536

>  <RMSD>
29.271

$$$$
ligand
 OpenBabel11021811513D
libRbt.so/2013.1/901 2013/11/27
 14 13  0  0  0  0  0  0  0  0999 V2000
    3.4236   64.4330   22.2313 N   0  0  0  0  0  0  0  0  0  0  0  0
    3.5370   63.1079   21.6437 C   0  0  0  0  0  0  0  0  0  0  0  0
    3.1864   62.0392   22.6737 C   0  0  0  0  0  0  0  0  0  0  0  0
    4.1165   62.1111   23.8795 C   0  0  0  0  0  0  0  0  0  0  0  0
    5.5273   62.0238   23.5143 N   0  0  0  0  0  0  0  0  0  0  0  0
    6.1514   60.7340   23.2721 C   0  0  0  0  0  0  0  0  0  0  0  0
    7.5195   60.8539   22.6097 C   0  0  0  0  0  0  0  0  0  0  0  0
    8.4731   61.6231   23.5171 C   0  0  0  0  0  0  0  0  0  0  0  0
    9.8530   61.6967   22.8724 C   0  0  0  0  0  0  0  0  0  0  0  0
   10.8266   62.3394   23.7381 N   0  0  0  0  0  0  0  0  0  0  0  0
   12.2352   62.3246   23.3665 C   0  0  0  0  0  0  0  0  0  0  0  0
   13.1948   62.7244   24.4852 C   0  0  0  0  0  0  0  0  0  0  0  0
   13.1652   61.6946   25.6159 C   0  0  0  0  0  0  0  0  0  0  0  0
   14.0140   62.1278   26.7128 N   0  0  0  0  0  0  0  0  0  0  0  0
  1  2  1  0  0  0  0
  2  3  1  0  0  0  0
  3  4  1  0  0  0  0
  4  5  1  0  0  0  0
  5  6  1  0  0  0  0
  6  7  1  0  0  0  0
  7  8  1  0  0  0  0
  8  9  1  0  0  0  0
  9 10  1  0  0  0  0
 10 11  1  0  0  0  0
 11 12  1  0  0  0  0
 12 13  1  0  0  0  0
 13 14  1  0  0  0  0
M  END
>  <CHROM.1>
-59.75387035,-55.25954433,-82.03010367,167.21657179,61.65142765,177.97815854
-175.98592143,171.22371413,-166.11463218,65.82760710,-176.26797788,8.23018229
62.13072422,23.58068776,-2.97594767,0.19985382,2.63269137

>  <Name>
ligand

>  <RI>
0

>  <Rbt.Current_Directory>
/home/itssahil/PROJECTS/Mol_Feturizer/New_Systems/rnas/4P5J

>  <Rbt.Executable>
rbdock ($Id: //depot/dev/client3/rdock/2013.1/src/exe/rbdock.cxx#4 $)

>  <Rbt.Library>
libRbt.so (2013.1, Build901 2013/11/27)

>  <Rbt.Parameter_File>
/export/apps/rDock/src/rDock_2013.1_src/data/scripts/dock_solv.prm

>  <Rbt.Receptor>
prm/blind_docking_80.prm

>  <SCORE>
-4.85896

>  <SCORE.INTER>
3.57238

>  <SCORE.INTER.CONST>
1

>  <SCORE.INTER.POLAR>
0

>  <SCORE.INTER.ROT>
11

>  <SCORE.INTER.SOLV>
5.82041

>  <SCORE.INTER.VDW>
-10.4919

>  <SCORE.INTER.norm>
0.25517

>  <SCORE.INTRA>
-8.43134

>  <SCORE.INTRA.DIHEDRAL>
-16.47

>  <SCORE.INTRA.DIHEDRAL.0>
17.5233

>  <SCORE.INTRA.POLAR>
0

>  <SCORE.INTRA.POLAR.0>
0

>  <SCORE.INTRA.REPUL>
0

>  <SCORE.INTRA.REPUL.0>
0

>  <SCORE.INTRA.SOLV>
0.0381491

>  <SCORE.INTRA.SOLV.lig_0>
-46.1043

>  <SCORE.INTRA.VDW>
-0.215396

>  <SCORE.INTRA.VDW.0>
-0.545445

>  <SCORE.INTRA.norm>
-0.602239

>  <SCORE.RESTR>
0

>  <SCORE.RESTR.CAVITY>
0

>  <SCORE.RESTR.norm>
0

>  <SCORE.SYSTEM>
0

>  <SCORE.SYSTEM.CONST>
0

>  <SCORE.SYSTEM.DIHEDRAL>
0

>  <SCORE.SYSTEM.SOLV>
0

>  <SCORE.SYSTEM.norm>
0

>  <SCORE.heavy>
14

>  <SCORE.norm>
-0.347069

>  <RMSD>
29.931

$$$$
ligand
 OpenBabel11021811513D
libRbt.so/2013.1/901 2013/11/27
 14 13  0  0  0  0  0  0  0  0999 V2000
    9.2603   60.7268   26.0495 N   0  0  0  0  0  0  0  0  0  0  0  0
   10.1156   59.9429   25.1732 C   0  0  0  0  0  0  0  0  0  0  0  0
   10.7931   60.8453   24.1473 C   0  0  0  0  0  0  0  0  0  0  0  0
   11.7449   60.0513   23.2596 C   0  0  0  0  0  0  0  0  0  0  0  0
   11.0572   59.0738   22.4213 N   0  0  0  0  0  0  0  0  0  0  0  0
   10.8807   59.3118   20.9986 C   0  0  0  0  0  0  0  0  0  0  0  0
    9.4447   59.6710   20.6326 C   0  0  0  0  0  0  0  0  0  0  0  0
    9.0759   61.0232   21.2325 C   0  0  0  0  0  0  0  0  0  0  0  0
    7.5883   61.2897   21.0298 C   0  0  0  0  0  0  0  0  0  0  0  0
    6.7627   60.4582   21.8885 N   0  0  0  0  0  0  0  0  0  0  0  0
    5.3488   60.2913   21.5789 C   0  0  0  0  0  0  0  0  0  0  0  0
    4.4371   61.3719   22.1564 C   0  0  0  0  0  0  0  0  0  0  0  0
    4.6529   62.7031   21.4344 C   0  0  0  0  0  0  0  0  0  0  0  0
    3.7747   63.7215   21.9847 N   0  0  0  0  0  0  0  0  0  0  0  0
  1  2  1  0  0  0  0
  2  3  1  0  0  0  0
  3  4  1  0  0  0  0
  4  5  1  0  0  0  0
  5  6  1  0  0  0  0
  6  7  1  0  0  0  0
  7  8  1  0  0  0  0
  8  9  1  0  0  0  0
  9 10  1  0  0  0  0
 10 11  1  0  0  0  0
 11 12  1  0  0  0  0
 12 13  1  0  0  0  0
 13 14  1  0  0  0  0
M  END
>  <CHROM.1>
177.35786307,65.26607108,105.40694559,-106.55572362,66.64114922,-172.21499650
72.31121442,-162.63766039,-86.54652647,70.48916156,179.60428604,8.20998326
60.74859797,22.42739124,0.16442101,-0.39091047,1.37204225

>  <Name>
ligand

>  <RI>
0

>  <Rbt.Current_Directory>
/home/itssahil/PROJECTS/Mol_Feturizer/New_Systems/rnas/4P5J

>  <Rbt.Executable>
rbdock ($Id: //depot/dev/client3/rdock/2013.1/src/exe/rbdock.cxx#4 $)

>  <Rbt.Library>
libRbt.so (2013.1, Build901 2013/11/27)

>  <Rbt.Parameter_File>
/export/apps/rDock/src/rDock_2013.1_src/data/scripts/dock_solv.prm

>  <Rbt.Receptor>
prm/blind_docking_80.prm

>  <SCORE>
-8.84495

>  <SCORE.INTER>
-0.837435

>  <SCORE.INTER.CONST>
1

>  <SCORE.INTER.POLAR>
0

>  <SCORE.INTER.ROT>
11

>  <SCORE.INTER.SOLV>
8.34338

>  <SCORE.INTER.VDW>
-14.2728

>  <SCORE.INTER.norm>
-0.0598168

>  <SCORE.INTRA>
-8.00752

>  <SCORE.INTRA.DIHEDRAL>
-13.2024

>  <SCORE.INTRA.DIHEDRAL.0>
17.5233

>  <SCORE.INTRA.POLAR>
0

>  <SCORE.INTRA.POLAR.0>
0

>  <SCORE.INTRA.REPUL>
0

>  <SCORE.INTRA.REPUL.0>
0

>  <SCORE.INTRA.SOLV>
-1.25137

>  <SCORE.INTRA.SOLV.lig_0>
-46.1043

>  <SCORE.INTRA.VDW>
-0.780627

>  <SCORE.INTRA.VDW.0>
-0.545445

>  <SCORE.INTRA.norm>
-0.571966

>  <SCORE.RESTR>
0

>  <SCORE.RESTR.CAVITY>
0

>  <SCORE.RESTR.norm>
0

>  <SCORE.SYSTEM>
0

>  <SCORE.SYSTEM.CONST>
0

>  <SCORE.SYSTEM.DIHEDRAL>
0

>  <SCORE.SYSTEM.SOLV>
0

>  <SCORE.SYSTEM.norm>
0

>  <SCORE.heavy>
14

>  <SCORE.norm>
-0.631782

>  <RMSD>
29.944

$$$$
ligand
 OpenBabel11021811513D
libRbt.so/2013.1/901 2013/11/27
 14 13  0  0  0  0  0  0  0  0999 V2000
    6.9054   64.8459   14.5573 N   0  0  0  0  0  0  0  0  0  0  0  0
    7.5292   64.6670   15.8584 C   0  0  0  0  0  0  0  0  0  0  0  0
    6.4748   64.3469   16.9126 C   0  0  0  0  0  0  0  0  0  0  0  0
    7.0843   64.3191   18.3097 C   0  0  0  0  0  0  0  0  0  0  0  0
    6.1075   64.0088   19.3494 N   0  0  0  0  0  0  0  0  0  0  0  0
    6.3048   64.4711   20.7129 C   0  0  0  0  0  0  0  0  0  0  0  0
    6.9991   63.4377   21.5932 C   0  0  0  0  0  0  0  0  0  0  0  0
    8.4114   63.1794   21.0802 C   0  0  0  0  0  0  0  0  0  0  0  0
    9.1309   62.2117   22.0133 C   0  0  0  0  0  0  0  0  0  0  0  0
    9.3788   62.7958   23.3202 N   0  0  0  0  0  0  0  0  0  0  0  0
   10.4563   62.2689   24.1473 C   0  0  0  0  0  0  0  0  0  0  0  0
   11.8590   62.6855   23.7099 C   0  0  0  0  0  0  0  0  0  0  0  0
   12.9171   62.0531   24.6155 C   0  0  0  0  0  0  0  0  0  0  0  0
   14.2447   62.4908   24.2190 N   0  0  0  0  0  0  0  0  0  0  0  0
  1  2  1  0  0  0  0
  2  3  1  0  0  0  0
  3  4  1  0  0  0  0
  4  5  1  0  0  0  0
  5  6  1  0  0  0  0
  6  7  1  0  0  0  0
  7  8  1  0  0  0  0
  8  9  1  0  0  0  0
  9 10  1  0  0  0  0
 10 11  1  0  0  0  0
 11 12  1  0  0  0  0
 12 13  1  0  0  0  0
 13 14  1  0  0  0  0
M  END
>  <CHROM.1>
-173.25305574,-179.70815143,-153.62747216,-93.81632962,64.21478359,176.49122964
-67.04268564,-156.69975923,75.61108850,-178.47770333,-178.10973629,8.84296639
63.41291981,20.74293332,-2.19052673,-0.10307951,1.78516060

>  <Name>
ligand

>  <RI>
0

>  <Rbt.Current_Directory>
/home/itssahil/PROJECTS/Mol_Feturizer/New_Systems/rnas/4P5J

>  <Rbt.Executable>
rbdock ($Id: //depot/dev/client3/rdock/2013.1/src/exe/rbdock.cxx#4 $)

>  <Rbt.Library>
libRbt.so (2013.1, Build901 2013/11/27)

>  <Rbt.Parameter_File>
/export/apps/rDock/src/rDock_2013.1_src/data/scripts/dock_solv.prm

>  <Rbt.Receptor>
prm/blind_docking_80.prm

>  <SCORE>
-8.80437

>  <SCORE.INTER>
-0.0132071

>  <SCORE.INTER.CONST>
1

>  <SCORE.INTER.POLAR>
0

>  <SCORE.INTER.ROT>
11

>  <SCORE.INTER.SOLV>
12.2538

>  <SCORE.INTER.VDW>
-15.0267

>  <SCORE.INTER.norm>
-0.000943366

>  <SCORE.INTRA>
-8.79116

>  <SCORE.INTRA.DIHEDRAL>
-15.2371

>  <SCORE.INTRA.DIHEDRAL.0>
17.5233

>  <SCORE.INTRA.POLAR>
0

>  <SCORE.INTRA.POLAR.0>
0

>  <SCORE.INTRA.REPUL>
0

>  <SCORE.INTRA.REPUL.0>
0

>  <SCORE.INTRA.SOLV>
-1.91999

>  <SCORE.INTRA.SOLV.lig_0>
-46.1043

>  <SCORE.INTRA.VDW>
-0.212605

>  <SCORE.INTRA.VDW.0>
-0.545445

>  <SCORE.INTRA.norm>
-0.62794

>  <SCORE.RESTR>
0

>  <SCORE.RESTR.CAVITY>
0

>  <SCORE.RESTR.norm>
0

>  <SCORE.SYSTEM>
0

>  <SCORE.SYSTEM.CONST>
0

>  <SCORE.SYSTEM.DIHEDRAL>
0

>  <SCORE.SYSTEM.SOLV>
0

>  <SCORE.SYSTEM.norm>
0

>  <SCORE.heavy>
14

>  <SCORE.norm>
-0.628884

>  <RMSD>
31.771

$$$$
ligand
 OpenBabel11021811513D
libRbt.so/2013.1/901 2013/11/27
 14 13  0  0  0  0  0  0  0  0999 V2000
   23.4999   67.2855   12.6135 N   0  0  0  0  0  0  0  0  0  0  0  0
   24.7670   66.7564   13.0914 C   0  0  0  0  0  0  0  0  0  0  0  0
   24.9751   67.1219   14.5573 C   0  0  0  0  0  0  0  0  0  0  0  0
   25.1225   68.6291   14.7330 C   0  0  0  0  0  0  0  0  0  0  0  0
   26.4453   69.1181   14.3558 N   0  0  0  0  0  0  0  0  0  0  0  0
   27.5080   69.2159   15.3422 C   0  0  0  0  0  0  0  0  0  0  0  0
   28.7855   69.8267   14.7768 C   0  0  0  0  0  0  0  0  0  0  0  0
   29.4292   68.8648   13.7845 C   0  0  0  0  0  0  0  0  0  0  0  0
   30.7952   69.3952   13.3629 C   0  0  0  0  0  0  0  0  0  0  0  0
   31.7601   69.3419   14.4476 N   0  0  0  0  0  0  0  0  0  0  0  0
   33.0132   70.0755   14.3279 C   0  0  0  0  0  0  0  0  0  0  0  0
   34.2229   69.2176   13.9635 C   0  0  0  0  0  0  0  0  0  0  0  0
   34.0512   68.6049   12.5725 C   0  0  0  0  0  0  0  0  0  0  0  0
   35.2038   67.7858   12.2382 N   0  0  0  0  0  0  0  0  0  0  0  0
  1  2  1  0  0  0  0
  2  3  1  0  0  0  0
  3  4  1  0  0  0  0
  4  5  1  0  0  0  0
  5  6  1  0  0  0  0
  6  7  1  0  0  0  0
  7  8  1  0  0  0  0
  8  9  1  0  0  0  0
  9 10  1  0  0  0  0
 10 11  1  0  0  0  0
 11 12  1  0  0  0  0
 12 13  1  0  0  0  0
 13 14  1  0  0  0  0
M  END
>  <CHROM.1>
-65.46702527,-77.57726398,-91.23746664,-176.47229990,-69.14426405,-172.52427513
69.19471927,-166.16788163,-101.90396460,64.11010016,-179.72220867,29.25563704
68.66006683,13.86926175,-3.09585252,0.13581246,0.79559506

>  <Name>
ligand

>  <RI>
0

>  <Rbt.Current_Directory>
/home/itssahil/PROJECTS/Mol_Feturizer/New_Systems/rnas/4P5J

>  <Rbt.Executable>
rbdock ($Id: //depot/dev/client3/rdock/2013.1/src/exe/rbdock.cxx#4 $)

>  <Rbt.Library>
libRbt.so (2013.1, Build901 2013/11/27)

>  <Rbt.Parameter_File>
/export/apps/rDock/src/rDock_2013.1_src/data/scripts/dock_solv.prm

>  <Rbt.Receptor>
prm/blind_docking_80.prm

>  <SCORE>
-7.01228

>  <SCORE.INTER>
0.425113

>  <SCORE.INTER.CONST>
1

>  <SCORE.INTER.POLAR>
0

>  <SCORE.INTER.ROT>
11

>  <SCORE.INTER.SOLV>
14.0431

>  <SCORE.INTER.VDW>
-15.3309

>  <SCORE.INTER.norm>
0.0303652

>  <SCORE.INTRA>
-7.43739

>  <SCORE.INTRA.DIHEDRAL>
-13.6529

>  <SCORE.INTRA.DIHEDRAL.0>
17.5233

>  <SCORE.INTRA.POLAR>
0

>  <SCORE.INTRA.POLAR.0>
0

>  <SCORE.INTRA.REPUL>
0

>  <SCORE.INTRA.REPUL.0>
0

>  <SCORE.INTRA.SOLV>
-0.185474

>  <SCORE.INTRA.SOLV.lig_0>
-46.1043

>  <SCORE.INTRA.VDW>
-0.518195

>  <SCORE.INTRA.VDW.0>
-0.545445

>  <SCORE.INTRA.norm>
-0.531242

>  <SCORE.RESTR>
0

>  <SCORE.RESTR.CAVITY>
0

>  <SCORE.RESTR.norm>
0

>  <SCORE.SYSTEM>
0

>  <SCORE.SYSTEM.CONST>
0

>  <SCORE.SYSTEM.DIHEDRAL>
0

>  <SCORE.SYSTEM.SOLV>
0

>  <SCORE.SYSTEM.norm>
0

>  <SCORE.heavy>
14

>  <SCORE.norm>
-0.500877

>  <RMSD>
32.155

$$$$
ligand
 OpenBabel11021811513D
libRbt.so/2013.1/901 2013/11/27
 14 13  0  0  0  0  0  0  0  0999 V2000
   32.7375   69.8505   14.0062 N   0  0  0  0  0  0  0  0  0  0  0  0
   31.2931   69.7115   13.9148 C   0  0  0  0  0  0  0  0  0  0  0  0
   30.6078   70.6148   14.9348 C   0  0  0  0  0  0  0  0  0  0  0  0
   29.0907   70.5395   14.8048 C   0  0  0  0  0  0  0  0  0  0  0  0
   28.3971   71.4441   15.7169 N   0  0  0  0  0  0  0  0  0  0  0  0
   27.0957   71.9906   15.3708 C   0  0  0  0  0  0  0  0  0  0  0  0
   25.9441   71.2365   16.0265 C   0  0  0  0  0  0  0  0  0  0  0  0
   25.9369   69.7855   15.5586 C   0  0  0  0  0  0  0  0  0  0  0  0
   24.7523   69.0498   16.1755 C   0  0  0  0  0  0  0  0  0  0  0  0
   24.6714   67.6709   15.7253 N   0  0  0  0  0  0  0  0  0  0  0  0
   23.7717   67.3262   14.6324 C   0  0  0  0  0  0  0  0  0  0  0  0
   24.4620   66.7716   13.3881 C   0  0  0  0  0  0  0  0  0  0  0  0
   23.4391   66.4738   12.2905 C   0  0  0  0  0  0  0  0  0  0  0  0
   22.8059   67.7039   11.8465 N   0  0  0  0  0  0  0  0  0  0  0  0
  1  2  1  0  0  0  0
  2  3  1  0  0  0  0
  3  4  1  0  0  0  0
  4  5  1  0  0  0  0
  5  6  1  0  0  0  0
  6  7  1  0  0  0  0
  7  8  1  0  0  0  0
  8  9  1  0  0  0  0
  9 10  1  0  0  0  0
 10 11  1  0  0  0  0
 11 12  1  0  0  0  0
 12 13  1  0  0  0  0
 13 14  1  0  0  0  0
M  END
>  <CHROM.1>
176.97459491,-176.94737065,151.20378155,98.94434410,-61.48400802,-177.85428853
178.02589876,-97.51984517,117.60277273,-178.62037092,64.52245502,26.78593253
69.29785927,14.59952182,-0.40486884,-0.19510124,-2.39044378

>  <Name>
ligand

>  <RI>
0

>  <Rbt.Current_Directory>
/home/itssahil/PROJECTS/Mol_Feturizer/New_Systems/rnas/4P5J

>  <Rbt.Executable>
rbdock ($Id: //depot/dev/client3/rdock/2013.1/src/exe/rbdock.cxx#4 $)

>  <Rbt.Library>
libRbt.so (2013.1, Build901 2013/11/27)

>  <Rbt.Parameter_File>
/export/apps/rDock/src/rDock_2013.1_src/data/scripts/dock_solv.prm

>  <Rbt.Receptor>
prm/blind_docking_80.prm

>  <SCORE>
-8.68903

>  <SCORE.INTER>
-0.579209

>  <SCORE.INTER.CONST>
1

>  <SCORE.INTER.POLAR>
0

>  <SCORE.INTER.ROT>
11

>  <SCORE.INTER.SOLV>
11.9015

>  <SCORE.INTER.VDW>
-15.2866

>  <SCORE.INTER.norm>
-0.0413721

>  <SCORE.INTRA>
-8.10982

>  <SCORE.INTRA.DIHEDRAL>
-13.8685

>  <SCORE.INTRA.DIHEDRAL.0>
17.5233

>  <SCORE.INTRA.POLAR>
0

>  <SCORE.INTRA.POLAR.0>
0

>  <SCORE.INTRA.REPUL>
0

>  <SCORE.INTRA.REPUL.0>
0

>  <SCORE.INTRA.SOLV>
-1.51299

>  <SCORE.INTRA.SOLV.lig_0>
-46.1043

>  <SCORE.INTRA.VDW>
-0.419088

>  <SCORE.INTRA.VDW.0>
-0.545445

>  <SCORE.INTRA.norm>
-0.579273

>  <SCORE.RESTR>
0

>  <SCORE.RESTR.CAVITY>
0

>  <SCORE.RESTR.norm>
0

>  <SCORE.SYSTEM>
0

>  <SCORE.SYSTEM.CONST>
0

>  <SCORE.SYSTEM.DIHEDRAL>
0

>  <SCORE.SYSTEM.SOLV>
0

>  <SCORE.SYSTEM.norm>
0

>  <SCORE.heavy>
14

>  <SCORE.norm>
-0.620645

>  <RMSD>
32.256

$$$$
ligand
 OpenBabel11021811513D
libRbt.so/2013.1/901 2013/11/27
 14 13  0  0  0  0  0  0  0  0999 V2000
   35.7104   69.1031   12.1478 N   0  0  0  0  0  0  0  0  0  0  0  0
   34.3320   68.8392   12.5274 C   0  0  0  0  0  0  0  0  0  0  0  0
   34.0855   69.2765   13.9674 C   0  0  0  0  0  0  0  0  0  0  0  0
   32.6418   69.0157   14.3822 C   0  0  0  0  0  0  0  0  0  0  0  0
   31.6826   69.8315   13.6435 N   0  0  0  0  0  0  0  0  0  0  0  0
   30.5473   70.4353   14.3206 C   0  0  0  0  0  0  0  0  0  0  0  0
   29.3066   69.5492   14.3002 C   0  0  0  0  0  0  0  0  0  0  0  0
   28.1493   70.2553   14.9976 C   0  0  0  0  0  0  0  0  0  0  0  0
   26.9168   69.3577   14.9903 C   0  0  0  0  0  0  0  0  0  0  0  0
   25.7718   69.9971   15.6153 N   0  0  0  0  0  0  0  0  0  0  0  0
   25.0738   71.0636   14.9097 C   0  0  0  0  0  0  0  0  0  0  0  0
   23.9166   71.6908   15.6843 C   0  0  0  0  0  0  0  0  0  0  0  0
   22.7476   70.7106   15.7963 C   0  0  0  0  0  0  0  0  0  0  0  0
   23.1343   69.5555   16.5884 N   0  0  0  0  0  0  0  0  0  0  0  0
  1  2  1  0  0  0  0
  2  3  1  0  0  0  0
  3  4  1  0  0  0  0
  4  5  1  0  0  0  0
  5  6  1  0  0  0  0
  6  7  1  0  0  0  0
  7  8  1  0  0  0  0
  8  9  1  0  0  0  0
  9 10  1  0  0  0  0
 10 11  1  0  0  0  0
 11 12  1  0  0  0  0
 12 13  1  0  0  0  0
 13 14  1  0  0  0  0
M  END
>  <CHROM.1>
179.64847894,-65.83666824,-138.89319742,-91.36227811,-178.71541972,-179.26749450
-178.58745446,73.73458146,-178.05569533,-70.33983179,64.80501764,28.85822085
69.90590781,14.56222599,-0.00191825,0.28381348,-0.46398758

>  <Name>
ligand

>  <RI>
0

>  <Rbt.Current_Directory>
/home/itssahil/PROJECTS/Mol_Feturizer/New_Systems/rnas/4P5J

>  <Rbt.Executable>
rbdock ($Id: //depot/dev/client3/rdock/2013.1/src/exe/rbdock.cxx#4 $)

>  <Rbt.Library>
libRbt.so (2013.1, Build901 2013/11/27)

>  <Rbt.Parameter_File>
/export/apps/rDock/src/rDock_2013.1_src/data/scripts/dock_solv.prm

>  <Rbt.Receptor>
prm/blind_docking_100.prm

>  <SCORE>
-7.72808

>  <SCORE.INTER>
-0.206393

>  <SCORE.INTER.CONST>
1

>  <SCORE.INTER.POLAR>
0

>  <SCORE.INTER.ROT>
11

>  <SCORE.INTER.SOLV>
10.08

>  <SCORE.INTER.VDW>
-14.4309

>  <SCORE.INTER.norm>
-0.0147423

>  <SCORE.INTRA>
-7.52168

>  <SCORE.INTRA.DIHEDRAL>
-15.1733

>  <SCORE.INTRA.DIHEDRAL.0>
17.5233

>  <SCORE.INTRA.POLAR>
0

>  <SCORE.INTRA.POLAR.0>
0

>  <SCORE.INTRA.REPUL>
0

>  <SCORE.INTRA.REPUL.0>
0

>  <SCORE.INTRA.SOLV>
0.571267

>  <SCORE.INTRA.SOLV.lig_0>
-46.1043

>  <SCORE.INTRA.VDW>
-0.220687

>  <SCORE.INTRA.VDW.0>
-0.545445

>  <SCORE.INTRA.norm>
-0.537263

>  <SCORE.RESTR>
0

>  <SCORE.RESTR.CAVITY>
0

>  <SCORE.RESTR.norm>
0

>  <SCORE.SYSTEM>
0

>  <SCORE.SYSTEM.CONST>
0

>  <SCORE.SYSTEM.DIHEDRAL>
0

>  <SCORE.SYSTEM.SOLV>
0

>  <SCORE.SYSTEM.norm>
0

>  <SCORE.heavy>
14

>  <SCORE.norm>
-0.552006

>  <RMSD>
32.300

$$$$
ligand
 OpenBabel11021811513D
libRbt.so/2013.1/901 2013/11/27
 14 13  0  0  0  0  0  0  0  0999 V2000
   21.5468   68.4358   12.0963 N   0  0  0  0  0  0  0  0  0  0  0  0
   22.8121   67.9051   11.6153 C   0  0  0  0  0  0  0  0  0  0  0  0
   22.9711   66.4484   12.0378 C   0  0  0  0  0  0  0  0  0  0  0  0
   23.2501   66.3364   13.5324 C   0  0  0  0  0  0  0  0  0  0  0  0
   24.6506   66.5748   13.8680 N   0  0  0  0  0  0  0  0  0  0  0  0
   25.1957   67.9219   13.8587 C   0  0  0  0  0  0  0  0  0  0  0  0
   26.5828   68.0032   14.4865 C   0  0  0  0  0  0  0  0  0  0  0  0
   27.0934   69.4390   14.4400 C   0  0  0  0  0  0  0  0  0  0  0  0
   28.4914   69.5099   15.0446 C   0  0  0  0  0  0  0  0  0  0  0  0
   29.4703   68.7976   14.2417 N   0  0  0  0  0  0  0  0  0  0  0  0
   30.2050   69.5132   13.2070 C   0  0  0  0  0  0  0  0  0  0  0  0
   31.6394   69.0337   12.9949 C   0  0  0  0  0  0  0  0  0  0  0  0
   32.4754   69.2565   14.2564 C   0  0  0  0  0  0  0  0  0  0  0  0
   33.8670   68.9250   14.0022 N   0  0  0  0  0  0  0  0  0  0  0  0
  1  2  1  0  0  0  0
  2  3  1  0  0  0  0
  3  4  1  0  0  0  0
  4  5  1  0  0  0  0
  5  6  1  0  0  0  0
  6  7  1  0  0  0  0
  7  8  1  0  0  0  0
  8  9  1  0  0  0  0
  9 10  1  0  0  0  0
 10 11  1  0  0  0  0
 11 12  1  0  0  0  0
 12 13  1  0  0  0  0
 13 14  1  0  0  0  0
M  END
>  <CHROM.1>
-72.44357795,-81.11637055,75.07979778,169.02162318,179.85998114,-178.92417167
66.57856406,91.33532362,146.29589873,-62.97929592,-174.20888362,27.16068934
68.29294591,13.54869655,-3.00651131,0.20834560,1.59327762

>  <Name>
ligand

>  <RI>
0

>  <Rbt.Current_Directory>
/home/itssahil/PROJECTS/Mol_Feturizer/New_Systems/rnas/4P5J

>  <Rbt.Executable>
rbdock ($Id: //depot/dev/client3/rdock/2013.1/src/exe/rbdock.cxx#4 $)

>  <Rbt.Library>
libRbt.so (2013.1, Build901 2013/11/27)

>  <Rbt.Parameter_File>
/export/apps/rDock/src/rDock_2013.1_src/data/scripts/dock_solv.prm

>  <Rbt.Receptor>
prm/blind_docking_80.prm

>  <SCORE>
-8.75099

>  <SCORE.INTER>
-1.62151

>  <SCORE.INTER.CONST>
1

>  <SCORE.INTER.POLAR>
0

>  <SCORE.INTER.ROT>
11

>  <SCORE.INTER.SOLV>
13.1163

>  <SCORE.INTER.VDW>
-16.3865

>  <SCORE.INTER.norm>
-0.115822

>  <SCORE.INTRA>
-7.12948

>  <SCORE.INTRA.DIHEDRAL>
-13.4779

>  <SCORE.INTRA.DIHEDRAL.0>
17.5233

>  <SCORE.INTRA.POLAR>
0

>  <SCORE.INTRA.POLAR.0>
0

>  <SCORE.INTRA.REPUL>
0

>  <SCORE.INTRA.REPUL.0>
0

>  <SCORE.INTRA.SOLV>
-0.300833

>  <SCORE.INTRA.SOLV.lig_0>
-46.1043

>  <SCORE.INTRA.VDW>
-0.2401

>  <SCORE.INTRA.VDW.0>
-0.545445

>  <SCORE.INTRA.norm>
-0.509249

>  <SCORE.RESTR>
0

>  <SCORE.RESTR.CAVITY>
0

>  <SCORE.RESTR.norm>
0

>  <SCORE.SYSTEM>
0

>  <SCORE.SYSTEM.CONST>
0

>  <SCORE.SYSTEM.DIHEDRAL>
0

>  <SCORE.SYSTEM.SOLV>
0

>  <SCORE.SYSTEM.norm>
0

>  <SCORE.heavy>
14

>  <SCORE.norm>
-0.625071

>  <RMSD>
32.364

$$$$
ligand
 OpenBabel11021811513D
libRbt.so/2013.1/901 2013/11/27
 14 13  0  0  0  0  0  0  0  0999 V2000
   20.9568   70.0007   15.0154 N   0  0  0  0  0  0  0  0  0  0  0  0
   22.2774   70.2337   15.5771 C   0  0  0  0  0  0  0  0  0  0  0  0
   22.7163   71.6717   15.3214 C   0  0  0  0  0  0  0  0  0  0  0  0
   24.1287   71.9164   15.8404 C   0  0  0  0  0  0  0  0  0  0  0  0
   25.1285   71.0816   15.1812 N   0  0  0  0  0  0  0  0  0  0  0  0
   26.5367   71.2071   15.5174 C   0  0  0  0  0  0  0  0  0  0  0  0
   27.4282   70.2959   14.6809 C   0  0  0  0  0  0  0  0  0  0  0  0
   28.8909   70.5124   15.0525 C   0  0  0  0  0  0  0  0  0  0  0  0
   29.7785   69.6077   14.2047 C   0  0  0  0  0  0  0  0  0  0  0  0
   31.1841   69.7494   14.5431 N   0  0  0  0  0  0  0  0  0  0  0  0
   32.1792   68.9833   13.8046 C   0  0  0  0  0  0  0  0  0  0  0  0
   33.4845   68.7379   14.5585 C   0  0  0  0  0  0  0  0  0  0  0  0
   34.2969   70.0295   14.6663 C   0  0  0  0  0  0  0  0  0  0  0  0
   34.7575   70.4447   13.3522 N   0  0  0  0  0  0  0  0  0  0  0  0
  1  2  1  0  0  0  0
  2  3  1  0  0  0  0
  3  4  1  0  0  0  0
  4  5  1  0  0  0  0
  5  6  1  0  0  0  0
  6  7  1  0  0  0  0
  7  8  1  0  0  0  0
  8  9  1  0  0  0  0
  9 10  1  0  0  0  0
 10 11  1  0  0  0  0
 11 12  1  0  0  0  0
 12 13  1  0  0  0  0
 13 14  1  0  0  0  0
M  END
>  <CHROM.1>
-177.10065431,61.73917501,178.07347985,-177.48375305,178.11632878,-179.51417095
-178.52608782,-178.37089255,-155.66370500,-71.86238935,-66.96275521,28.12462576
70.31941561,14.80837517,2.99671241,0.07807500,0.29161787

>  <Name>
ligand

>  <RI>
0

>  <Rbt.Current_Directory>
/home/itssahil/PROJECTS/Mol_Feturizer/New_Systems/rnas/4P5J

>  <Rbt.Executable>
rbdock ($Id: //depot/dev/client3/rdock/2013.1/src/exe/rbdock.cxx#4 $)

>  <Rbt.Library>
libRbt.so (2013.1, Build901 2013/11/27)

>  <Rbt.Parameter_File>
/export/apps/rDock/src/rDock_2013.1_src/data/scripts/dock_solv.prm

>  <Rbt.Receptor>
prm/blind_docking_100.prm

>  <SCORE>
-11.3225

>  <SCORE.INTER>
-2.1778

>  <SCORE.INTER.CONST>
1

>  <SCORE.INTER.POLAR>
0

>  <SCORE.INTER.ROT>
11

>  <SCORE.INTER.SOLV>
8.39133

>  <SCORE.INTER.VDW>
-15.1823

>  <SCORE.INTER.norm>
-0.155557

>  <SCORE.INTRA>
-9.14469

>  <SCORE.INTRA.DIHEDRAL>
-16.3255

>  <SCORE.INTRA.DIHEDRAL.0>
17.5233

>  <SCORE.INTRA.POLAR>
0

>  <SCORE.INTRA.POLAR.0>
0

>  <SCORE.INTRA.REPUL>
0

>  <SCORE.INTRA.REPUL.0>
0

>  <SCORE.INTRA.SOLV>
-0.789927

>  <SCORE.INTRA.SOLV.lig_0>
-46.1043

>  <SCORE.INTRA.VDW>
-0.586967

>  <SCORE.INTRA.VDW.0>
-0.545445

>  <SCORE.INTRA.norm>
-0.653192

>  <SCORE.RESTR>
0

>  <SCORE.RESTR.CAVITY>
0

>  <SCORE.RESTR.norm>
0

>  <SCORE.SYSTEM>
0

>  <SCORE.SYSTEM.CONST>
0

>  <SCORE.SYSTEM.DIHEDRAL>
0

>  <SCORE.SYSTEM.SOLV>
0

>  <SCORE.SYSTEM.norm>
0

>  <SCORE.heavy>
14

>  <SCORE.norm>
-0.808749

>  <RMSD>
32.422

$$$$
ligand
 OpenBabel11021811513D
libRbt.so/2013.1/901 2013/11/27
 14 13  0  0  0  0  0  0  0  0999 V2000
   34.1104   70.0651   13.5093 N   0  0  0  0  0  0  0  0  0  0  0  0
   33.4127   68.8711   13.9583 C   0  0  0  0  0  0  0  0  0  0  0  0
   31.9104   69.0227   13.7441 C   0  0  0  0  0  0  0  0  0  0  0  0
   31.3491   70.1702   14.5762 C   0  0  0  0  0  0  0  0  0  0  0  0
   29.8924   70.2498   14.5242 N   0  0  0  0  0  0  0  0  0  0  0  0
   29.1593   71.0516   15.4895 C   0  0  0  0  0  0  0  0  0  0  0  0
   27.6639   71.1080   15.1975 C   0  0  0  0  0  0  0  0  0  0  0  0
   26.9691   72.0162   16.2060 C   0  0  0  0  0  0  0  0  0  0  0  0
   25.5607   72.3434   15.7219 C   0  0  0  0  0  0  0  0  0  0  0  0
   24.6715   71.1984   15.8149 N   0  0  0  0  0  0  0  0  0  0  0  0
   23.2467   71.3764   15.5683 C   0  0  0  0  0  0  0  0  0  0  0  0
   22.4289   70.0868   15.5907 C   0  0  0  0  0  0  0  0  0  0  0  0
   21.0016   70.3440   15.1047 C   0  0  0  0  0  0  0  0  0  0  0  0
   20.2372   69.1083   15.1137 N   0  0  0  0  0  0  0  0  0  0  0  0
  1  2  1  0  0  0  0
  2  3  1  0  0  0  0
  3  4  1  0  0  0  0
  4  5  1  0  0  0  0
  5  6  1  0  0  0  0
  6  7  1  0  0  0  0
  7  8  1  0  0  0  0
  8  9  1  0  0  0  0
  9 10  1  0  0  0  0
 10 11  1  0  0  0  0
 11 12  1  0  0  0  0
 12 13  1  0  0  0  0
 13 14  1  0  0  0  0
M  END
>  <CHROM.1>
-62.89656975,-173.15633708,164.90873317,174.89479730,-177.31053673,166.24737566
71.57994706,171.67841054,175.59748435,-170.93929832,179.27835492,27.25816004
70.50099959,15.00863892,0.11949833,-0.08611477,-2.67076971

>  <Name>
ligand

>  <RI>
0

>  <Rbt.Current_Directory>
/home/itssahil/PROJECTS/Mol_Feturizer/New_Systems/rnas/4P5J

>  <Rbt.Executable>
rbdock ($Id: //depot/dev/client3/rdock/2013.1/src/exe/rbdock.cxx#4 $)

>  <Rbt.Library>
libRbt.so (2013.1, Build901 2013/11/27)

>  <Rbt.Parameter_File>
/export/apps/rDock/src/rDock_2013.1_src/data/scripts/dock_solv.prm

>  <Rbt.Receptor>
prm/blind_docking_80.prm

>  <SCORE>
-11.9486

>  <SCORE.INTER>
-2.87915

>  <SCORE.INTER.CONST>
1

>  <SCORE.INTER.POLAR>
0

>  <SCORE.INTER.ROT>
11

>  <SCORE.INTER.SOLV>
7.66217

>  <SCORE.INTER.VDW>
-15.4068

>  <SCORE.INTER.norm>
-0.205654

>  <SCORE.INTRA>
-9.06946

>  <SCORE.INTRA.DIHEDRAL>
-15.4596

>  <SCORE.INTRA.DIHEDRAL.0>
17.5233

>  <SCORE.INTRA.POLAR>
0

>  <SCORE.INTRA.POLAR.0>
0

>  <SCORE.INTRA.REPUL>
0

>  <SCORE.INTRA.REPUL.0>
0

>  <SCORE.INTRA.SOLV>
-1.61742

>  <SCORE.INTRA.SOLV.lig_0>
-46.1043

>  <SCORE.INTRA.VDW>
-0.530969

>  <SCORE.INTRA.VDW.0>
-0.545445

>  <SCORE.INTRA.norm>
-0.647818

>  <SCORE.RESTR>
0

>  <SCORE.RESTR.CAVITY>
0

>  <SCORE.RESTR.norm>
0

>  <SCORE.SYSTEM>
0

>  <SCORE.SYSTEM.CONST>
0

>  <SCORE.SYSTEM.DIHEDRAL>
0

>  <SCORE.SYSTEM.SOLV>
0

>  <SCORE.SYSTEM.norm>
0

>  <SCORE.heavy>
14

>  <SCORE.norm>
-0.853472

>  <RMSD>
32.470

$$$$
ligand
 OpenBabel11021811513D
libRbt.so/2013.1/901 2013/11/27
 14 13  0  0  0  0  0  0  0  0999 V2000
   22.1571   71.7074   15.1338 N   0  0  0  0  0  0  0  0  0  0  0  0
   23.4579   71.5577   15.7658 C   0  0  0  0  0  0  0  0  0  0  0  0
   24.4452   70.9105   14.8004 C   0  0  0  0  0  0  0  0  0  0  0  0
   25.8135   70.7338   15.4491 C   0  0  0  0  0  0  0  0  0  0  0  0
   26.8012   70.1557   14.5428 N   0  0  0  0  0  0  0  0  0  0  0  0
   28.1647   69.9192   14.9864 C   0  0  0  0  0  0  0  0  0  0  0  0
   28.9603   71.2076   15.1656 C   0  0  0  0  0  0  0  0  0  0  0  0
   30.3442   70.8932   15.7228 C   0  0  0  0  0  0  0  0  0  0  0  0
   31.2209   70.3012   14.6246 C   0  0  0  0  0  0  0  0  0  0  0  0
   32.5600   69.9977   15.0991 N   0  0  0  0  0  0  0  0  0  0  0  0
   33.6480   69.8692   14.1386 C   0  0  0  0  0  0  0  0  0  0  0  0
   35.0276   70.2304   14.6849 C   0  0  0  0  0  0  0  0  0  0  0  0
   36.0726   70.2116   13.5679 C   0  0  0  0  0  0  0  0  0  0  0  0
   37.3590   70.6573   14.0755 N   0  0  0  0  0  0  0  0  0  0  0  0
  1  2  1  0  0  0  0
  2  3  1  0  0  0  0
  3  4  1  0  0  0  0
  4  5  1  0  0  0  0
  5  6  1  0  0  0  0
  6  7  1  0  0  0  0
  7  8  1  0  0  0  0
  8  9  1  0  0  0  0
  9 10  1  0  0  0  0
 10 11  1  0  0  0  0
 11 12  1  0  0  0  0
 12 13  1  0  0  0  0
 13 14  1  0  0  0  0
M  END
>  <CHROM.1>
-179.51590684,-178.16108323,179.73989226,-71.44483399,176.08017872,75.01052660
179.28765149,-159.03740562,151.41313461,-173.81659661,175.56350751,29.71658146
70.59659733,14.83985717,-3.02486575,-0.00570794,-2.34768102

>  <Name>
ligand

>  <RI>
0

>  <Rbt.Current_Directory>
/home/itssahil/PROJECTS/Mol_Feturizer/New_Systems/rnas/4P5J

>  <Rbt.Executable>
rbdock ($Id: //depot/dev/client3/rdock/2013.1/src/exe/rbdock.cxx#4 $)

>  <Rbt.Library>
libRbt.so (2013.1, Build901 2013/11/27)

>  <Rbt.Parameter_File>
/export/apps/rDock/src/rDock_2013.1_src/data/scripts/dock_solv.prm

>  <Rbt.Receptor>
prm/blind_docking_100.prm

>  <SCORE>
-8.80648

>  <SCORE.INTER>
0.0564135

>  <SCORE.INTER.CONST>
1

>  <SCORE.INTER.POLAR>
0

>  <SCORE.INTER.ROT>
11

>  <SCORE.INTER.SOLV>
10.4046

>  <SCORE.INTER.VDW>
-14.3639

>  <SCORE.INTER.norm>
0.00402954

>  <SCORE.INTRA>
-8.86289

>  <SCORE.INTRA.DIHEDRAL>
-15.348

>  <SCORE.INTRA.DIHEDRAL.0>
17.5233

>  <SCORE.INTRA.POLAR>
0

>  <SCORE.INTRA.POLAR.0>
0

>  <SCORE.INTRA.REPUL>
0

>  <SCORE.INTRA.REPUL.0>
0

>  <SCORE.INTRA.SOLV>
-2.52093

>  <SCORE.INTRA.SOLV.lig_0>
-46.1043

>  <SCORE.INTRA.VDW>
0.0715702

>  <SCORE.INTRA.VDW.0>
-0.545445

>  <SCORE.INTRA.norm>
-0.633064

>  <SCORE.RESTR>
0

>  <SCORE.RESTR.CAVITY>
0

>  <SCORE.RESTR.norm>
0

>  <SCORE.SYSTEM>
0

>  <SCORE.SYSTEM.CONST>
0

>  <SCORE.SYSTEM.DIHEDRAL>
0

>  <SCORE.SYSTEM.SOLV>
0

>  <SCORE.SYSTEM.norm>
0

>  <SCORE.heavy>
14

>  <SCORE.norm>
-0.629034

>  <RMSD>
32.550

$$$$
ligand
 OpenBabel11021811513D
libRbt.so/2013.1/901 2013/11/27
 14 13  0  0  0  0  0  0  0  0999 V2000
   35.0767   69.0259   12.9376 N   0  0  0  0  0  0  0  0  0  0  0  0
   33.7148   68.5184   12.8985 C   0  0  0  0  0  0  0  0  0  0  0  0
   32.7903   69.4172   13.7129 C   0  0  0  0  0  0  0  0  0  0  0  0
   31.3457   68.9366   13.6336 C   0  0  0  0  0  0  0  0  0  0  0  0
   30.4221   69.7889   14.3764 N   0  0  0  0  0  0  0  0  0  0  0  0
   29.0149   69.4417   14.4810 C   0  0  0  0  0  0  0  0  0  0  0  0
   28.1720   70.5623   15.0799 C   0  0  0  0  0  0  0  0  0  0  0  0
   26.7201   70.1140   15.2041 C   0  0  0  0  0  0  0  0  0  0  0  0
   25.8810   71.2399   15.7985 C   0  0  0  0  0  0  0  0  0  0  0  0
   24.4736   70.8884   15.8782 N   0  0  0  0  0  0  0  0  0  0  0  0
   23.4658   71.9284   15.7189 C   0  0  0  0  0  0  0  0  0  0  0  0
   22.0600   71.4141   15.4166 C   0  0  0  0  0  0  0  0  0  0  0  0
   22.0553   70.5755   14.1373 C   0  0  0  0  0  0  0  0  0  0  0  0
   20.7076   70.1218   13.8386 N   0  0  0  0  0  0  0  0  0  0  0  0
  1  2  1  0  0  0  0
  2  3  1  0  0  0  0
  3  4  1  0  0  0  0
  4  5  1  0  0  0  0
  5  6  1  0  0  0  0
  6  7  1  0  0  0  0
  7  8  1  0  0  0  0
  8  9  1  0  0  0  0
  9 10  1  0  0  0  0
 10 11  1  0  0  0  0
 11 12  1  0  0  0  0
 12 13  1  0  0  0  0
 13 14  1  0  0  0  0
M  END
>  <CHROM.1>
177.47887975,-178.69814830,-176.29148962,-170.00097311,-178.07035085,-179.79213874
177.17558128,-147.46869358,163.08750334,-58.39872943,-178.43927455,27.56424766
70.14100834,14.50810999,0.21922248,0.05898766,-2.19667456

>  <Name>
ligand

>  <RI>
0

>  <Rbt.Current_Directory>
/home/itssahil/PROJECTS/Mol_Feturizer/New_Systems/rnas/4P5J

>  <Rbt.Executable>
rbdock ($Id: //depot/dev/client3/rdock/2013.1/src/exe/rbdock.cxx#4 $)

>  <Rbt.Library>
libRbt.so (2013.1, Build901 2013/11/27)

>  <Rbt.Parameter_File>
/export/apps/rDock/src/rDock_2013.1_src/data/scripts/dock_solv.prm

>  <Rbt.Receptor>
prm/blind_docking_80.prm

>  <SCORE>
-11.8633

>  <SCORE.INTER>
-1.76472

>  <SCORE.INTER.CONST>
1

>  <SCORE.INTER.POLAR>
0

>  <SCORE.INTER.ROT>
11

>  <SCORE.INTER.SOLV>
8.08122

>  <SCORE.INTER.VDW>
-14.8036

>  <SCORE.INTER.norm>
-0.126052

>  <SCORE.INTRA>
-10.0986

>  <SCORE.INTRA.DIHEDRAL>
-16.4384

>  <SCORE.INTRA.DIHEDRAL.0>
17.5233

>  <SCORE.INTRA.POLAR>
0

>  <SCORE.INTRA.POLAR.0>
0

>  <SCORE.INTRA.REPUL>
0

>  <SCORE.INTRA.REPUL.0>
0

>  <SCORE.INTRA.SOLV>
-2.35126

>  <SCORE.INTRA.SOLV.lig_0>
-46.1043

>  <SCORE.INTRA.VDW>
-0.703782

>  <SCORE.INTRA.VDW.0>
-0.545445

>  <SCORE.INTRA.norm>
-0.721328

>  <SCORE.RESTR>
0

>  <SCORE.RESTR.CAVITY>
0

>  <SCORE.RESTR.norm>
0

>  <SCORE.SYSTEM>
0

>  <SCORE.SYSTEM.CONST>
0

>  <SCORE.SYSTEM.DIHEDRAL>
0

>  <SCORE.SYSTEM.SOLV>
0

>  <SCORE.SYSTEM.norm>
0

>  <SCORE.heavy>
14

>  <SCORE.norm>
-0.84738

>  <RMSD>
32.572

$$$$
ligand
 OpenBabel11021811513D
libRbt.so/2013.1/901 2013/11/27
 14 13  0  0  0  0  0  0  0  0999 V2000
   22.4101   70.8691   15.3479 N   0  0  0  0  0  0  0  0  0  0  0  0
   23.4760   71.7950   15.6952 C   0  0  0  0  0  0  0  0  0  0  0  0
   24.8282   71.0919   15.6395 C   0  0  0  0  0  0  0  0  0  0  0  0
   25.9654   72.0621   15.9389 C   0  0  0  0  0  0  0  0  0  0  0  0
   27.2759   71.4188   15.9369 N   0  0  0  0  0  0  0  0  0  0  0  0
   27.9385   71.0912   14.6856 C   0  0  0  0  0  0  0  0  0  0  0  0
   29.1362   70.1669   14.8748 C   0  0  0  0  0  0  0  0  0  0  0  0
   29.7056   69.7662   13.5185 C   0  0  0  0  0  0  0  0  0  0  0  0
   30.8765   68.8088   13.7123 C   0  0  0  0  0  0  0  0  0  0  0  0
   32.0216   69.4630   14.3217 N   0  0  0  0  0  0  0  0  0  0  0  0
   33.3652   69.0008   13.9998 C   0  0  0  0  0  0  0  0  0  0  0  0
   33.7181   69.0484   12.5147 C   0  0  0  0  0  0  0  0  0  0  0  0
   35.1541   68.5742   12.2854 C   0  0  0  0  0  0  0  0  0  0  0  0
   36.0955   69.5730   12.7622 N   0  0  0  0  0  0  0  0  0  0  0  0
  1  2  1  0  0  0  0
  2  3  1  0  0  0  0
  3  4  1  0  0  0  0
  4  5  1  0  0  0  0
  5  6  1  0  0  0  0
  6  7  1  0  0  0  0
  7  8  1  0  0  0  0
  8  9  1  0  0  0  0
  9 10  1  0  0  0  0
 10 11  1  0  0  0  0
 11 12  1  0  0  0  0
 12 13  1  0  0  0  0
 13 14  1  0  0  0  0
M  END
>  <CHROM.1>
177.41903157,178.19616025,77.56159151,-167.57886245,174.99378701,-178.30002150
-68.15306070,-149.38511162,58.17062756,178.74847736,-72.07075302,29.42620396
70.19490847,14.37372291,2.80194515,0.03589873,0.74503497

>  <Name>
ligand

>  <RI>
0

>  <Rbt.Current_Directory>
/home/itssahil/PROJECTS/Mol_Feturizer/New_Systems/rnas/4P5J

>  <Rbt.Executable>
rbdock ($Id: //depot/dev/client3/rdock/2013.1/src/exe/rbdock.cxx#4 $)

>  <Rbt.Library>
libRbt.so (2013.1, Build901 2013/11/27)

>  <Rbt.Parameter_File>
/export/apps/rDock/src/rDock_2013.1_src/data/scripts/dock_solv.prm

>  <Rbt.Receptor>
prm/blind_docking_100.prm

>  <SCORE>
-9.7191

>  <SCORE.INTER>
-1.22178

>  <SCORE.INTER.CONST>
1

>  <SCORE.INTER.POLAR>
0

>  <SCORE.INTER.ROT>
11

>  <SCORE.INTER.SOLV>
9.67601

>  <SCORE.INTER.VDW>
-14.9732

>  <SCORE.INTER.norm>
-0.0872703

>  <SCORE.INTRA>
-8.49732

>  <SCORE.INTRA.DIHEDRAL>
-15.6118

>  <SCORE.INTRA.DIHEDRAL.0>
17.5233

>  <SCORE.INTRA.POLAR>
0

>  <SCORE.INTRA.POLAR.0>
0

>  <SCORE.INTRA.REPUL>
0

>  <SCORE.INTRA.REPUL.0>
0

>  <SCORE.INTRA.SOLV>
-1.66964

>  <SCORE.INTRA.SOLV.lig_0>
-46.1043

>  <SCORE.INTRA.VDW>
0.143423

>  <SCORE.INTRA.VDW.0>
-0.545445

>  <SCORE.INTRA.norm>
-0.606951

>  <SCORE.RESTR>
0

>  <SCORE.RESTR.CAVITY>
0

>  <SCORE.RESTR.norm>
0

>  <SCORE.SYSTEM>
0

>  <SCORE.SYSTEM.CONST>
0

>  <SCORE.SYSTEM.DIHEDRAL>
0

>  <SCORE.SYSTEM.SOLV>
0

>  <SCORE.SYSTEM.norm>
0

>  <SCORE.heavy>
14

>  <SCORE.norm>
-0.694222

>  <RMSD>
32.577

$$$$
ligand
 OpenBabel11021811513D
libRbt.so/2013.1/901 2013/11/27
 14 13  0  0  0  0  0  0  0  0999 V2000
   21.3169   69.0119   14.3435 N   0  0  0  0  0  0  0  0  0  0  0  0
   22.3217   70.0615   14.3967 C   0  0  0  0  0  0  0  0  0  0  0  0
   22.3013   70.7466   15.7591 C   0  0  0  0  0  0  0  0  0  0  0  0
   23.2779   71.9165   15.8012 C   0  0  0  0  0  0  0  0  0  0  0  0
   24.6688   71.5010   15.6465 N   0  0  0  0  0  0  0  0  0  0  0  0
   25.7506   72.4564   15.8165 C   0  0  0  0  0  0  0  0  0  0  0  0
   27.1047   71.7863   16.0217 C   0  0  0  0  0  0  0  0  0  0  0  0
   27.5266   71.0615   14.7484 C   0  0  0  0  0  0  0  0  0  0  0  0
   28.8849   70.4006   14.9563 C   0  0  0  0  0  0  0  0  0  0  0  0
   29.3688   69.7553   13.7481 N   0  0  0  0  0  0  0  0  0  0  0  0
   30.6112   68.9954   13.7905 C   0  0  0  0  0  0  0  0  0  0  0  0
   31.8752   69.8446   13.9068 C   0  0  0  0  0  0  0  0  0  0  0  0
   33.1194   68.9565   13.9598 C   0  0  0  0  0  0  0  0  0  0  0  0
   34.3195   69.7746   14.0027 N   0  0  0  0  0  0  0  0  0  0  0  0
  1  2  1  0  0  0  0
  2  3  1  0  0  0  0
  3  4  1  0  0  0  0
  4  5  1  0  0  0  0
  5  6  1  0  0  0  0
  6  7  1  0  0  0  0
  7  8  1  0  0  0  0
  8  9  1  0  0  0  0
  9 10  1  0  0  0  0
 10 11  1  0  0  0  0
 11 12  1  0  0  0  0
 12 13  1  0  0  0  0
 13 14  1  0  0  0  0
M  END
>  <CHROM.1>
-175.88562130,-64.07399066,-172.77756519,163.23239100,67.09418114,179.65375832
-176.88550576,-175.85285309,-72.33295520,179.35025988,177.15301604,27.31761890
70.44794502,14.77855482,2.97287887,0.04363473,0.56258707

>  <Name>
ligand

>  <RI>
0

>  <Rbt.Current_Directory>
/home/itssahil/PROJECTS/Mol_Feturizer/New_Systems/rnas/4P5J

>  <Rbt.Executable>
rbdock ($Id: //depot/dev/client3/rdock/2013.1/src/exe/rbdock.cxx#4 $)

>  <Rbt.Library>
libRbt.so (2013.1, Build901 2013/11/27)

>  <Rbt.Parameter_File>
/export/apps/rDock/src/rDock_2013.1_src/data/scripts/dock_solv.prm

>  <Rbt.Receptor>
prm/blind_docking_80.prm

>  <SCORE>
-12.3558

>  <SCORE.INTER>
-2.553

>  <SCORE.INTER.CONST>
1

>  <SCORE.INTER.POLAR>
0

>  <SCORE.INTER.ROT>
11

>  <SCORE.INTER.SOLV>
7.59051

>  <SCORE.INTER.VDW>
-15.1655

>  <SCORE.INTER.norm>
-0.182357

>  <SCORE.INTRA>
-9.8028

>  <SCORE.INTRA.DIHEDRAL>
-16.7453

>  <SCORE.INTRA.DIHEDRAL.0>
17.5233

>  <SCORE.INTRA.POLAR>
0

>  <SCORE.INTRA.POLAR.0>
0

>  <SCORE.INTRA.REPUL>
0

>  <SCORE.INTRA.REPUL.0>
0

>  <SCORE.INTRA.SOLV>
-2.01639

>  <SCORE.INTRA.SOLV.lig_0>
-46.1043

>  <SCORE.INTRA.VDW>
-0.421943

>  <SCORE.INTRA.VDW.0>
-0.545445

>  <SCORE.INTRA.norm>
-0.7002

>  <SCORE.RESTR>
0

>  <SCORE.RESTR.CAVITY>
0

>  <SCORE.RESTR.norm>
0

>  <SCORE.SYSTEM>
0

>  <SCORE.SYSTEM.CONST>
0

>  <SCORE.SYSTEM.DIHEDRAL>
0

>  <SCORE.SYSTEM.SOLV>
0

>  <SCORE.SYSTEM.norm>
0

>  <SCORE.heavy>
14

>  <SCORE.norm>
-0.882557

>  <RMSD>
32.579

$$$$
ligand
 OpenBabel11021811513D
libRbt.so/2013.1/901 2013/11/27
 14 13  0  0  0  0  0  0  0  0999 V2000
   33.0426   73.6130   14.0386 N   0  0  0  0  0  0  0  0  0  0  0  0
   31.6868   73.8871   14.4865 C   0  0  0  0  0  0  0  0  0  0  0  0
   30.7696   72.7166   14.1481 C   0  0  0  0  0  0  0  0  0  0  0  0
   31.0979   71.4961   15.0006 C   0  0  0  0  0  0  0  0  0  0  0  0
   30.2151   70.3641   14.7354 N   0  0  0  0  0  0  0  0  0  0  0  0
   28.8053   70.4269   15.0824 C   0  0  0  0  0  0  0  0  0  0  0  0
   28.0584   69.1376   14.7589 C   0  0  0  0  0  0  0  0  0  0  0  0
   26.5637   69.3279   14.9911 C   0  0  0  0  0  0  0  0  0  0  0  0
   25.8228   68.0334   14.6744 C   0  0  0  0  0  0  0  0  0  0  0  0
   24.3844   68.1787   14.8165 N   0  0  0  0  0  0  0  0  0  0  0  0
   23.8171   68.4338   16.1339 C   0  0  0  0  0  0  0  0  0  0  0  0
   22.7647   69.5398   16.1726 C   0  0  0  0  0  0  0  0  0  0  0  0
   23.3730   70.8790   15.7529 C   0  0  0  0  0  0  0  0  0  0  0  0
   22.3528   71.9136   15.7437 N   0  0  0  0  0  0  0  0  0  0  0  0
  1  2  1  0  0  0  0
  2  3  1  0  0  0  0
  3  4  1  0  0  0  0
  4  5  1  0  0  0  0
  5  6  1  0  0  0  0
  6  7  1  0  0  0  0
  7  8  1  0  0  0  0
  8  9  1  0  0  0  0
  9 10  1  0  0  0  0
 10 11  1  0  0  0  0
 11 12  1  0  0  0  0
 12 13  1  0  0  0  0
 13 14  1  0  0  0  0
M  END
>  <CHROM.1>
69.58928293,178.28330233,-67.11138728,-178.61500400,-173.29512284,-179.65177258
-177.18605072,-65.71168136,134.22841518,-62.13436456,177.83149636,27.33951720
70.56750118,15.03833870,0.35523049,0.17024833,0.05534387

>  <Name>
ligand

>  <RI>
0

>  <Rbt.Current_Directory>
/home/itssahil/PROJECTS/Mol_Feturizer/New_Systems/rnas/4P5J

>  <Rbt.Executable>
rbdock ($Id: //depot/dev/client3/rdock/2013.1/src/exe/rbdock.cxx#4 $)

>  <Rbt.Library>
libRbt.so (2013.1, Build901 2013/11/27)

>  <Rbt.Parameter_File>
/export/apps/rDock/src/rDock_2013.1_src/data/scripts/dock_solv.prm

>  <Rbt.Receptor>
prm/blind_docking_100.prm

>  <SCORE>
-7.2907

>  <SCORE.INTER>
1.40687

>  <SCORE.INTER.CONST>
1

>  <SCORE.INTER.POLAR>
0

>  <SCORE.INTER.ROT>
11

>  <SCORE.INTER.SOLV>
11.7931

>  <SCORE.INTER.VDW>
-13.9264

>  <SCORE.INTER.norm>
0.100491

>  <SCORE.INTRA>
-8.69757

>  <SCORE.INTRA.DIHEDRAL>
-15.8274

>  <SCORE.INTRA.DIHEDRAL.0>
17.5233

>  <SCORE.INTRA.POLAR>
0

>  <SCORE.INTRA.POLAR.0>
0

>  <SCORE.INTRA.REPUL>
0

>  <SCORE.INTRA.REPUL.0>
0

>  <SCORE.INTRA.SOLV>
-1.65798

>  <SCORE.INTRA.SOLV.lig_0>
-46.1043

>  <SCORE.INTRA.VDW>
0.0451067

>  <SCORE.INTRA.VDW.0>
-0.545445

>  <SCORE.INTRA.norm>
-0.621255

>  <SCORE.RESTR>
0

>  <SCORE.RESTR.CAVITY>
0

>  <SCORE.RESTR.norm>
0

>  <SCORE.SYSTEM>
0

>  <SCORE.SYSTEM.CONST>
0

>  <SCORE.SYSTEM.DIHEDRAL>
0

>  <SCORE.SYSTEM.SOLV>
0

>  <SCORE.SYSTEM.norm>
0

>  <SCORE.heavy>
14

>  <SCORE.norm>
-0.520764

>  <RMSD>
32.624

$$$$
ligand
 OpenBabel11021811513D
libRbt.so/2013.1/901 2013/11/27
 14 13  0  0  0  0  0  0  0  0999 V2000
   24.6384   68.1634   14.6976 N   0  0  0  0  0  0  0  0  0  0  0  0
   26.0253   68.1226   14.2631 C   0  0  0  0  0  0  0  0  0  0  0  0
   26.8555   69.1363   15.0435 C   0  0  0  0  0  0  0  0  0  0  0  0
   28.3201   69.0885   14.6226 C   0  0  0  0  0  0  0  0  0  0  0  0
   29.1588   70.0134   15.3792 N   0  0  0  0  0  0  0  0  0  0  0  0
   30.0286   70.9545   14.6939 C   0  0  0  0  0  0  0  0  0  0  0  0
   31.5056   70.7179   14.9892 C   0  0  0  0  0  0  0  0  0  0  0  0
   31.9859   69.4599   14.2741 C   0  0  0  0  0  0  0  0  0  0  0  0
   33.4361   69.1745   14.6490 C   0  0  0  0  0  0  0  0  0  0  0  0
   34.3331   70.2250   14.1994 N   0  0  0  0  0  0  0  0  0  0  0  0
   35.6347   70.3764   14.8363 C   0  0  0  0  0  0  0  0  0  0  0  0
   36.6455   71.1954   14.0364 C   0  0  0  0  0  0  0  0  0  0  0  0
   36.9565   70.5153   12.7020 C   0  0  0  0  0  0  0  0  0  0  0  0
   38.0100   71.2335   12.0053 N   0  0  0  0  0  0  0  0  0  0  0  0
  1  2  1  0  0  0  0
  2  3  1  0  0  0  0
  3  4  1  0  0  0  0
  4  5  1  0  0  0  0
  5  6  1  0  0  0  0
  6  7  1  0  0  0  0
  7  8  1  0  0  0  0
  8  9  1  0  0  0  0
  9 10  1  0  0  0  0
 10 11  1  0  0  0  0
 11 12  1  0  0  0  0
 12 13  1  0  0  0  0
 13 14  1  0  0  0  0
M  END
>  <CHROM.1>
178.81237298,-178.04386489,-127.87524617,-117.06759784,72.70732139,-176.12746907
-63.84655668,158.90531731,162.16847738,-62.42135220,-174.64850258,31.68106120
69.88402984,14.31377462,3.13600259,0.23103741,0.97879827

>  <Name>
ligand

>  <RI>
0

>  <Rbt.Current_Directory>
/home/itssahil/PROJECTS/Mol_Feturizer/New_Systems/rnas/4P5J

>  <Rbt.Executable>
rbdock ($Id: //depot/dev/client3/rdock/2013.1/src/exe/rbdock.cxx#4 $)

>  <Rbt.Library>
libRbt.so (2013.1, Build901 2013/11/27)

>  <Rbt.Parameter_File>
/export/apps/rDock/src/rDock_2013.1_src/data/scripts/dock_solv.prm

>  <Rbt.Receptor>
prm/blind_docking_100.prm

>  <SCORE>
-8.93672

>  <SCORE.INTER>
-0.518248

>  <SCORE.INTER.CONST>
1

>  <SCORE.INTER.POLAR>
0

>  <SCORE.INTER.ROT>
11

>  <SCORE.INTER.SOLV>
8.69493

>  <SCORE.INTER.VDW>
-14.1771

>  <SCORE.INTER.norm>
-0.0370177

>  <SCORE.INTRA>
-8.41847

>  <SCORE.INTRA.DIHEDRAL>
-13.7505

>  <SCORE.INTRA.DIHEDRAL.0>
17.5233

>  <SCORE.INTRA.POLAR>
0

>  <SCORE.INTRA.POLAR.0>
0

>  <SCORE.INTRA.REPUL>
0

>  <SCORE.INTRA.REPUL.0>
0

>  <SCORE.INTRA.SOLV>
-1.65331

>  <SCORE.INTRA.SOLV.lig_0>
-46.1043

>  <SCORE.INTRA.VDW>
-0.716557

>  <SCORE.INTRA.VDW.0>
-0.545445

>  <SCORE.INTRA.norm>
-0.60132

>  <SCORE.RESTR>
0

>  <SCORE.RESTR.CAVITY>
0

>  <SCORE.RESTR.norm>
0

>  <SCORE.SYSTEM>
0

>  <SCORE.SYSTEM.CONST>
0

>  <SCORE.SYSTEM.DIHEDRAL>
0

>  <SCORE.SYSTEM.SOLV>
0

>  <SCORE.SYSTEM.norm>
0

>  <SCORE.heavy>
14

>  <SCORE.norm>
-0.638337

>  <RMSD>
32.630

$$$$
ligand
 OpenBabel11021811513D
libRbt.so/2013.1/901 2013/11/27
 14 13  0  0  0  0  0  0  0  0999 V2000
   20.8181   70.2895   13.5506 N   0  0  0  0  0  0  0  0  0  0  0  0
   22.0690   70.9378   13.9096 C   0  0  0  0  0  0  0  0  0  0  0  0
   22.1425   71.1501   15.4180 C   0  0  0  0  0  0  0  0  0  0  0  0
   23.4626   71.7991   15.8186 C   0  0  0  0  0  0  0  0  0  0  0  0
   24.6235   70.9822   15.4777 N   0  0  0  0  0  0  0  0  0  0  0  0
   25.9584   71.3843   15.8876 C   0  0  0  0  0  0  0  0  0  0  0  0
   27.0487   70.8324   14.9758 C   0  0  0  0  0  0  0  0  0  0  0  0
   28.4143   71.3327   15.4330 C   0  0  0  0  0  0  0  0  0  0  0  0
   29.4754   70.9471   14.4081 C   0  0  0  0  0  0  0  0  0  0  0  0
   29.6753   69.5096   14.3434 N   0  0  0  0  0  0  0  0  0  0  0  0
   30.8137   68.9774   13.6064 C   0  0  0  0  0  0  0  0  0  0  0  0
   32.1776   69.4240   14.1287 C   0  0  0  0  0  0  0  0  0  0  0  0
   33.2996   68.8815   13.2418 C   0  0  0  0  0  0  0  0  0  0  0  0
   34.5859   69.3817   13.6961 N   0  0  0  0  0  0  0  0  0  0  0  0
  1  2  1  0  0  0  0
  2  3  1  0  0  0  0
  3  4  1  0  0  0  0
  4  5  1  0  0  0  0
  5  6  1  0  0  0  0
  6  7  1  0  0  0  0
  7  8  1  0  0  0  0
  8  9  1  0  0  0  0
  9 10  1  0  0  0  0
 10 11  1  0  0  0  0
 11 12  1  0  0  0  0
 12 13  1  0  0  0  0
 13 14  1  0  0  0  0
M  END
>  <CHROM.1>
178.64020198,-61.42763967,-174.59491280,-154.06425743,177.97194508,-171.87240984
-66.89460068,-168.72978302,60.70365287,-176.64647817,176.35481686,27.46892332
70.41654135,14.56406236,2.96484836,-0.06695765,0.89435533

>  <Name>
ligand

>  <RI>
0

>  <Rbt.Current_Directory>
/home/itssahil/PROJECTS/Mol_Feturizer/New_Systems/rnas/4P5J

>  <Rbt.Executable>
rbdock ($Id: //depot/dev/client3/rdock/2013.1/src/exe/rbdock.cxx#4 $)

>  <Rbt.Library>
libRbt.so (2013.1, Build901 2013/11/27)

>  <Rbt.Parameter_File>
/export/apps/rDock/src/rDock_2013.1_src/data/scripts/dock_solv.prm

>  <Rbt.Receptor>
prm/blind_docking_80.prm

>  <SCORE>
-10.2924

>  <SCORE.INTER>
-1.04673

>  <SCORE.INTER.CONST>
1

>  <SCORE.INTER.POLAR>
0

>  <SCORE.INTER.ROT>
11

>  <SCORE.INTER.SOLV>
7.77616

>  <SCORE.INTER.VDW>
-14.2232

>  <SCORE.INTER.norm>
-0.0747664

>  <SCORE.INTRA>
-9.24565

>  <SCORE.INTRA.DIHEDRAL>
-16.3506

>  <SCORE.INTRA.DIHEDRAL.0>
17.5233

>  <SCORE.INTRA.POLAR>
0

>  <SCORE.INTRA.POLAR.0>
0

>  <SCORE.INTRA.REPUL>
0

>  <SCORE.INTRA.REPUL.0>
0

>  <SCORE.INTRA.SOLV>
-1.94078

>  <SCORE.INTRA.SOLV.lig_0>
-46.1043

>  <SCORE.INTRA.VDW>
-0.0999436

>  <SCORE.INTRA.VDW.0>
-0.545445

>  <SCORE.INTRA.norm>
-0.660403

>  <SCORE.RESTR>
0

>  <SCORE.RESTR.CAVITY>
0

>  <SCORE.RESTR.norm>
0

>  <SCORE.SYSTEM>
0

>  <SCORE.SYSTEM.CONST>
0

>  <SCORE.SYSTEM.DIHEDRAL>
0

>  <SCORE.SYSTEM.SOLV>
0

>  <SCORE.SYSTEM.norm>
0

>  <SCORE.heavy>
14

>  <SCORE.norm>
-0.73517

>  <RMSD>
32.697

$$$$
ligand
 OpenBabel11021811513D
libRbt.so/2013.1/901 2013/11/27
 14 13  0  0  0  0  0  0  0  0999 V2000
   33.9991   68.4371   13.4110 N   0  0  0  0  0  0  0  0  0  0  0  0
   33.3462   69.1811   14.4760 C   0  0  0  0  0  0  0  0  0  0  0  0
   32.0220   69.7572   13.9856 C   0  0  0  0  0  0  0  0  0  0  0  0
   31.3942   70.6654   15.0369 C   0  0  0  0  0  0  0  0  0  0  0  0
   30.0969   71.1952   14.6279 N   0  0  0  0  0  0  0  0  0  0  0  0
   28.8672   70.6492   15.1771 C   0  0  0  0  0  0  0  0  0  0  0  0
   27.6982   71.6247   15.0948 C   0  0  0  0  0  0  0  0  0  0  0  0
   26.4467   70.9912   15.6922 C   0  0  0  0  0  0  0  0  0  0  0  0
   25.2781   71.9660   15.5961 C   0  0  0  0  0  0  0  0  0  0  0  0
   24.0378   71.3804   16.0747 N   0  0  0  0  0  0  0  0  0  0  0  0
   22.8120   72.1667   16.0334 C   0  0  0  0  0  0  0  0  0  0  0  0
   21.9329   71.9149   14.8102 C   0  0  0  0  0  0  0  0  0  0  0  0
   21.4022   70.4803   14.8127 C   0  0  0  0  0  0  0  0  0  0  0  0
   20.6442   70.2227   13.6001 N   0  0  0  0  0  0  0  0  0  0  0  0
  1  2  1  0  0  0  0
  2  3  1  0  0  0  0
  3  4  1  0  0  0  0
  4  5  1  0  0  0  0
  5  6  1  0  0  0  0
  6  7  1  0  0  0  0
  7  8  1  0  0  0  0
  8  9  1  0  0  0  0
  9 10  1  0  0  0  0
 10 11  1  0  0  0  0
 11 12  1  0  0  0  0
 12 13  1  0  0  0  0
 13 14  1  0  0  0  0
M  END
>  <CHROM.1>
-173.84564211,-177.66696588,103.64273110,157.18429220,-179.74736673,-179.49801677
176.34102195,-178.95465012,96.43200276,64.80023521,-176.06457336,27.14124794
70.75962504,14.88794592,0.16189555,0.04989387,-2.41790436

>  <Name>
ligand

>  <RI>
0

>  <Rbt.Current_Directory>
/home/itssahil/PROJECTS/Mol_Feturizer/New_Systems/rnas/4P5J

>  <Rbt.Executable>
rbdock ($Id: //depot/dev/client3/rdock/2013.1/src/exe/rbdock.cxx#4 $)

>  <Rbt.Library>
libRbt.so (2013.1, Build901 2013/11/27)

>  <Rbt.Parameter_File>
/export/apps/rDock/src/rDock_2013.1_src/data/scripts/dock_solv.prm

>  <Rbt.Receptor>
prm/blind_docking_100.prm

>  <SCORE>
-11.819

>  <SCORE.INTER>
-2.4772

>  <SCORE.INTER.CONST>
1

>  <SCORE.INTER.POLAR>
0

>  <SCORE.INTER.ROT>
11

>  <SCORE.INTER.SOLV>
10.4534

>  <SCORE.INTER.VDW>
-16.0693

>  <SCORE.INTER.norm>
-0.176943

>  <SCORE.INTRA>
-9.34177

>  <SCORE.INTRA.DIHEDRAL>
-14.9919

>  <SCORE.INTRA.DIHEDRAL.0>
17.5233

>  <SCORE.INTRA.POLAR>
0

>  <SCORE.INTRA.POLAR.0>
0

>  <SCORE.INTRA.REPUL>
0

>  <SCORE.INTRA.REPUL.0>
0

>  <SCORE.INTRA.SOLV>
-2.37499

>  <SCORE.INTRA.SOLV.lig_0>
-46.1043

>  <SCORE.INTRA.VDW>
-0.658312

>  <SCORE.INTRA.VDW.0>
-0.545445

>  <SCORE.INTRA.norm>
-0.667269

>  <SCORE.RESTR>
0

>  <SCORE.RESTR.CAVITY>
0

>  <SCORE.RESTR.norm>
0

>  <SCORE.SYSTEM>
0

>  <SCORE.SYSTEM.CONST>
0

>  <SCORE.SYSTEM.DIHEDRAL>
0

>  <SCORE.SYSTEM.SOLV>
0

>  <SCORE.SYSTEM.norm>
0

>  <SCORE.heavy>
14

>  <SCORE.norm>
-0.844212

>  <RMSD>
32.726

$$$$
ligand
 OpenBabel11021811513D
libRbt.so/2013.1/901 2013/11/27
 14 13  0  0  0  0  0  0  0  0999 V2000
   22.8810   70.8397   13.2073 N   0  0  0  0  0  0  0  0  0  0  0  0
   22.1417   71.9593   13.7677 C   0  0  0  0  0  0  0  0  0  0  0  0
   22.0325   71.8178   15.2822 C   0  0  0  0  0  0  0  0  0  0  0  0
   23.3829   72.0389   15.9543 C   0  0  0  0  0  0  0  0  0  0  0  0
   24.3649   71.0163   15.6057 N   0  0  0  0  0  0  0  0  0  0  0  0
   25.7883   71.2903   15.7095 C   0  0  0  0  0  0  0  0  0  0  0  0
   26.6498   70.1644   15.1481 C   0  0  0  0  0  0  0  0  0  0  0  0
   28.1124   70.5933   15.1151 C   0  0  0  0  0  0  0  0  0  0  0  0
   28.9576   69.4976   14.4746 C   0  0  0  0  0  0  0  0  0  0  0  0
   30.3579   69.8728   14.3807 N   0  0  0  0  0  0  0  0  0  0  0  0
   31.2803   69.0183   13.6448 C   0  0  0  0  0  0  0  0  0  0  0  0
   32.7501   69.4165   13.7608 C   0  0  0  0  0  0  0  0  0  0  0  0
   33.6251   68.5115   12.8918 C   0  0  0  0  0  0  0  0  0  0  0  0
   35.0088   68.9522   12.9412 N   0  0  0  0  0  0  0  0  0  0  0  0
  1  2  1  0  0  0  0
  2  3  1  0  0  0  0
  3  4  1  0  0  0  0
  4  5  1  0  0  0  0
  5  6  1  0  0  0  0
  6  7  1  0  0  0  0
  7  8  1  0  0  0  0
  8  9  1  0  0  0  0
  9 10  1  0  0  0  0
 10 11  1  0  0  0  0
 11 12  1  0  0  0  0
 12 13  1  0  0  0  0
 13 14  1  0  0  0  0
M  END
>  <CHROM.1>
70.33346437,-65.18005011,156.73828896,-173.19435975,172.38725759,-176.56056651
178.24480199,-172.33585958,-172.66073667,-176.72833950,176.32632922,27.66647209
70.35642027,14.42043167,2.94799422,-0.20571544,1.32421872

>  <Name>
ligand

>  <RI>
0

>  <Rbt.Current_Directory>
/home/itssahil/PROJECTS/Mol_Feturizer/New_Systems/rnas/4P5J

>  <Rbt.Executable>
rbdock ($Id: //depot/dev/client3/rdock/2013.1/src/exe/rbdock.cxx#4 $)

>  <Rbt.Library>
libRbt.so (2013.1, Build901 2013/11/27)

>  <Rbt.Parameter_File>
/export/apps/rDock/src/rDock_2013.1_src/data/scripts/dock_solv.prm

>  <Rbt.Receptor>
prm/blind_docking_100.prm

>  <SCORE>
-11.1637

>  <SCORE.INTER>
-2.66263

>  <SCORE.INTER.CONST>
1

>  <SCORE.INTER.POLAR>
0

>  <SCORE.INTER.ROT>
11

>  <SCORE.INTER.SOLV>
7.40899

>  <SCORE.INTER.VDW>
-15.1781

>  <SCORE.INTER.norm>
-0.190188

>  <SCORE.INTRA>
-8.50105

>  <SCORE.INTRA.DIHEDRAL>
-16.1376

>  <SCORE.INTRA.DIHEDRAL.0>
17.5233

>  <SCORE.INTRA.POLAR>
0

>  <SCORE.INTRA.POLAR.0>
0

>  <SCORE.INTRA.REPUL>
0

>  <SCORE.INTRA.REPUL.0>
0

>  <SCORE.INTRA.SOLV>
0.665667

>  <SCORE.INTRA.SOLV.lig_0>
-46.1043

>  <SCORE.INTRA.VDW>
-0.765107

>  <SCORE.INTRA.VDW.0>
-0.545445

>  <SCORE.INTRA.norm>
-0.607218

>  <SCORE.RESTR>
0

>  <SCORE.RESTR.CAVITY>
0

>  <SCORE.RESTR.norm>
0

>  <SCORE.SYSTEM>
0

>  <SCORE.SYSTEM.CONST>
0

>  <SCORE.SYSTEM.DIHEDRAL>
0

>  <SCORE.SYSTEM.SOLV>
0

>  <SCORE.SYSTEM.norm>
0

>  <SCORE.heavy>
14

>  <SCORE.norm>
-0.797406

>  <RMSD>
32.748

$$$$
ligand
 OpenBabel11021811513D
libRbt.so/2013.1/901 2013/11/27
 14 13  0  0  0  0  0  0  0  0999 V2000
   35.6684   68.4872   11.8830 N   0  0  0  0  0  0  0  0  0  0  0  0
   35.1814   69.3769   12.9247 C   0  0  0  0  0  0  0  0  0  0  0  0
   33.7157   69.0852   13.2287 C   0  0  0  0  0  0  0  0  0  0  0  0
   33.1958   69.9841   14.3449 C   0  0  0  0  0  0  0  0  0  0  0  0
   31.7689   69.8079   14.5978 N   0  0  0  0  0  0  0  0  0  0  0  0
   31.0196   70.8064   15.3418 C   0  0  0  0  0  0  0  0  0  0  0  0
   30.3896   71.8645   14.4428 C   0  0  0  0  0  0  0  0  0  0  0  0
   29.4067   71.2113   13.4776 C   0  0  0  0  0  0  0  0  0  0  0  0
   28.1927   70.6987   14.2448 C   0  0  0  0  0  0  0  0  0  0  0  0
   27.4351   71.7789   14.8527 N   0  0  0  0  0  0  0  0  0  0  0  0
   26.7186   71.5384   16.0983 C   0  0  0  0  0  0  0  0  0  0  0  0
   25.5144   70.6076   15.9725 C   0  0  0  0  0  0  0  0  0  0  0  0
   24.3734   71.2988   15.2241 C   0  0  0  0  0  0  0  0  0  0  0  0
   24.7281   71.4840   13.8272 N   0  0  0  0  0  0  0  0  0  0  0  0
  1  2  1  0  0  0  0
  2  3  1  0  0  0  0
  3  4  1  0  0  0  0
  4  5  1  0  0  0  0
  5  6  1  0  0  0  0
  6  7  1  0  0  0  0
  7  8  1  0  0  0  0
  8  9  1  0  0  0  0
  9 10  1  0  0  0  0
 10 11  1  0  0  0  0
 11 12  1  0  0  0  0
 12 13  1  0  0  0  0
 13 14  1  0  0  0  0
M  END
>  <CHROM.1>
178.52068469,175.62490388,-162.88628942,91.45568466,61.07207115,68.98841892
64.55750859,-149.09658095,-69.13287004,-71.21306788,69.10032081,29.80769122
70.57363331,14.31885615,0.27345404,0.15383575,-1.86998267

>  <Name>
ligand

>  <RI>
0

>  <Rbt.Current_Directory>
/home/itssahil/PROJECTS/Mol_Feturizer/New_Systems/rnas/4P5J

>  <Rbt.Executable>
rbdock ($Id: //depot/dev/client3/rdock/2013.1/src/exe/rbdock.cxx#4 $)

>  <Rbt.Library>
libRbt.so (2013.1, Build901 2013/11/27)

>  <Rbt.Parameter_File>
/export/apps/rDock/src/rDock_2013.1_src/data/scripts/dock_solv.prm

>  <Rbt.Receptor>
prm/blind_docking_100.prm

>  <SCORE>
-5.25432

>  <SCORE.INTER>
0.848147

>  <SCORE.INTER.CONST>
1

>  <SCORE.INTER.POLAR>
0

>  <SCORE.INTER.ROT>
11

>  <SCORE.INTER.SOLV>
6.19576

>  <SCORE.INTER.VDW>
-12.4332

>  <SCORE.INTER.norm>
0.0605819

>  <SCORE.INTRA>
-6.10246

>  <SCORE.INTRA.DIHEDRAL>
-14.6915

>  <SCORE.INTRA.DIHEDRAL.0>
17.5233

>  <SCORE.INTRA.POLAR>
0

>  <SCORE.INTRA.POLAR.0>
0

>  <SCORE.INTRA.REPUL>
0

>  <SCORE.INTRA.REPUL.0>
0

>  <SCORE.INTRA.SOLV>
1.74255

>  <SCORE.INTRA.SOLV.lig_0>
-46.1043

>  <SCORE.INTRA.VDW>
0.372006

>  <SCORE.INTRA.VDW.0>
-0.545445

>  <SCORE.INTRA.norm>
-0.43589

>  <SCORE.RESTR>
0

>  <SCORE.RESTR.CAVITY>
0

>  <SCORE.RESTR.norm>
0

>  <SCORE.SYSTEM>
0

>  <SCORE.SYSTEM.CONST>
0

>  <SCORE.SYSTEM.DIHEDRAL>
0

>  <SCORE.SYSTEM.SOLV>
0

>  <SCORE.SYSTEM.norm>
0

>  <SCORE.heavy>
14

>  <SCORE.norm>
-0.375308

>  <RMSD>
32.844

$$$$
ligand
 OpenBabel11021811513D
libRbt.so/2013.1/901 2013/11/27
 14 13  0  0  0  0  0  0  0  0999 V2000
   31.2592   70.2710   13.3052 N   0  0  0  0  0  0  0  0  0  0  0  0
   30.6228   69.0731   13.8287 C   0  0  0  0  0  0  0  0  0  0  0  0
   29.1369   69.3222   14.0650 C   0  0  0  0  0  0  0  0  0  0  0  0
   28.9209   70.4262   15.0940 C   0  0  0  0  0  0  0  0  0  0  0  0
   27.5113   70.7504   15.2917 N   0  0  0  0  0  0  0  0  0  0  0  0
   27.0417   72.1200   15.1670 C   0  0  0  0  0  0  0  0  0  0  0  0
   25.7513   72.3753   15.9381 C   0  0  0  0  0  0  0  0  0  0  0  0
   24.5894   71.6535   15.2648 C   0  0  0  0  0  0  0  0  0  0  0  0
   23.2840   72.0072   15.9690 C   0  0  0  0  0  0  0  0  0  0  0  0
   22.1227   71.5292   15.2385 N   0  0  0  0  0  0  0  0  0  0  0  0
   21.7424   70.1263   15.3372 C   0  0  0  0  0  0  0  0  0  0  0  0
   20.6515   69.6904   14.3614 C   0  0  0  0  0  0  0  0  0  0  0  0
   20.3242   68.2074   14.5444 C   0  0  0  0  0  0  0  0  0  0  0  0
   19.3739   67.7740   13.5343 N   0  0  0  0  0  0  0  0  0  0  0  0
  1  2  1  0  0  0  0
  2  3  1  0  0  0  0
  3  4  1  0  0  0  0
  4  5  1  0  0  0  0
  5  6  1  0  0  0  0
  6  7  1  0  0  0  0
  7  8  1  0  0  0  0
  8  9  1  0  0  0  0
  9 10  1  0  0  0  0
 10 11  1  0  0  0  0
 11 12  1  0  0  0  0
 12 13  1  0  0  0  0
 13 14  1  0  0  0  0
M  END
>  <CHROM.1>
-61.50960278,176.61627067,-126.55566314,-156.11944373,-70.09228835,-175.21118695
170.40098680,79.05024207,-170.68002635,-179.96382844,-174.91843601,25.16663712
70.38055958,14.78155832,-0.05549291,-0.07355732,-2.65106446

>  <Name>
ligand

>  <RI>
0

>  <Rbt.Current_Directory>
/home/itssahil/PROJECTS/Mol_Feturizer/New_Systems/rnas/4P5J

>  <Rbt.Executable>
rbdock ($Id: //depot/dev/client3/rdock/2013.1/src/exe/rbdock.cxx#4 $)

>  <Rbt.Library>
libRbt.so (2013.1, Build901 2013/11/27)

>  <Rbt.Parameter_File>
/export/apps/rDock/src/rDock_2013.1_src/data/scripts/dock_solv.prm

>  <Rbt.Receptor>
prm/blind_docking_80.prm

>  <SCORE>
-8.97394

>  <SCORE.INTER>
-0.565612

>  <SCORE.INTER.CONST>
1

>  <SCORE.INTER.POLAR>
0

>  <SCORE.INTER.ROT>
11

>  <SCORE.INTER.SOLV>
7.16352

>  <SCORE.INTER.VDW>
-13.6982

>  <SCORE.INTER.norm>
-0.0404009

>  <SCORE.INTRA>
-8.40833

>  <SCORE.INTRA.DIHEDRAL>
-14.6403

>  <SCORE.INTRA.DIHEDRAL.0>
17.5233

>  <SCORE.INTRA.POLAR>
0

>  <SCORE.INTRA.POLAR.0>
0

>  <SCORE.INTRA.REPUL>
0

>  <SCORE.INTRA.REPUL.0>
0

>  <SCORE.INTRA.SOLV>
-1.51414

>  <SCORE.INTRA.SOLV.lig_0>
-46.1043

>  <SCORE.INTRA.VDW>
-0.331126

>  <SCORE.INTRA.VDW.0>
-0.545445

>  <SCORE.INTRA.norm>
-0.600595

>  <SCORE.RESTR>
0

>  <SCORE.RESTR.CAVITY>
0

>  <SCORE.RESTR.norm>
0

>  <SCORE.SYSTEM>
0

>  <SCORE.SYSTEM.CONST>
0

>  <SCORE.SYSTEM.DIHEDRAL>
0

>  <SCORE.SYSTEM.SOLV>
0

>  <SCORE.SYSTEM.norm>
0

>  <SCORE.heavy>
14

>  <SCORE.norm>
-0.640996

>  <RMSD>
32.854

$$$$
ligand
 OpenBabel11021811513D
libRbt.so/2013.1/901 2013/11/27
 14 13  0  0  0  0  0  0  0  0999 V2000
   25.9194   71.6659   14.5805 N   0  0  0  0  0  0  0  0  0  0  0  0
   27.3501   71.8572   14.4060 C   0  0  0  0  0  0  0  0  0  0  0  0
   28.1261   70.9492   15.3543 C   0  0  0  0  0  0  0  0  0  0  0  0
   29.6299   71.1346   15.1861 C   0  0  0  0  0  0  0  0  0  0  0  0
   30.1124   70.7035   13.8774 N   0  0  0  0  0  0  0  0  0  0  0  0
   30.4846   69.3182   13.6447 C   0  0  0  0  0  0  0  0  0  0  0  0
   31.9529   69.0411   13.9484 C   0  0  0  0  0  0  0  0  0  0  0  0
   32.8385   69.7315   12.9171 C   0  0  0  0  0  0  0  0  0  0  0  0
   34.3058   69.5391   13.2848 C   0  0  0  0  0  0  0  0  0  0  0  0
   34.6735   70.2889   14.4735 N   0  0  0  0  0  0  0  0  0  0  0  0
   35.9934   70.9006   14.5544 C   0  0  0  0  0  0  0  0  0  0  0  0
   36.8542   70.4100   15.7165 C   0  0  0  0  0  0  0  0  0  0  0  0
   38.2507   71.0311   15.6540 C   0  0  0  0  0  0  0  0  0  0  0  0
   38.9652   70.5450   14.4858 N   0  0  0  0  0  0  0  0  0  0  0  0
  1  2  1  0  0  0  0
  2  3  1  0  0  0  0
  3  4  1  0  0  0  0
  4  5  1  0  0  0  0
  5  6  1  0  0  0  0
  6  7  1  0  0  0  0
  7  8  1  0  0  0  0
  8  9  1  0  0  0  0
  9 10  1  0  0  0  0
 10 11  1  0  0  0  0
 11 12  1  0  0  0  0
 12 13  1  0  0  0  0
 13 14  1  0  0  0  0
M  END
>  <CHROM.1>
179.97343312,-65.68541980,-86.82534869,-89.67916730,-69.21392638,175.76151657
-69.87119733,-143.34208296,-119.87717225,175.79546242,-66.55846861,32.53266681
70.50815774,14.43456123,-3.12031292,0.06812603,-2.32849854

>  <Name>
ligand

>  <RI>
0

>  <Rbt.Current_Directory>
/home/itssahil/PROJECTS/Mol_Feturizer/New_Systems/rnas/4P5J

>  <Rbt.Executable>
rbdock ($Id: //depot/dev/client3/rdock/2013.1/src/exe/rbdock.cxx#4 $)

>  <Rbt.Library>
libRbt.so (2013.1, Build901 2013/11/27)

>  <Rbt.Parameter_File>
/export/apps/rDock/src/rDock_2013.1_src/data/scripts/dock_solv.prm

>  <Rbt.Receptor>
prm/blind_docking_100.prm

>  <SCORE>
-6.86959

>  <SCORE.INTER>
0.591092

>  <SCORE.INTER.CONST>
1

>  <SCORE.INTER.POLAR>
0

>  <SCORE.INTER.ROT>
11

>  <SCORE.INTER.SOLV>
7.63584

>  <SCORE.INTER.VDW>
-13.0846

>  <SCORE.INTER.norm>
0.0422209

>  <SCORE.INTRA>
-7.46068

>  <SCORE.INTRA.DIHEDRAL>
-13.328

>  <SCORE.INTRA.DIHEDRAL.0>
17.5233

>  <SCORE.INTRA.POLAR>
0

>  <SCORE.INTRA.POLAR.0>
0

>  <SCORE.INTRA.REPUL>
0

>  <SCORE.INTRA.REPUL.0>
0

>  <SCORE.INTRA.SOLV>
-0.829187

>  <SCORE.INTRA.SOLV.lig_0>
-46.1043

>  <SCORE.INTRA.VDW>
-0.382104

>  <SCORE.INTRA.VDW.0>
-0.545445

>  <SCORE.INTRA.norm>
-0.532906

>  <SCORE.RESTR>
0

>  <SCORE.RESTR.CAVITY>
0

>  <SCORE.RESTR.norm>
0

>  <SCORE.SYSTEM>
0

>  <SCORE.SYSTEM.CONST>
0

>  <SCORE.SYSTEM.DIHEDRAL>
0

>  <SCORE.SYSTEM.SOLV>
0

>  <SCORE.SYSTEM.norm>
0

>  <SCORE.heavy>
14

>  <SCORE.norm>
-0.490685

>  <RMSD>
32.879

$$$$
ligand
 OpenBabel11021811513D
libRbt.so/2013.1/901 2013/11/27
 14 13  0  0  0  0  0  0  0  0999 V2000
    6.3160   65.8854   14.7932 N   0  0  0  0  0  0  0  0  0  0  0  0
    6.3487   64.6268   15.5203 C   0  0  0  0  0  0  0  0  0  0  0  0
    7.6678   64.4827   16.2720 C   0  0  0  0  0  0  0  0  0  0  0  0
    7.7388   65.4493   17.4489 C   0  0  0  0  0  0  0  0  0  0  0  0
    6.6053   65.3192   18.3596 N   0  0  0  0  0  0  0  0  0  0  0  0
    6.2266   64.0204   18.8903 C   0  0  0  0  0  0  0  0  0  0  0  0
    6.9839   63.6577   20.1629 C   0  0  0  0  0  0  0  0  0  0  0  0
    6.5208   64.5416   21.3157 C   0  0  0  0  0  0  0  0  0  0  0  0
    7.0733   64.0054   22.6318 C   0  0  0  0  0  0  0  0  0  0  0  0
    8.5234   63.9177   22.6200 N   0  0  0  0  0  0  0  0  0  0  0  0
    9.1655   62.6379   22.8892 C   0  0  0  0  0  0  0  0  0  0  0  0
   10.6897   62.6925   22.9677 C   0  0  0  0  0  0  0  0  0  0  0  0
   11.2644   61.3090   23.2767 C   0  0  0  0  0  0  0  0  0  0  0  0
   10.9965   60.3965   22.1781 N   0  0  0  0  0  0  0  0  0  0  0  0
  1  2  1  0  0  0  0
  2  3  1  0  0  0  0
  3  4  1  0  0  0  0
  4  5  1  0  0  0  0
  5  6  1  0  0  0  0
  6  7  1  0  0  0  0
  7  8  1  0  0  0  0
  8  9  1  0  0  0  0
  9 10  1  0  0  0  0
 10 11  1  0  0  0  0
 11 12  1  0  0  0  0
 12 13  1  0  0  0  0
 13 14  1  0  0  0  0
M  END
>  <CHROM.1>
70.82805912,54.73410567,51.33907054,86.99941724,70.03334267,169.12043037
57.25335360,-123.32254228,-175.01601390,179.01782657,65.25473014,8.00859687
63.78153833,19.95206544,-2.11624525,-0.61589911,1.66251958

>  <Name>
ligand

>  <RI>
0

>  <Rbt.Current_Directory>
/home/itssahil/PROJECTS/Mol_Feturizer/New_Systems/rnas/4P5J

>  <Rbt.Executable>
rbdock ($Id: //depot/dev/client3/rdock/2013.1/src/exe/rbdock.cxx#4 $)

>  <Rbt.Library>
libRbt.so (2013.1, Build901 2013/11/27)

>  <Rbt.Parameter_File>
/export/apps/rDock/src/rDock_2013.1_src/data/scripts/dock_solv.prm

>  <Rbt.Receptor>
prm/blind_docking_80.prm

>  <SCORE>
-6.68034

>  <SCORE.INTER>
-0.700351

>  <SCORE.INTER.CONST>
1

>  <SCORE.INTER.POLAR>
0

>  <SCORE.INTER.ROT>
11

>  <SCORE.INTER.SOLV>
12.1116

>  <SCORE.INTER.VDW>
-15.4374

>  <SCORE.INTER.norm>
-0.050025

>  <SCORE.INTRA>
-5.97999

>  <SCORE.INTRA.DIHEDRAL>
-14.2178

>  <SCORE.INTRA.DIHEDRAL.0>
17.5233

>  <SCORE.INTRA.POLAR>
0

>  <SCORE.INTRA.POLAR.0>
0

>  <SCORE.INTRA.REPUL>
0

>  <SCORE.INTRA.REPUL.0>
0

>  <SCORE.INTRA.SOLV>
0.725256

>  <SCORE.INTRA.SOLV.lig_0>
-46.1043

>  <SCORE.INTRA.VDW>
0.766305

>  <SCORE.INTRA.VDW.0>
-0.545445

>  <SCORE.INTRA.norm>
-0.427142

>  <SCORE.RESTR>
0

>  <SCORE.RESTR.CAVITY>
0

>  <SCORE.RESTR.norm>
0

>  <SCORE.SYSTEM>
0

>  <SCORE.SYSTEM.CONST>
0

>  <SCORE.SYSTEM.DIHEDRAL>
0

>  <SCORE.SYSTEM.SOLV>
0

>  <SCORE.SYSTEM.norm>
0

>  <SCORE.heavy>
14

>  <SCORE.norm>
-0.477167

>  <RMSD>
32.909

$$$$
ligand
 OpenBabel11021811513D
libRbt.so/2013.1/901 2013/11/27
 14 13  0  0  0  0  0  0  0  0999 V2000
   36.5203   73.3336   13.7091 N   0  0  0  0  0  0  0  0  0  0  0  0
   36.4334   72.8265   15.0690 C   0  0  0  0  0  0  0  0  0  0  0  0
   37.0847   71.4508   15.1645 C   0  0  0  0  0  0  0  0  0  0  0  0
   36.3274   70.4245   14.3293 C   0  0  0  0  0  0  0  0  0  0  0  0
   34.9799   70.1684   14.8292 N   0  0  0  0  0  0  0  0  0  0  0  0
   34.0093   69.4590   14.0127 C   0  0  0  0  0  0  0  0  0  0  0  0
   32.5787   69.6308   14.5113 C   0  0  0  0  0  0  0  0  0  0  0  0
   31.5986   69.0645   13.4900 C   0  0  0  0  0  0  0  0  0  0  0  0
   30.1677   69.3038   13.9595 C   0  0  0  0  0  0  0  0  0  0  0  0
   29.8970   70.7125   14.1898 N   0  0  0  0  0  0  0  0  0  0  0  0
   28.9988   71.1019   15.2688 C   0  0  0  0  0  0  0  0  0  0  0  0
   27.5130   70.9962   14.9320 C   0  0  0  0  0  0  0  0  0  0  0  0
   26.6605   71.5733   16.0634 C   0  0  0  0  0  0  0  0  0  0  0  0
   25.2511   71.5025   15.7171 N   0  0  0  0  0  0  0  0  0  0  0  0
  1  2  1  0  0  0  0
  2  3  1  0  0  0  0
  3  4  1  0  0  0  0
  4  5  1  0  0  0  0
  5  6  1  0  0  0  0
  6  7  1  0  0  0  0
  7  8  1  0  0  0  0
  8  9  1  0  0  0  0
  9 10  1  0  0  0  0
 10 11  1  0  0  0  0
 11 12  1  0  0  0  0
 12 13  1  0  0  0  0
 13 14  1  0  0  0  0
M  END
>  <CHROM.1>
-64.71863702,-65.60848189,166.24656069,-163.55660691,170.54835813,-177.06765846
57.07598834,-145.33400854,-80.81912548,-173.58964944,178.39657599,32.00159483
70.82463456,14.66041903,0.01923492,0.09456874,0.33696436

>  <Name>
ligand

>  <RI>
0

>  <Rbt.Current_Directory>
/home/itssahil/PROJECTS/Mol_Feturizer/New_Systems/rnas/4P5J

>  <Rbt.Executable>
rbdock ($Id: //depot/dev/client3/rdock/2013.1/src/exe/rbdock.cxx#4 $)

>  <Rbt.Library>
libRbt.so (2013.1, Build901 2013/11/27)

>  <Rbt.Parameter_File>
/export/apps/rDock/src/rDock_2013.1_src/data/scripts/dock_solv.prm

>  <Rbt.Receptor>
prm/blind_docking_100.prm

>  <SCORE>
-8.94979

>  <SCORE.INTER>
-0.746769

>  <SCORE.INTER.CONST>
1

>  <SCORE.INTER.POLAR>
0

>  <SCORE.INTER.ROT>
11

>  <SCORE.INTER.SOLV>
10.9543

>  <SCORE.INTER.VDW>
-15.0826

>  <SCORE.INTER.norm>
-0.0533407

>  <SCORE.INTRA>
-8.20302

>  <SCORE.INTRA.DIHEDRAL>
-15.3325

>  <SCORE.INTRA.DIHEDRAL.0>
17.5233

>  <SCORE.INTRA.POLAR>
0

>  <SCORE.INTRA.POLAR.0>
0

>  <SCORE.INTRA.REPUL>
0

>  <SCORE.INTRA.REPUL.0>
0

>  <SCORE.INTRA.SOLV>
-0.491973

>  <SCORE.INTRA.SOLV.lig_0>
-46.1043

>  <SCORE.INTRA.VDW>
-0.290768

>  <SCORE.INTRA.VDW.0>
-0.545445

>  <SCORE.INTRA.norm>
-0.58593

>  <SCORE.RESTR>
0

>  <SCORE.RESTR.CAVITY>
0

>  <SCORE.RESTR.norm>
0

>  <SCORE.SYSTEM>
0

>  <SCORE.SYSTEM.CONST>
0

>  <SCORE.SYSTEM.DIHEDRAL>
0

>  <SCORE.SYSTEM.SOLV>
0

>  <SCORE.SYSTEM.norm>
0

>  <SCORE.heavy>
14

>  <SCORE.norm>
-0.639271

>  <RMSD>
32.937

$$$$
ligand
 OpenBabel11021811513D
libRbt.so/2013.1/901 2013/11/27
 14 13  0  0  0  0  0  0  0  0999 V2000
   36.6194   73.4311   14.2245 N   0  0  0  0  0  0  0  0  0  0  0  0
   36.1491   72.4698   13.2403 C   0  0  0  0  0  0  0  0  0  0  0  0
   36.6284   71.0670   13.5982 C   0  0  0  0  0  0  0  0  0  0  0  0
   35.9533   70.5623   14.8685 C   0  0  0  0  0  0  0  0  0  0  0  0
   34.5207   70.3377   14.6995 N   0  0  0  0  0  0  0  0  0  0  0  0
   34.0308   69.1269   14.0624 C   0  0  0  0  0  0  0  0  0  0  0  0
   32.5169   68.9763   14.1634 C   0  0  0  0  0  0  0  0  0  0  0  0
   31.8283   70.1082   13.4091 C   0  0  0  0  0  0  0  0  0  0  0  0
   30.3170   69.9978   13.5790 C   0  0  0  0  0  0  0  0  0  0  0  0
   29.9134   70.1203   14.9691 N   0  0  0  0  0  0  0  0  0  0  0  0
   28.9479   71.1438   15.3468 C   0  0  0  0  0  0  0  0  0  0  0  0
   27.4866   70.7118   15.2443 C   0  0  0  0  0  0  0  0  0  0  0  0
   26.5616   71.8030   15.7860 C   0  0  0  0  0  0  0  0  0  0  0  0
   25.1759   71.3739   15.7034 N   0  0  0  0  0  0  0  0  0  0  0  0
  1  2  1  0  0  0  0
  2  3  1  0  0  0  0
  3  4  1  0  0  0  0
  4  5  1  0  0  0  0
  5  6  1  0  0  0  0
  6  7  1  0  0  0  0
  7  8  1  0  0  0  0
  8  9  1  0  0  0  0
  9 10  1  0  0  0  0
 10 11  1  0  0  0  0
 11 12  1  0  0  0  0
 12 13  1  0  0  0  0
 13 14  1  0  0  0  0
M  END
>  <CHROM.1>
68.01092376,67.09442127,79.93852223,171.42889367,63.80696397,-176.82204862
61.75030875,123.90096668,87.99244767,174.60617076,-179.10373241,31.90367135
70.80193176,14.49230338,0.00802618,0.15725793,0.17205750

>  <Name>
ligand

>  <RI>
0

>  <Rbt.Current_Directory>
/home/itssahil/PROJECTS/Mol_Feturizer/New_Systems/rnas/4P5J

>  <Rbt.Executable>
rbdock ($Id: //depot/dev/client3/rdock/2013.1/src/exe/rbdock.cxx#4 $)

>  <Rbt.Library>
libRbt.so (2013.1, Build901 2013/11/27)

>  <Rbt.Parameter_File>
/export/apps/rDock/src/rDock_2013.1_src/data/scripts/dock_solv.prm

>  <Rbt.Receptor>
prm/blind_docking_100.prm

>  <SCORE>
-7.06667

>  <SCORE.INTER>
0.705031

>  <SCORE.INTER.CONST>
1

>  <SCORE.INTER.POLAR>
0

>  <SCORE.INTER.ROT>
11

>  <SCORE.INTER.SOLV>
10.2

>  <SCORE.INTER.VDW>
-13.8633

>  <SCORE.INTER.norm>
0.0503594

>  <SCORE.INTRA>
-7.7717

>  <SCORE.INTRA.DIHEDRAL>
-14.7926

>  <SCORE.INTRA.DIHEDRAL.0>
17.5233

>  <SCORE.INTRA.POLAR>
0

>  <SCORE.INTRA.POLAR.0>
0

>  <SCORE.INTRA.REPUL>
0

>  <SCORE.INTRA.REPUL.0>
0

>  <SCORE.INTRA.SOLV>
-0.293829

>  <SCORE.INTRA.SOLV.lig_0>
-46.1043

>  <SCORE.INTRA.VDW>
-0.22849

>  <SCORE.INTRA.VDW.0>
-0.545445

>  <SCORE.INTRA.norm>
-0.555121

>  <SCORE.RESTR>
0

>  <SCORE.RESTR.CAVITY>
0

>  <SCORE.RESTR.norm>
0

>  <SCORE.SYSTEM>
0

>  <SCORE.SYSTEM.CONST>
0

>  <SCORE.SYSTEM.DIHEDRAL>
0

>  <SCORE.SYSTEM.SOLV>
0

>  <SCORE.SYSTEM.norm>
0

>  <SCORE.heavy>
14

>  <SCORE.norm>
-0.504762

>  <RMSD>
33.028

$$$$
ligand
 OpenBabel11021811513D
libRbt.so/2013.1/901 2013/11/27
 14 13  0  0  0  0  0  0  0  0999 V2000
   24.8296   71.4593   15.0868 N   0  0  0  0  0  0  0  0  0  0  0  0
   26.1236   71.6560   15.7199 C   0  0  0  0  0  0  0  0  0  0  0  0
   27.2340   71.0802   14.8474 C   0  0  0  0  0  0  0  0  0  0  0  0
   28.5944   71.2283   15.5192 C   0  0  0  0  0  0  0  0  0  0  0  0
   29.6933   70.7434   14.6895 N   0  0  0  0  0  0  0  0  0  0  0  0
   31.0366   70.6287   15.2321 C   0  0  0  0  0  0  0  0  0  0  0  0
   32.0345   70.0643   14.2269 C   0  0  0  0  0  0  0  0  0  0  0  0
   33.3411   69.7132   14.9296 C   0  0  0  0  0  0  0  0  0  0  0  0
   34.4135   69.3902   13.8948 C   0  0  0  0  0  0  0  0  0  0  0  0
   34.1087   68.1793   13.1523 N   0  0  0  0  0  0  0  0  0  0  0  0
   35.1239   67.5967   12.2848 C   0  0  0  0  0  0  0  0  0  0  0  0
   35.2105   68.2220   10.8942 C   0  0  0  0  0  0  0  0  0  0  0  0
   35.7509   69.6506   10.9771 C   0  0  0  0  0  0  0  0  0  0  0  0
   35.8202   70.2396    9.6507 N   0  0  0  0  0  0  0  0  0  0  0  0
  1  2  1  0  0  0  0
  2  3  1  0  0  0  0
  3  4  1  0  0  0  0
  4  5  1  0  0  0  0
  5  6  1  0  0  0  0
  6  7  1  0  0  0  0
  7  8  1  0  0  0  0
  8  9  1  0  0  0  0
  9 10  1  0  0  0  0
 10 11  1  0  0  0  0
 11 12  1  0  0  0  0
 12 13  1  0  0  0  0
 13 14  1  0  0  0  0
M  END
>  <CHROM.1>
-177.80091711,-177.40316750,-171.29498057,178.21558358,-168.84718922,-169.82290201
-66.28752425,-169.72921722,-83.23012260,68.81043785,-179.58573165,31.66557251
69.98934965,13.65059062,2.79542322,-0.34287024,1.75250480

>  <Name>
ligand

>  <RI>
0

>  <Rbt.Current_Directory>
/home/itssahil/PROJECTS/Mol_Feturizer/New_Systems/rnas/4P5J

>  <Rbt.Executable>
rbdock ($Id: //depot/dev/client3/rdock/2013.1/src/exe/rbdock.cxx#4 $)

>  <Rbt.Library>
libRbt.so (2013.1, Build901 2013/11/27)

>  <Rbt.Parameter_File>
/export/apps/rDock/src/rDock_2013.1_src/data/scripts/dock_solv.prm

>  <Rbt.Receptor>
prm/blind_docking_100.prm

>  <SCORE>
-8.01028

>  <SCORE.INTER>
1.13785

>  <SCORE.INTER.CONST>
1

>  <SCORE.INTER.POLAR>
0

>  <SCORE.INTER.ROT>
11

>  <SCORE.INTER.SOLV>
8.97498

>  <SCORE.INTER.VDW>
-13.1664

>  <SCORE.INTER.norm>
0.0812753

>  <SCORE.INTRA>
-9.14814

>  <SCORE.INTRA.DIHEDRAL>
-15.6202

>  <SCORE.INTRA.DIHEDRAL.0>
17.5233

>  <SCORE.INTRA.POLAR>
0

>  <SCORE.INTRA.POLAR.0>
0

>  <SCORE.INTRA.REPUL>
0

>  <SCORE.INTRA.REPUL.0>
0

>  <SCORE.INTRA.SOLV>
-1.937

>  <SCORE.INTRA.SOLV.lig_0>
-46.1043

>  <SCORE.INTRA.VDW>
-0.369525

>  <SCORE.INTRA.VDW.0>
-0.545445

>  <SCORE.INTRA.norm>
-0.653438

>  <SCORE.RESTR>
0

>  <SCORE.RESTR.CAVITY>
0

>  <SCORE.RESTR.norm>
0

>  <SCORE.SYSTEM>
0

>  <SCORE.SYSTEM.CONST>
0

>  <SCORE.SYSTEM.DIHEDRAL>
0

>  <SCORE.SYSTEM.SOLV>
0

>  <SCORE.SYSTEM.norm>
0

>  <SCORE.heavy>
14

>  <SCORE.norm>
-0.572163

>  <RMSD>
33.057

$$$$
ligand
 OpenBabel11021811513D
libRbt.so/2013.1/901 2013/11/27
 14 13  0  0  0  0  0  0  0  0999 V2000
   21.3006   70.0793   14.5601 N   0  0  0  0  0  0  0  0  0  0  0  0
   21.9341   71.2656   14.0076 C   0  0  0  0  0  0  0  0  0  0  0  0
   22.0450   72.3520   15.0721 C   0  0  0  0  0  0  0  0  0  0  0  0
   23.0222   71.9484   16.1705 C   0  0  0  0  0  0  0  0  0  0  0  0
   24.4059   71.8958   15.7084 N   0  0  0  0  0  0  0  0  0  0  0  0
   25.1367   70.6397   15.6992 C   0  0  0  0  0  0  0  0  0  0  0  0
   26.5847   70.8010   15.2497 C   0  0  0  0  0  0  0  0  0  0  0  0
   27.2621   69.4374   15.1724 C   0  0  0  0  0  0  0  0  0  0  0  0
   28.7221   69.6082   14.7669 C   0  0  0  0  0  0  0  0  0  0  0  0
   29.4433   70.4804   15.6778 N   0  0  0  0  0  0  0  0  0  0  0  0
   30.8138   70.8646   15.3668 C   0  0  0  0  0  0  0  0  0  0  0  0
   30.9794   72.3042   14.8847 C   0  0  0  0  0  0  0  0  0  0  0  0
   30.2031   72.5317   13.5866 C   0  0  0  0  0  0  0  0  0  0  0  0
   30.8222   71.7985   12.4955 N   0  0  0  0  0  0  0  0  0  0  0  0
  1  2  1  0  0  0  0
  2  3  1  0  0  0  0
  3  4  1  0  0  0  0
  4  5  1  0  0  0  0
  5  6  1  0  0  0  0
  6  7  1  0  0  0  0
  7  8  1  0  0  0  0
  8  9  1  0  0  0  0
  9 10  1  0  0  0  0
 10 11  1  0  0  0  0
 11 12  1  0  0  0  0
 12 13  1  0  0  0  0
 13 14  1  0  0  0  0
M  END
>  <CHROM.1>
67.40419028,68.26977174,-116.07123922,-177.13357997,-176.16157408,-178.15116119
56.95579272,-173.76103767,105.87591463,-61.57245212,-69.00174216,26.61971365
71.14337095,14.88713971,-3.08934866,0.06438298,-0.57595504

>  <Name>
ligand

>  <RI>
0

>  <Rbt.Current_Directory>
/home/itssahil/PROJECTS/Mol_Feturizer/New_Systems/rnas/4P5J

>  <Rbt.Executable>
rbdock ($Id: //depot/dev/client3/rdock/2013.1/src/exe/rbdock.cxx#4 $)

>  <Rbt.Library>
libRbt.so (2013.1, Build901 2013/11/27)

>  <Rbt.Parameter_File>
/export/apps/rDock/src/rDock_2013.1_src/data/scripts/dock_solv.prm

>  <Rbt.Receptor>
prm/blind_docking_100.prm

>  <SCORE>
-8.23711

>  <SCORE.INTER>
-1.51266

>  <SCORE.INTER.CONST>
1

>  <SCORE.INTER.POLAR>
0

>  <SCORE.INTER.ROT>
11

>  <SCORE.INTER.SOLV>
8.87196

>  <SCORE.INTER.VDW>
-14.8991

>  <SCORE.INTER.norm>
-0.108047

>  <SCORE.INTRA>
-6.72445

>  <SCORE.INTRA.DIHEDRAL>
-14.3795

>  <SCORE.INTRA.DIHEDRAL.0>
17.5233

>  <SCORE.INTRA.POLAR>
0

>  <SCORE.INTRA.POLAR.0>
0

>  <SCORE.INTRA.REPUL>
0

>  <SCORE.INTRA.REPUL.0>
0

>  <SCORE.INTRA.SOLV>
2.1468

>  <SCORE.INTRA.SOLV.lig_0>
-46.1043

>  <SCORE.INTRA.VDW>
-0.608112

>  <SCORE.INTRA.VDW.0>
-0.545445

>  <SCORE.INTRA.norm>
-0.480318

>  <SCORE.RESTR>
0

>  <SCORE.RESTR.CAVITY>
0

>  <SCORE.RESTR.norm>
0

>  <SCORE.SYSTEM>
0

>  <SCORE.SYSTEM.CONST>
0

>  <SCORE.SYSTEM.DIHEDRAL>
0

>  <SCORE.SYSTEM.SOLV>
0

>  <SCORE.SYSTEM.norm>
0

>  <SCORE.heavy>
14

>  <SCORE.norm>
-0.588365

>  <RMSD>
33.074

$$$$
ligand
 OpenBabel11021811513D
libRbt.so/2013.1/901 2013/11/27
 14 13  0  0  0  0  0  0  0  0999 V2000
   33.1799   70.2047   13.5935 N   0  0  0  0  0  0  0  0  0  0  0  0
   31.9302   69.8585   14.2510 C   0  0  0  0  0  0  0  0  0  0  0  0
   31.2371   71.1149   14.7677 C   0  0  0  0  0  0  0  0  0  0  0  0
   29.9435   70.7692   15.4966 C   0  0  0  0  0  0  0  0  0  0  0  0
   28.9422   70.1668   14.6216 N   0  0  0  0  0  0  0  0  0  0  0  0
   27.9651   69.2294   15.1492 C   0  0  0  0  0  0  0  0  0  0  0  0
   26.5282   69.7024   14.9578 C   0  0  0  0  0  0  0  0  0  0  0  0
   26.3074   71.0149   15.7014 C   0  0  0  0  0  0  0  0  0  0  0  0
   24.8240   71.3678   15.6968 C   0  0  0  0  0  0  0  0  0  0  0  0
   24.3050   71.5281   14.3494 N   0  0  0  0  0  0  0  0  0  0  0  0
   22.9352   71.9866   14.1595 C   0  0  0  0  0  0  0  0  0  0  0  0
   22.0011   70.9603   13.5220 C   0  0  0  0  0  0  0  0  0  0  0  0
   22.5056   70.5593   12.1347 C   0  0  0  0  0  0  0  0  0  0  0  0
   21.5844   69.6208   11.5168 N   0  0  0  0  0  0  0  0  0  0  0  0
  1  2  1  0  0  0  0
  2  3  1  0  0  0  0
  3  4  1  0  0  0  0
  4  5  1  0  0  0  0
  5  6  1  0  0  0  0
  6  7  1  0  0  0  0
  7  8  1  0  0  0  0
  8  9  1  0  0  0  0
  9 10  1  0  0  0  0
 10 11  1  0  0  0  0
 11 12  1  0  0  0  0
 12 13  1  0  0  0  0
 13 14  1  0  0  0  0
M  END
>  <CHROM.1>
-178.35396398,-64.36081343,150.83709136,119.94305044,-61.47096584,-170.92284662
-60.22831304,-174.39004889,-114.34489401,-60.23049428,-177.89564266,26.72766240
70.57746851,14.28015470,-0.11285634,0.11144960,-1.97343088

>  <Name>
ligand

>  <RI>
0

>  <Rbt.Current_Directory>
/home/itssahil/PROJECTS/Mol_Feturizer/New_Systems/rnas/4P5J

>  <Rbt.Executable>
rbdock ($Id: //depot/dev/client3/rdock/2013.1/src/exe/rbdock.cxx#4 $)

>  <Rbt.Library>
libRbt.so (2013.1, Build901 2013/11/27)

>  <Rbt.Parameter_File>
/export/apps/rDock/src/rDock_2013.1_src/data/scripts/dock_solv.prm

>  <Rbt.Receptor>
prm/blind_docking_100.prm

>  <SCORE>
-7.5855

>  <SCORE.INTER>
0.580255

>  <SCORE.INTER.CONST>
1

>  <SCORE.INTER.POLAR>
0

>  <SCORE.INTER.ROT>
11

>  <SCORE.INTER.SOLV>
5.03764

>  <SCORE.INTER.VDW>
-12.2257

>  <SCORE.INTER.norm>
0.0414468

>  <SCORE.INTRA>
-8.16575

>  <SCORE.INTRA.DIHEDRAL>
-14.1036

>  <SCORE.INTRA.DIHEDRAL.0>
17.5233

>  <SCORE.INTRA.POLAR>
0

>  <SCORE.INTRA.POLAR.0>
0

>  <SCORE.INTRA.REPUL>
0

>  <SCORE.INTRA.REPUL.0>
0

>  <SCORE.INTRA.SOLV>
-1.22098

>  <SCORE.INTRA.SOLV.lig_0>
-46.1043

>  <SCORE.INTRA.VDW>
-0.503441

>  <SCORE.INTRA.VDW.0>
-0.545445

>  <SCORE.INTRA.norm>
-0.583268

>  <SCORE.RESTR>
0

>  <SCORE.RESTR.CAVITY>
0

>  <SCORE.RESTR.norm>
0

>  <SCORE.SYSTEM>
0

>  <SCORE.SYSTEM.CONST>
0

>  <SCORE.SYSTEM.DIHEDRAL>
0

>  <SCORE.SYSTEM.SOLV>
0

>  <SCORE.SYSTEM.norm>
0

>  <SCORE.heavy>
14

>  <SCORE.norm>
-0.541821

>  <RMSD>
33.152

$$$$
ligand
 OpenBabel11021811513D
libRbt.so/2013.1/901 2013/11/27
 14 13  0  0  0  0  0  0  0  0999 V2000
   26.9705   72.2767   12.9914 N   0  0  0  0  0  0  0  0  0  0  0  0
   26.0726   72.6406   14.0755 C   0  0  0  0  0  0  0  0  0  0  0  0
   26.1207   71.5894   15.1794 C   0  0  0  0  0  0  0  0  0  0  0  0
   27.4359   71.6579   15.9474 C   0  0  0  0  0  0  0  0  0  0  0  0
   28.5755   71.1890   15.1648 N   0  0  0  0  0  0  0  0  0  0  0  0
   29.8901   71.0649   15.7716 C   0  0  0  0  0  0  0  0  0  0  0  0
   30.9903   71.7119   14.9374 C   0  0  0  0  0  0  0  0  0  0  0  0
   31.2836   70.8587   13.7085 C   0  0  0  0  0  0  0  0  0  0  0  0
   32.1219   69.6491   14.1076 C   0  0  0  0  0  0  0  0  0  0  0  0
   32.4755   68.8280   12.9625 N   0  0  0  0  0  0  0  0  0  0  0  0
   33.8049   68.2366   12.8888 C   0  0  0  0  0  0  0  0  0  0  0  0
   34.7706   68.9520   11.9465 C   0  0  0  0  0  0  0  0  0  0  0  0
   36.0900   68.1852   11.8411 C   0  0  0  0  0  0  0  0  0  0  0  0
   37.0198   68.9002   10.9836 N   0  0  0  0  0  0  0  0  0  0  0  0
  1  2  1  0  0  0  0
  2  3  1  0  0  0  0
  3  4  1  0  0  0  0
  4  5  1  0  0  0  0
  5  6  1  0  0  0  0
  6  7  1  0  0  0  0
  7  8  1  0  0  0  0
  8  9  1  0  0  0  0
  9 10  1  0  0  0  0
 10 11  1  0  0  0  0
 11 12  1  0  0  0  0
 12 13  1  0  0  0  0
 13 14  1  0  0  0  0
M  END
>  <CHROM.1>
71.91992864,-70.80994203,-174.29047264,-131.21848435,-73.38649896,-76.98639261
-177.72682503,140.83914742,-102.41014605,-174.81338161,-177.81046846,30.97289190
70.41006456,13.75073729,2.85513208,-0.39529489,1.63072764

>  <Name>
ligand

>  <RI>
0

>  <Rbt.Current_Directory>
/home/itssahil/PROJECTS/Mol_Feturizer/New_Systems/rnas/4P5J

>  <Rbt.Executable>
rbdock ($Id: //depot/dev/client3/rdock/2013.1/src/exe/rbdock.cxx#4 $)

>  <Rbt.Library>
libRbt.so (2013.1, Build901 2013/11/27)

>  <Rbt.Parameter_File>
/export/apps/rDock/src/rDock_2013.1_src/data/scripts/dock_solv.prm

>  <Rbt.Receptor>
prm/blind_docking_100.prm

>  <SCORE>
-4.86934

>  <SCORE.INTER>
1.00992

>  <SCORE.INTER.CONST>
1

>  <SCORE.INTER.POLAR>
0

>  <SCORE.INTER.ROT>
11

>  <SCORE.INTER.SOLV>
6.04437

>  <SCORE.INTER.VDW>
-12.2748

>  <SCORE.INTER.norm>
0.0721369

>  <SCORE.INTRA>
-5.87926

>  <SCORE.INTRA.DIHEDRAL>
-11.6845

>  <SCORE.INTRA.DIHEDRAL.0>
17.5233

>  <SCORE.INTRA.POLAR>
0

>  <SCORE.INTRA.POLAR.0>
0

>  <SCORE.INTRA.REPUL>
0

>  <SCORE.INTRA.REPUL.0>
0

>  <SCORE.INTRA.SOLV>
0.783277

>  <SCORE.INTRA.SOLV.lig_0>
-46.1043

>  <SCORE.INTRA.VDW>
-0.42863

>  <SCORE.INTRA.VDW.0>
-0.545445

>  <SCORE.INTRA.norm>
-0.419947

>  <SCORE.RESTR>
0

>  <SCORE.RESTR.CAVITY>
0

>  <SCORE.RESTR.norm>
0

>  <SCORE.SYSTEM>
0

>  <SCORE.SYSTEM.CONST>
0

>  <SCORE.SYSTEM.DIHEDRAL>
0

>  <SCORE.SYSTEM.SOLV>
0

>  <SCORE.SYSTEM.norm>
0

>  <SCORE.heavy>
14

>  <SCORE.norm>
-0.34781

>  <RMSD>
33.170

$$$$
ligand
 OpenBabel11021811513D
libRbt.so/2013.1/901 2013/11/27
 14 13  0  0  0  0  0  0  0  0999 V2000
   30.9756   71.5994   14.5935 N   0  0  0  0  0  0  0  0  0  0  0  0
   30.2497   71.0771   15.7399 C   0  0  0  0  0  0  0  0  0  0  0  0
   29.0488   70.2581   15.2788 C   0  0  0  0  0  0  0  0  0  0  0  0
   27.9348   71.1597   14.7588 C   0  0  0  0  0  0  0  0  0  0  0  0
   27.2660   71.9059   15.8204 N   0  0  0  0  0  0  0  0  0  0  0  0
   25.8865   72.3364   15.6674 C   0  0  0  0  0  0  0  0  0  0  0  0
   24.8965   71.1776   15.7136 C   0  0  0  0  0  0  0  0  0  0  0  0
   23.4798   71.6920   15.4844 C   0  0  0  0  0  0  0  0  0  0  0  0
   22.4901   70.5352   15.5701 C   0  0  0  0  0  0  0  0  0  0  0  0
   22.8405   69.4492   14.6711 N   0  0  0  0  0  0  0  0  0  0  0  0
   22.4574   69.5294   13.2678 C   0  0  0  0  0  0  0  0  0  0  0  0
   22.8279   68.3048   12.4339 C   0  0  0  0  0  0  0  0  0  0  0  0
   22.4028   68.4949   10.9768 C   0  0  0  0  0  0  0  0  0  0  0  0
   20.9550   68.5713   10.8814 N   0  0  0  0  0  0  0  0  0  0  0  0
  1  2  1  0  0  0  0
  2  3  1  0  0  0  0
  3  4  1  0  0  0  0
  4  5  1  0  0  0  0
  5  6  1  0  0  0  0
  6  7  1  0  0  0  0
  7  8  1  0  0  0  0
  8  9  1  0  0  0  0
  9 10  1  0  0  0  0
 10 11  1  0  0  0  0
 11 12  1  0  0  0  0
 12 13  1  0  0  0  0
 13 14  1  0  0  0  0
M  END
>  <CHROM.1>
-73.92815778,-71.40682439,-153.04309762,70.34598952,-177.44635572,-178.43713951
-54.14868609,-82.16448784,-177.55382041,-179.19314073,-65.06273887,25.26499652
70.43509646,14.34714793,-0.46686649,-0.04822631,-2.15911225

>  <Name>
ligand

>  <RI>
0

>  <Rbt.Current_Directory>
/home/itssahil/PROJECTS/Mol_Feturizer/New_Systems/rnas/4P5J

>  <Rbt.Executable>
rbdock ($Id: //depot/dev/client3/rdock/2013.1/src/exe/rbdock.cxx#4 $)

>  <Rbt.Library>
libRbt.so (2013.1, Build901 2013/11/27)

>  <Rbt.Parameter_File>
/export/apps/rDock/src/rDock_2013.1_src/data/scripts/dock_solv.prm

>  <Rbt.Receptor>
prm/blind_docking_80.prm

>  <SCORE>
-8.51377

>  <SCORE.INTER>
-1.05532

>  <SCORE.INTER.CONST>
1

>  <SCORE.INTER.POLAR>
0

>  <SCORE.INTER.ROT>
11

>  <SCORE.INTER.SOLV>
8.92717

>  <SCORE.INTER.VDW>
-14.6126

>  <SCORE.INTER.norm>
-0.0753803

>  <SCORE.INTRA>
-7.45845

>  <SCORE.INTRA.DIHEDRAL>
-15.1249

>  <SCORE.INTRA.DIHEDRAL.0>
17.5233

>  <SCORE.INTRA.POLAR>
0

>  <SCORE.INTRA.POLAR.0>
0

>  <SCORE.INTRA.REPUL>
0

>  <SCORE.INTRA.REPUL.0>
0

>  <SCORE.INTRA.SOLV>
-0.108141

>  <SCORE.INTRA.SOLV.lig_0>
-46.1043

>  <SCORE.INTRA.VDW>
0.158074

>  <SCORE.INTRA.VDW.0>
-0.545445

>  <SCORE.INTRA.norm>
-0.532746

>  <SCORE.RESTR>
0

>  <SCORE.RESTR.CAVITY>
0

>  <SCORE.RESTR.norm>
0

>  <SCORE.SYSTEM>
0

>  <SCORE.SYSTEM.CONST>
0

>  <SCORE.SYSTEM.DIHEDRAL>
0

>  <SCORE.SYSTEM.SOLV>
0

>  <SCORE.SYSTEM.norm>
0

>  <SCORE.heavy>
14

>  <SCORE.norm>
-0.608127

>  <RMSD>
33.330

$$$$
ligand
 OpenBabel11021811513D
libRbt.so/2013.1/901 2013/11/27
 14 13  0  0  0  0  0  0  0  0999 V2000
   36.4687   69.9841    9.0418 N   0  0  0  0  0  0  0  0  0  0  0  0
   36.2733   69.6726   10.4484 C   0  0  0  0  0  0  0  0  0  0  0  0
   35.0463   68.7852   10.6296 C   0  0  0  0  0  0  0  0  0  0  0  0
   34.8244   68.4466   12.0994 C   0  0  0  0  0  0  0  0  0  0  0  0
   34.5481   69.6235   12.9178 N   0  0  0  0  0  0  0  0  0  0  0  0
   34.1224   69.4813   14.3000 C   0  0  0  0  0  0  0  0  0  0  0  0
   32.7083   68.9259   14.4292 C   0  0  0  0  0  0  0  0  0  0  0  0
   31.6935   69.9734   13.9849 C   0  0  0  0  0  0  0  0  0  0  0  0
   30.2923   69.3720   13.9953 C   0  0  0  0  0  0  0  0  0  0  0  0
   29.2604   70.3905   13.9040 N   0  0  0  0  0  0  0  0  0  0  0  0
   28.8246   71.0786   15.1120 C   0  0  0  0  0  0  0  0  0  0  0  0
   27.3187   71.0365   15.3626 C   0  0  0  0  0  0  0  0  0  0  0  0
   26.5636   71.7419   14.2348 C   0  0  0  0  0  0  0  0  0  0  0  0
   25.1315   71.6789   14.4725 N   0  0  0  0  0  0  0  0  0  0  0  0
  1  2  1  0  0  0  0
  2  3  1  0  0  0  0
  3  4  1  0  0  0  0
  4  5  1  0  0  0  0
  5  6  1  0  0  0  0
  6  7  1  0  0  0  0
  7  8  1  0  0  0  0
  8  9  1  0  0  0  0
  9 10  1  0  0  0  0
 10 11  1  0  0  0  0
 11 12  1  0  0  0  0
 12 13  1  0  0  0  0
 13 14  1  0  0  0  0
M  END
>  <CHROM.1>
179.97967833,62.95514803,171.11204231,-70.21237307,-70.98074636,174.88544619
165.85712009,-83.56433386,-126.02851479,-62.42555041,179.15490477,31.64842338
70.01347327,13.20971830,0.31711210,0.32315823,-1.28043565

>  <Name>
ligand

>  <RI>
0

>  <Rbt.Current_Directory>
/home/itssahil/PROJECTS/Mol_Feturizer/New_Systems/rnas/4P5J

>  <Rbt.Executable>
rbdock ($Id: //depot/dev/client3/rdock/2013.1/src/exe/rbdock.cxx#4 $)

>  <Rbt.Library>
libRbt.so (2013.1, Build901 2013/11/27)

>  <Rbt.Parameter_File>
/export/apps/rDock/src/rDock_2013.1_src/data/scripts/dock_solv.prm

>  <Rbt.Receptor>
prm/blind_docking_100.prm

>  <SCORE>
-6.21878

>  <SCORE.INTER>
2.03633

>  <SCORE.INTER.CONST>
1

>  <SCORE.INTER.POLAR>
0

>  <SCORE.INTER.ROT>
11

>  <SCORE.INTER.SOLV>
6.78036

>  <SCORE.INTER.VDW>
-11.8359

>  <SCORE.INTER.norm>
0.145452

>  <SCORE.INTRA>
-8.25512

>  <SCORE.INTRA.DIHEDRAL>
-14.4702

>  <SCORE.INTRA.DIHEDRAL.0>
17.5233

>  <SCORE.INTRA.POLAR>
0

>  <SCORE.INTRA.POLAR.0>
0

>  <SCORE.INTRA.REPUL>
0

>  <SCORE.INTRA.REPUL.0>
0

>  <SCORE.INTRA.SOLV>
-1.63369

>  <SCORE.INTRA.SOLV.lig_0>
-46.1043

>  <SCORE.INTRA.VDW>
-0.203163

>  <SCORE.INTRA.VDW.0>
-0.545445

>  <SCORE.INTRA.norm>
-0.589651

>  <SCORE.RESTR>
0

>  <SCORE.RESTR.CAVITY>
0

>  <SCORE.RESTR.norm>
0

>  <SCORE.SYSTEM>
0

>  <SCORE.SYSTEM.CONST>
0

>  <SCORE.SYSTEM.DIHEDRAL>
0

>  <SCORE.SYSTEM.SOLV>
0

>  <SCORE.SYSTEM.norm>
0

>  <SCORE.heavy>
14

>  <SCORE.norm>
-0.444199

>  <RMSD>
33.431

$$$$
ligand
 OpenBabel11021811513D
libRbt.so/2013.1/901 2013/11/27
 14 13  0  0  0  0  0  0  0  0999 V2000
   34.7491   73.8033   11.1562 N   0  0  0  0  0  0  0  0  0  0  0  0
   35.2616   72.4442   11.2210 C   0  0  0  0  0  0  0  0  0  0  0  0
   34.2101   71.5085   11.8082 C   0  0  0  0  0  0  0  0  0  0  0  0
   34.7276   70.0764   11.8815 C   0  0  0  0  0  0  0  0  0  0  0  0
   33.7301   69.1373   12.3857 N   0  0  0  0  0  0  0  0  0  0  0  0
   33.6861   68.7897   13.7961 C   0  0  0  0  0  0  0  0  0  0  0  0
   32.8563   69.7675   14.6207 C   0  0  0  0  0  0  0  0  0  0  0  0
   31.4057   69.7454   14.1521 C   0  0  0  0  0  0  0  0  0  0  0  0
   30.5728   70.6961   15.0051 C   0  0  0  0  0  0  0  0  0  0  0  0
   29.1646   70.6565   14.6504 N   0  0  0  0  0  0  0  0  0  0  0  0
   28.3376   69.5545   15.1240 C   0  0  0  0  0  0  0  0  0  0  0  0
   26.8366   69.7497   14.9211 C   0  0  0  0  0  0  0  0  0  0  0  0
   26.3368   70.9575   15.7156 C   0  0  0  0  0  0  0  0  0  0  0  0
   26.7932   72.1902   15.0964 N   0  0  0  0  0  0  0  0  0  0  0  0
  1  2  1  0  0  0  0
  2  3  1  0  0  0  0
  3  4  1  0  0  0  0
  4  5  1  0  0  0  0
  5  6  1  0  0  0  0
  6  7  1  0  0  0  0
  7  8  1  0  0  0  0
  8  9  1  0  0  0  0
  9 10  1  0  0  0  0
 10 11  1  0  0  0  0
 11 12  1  0  0  0  0
 12 13  1  0  0  0  0
 13 14  1  0  0  0  0
M  END
>  <CHROM.1>
179.86313771,-177.54999915,-94.54434643,86.26907498,62.57229899,178.44336675
-176.69602750,78.24660827,168.85498599,-62.64522066,72.37469937,31.33353999
70.64801898,13.68115888,0.23712353,0.37213022,-0.38658434

>  <Name>
ligand

>  <RI>
0

>  <Rbt.Current_Directory>
/home/itssahil/PROJECTS/Mol_Feturizer/New_Systems/rnas/4P5J

>  <Rbt.Executable>
rbdock ($Id: //depot/dev/client3/rdock/2013.1/src/exe/rbdock.cxx#4 $)

>  <Rbt.Library>
libRbt.so (2013.1, Build901 2013/11/27)

>  <Rbt.Parameter_File>
/export/apps/rDock/src/rDock_2013.1_src/data/scripts/dock_solv.prm

>  <Rbt.Receptor>
prm/blind_docking_100.prm

>  <SCORE>
-6.66421

>  <SCORE.INTER>
1.07883

>  <SCORE.INTER.CONST>
1

>  <SCORE.INTER.POLAR>
0

>  <SCORE.INTER.ROT>
11

>  <SCORE.INTER.SOLV>
6.39502

>  <SCORE.INTER.VDW>
-12.3458

>  <SCORE.INTER.norm>
0.0770596

>  <SCORE.INTRA>
-7.74305

>  <SCORE.INTRA.DIHEDRAL>
-15.2605

>  <SCORE.INTRA.DIHEDRAL.0>
17.5233

>  <SCORE.INTRA.POLAR>
0

>  <SCORE.INTRA.POLAR.0>
0

>  <SCORE.INTRA.REPUL>
0

>  <SCORE.INTRA.REPUL.0>
0

>  <SCORE.INTRA.SOLV>
0.607731

>  <SCORE.INTRA.SOLV.lig_0>
-46.1043

>  <SCORE.INTRA.VDW>
-0.41666

>  <SCORE.INTRA.VDW.0>
-0.545445

>  <SCORE.INTRA.norm>
-0.553075

>  <SCORE.RESTR>
0

>  <SCORE.RESTR.CAVITY>
0

>  <SCORE.RESTR.norm>
0

>  <SCORE.SYSTEM>
0

>  <SCORE.SYSTEM.CONST>
0

>  <SCORE.SYSTEM.DIHEDRAL>
0

>  <SCORE.SYSTEM.SOLV>
0

>  <SCORE.SYSTEM.norm>
0

>  <SCORE.heavy>
14

>  <SCORE.norm>
-0.476015

>  <RMSD>
33.530

$$$$
ligand
 OpenBabel11021811513D
libRbt.so/2013.1/901 2013/11/27
 14 13  0  0  0  0  0  0  0  0999 V2000
   28.3177   73.0414    9.8428 N   0  0  0  0  0  0  0  0  0  0  0  0
   28.6987   72.2642   11.0111 C   0  0  0  0  0  0  0  0  0  0  0  0
   29.9843   71.4907   10.7371 C   0  0  0  0  0  0  0  0  0  0  0  0
   30.3914   70.6548   11.9453 C   0  0  0  0  0  0  0  0  0  0  0  0
   30.6635   71.4637   13.1298 N   0  0  0  0  0  0  0  0  0  0  0  0
   30.9431   70.8334   14.4090 C   0  0  0  0  0  0  0  0  0  0  0  0
   29.6785   70.4945   15.1905 C   0  0  0  0  0  0  0  0  0  0  0  0
   28.9387   69.3460   14.5136 C   0  0  0  0  0  0  0  0  0  0  0  0
   27.5987   69.1166   15.2041 C   0  0  0  0  0  0  0  0  0  0  0  0
   26.6777   70.2193   14.9889 N   0  0  0  0  0  0  0  0  0  0  0  0
   26.5834   71.2782   15.9851 C   0  0  0  0  0  0  0  0  0  0  0  0
   25.5637   72.3686   15.6631 C   0  0  0  0  0  0  0  0  0  0  0  0
   24.1478   71.7908   15.6290 C   0  0  0  0  0  0  0  0  0  0  0  0
   24.0050   70.8759   14.5092 N   0  0  0  0  0  0  0  0  0  0  0  0
  1  2  1  0  0  0  0
  2  3  1  0  0  0  0
  3  4  1  0  0  0  0
  4  5  1  0  0  0  0
  5  6  1  0  0  0  0
  6  7  1  0  0  0  0
  7  8  1  0  0  0  0
  8  9  1  0  0  0  0
  9 10  1  0  0  0  0
 10 11  1  0  0  0  0
 11 12  1  0  0  0  0
 12 13  1  0  0  0  0
 13 14  1  0  0  0  0
M  END
>  <CHROM.1>
-179.28285363,-61.49700713,174.20543987,-85.68765833,70.41445787,-173.56210657
68.06746116,-95.15101636,-178.89353496,63.63631161,-66.95757032,28.01397908
71.08829403,13.76874396,0.62943309,0.27190382,-1.11353073

>  <Name>
ligand

>  <RI>
0

>  <Rbt.Current_Directory>
/home/itssahil/PROJECTS/Mol_Feturizer/New_Systems/rnas/4P5J

>  <Rbt.Executable>
rbdock ($Id: //depot/dev/client3/rdock/2013.1/src/exe/rbdock.cxx#4 $)

>  <Rbt.Library>
libRbt.so (2013.1, Build901 2013/11/27)

>  <Rbt.Parameter_File>
/export/apps/rDock/src/rDock_2013.1_src/data/scripts/dock_solv.prm

>  <Rbt.Receptor>
prm/blind_docking_100.prm

>  <SCORE>
-7.23688

>  <SCORE.INTER>
-0.0122709

>  <SCORE.INTER.CONST>
1

>  <SCORE.INTER.POLAR>
0

>  <SCORE.INTER.ROT>
11

>  <SCORE.INTER.SOLV>
5.78003

>  <SCORE.INTER.VDW>
-12.8682

>  <SCORE.INTER.norm>
-0.000876493

>  <SCORE.INTRA>
-7.22461

>  <SCORE.INTRA.DIHEDRAL>
-15.2128

>  <SCORE.INTRA.DIHEDRAL.0>
17.5233

>  <SCORE.INTRA.POLAR>
0

>  <SCORE.INTRA.POLAR.0>
0

>  <SCORE.INTRA.REPUL>
0

>  <SCORE.INTRA.REPUL.0>
0

>  <SCORE.INTRA.SOLV>
1.451

>  <SCORE.INTRA.SOLV.lig_0>
-46.1043

>  <SCORE.INTRA.VDW>
-0.343696

>  <SCORE.INTRA.VDW.0>
-0.545445

>  <SCORE.INTRA.norm>
-0.516043

>  <SCORE.RESTR>
0

>  <SCORE.RESTR.CAVITY>
0

>  <SCORE.RESTR.norm>
0

>  <SCORE.SYSTEM>
0

>  <SCORE.SYSTEM.CONST>
0

>  <SCORE.SYSTEM.DIHEDRAL>
0

>  <SCORE.SYSTEM.SOLV>
0

>  <SCORE.SYSTEM.norm>
0

>  <SCORE.heavy>
14

>  <SCORE.norm>
-0.51692

>  <RMSD>
33.801

$$$$
ligand
 OpenBabel11021811513D
libRbt.so/2013.1/901 2013/11/27
 14 13  0  0  0  0  0  0  0  0999 V2000
   22.1671   71.2437   15.1234 N   0  0  0  0  0  0  0  0  0  0  0  0
   23.2809   71.8541   15.8310 C   0  0  0  0  0  0  0  0  0  0  0  0
   24.5946   71.5419   15.1222 C   0  0  0  0  0  0  0  0  0  0  0  0
   25.7598   72.2783   15.7737 C   0  0  0  0  0  0  0  0  0  0  0  0
   26.9940   72.1862   14.9994 N   0  0  0  0  0  0  0  0  0  0  0  0
   27.8731   71.0377   15.1406 C   0  0  0  0  0  0  0  0  0  0  0  0
   28.7991   70.8509   13.9437 C   0  0  0  0  0  0  0  0  0  0  0  0
   29.7564   69.6924   14.2003 C   0  0  0  0  0  0  0  0  0  0  0  0
   30.5275   69.3675   12.9256 C   0  0  0  0  0  0  0  0  0  0  0  0
   31.3783   70.4680   12.5066 N   0  0  0  0  0  0  0  0  0  0  0  0
   31.3074   70.9446   11.1317 C   0  0  0  0  0  0  0  0  0  0  0  0
   32.6621   71.1693   10.4633 C   0  0  0  0  0  0  0  0  0  0  0  0
   33.4412   69.8565   10.3669 C   0  0  0  0  0  0  0  0  0  0  0  0
   34.7747   70.1006    9.8441 N   0  0  0  0  0  0  0  0  0  0  0  0
  1  2  1  0  0  0  0
  2  3  1  0  0  0  0
  3  4  1  0  0  0  0
  4  5  1  0  0  0  0
  5  6  1  0  0  0  0
  6  7  1  0  0  0  0
  7  8  1  0  0  0  0
  8  9  1  0  0  0  0
  9 10  1  0  0  0  0
 10 11  1  0  0  0  0
 11 12  1  0  0  0  0
 12 13  1  0  0  0  0
 13 14  1  0  0  0  0
M  END
>  <CHROM.1>
174.75571222,-170.47176465,-84.48871004,158.89157800,176.05210898,171.13612623
63.88975639,-129.18688019,-134.21885043,62.41100410,-174.74273986,28.80829371
70.89936018,13.38385636,2.71976752,-0.28535909,1.83999137

>  <Name>
ligand

>  <RI>
0

>  <Rbt.Current_Directory>
/home/itssahil/PROJECTS/Mol_Feturizer/New_Systems/rnas/4P5J

>  <Rbt.Executable>
rbdock ($Id: //depot/dev/client3/rdock/2013.1/src/exe/rbdock.cxx#4 $)

>  <Rbt.Library>
libRbt.so (2013.1, Build901 2013/11/27)

>  <Rbt.Parameter_File>
/export/apps/rDock/src/rDock_2013.1_src/data/scripts/dock_solv.prm

>  <Rbt.Receptor>
prm/blind_docking_80.prm

>  <SCORE>
-6.48952

>  <SCORE.INTER>
1.86992

>  <SCORE.INTER.CONST>
1

>  <SCORE.INTER.POLAR>
0

>  <SCORE.INTER.ROT>
11

>  <SCORE.INTER.SOLV>
8.27352

>  <SCORE.INTER.VDW>
-12.4446

>  <SCORE.INTER.norm>
0.133565

>  <SCORE.INTRA>
-8.35944

>  <SCORE.INTRA.DIHEDRAL>
-13.585

>  <SCORE.INTRA.DIHEDRAL.0>
17.5233

>  <SCORE.INTRA.POLAR>
0

>  <SCORE.INTRA.POLAR.0>
0

>  <SCORE.INTRA.REPUL>
0

>  <SCORE.INTRA.REPUL.0>
0

>  <SCORE.INTRA.SOLV>
-1.9472

>  <SCORE.INTRA.SOLV.lig_0>
-46.1043

>  <SCORE.INTRA.VDW>
-0.593314

>  <SCORE.INTRA.VDW.0>
-0.545445

>  <SCORE.INTRA.norm>
-0.597103

>  <SCORE.RESTR>
0

>  <SCORE.RESTR.CAVITY>
0

>  <SCORE.RESTR.norm>
0

>  <SCORE.SYSTEM>
0

>  <SCORE.SYSTEM.CONST>
0

>  <SCORE.SYSTEM.DIHEDRAL>
0

>  <SCORE.SYSTEM.SOLV>
0

>  <SCORE.SYSTEM.norm>
0

>  <SCORE.heavy>
14

>  <SCORE.norm>
-0.463537

>  <RMSD>
33.839

$$$$
ligand
 OpenBabel11021811513D
libRbt.so/2013.1/901 2013/11/27
 14 13  0  0  0  0  0  0  0  0999 V2000
   22.1192   75.1039   11.6357 N   0  0  0  0  0  0  0  0  0  0  0  0
   21.8041   74.2457   12.7662 C   0  0  0  0  0  0  0  0  0  0  0  0
   22.4993   72.8965   12.6177 C   0  0  0  0  0  0  0  0  0  0  0  0
   22.1003   71.9455   13.7405 C   0  0  0  0  0  0  0  0  0  0  0  0
   22.5533   72.3951   15.0534 N   0  0  0  0  0  0  0  0  0  0  0  0
   23.2226   71.4778   15.9603 C   0  0  0  0  0  0  0  0  0  0  0  0
   24.6519   71.1617   15.5337 C   0  0  0  0  0  0  0  0  0  0  0  0
   25.5222   72.4070   15.6614 C   0  0  0  0  0  0  0  0  0  0  0  0
   26.9011   72.1363   15.0695 C   0  0  0  0  0  0  0  0  0  0  0  0
   27.6243   71.1191   15.8130 N   0  0  0  0  0  0  0  0  0  0  0  0
   28.5235   70.2179   15.1044 C   0  0  0  0  0  0  0  0  0  0  0  0
   29.9986   70.6081   15.1676 C   0  0  0  0  0  0  0  0  0  0  0  0
   30.2529   71.8894   14.3717 C   0  0  0  0  0  0  0  0  0  0  0  0
   31.6761   72.1787   14.3261 N   0  0  0  0  0  0  0  0  0  0  0  0
  1  2  1  0  0  0  0
  2  3  1  0  0  0  0
  3  4  1  0  0  0  0
  4  5  1  0  0  0  0
  5  6  1  0  0  0  0
  6  7  1  0  0  0  0
  7  8  1  0  0  0  0
  8  9  1  0  0  0  0
  9 10  1  0  0  0  0
 10 11  1  0  0  0  0
 11 12  1  0  0  0  0
 12 13  1  0  0  0  0
 13 14  1  0  0  0  0
M  END
>  <CHROM.1>
-175.82395027,-65.30493998,-132.40739653,73.71291614,67.36841092,-172.86233129
-64.72820847,146.37148736,98.55315118,-68.60575822,-174.33245694,25.67483166
72.12710503,14.48734527,-2.83260492,-0.05854973,2.28279716

>  <Name>
ligand

>  <RI>
0

>  <Rbt.Current_Directory>
/home/itssahil/PROJECTS/Mol_Feturizer/New_Systems/rnas/4P5J

>  <Rbt.Executable>
rbdock ($Id: //depot/dev/client3/rdock/2013.1/src/exe/rbdock.cxx#4 $)

>  <Rbt.Library>
libRbt.so (2013.1, Build901 2013/11/27)

>  <Rbt.Parameter_File>
/export/apps/rDock/src/rDock_2013.1_src/data/scripts/dock_solv.prm

>  <Rbt.Receptor>
prm/blind_docking_100.prm

>  <SCORE>
-8.41493

>  <SCORE.INTER>
-0.400265

>  <SCORE.INTER.CONST>
1

>  <SCORE.INTER.POLAR>
0

>  <SCORE.INTER.ROT>
11

>  <SCORE.INTER.SOLV>
8.7791

>  <SCORE.INTER.VDW>
-14.1265

>  <SCORE.INTER.norm>
-0.0285903

>  <SCORE.INTRA>
-8.01467

>  <SCORE.INTRA.DIHEDRAL>
-13.6584

>  <SCORE.INTRA.DIHEDRAL.0>
17.5233

>  <SCORE.INTRA.POLAR>
0

>  <SCORE.INTRA.POLAR.0>
0

>  <SCORE.INTRA.REPUL>
0

>  <SCORE.INTRA.REPUL.0>
0

>  <SCORE.INTRA.SOLV>
-1.33207

>  <SCORE.INTRA.SOLV.lig_0>
-46.1043

>  <SCORE.INTRA.VDW>
-0.519441

>  <SCORE.INTRA.VDW.0>
-0.545445

>  <SCORE.INTRA.norm>
-0.572476

>  <SCORE.RESTR>
0

>  <SCORE.RESTR.CAVITY>
0

>  <SCORE.RESTR.norm>
0

>  <SCORE.SYSTEM>
0

>  <SCORE.SYSTEM.CONST>
0

>  <SCORE.SYSTEM.DIHEDRAL>
0

>  <SCORE.SYSTEM.SOLV>
0

>  <SCORE.SYSTEM.norm>
0

>  <SCORE.heavy>
14

>  <SCORE.norm>
-0.601066

>  <RMSD>
34.083

$$$$
ligand
 OpenBabel11021811513D
libRbt.so/2013.1/901 2013/11/27
 14 13  0  0  0  0  0  0  0  0999 V2000
   38.6942   69.9433   12.2059 N   0  0  0  0  0  0  0  0  0  0  0  0
   37.3712   70.5344   12.3252 C   0  0  0  0  0  0  0  0  0  0  0  0
   37.1834   71.1384   13.7129 C   0  0  0  0  0  0  0  0  0  0  0  0
   35.7358   71.5603   13.9380 C   0  0  0  0  0  0  0  0  0  0  0  0
   35.2996   72.6064   13.0179 N   0  0  0  0  0  0  0  0  0  0  0  0
   35.6869   73.9906   13.2326 C   0  0  0  0  0  0  0  0  0  0  0  0
   35.1395   74.9306   12.1642 C   0  0  0  0  0  0  0  0  0  0  0  0
   35.7856   74.6231   10.8179 C   0  0  0  0  0  0  0  0  0  0  0  0
   34.9746   73.5587   10.0869 C   0  0  0  0  0  0  0  0  0  0  0  0
   33.6629   74.0448    9.6951 N   0  0  0  0  0  0  0  0  0  0  0  0
   32.6288   73.0904    9.3181 C   0  0  0  0  0  0  0  0  0  0  0  0
   31.3015   73.7193    8.8997 C   0  0  0  0  0  0  0  0  0  0  0  0
   30.6645   74.4667   10.0725 C   0  0  0  0  0  0  0  0  0  0  0  0
   30.3230   73.5366   11.1353 N   0  0  0  0  0  0  0  0  0  0  0  0
  1  2  1  0  0  0  0
  2  3  1  0  0  0  0
  3  4  1  0  0  0  0
  4  5  1  0  0  0  0
  5  6  1  0  0  0  0
  6  7  1  0  0  0  0
  7  8  1  0  0  0  0
  8  9  1  0  0  0  0
  9 10  1  0  0  0  0
 10 11  1  0  0  0  0
 11 12  1  0  0  0  0
 12 13  1  0  0  0  0
 13 14  1  0  0  0  0
M  END
>  <CHROM.1>
-170.79616053,-62.75878327,-77.91685975,179.75730558,-66.70963804,88.73810610
67.10100494,-163.59246712,-178.86196474,-64.15682231,-64.21207766,34.60373489
72.98187091,11.47300129,-0.11077864,0.61957420,-2.22496788

>  <Name>
ligand

>  <RI>
0

>  <Rbt.Current_Directory>
/home/itssahil/PROJECTS/Mol_Feturizer/New_Systems/rnas/4P5J

>  <Rbt.Executable>
rbdock ($Id: //depot/dev/client3/rdock/2013.1/src/exe/rbdock.cxx#4 $)

>  <Rbt.Library>
libRbt.so (2013.1, Build901 2013/11/27)

>  <Rbt.Parameter_File>
/export/apps/rDock/src/rDock_2013.1_src/data/scripts/dock_solv.prm

>  <Rbt.Receptor>
prm/blind_docking_100.prm

>  <SCORE>
-5.00851

>  <SCORE.INTER>
1.66568

>  <SCORE.INTER.CONST>
1

>  <SCORE.INTER.POLAR>
0

>  <SCORE.INTER.ROT>
11

>  <SCORE.INTER.SOLV>
4.49149

>  <SCORE.INTER.VDW>
-11.32

>  <SCORE.INTER.norm>
0.118977

>  <SCORE.INTRA>
-6.67418

>  <SCORE.INTRA.DIHEDRAL>
-13.3786

>  <SCORE.INTRA.DIHEDRAL.0>
17.5233

>  <SCORE.INTRA.POLAR>
0

>  <SCORE.INTRA.POLAR.0>
0

>  <SCORE.INTRA.REPUL>
0

>  <SCORE.INTRA.REPUL.0>
0

>  <SCORE.INTRA.SOLV>
0.918878

>  <SCORE.INTRA.SOLV.lig_0>
-46.1043

>  <SCORE.INTRA.VDW>
-0.444299

>  <SCORE.INTRA.VDW.0>
-0.545445

>  <SCORE.INTRA.norm>
-0.476727

>  <SCORE.RESTR>
0

>  <SCORE.RESTR.CAVITY>
0

>  <SCORE.RESTR.norm>
0

>  <SCORE.SYSTEM>
0

>  <SCORE.SYSTEM.CONST>
0

>  <SCORE.SYSTEM.DIHEDRAL>
0

>  <SCORE.SYSTEM.SOLV>
0

>  <SCORE.SYSTEM.norm>
0

>  <SCORE.heavy>
14

>  <SCORE.norm>
-0.35775

>  <RMSD>
36.861

$$$$
ligand
 OpenBabel11021811513D
libRbt.so/2013.1/901 2013/11/27
 14 13  0  0  0  0  0  0  0  0999 V2000
   26.7501   73.8454    9.4667 N   0  0  0  0  0  0  0  0  0  0  0  0
   27.7444   73.4364    8.4879 C   0  0  0  0  0  0  0  0  0  0  0  0
   28.7275   72.4508    9.1107 C   0  0  0  0  0  0  0  0  0  0  0  0
   29.5501   73.1144   10.2094 C   0  0  0  0  0  0  0  0  0  0  0  0
   30.4211   74.1725    9.7062 N   0  0  0  0  0  0  0  0  0  0  0  0
   31.4174   73.8896    8.6867 C   0  0  0  0  0  0  0  0  0  0  0  0
   32.5874   73.0671    9.2151 C   0  0  0  0  0  0  0  0  0  0  0  0
   33.5010   73.9443   10.0638 C   0  0  0  0  0  0  0  0  0  0  0  0
   34.7148   73.1400   10.5164 C   0  0  0  0  0  0  0  0  0  0  0  0
   34.3542   72.0846   11.4473 N   0  0  0  0  0  0  0  0  0  0  0  0
   34.4288   70.6945   11.0175 C   0  0  0  0  0  0  0  0  0  0  0  0
   33.6322   69.7164   11.8784 C   0  0  0  0  0  0  0  0  0  0  0  0
   34.1808   69.6829   13.3059 C   0  0  0  0  0  0  0  0  0  0  0  0
   33.4251   68.7400   14.1128 N   0  0  0  0  0  0  0  0  0  0  0  0
  1  2  1  0  0  0  0
  2  3  1  0  0  0  0
  3  4  1  0  0  0  0
  4  5  1  0  0  0  0
  5  6  1  0  0  0  0
  6  7  1  0  0  0  0
  7  8  1  0  0  0  0
  8  9  1  0  0  0  0
  9 10  1  0  0  0  0
 10 11  1  0  0  0  0
 11 12  1  0  0  0  0
 12 13  1  0  0  0  0
 13 14  1  0  0  0  0
M  END
>  <CHROM.1>
-65.38882660,-64.87195841,-58.11084467,-71.59609860,-74.97165127,-176.43900677
-67.23349674,109.68041561,-161.55585153,-63.17574556,-179.43076541,31.81701255
72.28424329,10.51577088,2.46112717,-0.08570557,-0.68013142

>  <Name>
ligand

>  <RI>
0

>  <Rbt.Current_Directory>
/home/itssahil/PROJECTS/Mol_Feturizer/New_Systems/rnas/4P5J

>  <Rbt.Executable>
rbdock ($Id: //depot/dev/client3/rdock/2013.1/src/exe/rbdock.cxx#4 $)

>  <Rbt.Library>
libRbt.so (2013.1, Build901 2013/11/27)

>  <Rbt.Parameter_File>
/export/apps/rDock/src/rDock_2013.1_src/data/scripts/dock_solv.prm

>  <Rbt.Receptor>
prm/blind_docking_100.prm

>  <SCORE>
-5.3156

>  <SCORE.INTER>
1.85824

>  <SCORE.INTER.CONST>
1

>  <SCORE.INTER.POLAR>
0

>  <SCORE.INTER.ROT>
11

>  <SCORE.INTER.SOLV>
8.63441

>  <SCORE.INTER.VDW>
-12.5726

>  <SCORE.INTER.norm>
0.132731

>  <SCORE.INTRA>
-7.17384

>  <SCORE.INTRA.DIHEDRAL>
-14.748

>  <SCORE.INTRA.DIHEDRAL.0>
17.5233

>  <SCORE.INTRA.POLAR>
0

>  <SCORE.INTRA.POLAR.0>
0

>  <SCORE.INTRA.REPUL>
0

>  <SCORE.INTRA.REPUL.0>
0

>  <SCORE.INTRA.SOLV>
-0.00117964

>  <SCORE.INTRA.SOLV.lig_0>
-46.1043

>  <SCORE.INTRA.VDW>
0.200751

>  <SCORE.INTRA.VDW.0>
-0.545445

>  <SCORE.INTRA.norm>
-0.512417

>  <SCORE.RESTR>
0

>  <SCORE.RESTR.CAVITY>
0

>  <SCORE.RESTR.norm>
0

>  <SCORE.SYSTEM>
0

>  <SCORE.SYSTEM.CONST>
0

>  <SCORE.SYSTEM.DIHEDRAL>
0

>  <SCORE.SYSTEM.SOLV>
0

>  <SCORE.SYSTEM.norm>
0

>  <SCORE.heavy>
14

>  <SCORE.norm>
-0.379686

>  <RMSD>
36.893

$$$$
ligand
 OpenBabel11021811513D
libRbt.so/2013.1/901 2013/11/27
 14 13  0  0  0  0  0  0  0  0999 V2000
   34.5355   69.7633   11.7446 N   0  0  0  0  0  0  0  0  0  0  0  0
   33.6083   69.9400   10.6387 C   0  0  0  0  0  0  0  0  0  0  0  0
   33.8313   71.2928    9.9709 C   0  0  0  0  0  0  0  0  0  0  0  0
   32.8796   71.4900    8.7963 C   0  0  0  0  0  0  0  0  0  0  0  0
   31.4810   71.5725    9.2063 N   0  0  0  0  0  0  0  0  0  0  0  0
   30.9511   72.7930    9.7907 C   0  0  0  0  0  0  0  0  0  0  0  0
   29.4443   72.7348   10.0170 C   0  0  0  0  0  0  0  0  0  0  0  0
   28.7180   72.6602    8.6786 C   0  0  0  0  0  0  0  0  0  0  0  0
   27.2109   72.7072    8.9055 C   0  0  0  0  0  0  0  0  0  0  0  0
   26.7253   71.5241    9.5947 N   0  0  0  0  0  0  0  0  0  0  0  0
   25.4611   71.5842   10.3163 C   0  0  0  0  0  0  0  0  0  0  0  0
   24.2227   71.6796    9.4278 C   0  0  0  0  0  0  0  0  0  0  0  0
   22.9645   71.8792   10.2745 C   0  0  0  0  0  0  0  0  0  0  0  0
   21.8106   72.0928    9.4177 N   0  0  0  0  0  0  0  0  0  0  0  0
  1  2  1  0  0  0  0
  2  3  1  0  0  0  0
  3  4  1  0  0  0  0
  4  5  1  0  0  0  0
  5  6  1  0  0  0  0
  6  7  1  0  0  0  0
  7  8  1  0  0  0  0
  8  9  1  0  0  0  0
  9 10  1  0  0  0  0
 10 11  1  0  0  0  0
 11 12  1  0  0  0  0
 12 13  1  0  0  0  0
 13 14  1  0  0  0  0
M  END
>  <CHROM.1>
179.27397419,65.71845764,77.47557661,173.95835006,-65.92826279,-175.79892384
-66.71884998,157.92992379,70.71934914,-174.28285004,174.72890904,28.84610295
71.69401939,9.76988911,0.11973607,-0.03334701,2.39135947

>  <Name>
ligand

>  <RI>
0

>  <Rbt.Current_Directory>
/home/itssahil/PROJECTS/Mol_Feturizer/New_Systems/rnas/4P5J

>  <Rbt.Executable>
rbdock ($Id: //depot/dev/client3/rdock/2013.1/src/exe/rbdock.cxx#4 $)

>  <Rbt.Library>
libRbt.so (2013.1, Build901 2013/11/27)

>  <Rbt.Parameter_File>
/export/apps/rDock/src/rDock_2013.1_src/data/scripts/dock_solv.prm

>  <Rbt.Receptor>
prm/blind_docking_100.prm

>  <SCORE>
-7.66489

>  <SCORE.INTER>
1.32682

>  <SCORE.INTER.CONST>
1

>  <SCORE.INTER.POLAR>
0

>  <SCORE.INTER.ROT>
11

>  <SCORE.INTER.SOLV>
8.8343

>  <SCORE.INTER.VDW>
-12.9935

>  <SCORE.INTER.norm>
0.0947732

>  <SCORE.INTRA>
-8.99172

>  <SCORE.INTRA.DIHEDRAL>
-16.0827

>  <SCORE.INTRA.DIHEDRAL.0>
17.5233

>  <SCORE.INTRA.POLAR>
0

>  <SCORE.INTRA.POLAR.0>
0

>  <SCORE.INTRA.REPUL>
0

>  <SCORE.INTRA.REPUL.0>
0

>  <SCORE.INTRA.SOLV>
-1.61343

>  <SCORE.INTRA.SOLV.lig_0>
-46.1043

>  <SCORE.INTRA.VDW>
-0.143655

>  <SCORE.INTRA.VDW.0>
-0.545445

>  <SCORE.INTRA.norm>
-0.642266

>  <SCORE.RESTR>
0

>  <SCORE.RESTR.CAVITY>
0

>  <SCORE.RESTR.norm>
0

>  <SCORE.SYSTEM>
0

>  <SCORE.SYSTEM.CONST>
0

>  <SCORE.SYSTEM.DIHEDRAL>
0

>  <SCORE.SYSTEM.SOLV>
0

>  <SCORE.SYSTEM.norm>
0

>  <SCORE.heavy>
14

>  <SCORE.norm>
-0.547492

>  <RMSD>
37.129

$$$$
ligand
 OpenBabel11021811513D
libRbt.so/2013.1/901 2013/11/27
 14 13  0  0  0  0  0  0  0  0999 V2000
   22.3647   70.0659   12.6444 N   0  0  0  0  0  0  0  0  0  0  0  0
   22.7920   69.6320   11.3242 C   0  0  0  0  0  0  0  0  0  0  0  0
   23.4217   70.7933   10.5623 C   0  0  0  0  0  0  0  0  0  0  0  0
   24.7581   71.1943   11.1769 C   0  0  0  0  0  0  0  0  0  0  0  0
   25.3673   72.3423   10.5119 N   0  0  0  0  0  0  0  0  0  0  0  0
   26.6406   72.2102    9.8241 C   0  0  0  0  0  0  0  0  0  0  0  0
   27.1133   73.5176    9.1980 C   0  0  0  0  0  0  0  0  0  0  0  0
   28.3988   73.2852    8.4121 C   0  0  0  0  0  0  0  0  0  0  0  0
   29.5787   73.1774    9.3720 C   0  0  0  0  0  0  0  0  0  0  0  0
   30.8475   73.4188    8.7069 N   0  0  0  0  0  0  0  0  0  0  0  0
   32.0857   73.0101    9.3569 C   0  0  0  0  0  0  0  0  0  0  0  0
   32.6024   71.6351    8.9389 C   0  0  0  0  0  0  0  0  0  0  0  0
   33.9543   71.3445    9.5930 C   0  0  0  0  0  0  0  0  0  0  0  0
   33.7935   71.1804   11.0277 N   0  0  0  0  0  0  0  0  0  0  0  0
  1  2  1  0  0  0  0
  2  3  1  0  0  0  0
  3  4  1  0  0  0  0
  4  5  1  0  0  0  0
  5  6  1  0  0  0  0
  6  7  1  0  0  0  0
  7  8  1  0  0  0  0
  8  9  1  0  0  0  0
  9 10  1  0  0  0  0
 10 11  1  0  0  0  0
 11 12  1  0  0  0  0
 12 13  1  0  0  0  0
 13 14  1  0  0  0  0
M  END
>  <CHROM.1>
69.06707537,-177.48543253,-116.61382176,-179.80933057,-175.98496921,-77.24515454
-160.09734930,-163.43465663,94.76980840,175.73054956,68.04864451,28.12276990
71.91487350,10.04610219,-2.90507999,0.05379411,-0.67177952

>  <Name>
ligand

>  <RI>
0

>  <Rbt.Current_Directory>
/home/itssahil/PROJECTS/Mol_Feturizer/New_Systems/rnas/4P5J

>  <Rbt.Executable>
rbdock ($Id: //depot/dev/client3/rdock/2013.1/src/exe/rbdock.cxx#4 $)

>  <Rbt.Library>
libRbt.so (2013.1, Build901 2013/11/27)

>  <Rbt.Parameter_File>
/export/apps/rDock/src/rDock_2013.1_src/data/scripts/dock_solv.prm

>  <Rbt.Receptor>
prm/blind_docking_100.prm

>  <SCORE>
-6.71385

>  <SCORE.INTER>
-0.0481831

>  <SCORE.INTER.CONST>
1

>  <SCORE.INTER.POLAR>
0

>  <SCORE.INTER.ROT>
11

>  <SCORE.INTER.SOLV>
5.5725

>  <SCORE.INTER.VDW>
-12.823

>  <SCORE.INTER.norm>
-0.00344165

>  <SCORE.INTRA>
-6.66567

>  <SCORE.INTRA.DIHEDRAL>
-12.1396

>  <SCORE.INTRA.DIHEDRAL.0>
17.5233

>  <SCORE.INTRA.POLAR>
0

>  <SCORE.INTRA.POLAR.0>
0

>  <SCORE.INTRA.REPUL>
0

>  <SCORE.INTRA.REPUL.0>
0

>  <SCORE.INTRA.SOLV>
-1.12064

>  <SCORE.INTRA.SOLV.lig_0>
-46.1043

>  <SCORE.INTRA.VDW>
-0.0355407

>  <SCORE.INTRA.VDW.0>
-0.545445

>  <SCORE.INTRA.norm>
-0.476119

>  <SCORE.RESTR>
0

>  <SCORE.RESTR.CAVITY>
0

>  <SCORE.RESTR.norm>
0

>  <SCORE.SYSTEM>
0

>  <SCORE.SYSTEM.CONST>
0

>  <SCORE.SYSTEM.DIHEDRAL>
0

>  <SCORE.SYSTEM.SOLV>
0

>  <SCORE.SYSTEM.norm>
0

>  <SCORE.heavy>
14

>  <SCORE.norm>
-0.479561

>  <RMSD>
37.141

$$$$
ligand
 OpenBabel11021811513D
libRbt.so/2013.1/901 2013/11/27
 14 13  0  0  0  0  0  0  0  0999 V2000
   34.9541   70.9024   10.2974 N   0  0  0  0  0  0  0  0  0  0  0  0
   34.0451   70.3920    9.2839 C   0  0  0  0  0  0  0  0  0  0  0  0
   32.9395   71.4046    9.0048 C   0  0  0  0  0  0  0  0  0  0  0  0
   32.0151   71.5554   10.2077 C   0  0  0  0  0  0  0  0  0  0  0  0
   30.9379   72.5139    9.9794 N   0  0  0  0  0  0  0  0  0  0  0  0
   29.6854   72.0909    9.3759 C   0  0  0  0  0  0  0  0  0  0  0  0
   28.8086   73.2631    8.9495 C   0  0  0  0  0  0  0  0  0  0  0  0
   27.5436   72.7490    8.2713 C   0  0  0  0  0  0  0  0  0  0  0  0
   26.6083   72.1444    9.3129 C   0  0  0  0  0  0  0  0  0  0  0  0
   25.4882   71.4491    8.7028 N   0  0  0  0  0  0  0  0  0  0  0  0
   24.2591   71.2659    9.4633 C   0  0  0  0  0  0  0  0  0  0  0  0
   23.1698   72.2966    9.1742 C   0  0  0  0  0  0  0  0  0  0  0  0
   21.9425   72.0460   10.0521 C   0  0  0  0  0  0  0  0  0  0  0  0
   22.2281   72.4072   11.4302 N   0  0  0  0  0  0  0  0  0  0  0  0
  1  2  1  0  0  0  0
  2  3  1  0  0  0  0
  3  4  1  0  0  0  0
  4  5  1  0  0  0  0
  5  6  1  0  0  0  0
  6  7  1  0  0  0  0
  7  8  1  0  0  0  0
  8  9  1  0  0  0  0
  9 10  1  0  0  0  0
 10 11  1  0  0  0  0
 11 12  1  0  0  0  0
 12 13  1  0  0  0  0
 13 14  1  0  0  0  0
M  END
>  <CHROM.1>
-67.74779774,-179.78239889,87.67272979,-167.81768553,177.51673081,72.95982428
-170.78842355,-156.33014125,97.33506539,-178.14426654,71.80446756,28.18742091
71.89149474,9.53586883,0.01466287,-0.07997547,1.98356163

>  <Name>
ligand

>  <RI>
0

>  <Rbt.Current_Directory>
/home/itssahil/PROJECTS/Mol_Feturizer/New_Systems/rnas/4P5J

>  <Rbt.Executable>
rbdock ($Id: //depot/dev/client3/rdock/2013.1/src/exe/rbdock.cxx#4 $)

>  <Rbt.Library>
libRbt.so (2013.1, Build901 2013/11/27)

>  <Rbt.Parameter_File>
/export/apps/rDock/src/rDock_2013.1_src/data/scripts/dock_solv.prm

>  <Rbt.Receptor>
prm/blind_docking_100.prm

>  <SCORE>
-8.56375

>  <SCORE.INTER>
-1.23736

>  <SCORE.INTER.CONST>
1

>  <SCORE.INTER.POLAR>
0

>  <SCORE.INTER.ROT>
11

>  <SCORE.INTER.SOLV>
8.59413

>  <SCORE.INTER.VDW>
-14.623

>  <SCORE.INTER.norm>
-0.088383

>  <SCORE.INTRA>
-7.32639

>  <SCORE.INTRA.DIHEDRAL>
-13.8848

>  <SCORE.INTRA.DIHEDRAL.0>
17.5233

>  <SCORE.INTRA.POLAR>
0

>  <SCORE.INTRA.POLAR.0>
0

>  <SCORE.INTRA.REPUL>
0

>  <SCORE.INTRA.REPUL.0>
0

>  <SCORE.INTRA.SOLV>
-1.0573

>  <SCORE.INTRA.SOLV.lig_0>
-46.1043

>  <SCORE.INTRA.VDW>
0.144658

>  <SCORE.INTRA.VDW.0>
-0.545445

>  <SCORE.INTRA.norm>
-0.523314

>  <SCORE.RESTR>
0

>  <SCORE.RESTR.CAVITY>
0

>  <SCORE.RESTR.norm>
0

>  <SCORE.SYSTEM>
0

>  <SCORE.SYSTEM.CONST>
0

>  <SCORE.SYSTEM.DIHEDRAL>
0

>  <SCORE.SYSTEM.SOLV>
0

>  <SCORE.SYSTEM.norm>
0

>  <SCORE.heavy>
14

>  <SCORE.norm>
-0.611697

>  <RMSD>
37.468

$$$$
ligand
 OpenBabel11021811513D
libRbt.so/2013.1/901 2013/11/27
 14 13  0  0  0  0  0  0  0  0999 V2000
   36.2422   73.4031   10.6202 N   0  0  0  0  0  0  0  0  0  0  0  0
   34.9842   73.8781   10.0672 C   0  0  0  0  0  0  0  0  0  0  0  0
   33.8976   73.8691   11.1372 C   0  0  0  0  0  0  0  0  0  0  0  0
   32.5654   74.3493   10.5724 C   0  0  0  0  0  0  0  0  0  0  0  0
   32.0143   73.4433    9.5691 N   0  0  0  0  0  0  0  0  0  0  0  0
   30.8215   73.8035    8.8212 C   0  0  0  0  0  0  0  0  0  0  0  0
   29.6058   72.9688    9.2088 C   0  0  0  0  0  0  0  0  0  0  0  0
   28.3806   73.4397    8.4331 C   0  0  0  0  0  0  0  0  0  0  0  0
   27.2098   72.4989    8.6962 C   0  0  0  0  0  0  0  0  0  0  0  0
   26.6375   72.6956   10.0169 N   0  0  0  0  0  0  0  0  0  0  0  0
   25.7781   71.6657   10.5855 C   0  0  0  0  0  0  0  0  0  0  0  0
   24.5811   71.2825    9.7178 C   0  0  0  0  0  0  0  0  0  0  0  0
   23.5954   72.4475    9.6126 C   0  0  0  0  0  0  0  0  0  0  0  0
   23.0394   72.7551   10.9193 N   0  0  0  0  0  0  0  0  0  0  0  0
  1  2  1  0  0  0  0
  2  3  1  0  0  0  0
  3  4  1  0  0  0  0
  4  5  1  0  0  0  0
  5  6  1  0  0  0  0
  6  7  1  0  0  0  0
  7  8  1  0  0  0  0
  8  9  1  0  0  0  0
  9 10  1  0  0  0  0
 10 11  1  0  0  0  0
 11 12  1  0  0  0  0
 12 13  1  0  0  0  0
 13 14  1  0  0  0  0
M  END
>  <CHROM.1>
-179.35383523,65.96381278,-173.62184655,-109.77122321,177.50026157,173.22423578
74.60136824,-162.98497744,-55.58282597,-66.96034416,-63.89407300,29.23939579
73.03570694,9.85536721,0.01590873,0.16042399,1.69126384

>  <Name>
ligand

>  <RI>
0

>  <Rbt.Current_Directory>
/home/itssahil/PROJECTS/Mol_Feturizer/New_Systems/rnas/4P5J

>  <Rbt.Executable>
rbdock ($Id: //depot/dev/client3/rdock/2013.1/src/exe/rbdock.cxx#4 $)

>  <Rbt.Library>
libRbt.so (2013.1, Build901 2013/11/27)

>  <Rbt.Parameter_File>
/export/apps/rDock/src/rDock_2013.1_src/data/scripts/dock_solv.prm

>  <Rbt.Receptor>
prm/blind_docking_100.prm

>  <SCORE>
-7.54166

>  <SCORE.INTER>
-0.0379067

>  <SCORE.INTER.CONST>
1

>  <SCORE.INTER.POLAR>
0

>  <SCORE.INTER.ROT>
11

>  <SCORE.INTER.SOLV>
7.85089

>  <SCORE.INTER.VDW>
-13.5756

>  <SCORE.INTER.norm>
-0.00270762

>  <SCORE.INTRA>
-7.50376

>  <SCORE.INTRA.DIHEDRAL>
-14.7797

>  <SCORE.INTRA.DIHEDRAL.0>
17.5233

>  <SCORE.INTRA.POLAR>
0

>  <SCORE.INTRA.POLAR.0>
0

>  <SCORE.INTRA.REPUL>
0

>  <SCORE.INTRA.REPUL.0>
0

>  <SCORE.INTRA.SOLV>
-0.359316

>  <SCORE.INTRA.SOLV.lig_0>
-46.1043

>  <SCORE.INTRA.VDW>
0.0657287

>  <SCORE.INTRA.VDW.0>
-0.545445

>  <SCORE.INTRA.norm>
-0.535983

>  <SCORE.RESTR>
0

>  <SCORE.RESTR.CAVITY>
0

>  <SCORE.RESTR.norm>
0

>  <SCORE.SYSTEM>
0

>  <SCORE.SYSTEM.CONST>
0

>  <SCORE.SYSTEM.DIHEDRAL>
0

>  <SCORE.SYSTEM.SOLV>
0

>  <SCORE.SYSTEM.norm>
0

>  <SCORE.heavy>
14

>  <SCORE.norm>
-0.53869

>  <RMSD>
37.966

$$$$
ligand
 OpenBabel11021811513D
libRbt.so/2013.1/901 2013/11/27
 14 13  0  0  0  0  0  0  0  0999 V2000
   35.7142   72.9900   11.9429 N   0  0  0  0  0  0  0  0  0  0  0  0
   36.0999   73.3804   10.5965 C   0  0  0  0  0  0  0  0  0  0  0  0
   35.0778   74.3500   10.0123 C   0  0  0  0  0  0  0  0  0  0  0  0
   33.7126   73.6876    9.8653 C   0  0  0  0  0  0  0  0  0  0  0  0
   32.7060   74.5810    9.2998 N   0  0  0  0  0  0  0  0  0  0  0  0
   31.5350   74.0456    8.6259 C   0  0  0  0  0  0  0  0  0  0  0  0
   30.4467   73.5992    9.5961 C   0  0  0  0  0  0  0  0  0  0  0  0
   29.2430   73.0716    8.8233 C   0  0  0  0  0  0  0  0  0  0  0  0
   28.1330   72.6873    9.7956 C   0  0  0  0  0  0  0  0  0  0  0  0
   26.9689   72.1517    9.1113 N   0  0  0  0  0  0  0  0  0  0  0  0
   25.8947   71.5497    9.8898 C   0  0  0  0  0  0  0  0  0  0  0  0
   24.4937   71.7731    9.3243 C   0  0  0  0  0  0  0  0  0  0  0  0
   23.4290   71.3152   10.3225 C   0  0  0  0  0  0  0  0  0  0  0  0
   22.1032   71.6539    9.8340 N   0  0  0  0  0  0  0  0  0  0  0  0
  1  2  1  0  0  0  0
  2  3  1  0  0  0  0
  3  4  1  0  0  0  0
  4  5  1  0  0  0  0
  5  6  1  0  0  0  0
  6  7  1  0  0  0  0
  7  8  1  0  0  0  0
  8  9  1  0  0  0  0
  9 10  1  0  0  0  0
 10 11  1  0  0  0  0
 11 12  1  0  0  0  0
 12 13  1  0  0  0  0
 13 14  1  0  0  0  0
M  END
>  <CHROM.1>
-63.48353888,-179.60416930,156.72726483,80.47463796,179.07345986,-177.38189515
-178.85160674,170.91077985,145.26116825,-170.42591239,174.30820351,29.68282324
72.91690767,9.78843451,-0.06651947,0.18995504,2.19094108

>  <Name>
ligand

>  <RI>
0

>  <Rbt.Current_Directory>
/home/itssahil/PROJECTS/Mol_Feturizer/New_Systems/rnas/4P5J

>  <Rbt.Executable>
rbdock ($Id: //depot/dev/client3/rdock/2013.1/src/exe/rbdock.cxx#4 $)

>  <Rbt.Library>
libRbt.so (2013.1, Build901 2013/11/27)

>  <Rbt.Parameter_File>
/export/apps/rDock/src/rDock_2013.1_src/data/scripts/dock_solv.prm

>  <Rbt.Receptor>
prm/blind_docking_100.prm

>  <SCORE>
-11.0933

>  <SCORE.INTER>
-1.99767

>  <SCORE.INTER.CONST>
1

>  <SCORE.INTER.POLAR>
0

>  <SCORE.INTER.ROT>
11

>  <SCORE.INTER.SOLV>
9.04669

>  <SCORE.INTER.VDW>
-15.2807

>  <SCORE.INTER.norm>
-0.142691

>  <SCORE.INTRA>
-9.09565

>  <SCORE.INTRA.DIHEDRAL>
-15.4587

>  <SCORE.INTRA.DIHEDRAL.0>
17.5233

>  <SCORE.INTRA.POLAR>
0

>  <SCORE.INTRA.POLAR.0>
0

>  <SCORE.INTRA.REPUL>
0

>  <SCORE.INTRA.REPUL.0>
0

>  <SCORE.INTRA.SOLV>
-1.928

>  <SCORE.INTRA.SOLV.lig_0>
-46.1043

>  <SCORE.INTRA.VDW>
-0.402318

>  <SCORE.INTRA.VDW.0>
-0.545445

>  <SCORE.INTRA.norm>
-0.64969

>  <SCORE.RESTR>
0

>  <SCORE.RESTR.CAVITY>
0

>  <SCORE.RESTR.norm>
0

>  <SCORE.SYSTEM>
0

>  <SCORE.SYSTEM.CONST>
0

>  <SCORE.SYSTEM.DIHEDRAL>
0

>  <SCORE.SYSTEM.SOLV>
0

>  <SCORE.SYSTEM.norm>
0

>  <SCORE.heavy>
14

>  <SCORE.norm>
-0.79238

>  <RMSD>
37.978

$$$$
ligand
 OpenBabel11021811513D
libRbt.so/2013.1/901 2013/11/27
 14 13  0  0  0  0  0  0  0  0999 V2000
   21.9993   71.5598    9.9018 N   0  0  0  0  0  0  0  0  0  0  0  0
   23.3309   71.1923   10.3553 C   0  0  0  0  0  0  0  0  0  0  0  0
   24.3895   71.8108    9.4482 C   0  0  0  0  0  0  0  0  0  0  0  0
   25.7939   71.5312    9.9716 C   0  0  0  0  0  0  0  0  0  0  0  0
   26.8336   72.1934    9.1894 N   0  0  0  0  0  0  0  0  0  0  0  0
   28.1245   72.4998    9.7822 C   0  0  0  0  0  0  0  0  0  0  0  0
   29.0661   73.2092    8.8152 C   0  0  0  0  0  0  0  0  0  0  0  0
   30.3523   73.6024    9.5331 C   0  0  0  0  0  0  0  0  0  0  0  0
   31.3623   74.1408    8.5256 C   0  0  0  0  0  0  0  0  0  0  0  0
   32.5283   74.7148    9.1748 N   0  0  0  0  0  0  0  0  0  0  0  0
   33.4819   73.8371    9.8403 C   0  0  0  0  0  0  0  0  0  0  0  0
   34.9328   74.3103    9.7829 C   0  0  0  0  0  0  0  0  0  0  0  0
   35.8321   73.3972   10.6179 C   0  0  0  0  0  0  0  0  0  0  0  0
   35.7913   72.0406   10.0991 N   0  0  0  0  0  0  0  0  0  0  0  0
  1  2  1  0  0  0  0
  2  3  1  0  0  0  0
  3  4  1  0  0  0  0
  4  5  1  0  0  0  0
  5  6  1  0  0  0  0
  6  7  1  0  0  0  0
  7  8  1  0  0  0  0
  8  9  1  0  0  0  0
  9 10  1  0  0  0  0
 10 11  1  0  0  0  0
 11 12  1  0  0  0  0
 12 13  1  0  0  0  0
 13 14  1  0  0  0  0
M  END
>  <CHROM.1>
175.39891232,-175.54513348,155.53257315,-179.10977905,175.32007035,172.46242289
171.42520052,70.77582802,146.89505878,174.63390822,61.06561177,29.55857764
72.86007679,9.64556149,-2.98648042,-0.10064201,-0.54992723

>  <Name>
ligand

>  <RI>
0

>  <Rbt.Current_Directory>
/home/itssahil/PROJECTS/Mol_Feturizer/New_Systems/rnas/4P5J

>  <Rbt.Executable>
rbdock ($Id: //depot/dev/client3/rdock/2013.1/src/exe/rbdock.cxx#4 $)

>  <Rbt.Library>
libRbt.so (2013.1, Build901 2013/11/27)

>  <Rbt.Parameter_File>
/export/apps/rDock/src/rDock_2013.1_src/data/scripts/dock_solv.prm

>  <Rbt.Receptor>
prm/blind_docking_100.prm

>  <SCORE>
-10.4076

>  <SCORE.INTER>
-1.56795

>  <SCORE.INTER.CONST>
1

>  <SCORE.INTER.POLAR>
0

>  <SCORE.INTER.ROT>
11

>  <SCORE.INTER.SOLV>
11.0921

>  <SCORE.INTER.VDW>
-15.676

>  <SCORE.INTER.norm>
-0.111996

>  <SCORE.INTRA>
-8.83969

>  <SCORE.INTRA.DIHEDRAL>
-15.4457

>  <SCORE.INTRA.DIHEDRAL.0>
17.5233

>  <SCORE.INTRA.POLAR>
0

>  <SCORE.INTRA.POLAR.0>
0

>  <SCORE.INTRA.REPUL>
0

>  <SCORE.INTRA.REPUL.0>
0

>  <SCORE.INTRA.SOLV>
-1.91276

>  <SCORE.INTRA.SOLV.lig_0>
-46.1043

>  <SCORE.INTRA.VDW>
-0.160454

>  <SCORE.INTRA.VDW.0>
-0.545445

>  <SCORE.INTRA.norm>
-0.631407

>  <SCORE.RESTR>
0

>  <SCORE.RESTR.CAVITY>
0

>  <SCORE.RESTR.norm>
0

>  <SCORE.SYSTEM>
0

>  <SCORE.SYSTEM.CONST>
0

>  <SCORE.SYSTEM.DIHEDRAL>
0

>  <SCORE.SYSTEM.SOLV>
0

>  <SCORE.SYSTEM.norm>
0

>  <SCORE.heavy>
14

>  <SCORE.norm>
-0.743403

>  <RMSD>
38.045

$$$$
ligand
 OpenBabel11021811513D
libRbt.so/2013.1/901 2013/11/27
 14 13  0  0  0  0  0  0  0  0999 V2000
   45.4079   66.7112    4.7686 N   0  0  0  0  0  0  0  0  0  0  0  0
   45.1045   67.0639    3.3911 C   0  0  0  0  0  0  0  0  0  0  0  0
   46.3337   67.6601    2.7133 C   0  0  0  0  0  0  0  0  0  0  0  0
   46.0293   68.0582    1.2735 C   0  0  0  0  0  0  0  0  0  0  0  0
   47.1912   68.6020    0.5769 N   0  0  0  0  0  0  0  0  0  0  0  0
   47.9599   67.7756   -0.3386 C   0  0  0  0  0  0  0  0  0  0  0  0
   48.2374   68.4672   -1.6688 C   0  0  0  0  0  0  0  0  0  0  0  0
   49.1641   67.6071   -2.5208 C   0  0  0  0  0  0  0  0  0  0  0  0
   49.4921   68.3329   -3.8211 C   0  0  0  0  0  0  0  0  0  0  0  0
   48.3349   68.4417   -4.6926 N   0  0  0  0  0  0  0  0  0  0  0  0
   47.7166   69.7440   -4.9026 C   0  0  0  0  0  0  0  0  0  0  0  0
   46.3884   69.7062   -5.6555 C   0  0  0  0  0  0  0  0  0  0  0  0
   46.5731   69.0966   -7.0462 C   0  0  0  0  0  0  0  0  0  0  0  0
   45.2984   69.0333   -7.7407 N   0  0  0  0  0  0  0  0  0  0  0  0
  1  2  1  0  0  0  0
  2  3  1  0  0  0  0
  3  4  1  0  0  0  0
  4  5  1  0  0  0  0
  5  6  1  0  0  0  0
  6  7  1  0  0  0  0
  7  8  1  0  0  0  0
  8  9  1  0  0  0  0
  9 10  1  0  0  0  0
 10 11  1  0  0  0  0
 11 12  1  0  0  0  0
 12 13  1  0  0  0  0
 13 14  1  0  0  0  0
M  END
>  <CHROM.1>
-179.05859259,-178.49780469,100.36106681,132.17428300,174.19095077,-177.28971599
-68.58203037,109.72704659,-170.89953137,-60.07360254,178.52824437,47.08817200
68.30720215,-1.83312828,1.68716392,-0.07353982,1.76643530

>  <Name>
ligand

>  <RI>
0

>  <Rbt.Current_Directory>
/home/itssahil/PROJECTS/Mol_Feturizer/New_Systems/rnas/4P5J

>  <Rbt.Executable>
rbdock ($Id: //depot/dev/client3/rdock/2013.1/src/exe/rbdock.cxx#4 $)

>  <Rbt.Library>
libRbt.so (2013.1, Build901 2013/11/27)

>  <Rbt.Parameter_File>
/export/apps/rDock/src/rDock_2013.1_src/data/scripts/dock_solv.prm

>  <Rbt.Receptor>
prm/blind_docking_100.prm

>  <SCORE>
-13.277

>  <SCORE.INTER>
-4.68272

>  <SCORE.INTER.CONST>
1

>  <SCORE.INTER.POLAR>
0

>  <SCORE.INTER.ROT>
11

>  <SCORE.INTER.SOLV>
9.20249

>  <SCORE.INTER.VDW>
-17.1226

>  <SCORE.INTER.norm>
-0.33448

>  <SCORE.INTRA>
-8.59432

>  <SCORE.INTRA.DIHEDRAL>
-13.8977

>  <SCORE.INTRA.DIHEDRAL.0>
17.5233

>  <SCORE.INTRA.POLAR>
0

>  <SCORE.INTRA.POLAR.0>
0

>  <SCORE.INTRA.REPUL>
0

>  <SCORE.INTRA.REPUL.0>
0

>  <SCORE.INTRA.SOLV>
-1.98346

>  <SCORE.INTRA.SOLV.lig_0>
-46.1043

>  <SCORE.INTRA.VDW>
-0.653746

>  <SCORE.INTRA.VDW.0>
-0.545445

>  <SCORE.INTRA.norm>
-0.61388

>  <SCORE.RESTR>
0

>  <SCORE.RESTR.CAVITY>
0

>  <SCORE.RESTR.norm>
0

>  <SCORE.SYSTEM>
0

>  <SCORE.SYSTEM.CONST>
0

>  <SCORE.SYSTEM.DIHEDRAL>
0

>  <SCORE.SYSTEM.SOLV>
0

>  <SCORE.SYSTEM.norm>
0

>  <SCORE.heavy>
14

>  <SCORE.norm>
-0.94836

>  <RMSD>
48.671

$$$$
ligand
 OpenBabel11021811513D
libRbt.so/2013.1/901 2013/11/27
 14 13  0  0  0  0  0  0  0  0999 V2000
   45.3413   66.7516    2.8655 N   0  0  0  0  0  0  0  0  0  0  0  0
   46.4227   67.6553    3.2233 C   0  0  0  0  0  0  0  0  0  0  0  0
   46.8357   68.4919    2.0169 C   0  0  0  0  0  0  0  0  0  0  0  0
   47.4167   67.6158    0.9128 C   0  0  0  0  0  0  0  0  0  0  0  0
   47.6982   68.3582   -0.3123 N   0  0  0  0  0  0  0  0  0  0  0  0
   48.4037   67.7275   -1.4152 C   0  0  0  0  0  0  0  0  0  0  0  0
   48.4149   68.5834   -2.6770 C   0  0  0  0  0  0  0  0  0  0  0  0
   49.3795   67.9932   -3.6995 C   0  0  0  0  0  0  0  0  0  0  0  0
   49.3307   68.8093   -4.9866 C   0  0  0  0  0  0  0  0  0  0  0  0
   48.0209   68.7628   -5.6133 N   0  0  0  0  0  0  0  0  0  0  0  0
   47.0553   69.8171   -5.3330 C   0  0  0  0  0  0  0  0  0  0  0  0
   45.7173   69.3275   -4.7829 C   0  0  0  0  0  0  0  0  0  0  0  0
   44.7717   70.5042   -4.5362 C   0  0  0  0  0  0  0  0  0  0  0  0
   43.4669   70.0213   -4.1173 N   0  0  0  0  0  0  0  0  0  0  0  0
  1  2  1  0  0  0  0
  2  3  1  0  0  0  0
  3  4  1  0  0  0  0
  4  5  1  0  0  0  0
  5  6  1  0  0  0  0
  6  7  1  0  0  0  0
  7  8  1  0  0  0  0
  8  9  1  0  0  0  0
  9 10  1  0  0  0  0
 10 11  1  0  0  0  0
 11 12  1  0  0  0  0
 12 13  1  0  0  0  0
 13 14  1  0  0  0  0
M  END
>  <CHROM.1>
-64.43272169,174.10817635,172.49027439,171.18320240,169.45665148,176.96149368
-62.98260776,94.35841311,-123.72966563,-179.41015339,175.36964225,47.02003755
68.60140948,-2.03256923,1.62367211,-0.29006791,1.82906211

>  <Name>
ligand

>  <RI>
0

>  <Rbt.Current_Directory>
/home/itssahil/PROJECTS/Mol_Feturizer/New_Systems/rnas/4P5J

>  <Rbt.Executable>
rbdock ($Id: //depot/dev/client3/rdock/2013.1/src/exe/rbdock.cxx#4 $)

>  <Rbt.Library>
libRbt.so (2013.1, Build901 2013/11/27)

>  <Rbt.Parameter_File>
/export/apps/rDock/src/rDock_2013.1_src/data/scripts/dock_solv.prm

>  <Rbt.Receptor>
prm/blind_docking_100.prm

>  <SCORE>
-13.921

>  <SCORE.INTER>
-5.39415

>  <SCORE.INTER.CONST>
1

>  <SCORE.INTER.POLAR>
0

>  <SCORE.INTER.ROT>
11

>  <SCORE.INTER.SOLV>
9.43989

>  <SCORE.INTER.VDW>
-17.6761

>  <SCORE.INTER.norm>
-0.385297

>  <SCORE.INTRA>
-8.52719

>  <SCORE.INTRA.DIHEDRAL>
-14.7218

>  <SCORE.INTRA.DIHEDRAL.0>
17.5233

>  <SCORE.INTRA.POLAR>
0

>  <SCORE.INTRA.POLAR.0>
0

>  <SCORE.INTRA.REPUL>
0

>  <SCORE.INTRA.REPUL.0>
0

>  <SCORE.INTRA.SOLV>
-1.4713

>  <SCORE.INTRA.SOLV.lig_0>
-46.1043

>  <SCORE.INTRA.VDW>
-0.430639

>  <SCORE.INTRA.VDW.0>
-0.545445

>  <SCORE.INTRA.norm>
-0.609085

>  <SCORE.RESTR>
0.000301825

>  <SCORE.RESTR.CAVITY>
0.000301825

>  <SCORE.RESTR.norm>
2.15589e-05

>  <SCORE.SYSTEM>
0

>  <SCORE.SYSTEM.CONST>
0

>  <SCORE.SYSTEM.DIHEDRAL>
0

>  <SCORE.SYSTEM.SOLV>
0

>  <SCORE.SYSTEM.norm>
0

>  <SCORE.heavy>
14

>  <SCORE.norm>
-0.99436

>  <RMSD>
48.864

$$$$
ligand
 OpenBabel11021811513D
libRbt.so/2013.1/901 2013/11/27
 14 13  0  0  0  0  0  0  0  0999 V2000
   44.4311   69.2101   -6.5531 N   0  0  0  0  0  0  0  0  0  0  0  0
   45.4083   68.8930   -7.5819 C   0  0  0  0  0  0  0  0  0  0  0  0
   46.5196   68.0210   -7.0070 C   0  0  0  0  0  0  0  0  0  0  0  0
   47.3401   68.7854   -5.9742 C   0  0  0  0  0  0  0  0  0  0  0  0
   48.4315   67.9925   -5.4162 N   0  0  0  0  0  0  0  0  0  0  0  0
   49.4300   68.6071   -4.5577 C   0  0  0  0  0  0  0  0  0  0  0  0
   49.3952   68.0699   -3.1312 C   0  0  0  0  0  0  0  0  0  0  0  0
   48.0866   68.4654   -2.4563 C   0  0  0  0  0  0  0  0  0  0  0  0
   48.1050   68.0260   -0.9963 C   0  0  0  0  0  0  0  0  0  0  0  0
   46.9152   68.4555   -0.2818 N   0  0  0  0  0  0  0  0  0  0  0  0
   46.7635   68.1144    1.1265 C   0  0  0  0  0  0  0  0  0  0  0  0
   45.5899   68.7968    1.8258 C   0  0  0  0  0  0  0  0  0  0  0  0
   45.5134   68.3706    3.2929 C   0  0  0  0  0  0  0  0  0  0  0  0
   45.1876   66.9579    3.3895 N   0  0  0  0  0  0  0  0  0  0  0  0
  1  2  1  0  0  0  0
  2  3  1  0  0  0  0
  3  4  1  0  0  0  0
  4  5  1  0  0  0  0
  5  6  1  0  0  0  0
  6  7  1  0  0  0  0
  7  8  1  0  0  0  0
  8  9  1  0  0  0  0
  9 10  1  0  0  0  0
 10 11  1  0  0  0  0
 11 12  1  0  0  0  0
 12 13  1  0  0  0  0
 13 14  1  0  0  0  0
M  END
>  <CHROM.1>
-66.23078752,-178.95173216,171.46691838,114.92108731,-66.06282426,-175.35676794
176.26727998,179.67879700,170.93585471,179.76618043,-66.23002540,46.93722037
68.34046096,-2.45158703,1.47488365,0.09338058,-1.49647856

>  <Name>
ligand

>  <RI>
0

>  <Rbt.Current_Directory>
/home/itssahil/PROJECTS/Mol_Feturizer/New_Systems/rnas/4P5J

>  <Rbt.Executable>
rbdock ($Id: //depot/dev/client3/rdock/2013.1/src/exe/rbdock.cxx#4 $)

>  <Rbt.Library>
libRbt.so (2013.1, Build901 2013/11/27)

>  <Rbt.Parameter_File>
/export/apps/rDock/src/rDock_2013.1_src/data/scripts/dock_solv.prm

>  <Rbt.Receptor>
prm/blind_docking_100.prm

>  <SCORE>
-12.974

>  <SCORE.INTER>
-4.27119

>  <SCORE.INTER.CONST>
1

>  <SCORE.INTER.POLAR>
0

>  <SCORE.INTER.ROT>
11

>  <SCORE.INTER.SOLV>
9.16283

>  <SCORE.INTER.VDW>
-16.8351

>  <SCORE.INTER.norm>
-0.305085

>  <SCORE.INTRA>
-8.70278

>  <SCORE.INTRA.DIHEDRAL>
-15.6431

>  <SCORE.INTRA.DIHEDRAL.0>
17.5233

>  <SCORE.INTRA.POLAR>
0

>  <SCORE.INTRA.POLAR.0>
0

>  <SCORE.INTRA.REPUL>
0

>  <SCORE.INTRA.REPUL.0>
0

>  <SCORE.INTRA.SOLV>
-0.834416

>  <SCORE.INTRA.SOLV.lig_0>
-46.1043

>  <SCORE.INTRA.VDW>
-0.464001

>  <SCORE.INTRA.VDW.0>
-0.545445

>  <SCORE.INTRA.norm>
-0.621627

>  <SCORE.RESTR>
0

>  <SCORE.RESTR.CAVITY>
0

>  <SCORE.RESTR.norm>
0

>  <SCORE.SYSTEM>
0

>  <SCORE.SYSTEM.CONST>
0

>  <SCORE.SYSTEM.DIHEDRAL>
0

>  <SCORE.SYSTEM.SOLV>
0

>  <SCORE.SYSTEM.norm>
0

>  <SCORE.heavy>
14

>  <SCORE.norm>
-0.926713

>  <RMSD>
49.125

$$$$
