@<TRIPOS>MOLECULE
4P5J_rdock.pdb
 1760 1964 0 0 0
SMALL
GASTEIGER

@<TRIPOS>ATOM
      1  P         21.0320   55.5930    2.6500 P.3     1  A1          0.1280
      2  C5'       21.7800   56.3100    5.0700 C.3     1  A1          0.1795
      3  O5'       20.9270   55.5240    4.2370 O.3     1  A1         -0.3259
      4  C4'       22.0670   55.5920    6.3610 C.3     1  A1          0.1772
      5  O4'       20.7860   55.2270    6.9450 O.3     1  A1         -0.3307
      6  C3'       22.8520   54.2950    6.1620 C.3     1  A1          0.1860
      7  O3'       23.9890   54.1360    7.0340 O.3     1  A1         -0.3112
      8  C2'       21.8070   53.1810    6.3190 C.3     1  A1          0.2309
      9  O2'       22.2860   52.0070    6.9440 O.3     1  A1         -0.2156
     10  C1'       20.7090   53.8320    7.1570 C.3     1  A1          0.2408
     11  N1        16.9430   50.6010    8.3420 N.ar    1  A1         -0.2040
     12  C2        18.1530   50.8390    8.8770 C.ar    1  A1          0.2016
     13  N3        19.0900   51.7170    8.5080 N.ar    1  A1         -0.2048
     14  C4        18.6640   52.4070    7.4350 C.ar    1  A1          0.1692
     15  C5        17.4530   52.2740    6.7680 C.ar    1  A1          0.1518
     16  C6        16.5500   51.3110    7.2640 C.ar    1  A1          0.1919
     17  N6        15.3370   51.0440    6.7620 N.pl3   1  A1         -0.1054
     18  N7        17.4000   53.1770    5.7120 N.ar    1  A1         -0.2193
     19  C8        18.5570   53.8100    5.7620 C.ar    1  A1          0.1816
     20  N9        19.3650   53.3800    6.7860 N.ar    1  A1         -0.2693
     21  OP1       20.4050   54.3570    2.0890 O.3     1  A1         -0.1955
     22  OP2       20.5720   56.9530    2.2550 O.co2   1  A1         -0.7863
     23  P         24.0460   54.6480    8.5530 P.3     2  G2          0.2141
     24  C5'       24.3860   56.9670    9.6830 C.3     2  G2          0.1812
     25  O5'       24.3020   56.2230    8.4710 O.3     2  G2         -0.3114
     26  C4'       23.8640   58.3800    9.5700 C.3     2  G2          0.1773
     27  O4'       23.1760   58.5790    8.3190 O.3     2  G2         -0.3307
     28  C3'       22.8440   58.7920   10.6120 C.3     2  G2          0.1860
     29  O3'       23.4290   59.1500   11.8450 O.3     2  G2         -0.3112
     30  C2'       22.1250   59.9550    9.9520 C.3     2  G2          0.2309
     31  O2'       22.8160   61.1590   10.2110 O.3     2  G2         -0.2156
     32  C1'       22.2230   59.6010    8.4640 C.3     2  G2          0.2408
     33  N1        18.2600   56.3270    8.7130 N.ar    2  G2         -0.1709
     34  C2        19.3670   56.3880    9.5170 C.ar    2  G2          0.2606
     35  N2        19.3990   55.4950   10.5040 N.pl3   2  G2         -0.0859
     36  N3        20.3450   57.2690    9.3780 N.ar    2  G2         -0.1918
     37  C4        20.1270   58.1090    8.3390 C.ar    2  G2          0.1723
     38  C5        19.0610   58.1110    7.4640 C.ar    2  G2          0.1748
     39  C6        18.0280   57.1640    7.6330 C.ar    2  G2          0.3023
     40  O6        16.9980   57.0310    6.9620 O.2     2  G2         -0.2633
     41  N7        19.1890   59.1240    6.5170 N.ar    2  G2         -0.2173
     42  C8        20.3190   59.7020    6.8180 C.ar    2  G2          0.1817
     43  N9        20.9400   59.1390    7.9070 N.ar    2  G2         -0.2693
     44  OP1       25.2280   54.0740    9.2070 O.3     2  G2         -0.4373
     45  OP2       22.7430   54.3960    9.1970 O.co2   2  G2         -0.5172
     46  P         22.7840   58.5800   13.1960 P.3     3  C3          0.2141
     47  C5'       24.8340   57.0790   13.8540 C.3     3  C3          0.1812
     48  O5'       24.0460   58.2280   14.1030 O.3     3  C3         -0.3114
     49  C4'       26.1770   57.2220   14.5060 C.3     3  C3          0.1773
     50  O4'       26.9470   58.2120   13.7840 O.3     3  C3         -0.3307
     51  C3'       26.1480   57.7470   15.9320 C.3     3  C3          0.1860
     52  O3'       25.9170   56.7350   16.8870 O.3     3  C3         -0.3112
     53  C2'       27.5120   58.3910   16.0870 C.3     3  C3          0.2309
     54  O2'       28.4900   57.3930   16.3420 O.3     3  C3         -0.2156
     55  C1'       27.7480   58.9490   14.6850 C.3     3  C3          0.2420
     56  N1        27.4090   60.3840   14.5540 N.ar    3  C3         -0.2535
     57  C2        28.2100   61.3170   15.1920 C.ar    3  C3          0.3532
     58  O2        29.1420   60.9030   15.9010 O.2     3  C3         -0.2443
     59  N3        27.9480   62.6390   15.0800 N.ar    3  C3         -0.1739
     60  C4        26.9170   63.0100   14.3270 C.ar    3  C3          0.1759
     61  N4        26.6760   64.3180   14.2160 N.pl3   3  C3         -0.1070
     62  C5        26.0850   62.0740   13.6400 C.ar    3  C3          0.0566
     63  C6        26.3540   60.7740   13.7750 C.ar    3  C3          0.0850
     64  OP1       22.0730   57.3380   12.8250 O.2     3  C3         -0.5172
     65  OP2       21.9970   59.6500   13.8730 O.co2   3  C3         -0.4373
     66  P         24.9580   57.0390   18.1380 P.3     4  U4          0.2141
     67  C5'       27.1270   57.2770   19.5630 C.3     4  U4          0.1812
     68  O5'       25.9010   57.8430   19.1390 O.3     4  U4         -0.3114
     69  C4'       27.9650   58.2790   20.3140 C.3     4  U4          0.1773
     70  O4'       28.4900   59.2690   19.3870 O.3     4  U4         -0.3307
     71  C3'       27.2450   59.1150   21.3550 C.3     4  U4          0.1860
     72  O3'       27.0100   58.4380   22.5780 O.3     4  U4         -0.3112
     73  C2'       28.1700   60.3170   21.4850 C.3     4  U4          0.2309
     74  O2'       29.3560   59.9680   22.1730 O.3     4  U4         -0.2156
     75  C1'       28.5770   60.5220   20.0360 C.3     4  U4          0.2420
     76  N1        27.7290   61.5020   19.3090 N.ar    4  U4         -0.2534
     77  C2        28.0590   62.8140   19.5510 C.ar    4  U4          0.3546
     78  O2        28.9430   63.1520   20.3500 O.2     4  U4         -0.2443
     79  N3        27.3320   63.7190   18.8410 N.ar    4  U4         -0.1530
     80  C4        26.3500   63.4580   17.9310 C.ar    4  U4          0.2846
     81  O4        25.8360   64.4350   17.3930 O.2     4  U4         -0.2650
     82  C5        26.0550   62.0650   17.7160 C.ar    4  U4          0.0814
     83  C6        26.7560   61.1470   18.4020 C.ar    4  U4          0.0870
     84  OP1       24.6300   55.7630   18.8150 O.3     4  U4         -0.4373
     85  OP2       23.9020   57.9490   17.6470 O.co2   4  U4         -0.5172
     86  P         25.7430   58.8180   23.4880 P.3     5  C5          0.2141
     87  C5'       27.1650   60.4070   24.9690 C.3     5  C5          0.1812
     88  O5'       26.0850   60.2570   24.0830 O.3     5  C5         -0.3114
     89  C4'       27.5550   61.8580   25.1370 C.3     5  C5          0.1773
     90  O4'       27.9360   62.4730   23.8730 O.3     5  C5         -0.3307
     91  C3'       26.4890   62.7940   25.6680 C.3     5  C5          0.1860
     92  O3'       26.2840   62.6420   27.0520 O.3     5  C5         -0.3112
     93  C2'       27.0910   64.1410   25.3240 C.3     5  C5          0.2309
     94  O2'       28.1860   64.3440   26.2020 O.3     5  C5         -0.2156
     95  C1'       27.6360   63.8540   23.9220 C.3     5  C5          0.2420
     96  N1        26.6410   64.1650   22.8750 N.ar    5  C5         -0.2535
     97  C2        26.6370   65.5100   22.4960 C.ar    5  C5          0.3532
     98  O2        27.4250   66.2870   23.0520 O.2     5  C5         -0.2443
     99  N3        25.7750   65.9310   21.5830 N.ar    5  C5         -0.1739
    100  C4        24.9350   65.0640   21.0110 C.ar    5  C5          0.1759
    101  N4        24.1370   65.6180   20.1060 N.pl3   5  C5         -0.1070
    102  C5        24.8840   63.6650   21.3490 C.ar    5  C5          0.0566
    103  C6        25.7760   63.2550   22.2950 C.ar    5  C5          0.0850
    104  OP1       25.7940   57.8860   24.6210 O.3     5  C5         -0.4373
    105  OP2       24.4990   59.1030   22.7310 O.co2   5  C5         -0.5172
    106  P         24.8400   63.0230   27.6620 P.3     6  G6          0.2141
    107  C5'       25.9440   65.2590   28.4720 C.3     6  G6          0.1812
    108  O5'       24.8900   64.6180   27.7710 O.3     6  G6         -0.3114
    109  C4'       25.9550   66.7420   28.2030 C.3     6  G6          0.1773
    110  O4'       26.2720   66.9650   26.8080 O.3     6  G6         -0.3307
    111  C3'       24.6260   67.4880   28.3930 C.3     6  G6          0.1860
    112  O3'       24.3290   67.8360   29.7380 O.3     6  G6         -0.3112
    113  C2'       24.7980   68.6840   27.5050 C.3     6  G6          0.2309
    114  O2'       25.6480   69.6400   28.1110 O.3     6  G6         -0.2156
    115  C1'       25.5550   68.0880   26.3370 C.3     6  G6          0.2408
    116  N1        22.8650   69.7480   22.4160 N.ar    6  G6         -0.1709
    117  C2        23.6350   70.4350   23.3400 C.ar    6  G6          0.2606
    118  N2        23.7170   71.7550   23.1900 N.pl3   6  G6         -0.0859
    119  N3        24.2810   69.8570   24.3340 N.ar    6  G6         -0.1918
    120  C4        24.1190   68.5330   24.3260 C.ar    6  G6          0.1723
    121  C5        23.3330   67.7590   23.4950 C.ar    6  G6          0.1748
    122  C6        22.6310   68.3740   22.4350 C.ar    6  G6          0.3023
    123  O6        21.8980   67.9010   21.5230 O.2     6  G6         -0.2633
    124  N7        23.4250   66.4280   23.9030 N.ar    6  G6         -0.2173
    125  C8        24.2160   66.4170   24.9510 C.ar    6  G6          0.1817
    126  N9        24.6490   67.6820   25.2530 N.ar    6  G6         -0.2693
    127  OP1       24.9370   62.4000   29.0120 O.3     6  G6         -0.4373
    128  OP2       23.7570   62.7920   26.7310 O.co2   6  G6         -0.5172
    129  P         22.7930   67.9120   30.2430 P.3     7  C7          0.2141
    130  C5'       22.8610   70.5010   29.9840 C.3     7  C7          0.1812
    131  O5'       22.2780   69.2580   29.5960 O.3     7  C7         -0.3114
    132  C4'       22.4460   71.6010   29.0550 C.3     7  C7          0.1773
    133  O4'       22.8240   71.2510   27.6990 O.3     7  C7         -0.3307
    134  C3'       20.9420   71.8320   28.9430 C.3     7  C7          0.1860
    135  O3'       20.4070   72.5780   29.9960 O.3     7  C7         -0.3112
    136  C2'       20.8340   72.5380   27.6140 C.3     7  C7          0.2309
    137  O2'       21.2350   73.8710   27.7490 O.3     7  C7         -0.2156
    138  C1'       21.8670   71.7690   26.7890 C.3     7  C7          0.2420
    139  N1        21.2110   70.6320   26.0650 N.ar    7  C7         -0.2535
    140  C2        20.6020   70.9010   24.8640 C.ar    7  C7          0.3532
    141  O2        20.5810   72.0530   24.4960 O.2     7  C7         -0.2443
    142  N3        19.9660   69.9290   24.1130 N.ar    7  C7         -0.1739
    143  C4        19.9730   68.6950   24.5560 C.ar    7  C7          0.1759
    144  N4        19.3420   67.8090   23.7760 N.pl3   7  C7         -0.1070
    145  C5        20.6180   68.3600   25.7900 C.ar    7  C7          0.0566
    146  C6        21.2220   69.3390   26.5100 C.ar    7  C7          0.0850
    147  OP1       22.7970   67.9990   31.7310 O.3     7  C7         -0.4373
    148  OP2       21.9830   66.8220   29.6440 O.co2   7  C7         -0.5172
    149  P         18.8620   72.3870   30.4160 P.3     8  C8          0.2141
    150  C5'       18.3070   74.5390   29.0340 C.3     8  C8          0.1812
    151  O5'       18.0990   73.1610   29.2660 O.3     8  C8         -0.3114
    152  C4'       17.6270   74.9770   27.7770 C.3     8  C8          0.1773
    153  O4'       18.1160   74.2260   26.6350 O.3     8  C8         -0.3307
    154  C3'       16.1280   74.7210   27.7670 C.3     8  C8          0.1860
    155  O3'       15.4530   75.6790   28.5670 O.3     8  C8         -0.3112
    156  C2'       15.8090   74.7290   26.2720 C.3     8  C8          0.2309
    157  O2'       15.6680   76.0490   25.7800 O.3     8  C8         -0.2156
    158  C1'       17.0830   74.0810   25.6750 C.3     8  C8          0.2420
    159  N1        16.8920   72.6090   25.4220 N.ar    8  C8         -0.2535
    160  C2        16.3970   72.1480   24.2080 C.ar    8  C8          0.3532
    161  O2        16.0660   72.9730   23.3170 O.2     8  C8         -0.2443
    162  N3        16.2480   70.8130   24.0170 N.ar    8  C8         -0.1739
    163  C4        16.5430   69.9560   24.9820 C.ar    8  C8          0.1759
    164  N4        16.3230   68.6400   24.7840 N.pl3   8  C8         -0.1070
    165  C5        17.0630   70.3990   26.2320 C.ar    8  C8          0.0566
    166  C6        17.1900   71.7100   26.4100 C.ar    8  C8          0.0850
    167  OP1       18.7600   73.1040   31.6960 O.3     8  C8         -0.4373
    168  OP2       18.4390   70.9720   30.3480 O.co2   8  C8         -0.5172
    169  P         14.0540   75.3130   29.2700 P.3     9  A9          0.2141
    170  C5'       11.8820   74.4130   28.0950 C.3     9  A9          0.1812
    171  O5'       13.2020   74.9570   28.0210 O.3     9  A9         -0.3114
    172  C4'       11.4490   74.2980   26.6660 C.3     9  A9          0.1773
    173  O4'       10.1960   73.5570   26.5370 O.3     9  A9         -0.3307
    174  C3'       11.2230   75.6570   26.0090 C.3     9  A9          0.1860
    175  O3'       11.4680   75.5500   24.5970 O.3     9  A9         -0.3112
    176  C2'        9.7270   75.8630   26.2360 C.3     9  A9          0.2309
    177  O2'        9.1370   76.7890   25.3500 O.3     9  A9         -0.2156
    178  C1'        9.2060   74.4350   25.9890 C.3     9  A9          0.2408
    179  N1         6.5990   74.0900   30.4790 N.ar    9  A9         -0.2040
    180  C2         7.8790   74.4360   30.2360 C.ar    9  A9          0.2016
    181  N3         8.5000   74.5170   29.0610 N.ar    9  A9         -0.2048
    182  C4         7.7110   74.1870   28.0410 C.ar    9  A9          0.1692
    183  C5         6.3670   73.8150   28.1570 C.ar    9  A9          0.1518
    184  C6         5.7900   73.7670   29.4360 C.ar    9  A9          0.1919
    185  N6         4.5070   73.3710   29.6760 N.pl3   9  A9         -0.1054
    186  N7         5.8490   73.5530   26.9030 N.ar    9  A9         -0.2193
    187  C8         6.8320   73.7340   26.0530 C.ar    9  A9          0.1816
    188  N9         7.9790   74.1560   26.6800 N.ar    9  A9         -0.2693
    189  OP1       13.3780   76.5330   29.7820 O.2     9  A9         -0.5172
    190  OP2       14.2850   74.1410   30.1490 O.co2   9  A9         -0.4373
    191  P         12.8080   76.1480   23.9090 P.3    10  G10         0.2141
    192  C5'       11.2840   76.2450   21.8360 C.3    10  G10         0.1812
    193  O5'       12.2380   76.9180   22.6480 O.3    10  G10        -0.3114
    194  C4'       10.1880   77.1410   21.3040 C.3    10  G10         0.1773
    195  O4'        9.2770   77.5560   22.3570 O.3    10  G10        -0.3307
    196  C3'       10.6590   78.4240   20.6290 C.3    10  G10         0.1860
    197  O3'        9.7190   78.7110   19.6200 O.3    10  G10        -0.3112
    198  C2'       10.4760   79.4490   21.7300 C.3    10  G10         0.2309
    199  O2'       10.3590   80.7560   21.2510 O.3    10  G10        -0.2156
    200  C1'        9.1490   78.9690   22.3150 C.3    10  G10         0.2408
    201  N1         5.4390   80.3580   25.5500 N.ar   10  G10        -0.1709
    202  C2         5.3770   79.9150   24.2570 C.ar   10  G10         0.2606
    203  N2         4.1560   79.7870   23.7310 N.pl3  10  G10        -0.0859
    204  N3         6.4420   79.5640   23.5320 N.ar   10  G10        -0.1918
    205  C4         7.5960   79.7430   24.1790 C.ar   10  G10         0.1723
    206  C5         7.7710   80.1820   25.4670 C.ar   10  G10         0.1748
    207  C6         6.6250   80.5320   26.2480 C.ar   10  G10         0.3023
    208  O6         6.5350   80.9420   27.4110 O.2    10  G10        -0.2633
    209  N7         9.1410   80.1930   25.7380 N.ar   10  G10        -0.2173
    210  C8         9.7430   79.7650   24.6470 C.ar   10  G10         0.1817
    211  N9         8.8460   79.4760   23.6580 N.ar   10  G10        -0.2693
    212  OP1       13.3610   74.8400   23.3720 O.2    10  G10        -0.5172
    213  OP2       13.4750   77.0460   24.8910 O.co2  10  G10        -0.4373
    214  P         10.1560   79.4080   18.2470 P.3    11  U11         0.2141
    215  C5'        9.7810   77.0720   17.0670 C.3    11  U11         0.1812
    216  O5'        9.4560   78.4620   17.1690 O.3    11  U11        -0.3114
    217  C4'        8.6380   76.3100   16.4590 C.3    11  U11         0.1773
    218  O4'        7.6280   76.1160   17.4850 O.3    11  U11        -0.3307
    219  C3'        7.9300   77.0250   15.2970 C.3    11  U11         0.1860
    220  O3'        7.3490   76.0900   14.3880 O.3    11  U11        -0.3112
    221  C2'        6.7560   77.6870   15.9890 C.3    11  U11         0.2309
    222  O2'        5.6640   77.9120   15.1310 O.3    11  U11        -0.2156
    223  C1'        6.3960   76.6260   17.0200 C.3    11  U11         0.2420
    224  N1         5.6050   77.1200   18.1570 N.ar   11  U11        -0.2534
    225  C2         4.2370   76.9500   18.0560 C.ar   11  U11         0.3546
    226  O2         3.7000   76.4380   17.0840 O.2    11  U11        -0.2443
    227  N3         3.5300   77.3840   19.1370 N.ar   11  U11        -0.1530
    228  C4         4.0760   77.9770   20.2650 C.ar   11  U11         0.2846
    229  O4         3.3410   78.3220   21.1760 O.2    11  U11        -0.2650
    230  C5         5.5050   78.1090   20.2920 C.ar   11  U11         0.0814
    231  C6         6.2000   77.6930   19.2370 C.ar   11  U11         0.0870
    232  OP1       11.6330   79.3910   18.1920 O.3    11  U11        -0.4373
    233  OP2        9.4240   80.6960   18.1040 O.co2  11  U11        -0.5172
    234  P          8.2170   75.2130   13.3610 P.3    12  U12         0.2141
    235  C5'        8.7420   72.9880   14.6830 C.3    12  U12         0.1812
    236  O5'        7.8850   73.7050   13.8030 O.3    12  U12        -0.3114
    237  C4'        8.0850   72.4150   15.9450 C.3    12  U12         0.1773
    238  O4'        7.1350   73.3060   16.6000 O.3    12  U12        -0.3307
    239  C3'        7.3960   71.0390   15.8870 C.3    12  U12         0.1860
    240  O3'        8.2200   70.0640   16.4960 O.3    12  U12        -0.3112
    241  C2'        6.1390   71.2060   16.7640 C.3    12  U12         0.2309
    242  O2'        5.9560   70.1810   17.7140 O.3    12  U12        -0.2156
    243  C1'        6.3940   72.5250   17.4920 C.3    12  U12         0.2420
    244  N1         5.1690   73.1990   17.9870 N.ar   12  U12        -0.2534
    245  C2         5.2950   73.8450   19.2190 C.ar   12  U12         0.3546
    246  O2         6.3730   73.9450   19.8350 O.2    12  U12        -0.2443
    247  N3         4.1220   74.3960   19.6900 N.ar   12  U12        -0.1530
    248  C4         2.8580   74.3380   19.0620 C.ar   12  U12         0.2846
    249  O4         1.9030   74.9070   19.5990 O.2    12  U12        -0.2650
    250  C5         2.8090   73.6170   17.8200 C.ar   12  U12         0.0814
    251  C6         3.9550   73.0710   17.3410 C.ar   12  U12         0.0870
    252  OP1        9.6480   75.5830   13.5370 O.3    12  U12        -0.4373
    253  OP2        7.5350   75.4010   12.0520 O.co2  12  U12        -0.5172
    254  P          9.0310   69.0550   15.5450 P.3    13  A13         0.2141
    255  C5'       11.2510   69.8960   16.6800 C.3    13  A13         0.1812
    256  O5'       10.3770   68.8080   16.3690 O.3    13  A13        -0.3114
    257  C4'       12.6940   69.4420   16.6700 C.3    13  A13         0.1773
    258  O4'       12.8440   68.3100   17.5800 O.3    13  A13        -0.3307
    259  C3'       13.1780   68.9440   15.3300 C.3    13  A13         0.1860
    260  O3'       14.5980   69.0710   15.3620 O.3    13  A13        -0.3112
    261  C2'       12.7860   67.4600   15.4120 C.3    13  A13         0.2309
    262  O2'       13.3960   66.6040   14.4690 O.3    13  A13        -0.2156
    263  C1'       13.2040   67.1530   16.8430 C.3    13  A13         0.2408
    264  N1        13.6430   63.1290   20.0400 N.ar   13  A13        -0.2040
    265  C2        14.5450   64.0540   19.6420 C.ar   13  A13         0.2016
    266  N3        14.3670   65.0810   18.7860 N.ar   13  A13        -0.2048
    267  C4        13.1180   65.1240   18.3450 C.ar   13  A13         0.1692
    268  C5        12.1080   64.2480   18.6900 C.ar   13  A13         0.1518
    269  C6        12.4040   63.2060   19.5510 C.ar   13  A13         0.1919
    270  N6        11.4650   62.3390   19.9080 N.pl3  13  A13        -0.1054
    271  N7        10.9530   64.5530   18.0400 N.ar   13  A13        -0.2193
    272  C8        11.2340   65.6160   17.3320 C.ar   13  A13         0.1816
    273  N9        12.5460   66.0060   17.4590 N.ar   13  A13        -0.2693
    274  OP1        9.4270   69.8320   14.3200 O.2    13  A13        -0.5172
    275  OP2        8.2630   67.7460   15.4810 O.co2  13  A13        -0.4373
    276  P         15.4460   69.7560   14.1810 P.3    14  G14         0.2141
    277  C5'       14.9000   72.2260   14.8220 C.3    14  G14         0.1812
    278  O5'       15.8440   71.1630   14.7750 O.3    14  G14        -0.3114
    279  C4'       15.2900   73.1860   15.9110 C.3    14  G14         0.1773
    280  O4'       14.9170   72.6070   17.1820 O.3    14  G14        -0.3307
    281  C3'       16.7880   73.4240   16.0580 C.3    14  G14         0.1860
    282  O3'       17.2980   74.3730   15.1490 O.3    14  G14        -0.3112
    283  C2'       16.9050   73.8440   17.5090 C.3    14  G14         0.2309
    284  O2'       16.4710   75.1740   17.6790 O.3    14  G14        -0.2156
    285  C1'       15.8440   72.9640   18.1620 C.3    14  G14         0.2408
    286  N1        18.6200   70.7460   21.7960 N.ar   14  G14        -0.1709
    287  C2        18.4490   72.0970   21.5560 C.ar   14  G14         0.2606
    288  N2        19.0640   72.9310   22.4080 N.pl3  14  G14        -0.0859
    289  N3        17.7140   72.5840   20.5620 N.ar   14  G14        -0.1918
    290  C4        17.1510   71.6010   19.8300 C.ar   14  G14         0.1723
    291  C5        17.2800   70.2530   19.9580 C.ar   14  G14         0.1748
    292  C6        18.0830   69.7450   20.9940 C.ar   14  G14         0.3023
    293  O6        18.2520   68.5490   21.2850 O.2    14  G14        -0.2633
    294  N7        16.5640   69.5620   18.9800 N.ar   14  G14        -0.2173
    295  C8        16.0280   70.4890   18.2660 C.ar   14  G14         0.1817
    296  N9        16.3680   71.7320   18.7300 N.ar   14  G14        -0.2693
    297  OP1       14.5350   70.0280   13.0480 O.2    14  G14        -0.5172
    298  OP2       16.6710   68.9040   14.0700 O.co2  14  G14        -0.4373
    299  P         18.7940   74.2460   14.5700 P.3    15  C15         0.2141
    300  C5'       19.5750   76.0140   16.3500 C.3    15  C15         0.1812
    301  O5'       19.7340   74.7360   15.7680 O.3    15  C15        -0.3114
    302  C4'       20.4470   76.1610   17.5640 C.3    15  C15         0.1773
    303  O4'       19.9020   75.3270   18.6320 O.3    15  C15        -0.3307
    304  C3'       21.8740   75.6360   17.4030 C.3    15  C15         0.1860
    305  O3'       22.7530   76.4990   16.7090 O.3    15  C15        -0.3112
    306  C2'       22.2810   75.3320   18.8320 C.3    15  C15         0.2309
    307  O2'       22.6170   76.5010   19.5580 O.3    15  C15        -0.2156
    308  C1'       20.9700   74.7820   19.4000 C.3    15  C15         0.2420
    309  N1        20.9440   73.3140   19.3140 N.ar   15  C15        -0.2535
    310  C2        21.6010   72.5680   20.2930 C.ar   15  C15         0.3532
    311  O2        22.1840   73.1320   21.2190 O.2    15  C15        -0.2443
    312  N3        21.5560   71.2170   20.2630 N.ar   15  C15        -0.1739
    313  C4        20.9440   70.6010   19.2620 C.ar   15  C15         0.1759
    314  N4        20.9480   69.2550   19.2780 N.pl3  15  C15        -0.1070
    315  C5        20.2970   71.3330   18.2410 C.ar   15  C15         0.0566
    316  C6        20.3060   72.6680   18.2870 C.ar   15  C15         0.0850
    317  OP1       18.7900   75.1910   13.4440 O.2    15  C15        -0.5172
    318  OP2       19.2080   72.8690   14.2900 O.co2  15  C15        -0.4373
    319  P         24.0800   75.9270   15.9780 P.3    16  G16         0.2141
    320  C5'       25.4830   76.4180   18.1160 C.3    16  G16         0.1812
    321  O5'       25.0310   75.4770   17.1510 O.3    16  G16        -0.3114
    322  C4'       26.2560   75.7510   19.2230 C.3    16  G16         0.1773
    323  O4'       25.4030   74.9000   20.0430 O.3    16  G16        -0.3307
    324  C3'       27.3790   74.8240   18.8150 C.3    16  G16         0.1860
    325  O3'       28.5210   75.5440   18.4020 O.3    16  G16        -0.3112
    326  C2'       27.6090   74.0610   20.1100 C.3    16  G16         0.2309
    327  O2'       28.2210   74.9220   21.0550 O.3    16  G16        -0.2156
    328  C1'       26.1770   73.8560   20.5850 C.3    16  G16         0.2408
    329  N1        25.7790   68.7930   20.9700 N.ar   16  G16        -0.1709
    330  C2        26.5180   69.6230   21.7530 C.ar   16  G16         0.2606
    331  N2        27.2200   69.0630   22.7530 N.pl3  16  G16        -0.0859
    332  N3        26.5590   70.9430   21.5840 N.ar   16  G16        -0.1918
    333  C4        25.8330   71.3450   20.5220 C.ar   16  G16         0.1723
    334  C5        25.0960   70.5960   19.6890 C.ar   16  G16         0.1748
    335  C6        25.0260   69.2010   19.8840 C.ar   16  G16         0.3023
    336  O6        24.3580   68.4340   19.1730 O.2    16  G16        -0.2633
    337  N7        24.4770   71.3550   18.7340 N.ar   16  G16        -0.2173
    338  C8        24.8130   72.5870   18.9740 C.ar   16  G16         0.1817
    339  N9        25.6250   72.6180   20.0580 N.ar   16  G16        -0.2693
    340  OP1       24.6280   77.1500   15.3620 O.3    16  G16        -0.4373
    341  OP2       23.8540   74.7700   15.0540 O.co2  16  G16        -0.5172
    342  P         29.6180   74.8700   17.4550 P.3    17  A17         0.2141
    343  C5'       31.0220   74.0910   19.5250 C.3    17  A17         0.1812
    344  O5'       30.2670   73.7440   18.3720 O.3    17  A17        -0.3114
    345  C4'       31.4520   72.8450   20.2660 C.3    17  A17         0.1773
    346  O4'       30.2950   72.1140   20.7520 O.3    17  A17        -0.3307
    347  C3'       32.1770   71.8130   19.4240 C.3    17  A17         0.1860
    348  O3'       33.5350   72.1700   19.2080 O.3    17  A17        -0.3112
    349  C2'       32.0130   70.5580   20.2620 C.3    17  A17         0.2309
    350  O2'       32.8620   70.6230   21.3960 O.3    17  A17        -0.2156
    351  C1'       30.5810   70.7200   20.7570 C.3    17  A17         0.2408
    352  N1        28.1790   66.3470   19.3220 N.ar   17  A17        -0.2040
    353  C2        29.0760   66.6110   20.2850 C.ar   17  A17         0.2016
    354  N3        29.6670   67.7510   20.6330 N.ar   17  A17        -0.2048
    355  C4        29.2650   68.7370   19.8200 C.ar   17  A17         0.1692
    356  C5        28.3450   68.6320   18.7980 C.ar   17  A17         0.1518
    357  C6        27.7970   67.3790   18.5500 C.ar   17  A17         0.1919
    358  N6        26.9230   67.1690   17.5840 N.pl3  17  A17        -0.1054
    359  N7        28.1460   69.8400   18.1690 N.ar   17  A17        -0.2193
    360  C8        28.9280   70.6620   18.8360 C.ar   17  A17         0.1816
    361  N9        29.6240   70.0480   19.8500 N.ar   17  A17        -0.2693
    362  OP1       30.5840   75.9590   17.1400 O.3    17  A17        -0.4373
    363  OP2       29.0380   74.0590   16.3850 O.co2  17  A17        -0.5172
    364  P         34.3010   71.7850   17.8430 P.3    18  G18         0.2141
    365  C5'       35.3420   69.6100   18.8000 C.3    18  G18         0.1812
    366  O5'       34.4150   70.2120   17.9140 O.3    18  G18        -0.3114
    367  C4'       35.0640   68.1460   19.0040 C.3    18  G18         0.1773
    368  O4'       33.6920   67.9770   19.4430 O.3    18  G18        -0.3307
    369  C3'       35.1770   67.2170   17.7950 C.3    18  G18         0.1860
    370  O3'       36.5160   66.8620   17.4590 O.3    18  G18        -0.3112
    371  C2'       34.3310   66.0260   18.2380 C.3    18  G18         0.2309
    372  O2'       35.0380   65.1860   19.1460 O.3    18  G18        -0.2156
    373  C1'       33.1940   66.7330   18.9970 C.3    18  G18         0.2408
    374  N1        29.6230   64.4790   16.3980 N.ar   18  G18        -0.1709
    375  C2        30.5540   63.9820   17.2830 C.ar   18  G18         0.2606
    376  N2        30.4990   62.6710   17.5030 N.pl3  18  G18        -0.0859
    377  N3        31.4320   64.7240   17.9140 N.ar   18  G18        -0.1918
    378  C4        31.3140   66.0100   17.5670 C.ar   18  G18         0.1723
    379  C5        30.4430   66.6340   16.6870 C.ar   18  G18         0.1748
    380  C6        29.5020   65.8220   16.0250 C.ar   18  G18         0.3023
    381  O6        28.6270   66.1090   15.2080 O.2    18  G18        -0.2633
    382  N7        30.7270   68.0020   16.6370 N.ar   18  G18        -0.2173
    383  C8        31.7410   68.1810   17.4610 C.ar   18  G18         0.1817
    384  N9        32.0930   66.9970   18.0690 N.ar   18  G18        -0.2693
    385  OP1       35.6280   72.4020   18.0390 O.3    18  G18        -0.4373
    386  OP2       33.5190   72.1030   16.6180 O.co2  18  G18        -0.5172
    387  P         36.9600   66.5500   15.9340 P.3    19  G19         0.2141
    388  C5'       36.4800   64.0040   16.3760 C.3    19  G19         0.1812
    389  O5'       36.3080   65.1570   15.5670 O.3    19  G19        -0.3114
    390  C4'       35.6320   62.8750   15.8700 C.3    19  G19         0.1773
    391  O4'       34.2390   63.1550   16.1930 O.3    19  G19        -0.3307
    392  C3'       35.6190   62.6710   14.3590 C.3    19  G19         0.1860
    393  O3'       36.7500   61.9570   13.8660 O.3    19  G19        -0.3112
    394  C2'       34.2860   61.9610   14.1440 C.3    19  G19         0.2309
    395  O2'       34.3710   60.6080   14.5600 O.3    19  G19        -0.2156
    396  C1'       33.4010   62.6850   15.1570 C.3    19  G19         0.2408
    397  N1        29.5990   64.2060   12.2360 N.ar   19  G19        -0.1709
    398  C2        29.9870   62.9380   12.5840 C.ar   19  G19         0.2606
    399  N2        29.2690   61.9400   12.0740 N.pl3  19  G19        -0.0859
    400  N3        31.0150   62.6740   13.3610 N.ar   19  G19        -0.1918
    401  C4        31.6370   63.7940   13.7670 C.ar   19  G19         0.1723
    402  C5        31.3410   65.1020   13.4900 C.ar   19  G19         0.1748
    403  C6        30.2340   65.3720   12.6590 C.ar   19  G19         0.3023
    404  O6        29.7990   66.4630   12.2960 O.2    19  G19        -0.2633
    405  N7        32.2410   65.9530   14.1080 N.ar   19  G19        -0.2173
    406  C8        33.0560   65.1700   14.7620 C.ar   19  G19         0.1817
    407  N9        32.7170   63.8500   14.5750 N.ar   19  G19        -0.2693
    408  OP1       38.4400   66.4530   16.0140 O.3    19  G19        -0.4373
    409  OP2       36.4180   67.5360   14.9740 O.co2  19  G19        -0.5172
    410  P         37.3410   62.1990   12.3710 P.3    20  U20         0.2141
    411  C5'       35.7500   60.3620   11.3380 C.3    20  U20         0.1812
    412  O5'       36.2130   61.7000   11.3650 O.3    20  U20        -0.3114
    413  C4'       34.4990   60.2340   10.4900 C.3    20  U20         0.1773
    414  O4'       33.4060   60.9900   11.0850 O.3    20  U20        -0.3307
    415  C3'       34.5890   60.7740    9.0660 C.3    20  U20         0.1860
    416  O3'       35.1900   59.8520    8.1710 O.3    20  U20        -0.3112
    417  C2'       33.1360   61.0650    8.7190 C.3    20  U20         0.2309
    418  O2'       32.4410   59.8730    8.3780 O.3    20  U20        -0.2156
    419  C1'       32.5930   61.5470   10.0620 C.3    20  U20         0.2420
    420  N1        32.6010   63.0210   10.1820 N.ar   20  U20        -0.2534
    421  C2        31.5480   63.6940    9.5920 C.ar   20  U20         0.3546
    422  O2        30.6500   63.1230    8.9830 O.2    20  U20        -0.2443
    423  N3        31.5650   65.0610    9.7520 N.ar   20  U20        -0.1530
    424  C4        32.5120   65.7760   10.4500 C.ar   20  U20         0.2846
    425  O4        32.4040   67.0040   10.4880 O.2    20  U20        -0.2650
    426  C5        33.6080   65.0040   10.9990 C.ar   20  U20         0.0814
    427  C6        33.6150   63.6700   10.8610 C.ar   20  U20         0.0870
    428  OP1       38.4960   61.2590   12.2650 O.3    20  U20        -0.4373
    429  OP2       37.5920   63.6140   12.0530 O.co2  20  U20        -0.5172
    430  P         36.0930   60.3650    6.9430 P.3    21  C21         0.2141
    431  C5'       34.1660   59.9070    5.2390 C.3    21  C21         0.1812
    432  O5'       35.0380   60.8430    5.8550 O.3    21  C21        -0.3114
    433  C4'       33.0630   60.6110    4.5070 C.3    21  C21         0.1773
    434  O4'       32.2920   61.3940    5.4530 O.3    21  C21        -0.3307
    435  C3'       33.5070   61.6280    3.4680 C.3    21  C21         0.1860
    436  O3'       33.8560   61.0480    2.2180 O.3    21  C21        -0.3112
    437  C2'       32.3110   62.5540    3.3820 C.3    21  C21         0.2309
    438  O2'       31.2940   61.9650    2.5860 O.3    21  C21        -0.2156
    439  C1'       31.8460   62.5830    4.8430 C.3    21  C21         0.2420
    440  N1        32.3910   63.7420    5.5970 N.ar   21  C21        -0.2535
    441  C2        31.8010   64.9670    5.3660 C.ar   21  C21         0.3532
    442  O2        30.8590   65.0020    4.5520 O.2    21  C21        -0.2443
    443  N3        32.2330   66.0660    6.0200 N.ar   21  C21        -0.1739
    444  C4        33.2430   65.9600    6.8740 C.ar   21  C21         0.1759
    445  N4        33.6300   67.0740    7.4670 N.pl3  21  C21        -0.1070
    446  C5        33.8950   64.7220    7.1340 C.ar   21  C21         0.0566
    447  C6        33.4340   63.6410    6.4740 C.ar   21  C21         0.0850
    448  OP1       36.7270   59.1400    6.3880 O.2    21  C21        -0.5172
    449  OP2       36.9770   61.4910    7.3980 O.co2  21  C21        -0.4373
    450  P         35.1100   61.6150    1.3760 P.3    22  U22         0.2141
    451  C5'       33.3530   62.8810   -0.0980 C.3    22  U22         0.1812
    452  O5'       34.5500   62.9300    0.6630 O.3    22  U22        -0.3114
    453  C4'       32.8020   64.2540   -0.3850 C.3    22  U22         0.1773
    454  O4'       32.1590   64.7950    0.7980 O.3    22  U22        -0.3307
    455  C3'       33.8160   65.3170   -0.7630 C.3    22  U22         0.1860
    456  O3'       34.2360   65.2460   -2.1070 O.3    22  U22        -0.3112
    457  C2'       33.0780   66.6040   -0.4410 C.3    22  U22         0.2309
    458  O2'       32.1330   66.9030   -1.4520 O.3    22  U22        -0.2156
    459  C1'       32.3340   66.2020    0.8350 C.3    22  U22         0.2420
    460  N1        33.1530   66.5480    2.0160 N.ar   22  U22        -0.2534
    461  C2        33.0840   67.8680    2.3870 C.ar   22  U22         0.3546
    462  O2        32.3680   68.6640    1.8160 O.2    22  U22        -0.2443
    463  N3        33.8620   68.2070    3.4510 N.ar   22  U22        -0.1530
    464  C4        34.6850   67.3570    4.1600 C.ar   22  U22         0.2846
    465  O4        35.3130   67.8390    5.1010 O.2    22  U22        -0.2650
    466  C5        34.7210   65.9950    3.7140 C.ar   22  U22         0.0814
    467  C6        33.9740   65.6420    2.6620 C.ar   22  U22         0.0870
    468  OP1       35.4190   60.5780    0.3510 O.2    22  U22        -0.5172
    469  OP2       36.1780   62.0460    2.3270 O.co2  22  U22        -0.4373
    470  P         35.7690   65.5770   -2.4670 P.3    23  G23         0.2141
    471  C5'       35.0250   67.8690   -3.4110 C.3    23  G23         0.1812
    472  O5'       35.8360   67.1690   -2.4930 O.3    23  G23        -0.3114
    473  C4'       34.8480   69.3020   -3.0100 C.3    23  G23         0.1773
    474  O4'       34.2370   69.3990   -1.6940 O.3    23  G23        -0.3307
    475  C3'       36.1250   70.1120   -2.8780 C.3    23  G23         0.1860
    476  O3'       36.6560   70.5010   -4.1400 O.3    23  G23        -0.3112
    477  C2'       35.6620   71.2790   -2.0150 C.3    23  G23         0.2309
    478  O2'       34.9070   72.2000   -2.7840 O.3    23  G23        -0.2156
    479  C1'       34.7010   70.5720   -1.0520 C.3    23  G23         0.2408
    480  N1        36.6170   72.4280    3.2260 N.ar   23  G23        -0.1709
    481  C2        35.9490   73.0760    2.2070 C.ar   23  G23         0.2606
    482  N2        35.7610   74.4020    2.3210 N.pl3  23  G23        -0.0859
    483  N3        35.4840   72.4620    1.1280 N.ar   23  G23        -0.1918
    484  C4        35.7570   71.1310    1.1480 C.ar   23  G23         0.1723
    485  C5        36.3980   70.3950    2.0990 C.ar   23  G23         0.1748
    486  C6        36.8770   71.0480    3.2440 C.ar   23  G23         0.3023
    487  O6        37.4570   70.4740    4.1760 O.2    23  G23        -0.2633
    488  N7        36.4580   69.0470    1.7510 N.ar   23  G23        -0.2173
    489  C8        35.8460   68.9750    0.5920 C.ar   23  G23         0.1817
    490  N9        35.4020   70.2060    0.1890 N.ar   23  G23        -0.2693
    491  OP1       35.9020   65.0810   -3.8670 O.2    23  G23        -0.5172
    492  OP2       36.6890   65.0930   -1.3830 O.co2  23  G23        -0.4373
    493  P         38.2300   70.8420   -4.3040 P.3    24  U24         0.2141
    494  C5'       37.7710   73.4130   -3.9380 C.3    24  U24         0.1812
    495  O5'       38.4340   72.2220   -3.5360 O.3    24  U24        -0.3114
    496  C4'       38.0250   74.5080   -2.9380 C.3    24  U24         0.1773
    497  O4'       37.5520   74.0790   -1.6390 O.3    24  U24        -0.3307
    498  C3'       39.4850   74.8340   -2.6870 C.3    24  U24         0.1860
    499  O3'       40.0450   75.6760   -3.6770 O.3    24  U24        -0.3112
    500  C2'       39.4610   75.4460   -1.2910 C.3    24  U24         0.2309
    501  O2'       39.0310   76.7980   -1.3370 O.3    24  U24        -0.2156
    502  C1'       38.3620   74.6280   -0.6220 C.3    24  U24         0.2420
    503  N1        38.8810   73.5210    0.2070 N.ar   24  U24        -0.2534
    504  C2        39.3720   73.8380    1.4620 C.ar   24  U24         0.3546
    505  O2        39.4210   74.9840    1.8990 O.2    24  U24        -0.2443
    506  N3        39.8000   72.7700    2.1920 N.ar   24  U24        -0.1530
    507  C4        39.7770   71.4520    1.7940 C.ar   24  U24         0.2846
    508  O4        40.2020   70.5920    2.5610 O.2    24  U24        -0.2650
    509  C5        39.2610   71.2050    0.4760 C.ar   24  U24         0.0814
    510  C6        38.8310   72.2300   -0.2590 C.ar   24  U24         0.0870
    511  OP1       38.5280   71.1050   -5.7300 O.2    24  U24        -0.5172
    512  OP2       38.9550   69.7800   -3.5680 O.co2  24  U24        -0.4373
    513  P         41.6240   75.5930   -3.9910 P.3    25  C25         0.2141
    514  C5'       42.0280   77.6280   -2.3920 C.3    25  C25         0.1812
    515  O5'       42.2910   76.2720   -2.7140 O.3    25  C25        -0.3114
    516  C4'       42.6620   77.9800   -1.0760 C.3    25  C25         0.1773
    517  O4'       42.0200   77.2180   -0.0240 O.3    25  C25        -0.3307
    518  C3'       44.1270   77.6040   -0.9530 C.3    25  C25         0.1860
    519  O3'       44.9860   78.5600   -1.5560 O.3    25  C25        -0.3112
    520  C2'       44.3070   77.4580    0.5550 C.3    25  C25         0.2309
    521  O2'       44.4300   78.7320    1.1740 O.3    25  C25        -0.2156
    522  C1'       42.9610   76.8620    0.9620 C.3    25  C25         0.2420
    523  N1        43.0170   75.3910    1.0560 N.ar   25  C25        -0.2535
    524  C2        43.3540   74.8670    2.3050 C.ar   25  C25         0.3532
    525  O2        43.5500   75.6830    3.2140 O.2    25  C25        -0.2443
    526  N3        43.4400   73.5250    2.4780 N.ar   25  C25        -0.1739
    527  C4        43.2030   72.7190    1.4310 C.ar   25  C25         0.1759
    528  N4        43.2770   71.3930    1.6070 N.pl3  25  C25        -0.1070
    529  C5        42.8720   73.2450    0.1460 C.ar   25  C25         0.0566
    530  C6        42.7880   74.5700   -0.0080 C.ar   25  C25         0.0850
    531  OP1       41.8340   76.4840   -5.1650 O.2    25  C25        -0.5172
    532  OP2       42.0460   74.1840   -4.0390 O.co2  25  C25        -0.4373
    533  P         46.4660   78.1450   -2.0290 P.3    26  U26         0.2141
    534  C5'       47.3390   76.3710   -3.7500 C.3    26  U26         0.1812
    535  O5'       46.2440   76.9570   -3.0640 O.3    26  U26        -0.3114
    536  C4'       47.1170   74.9020   -3.9880 C.3    26  U26         0.1773
    537  O4'       47.4930   74.1590   -2.7950 O.3    26  U26        -0.3307
    538  C3'       45.6770   74.4940   -4.3080 C.3    26  U26         0.1860
    539  O3'       45.7160   73.3400   -5.1420 O.3    26  U26        -0.3112
    540  C2'       45.1450   74.0730   -2.9420 C.3    26  U26         0.2309
    541  O2'       44.0480   73.1830   -2.9870 O.3    26  U26        -0.2156
    542  C1'       46.3850   73.4060   -2.3370 C.3    26  U26         0.2420
    543  N1        46.4190   73.3940   -0.8690 N.ar   26  U26        -0.2534
    544  C2        46.3080   72.1510   -0.2810 C.ar   26  U26         0.3546
    545  O2        46.1760   71.1230   -0.9350 O.2    26  U26        -0.2443
    546  N3        46.3460   72.1560    1.0920 N.ar   26  U26        -0.1530
    547  C4        46.4790   73.2590    1.9000 C.ar   26  U26         0.2846
    548  O4        46.5050   73.0810    3.1200 O.2    26  U26        -0.2650
    549  C5        46.5820   74.5170    1.2070 C.ar   26  U26         0.0814
    550  C6        46.5510   74.5470   -0.1310 C.ar   26  U26         0.0870
    551  OP1       47.2020   77.5450   -0.8780 O.3    26  U26        -0.4373
    552  OP2       47.0070   79.3380   -2.7430 O.co2  26  U26        -0.5172
    553  P         45.7320   73.4720   -6.7430 P.3    27  C27         0.2141
    554  C5'       48.2090   72.5920   -6.9120 C.3    27  C27         0.1812
    555  O5'       47.2730   73.6430   -7.1180 O.3    27  C27        -0.3114
    556  C4'       49.6100   73.1350   -6.8170 C.3    27  C27         0.1773
    557  O4'       49.8280   73.7110   -5.4960 O.3    27  C27        -0.3307
    558  C3'       50.7080   72.1010   -7.0100 C.3    27  C27         0.1860
    559  O3'       51.8200   72.7550   -7.6140 O.3    27  C27        -0.3112
    560  C2'       51.0340   71.6960   -5.5740 C.3    27  C27         0.2309
    561  O2'       52.3030   71.0920   -5.3580 O.3    27  C27        -0.2156
    562  C1'       50.8790   73.0230   -4.8380 C.3    27  C27         0.2420
    563  N1        50.5080   72.8320   -3.4300 N.ar   27  C27        -0.2535
    564  C2        50.5780   73.9000   -2.5370 C.ar   27  C27         0.3532
    565  O2        50.9080   75.0310   -2.9620 O.2    27  C27        -0.2443
    566  N3        50.2400   73.6580   -1.2380 N.ar   27  C27        -0.1739
    567  C4        49.8670   72.4320   -0.8200 C.ar   27  C27         0.1759
    568  N4        49.5560   72.2650    0.4790 N.pl3  27  C27        -0.1070
    569  C5        49.8010   71.3230   -1.7220 C.ar   27  C27         0.0566
    570  C6        50.1320   71.5760   -2.9970 C.ar   27  C27         0.0850
    571  OP1       45.1160   74.7610   -7.1380 O.3    27  C27        -0.4373
    572  OP2       45.2940   72.1450   -7.2620 O.co2  27  C27        -0.5172
    573  P         52.0570   72.5990   -9.1940 P.3    28  G28         0.2141
    574  C5'       52.5530   70.4340  -10.5920 C.3    28  G28         0.1812
    575  O5'       52.4050   71.0560   -9.3320 O.3    28  G28        -0.3114
    576  C4'       53.0290   69.0240  -10.4020 C.3    28  G28         0.1773
    577  O4'       54.4330   69.0420  -10.0280 O.3    28  G28        -0.3307
    578  C3'       52.3370   68.2940   -9.2660 C.3    28  G28         0.1860
    579  O3'       51.1200   67.7050   -9.6750 O.3    28  G28        -0.3112
    580  C2'       53.3890   67.2960   -8.7910 C.3    28  G28         0.2309
    581  O2'       53.3980   66.1180   -9.5830 O.3    28  G28        -0.2156
    582  C1'       54.6840   68.0790   -9.0230 C.3    28  G28         0.2408
    583  N1        56.4780   67.6300   -4.2760 N.ar   28  G28        -0.1709
    584  C2        56.1860   66.6500   -5.2070 C.ar   28  G28         0.2606
    585  N2        56.3890   65.3770   -4.8450 N.pl3  28  G28        -0.0859
    586  N3        55.7210   66.8990   -6.4260 N.ar   28  G28        -0.1918
    587  C4        55.5650   68.2260   -6.6480 C.ar   28  G28         0.1723
    588  C5        55.8310   69.2820   -5.8020 C.ar   28  G28         0.1748
    589  C6        56.3390   68.9980   -4.5000 C.ar   28  G28         0.3023
    590  O6        56.6190   69.8120   -3.6120 O.2    28  G28        -0.2633
    591  N7        55.5500   70.5000   -6.4190 N.ar   28  G28        -0.2173
    592  C8        55.1190   70.1630   -7.6020 C.ar   28  G28         0.1817
    593  N9        55.1070   68.7990   -7.8040 N.ar   28  G28        -0.2693
    594  OP1       53.2270   73.4600   -9.5420 O.3    28  G28        -0.4373
    595  OP2       50.7580   72.7940   -9.9090 O.co2  28  G28        -0.5172
    596  P         49.8590   67.6510   -8.6810 P.3    29  A29         0.2141
    597  C5'       50.3990   65.1950   -7.8770 C.3    29  A29         0.1812
    598  O5'       50.2750   66.5760   -7.5820 O.3    29  A29        -0.3114
    599  C4'       51.0790   64.4840   -6.7330 C.3    29  A29         0.1773
    600  O4'       52.4100   65.0510   -6.5590 O.3    29  A29        -0.3307
    601  C3'       50.4330   64.6410   -5.3530 C.3    29  A29         0.1860
    602  O3'       49.3510   63.7520   -5.1080 O.3    29  A29        -0.3112
    603  C2'       51.6100   64.4190   -4.4170 C.3    29  A29         0.2309
    604  O2'       51.9150   63.0350   -4.3410 O.3    29  A29        -0.2156
    605  C1'       52.7290   65.1200   -5.1830 C.3    29  A29         0.2408
    606  N1        54.4010   68.4110   -1.6310 N.ar   29  A29        -0.2040
    607  C2        54.4870   67.0780   -1.7400 C.ar   29  A29         0.2016
    608  N3        54.0260   66.2750   -2.6980 N.ar   29  A29        -0.2048
    609  C4        53.4040   67.0060   -3.6510 C.ar   29  A29         0.1692
    610  C5        53.2420   68.3760   -3.6870 C.ar   29  A29         0.1518
    611  C6        53.7720   69.1030   -2.6010 C.ar   29  A29         0.1919
    612  N6        53.7030   70.4260   -2.4860 N.pl3  29  A29        -0.1054
    613  N7        52.5490   68.7640   -4.8310 N.ar   29  A29        -0.2193
    614  C8        52.3130   67.6340   -5.4530 C.ar   29  A29         0.1816
    615  N9        52.8130   66.5370   -4.7990 N.ar   29  A29        -0.2693
    616  OP1       48.7490   67.0210   -9.4530 O.2    29  A29        -0.5172
    617  OP2       49.6730   68.9750   -8.0070 O.co2  29  A29        -0.4373
    618  P         48.2910   64.0610   -3.9290 P.3    30  C30         0.2141
    619  C5'       48.9360   62.6220   -1.8480 C.3    30  C30         0.1812
    620  O5'       49.0950   63.8340   -2.5670 O.3    30  C30        -0.3114
    621  C4'       49.7730   62.5500   -0.5920 C.3    30  C30         0.1773
    622  O4'       51.0320   63.2600   -0.7460 O.3    30  C30        -0.3307
    623  C3'       49.2010   63.1520    0.6810 C.3    30  C30         0.1860
    624  O3'       48.1390   62.4130    1.2630 O.3    30  C30        -0.3112
    625  C2'       50.4410   63.2270    1.5580 C.3    30  C30         0.2309
    626  O2'       50.7920   61.9360    2.0450 O.3    30  C30        -0.2156
    627  C1'       51.4940   63.6660    0.5330 C.3    30  C30         0.2420
    628  N1        51.6700   65.1340    0.5700 N.ar   30  C30        -0.2535
    629  C2        52.3920   65.6500    1.6460 C.ar   30  C30         0.3532
    630  O2        52.8620   64.8550    2.4680 O.2    30  C30        -0.2443
    631  N3        52.5770   66.9820    1.7700 N.ar   30  C30        -0.1739
    632  C4        52.0570   67.8000    0.8680 C.ar   30  C30         0.1759
    633  N4        52.2620   69.1090    1.0320 N.pl3  30  C30        -0.1070
    634  C5        51.3000   67.3060   -0.2390 C.ar   30  C30         0.0566
    635  C6        51.1240   65.9780   -0.3510 C.ar   30  C30         0.0850
    636  OP1       47.2440   63.0070   -4.0070 O.2    30  C30        -0.5172
    637  OP2       47.9020   65.4940   -3.9880 O.co2  30  C30        -0.4373
    638  P         47.0290   63.1780    2.1480 P.3    31  A31         0.2141
    639  C5'       48.3450   62.2740    4.2320 C.3    31  A31         0.1812
    640  O5'       47.7340   63.3720    3.5660 O.3    31  A31        -0.3114
    641  C4'       49.2450   62.7400    5.3490 C.3    31  A31         0.1773
    642  O4'       50.3730   63.4750    4.7950 O.3    31  A31        -0.3307
    643  C3'       48.6330   63.7210    6.3330 C.3    31  A31         0.1860
    644  O3'       47.7690   63.1360    7.2930 O.3    31  A31        -0.3112
    645  C2'       49.8630   64.3930    6.9210 C.3    31  A31         0.2309
    646  O2'       50.5150   63.5280    7.8390 O.3    31  A31        -0.2156
    647  C1'       50.7380   64.5240    5.6720 C.3    31  A31         0.2408
    648  N1        51.4380   69.6030    6.0490 N.ar   31  A31        -0.2040
    649  C2        51.7890   68.5710    6.8290 C.ar   31  A31         0.2016
    650  N3        51.5800   67.2700    6.6450 N.ar   31  A31        -0.2048
    651  C4        50.8960   67.0460    5.5050 C.ar   31  A31         0.1692
    652  C5        50.4570   68.0000    4.6020 C.ar   31  A31         0.1518
    653  C6        50.7580   69.3420    4.9070 C.ar   31  A31         0.1919
    654  N6        50.4150   70.3830    4.1470 N.pl3  31  A31        -0.1054
    655  N7        49.7910   67.3880    3.5440 N.ar   31  A31        -0.2193
    656  C8        49.8410   66.1010    3.8260 C.ar   31  A31         0.1816
    657  N9        50.5020   65.8230    5.0020 N.ar   31  A31        -0.2693
    658  OP1       45.8740   62.2550    2.2750 O.3    31  A31        -0.4373
    659  OP2       46.8180   64.5520    1.6270 O.co2  31  A31        -0.5172
    660  P         46.4180   63.9160    7.6940 P.3    32  C32         0.2141
    661  C5'       47.6820   65.0460    9.6990 C.3    32  C32         0.1812
    662  O5'       46.9210   65.1920    8.5110 O.3    32  C32        -0.3114
    663  C4'       48.2510   66.3610   10.1760 C.3    32  C32         0.1773
    664  O4'       49.0430   66.9950    9.1290 O.3    32  C32        -0.3307
    665  C3'       47.2650   67.4480   10.5770 C.3    32  C32         0.1860
    666  O3'       46.6490   67.2320   11.8430 O.3    32  C32        -0.3112
    667  C2'       48.1440   68.6950   10.5320 C.3    32  C32         0.2309
    668  O2'       48.9830   68.7580   11.6760 O.3    32  C32        -0.2156
    669  C1'       49.0240   68.4030    9.3110 C.3    32  C32         0.2420
    670  N1        48.5010   69.0630    8.0870 N.ar   32  C32        -0.2535
    671  C2        48.5080   70.4700    7.9790 C.ar   32  C32         0.3532
    672  O2        48.9530   71.1810    8.8910 O.2    32  C32        -0.2443
    673  N3        48.0180   71.0640    6.8690 N.ar   32  C32        -0.1739
    674  C4        47.5320   70.3200    5.8820 C.ar   32  C32         0.1759
    675  N4        47.0570   70.9600    4.8160 N.pl3  32  C32        -0.1070
    676  C5        47.5080   68.8970    5.9530 C.ar   32  C32         0.0566
    677  C6        47.9940   68.3170    7.0620 C.ar   32  C32         0.0850
    678  OP1       45.6050   63.0620    8.5950 O.3    32  C32        -0.4373
    679  OP2       45.8330   64.4440    6.4370 O.co2  32  C32        -0.5172
    680  P         45.0920   67.5990   12.0950 P.3    33  G33         0.2141
    681  C5'       45.7650   70.0510   12.6950 C.3    33  G33         0.1812
    682  O5'       44.9930   69.1760   11.8940 O.3    33  G33        -0.3114
    683  C4'       45.8430   71.4300   12.0890 C.3    33  G33         0.1773
    684  O4'       46.5190   71.3910   10.8020 O.3    33  G33        -0.3307
    685  C3'       44.5190   72.1000   11.7820 C.3    33  G33         0.1860
    686  O3'       43.9120   72.6440   12.9370 O.3    33  G33        -0.3112
    687  C2'       44.9180   73.1460   10.7510 C.3    33  G33         0.2309
    688  O2'       45.5330   74.2600   11.3850 O.3    33  G33        -0.2156
    689  C1'       45.9820   72.3850    9.9510 C.3    33  G33         0.2408
    690  N1        44.0680   72.9370    5.2160 N.ar   33  G33        -0.1709
    691  C2        44.5440   73.8920    6.0950 C.ar   33  G33         0.2606
    692  N2        44.5140   75.1680    5.6860 N.pl3  33  G33        -0.0859
    693  N3        45.0150   73.6260    7.3080 N.ar   33  G33        -0.1918
    694  C4        44.9940   72.3070    7.5850 C.ar   33  G33         0.1723
    695  C5        44.5420   71.2750    6.7840 C.ar   33  G33         0.1748
    696  C6        44.0380   71.5640    5.4840 C.ar   33  G33         0.3023
    697  O6        43.6060   70.7520    4.6440 O.2    33  G33        -0.2633
    698  N7        44.6810   70.0550    7.4290 N.ar   33  G33        -0.2173
    699  C8        45.2020   70.3740    8.5850 C.ar   33  G33         0.1817
    700  N9        45.4140   71.7210    8.7530 N.ar   33  G33        -0.2693
    701  OP1       44.7790   67.3710   13.5320 O.3    33  G33        -0.4373
    702  OP2       44.2910   66.9220   11.0370 O.co2  33  G33        -0.5172
    703  P         42.3130   72.6700   13.0860 P.3    34  A34         0.2141
    704  C5'       42.5140   75.2080   12.5010 C.3    34  A34         0.1812
    705  O5'       41.8650   73.9670   12.2680 O.3    34  A34        -0.3114
    706  C4'       42.2600   76.1750   11.3790 C.3    34  A34         0.1773
    707  O4'       42.9720   75.7520   10.1900 O.3    34  A34        -0.3307
    708  C3'       40.8190   76.2700   10.9240 C.3    34  A34         0.1860
    709  O3'       40.0430   77.1010   11.7680 O.3    34  A34        -0.3112
    710  C2'       40.9550   76.7820    9.4930 C.3    34  A34         0.2309
    711  O2'       41.2110   78.1820    9.4780 O.3    34  A34        -0.2156
    712  C1'       42.2090   76.0490    9.0360 C.3    34  A34         0.2408
    713  N1        40.6510   73.7110    4.6800 N.ar   34  A34        -0.2040
    714  C2        40.8410   75.0070    4.9800 C.ar   34  A34         0.2016
    715  N3        41.2440   75.5530    6.1280 N.ar   34  A34        -0.2048
    716  C4        41.4710   74.6040    7.0540 C.ar   34  A34         0.1692
    717  C5        41.3090   73.2480    6.9010 C.ar   34  A34         0.1518
    718  C6        40.8810   72.7970    5.6500 C.ar   34  A34         0.1919
    719  N6        40.7020   71.5000    5.3970 N.pl3  34  A34        -0.1054
    720  N7        41.6250   72.5550    8.0620 N.ar   34  A34        -0.2193
    721  C8        41.9640   73.5080    8.8880 C.ar   34  A34         0.1816
    722  N9        41.8920   74.7750    8.3510 N.ar   34  A34        -0.2693
    723  OP1       42.0110   72.9530   14.5130 O.3    34  A34        -0.4373
    724  OP2       41.7950   71.4330   12.4440 O.co2  34  A34        -0.5172
    725  P         38.4830   76.7860   12.0050 P.3    35  C35         0.2141
    726  C5'       37.9610   78.4490   10.0580 C.3    35  C35         0.1812
    727  O5'       37.7960   77.1560   10.6190 O.3    35  C35        -0.3114
    728  C4'       37.4950   78.4840    8.6280 C.3    35  C35         0.1773
    729  O4'       38.3380   77.6380    7.8080 O.3    35  C35        -0.3307
    730  C3'       36.1030   77.9380    8.3860 C.3    35  C35         0.1860
    731  O3'       35.0810   78.8480    8.7520 O.3    35  C35        -0.3112
    732  C2'       36.1400   77.5890    6.9020 C.3    35  C35         0.2309
    733  O2'       36.0210   78.7620    6.1100 O.3    35  C35        -0.2156
    734  C1'       37.5690   77.0670    6.7610 C.3    35  C35         0.2420
    735  N1        37.6640   75.5860    6.8310 N.ar   35  C35        -0.2535
    736  C2        37.3700   74.8130    5.6850 C.ar   35  C35         0.3532
    737  O2        37.0140   75.3940    4.6440 O.2    35  C35        -0.2443
    738  N3        37.4620   73.4550    5.7250 N.ar   35  C35        -0.1739
    739  C4        37.8500   72.8650    6.8520 C.ar   35  C35         0.1759
    740  N4        37.9400   71.5280    6.8660 N.pl3  35  C35        -0.1070
    741  C5        38.1640   73.6190    8.0220 C.ar   35  C35         0.0566
    742  C6        38.0550   74.9600    7.9750 C.ar   35  C35         0.0850
    743  OP1       37.9780   77.7950   12.9940 O.3    35  C35        -0.4373
    744  OP2       38.3540   75.3150   12.1960 O.co2  35  C35        -0.5172
    745  P         33.6650   78.2860    9.2630 P.3    36  A36         0.2141
    746  C5'       32.6920   78.5960    6.8640 C.3    36  A36         0.1812
    747  O5'       32.9940   77.7220    7.9350 O.3    36  A36        -0.3114
    748  C4'       32.2600   77.8220    5.6580 C.3    36  A36         0.1773
    749  O4'       33.3340   76.9510    5.2380 O.3    36  A36        -0.3307
    750  C3'       31.1090   76.8660    5.8660 C.3    36  A36         0.1860
    751  O3'       29.8480   77.5030    5.9260 O.3    36  A36        -0.3112
    752  C2'       31.2770   75.9050    4.6960 C.3    36  A36         0.2309
    753  O2'       30.8250   76.5100    3.4930 O.3    36  A36        -0.2156
    754  C1'       32.7990   75.8000    4.6250 C.3    36  A36         0.2408
    755  N1        33.7120   70.7990    4.2010 N.ar   36  A36        -0.2040
    756  C2        33.1190   71.6860    3.4010 C.ar   36  A36         0.2016
    757  N3        32.9090   72.9890    3.5880 N.ar   36  A36        -0.2048
    758  C4        33.3900   73.3580    4.7760 C.ar   36  A36         0.1692
    759  C5        34.0210   72.5630    5.7160 C.ar   36  A36         0.1518
    760  C6        34.1830   71.2150    5.3940 C.ar   36  A36         0.1919
    761  N6        34.7760   70.3180    6.2130 N.pl3  36  A36        -0.1054
    762  N7        34.3970   73.3090    6.8320 N.ar   36  A36        -0.2193
    763  C8        33.9760   74.5240    6.5340 C.ar   36  A36         0.1816
    764  N9        33.3450   74.6150    5.3060 N.ar   36  A36        -0.2693
    765  OP1       32.8550   79.4550    9.7330 O.2    36  A36        -0.5172
    766  OP2       33.9130   77.1160   10.1510 O.co2  36  A36        -0.4373
    767  P         28.6740   76.8280    6.7930 P.3    37  G37         0.2141
    768  C5'       27.7260   75.9090    4.5190 C.3    37  G37         0.1812
    769  O5'       28.1440   75.6590    5.8500 O.3    37  G37        -0.3114
    770  C4'       27.5160   74.6110    3.7840 C.3    37  G37         0.1773
    771  O4'       28.7990   73.9500    3.5680 O.3    37  G37        -0.3307
    772  C3'       26.7130   73.5620    4.5230 C.3    37  G37         0.1860
    773  O3'       25.3110   73.8020    4.5580 O.3    37  G37        -0.3112
    774  C2'       27.1370   72.2690    3.8190 C.3    37  G37         0.2309
    775  O2'       26.4840   72.1240    2.5630 O.3    37  G37        -0.2156
    776  C1'       28.6190   72.5430    3.5680 C.3    37  G37         0.2408
    777  N1        30.9270   68.3820    5.3220 N.ar   37  G37        -0.1709
    778  C2        30.1280   68.5270    4.2260 C.ar   37  G37         0.2606
    779  N2        29.9400   67.3880    3.5420 N.pl3  37  G37        -0.0859
    780  N3        29.5720   69.6630    3.8520 N.ar   37  G37        -0.1918
    781  C4        29.8950   70.6640    4.7010 C.ar   37  G37         0.1723
    782  C5        30.6960   70.6240    5.8240 C.ar   37  G37         0.1748
    783  C6        31.2680   69.3920    6.1960 C.ar   37  G37         0.3023
    784  O6        32.0040   69.1260    7.1420 O.2    37  G37        -0.2633
    785  N7        30.7810   71.8670    6.4320 N.ar   37  G37        -0.2173
    786  C8        30.0350   72.6380    5.6790 C.ar   37  G37         0.1817
    787  N9        29.4750   71.9650    4.6160 N.ar   37  G37        -0.2693
    788  OP1       27.5800   77.8200    7.0190 O.2    37  G37        -0.5172
    789  OP2       29.3390   76.1820    7.9610 O.co2  37  G37        -0.4373
    790  P         24.4150   73.1650    5.7490 P.3    38  A38         0.2141
    791  C5'       23.9860   70.9760    4.4400 C.3    38  A38         0.1812
    792  O5'       24.5690   71.6040    5.5610 O.3    38  A38        -0.3114
    793  C4'       24.3320   69.5240    4.4220 C.3    38  A38         0.1773
    794  O4'       25.7670   69.3500    4.3010 O.3    38  A38        -0.3307
    795  C3'       23.9910   68.7620    5.6810 C.3    38  A38         0.1860
    796  O3'       22.6240   68.4280    5.7390 O.3    38  A38        -0.3112
    797  C2'       24.8880   67.5510    5.5590 C.3    38  A38         0.2309
    798  O2'       24.3610   66.6880    4.5740 O.3    38  A38        -0.2156
    799  C1'       26.1630   68.1930    5.0090 C.3    38  A38         0.2408
    800  N1        29.6080   66.5490    8.3800 N.ar   38  A38        -0.2040
    801  C2        28.9550   65.9570    7.3750 C.ar   38  A38         0.2016
    802  N3        28.0680   66.4730    6.5320 N.ar   38  A38        -0.2048
    803  C4        27.8540   67.7550    6.7980 C.ar   38  A38         0.1692
    804  C5        28.4370   68.5030    7.7800 C.ar   38  A38         0.1518
    805  C6        29.3630   67.8450    8.6010 C.ar   38  A38         0.1919
    806  N6        30.0030   68.4560    9.5810 N.pl3  38  A38        -0.1054
    807  N7        27.9790   69.8030    7.7470 N.ar   38  A38        -0.2193
    808  C8        27.1330   69.8080    6.7470 C.ar   38  A38         0.1816
    809  N9        27.0300   68.5990    6.1200 N.ar   38  A38        -0.2693
    810  OP1       22.9770   73.4210    5.4530 O.2    38  A38        -0.5172
    811  OP2       25.0390   73.5600    7.0490 O.co2  38  A38        -0.4373
    812  P         21.8660   68.3500    7.1520 P.3    39  U39         0.2141
    813  C5'       22.3160   65.7890    7.2090 C.3    39  U39         0.1812
    814  O5'       22.5030   67.0620    7.8080 O.3    39  U39        -0.3114
    815  C4'       23.1820   64.7550    7.8710 C.3    39  U39         0.1773
    816  O4'       24.5660   65.1770    7.8080 O.3    39  U39        -0.3307
    817  C3'       22.9300   64.5370    9.3540 C.3    39  U39         0.1860
    818  O3'       21.8610   63.6390    9.5860 O.3    39  U39        -0.3112
    819  C2'       24.2710   64.0080    9.8560 C.3    39  U39         0.2309
    820  O2'       24.3850   62.6180    9.6140 O.3    39  U39        -0.2156
    821  C1'       25.2620   64.7410    8.9510 C.3    39  U39         0.2420
    822  N1        25.8210   65.9260    9.6090 N.ar   39  U39        -0.2534
    823  C2        26.9450   65.7110   10.3520 C.ar   39  U39         0.3546
    824  O2        27.4260   64.5930   10.4430 O.2    39  U39        -0.2443
    825  N3        27.4620   66.8200   10.9650 N.ar   39  U39        -0.1530
    826  C4        26.9260   68.0850   10.8650 C.ar   39  U39         0.2846
    827  O4        27.4630   69.0040   11.4720 O.2    39  U39        -0.2650
    828  C5        25.7470   68.2210   10.0560 C.ar   39  U39         0.0814
    829  C6        25.2360   67.1540    9.4560 C.ar   39  U39         0.0870
    830  OP1       20.4530   68.0510    6.8290 O.2    39  U39        -0.5172
    831  OP2       22.1670   69.5660    7.9420 O.co2  39  U39        -0.4373
    832  P         20.7050   64.0070   10.6360 P.3    40  A40         0.2141
    833  C5'       19.0650   63.7880    8.6350 C.3    40  A40         0.1812
    834  O5'       19.4100   63.4000    9.9510 O.3    40  A40        -0.3114
    835  C4'       17.8510   63.0510    8.1540 C.3    40  A40         0.1773
    836  O4'       18.1430   61.6360    8.0840 O.3    40  A40        -0.3307
    837  C3'       16.6390   63.1210    9.0600 C.3    40  A40         0.1860
    838  O3'       15.9100   64.3100    8.9120 O.3    40  A40        -0.3112
    839  C2'       15.8530   61.8980    8.6390 C.3    40  A40         0.2309
    840  O2'       15.1860   62.1770    7.4200 O.3    40  A40        -0.2156
    841  C1'       16.9790   60.8970    8.3780 C.3    40  A40         0.2408
    842  N1        15.5520   56.9110   11.3180 N.ar   40  A40        -0.2040
    843  C2        15.0120   57.4530   10.2300 C.ar   40  A40         0.2016
    844  N3        15.4120   58.4870    9.5060 N.ar   40  A40        -0.2048
    845  C4        16.5480   58.9900   10.0170 C.ar   40  A40         0.1692
    846  C5        17.2150   58.5440   11.1330 C.ar   40  A40         0.1518
    847  C6        16.6780   57.4440   11.8060 C.ar   40  A40         0.1919
    848  N6        17.2290   56.9200   12.8960 N.pl3  40  A40        -0.1054
    849  N7        18.3230   59.3000   11.3900 N.ar   40  A40        -0.2193
    850  C8        18.3120   60.1850   10.4280 C.ar   40  A40         0.1816
    851  N9        17.2640   60.0630    9.5610 N.ar   40  A40        -0.2693
    852  OP1       20.5120   65.4590   10.6110 O.2    40  A40        -0.5172
    853  OP2       20.9860   63.3080   11.9230 O.co2  40  A40        -0.4373
    854  P         15.3310   65.0240   10.2190 P.3    41  A41         0.2141
    855  C5'       13.1290   63.6470    9.7400 C.3    41  A41         0.1812
    856  O5'       14.1390   64.0470   10.6600 O.3    41  A41        -0.3114
    857  C4'       12.3950   62.4440   10.2610 C.3    41  A41         0.1773
    858  O4'       13.3140   61.3350   10.3590 O.3    41  A41        -0.3307
    859  C3'       11.8480   62.6130   11.6710 C.3    41  A41         0.1860
    860  O3'       10.5690   63.2370   11.6480 O.3    41  A41        -0.3112
    861  C2'       11.8280   61.1870   12.1950 C.3    41  A41         0.2309
    862  O2'       10.6830   60.5140   11.6950 O.3    41  A41        -0.2156
    863  C1'       13.0720   60.5990   11.5300 C.3    41  A41         0.2408
    864  N1        15.6040   58.3990   15.3820 N.ar   41  A41        -0.2040
    865  C2        14.4570   58.1070   14.7690 C.ar   41  A41         0.2016
    866  N3        13.8780   58.7330   13.7530 N.ar   41  A41        -0.2048
    867  C4        14.5970   59.8060   13.3840 C.ar   41  A41         0.1692
    868  C5        15.7770   60.2460   13.9220 C.ar   41  A41         0.1518
    869  C6        16.2990   59.4850   14.9810 C.ar   41  A41         0.1919
    870  N6        17.4300   59.7550   15.6280 N.pl3  41  A41        -0.1054
    871  N7        16.2040   61.3950   13.2700 N.ar   41  A41        -0.2193
    872  C8        15.2750   61.6310   12.3590 C.ar   41  A41         0.1816
    873  N9        14.2710   60.6900   12.3800 N.ar   41  A41        -0.2693
    874  OP1       14.7600   66.3350    9.8420 O.2    41  A41        -0.5172
    875  OP2       16.4050   64.9740   11.2560 O.co2  41  A41        -0.4373
    876  P         10.0210   64.0580   12.9170 P.3    42  U42         0.2141
    877  C5'        8.6810   61.8710   13.5710 C.3    42  U42         0.1812
    878  O5'        9.5690   62.9160   13.9430 O.3    42  U42        -0.3114
    879  C4'        8.6860   60.7790   14.6090 C.3    42  U42         0.1773
    880  O4'       10.0600   60.3960   14.8880 O.3    42  U42        -0.3307
    881  C3'        8.0950   61.1870   15.9510 C.3    42  U42         0.1860
    882  O3'        7.5510   60.0410   16.5930 O.3    42  U42        -0.3112
    883  C2'        9.3130   61.5940   16.7360 C.3    42  U42         0.2309
    884  O2'        9.1390   61.5490   18.1290 O.3    42  U42        -0.2156
    885  C1'       10.3160   60.5430   16.2650 C.3    42  U42         0.2420
    886  N1        11.7180   60.9530   16.4470 N.ar   42  U42        -0.2534
    887  C2        12.5170   60.2470   17.3340 C.ar   42  U42         0.3546
    888  O2        12.1160   59.3060   17.9490 O.2    42  U42        -0.2443
    889  N3        13.8130   60.6740   17.5090 N.ar   42  U42        -0.1530
    890  C4        14.3320   61.7830   16.8700 C.ar   42  U42         0.2846
    891  O4        15.4910   62.0630   17.0960 O.2    42  U42        -0.2650
    892  C5        13.4650   62.4760   15.9690 C.ar   42  U42         0.0814
    893  C6        12.2120   62.0390   15.7870 C.ar   42  U42         0.0870
    894  OP1        8.8590   64.8530   12.4400 O.2    42  U42        -0.5172
    895  OP2       11.1230   64.6730   13.6960 O.co2  42  U42        -0.4373
    896  P          6.1130   60.1730   17.3070 P.3    43  C43         0.2141
    897  C5'        5.6350   57.6120   17.3040 C.3    43  C43         0.1812
    898  O5'        5.9480   58.7670   18.0330 O.3    43  C43        -0.3114
    899  C4'        4.8120   56.7210   18.1750 C.3    43  C43         0.1773
    900  O4'        5.6590   55.9330   19.0310 O.3    43  C43        -0.3307
    901  C3'        3.9130   57.4460   19.1530 C.3    43  C43         0.1860
    902  O3'        2.7830   57.9740   18.5090 O.3    43  C43        -0.3112
    903  C2'        3.6010   56.3300   20.1360 C.3    43  C43         0.2309
    904  O2'        2.7070   55.4250   19.5070 O.3    43  C43        -0.2156
    905  C1'        4.9800   55.6490   20.2360 C.3    43  C43         0.2420
    906  N1         5.7750   56.2180   21.3420 N.ar   43  C43        -0.2535
    907  C2         5.3730   55.9400   22.6420 C.ar   43  C43         0.3532
    908  O2         4.3780   55.2220   22.7670 O.2    43  C43        -0.2443
    909  N3         6.0250   56.4670   23.7090 N.ar   43  C43        -0.1739
    910  C4         7.0640   57.2910   23.4770 C.ar   43  C43         0.1759
    911  N4         7.6620   57.8470   24.5280 N.pl3  43  C43        -0.1070
    912  C5         7.5030   57.6070   22.1640 C.ar   43  C43         0.0566
    913  C6         6.8500   57.0580   21.1170 C.ar   43  C43         0.0850
    914  OP1        5.1750   60.3990   16.1860 O.2    43  C43        -0.5172
    915  OP2        6.1710   61.1110   18.4580 O.co2  43  C43        -0.4373
    916  P          1.9510   59.1950   19.1390 P.3    44  G44         0.2141
    917  C5'        0.1570   57.5790   20.2040 C.3    44  G44         0.1812
    918  O5'        1.1600   58.5760   20.3780 O.3    44  G44        -0.3114
    919  C4'       -0.4330   57.1730   21.5370 C.3    44  G44         0.1773
    920  O4'        0.6030   56.5560   22.3330 O.3    44  G44        -0.3307
    921  C3'       -0.9320   58.3110   22.4280 C.3    44  G44         0.1860
    922  O3'       -2.2020   58.8200   22.1160 O.3    44  G44        -0.3112
    923  C2'       -0.8450   57.7130   23.8180 C.3    44  G44         0.2309
    924  O2'       -1.9090   56.8080   24.0710 O.3    44  G44        -0.2156
    925  C1'        0.4360   56.9080   23.6960 C.3    44  G44         0.2408
    926  N1         3.0710   58.7180   27.5240 N.ar   44  G44        -0.1709
    927  C2         1.9190   57.9620   27.5730 C.ar   44  G44         0.2606
    928  N2         1.4390   57.6650   28.8160 N.pl3  44  G44        -0.0859
    929  N3         1.3200   57.5720   26.4800 N.ar   44  G44        -0.1918
    930  C4         1.9620   57.9790   25.3800 C.ar   44  G44         0.1723
    931  C5         3.1070   58.7570   25.2510 C.ar   44  G44         0.1748
    932  C6         3.7400   59.1880   26.4110 C.ar   44  G44         0.3023
    933  O6         4.7910   59.8460   26.5860 O.2    44  G44        -0.2633
    934  N7         3.4260   58.9180   23.9070 N.ar   44  G44        -0.2173
    935  C8         2.4930   58.3030   23.2330 C.ar   44  G44         0.1817
    936  N9         1.5840   57.7120   24.0950 N.ar   44  G44        -0.2693
    937  OP1        1.0680   59.5330   18.0080 O.2    44  G44        -0.5172
    938  OP2        2.9290   60.1840   19.7310 O.co2  44  G44        -0.4373
    939  P         -2.5260   60.3660   22.4480 P.3    45  G45         0.2141
    940  C5'       -3.4800   59.9160   24.8640 C.3    45  G45         0.1812
    941  O5'       -2.4710   60.4790   24.0470 O.3    45  G45        -0.3114
    942  C4'       -3.1410   60.0140   26.3290 C.3    45  G45         0.1773
    943  O4'       -1.8640   59.3600   26.5960 O.3    45  G45        -0.3307
    944  C3'       -2.9540   61.4020   26.9210 C.3    45  G45         0.1860
    945  O3'       -4.1670   62.0990   27.2230 O.3    45  G45        -0.3112
    946  C2'       -2.1770   61.0800   28.1740 C.3    45  G45         0.2309
    947  O2'       -3.0330   60.4320   29.0920 O.3    45  G45        -0.2156
    948  C1'       -1.1990   60.0530   27.6400 C.3    45  G45         0.2408
    949  N1         2.9710   62.3270   29.2310 N.ar   45  G45        -0.1709
    950  C2         1.9500   61.7040   29.9380 C.ar   45  G45         0.2606
    951  N2         2.0660   61.6910   31.2680 N.pl3  45  G45        -0.0859
    952  N3         0.9110   61.1520   29.3650 N.ar   45  G45        -0.1918
    953  C4         0.9660   61.2400   28.0000 C.ar   45  G45         0.1723
    954  C5         1.9240   61.8380   27.2010 C.ar   45  G45         0.1748
    955  C6         3.0430   62.4440   27.8530 C.ar   45  G45         0.3023
    956  O6         4.0500   63.0040   27.3560 O.2    45  G45        -0.2633
    957  N7         1.5890   61.7060   25.8470 N.ar   45  G45        -0.2173
    958  C8         0.4310   61.0410   25.8450 C.ar   45  G45         0.1817
    959  N9         0.0150   60.7410   27.1350 N.ar   45  G45        -0.2693
    960  OP1       -3.8350   60.6720   21.8510 O.2    45  G45        -0.5172
    961  OP2       -1.3650   61.2180   22.0430 O.co2  45  G45        -0.4373
    962  P         -4.2280   63.7230   27.2190 P.3    46  G46         0.2141
    963  C5'       -3.8640   63.6530   29.7910 C.3    46  G46         0.1812
    964  O5'       -3.5160   64.2140   28.5520 O.3    46  G46        -0.3114
    965  C4'       -2.8500   63.9710   30.8420 C.3    46  G46         0.1773
    966  O4'       -1.5490   63.4200   30.4990 O.3    46  G46        -0.3307
    967  C3'       -2.5670   65.4420   31.0770 C.3    46  G46         0.1860
    968  O3'       -3.5650   66.0500   31.8560 O.3    46  G46        -0.3112
    969  C2'       -1.2550   65.3860   31.8030 C.3    46  G46         0.2309
    970  O2'       -1.5080   65.0000   33.1390 O.3    46  G46        -0.2156
    971  C1'       -0.5470   64.2230   31.0800 C.3    46  G46         0.2408
    972  N1         3.9830   66.3370   29.9480 N.ar   46  G46        -0.1709
    973  C2         3.4040   66.0730   31.1810 C.ar   46  G46         0.2606
    974  N2         4.1550   66.3680   32.2360 N.pl3  46  G46        -0.0859
    975  N3         2.1950   65.5050   31.3570 N.ar   46  G46        -0.1918
    976  C4         1.6080   65.2720   30.1810 C.ar   46  G46         0.1723
    977  C5         2.1000   65.4910   28.9130 C.ar   46  G46         0.1748
    978  C6         3.3810   66.0880   28.7190 C.ar   46  G46         0.3023
    979  O6         3.9380   66.3710   27.6310 O.2    46  G46        -0.2633
    980  N7         1.1440   65.1250   27.9660 N.ar   46  G46        -0.2173
    981  C8         0.1430   64.6190   28.6510 C.ar   46  G46         0.1817
    982  N9         0.3550   64.6910   30.0070 N.ar   46  G46        -0.2693
    983  OP1       -5.6430   64.1150   27.3060 O.3    46  G46        -0.4373
    984  OP2       -3.3250   64.3150   26.2000 O.co2  46  G46        -0.5172
    985  P         -3.9310   67.5970   31.6640 P.3    47  U47         0.2141
    986  C5'       -2.2880   68.2930   33.5720 C.3    47  U47         0.1812
    987  O5'       -2.6350   68.3540   32.2010 O.3    47  U47        -0.3114
    988  C4'       -0.9760   69.0150   33.7900 C.3    47  U47         0.1773
    989  O4'        0.0890   68.3160   33.0950 O.3    47  U47        -0.3307
    990  C3'       -0.8890   70.4270   33.2510 C.3    47  U47         0.1860
    991  O3'       -1.4990   71.3400   34.1370 O.3    47  U47        -0.3112
    992  C2'        0.6240   70.6280   33.1130 C.3    47  U47         0.2309
    993  O2'        1.1990   70.8240   34.3800 O.3    47  U47        -0.2156
    994  C1'        1.0710   69.2370   32.6710 C.3    47  U47         0.2420
    995  N1         1.2000   69.1060   31.2100 N.ar   47  U47        -0.2534
    996  C2         2.4540   69.4630   30.6810 C.ar   47  U47         0.3546
    997  O2         3.3590   69.9130   31.3760 O.2    47  U47        -0.2443
    998  N3         2.5450   69.2690   29.3440 N.ar   47  U47        -0.1530
    999  C4         1.5880   68.7490   28.4890 C.ar   47  U47         0.2846
   1000  O4         1.8260   68.6570   27.2770 O.2    47  U47        -0.2650
   1001  C5         0.3370   68.3940   29.1240 C.ar   47  U47         0.0814
   1002  C6         0.2160   68.5660   30.4450 C.ar   47  U47         0.0870
   1003  OP1       -5.0490   67.9290   32.5880 O.3    47  U47        -0.4373
   1004  OP2       -4.0400   67.8810   30.2130 O.co2  47  U47        -0.5172
   1005  P         -2.6920   72.2780   33.6150 P.3    48  G48         0.2141
   1006  C5'       -0.9560   74.2010   33.3290 C.3    48  G48         0.1812
   1007  O5'       -1.9080   73.3400   32.7090 O.3    48  G48        -0.3114
   1008  C4'       -0.0160   74.7360   32.2880 C.3    48  G48         0.1773
   1009  O4'        0.6950   73.5780   31.7530 O.3    48  G48        -0.3307
   1010  C3'       -0.6860   75.3640   31.0620 C.3    48  G48         0.1860
   1011  O3'       -1.0210   76.7450   31.2470 O.3    48  G48        -0.3112
   1012  C2'        0.3630   75.1410   29.9840 C.3    48  G48         0.2309
   1013  O2'        1.3710   76.1560   30.0930 O.3    48  G48        -0.2156
   1014  C1'        0.9590   73.7680   30.3860 C.3    48  G48         0.2408
   1015  N1         1.2640   71.2890   25.9340 N.ar   48  G48        -0.1709
   1016  C2         2.1990   72.0160   26.5800 C.ar   48  G48         0.2606
   1017  N2         3.3740   72.1940   25.9130 N.pl3  48  G48        -0.0859
   1018  N3         1.9900   72.5450   27.7650 N.ar   48  G48        -0.1918
   1019  C4         0.7940   72.3350   28.3170 C.ar   48  G48         0.1723
   1020  C5        -0.2050   71.5740   27.7770 C.ar   48  G48         0.1748
   1021  C6         0.0040   70.9980   26.5000 C.ar   48  G48         0.3023
   1022  O6        -0.8160   70.2720   25.8710 O.2    48  G48        -0.2633
   1023  N7        -1.3100   71.5520   28.6400 N.ar   48  G48        -0.2173
   1024  C8        -0.9730   72.2780   29.6930 C.ar   48  G48         0.1817
   1025  N9         0.3190   72.7670   29.5560 N.ar   48  G48        -0.2693
   1026  OP1       -3.0780   72.8970   34.9120 O.3    48  G48        -0.4373
   1027  OP2       -3.5460   71.5600   32.6440 O.co2  48  G48        -0.5172
   1028  P         -2.3350   77.4210   30.5790 P.3    49  C49         0.2141
   1029  C5'       -3.0480   77.6110   28.0300 C.3    49  C49         0.1812
   1030  O5'       -2.0510   77.3680   29.0130 O.3    49  C49        -0.3114
   1031  C4'       -2.4150   78.1690   26.7580 C.3    49  C49         0.1773
   1032  O4'       -1.6460   79.3500   27.1210 O.3    49  C49        -0.3307
   1033  C3'       -1.3750   77.2730   26.0690 C.3    49  C49         0.1860
   1034  O3'       -1.9000   76.2330   25.2420 O.3    49  C49        -0.3112
   1035  C2'       -0.4870   78.2820   25.3330 C.3    49  C49         0.2309
   1036  O2'       -0.9690   78.7110   24.0850 O.3    49  C49        -0.2156
   1037  C1'       -0.5250   79.4890   26.2570 C.3    49  C49         0.2420
   1038  N1         0.7400   79.6280   27.0310 N.ar   49  C49        -0.2535
   1039  C2         1.8860   80.0210   26.3440 C.ar   49  C49         0.3532
   1040  O2         1.7790   80.1940   25.1190 O.2    49  C49        -0.2443
   1041  N3         3.0600   80.2100   27.0260 N.ar   49  C49        -0.1739
   1042  C4         3.1090   79.9550   28.3480 C.ar   49  C49         0.1759
   1043  N4         4.2550   80.0960   29.0600 N.pl3  49  C49        -0.1070
   1044  C5         1.9500   79.5510   29.0670 C.ar   49  C49         0.0566
   1045  C6         0.7990   79.4030   28.3750 C.ar   49  C49         0.0850
   1046  OP1       -2.3730   78.8180   31.0950 O.3    49  C49        -0.4373
   1047  OP2       -3.4820   76.5340   30.8590 O.co2  49  C49        -0.5172
   1048  P         -1.4020   74.7160   25.4110 P.3    50  A50         0.2141
   1049  C5'        0.1620   75.2390   23.3770 C.3    50  A50         0.1812
   1050  O5'        0.0360   74.7120   24.7010 O.3    50  A50        -0.3114
   1051  C4'        1.6170   75.4450   23.0390 C.3    50  A50         0.1773
   1052  O4'        2.1330   76.4830   23.8840 O.3    50  A50        -0.3307
   1053  C3'        2.5270   74.2470   23.3110 C.3    50  A50         0.1860
   1054  O3'        2.5540   73.4060   22.1730 O.3    50  A50        -0.3112
   1055  C2'        3.8840   74.9010   23.5640 C.3    50  A50         0.2309
   1056  O2'        4.4620   75.2240   22.3180 O.3    50  A50        -0.2156
   1057  C1'        3.4890   76.2140   24.2220 C.3    50  A50         0.2408
   1058  N1         6.2530   77.2770   28.3760 N.ar   50  A50        -0.2040
   1059  C2         6.5760   77.3400   27.0730 C.ar   50  A50         0.2016
   1060  N3         5.8210   77.0660   25.9980 N.ar   50  A50        -0.2048
   1061  C4         4.6310   76.6450   26.4380 C.ar   50  A50         0.1692
   1062  C5         4.1700   76.5120   27.7370 C.ar   50  A50         0.1518
   1063  C6         5.0320   76.8660   28.7720 C.ar   50  A50         0.1919
   1064  N6         4.6810   76.8020   30.0730 N.pl3  50  A50        -0.1054
   1065  N7         2.8700   76.0470   27.7680 N.ar   50  A50        -0.2193
   1066  C8         2.5730   75.9010   26.5320 C.ar   50  A50         0.1816
   1067  N9         3.5850   76.2160   25.6790 N.ar   50  A50        -0.2693
   1068  OP1       -2.2110   73.8510   24.5070 O.2    50  A50        -0.5172
   1069  OP2       -1.1930   74.3120   26.8470 O.co2  50  A50        -0.4373
   1070  P          2.5830   71.8020   22.2660 P.3    51  A51         0.2141
   1071  C5'        5.2030   71.8880   22.3630 C.3    51  A51         0.1812
   1072  O5'        3.9660   71.5280   22.9760 O.3    51  A51        -0.3114
   1073  C4'        6.3190   70.9720   22.8470 C.3    51  A51         0.1773
   1074  O4'        6.4850   71.1580   24.2810 O.3    51  A51        -0.3307
   1075  C3'        6.0800   69.4610   22.6450 C.3    51  A51         0.1860
   1076  O3'        7.3100   68.8360   22.2440 O.3    51  A51        -0.3112
   1077  C2'        5.7580   68.9580   24.0530 C.3    51  A51         0.2309
   1078  O2'        6.0880   67.5730   24.2940 O.3    51  A51        -0.2156
   1079  C1'        6.6300   69.8870   24.8880 C.3    51  A51         0.2408
   1080  N1         8.0410   71.1010   29.6650 N.ar   51  A51        -0.2040
   1081  C2         8.7360   71.1540   28.4810 C.ar   51  A51         0.2016
   1082  N3         8.3080   70.8430   27.2420 N.ar   51  A51        -0.2048
   1083  C4         7.0140   70.3670   27.3090 C.ar   51  A51         0.1692
   1084  C5         6.2020   70.2650   28.4200 C.ar   51  A51         0.1518
   1085  C6         6.7670   70.6290   29.6500 C.ar   51  A51         0.1919
   1086  N6         6.0680   70.5360   30.8000 N.pl3  51  A51        -0.1054
   1087  N7         4.9330   69.7720   28.1130 N.ar   51  A51        -0.2193
   1088  C8         4.9930   69.5820   26.8120 C.ar   51  A51         0.1816
   1089  N9         6.2300   69.9610   26.2950 N.ar   51  A51        -0.2693
   1090  OP1        2.6280   71.4900   20.8350 O.2    51  A51        -0.5172
   1091  OP2        1.5750   71.2290   23.2630 O.co2  51  A51        -0.4373
   1092  P          7.5690   68.5960   20.6880 P.3    52  C52         0.2141
   1093  C5'        9.1760   66.5190   20.6930 C.3    52  C52         0.1812
   1094  O5'        9.0300   67.9330   20.6750 O.3    52  C52        -0.3114
   1095  C4'       10.5460   66.1410   21.2050 C.3    52  C52         0.1773
   1096  O4'       11.5640   66.8050   20.4140 O.3    52  C52        -0.3307
   1097  C3'       10.8520   66.5610   22.6370 C.3    52  C52         0.1860
   1098  O3'       10.2830   65.6520   23.5810 O.3    52  C52        -0.3112
   1099  C2'       12.3890   66.6160   22.6460 C.3    52  C52         0.2309
   1100  O2'       12.9730   65.3480   22.8760 O.3    52  C52        -0.2156
   1101  C1'       12.6990   67.0630   21.2120 C.3    52  C52         0.2420
   1102  N1        12.9970   68.5230   21.1670 N.ar   52  C52        -0.2535
   1103  C2        14.1920   68.9180   21.8160 C.ar   52  C52         0.3532
   1104  O2        14.9270   68.0780   22.3820 O.2    52  C52        -0.2443
   1105  N3        14.5340   70.2100   21.8120 N.ar   52  C52        -0.1739
   1106  C4        13.7570   71.0950   21.2260 C.ar   52  C52         0.1759
   1107  N4        14.1800   72.3530   21.2850 N.pl3  52  C52        -0.1070
   1108  C5        12.5420   70.7220   20.5610 C.ar   52  C52         0.0566
   1109  C6        12.2160   69.4280   20.5410 C.ar   52  C52         0.0850
   1110  OP1        7.6920   69.8030   19.8190 O.2    52  C52        -0.5172
   1111  OP2        6.5620   67.6590   20.2560 O.co2  52  C52        -0.4373
   1112  P          9.7130   66.1170   25.0070 P.3    53  U53         0.2141
   1113  C5'       12.1240   66.3460   26.0700 C.3    53  U53         0.1812
   1114  O5'       10.9050   66.9480   25.7050 O.3    53  U53        -0.3114
   1115  C4'       13.0530   67.3630   26.6620 C.3    53  U53         0.1773
   1116  O4'       13.2490   68.4240   25.6830 O.3    53  U53        -0.3307
   1117  C3'       12.5100   68.0370   27.9170 C.3    53  U53         0.1860
   1118  O3'       13.5670   68.2740   28.8270 O.3    53  U53        -0.3112
   1119  C2'       11.9630   69.3590   27.4020 C.3    53  U53         0.2309
   1120  O2'       11.9100   70.3910   28.3700 O.3    53  U53        -0.2156
   1121  C1'       12.9350   69.6670   26.2640 C.3    53  U53         0.2420
   1122  N1        12.3410   70.4680   25.2160 N.ar   53  U53        -0.2534
   1123  C2        12.9510   71.6840   24.9060 C.ar   53  U53         0.3546
   1124  O2        13.9440   72.0680   25.4660 O.2    53  U53        -0.2443
   1125  N3        12.3210   72.3660   23.9410 N.ar   53  U53        -0.1530
   1126  C4        11.1660   71.9740   23.2980 C.ar   53  U53         0.2846
   1127  O4        10.6920   72.6930   22.4380 O.2    53  U53        -0.2650
   1128  C5        10.5770   70.7160   23.6870 C.ar   53  U53         0.0814
   1129  C6        11.1670   70.0100   24.6450 C.ar   53  U53         0.0870
   1130  OP1        9.4330   64.9280   25.8040 O.3    53  U53        -0.4373
   1131  OP2        8.6610   67.1970   24.8620 O.co2  53  U53        -0.5172
   1132  P         13.8500   67.1600   29.9520 P.3    54  C54         0.2141
   1133  C5'       12.6930   68.1460   32.0950 C.3    54  C54         0.1812
   1134  O5'       12.6370   67.2660   30.9750 O.3    54  C54        -0.3114
   1135  C4'       11.4020   68.1430   32.8640 C.3    54  C54         0.1773
   1136  O4'       10.4060   68.9300   32.1740 O.3    54  C54        -0.3307
   1137  C3'       10.7180   66.7840   33.0290 C.3    54  C54         0.1860
   1138  O3'       11.3030   65.9860   34.0390 O.3    54  C54        -0.3112
   1139  C2'        9.2840   67.1930   33.3510 C.3    54  C54         0.2309
   1140  O2'        9.1810   67.6850   34.6830 O.3    54  C54        -0.2156
   1141  C1'        9.1080   68.3720   32.4130 C.3    54  C54         0.2420
   1142  N1         8.5190   67.9520   31.1220 N.ar   54  C54        -0.2535
   1143  C2         7.1890   67.5420   31.0750 C.ar   54  C54         0.3532
   1144  O2         6.5460   67.4930   32.1290 O.2    54  C54        -0.2443
   1145  N3         6.6590   67.1840   29.8960 N.ar   54  C54        -0.1739
   1146  C4         7.3670   67.2590   28.7790 C.ar   54  C54         0.1759
   1147  N4         6.7880   66.8980   27.6360 N.pl3  54  C54        -0.1070
   1148  C5         8.7410   67.6490   28.7860 C.ar   54  C54         0.0566
   1149  C6         9.2440   67.9960   29.9760 C.ar   54  C54         0.0850
   1150  OP1       15.0690   67.6540   30.6190 O.3    54  C54        -0.4373
   1151  OP2       13.6790   65.8170   29.3510 O.co2  54  C54        -0.5172
   1152  P         11.2480   64.3700   33.9770 P.3    55  C55         0.2141
   1153  C5'        9.2910   64.3280   35.7250 C.3    55  C55         0.1812
   1154  O5'        9.7860   64.0280   34.4300 O.3    55  C55        -0.3114
   1155  C4'        7.8550   63.8770   35.8400 C.3    55  C55         0.1773
   1156  O4'        7.0390   64.6730   34.9440 O.3    55  C55        -0.3307
   1157  C3'        7.5620   62.4490   35.3950 C.3    55  C55         0.1860
   1158  O3'        7.8720   61.4530   36.3450 O.3    55  C55        -0.3112
   1159  C2'        6.0850   62.5090   35.0770 C.3    55  C55         0.2309
   1160  O2'        5.3480   62.5570   36.2780 O.3    55  C55        -0.2156
   1161  C1'        5.9900   63.8840   34.4200 C.3    55  C55         0.2420
   1162  N1         6.1470   63.8300   32.9510 N.ar   55  C55        -0.2535
   1163  C2         5.0460   63.4500   32.1940 C.ar   55  C55         0.3532
   1164  O2         4.0320   63.1280   32.7820 O.2    55  C55        -0.2443
   1165  N3         5.1160   63.4010   30.8650 N.ar   55  C55        -0.1739
   1166  C4         6.2700   63.7270   30.2940 C.ar   55  C55         0.1759
   1167  N4         6.2940   63.7020   28.9610 N.pl3  55  C55        -0.1070
   1168  C5         7.4280   64.1130   31.0180 C.ar   55  C55         0.0566
   1169  C6         7.3270   64.1550   32.3570 C.ar   55  C55         0.0850
   1170  OP1       12.2170   63.9300   34.9530 O.3    55  C55        -0.4373
   1171  OP2       11.3850   63.9240   32.5390 O.co2  55  C55        -0.5172
   1172  P          8.3630   60.0100   35.8280 P.3    56  C56         0.2141
   1173  C5'        5.8860   59.2480   36.2940 C.3    56  C56         0.1812
   1174  O5'        7.0000   59.2660   35.4160 O.3    56  C56        -0.3114
   1175  C4'        4.6500   58.6830   35.6330 C.3    56  C56         0.1773
   1176  O4'        4.0680   59.6610   34.7110 O.3    56  C56        -0.3307
   1177  C3'        4.8500   57.4400   34.7780 C.3    56  C56         0.1860
   1178  O3'        4.9240   56.2390   35.5580 O.3    56  C56        -0.3112
   1179  C2'        3.6370   57.5030   33.8670 C.3    56  C56         0.2309
   1180  O2'        2.4700   57.1860   34.6010 O.3    56  C56        -0.2156
   1181  C1'        3.5620   58.9970   33.5770 C.3    56  C56         0.2420
   1182  N1         4.3680   59.3500   32.3850 N.ar   56  C56        -0.2535
   1183  C2         3.7870   59.0840   31.1630 C.ar   56  C56         0.3532
   1184  O2         2.6320   58.5600   31.1090 O.2    56  C56        -0.2443
   1185  N3         4.4620   59.4120   30.0690 N.ar   56  C56        -0.1739
   1186  C4         5.6870   59.9520   30.1740 C.ar   56  C56         0.1759
   1187  N4         6.3510   60.2310   29.0560 N.pl3  56  C56        -0.1070
   1188  C5         6.3020   60.2290   31.3970 C.ar   56  C56         0.0566
   1189  C6         5.6140   59.8860   32.4860 C.ar   56  C56         0.0850
   1190  OP1        9.0750   59.4340   36.9890 O.3    56  C56        -0.4373
   1191  OP2        9.0600   60.0640   34.5380 O.co2  56  C56        -0.5172
   1192  P          5.6940   54.9100   35.0460 P.3    57  G57         0.2141
   1193  C5'        3.4130   54.0630   34.1850 C.3    57  G57         0.1812
   1194  O5'        4.7410   54.4060   33.8900 O.3    57  G57        -0.3114
   1195  C4'        2.6780   53.7710   32.9280 C.3    57  G57         0.1773
   1196  O4'        2.6130   54.9670   32.1260 O.3    57  G57        -0.3307
   1197  C3'        3.3050   52.7470   32.0120 C.3    57  G57         0.1860
   1198  O3'        2.9830   51.4060   32.3920 O.3    57  G57        -0.3112
   1199  C2'        2.7160   53.1200   30.6670 C.3    57  G57         0.2309
   1200  O2'        1.3510   52.7150   30.6270 O.3    57  G57        -0.2156
   1201  C1'        2.6860   54.6340   30.7590 C.3    57  G57         0.2408
   1202  N1         5.0120   56.0330   26.4320 N.ar   57  G57        -0.1709
   1203  C2         3.8390   55.3340   26.6080 C.ar   57  G57         0.2606
   1204  N2         3.2240   54.9680   25.4840 N.pl3  57  G57        -0.0859
   1205  N3         3.3330   55.0170   27.7930 N.ar   57  G57        -0.1918
   1206  C4         4.1070   55.4660   28.8160 C.ar   57  G57         0.1723
   1207  C5         5.2920   56.1650   28.7560 C.ar   57  G57         0.1748
   1208  C6         5.8070   56.4840   27.4820 C.ar   57  G57         0.3023
   1209  O6         6.8320   57.1060   27.2070 O.2    57  G57        -0.2633
   1210  N7         5.7860   56.4360   30.0320 N.ar   57  G57        -0.2173
   1211  C8         4.9070   55.8930   30.8400 C.ar   57  G57         0.1817
   1212  N9         3.8690   55.2930   30.1510 N.ar   57  G57        -0.2693
   1213  OP1        5.6910   53.9960   36.2170 O.3    57  G57        -0.4373
   1214  OP2        7.0100   55.1620   34.3830 O.co2  57  G57        -0.5172
   1215  P          4.0120   50.2160   32.0420 P.3    58  C58         0.2141
   1216  C5'        2.5720   49.7420   29.8730 C.3    58  C58         0.1812
   1217  O5'        3.8270   50.0200   30.4630 O.3    58  C58        -0.3114
   1218  C4'        2.6570   49.7910   28.3630 C.3    58  C58         0.1773
   1219  O4'        2.8290   51.1690   27.9340 O.3    58  C58        -0.3307
   1220  C3'        3.8100   49.0440   27.7030 C.3    58  C58         0.1860
   1221  O3'        3.5930   47.6320   27.5210 O.3    58  C58        -0.3112
   1222  C2'        3.9810   49.7890   26.3880 C.3    58  C58         0.2309
   1223  O2'        2.9740   49.4390   25.4580 O.3    58  C58        -0.2156
   1224  C1'        3.6820   51.2210   26.8090 C.3    58  C58         0.2420
   1225  N1         4.9100   51.9790   27.1530 N.ar   58  C58        -0.2535
   1226  C2         5.6460   52.5170   26.1270 C.ar   58  C58         0.3532
   1227  O2         5.2180   52.3310   24.9780 O.2    58  C58        -0.2443
   1228  N3         6.7320   53.2750   26.4130 N.ar   58  C58        -0.1739
   1229  C4         7.0860   53.4280   27.6970 C.ar   58  C58         0.1759
   1230  N4         8.1760   54.1510   28.0070 N.pl3  58  C58        -0.1070
   1231  C5         6.3510   52.8530   28.7630 C.ar   58  C58         0.0566
   1232  C6         5.2720   52.1330   28.4530 C.ar   58  C58         0.0850
   1233  OP1        3.5580   49.0330   32.8330 O.3    58  C58        -0.4373
   1234  OP2        5.4000   50.6410   32.2560 O.co2  58  C58        -0.5172
   1235  P          4.8360   46.6170   27.5420 P.3    59  C59         0.2141
   1236  C5'        4.9890   46.7280   24.8860 C.3    59  C59         0.1812
   1237  O5'        5.6210   46.7980   26.1650 O.3    59  C59        -0.3114
   1238  C4'        5.8650   47.4200   23.8550 C.3    59  C59         0.1773
   1239  O4'        5.9560   48.8360   24.2020 O.3    59  C59        -0.3307
   1240  C3'        7.3250   46.9780   23.7970 C.3    59  C59         0.1860
   1241  O3'        7.5650   45.8060   23.0410 O.3    59  C59        -0.3112
   1242  C2'        8.0280   48.2000   23.2080 C.3    59  C59         0.2309
   1243  O2'        7.8090   48.2810   21.8000 O.3    59  C59        -0.2156
   1244  C1'        7.2360   49.3360   23.8520 C.3    59  C59         0.2420
   1245  N1         7.9070   49.8600   25.0570 N.ar   59  C59        -0.2535
   1246  C2         8.9620   50.7540   24.8260 C.ar   59  C59         0.3532
   1247  O2         9.2890   50.9850   23.6440 O.2    59  C59        -0.2443
   1248  N3         9.5840   51.2880   25.8790 N.ar   59  C59        -0.1739
   1249  C4         9.1970   50.9740   27.0970 C.ar   59  C59         0.1759
   1250  N4         9.8700   51.4940   28.0890 N.pl3  59  C59        -0.1070
   1251  C5         8.1000   50.0770   27.3630 C.ar   59  C59         0.0566
   1252  C6         7.5030   49.5410   26.3100 C.ar   59  C59         0.0850
   1253  OP1        4.1710   45.2820   27.4790 O.2    59  C59        -0.5172
   1254  OP2        5.8570   46.8060   28.6150 O.co2  59  C59        -0.4373
   1255  P          8.7900   44.8700   23.4570 P.3    60  C60         0.2141
   1256  C5'       10.4360   45.8920   21.6950 C.3    60  C60         0.1812
   1257  O5'       10.1380   45.6020   23.0500 O.3    60  C60        -0.3114
   1258  C4'       11.6950   46.7160   21.5780 C.3    60  C60         0.1773
   1259  O4'       11.5140   48.0460   22.1490 O.3    60  C60        -0.3307
   1260  C3'       12.8910   46.1650   22.3050 C.3    60  C60         0.1860
   1261  O3'       13.5320   45.1660   21.5520 O.3    60  C60        -0.3112
   1262  C2'       13.7660   47.3980   22.4880 C.3    60  C60         0.2309
   1263  O2'       14.4050   47.7150   21.2690 O.3    60  C60        -0.2156
   1264  C1'       12.7100   48.4770   22.7490 C.3    60  C60         0.2420
   1265  N1        12.4850   48.6800   24.2040 N.ar   60  C60        -0.2535
   1266  C2        13.3810   49.5630   24.7930 C.ar   60  C60         0.3532
   1267  O2        14.2540   49.9730   24.0180 O.2    60  C60        -0.2443
   1268  N3        13.3080   49.9010   26.1230 N.ar   60  C60        -0.1739
   1269  C4        12.3640   49.3490   26.8420 C.ar   60  C60         0.1759
   1270  N4        12.3460   49.6940   28.1240 N.pl3  60  C60        -0.1070
   1271  C5        11.3860   48.4220   26.2770 C.ar   60  C60         0.0566
   1272  C6        11.4690   48.1290   24.9530 C.ar   60  C60         0.0850
   1273  OP1        8.6460   43.6770   22.5600 O.2    60  C60        -0.5172
   1274  OP2        8.8800   44.8160   24.9360 O.co2  60  C60        -0.4373
   1275  P         13.8860   43.7430   22.2100 P.3    61  C61         0.2141
   1276  C5'       16.3350   44.4790   22.7180 C.3    61  C61         0.1812
   1277  O5'       15.0880   44.0190   23.2050 O.3    61  C61        -0.3114
   1278  C4'       17.3200   44.5370   23.8320 C.3    61  C61         0.1773
   1279  O4'       16.9240   45.5480   24.7820 O.3    61  C61        -0.3307
   1280  C3'       17.4330   43.2790   24.6800 C.3    61  C61         0.1860
   1281  O3'       18.2230   42.2890   24.0520 O.3    61  C61        -0.3112
   1282  C2'       18.0620   43.8060   25.9590 C.3    61  C61         0.2309
   1283  O2'       19.4500   43.9440   25.7640 O.3    61  C61        -0.2156
   1284  C1'       17.4330   45.2150   26.0560 C.3    61  C61         0.2420
   1285  N1        16.2950   45.3130   26.9720 N.ar   61  C61        -0.2535
   1286  C2        16.5300   45.4770   28.3370 C.ar   61  C61         0.3532
   1287  O2        17.6980   45.4810   28.7630 O.2    61  C61        -0.2443
   1288  N3        15.4800   45.6190   29.1600 N.ar   61  C61        -0.1739
   1289  C4        14.2210   45.6280   28.6440 C.ar   61  C61         0.1759
   1290  N4        13.2020   45.7840   29.5060 N.pl3  61  C61        -0.1070
   1291  C5        13.9550   45.4640   27.2480 C.ar   61  C61         0.0566
   1292  C6        15.0230   45.3140   26.4420 C.ar   61  C61         0.0850
   1293  OP1       14.3650   42.9910   21.0260 O.2    61  C61        -0.5172
   1294  OP2       12.7950   43.2890   23.0850 O.co2  61  C61        -0.4373
   1295  P         17.8140   40.7290   24.1800 P.3    62  U62         0.2141
   1296  C5'       19.3720   40.5530   26.2650 C.3    62  U62         0.1812
   1297  O5'       18.0680   40.4360   25.7180 O.3    62  U62        -0.3114
   1298  C4'       19.3380   40.0980   27.6980 C.3    62  U62         0.1773
   1299  O4'       18.4380   40.9880   28.4200 O.3    62  U62        -0.3307
   1300  C3'       18.8030   38.6720   27.9210 C.3    62  U62         0.1860
   1301  O3'       19.4960   38.0760   29.0060 O.3    62  U62        -0.3112
   1302  C2'       17.3500   38.9060   28.3380 C.3    62  U62         0.2309
   1303  O2'       16.8080   37.9130   29.1930 O.3    62  U62        -0.2156
   1304  C1'       17.4620   40.2330   29.0970 C.3    62  U62         0.2420
   1305  N1        16.2070   40.9770   29.1210 N.ar   62  U62        -0.2534
   1306  C2        15.6590   41.1690   30.3550 C.ar   62  U62         0.3546
   1307  O2        16.2110   40.7560   31.3590 O.2    62  U62        -0.2443
   1308  N3        14.4540   41.8340   30.3630 N.ar   62  U62        -0.1530
   1309  C4        13.7590   42.2890   29.2690 C.ar   62  U62         0.2846
   1310  O4        12.6730   42.8600   29.4250 O.2    62  U62        -0.2650
   1311  C5        14.3950   42.0350   28.0150 C.ar   62  U62         0.0814
   1312  C6        15.5850   41.3960   27.9830 C.ar   62  U62         0.0870
   1313  OP1       18.8000   40.0730   23.3160 O.2    62  U62        -0.5172
   1314  OP2       16.3540   40.5240   24.1370 O.co2  62  U62        -0.4373
   1315  P         20.7470   37.0690   28.7320 P.3    63  C63         0.2141
   1316  C5'       19.2690   34.9980   27.9620 C.3    63  C63         0.1812
   1317  O5'       20.0910   35.6200   28.9350 O.3    63  C63        -0.3114
   1318  C4'       18.4400   33.9180   28.6380 C.3    63  C63         0.1773
   1319  O4'       19.3370   32.8760   29.1510 O.3    63  C63        -0.3307
   1320  C3'       17.6720   34.4220   29.8580 C.3    63  C63         0.1860
   1321  O3'       16.5320   33.6060   30.0350 O.3    63  C63        -0.3112
   1322  C2'       18.6540   34.1840   30.9970 C.3    63  C63         0.2309
   1323  O2'       18.0600   34.1420   32.2830 O.3    63  C63        -0.2156
   1324  C1'       19.2890   32.8560   30.5740 C.3    63  C63         0.2420
   1325  N1        20.6540   32.6860   31.0570 N.ar   63  C63        -0.2535
   1326  C2        20.8480   32.1460   32.3080 C.ar   63  C63         0.3532
   1327  O2        19.8810   31.7640   32.9730 O.2    63  C63        -0.2443
   1328  N3        22.0940   31.9890   32.7740 N.ar   63  C63        -0.1739
   1329  C4        23.1080   32.3810   32.0450 C.ar   63  C63         0.1759
   1330  N4        24.2830   32.1510   32.6210 N.pl3  63  C63        -0.1070
   1331  C5        22.9610   32.9300   30.7490 C.ar   63  C63         0.0566
   1332  C6        21.7060   33.0900   30.2870 C.ar   63  C63         0.0850
   1333  OP1       21.6320   37.1350   29.8770 O.3    63  C63        -0.4373
   1334  OP2       21.2080   37.1800   27.3420 O.co2  63  C63        -0.5172
   1335  P         15.0880   34.0850   29.4510 P.3    64  U64         0.2141
   1336  C5'       13.9430   34.2580   31.7910 C.3    64  U64         0.1812
   1337  O5'       14.4890   34.9130   30.6590 O.3    64  U64        -0.3114
   1338  C4'       13.8450   35.1890   32.9820 C.3    64  U64         0.1773
   1339  O4'       15.1700   35.4530   33.5230 O.3    64  U64        -0.3307
   1340  C3'       13.2090   36.5690   32.7310 C.3    64  U64         0.1860
   1341  O3'       12.5250   36.9380   33.9190 O.3    64  U64        -0.3112
   1342  C2'       14.4360   37.4710   32.6010 C.3    64  U64         0.2309
   1343  O2'       14.1830   38.8470   32.8290 O.3    64  U64        -0.2156
   1344  C1'       15.3480   36.8630   33.6630 C.3    64  U64         0.2420
   1345  N1        16.7910   37.2230   33.5580 N.ar   64  U64        -0.2534
   1346  C2        17.5130   37.3090   34.7540 C.ar   64  U64         0.3546
   1347  O2        17.0190   37.0980   35.8530 O.2    64  U64        -0.2443
   1348  N3        18.8440   37.6260   34.6520 N.ar   64  U64        -0.1530
   1349  C4        19.5080   37.9060   33.4870 C.ar   64  U64         0.2846
   1350  O4        20.7020   38.2040   33.5670 O.2    64  U64        -0.2650
   1351  C5        18.7290   37.7780   32.2930 C.ar   64  U64         0.0814
   1352  C6        17.4140   37.4670   32.3580 C.ar   64  U64         0.0870
   1353  OP1       14.3290   32.8520   29.3020 O.3    64  U64        -0.4373
   1354  OP2       15.3220   34.8960   28.2170 O.co2  64  U64        -0.5172
   1355  P         10.9390   37.2440   33.9190 P.3    65  U65         0.2141
   1356  C5'       11.5140   39.1940   35.5490 C.3    65  U65         0.1812
   1357  O5'       10.7480   38.0300   35.2860 O.3    65  U65        -0.3114
   1358  C4'       12.1160   39.1650   36.9290 C.3    65  U65         0.1773
   1359  O4'       13.4240   38.5500   36.8590 O.3    65  U65        -0.3307
   1360  C3'       12.3860   40.5430   37.5220 C.3    65  U65         0.1860
   1361  O3'       11.2400   41.0890   38.1340 O.3    65  U65        -0.3112
   1362  C2'       13.5600   40.3040   38.4610 C.3    65  U65         0.2309
   1363  O2'       13.1360   39.7400   39.6970 O.3    65  U65        -0.2156
   1364  C1'       14.3330   39.2320   37.7050 C.3    65  U65         0.2420
   1365  N1        15.4650   39.7430   36.8860 N.ar   65  U65        -0.2534
   1366  C2        16.6280   40.0450   37.5440 C.ar   65  U65         0.3546
   1367  O2        16.7380   39.9680   38.7560 O.2    65  U65        -0.2443
   1368  N3        17.6650   40.4420   36.7440 N.ar   65  U65        -0.1530
   1369  C4        17.6530   40.5620   35.3820 C.ar   65  U65         0.2846
   1370  O4        18.6830   40.9390   34.8210 O.2    65  U65        -0.2650
   1371  C5        16.4020   40.2240   34.7580 C.ar   65  U65         0.0814
   1372  C6        15.3890   39.8340   35.5190 C.ar   65  U65         0.0870
   1373  OP1       10.1760   35.9640   34.0100 O.3    65  U65        -0.4373
   1374  OP2       10.7530   38.1460   32.7520 O.co2  65  U65        -0.5172
   1375  P         10.8890   42.6590   37.9770 P.3    66  C66         0.2141
   1376  C5'       11.9150   42.9640   40.3060 C.3    66  C66         0.1812
   1377  O5'       11.9300   43.3270   38.9470 O.3    66  C66        -0.3114
   1378  C4'       13.1190   43.4880   41.0000 C.3    66  C66         0.1773
   1379  O4'       14.2840   42.7470   40.5840 O.3    66  C66        -0.3307
   1380  C3'       13.4910   44.9270   40.7050 C.3    66  C66         0.1860
   1381  O3'       12.6760   45.8470   41.3980 O.3    66  C66        -0.3112
   1382  C2'       14.9470   44.9550   41.1240 C.3    66  C66         0.2309
   1383  O2'       15.0450   44.9540   42.5390 O.3    66  C66        -0.2156
   1384  C1'       15.4150   43.5880   40.6200 C.3    66  C66         0.2420
   1385  N1        15.9810   43.6530   39.2560 N.ar   66  C66        -0.2535
   1386  C2        17.3050   44.0680   39.1490 C.ar   66  C66         0.3532
   1387  O2        17.8910   44.3400   40.2060 O.2    66  C66        -0.2443
   1388  N3        17.8870   44.1480   37.9220 N.ar   66  C66        -0.1739
   1389  C4        17.1650   43.8370   36.8290 C.ar   66  C66         0.1759
   1390  N4        17.7620   43.9370   35.6280 N.pl3  66  C66        -0.1070
   1391  C5        15.7940   43.4170   36.9170 C.ar   66  C66         0.0566
   1392  C6        15.2300   43.3510   38.1410 C.ar   66  C66         0.0850
   1393  OP1        9.5200   42.7970   38.5270 O.3    66  C66        -0.4373
   1394  OP2       11.1470   43.2120   36.6340 O.co2  66  C66        -0.5172
   1395  P         12.4880   47.3580   40.8790 P.3    67  C67         0.2141
   1396  C5'       14.5420   48.3030   42.1940 C.3    67  C67         0.1812
   1397  O5'       13.9610   47.9710   40.9420 O.3    67  C67        -0.3114
   1398  C4'       15.9290   48.8820   42.0440 C.3    67  C67         0.1773
   1399  O4'       16.8180   47.8780   41.4890 O.3    67  C67        -0.3307
   1400  C3'       16.0660   50.0510   41.0870 C.3    67  C67         0.1860
   1401  O3'       15.6410   51.2900   41.6200 O.3    67  C67        -0.3112
   1402  C2'       17.5370   49.9980   40.7230 C.3    67  C67         0.2309
   1403  O2'       18.3480   50.5020   41.7710 O.3    67  C67        -0.2156
   1404  C1'       17.7520   48.4930   40.6240 C.3    67  C67         0.2420
   1405  N1        17.4950   48.0240   39.2480 N.ar   67  C67        -0.2535
   1406  C2        18.5380   48.1260   38.3780 C.ar   67  C67         0.3532
   1407  O2        19.6170   48.5870   38.7990 O.2    67  C67        -0.2443
   1408  N3        18.3670   47.7310   37.1040 N.ar   67  C67        -0.1739
   1409  C4        17.2050   47.2520   36.7040 C.ar   67  C67         0.1759
   1410  N4        17.1440   46.8900   35.4250 N.pl3  67  C67        -0.1070
   1411  C5        16.0810   47.1550   37.5830 C.ar   67  C67         0.0566
   1412  C6        16.2680   47.5590   38.8500 C.ar   67  C67         0.0850
   1413  OP1       11.6960   48.0140   41.9360 O.3    67  C67        -0.4373
   1414  OP2       11.8820   47.3850   39.5210 O.co2  67  C67        -0.5172
   1415  P         15.0200   52.4140   40.6450 P.3    68  G68         0.2141
   1416  C5'       17.4490   53.3590   40.4240 C.3    68  G68         0.1812
   1417  O5'       16.2830   52.8740   39.7830 O.3    68  G68        -0.3114
   1418  C4'       18.5840   53.5670   39.4640 C.3    68  G68         0.1773
   1419  O4'       19.0660   52.2870   38.9780 O.3    68  G68        -0.3307
   1420  C3'       18.3030   54.3530   38.1830 C.3    68  G68         0.1860
   1421  O3'       18.2030   55.7580   38.3710 O.3    68  G68        -0.3112
   1422  C2'       19.4800   53.9480   37.3130 C.3    68  G68         0.2309
   1423  O2'       20.6710   54.6190   37.7290 O.3    68  G68        -0.2156
   1424  C1'       19.6140   52.4550   37.6790 C.3    68  G68         0.2408
   1425  N1        19.8270   50.2180   33.1110 N.ar   68  G68        -0.1709
   1426  C2        20.7600   51.0050   33.7700 C.ar   68  G68         0.2606
   1427  N2        21.9230   51.2680   33.1490 N.pl3  68  G68        -0.0859
   1428  N3        20.5690   51.5090   34.9720 N.ar   68  G68        -0.1918
   1429  C4        19.3530   51.2150   35.4930 C.ar   68  G68         0.1723
   1430  C5        18.3600   50.4410   34.9420 C.ar   68  G68         0.1748
   1431  C6        18.5750   49.8770   33.6570 C.ar   68  G68         0.3023
   1432  O6        17.7640   49.1930   33.0210 O.2    68  G68        -0.2633
   1433  N7        17.2620   50.3790   35.7880 N.ar   68  G68        -0.2173
   1434  C8        17.6160   51.0720   36.8430 C.ar   68  G68         0.1817
   1435  N9        18.8860   51.5930   36.7180 N.ar   68  G68        -0.2693
   1436  OP1       14.5520   53.5010   41.5400 O.3    68  G68        -0.4373
   1437  OP2       14.0020   51.9210   39.6810 O.co2  68  G68        -0.5172
   1438  P         17.2000   56.6610   37.4720 P.3    69  A69         0.2141
   1439  C5'       19.2450   57.4420   36.0520 C.3    69  A69         0.1812
   1440  O5'       17.9740   56.8110   36.0920 O.3    69  A69        -0.3114
   1441  C4'       19.9710   57.0760   34.7980 C.3    69  A69         0.1773
   1442  O4'       20.0940   55.6270   34.7700 O.3    69  A69        -0.3307
   1443  C3'       19.2770   57.3970   33.4760 C.3    69  A69         0.1860
   1444  O3'       19.4030   58.7440   33.0210 O.3    69  A69        -0.3112
   1445  C2'       19.9500   56.4300   32.5430 C.3    69  A69         0.2309
   1446  O2'       21.2530   56.9020   32.2780 O.3    69  A69        -0.2156
   1447  C1'       20.0630   55.1800   33.4350 C.3    69  A69         0.2408
   1448  N1        17.9860   51.6940   30.4070 N.ar   69  A69        -0.2040
   1449  C2        19.1550   52.3290   30.3470 C.ar   69  A69         0.2016
   1450  N3        19.6290   53.2040   31.2050 N.ar   69  A69        -0.2048
   1451  C4        18.7490   53.4330   32.1910 C.ar   69  A69         0.1692
   1452  C5        17.5080   52.8700   32.3640 C.ar   69  A69         0.1518
   1453  C6        17.1250   51.9340   31.4040 C.ar   69  A69         0.1919
   1454  N6        15.9400   51.3140   31.4060 N.pl3  69  A69        -0.1054
   1455  N7        16.8840   53.3850   33.4930 N.ar   69  A69        -0.2193
   1456  C8        17.7430   54.2430   34.0070 C.ar   69  A69         0.1816
   1457  N9        18.8900   54.3110   33.2470 N.ar   69  A69        -0.2693
   1458  OP1       17.1960   57.9800   38.1680 O.3    69  A69        -0.4373
   1459  OP2       15.8740   56.0500   37.1690 O.co2  69  A69        -0.5172
   1460  P         18.3040   59.3690   32.0140 P.3    70  G70         0.2141
   1461  C5'       19.2590   58.7090   29.6710 C.3    70  G70         0.1812
   1462  O5'       18.2920   58.4920   30.6730 O.3    70  G70        -0.3114
   1463  C4'       19.3320   57.6100   28.6320 C.3    70  G70         0.1773
   1464  O4'       19.2130   56.2680   29.1950 O.3    70  G70        -0.3307
   1465  C3'       18.3150   57.6030   27.5080 C.3    70  G70         0.1860
   1466  O3'       18.5330   58.6630   26.5860 O.3    70  G70        -0.3112
   1467  C2'       18.5820   56.2180   26.9100 C.3    70  G70         0.2309
   1468  O2'       19.8540   56.2520   26.2830 O.3    70  G70        -0.2156
   1469  C1'       18.7730   55.3820   28.1830 C.3    70  G70         0.2408
   1470  N1        15.0850   51.9870   26.9900 N.ar   70  G70        -0.1709
   1471  C2        16.2310   52.3310   26.2920 C.ar   70  G70         0.2606
   1472  N2        16.3930   51.7320   25.1080 N.pl3  70  G70        -0.0859
   1473  N3        17.1190   53.2420   26.7080 N.ar   70  G70        -0.1918
   1474  C4        16.7940   53.7750   27.9170 C.ar   70  G70         0.1723
   1475  C5        15.6880   53.4700   28.7160 C.ar   70  G70         0.1748
   1476  C6        14.7620   52.4760   28.2580 C.ar   70  G70         0.3023
   1477  O6        13.7420   52.0700   28.8150 O.2    70  G70        -0.2633
   1478  N7        15.7170   54.2150   29.8910 N.ar   70  G70        -0.2173
   1479  C8        16.8190   54.9210   29.7980 C.ar   70  G70         0.1817
   1480  N9        17.5130   54.7310   28.6190 N.ar   70  G70        -0.2693
   1481  OP1       18.7880   60.7450   31.7280 O.2    70  G70        -0.5172
   1482  OP2       16.9360   59.0080   32.4060 O.co2  70  G70        -0.4373
   1483  P         17.2860   59.4540   25.9570 P.3    71  G71         0.2141
   1484  C5'       17.7560   58.1300   23.7440 C.3    71  G71         0.1812
   1485  O5'       16.8180   58.5420   24.7340 O.3    71  G71        -0.3114
   1486  C4'       17.2610   56.9100   23.0070 C.3    71  G71         0.1773
   1487  O4'       17.1130   55.7990   23.9210 O.3    71  G71        -0.3307
   1488  C3'       15.8930   57.0370   22.3560 C.3    71  G71         0.1860
   1489  O3'       16.0100   57.6170   21.0830 O.3    71  G71        -0.3112
   1490  C2'       15.4540   55.5840   22.2360 C.3    71  G71         0.2309
   1491  O2'       16.1650   54.9860   21.1690 O.3    71  G71        -0.2156
   1492  C1'       16.0120   54.9920   23.5130 C.3    71  G71         0.2408
   1493  N1        11.6870   52.9630   25.2810 N.ar   71  G71        -0.1709
   1494  C2        12.3150   52.7640   24.0700 C.ar   71  G71         0.2606
   1495  N2        11.7240   51.9220   23.2110 N.pl3  71  G71        -0.0859
   1496  N3        13.4470   53.3700   23.6800 N.ar   71  G71        -0.1918
   1497  C4        13.8800   54.1960   24.6380 C.ar   71  G71         0.1723
   1498  C5        13.3380   54.4610   25.8750 C.ar   71  G71         0.1748
   1499  C6        12.1710   53.8210   26.2700 C.ar   71  G71         0.3023
   1500  O6        11.6270   53.9950   27.3590 O.2    71  G71        -0.2633
   1501  N7        14.1010   55.3760   26.5960 N.ar   71  G71        -0.2173
   1502  C8        15.0740   55.6600   25.7870 C.ar   71  G71         0.1817
   1503  N9        15.0240   54.9700   24.5950 N.ar   71  G71        -0.2693
   1504  OP1       17.7450   60.6200   25.2130 O.2    71  G71        -0.5172
   1505  OP2       16.2440   59.5360   26.9910 O.co2  71  G71        -0.4373
   1506  P         14.8150   58.4060   20.4280 P.3    72  G72         0.2141
   1507  C5'       14.1530   56.2630   18.9550 C.3    72  G72         0.1812
   1508  O5'       13.7980   57.2440   19.9360 O.3    72  G72        -0.3114
   1509  C4'       12.9760   55.3510   18.6220 C.3    72  G72         0.1773
   1510  O4'       12.4250   54.8020   19.8450 O.3    72  G72        -0.3307
   1511  C3'       11.8200   56.0400   17.9350 C.3    72  G72         0.1860
   1512  O3'       11.1330   55.0980   17.0990 O.3    72  G72        -0.3112
   1513  C2'       10.9210   56.4360   19.1070 C.3    72  G72         0.2309
   1514  O2'        9.5730   56.6220   18.7080 O.3    72  G72        -0.2156
   1515  C1'       11.0830   55.2340   20.0120 C.3    72  G72         0.2408
   1516  N1         8.2820   54.2880   24.1650 N.ar   72  G72        -0.1709
   1517  C2         8.0170   53.8770   22.8640 C.ar   72  G72         0.2606
   1518  N2         6.8870   53.1510   22.6650 N.pl3  72  G72        -0.0859
   1519  N3         8.7770   54.2070   21.8290 N.ar   72  G72        -0.1918
   1520  C4         9.8800   54.9300   22.2320 C.ar   72  G72         0.1723
   1521  C5        10.1940   55.3850   23.4780 C.ar   72  G72         0.1748
   1522  C6         9.3720   55.0820   24.5660 C.ar   72  G72         0.3023
   1523  O6         9.5680   55.4070   25.7440 O.2    72  G72        -0.2633
   1524  N7        11.3820   56.0930   23.4920 N.ar   72  G72        -0.2173
   1525  C8        11.7480   56.1300   22.2550 C.ar   72  G72         0.1817
   1526  N9        10.8820   55.4510   21.4400 N.ar   72  G72        -0.2693
   1527  OP1       15.2940   59.0570   19.1730 O.2    72  G72        -0.5172
   1528  OP2       14.0440   59.1340   21.4150 O.co2  72  G72        -0.4373
   1529  P         11.4470   55.0460   15.5250 P.3    73  U73         0.2141
   1530  C5'       12.1460   52.5010   15.5670 C.3    73  U73         0.1812
   1531  O5'       11.2480   53.5130   15.1430 O.3    73  U73        -0.3114
   1532  C4'       11.5310   51.1350   15.3470 C.3    73  U73         0.1773
   1533  O4'       10.6890   50.7900   16.4860 O.3    73  U73        -0.3307
   1534  C3'       10.6290   51.0550   14.1160 C.3    73  U73         0.1860
   1535  O3'       10.7380   49.7610   13.5170 O.3    73  U73        -0.3112
   1536  C2'        9.2380   51.2730   14.7080 C.3    73  U73         0.2309
   1537  O2'        8.1850   50.7640   13.9300 O.3    73  U73        -0.2156
   1538  C1'        9.3580   50.5710   16.0560 C.3    73  U73         0.2420
   1539  N1         8.4580   51.0700   17.1170 N.ar   73  U73        -0.2534
   1540  C2         7.4100   50.2660   17.5640 C.ar   73  U73         0.3546
   1541  O2         7.1740   49.1850   17.1110 O.2    73  U73        -0.2443
   1542  N3         6.6360   50.7410   18.5760 N.ar   73  U73        -0.1530
   1543  C4         6.7860   51.9460   19.2130 C.ar   73  U73         0.2846
   1544  O4         6.0170   52.2500   20.1250 O.2    73  U73        -0.2650
   1545  C5         7.8690   52.7420   18.7120 C.ar   73  U73         0.0814
   1546  C6         8.6510   52.2810   17.7310 C.ar   73  U73         0.0870
   1547  OP1       12.8740   55.3780   15.2650 O.3    73  U73        -0.4373
   1548  OP2       10.4280   55.8170   14.8230 O.co2  73  U73        -0.5172
   1549  P         11.3550   49.5930   12.0310 P.3    74  C74         0.2141
   1550  C5'       13.8120   48.9570   12.5700 C.3    74  C74         0.1812
   1551  O5'       12.8840   49.9450   12.1790 O.3    74  C74        -0.3114
   1552  C4'       15.1700   49.5620   12.7170 C.3    74  C74         0.1773
   1553  O4'       15.5150   50.2580   11.4840 O.3    74  C74        -0.3307
   1554  C3'       15.2820   50.5980   13.8260 C.3    74  C74         0.1860
   1555  O3'       16.5870   50.5250   14.3620 O.3    74  C74        -0.3112
   1556  C2'       15.1350   51.9090   13.0640 C.3    74  C74         0.2309
   1557  O2'       15.6720   53.0380   13.7100 O.3    74  C74        -0.2156
   1558  C1'       15.8950   51.5750   11.7900 C.3    74  C74         0.2420
   1559  N1        15.6140   52.4540   10.6430 N.ar   74  C74        -0.2535
   1560  C2        16.6520   53.3160   10.2670 C.ar   74  C74         0.3532
   1561  O2        17.7280   53.2810   10.8880 O.2    74  C74        -0.2443
   1562  N3        16.4830   54.1470    9.2380 N.ar   74  C74        -0.1739
   1563  C4        15.3150   54.1510    8.5960 C.ar   74  C74         0.1759
   1564  N4        15.2060   55.0090    7.5830 N.pl3  74  C74        -0.1070
   1565  C5        14.2150   53.3120    8.9690 C.ar   74  C74         0.0566
   1566  C6        14.4100   52.4710    9.9990 C.ar   74  C74         0.0850
   1567  OP1       10.8080   50.6290   11.1330 O.2    74  C74        -0.5172
   1568  OP2       11.3140   48.1590   11.6450 O.co2  74  C74        -0.4373
   1569  P         16.8420   49.6600   15.6900 P.3    75  A75         0.2141
   1570  C5'       16.3780   51.8570   17.0620 C.3    75  A75         0.1812
   1571  O5'       16.0520   50.5010   16.8050 O.3    75  A75        -0.3114
   1572  C4'       15.7990   52.2900   18.3810 C.3    75  A75         0.1773
   1573  O4'       14.3560   52.3130   18.3090 O.3    75  A75        -0.3307
   1574  C3'       16.1330   51.3670   19.5220 C.3    75  A75         0.1860
   1575  O3'       17.3290   51.7870   20.1240 O.3    75  A75        -0.3112
   1576  C2'       14.9270   51.4280   20.4540 C.3    75  A75         0.2309
   1577  O2'       15.0650   52.4330   21.4730 O.3    75  A75        -0.2156
   1578  C1'       13.7940   51.8010   19.5000 C.3    75  A75         0.2408
   1579  N1         9.4210   49.4510   20.1920 N.ar   75  A75        -0.2040
   1580  C2         9.9050   50.5610   20.7440 C.ar   75  A75         0.2016
   1581  N3        11.1120   51.0990   20.5040 N.ar   75  A75        -0.2048
   1582  C4        11.7710   50.3730   19.5940 C.ar   75  A75         0.1692
   1583  C5        11.3650   49.2040   18.9460 C.ar   75  A75         0.1518
   1584  C6        10.1090   48.7160   19.2940 C.ar   75  A75         0.1919
   1585  N6         9.5540   47.5940   18.7780 N.pl3  75  A75        -0.1054
   1586  N7        12.3560   48.7600   18.0970 N.ar   75  A75        -0.2193
   1587  C8        13.3240   49.6390   18.2160 C.ar   75  A75         0.1816
   1588  N9        12.9960   50.6380   19.1150 N.ar   75  A75        -0.2693
   1589  OP1       18.2890   49.6960   16.0120 O.3    75  A75        -0.4373
   1590  OP2       16.0300   48.4290   15.6110 O.co2  75  A75        -0.5172
   1591  P         18.6530   50.8810   19.9850 P.3    76  U76         0.2141
   1592  C5'       18.1840   49.8480   22.3440 C.3    76  U76         0.1812
   1593  O5'       18.3250   49.6430   20.9420 O.3    76  U76        -0.3114
   1594  C4'       19.5220   50.0270   23.0490 C.3    76  U76         0.1773
   1595  O4'       19.2610   50.5040   24.3950 O.3    76  U76        -0.3307
   1596  C3'       20.3460   48.7620   23.2280 C.3    76  U76         0.1860
   1597  O3'       21.6960   49.1500   23.4620 O.3    76  U76        -0.3112
   1598  C2'       19.7820   48.2110   24.5230 C.3    76  U76         0.2309
   1599  O2'       20.6410   47.3380   25.2120 O.3    76  U76        -0.2156
   1600  C1'       19.5950   49.4930   25.3300 C.3    76  U76         0.2420
   1601  N1        18.4970   49.4070   26.2820 N.ar   76  U76        -0.2534
   1602  C2        18.7090   50.1260   27.4260 C.ar   76  U76         0.3546
   1603  O2        19.7580   50.7210   27.5650 O.2    76  U76        -0.2443
   1604  N3        17.6770   50.1060   28.3330 N.ar   76  U76        -0.1530
   1605  C4        16.4790   49.3930   28.1350 C.ar   76  U76         0.2846
   1606  O4        15.6290   49.4200   29.0080 O.2    76  U76        -0.2650
   1607  C5        16.3610   48.6570   26.9060 C.ar   76  U76         0.0814
   1608  C6        17.3650   48.6810   26.0170 C.ar   76  U76         0.0870
   1609  OP1       19.7260   51.7100   20.5440 O.3    76  U76        -0.4373
   1610  OP2       18.8590   50.3710   18.5950 O.co2  76  U76        -0.5172
   1611  P         22.9240   48.1900   23.0570 P.3    77  C77         0.2141
   1612  C5'       24.6130   48.2800   25.0050 C.3    77  C77         0.1812
   1613  O5'       23.4680   47.6790   24.4670 O.3    77  C77        -0.3114
   1614  C4'       24.4530   48.9290   26.3670 C.3    77  C77         0.1773
   1615  O4'       23.1340   49.4810   26.6620 O.3    77  C77        -0.3307
   1616  C3'       24.7570   48.1300   27.6000 C.3    77  C77         0.1860
   1617  O3'       26.1300   47.7650   27.7250 O.3    77  C77        -0.3112
   1618  C2'       24.3330   49.1170   28.6820 C.3    77  C77         0.2309
   1619  O2'       25.2760   50.1750   28.7690 O.3    77  C77        -0.2156
   1620  C1'       23.0590   49.6960   28.0710 C.3    77  C77         0.2420
   1621  N1        21.8570   49.0660   28.6610 N.ar   77  C77        -0.2535
   1622  C2        21.4940   49.5860   29.8960 C.ar   77  C77         0.3532
   1623  O2        22.1990   50.4920   30.3610 O.2    77  C77        -0.2443
   1624  N3        20.4080   49.1250   30.5650 N.ar   77  C77        -0.1739
   1625  C4        19.7150   48.1390   29.9910 C.ar   77  C77         0.1759
   1626  N4        18.6610   47.7100   30.6560 N.pl3  77  C77        -0.1070
   1627  C5        20.0720   47.5570   28.7350 C.ar   77  C77         0.0566
   1628  C6        21.1720   48.0180   28.1060 C.ar   77  C77         0.0850
   1629  OP1       24.0430   49.0150   22.5730 O.3    77  C77        -0.4373
   1630  OP2       22.4230   47.0440   22.2690 O.co2  77  C77        -0.5172
   1631  P         26.5170   46.4330   28.5410 P.3    78  G78         0.2141
   1632  C5'       27.2050   48.1140   30.3660 C.3    78  G78         0.1812
   1633  O5'       26.5700   46.8690   30.0740 O.3    78  G78        -0.3114
   1634  C4'       26.9480   48.5700   31.7720 C.3    78  G78         0.1773
   1635  O4'       25.6350   49.1940   31.9070 O.3    78  G78        -0.3307
   1636  C3'       26.9370   47.4850   32.8160 C.3    78  G78         0.1860
   1637  O3'       28.2470   47.0290   33.1280 O.3    78  G78        -0.3112
   1638  C2'       26.2240   48.1710   33.9710 C.3    78  G78         0.2309
   1639  O2'       27.0950   49.0890   34.6040 O.3    78  G78        -0.2156
   1640  C1'       25.1620   48.9870   33.2270 C.3    78  G78         0.2408
   1641  N1        20.7940   47.8520   35.4970 N.ar   78  G78        -0.1709
   1642  C2        21.8440   48.6090   35.9490 C.ar   78  G78         0.2606
   1643  N2        21.7340   49.1270   37.1880 N.pl3  78  G78        -0.0859
   1644  N3        22.9420   48.8120   35.2750 N.ar   78  G78        -0.1918
   1645  C4        22.8760   48.2380   34.0810 C.ar   78  G78         0.1723
   1646  C5        21.8720   47.4770   33.5350 C.ar   78  G78         0.1748
   1647  C6        20.6970   47.2390   34.2670 C.ar   78  G78         0.3023
   1648  O6        19.6540   46.6110   33.9460 O.2    78  G78        -0.2633
   1649  N7        22.2220   47.0570   32.2570 N.ar   78  G78        -0.2173
   1650  C8        23.4120   47.5580   32.0650 C.ar   78  G78         0.1817
   1651  N9        23.8660   48.2780   33.1460 N.ar   78  G78        -0.2693
   1652  OP1       27.8880   46.0520   28.0680 O.2    78  G78        -0.5172
   1653  OP2       25.3750   45.5000   28.4350 O.co2  78  G78        -0.4373
   1654  P         28.4740   45.5420   33.7250 P.3    79  G79         0.2141
   1655  C5'       28.5540   46.2810   36.2130 C.3    79  G79         0.1812
   1656  O5'       27.8520   45.6190   35.1900 O.3    79  G79        -0.3114
   1657  C4'       27.7250   46.4920   37.4470 C.3    79  G79         0.1773
   1658  O4'       26.4740   47.1500   37.1300 O.3    79  G79        -0.3307
   1659  C3'       27.3050   45.2350   38.1820 C.3    79  G79         0.1860
   1660  O3'       28.3580   44.6850   38.9640 O.3    79  G79        -0.3112
   1661  C2'       26.1070   45.7170   38.9930 C.3    79  G79         0.2309
   1662  O2'       26.5340   46.4330   40.1420 O.3    79  G79        -0.2156
   1663  C1'       25.4520   46.6920   38.0100 C.3    79  G79         0.2408
   1664  N1        20.5510   44.9270   37.5690 N.ar   79  G79        -0.1709
   1665  C2        21.1620   45.5180   38.6510 C.ar   79  G79         0.2606
   1666  N2        20.3770   45.6490   39.7280 N.pl3  79  G79        -0.0859
   1667  N3        22.4160   45.9250   38.6830 N.ar   79  G79        -0.1918
   1668  C4        23.0560   45.7320   37.5130 C.ar   79  G79         0.1723
   1669  C5        22.5260   45.1560   36.3730 C.ar   79  G79         0.1748
   1670  C6        21.1800   44.6910   36.3680 C.ar   79  G79         0.3023
   1671  O6        20.5420   44.1560   35.4610 O.2    79  G79        -0.2633
   1672  N7        23.4750   45.0740   35.3740 N.ar   79  G79        -0.2173
   1673  C8        24.5410   45.6130   35.9100 C.ar   79  G79         0.1817
   1674  N9        24.3710   46.0460   37.2020 N.ar   79  G79        -0.2693
   1675  OP1       29.9430   45.3650   33.9280 O.3    79  G79        -0.4373
   1676  OP2       27.7660   44.5560   32.8420 O.co2  79  G79        -0.5172
   1677  P         28.3860   43.1130   39.3410 P.3    80  A80         0.2141
   1678  C5'       27.0720   43.7040   41.5680 C.3    80  A80         0.1812
   1679  O5'       27.1730   42.9430   40.3670 O.3    80  A80        -0.3114
   1680  C4'       25.7310   43.4800   42.2280 C.3    80  A80         0.1773
   1681  O4'       24.6730   44.0240   41.3960 O.3    80  A80        -0.3307
   1682  C3'       25.3060   42.0250   42.4450 C.3    80  A80         0.1860
   1683  O3'       25.8830   41.4240   43.5940 O.3    80  A80        -0.3112
   1684  C2'       23.7890   42.1350   42.5410 C.3    80  A80         0.2309
   1685  O2'       23.4170   42.6350   43.8150 O.3    80  A80        -0.2156
   1686  C1'       23.5000   43.2220   41.5080 C.3    80  A80         0.2408
   1687  N1        19.9120   41.3470   38.1560 N.ar   80  A80        -0.2040
   1688  C2        19.8030   41.7310   39.4440 C.ar   80  A80         0.2016
   1689  N3        20.7600   42.2020   40.2520 N.ar   80  A80        -0.2048
   1690  C4        21.9610   42.2690   39.6400 C.ar   80  A80         0.1692
   1691  C5        22.2230   41.9290   38.3310 C.ar   80  A80         0.1518
   1692  C6        21.1400   41.4540   37.5660 C.ar   80  A80         0.1919
   1693  N6        21.2560   41.0970   36.2780 N.pl3  80  A80        -0.1054
   1694  N7        23.5800   42.1200   38.0200 N.ar   80  A80        -0.2193
   1695  C8        24.0800   42.5780   39.1310 C.ar   80  A80         0.1816
   1696  N9        23.1770   42.6870   40.1590 N.ar   80  A80        -0.2693
   1697  OP1       29.6400   42.8360   40.0890 O.3    80  A80        -0.4373
   1698  OP2       28.1140   42.3160   38.1020 O.co2  80  A80        -0.5172
   1699  P         26.1820   39.8420   43.6390 P.3    81  A81         0.2141
   1700  C5'       23.8860   38.9540   44.6000 C.3    81  A81         0.1812
   1701  O5'       24.7570   39.1430   43.4900 O.3    81  A81        -0.3114
   1702  C4'       22.4630   38.7330   44.1310 C.3    81  A81         0.1773
   1703  O4'       22.3090   39.3990   42.8550 O.3    81  A81        -0.3307
   1704  C3'       22.0340   37.2920   43.8450 C.3    81  A81         0.1860
   1705  O3'       21.6090   36.5610   44.9910 O.3    81  A81        -0.3112
   1706  C2'       20.9350   37.4540   42.7890 C.3    81  A81         0.2309
   1707  O2'       19.6760   37.7350   43.3930 O.3    81  A81        -0.2156
   1708  C1'       21.3940   38.6990   42.0390 C.3    81  A81         0.2408
   1709  N1        20.3330   37.6920   37.1030 N.ar   81  A81        -0.2040
   1710  C2        19.5800   37.7310   38.2050 C.ar   81  A81         0.2016
   1711  N3        19.9490   37.9830   39.4580 N.ar   81  A81        -0.2048
   1712  C4        21.2690   38.2260   39.5380 C.ar   81  A81         0.1692
   1713  C5        22.1730   38.2400   38.4870 C.ar   81  A81         0.1518
   1714  C6        21.6460   37.9460   37.2040 C.ar   81  A81         0.1919
   1715  N6        22.3320   37.9070   36.0590 N.pl3  81  A81        -0.1054
   1716  N7        23.4570   38.5390   38.9530 N.ar   81  A81        -0.2193
   1717  C8        23.2710   38.6990   40.2510 C.ar   81  A81         0.1816
   1718  N9        21.9800   38.4930   40.6880 N.ar   81  A81        -0.2693
   1719  OP1       26.6470   39.5560   45.0200 O.3    81  A81        -0.4373
   1720  OP2       27.0380   39.4890   42.4650 O.co2  81  A81        -0.5172
   1721  P         22.3030   35.1620   45.3900 P.3    82  C82         0.2141
   1722  C5'       20.9910   33.7190   43.5900 C.3    82  C82         0.1812
   1723  O5'       22.2240   34.2550   44.0770 O.3    82  C82        -0.3114
   1724  C4'       20.9920   33.5940   42.0780 C.3    82  C82         0.1773
   1725  O4'       21.2410   34.9040   41.5060 O.3    82  C82        -0.3307
   1726  C3'       22.0910   32.7250   41.4830 C.3    82  C82         0.1860
   1727  O3'       21.8120   31.3410   41.4900 O.3    82  C82        -0.3112
   1728  C2'       22.2920   33.3230   40.0960 C.3    82  C82         0.2309
   1729  O2'       21.2590   32.9210   39.2070 O.3    82  C82        -0.2156
   1730  C1'       22.1070   34.8040   40.3960 C.3    82  C82         0.2420
   1731  N1        23.3900   35.4730   40.7260 N.ar   82  C82        -0.2535
   1732  C2        24.1600   35.9420   39.6630 C.ar   82  C82         0.3532
   1733  O2        23.7180   35.8230   38.5200 O.2    82  C82        -0.2443
   1734  N3        25.3420   36.5650   39.8920 N.ar   82  C82        -0.1739
   1735  C4        25.7890   36.7100   41.1400 C.ar   82  C82         0.1759
   1736  N4        26.9640   37.3310   41.3100 N.pl3  82  C82        -0.1070
   1737  C5        25.0310   36.2280   42.2520 C.ar   82  C82         0.0566
   1738  C6        23.8690   35.6160   41.9910 C.ar   82  C82         0.0850
   1739  OP1       21.4500   34.5450   46.4310 O.3    82  C82        -0.4373
   1740  OP2       23.7460   35.4210   45.6290 O.co2  82  C82        -0.5172
   1741  P         22.9950   30.3540   41.9110 P.3    83  C83         0.2141
   1742  C5'       25.3770   29.9920   40.8700 C.3    83  C83         0.1813
   1743  O5'       24.0890   30.5790   40.7760 O.3    83  C83        -0.3114
   1744  C4'       26.0820   30.0490   39.5420 C.3    83  C83         0.1801
   1745  O4'       25.3320   29.2820   38.5720 O.3    83  C83        -0.3306
   1746  C3'       26.1750   31.4320   38.9330 C.3    83  C83         0.2161
   1747  O3'       27.2910   32.1350   39.4080 O.3    83  C83        -0.2175
   1748  C2'       26.2410   31.1670   37.4440 C.3    83  C83         0.2338
   1749  O2'       27.5490   30.7850   37.0540 O.3    83  C83        -0.2155
   1750  C1'       25.3590   29.9320   37.3180 C.3    83  C83         0.2421
   1751  N1        23.9750   30.2100   36.8990 N.ar   83  C83        -0.2535
   1752  C2        23.7160   30.5830   35.5900 C.ar   83  C83         0.3532
   1753  O2        24.6810   30.7500   34.8340 O.2    83  C83        -0.2443
   1754  N3        22.4220   30.7590   35.1770 N.ar   83  C83        -0.1739
   1755  C4        21.4180   30.5900   36.0290 C.ar   83  C83         0.1759
   1756  N4        20.1460   30.8040   35.5760 N.pl3  83  C83        -0.1070
   1757  C5        21.6740   30.1990   37.3830 C.ar   83  C83         0.0566
   1758  C6        22.9390   30.0190   37.7690 C.ar   83  C83         0.0850
   1759  OP1       22.5680   28.9480   41.7840 O.2    83  C83        -0.5172
   1760  OP2       23.4760   30.8210   43.2470 O.co2  83  C83        -0.4373
@<TRIPOS>BOND
     1   574   576    1
     2   574   575    1
     3   576   577    1
     4   576   578    1
     5   577   582    1
     6   595   573    2
     7   579   578    1
     8   579   596    1
     9   581   580    1
    10   594   573    1
    11   616   596    2
    12   575   573    1
    13   578   580    1
    14   573   559    1
    15   582   580    1
    16   582   593    1
    17   596   617    1
    18   596   598    1
    19   597   598    1
    20   597   599    1
    21   593   592   ar
    22   593   587   ar
    23   559   558    1
    24   592   591   ar
    25   572   553    2
    26   571   553    1
    27   555   554    1
    28   555   553    1
    29   558   556    1
    30   558   560    1
    31   554   556    1
    32   556   557    1
    33   553   539    1
    34   599   600    1
    35   599   601    1
    36   587   586   ar
    37   587   588   ar
    38   600   605    1
    39   586   584   ar
    40   591   588   ar
    41   588   589   ar
    42   511   493    2
    43   560   561    1
    44   560   562    1
    45   557   562    1
    46   614   613   ar
    47   614   615   ar
    48   601   602    1
    49   601   603    1
    50   584   585    1
    51   584   583   ar
    52   605   615    1
    53   605   603    1
    54   531   513    2
    55   539   538    1
    56   602   618    1
    57   562   563    1
    58   613   610   ar
    59   615   609   ar
    60   589   583   ar
    61   589   590    2
    62   603   604    1
    63   538   536    1
    64   538   540    1
    65   493   476    1
    66   493   512    1
    67   493   495    1
    68   476   475    1
    69   532   513    1
    70   636   618    2
    71   513   499    1
    72   513   515    1
    73   637   618    1
    74   536   534    1
    75   536   537    1
    76   494   495    1
    77   494   496    1
    78   618   620    1
    79   491   470    2
    80   534   535    1
    81   610   609   ar
    82   610   611   ar
    83   499   498    1
    84   609   608   ar
    85   563   570   ar
    86   563   564   ar
    87   471   473    1
    88   471   472    1
    89   535   533    1
    90   473   475    1
    91   473   474    1
    92   570   569   ar
    93   541   540    1
    94   565   564    2
    95   540   542    1
    96   496   498    1
    97   496   497    1
    98   475   477    1
    99   537   542    1
   100   478   477    1
   101   552   533    2
   102   515   514    1
   103   608   607   ar
   104   498   500    1
   105   611   612    1
   106   611   606   ar
   107   620   619    1
   108   564   566   ar
   109   472   470    1
   110   470   456    1
   111   470   492    1
   112   514   516    1
   113   542   543    1
   114   456   455    1
   115   533   519    1
   116   533   551    1
   117   477   479    1
   118   619   621    1
   119   607   606   ar
   120   569   567   ar
   121   474   479    1
   122   497   502    1
   123   519   518    1
   124   458   457    1
   125   501   500    1
   126   500   502    1
   127   566   567   ar
   128   516   518    1
   129   516   517    1
   130   479   490    1
   131   518   520    1
   132   545   544    2
   133   543   544   ar
   134   543   550   ar
   135   567   568    1
   136   455   457    1
   137   455   453    1
   138   622   621    1
   139   622   627    1
   140   502   503    1
   141   621   623    1
   142   457   459    1
   143   453   451    1
   144   453   454    1
   145   635   634   ar
   146   635   628   ar
   147   544   546   ar
   148   510   503   ar
   149   510   509   ar
   150   634   632   ar
   151   550   549   ar
   152   451   452    1
   153   517   522    1
   154   530   529   ar
   155   530   523   ar
   156   529   527   ar
   157   490   489   ar
   158   490   484   ar
   159   503   504   ar
   160   468   450    2
   161   509   507   ar
   162   627   628    1
   163   627   625    1
   164   520   522    1
   165   520   521    1
   166   628   629   ar
   167   489   488   ar
   168   452   450    1
   169   623   624    1
   170   623   625    1
   171   454   459    1
   172   459   460    1
   173   632   633    1
   174   632   631   ar
   175   522   523    1
   176   523   524   ar
   177   546   547   ar
   178   483   484   ar
   179   483   481   ar
   180   484   485   ar
   181   549   547   ar
   182   624   638    1
   183   450   436    1
   184   450   469    1
   185   527   528    1
   186   527   526   ar
   187   504   505    2
   188   504   506   ar
   189   625   626    1
   190   659   638    2
   191   629   631   ar
   192   629   630    2
   193   488   485   ar
   194   507   506   ar
   195   507   508    2
   196   462   461    2
   197   547   548    2
   198   460   461   ar
   199   460   467   ar
   200    21     1    1
   201   485   486   ar
   202   638   658    1
   203   638   640    1
   204   481   482    1
   205   481   480   ar
   206   436   435    1
   207    22     1    1
   208   524   526   ar
   209   524   525    2
   210   461   463   ar
   211   775   774    1
   212   438   437    1
   213     1     3    1
   214   467   466   ar
   215   480   486   ar
   216   486   487    2
   217   437   435    1
   218   437   439    1
   219   756   757   ar
   220   756   755   ar
   221   463   464   ar
   222   435   433    1
   223   753   752    1
   224   779   778    1
   225   655   656   ar
   226   655   652   ar
   227   640   639    1
   228   776   771    1
   229   776   774    1
   230   776   787    1
   231   771   770    1
   232   757   758   ar
   233   466   464   ar
   234   770   768    1
   235   770   772    1
   236   774   772    1
   237   656   657   ar
   238   780   778   ar
   239   780   781   ar
   240   654   653    1
   241   464   465    2
   242   755   760   ar
   243   778   777   ar
   244   639   641    1
   245     3     2    1
   246   794   793    1
   247   794   799    1
   248   793   791    1
   249   793   795    1
   250   791   792    1
   251   433   431    1
   252   433   434    1
   253   768   769    1
   254   772   773    1
   255   442   441    2
   256   773   790    1
   257   798   797    1
   258   652   653   ar
   259   652   651   ar
   260   787   781   ar
   261   787   786   ar
   262   754   752    1
   263   754   749    1
   264   754   764    1
   265   737   736    2
   266   697   696    2
   267   713   714   ar
   268   713   718   ar
   269   752   750    1
   270   781   782   ar
   271   758   764   ar
   272   758   759   ar
   273   642   641    1
   274   642   647    1
   275   675   674    1
   276   439   434    1
   277   439   440    1
   278   653   648   ar
   279   714   715   ar
   280   657   651   ar
   281   657   647    1
   282   799   797    1
   283   799   809    1
   284     2     4    1
   285   690   696   ar
   286   690   691   ar
   287   749   748    1
   288   431   432    1
   289   764   763   ar
   290   777   783   ar
   291   641   643    1
   292   441   440   ar
   293   441   443   ar
   294   760   759   ar
   295   760   761    1
   296   719   718    1
   297   810   790    2
   298   696   695   ar
   299   651   650   ar
   300   797   795    1
   301   792   790    1
   302   440   447   ar
   303   718   717   ar
   304   748   750    1
   305   748   746    1
   306   647   645    1
   307   786   785   ar
   308   795   796    1
   309   736   738   ar
   310   736   735   ar
   311   692   691    1
   312    18    19   ar
   313    18    15   ar
   314   759   762   ar
   315   738   739   ar
   316   796   812    1
   317   790   811    1
   318    19    20   ar
   319   782   783   ar
   320   782   785   ar
   321   769   767    1
   322   432   430    1
   323   750   751    1
   324   674   676   ar
   325   674   673   ar
   326   751   767    1
   327   676   677   ar
   328   443   444   ar
   329   648   649   ar
   330   691   693   ar
   331   733   732    1
   332   809   808   ar
   333   809   803   ar
   334   715   716   ar
   335     6     8    1
   336     6     4    1
   337     6     7    1
   338   783   784    2
   339     8     9    1
   340     8    10    1
   341   643   645    1
   342   643   644    1
   343     4     5    1
   344   448   430    2
   345   679   660    2
   346   447   446   ar
   347    41    42   ar
   348    41    38   ar
   349   802   803   ar
   350   802   801   ar
   351   763   762   ar
   352   650   649   ar
   353   808   807   ar
   354   734   735    1
   355   734   732    1
   356   734   729    1
   357    17    16    1
   358    15    16   ar
   359    15    14   ar
   360   695   698   ar
   361   695   694   ar
   362    20    10    1
   363    20    14   ar
   364   767   788    2
   365   767   789    1
   366   803   804   ar
   367    42    43   ar
   368   830   812    2
   369   735   742   ar
   370   739   740    1
   371   739   741   ar
   372   746   747    1
   373   673   671   ar
   374   444   446   ar
   375   444   445    1
   376   717   716   ar
   377   717   720   ar
   378   732   730    1
   379   645   646    1
   380   430   449    1
   381   430   416    1
   382     5    10    1
   383    40    39    2
   384     7    23    1
   385   716   722   ar
   386   677   670   ar
   387   812   814    1
   388   812   831    1
   389   813   814    1
   390   813   815    1
   391    16    11   ar
   392   644   660    1
   393   693   694   ar
   394   801   800   ar
   395   840   839    1
   396   698   699   ar
   397    14    13   ar
   398    38    39   ar
   399    38    37   ar
   400  1564  1563    1
   401   694   700   ar
   402    39    33   ar
   403   660   662    1
   404   660   678    1
   405   807   804   ar
   406   804   805   ar
   407   729   728    1
   408   816   815    1
   409   816   821    1
   410   815   817    1
   411    43    37   ar
   412    43    32    1
   413   747   745    1
   414   742   741   ar
   415   671   670   ar
   416   671   672    2
   417   720   721   ar
   418   836   835    1
   419   836   841    1
   420   670   669    1
   421   835   833    1
   422   835   837    1
   423   416   415    1
   424    27    32    1
   425    27    26    1
   426    37    36   ar
   427    11    12   ar
   428   722   721   ar
   429   722   712    1
   430   418   417    1
   431   841   839    1
   432   841   851    1
   433   800   805   ar
   434   730   728    1
   435   730   731    1
   436    32    30    1
   437    25    23    1
   438    25    24    1
   439    13    12   ar
   440   662   661    1
   441    23    45    2
   442    23    44    1
   443   699   700   ar
   444  1563  1565   ar
   445  1563  1562   ar
   446   805   806    1
   447   728   726    1
   448   833   834    1
   449   839   837    1
   450    33    34   ar
   451   417   415    1
   452   417   419    1
   453   731   745    1
   454   700   689    1
   455   838   837    1
   456   838   854    1
   457   821   822    1
   458   821   819    1
   459  1565  1566   ar
   460   422   421    2
   461   712   710    1
   462   712   707    1
   463   415   413    1
   464   664   669    1
   465   664   663    1
   466  1562  1560   ar
   467   745   765    2
   468   745   766    1
   469   669   667    1
   470   817   818    1
   471   817   819    1
   472    36    34   ar
   473   829   822   ar
   474   829   828   ar
   475   711   710    1
   476   710   708    1
   477   844   845   ar
   478   844   843   ar
   479    34    35    1
   480   851   845   ar
   481   851   850   ar
   482    26    24    1
   483    26    28    1
   484   818   832    1
   485   421   423   ar
   486   421   420   ar
   487   822   823   ar
   488   820   819    1
   489   661   663    1
   490   855   857    1
   491   855   856    1
   492   423   424   ar
   493   874   854    2
   494   689   687    1
   495   689   684    1
   496   834   832    1
   497    30    31    1
   498    30    28    1
   499  1566  1559   ar
   500   845   846   ar
   501   828   826   ar
   502   726   727    1
   503   419   420    1
   504   419   414    1
   505   663   665    1
   506   420   427   ar
   507   707   706    1
   508   854   856    1
   509   854   875    1
   510   843   842   ar
   511   857   858    1
   512   857   859    1
   513  1560  1559   ar
   514  1560  1561    2
   515   823   824    2
   516   823   825   ar
   517   858   863    1
   518   850   849   ar
   519   424   425    2
   520   424   426   ar
   521   413   414    1
   522   413   411    1
   523   667   665    1
   524   667   668    1
   525   665   666    1
   526   852   832    2
   527    28    29    1
   528   727   725    1
   529   832   853    1
   530  1559  1558    1
   531   687   688    1
   532   687   685    1
   533   684   683    1
   534   427   426   ar
   535   826   825   ar
   536   826   827    2
   537   708   706    1
   538   708   709    1
   539   702   680    2
   540   846   849   ar
   541   846   847   ar
   542  1567  1549    2
   543   842   847   ar
   544   411   412    1
   545   412   410    1
   546   706   704    1
   547  1553  1558    1
   548  1553  1552    1
   549   863   861    1
   550   863   873    1
   551  1568  1549    1
   552   860   859    1
   553   860   876    1
   554   859   861    1
   555   862   861    1
   556   709   725    1
   557   685   683    1
   558   685   686    1
   559  1558  1556    1
   560   847   848    1
   561   666   680    1
   562    29    46    1
   563   682   680    1
   564   682   681    1
   565   725   744    2
   566   725   743    1
   567  1549  1551    1
   568  1549  1535    1
   569   253   234    2
   570   429   410    2
   571   399   398    1
   572   683   681    1
   573   680   701    1
   574  1551  1550    1
   575   397   398   ar
   576   397   403   ar
   577   428   410    1
   578   705   704    1
   579   705   703    1
   580   404   403    2
   581   872   873   ar
   582   872   871   ar
   583   410   393    1
   584   873   867   ar
   585   894   876    2
   586   724   703    2
   587  1550  1552    1
   588   398   400   ar
   589   403   402   ar
   590  1552  1554    1
   591    64    46    2
   592   876   895    1
   593   876   878    1
   594   686   703    1
   595   297   276    2
   596  1556  1557    1
   597  1556  1554    1
   598   703   723    1
   599    46    65    1
   600    46    48    1
   601   871   868   ar
   602   400   401   ar
   603   234   252    1
   604   234   236    1
   605   234   220    1
   606   867   866   ar
   607   867   868   ar
   608   317   299    2
   609   402   401   ar
   610   402   405   ar
   611  1535  1534    1
   612   877   878    1
   613   877   879    1
   614    62    63   ar
   615    62    60   ar
   616   866   865   ar
   617   401   407   ar
   618    63    56   ar
   619    50    49    1
   620    50    55    1
   621   236   235    1
   622  1554  1555    1
   623    47    48    1
   624    47    49    1
   625   393   392    1
   626   868   869   ar
   627  1537  1536    1
   628   298   276    1
   629   405   406   ar
   630  1534  1536    1
   631  1534  1532    1
   632   394   392    1
   633   394   395    1
   634   394   396    1
   635   276   278    1
   636   276   260    1
   637    61    60    1
   638   318   299    1
   639   274   254    2
   640    60    59   ar
   641   392   390    1
   642  1555  1569    1
   643   220   219    1
   644   262   261    1
   645    49    51    1
   646    56    55    1
   647    56    57   ar
   648   299   282    1
   649   299   301    1
   650   407   406   ar
   651   407   396    1
   652   879   880    1
   653   879   881    1
   654   235   237    1
   655    55    53    1
   656  1536  1538    1
   657   865   864   ar
   658   278   277    1
   659   277   279    1
   660  1548  1529    2
   661   880   885    1
   662   409   387    2
   663   869   864   ar
   664   869   870    1
   665   341   319    2
   666    59    57   ar
   667   222   221    1
   668  1531  1529    1
   669  1531  1530    1
   670   282   281    1
   671   396   391    1
   672    57    58    2
   673   381   380    2
   674  1547  1529    1
   675   219   221    1
   676   219   217    1
   677   259   260    1
   678   259   261    1
   679   259   257    1
   680  1532  1530    1
   681  1532  1533    1
   682   340   319    1
   683   261   263    1
   684   275   254    1
   685  1529  1512    1
   686   254   256    1
   687   254   240    1
   688   389   387    1
   689   389   388    1
   690  1590  1569    2
   691  1569  1589    1
   692  1569  1571    1
   693   301   300    1
   694   893   892   ar
   695   893   886   ar
   696   390   391    1
   697   390   388    1
   698   239   237    1
   699   239   240    1
   700   239   241    1
   701   279   281    1
   702   279   280    1
   703    51    53    1
   704    51    52    1
   705   387   408    1
   706   387   370    1
   707   237   238    1
   708   881   882    1
   709   881   883    1
   710   892   890   ar
   711   319   305    1
   712   319   321    1
   713   221   223    1
   714   380   374   ar
   715   380   379   ar
   716  1538  1533    1
   717  1538  1539    1
   718   281   283    1
   719    53    54    1
   720   914   896    2
   721   885   886    1
   722   885   883    1
   723   300   302    1
   724   256   255    1
   725   363   342    2
   726   374   375   ar
   727   886   887   ar
   728   217   215    1
   729   217   218    1
   730   882   896    1
   731   238   243    1
   732   386   364    2
   733   382   379   ar
   734   382   383   ar
   735   257   255    1
   736   257   258    1
   737   379   378   ar
   738   305   304    1
   739   883   884    1
   740   241   243    1
   741   241   242    1
   742  1571  1570    1
   743   263   273    1
   744   263   258    1
   745   890   891    2
   746   890   889   ar
   747    52    66    1
   748   223   218    1
   749   223   224    1
   750  1570  1572    1
   751   215   216    1
   752   226   225    2
   753  1512  1511    1
   754  1541  1540    2
   755  1539  1540   ar
   756  1539  1546   ar
   757   362   342    1
   758   321   320    1
   759   216   214    1
   760   280   285    1
   761   375   376    1
   762   375   377   ar
   763   897   898    1
   764   897   899    1
   765   896   898    1
   766   896   915    1
   767   272   273   ar
   768   272   271   ar
   769   887   889   ar
   770   887   888    2
   771   251   250   ar
   772   251   244   ar
   773    81    80    2
   774   304   302    1
   775   304   306    1
   776   342   344    1
   777   342   325    1
   778   273   267   ar
   779   370   369    1
   780   383   384   ar
   781   243   244    1
   782   283   284    1
   783   283   285    1
   784   302   303    1
   785  1540  1542   ar
   786   378   377   ar
   787   378   384   ar
   788   358   357    1
   789    85    66    2
   790    82    80   ar
   791    82    83   ar
   792  1546  1545   ar
   793   369   371    1
   794   369   367    1
   795   250   248   ar
   796   364   366    1
   797   364   385    1
   798   364   348    1
   799   366   365    1
   800    80    79   ar
   801  1511  1509    1
   802  1511  1513    1
   803   244   245   ar
   804   937   916    2
   805   271   268   ar
   806   225   224   ar
   807   225   227   ar
   808   384   373    1
   809  1586  1587   ar
   810  1586  1583   ar
   811   233   214    2
   812   320   322    1
   813    66    84    1
   814    66    68    1
   815   224   231   ar
   816   285   296    1
   817   359   356   ar
   818   359   360   ar
   819   899   900    1
   820   899   901    1
   821   232   214    1
   822  1587  1588   ar
   823   371   373    1
   824   371   372    1
   825   315   316   ar
   826   315   313   ar
   827   214   197    1
   828   295   296   ar
   829   295   294   ar
   830   316   309   ar
   831  1573  1572    1
   832  1573  1578    1
   833   267   268   ar
   834   267   266   ar
   835   344   343    1
   836  1572  1574    1
   837   325   324    1
   838    83    76   ar
   839   902   916    1
   840   902   901    1
   841   357   356   ar
   842   357   352   ar
   843  1542  1543   ar
   844  1610  1591    2
   845  1509  1507    1
   846  1509  1510    1
   847   303   308    1
   848   268   269   ar
   849  1514  1513    1
   850  1545  1543   ar
   851   296   290   ar
   852   337   338   ar
   853   337   334   ar
   854  1585  1584    1
   855   266   265   ar
   856   356   355   ar
   857   365   367    1
   858   324   322    1
   859   324   326    1
   860   306   308    1
   861   306   307    1
   862   360   361   ar
   863    79    77   ar
   864  1583  1584   ar
   865  1583  1582   ar
   866  1507  1508    1
   867   338   339   ar
   868   294   291   ar
   869   373   368    1
   870   367   368    1
   871   900   905    1
   872   248   249    2
   873   248   247   ar
   874  1513  1515    1
   875  1588  1578    1
   876  1588  1582   ar
   877   227   228   ar
   878   916   938    1
   879   916   918    1
   880    68    67    1
   881   901   903    1
   882  1527  1506    2
   883   336   335    2
   884   348   347    1
   885  1543  1544    2
   886   245   247   ar
   887   245   246    2
   888   322   323    1
   889   231   230   ar
   890   313   314    1
   891   313   312   ar
   892  1584  1579   ar
   893    76    77   ar
   894    76    75    1
   895   309   308    1
   896   309   310   ar
   897   352   353   ar
   898    70    75    1
   899    70    69    1
   900   347   349    1
   901   347   345    1
   902  1578  1576    1
   903   904   903    1
   904  1574  1575    1
   905  1574  1576    1
   906   343   345    1
   907   269   270    1
   908   269   264   ar
   909    77    78    2
   910    67    69    1
   911  1582  1581   ar
   912   197   196    1
   913   265   264   ar
   914   334   335   ar
   915   334   333   ar
   916  1110  1092    2
   917   355   361   ar
   918   355   354   ar
   919   290   291   ar
   920   290   289   ar
   921  1510  1515    1
   922   361   351    1
   923   335   329   ar
   924  1508  1506    1
   925   291   292   ar
   926  1591  1575    1
   927  1591  1609    1
   928  1591  1593    1
   929  1515  1526    1
   930    75    73    1
   931   323   328    1
   932   339   333   ar
   933   339   328    1
   934   101   100    1
   935   326   328    1
   936   326   327    1
   937   903   905    1
   938  1579  1580   ar
   939   917   918    1
   940   917   919    1
   941   905   906    1
   942  1111  1092    1
   943   349   351    1
   944   349   350    1
   945   312   310   ar
   946   228   230   ar
   947   228   229    2
   948   345   346    1
   949   353   354   ar
   950   310   311    2
   951    69    71    1
   952  1096  1095    1
   953  1096  1101    1
   954  1506  1489    1
   955  1506  1528    1
   956  1576  1577    1
   957  1581  1580   ar
   958   333   332   ar
   959  1109  1108   ar
   960  1109  1102   ar
   961  1108  1106   ar
   962   289   287   ar
   963   196   194    1
   964   196   198    1
   965  1094  1092    1
   966  1094  1093    1
   967  1092  1076    1
   968  1093  1095    1
   969   346   351    1
   970  1090  1070    2
   971  1593  1592    1
   972   329   330   ar
   973   292   293    2
   974   292   286   ar
   975   100   102   ar
   976   100    99   ar
   977  1293  1275    2
   978  1489  1488    1
   979   913   906   ar
   980   913   912   ar
   981  1102  1101    1
   982  1102  1103   ar
   983  1491  1490    1
   984  1095  1097    1
   985  1101  1099    1
   986  1106  1107    1
   987  1106  1105   ar
   988   199   198    1
   989  1263  1262    1
   990   194   192    1
   991   194   195    1
   992   906   907   ar
   993   102   103   ar
   994    71    73    1
   995    71    72    1
   996  1526  1520   ar
   997  1526  1525   ar
   998    73    74    1
   999   123   122    2
  1000   919   920    1
  1001   919   921    1
  1002  1261  1275    1
  1003  1261  1260    1
  1004   287   286   ar
  1005   287   288    1
  1006  1258  1256    1
  1007  1258  1259    1
  1008  1258  1260    1
  1009    99    97   ar
  1010   332   330   ar
  1011  1256  1257    1
  1012   198   200    1
  1013   330   331    1
  1014  1243  1242    1
  1015  1105  1103   ar
  1016  1103  1104    2
  1017  1519  1520   ar
  1018  1519  1517   ar
  1019   192   193    1
  1020   960   939    2
  1021   961   939    1
  1022   922   921    1
  1023   922   939    1
  1024  1259  1264    1
  1025   912   910   ar
  1026  1054  1070    1
  1027  1054  1053    1
  1028  1275  1294    1
  1029  1275  1277    1
  1030  1520  1521   ar
  1031  1490  1488    1
  1032  1490  1492    1
  1033  1076  1075    1
  1034  1525  1524   ar
  1035  1070  1072    1
  1036  1070  1091    1
  1037  1630  1611    2
  1038   103    96   ar
  1039  1260  1262    1
  1040   200   195    1
  1041   200   211    1
  1042  1056  1055    1
  1043   920   925    1
  1044  1592  1594    1
  1045  1488  1486    1
  1046  1071  1073    1
  1047  1071  1072    1
  1048   116   122   ar
  1049   116   117   ar
  1050   921   923    1
  1051   122   121   ar
  1052  1127  1126    2
  1053   939   941    1
  1054  1262  1264    1
  1055    97    96   ar
  1056    97    98    2
  1057  1273  1255    2
  1058  1629  1611    1
  1059    72    86    1
  1060  1097  1099    1
  1061  1097  1098    1
  1062   907   908    2
  1063   907   909   ar
  1064  1075  1073    1
  1065  1075  1077    1
  1066  1099  1100    1
  1067   193   191    1
  1068  1518  1517    1
  1069  1276  1277    1
  1070  1276  1278    1
  1071   105    86    2
  1072  1264  1265    1
  1073  1073  1074    1
  1074  1517  1516   ar
  1075    96    95    1
  1076  1486  1484    1
  1077  1486  1487    1
  1078  1051  1053    1
  1079  1051  1049    1
  1080  1051  1052    1
  1081  1241  1255    1
  1082  1241  1240    1
  1083  1594  1596    1
  1084  1594  1595    1
  1085  1257  1255    1
  1086  1611  1597    1
  1087  1611  1613    1
  1088   118   117    1
  1089  1242  1240    1
  1090  1242  1244    1
  1091  1495  1494    1
  1092  1596  1597    1
  1093  1596  1598    1
  1094   935   934   ar
  1095   935   936   ar
  1096  1126  1128   ar
  1097  1126  1125   ar
  1098  1053  1055    1
  1099  1313  1295    2
  1100   161   160    2
  1101   117   119   ar
  1102   212   191    2
  1103  1049  1050    1
  1104  1255  1274    1
  1105   910   909   ar
  1106   910   911    1
  1107  1521  1524   ar
  1108  1521  1522   ar
  1109    86    88    1
  1110    86   104    1
  1111   121   124   ar
  1112   121   120   ar
  1113  1492  1487    1
  1114  1492  1503    1
  1115   204   205   ar
  1116   204   202   ar
  1117  1055  1057    1
  1118  1098  1112    1
  1119  1247  1246    2
  1120   211   205   ar
  1121   211   210   ar
  1122  1496  1494   ar
  1123  1496  1497   ar
  1124  1128  1129   ar
  1125   925   923    1
  1126   925   936    1
  1127   203   202    1
  1128  1484  1485    1
  1129   144   143    1
  1130  1240  1238    1
  1131   923   924    1
  1132  1278  1280    1
  1133  1278  1279    1
  1134  1244  1239    1
  1135  1244  1245    1
  1136  1238  1239    1
  1137  1238  1236    1
  1138    90    95    1
  1139    90    89    1
  1140  1052  1057    1
  1141   124   125   ar
  1142   934   931   ar
  1143   191   175    1
  1144   191   213    1
  1145    95    93    1
  1146  1125  1123   ar
  1147   162   160   ar
  1148   162   163   ar
  1149  1267  1266    2
  1150   941   940    1
  1151  1281  1295    1
  1152  1281  1280    1
  1153  1077  1078    1
  1154  1077  1079    1
  1155  1494  1493   ar
  1156    88    87    1
  1157  1036  1035    1
  1158   936   930   ar
  1159   142   143   ar
  1160   142   140   ar
  1161  1314  1295    1
  1162  1516  1522   ar
  1163   205   206   ar
  1164  1295  1297    1
  1165  1265  1266   ar
  1166  1265  1272   ar
  1167   160   159   ar
  1168  1057  1067    1
  1169   202   201   ar
  1170  1074  1079    1
  1171   120   119   ar
  1172   120   126   ar
  1173  1595  1600    1
  1174  1613  1612    1
  1175   141   140    2
  1176  1068  1048    2
  1177  1598  1599    1
  1178  1598  1600    1
  1179   143   145   ar
  1180  1522  1523    2
  1181  1503  1497   ar
  1182  1503  1502   ar
  1183   175   174    1
  1184  1497  1498   ar
  1185  1129  1122   ar
  1186   210   209   ar
  1187  1280  1282    1
  1188  1050  1048    1
  1189  1485  1483    1
  1190  1279  1284    1
  1191   164   163    1
  1192  1266  1268   ar
  1193  1246  1245   ar
  1194  1246  1248   ar
  1195  1131  1112    2
  1196   140   139   ar
  1197   940   942    1
  1198  1236  1237    1
  1199  1079  1089    1
  1200  1123  1122   ar
  1201  1123  1124    2
  1202   125   126   ar
  1203  1272  1271   ar
  1204    87    89    1
  1205  1227  1226    2
  1206   163   165   ar
  1207  1612  1614    1
  1208  1112  1114    1
  1209  1112  1130    1
  1210  1245  1252   ar
  1211  1472  1471    1
  1212  1040  1039    2
  1213    89    91    1
  1214  1504  1483    2
  1215  1122  1121    1
  1216  1034  1048    1
  1217  1034  1033    1
  1218   931   930   ar
  1219   931   932   ar
  1220   126   115    1
  1221  1493  1499   ar
  1222    93    91    1
  1223    93    94    1
  1224  1600  1601    1
  1225  1035  1033    1
  1226  1035  1037    1
  1227   177   176    1
  1228   930   929   ar
  1229  1048  1069    1
  1230   159   158    1
  1231   159   166   ar
  1232  1223  1222    1
  1233   206   209   ar
  1234   206   207   ar
  1235  1204  1203    1
  1236   201   207   ar
  1237    91    92    1
  1238   158   156    1
  1239   158   153    1
  1240  1067  1061   ar
  1241  1067  1066   ar
  1242  1116  1121    1
  1243  1116  1115    1
  1244  1114  1113    1
  1245  1297  1296    1
  1246  1283  1282    1
  1247   157   156    1
  1248  1502  1501   ar
  1249   145   146   ar
  1250   958   957   ar
  1251   958   959   ar
  1252   957   954   ar
  1253  1022  1021    2
  1254  1498  1499   ar
  1255  1498  1501   ar
  1256  1248  1249   ar
  1257  1017  1016    1
  1258  1015  1021   ar
  1259  1015  1016   ar
  1260  1483  1466    1
  1261  1483  1505    1
  1262  1282  1284    1
  1263   178   176    1
  1264   178   173    1
  1265   178   188    1
  1266  1060  1061   ar
  1267  1060  1059   ar
  1268   174   176    1
  1269   174   172    1
  1270  1608  1601   ar
  1271  1608  1607   ar
  1272   187   188   ar
  1273   187   186   ar
  1274  1284  1285    1
  1275   139   146   ar
  1276   139   138    1
  1277  1033  1031    1
  1278  1113  1115    1
  1279  1268  1269   ar
  1280  1226  1228   ar
  1281  1226  1225   ar
  1282  1237  1235    1
  1283   984   962    2
  1284   165   166   ar
  1285   207   208    2
  1286  1037  1038    1
  1287  1037  1032    1
  1288  1121  1119    1
  1289  1296  1298    1
  1290  1499  1500    2
  1291   156   154    1
  1292  1271  1269   ar
  1293  1601  1602   ar
  1294  1468  1467    1
  1295  1471  1473   ar
  1296  1471  1470   ar
  1297  1089  1088   ar
  1298  1089  1083   ar
  1299  1252  1251   ar
  1300   942   943    1
  1301   942   944    1
  1302   115   110    1
  1303   115   113    1
  1304  1039  1041   ar
  1305  1039  1038   ar
  1306  1614  1615    1
  1307  1614  1616    1
  1308  1222  1224    1
  1309  1222  1220    1
  1310   932   933    2
  1311   932   926   ar
  1312  1228  1229   ar
  1313  1202  1203   ar
  1314  1202  1208   ar
  1315  1061  1062   ar
  1316  1292  1285   ar
  1317  1292  1291   ar
  1318   929   927   ar
  1319  1021  1020   ar
  1320  1066  1065   ar
  1321   173   172    1
  1322  1016  1018   ar
  1323  1466  1465    1
  1324   943   948    1
  1325  1203  1205   ar
  1326   153   152    1
  1327  1615  1620    1
  1328  1115  1117    1
  1329   172   170    1
  1330   188   182   ar
  1331  1473  1474   ar
  1332   128   106    2
  1333  1031  1032    1
  1334  1031  1029    1
  1335   138   136    1
  1336   138   133    1
  1337   110   109    1
  1338  1224  1225    1
  1339  1224  1219    1
  1340  1088  1087   ar
  1341  1269  1270    1
  1342   186   183   ar
  1343  1607  1605   ar
  1344  1467  1465    1
  1345  1467  1469    1
  1346   944   945    1
  1347   944   946    1
  1348  1285  1286   ar
  1349  1470  1476   ar
  1350  1041  1042   ar
  1351  1038  1045   ar
  1352    92   106    1
  1353  1059  1058   ar
  1354  1249  1251   ar
  1355  1249  1250    1
  1356   959   948    1
  1357   959   953   ar
  1358  1225  1232   ar
  1359   954   955   ar
  1360   954   953   ar
  1361  1209  1208    2
  1362   962   945    1
  1363   962   983    1
  1364   962   964    1
  1365  1082  1083   ar
  1366  1082  1081   ar
  1367  1291  1289   ar
  1368  1000   999    2
  1369  1083  1084   ar
  1370  1334  1315    2
  1371   956   955    2
  1372  1119  1117    1
  1373  1119  1120    1
  1374  1602  1603    2
  1375  1602  1604   ar
  1376  1253  1235    2
  1377  1208  1207   ar
  1378   113   114    1
  1379   113   111    1
  1380  1465  1463    1
  1381  1221  1235    1
  1382  1221  1220    1
  1383   926   927   ar
  1384  1235  1254    1
  1385   927   928    1
  1386  1616  1617    1
  1387  1616  1618    1
  1388   136   137    1
  1389   136   134    1
  1390   979   978    2
  1391  1147  1146    1
  1392   948   946    1
  1393   106   108    1
  1394   106   127    1
  1395  1229  1230    1
  1396  1229  1231   ar
  1397  1298  1300    1
  1398  1298  1299    1
  1399   133   132    1
  1400  1220  1218    1
  1401  1617  1631    1
  1402  1062  1065   ar
  1403  1062  1063   ar
  1404  1018  1019   ar
  1405   154   152    1
  1406   154   155    1
  1407   108   107    1
  1408   152   150    1
  1409  1020  1019   ar
  1410  1020  1023   ar
  1411  1205  1206   ar
  1412   955   949   ar
  1413  1117  1118    1
  1414  1474  1480   ar
  1415  1474  1475   ar
  1416  1300  1302    1
  1417  1300  1301    1
  1418  1219  1218    1
  1419  1316  1318    1
  1420  1316  1317    1
  1421   980   981   ar
  1422   980   977   ar
  1423  1312  1311   ar
  1424  1312  1305   ar
  1425   953   952   ar
  1426  1311  1309   ar
  1427   171   170    1
  1428   171   169    1
  1429  1029  1030    1
  1430   182   183   ar
  1431   182   181   ar
  1432  1652  1631    2
  1433  1620  1621    1
  1434  1620  1618    1
  1435  1628  1621   ar
  1436  1628  1627   ar
  1437  1087  1084   ar
  1438  1605  1604   ar
  1439  1605  1606    2
  1440   183   184   ar
  1441   946   947    1
  1442  1469  1480    1
  1443  1469  1464    1
  1444   109   111    1
  1445   109   107    1
  1446  1354  1335    2
  1447  1476  1475   ar
  1448  1476  1477    2
  1449  1019  1025   ar
  1450  1286  1287    2
  1451  1286  1288   ar
  1452  1302  1304    1
  1453  1302  1303    1
  1454  1042  1043    1
  1455  1042  1044   ar
  1456  1218  1216    1
  1457  1045  1044   ar
  1458  1058  1063   ar
  1459   111   112    1
  1460  1084  1085   ar
  1461  1299  1304    1
  1462  1653  1631    1
  1463  1232  1231   ar
  1464  1081  1080   ar
  1465   999  1001   ar
  1466   999   998   ar
  1467  1631  1633    1
  1468   964   963    1
  1469   155   169    1
  1470  1480  1479   ar
  1471  1463  1464    1
  1472  1463  1461    1
  1473  1318  1319    1
  1474  1318  1320    1
  1475  1023  1024   ar
  1476  1289  1288   ar
  1477  1289  1290    1
  1478   981   982   ar
  1479  1621  1622   ar
  1480  1618  1619    1
  1481  1475  1478   ar
  1482   978   977   ar
  1483   978   972   ar
  1484  1315  1317    1
  1485  1315  1301    1
  1486  1315  1333    1
  1487  1627  1625   ar
  1488  1207  1206   ar
  1489  1207  1210   ar
  1490  1063  1064    1
  1491  1146  1148   ar
  1492  1146  1145   ar
  1493  1148  1149   ar
  1494  1206  1212   ar
  1495  1118  1132    1
  1496   977   976   ar
  1497   134   132    1
  1498   134   135    1
  1499  1167  1166    1
  1500  1030  1028    1
  1501   150   151    1
  1502   132   130    1
  1503  1187  1186    1
  1504   181   180   ar
  1505  1304  1305    1
  1506  1305  1306   ar
  1507  1001  1002   ar
  1508  1319  1324    1
  1509   949   950   ar
  1510   151   149    1
  1511  1309  1310    2
  1512  1309  1308   ar
  1513   169   189    2
  1514   169   190    1
  1515  1353  1335    1
  1516   998   996   ar
  1517  1151  1132    2
  1518   952   950   ar
  1519   184   185    1
  1520   184   179   ar
  1521  1335  1321    1
  1522  1335  1337    1
  1523  1025  1024   ar
  1524  1025  1014    1
  1525   131   130    1
  1526   131   129    1
  1527   148   129    2
  1528  1085  1080   ar
  1529  1085  1086    1
  1530  1461  1462    1
  1531   112   129    1
  1532   963   965    1
  1533  1479  1478   ar
  1534  1320  1321    1
  1535  1320  1322    1
  1536  1216  1217    1
  1537  1622  1623    2
  1538  1622  1624   ar
  1539  1145  1143   ar
  1540   950   951    1
  1541   972   973   ar
  1542  1132  1150    1
  1543  1132  1134    1
  1544  1149  1142   ar
  1545  1012  1013    1
  1546  1012  1014    1
  1547  1012  1010    1
  1548  1625  1624   ar
  1549  1625  1626    1
  1550   135   149    1
  1551   982   976   ar
  1552   982   971    1
  1553  1210  1211   ar
  1554  1185  1186   ar
  1555  1185  1183   ar
  1556  1633  1632    1
  1557  1212  1201    1
  1558  1212  1211   ar
  1559  1186  1188   ar
  1560   976   975   ar
  1561  1004   985    2
  1562   180   179   ar
  1563   129   147    1
  1564  1332  1331   ar
  1565  1332  1325   ar
  1566  1166  1165   ar
  1567  1166  1168   ar
  1568  1449  1448   ar
  1569  1449  1450   ar
  1570   168   149    2
  1571  1306  1308   ar
  1572  1306  1307    2
  1573  1632  1634    1
  1574  1014  1009    1
  1575  1448  1453   ar
  1576   149   167    1
  1577  1002   995   ar
  1578  1217  1215    1
  1579   966   965    1
  1580   966   971    1
  1581  1324  1322    1
  1582  1324  1325    1
  1583  1028  1047    2
  1584  1028  1046    1
  1585  1028  1011    1
  1586  1200  1199    1
  1587  1337  1336    1
  1588  1199  1201    1
  1589  1199  1197    1
  1590  1462  1460    1
  1591   996   995   ar
  1592   996   997    2
  1593  1331  1329   ar
  1594  1201  1196    1
  1595   965   967    1
  1596  1165  1163   ar
  1597  1134  1133    1
  1598  1322  1323    1
  1599  1168  1169   ar
  1600  1325  1326   ar
  1601  1010  1011    1
  1602  1010  1008    1
  1603  1143  1142   ar
  1604  1143  1144    2
  1605   967   969    1
  1606   967   968    1
  1607   971   969    1
  1608  1184  1183    2
  1609  1142  1141    1
  1610  1183  1182   ar
  1611   973   975   ar
  1612   973   974    1
  1613  1450  1451   ar
  1614   995   994    1
  1615  1188  1189   ar
  1616  1453  1454    1
  1617  1453  1452   ar
  1618   985   968    1
  1619   985   987    1
  1620   985  1003    1
  1621  1481  1460    2
  1622  1009  1008    1
  1623  1634  1635    1
  1624  1634  1636    1
  1625  1336  1338    1
  1626   969   970    1
  1627  1635  1640    1
  1628  1197  1198    1
  1629  1197  1195    1
  1630  1460  1482    1
  1631  1460  1444    1
  1632  1215  1234    2
  1633  1215  1198    1
  1634  1215  1233    1
  1635  1329  1330    1
  1636  1329  1328   ar
  1637  1650  1649   ar
  1638  1650  1651   ar
  1639  1133  1135    1
  1640  1196  1195    1
  1641  1136  1141    1
  1642  1136  1135    1
  1643  1451  1452   ar
  1644  1451  1457   ar
  1645  1163  1164    2
  1646  1163  1162   ar
  1647   987   986    1
  1648  1649  1646   ar
  1649  1446  1445    1
  1650  1008  1006    1
  1651  1351  1352   ar
  1652  1351  1349   ar
  1653  1326  1328   ar
  1654  1326  1327    2
  1655  1169  1162   ar
  1656  1352  1345   ar
  1657  1452  1455   ar
  1658  1182  1189   ar
  1659  1182  1181    1
  1660  1141  1139    1
  1661  1171  1152    2
  1662  1445  1447    1
  1663  1445  1443    1
  1664  1342  1340    1
  1665  1342  1343    1
  1666  1342  1344    1
  1667  1027  1005    2
  1668   994   989    1
  1669   994   992    1
  1670  1007  1006    1
  1671  1007  1005    1
  1672  1340  1338    1
  1673  1340  1341    1
  1674  1374  1355    2
  1675  1636  1637    1
  1676  1636  1638    1
  1677  1676  1654    2
  1678  1135  1137    1
  1679  1195  1193    1
  1680  1162  1161    1
  1681  1338  1339    1
  1682  1444  1443    1
  1683  1432  1431    2
  1684  1137  1139    1
  1685  1137  1138    1
  1686   989   988    1
  1687  1425  1431   ar
  1688  1425  1426   ar
  1689   992   990    1
  1690   992   993    1
  1691  1637  1654    1
  1692  1651  1640    1
  1693  1651  1645   ar
  1694  1427  1426    1
  1695  1640  1638    1
  1696  1457  1447    1
  1697  1457  1456   ar
  1698   990   988    1
  1699   990   991    1
  1700  1139  1140    1
  1701  1447  1442    1
  1702  1443  1441    1
  1703  1349  1350    2
  1704  1349  1348   ar
  1705  1455  1456   ar
  1706  1339  1344    1
  1707  1646  1645   ar
  1708  1646  1647   ar
  1709  1345  1344    1
  1710  1345  1346   ar
  1711   986   988    1
  1712  1181  1179    1
  1713  1181  1176    1
  1714  1005   991    1
  1715  1005  1026    1
  1716  1431  1430   ar
  1717  1654  1675    1
  1718  1654  1656    1
  1719  1426  1428   ar
  1720  1179  1180    1
  1721  1179  1177    1
  1722  1194  1193    1
  1723  1194  1192    1
  1724  1341  1355    1
  1725  1355  1373    1
  1726  1355  1357    1
  1727  1648  1647    2
  1728  1638  1639    1
  1729  1152  1138    1
  1730  1152  1154    1
  1731  1152  1170    1
  1732  1645  1644   ar
  1733  1647  1641   ar
  1734  1214  1192    2
  1735  1161  1156    1
  1736  1161  1159    1
  1737  1154  1153    1
  1738  1191  1172    2
  1739  1348  1346   ar
  1740  1176  1175    1
  1741  1346  1347    2
  1742  1371  1369   ar
  1743  1371  1372   ar
  1744  1442  1441    1
  1745  1177  1178    1
  1746  1177  1175    1
  1747  1441  1439    1
  1748  1370  1369    2
  1749  1753  1752    2
  1750  1430  1429   ar
  1751  1430  1433   ar
  1752  1156  1155    1
  1753  1428  1429   ar
  1754  1192  1178    1
  1755  1192  1213    1
  1756  1159  1157    1
  1757  1159  1160    1
  1758  1754  1752   ar
  1759  1754  1755   ar
  1760  1656  1655    1
  1761  1644  1642   ar
  1762  1357  1356    1
  1763  1672  1673   ar
  1764  1672  1669   ar
  1765  1369  1368   ar
  1766  1157  1155    1
  1767  1157  1158    1
  1768  1174  1172    1
  1769  1174  1173    1
  1770  1410  1409    1
  1771  1671  1670    2
  1772  1429  1435   ar
  1773  1641  1642   ar
  1774  1372  1365   ar
  1775  1356  1358    1
  1776  1756  1755    1
  1777  1752  1751   ar
  1778  1390  1389    1
  1779  1175  1173    1
  1780  1153  1155    1
  1781  1433  1434   ar
  1782  1172  1158    1
  1783  1172  1190    1
  1784  1673  1674   ar
  1785  1642  1643    1
  1786  1755  1757   ar
  1787  1439  1440    1
  1788  1715  1714    1
  1789  1440  1438    1
  1790  1655  1657    1
  1791  1693  1692    1
  1792  1670  1669   ar
  1793  1670  1664   ar
  1794  1669  1668   ar
  1795  1394  1375    2
  1796  1409  1408   ar
  1797  1409  1411   ar
  1798  1435  1434   ar
  1799  1435  1424    1
  1800  1368  1366   ar
  1801  1389  1391   ar
  1802  1389  1388   ar
  1803  1359  1358    1
  1804  1359  1364    1
  1805  1365  1366   ar
  1806  1365  1364    1
  1807  1751  1750    1
  1808  1751  1758   ar
  1809  1391  1392   ar
  1810  1358  1360    1
  1811  1749  1748    1
  1812  1709  1714   ar
  1813  1709  1710   ar
  1814  1408  1406   ar
  1815  1658  1657    1
  1816  1658  1663    1
  1817  1459  1438    2
  1818  1674  1668   ar
  1819  1674  1663    1
  1820  1714  1713   ar
  1821  1422  1424    1
  1822  1422  1423    1
  1823  1422  1420    1
  1824  1750  1748    1
  1825  1750  1745    1
  1826  1757  1758   ar
  1827  1748  1746    1
  1828  1657  1659    1
  1829  1438  1458    1
  1830  1438  1421    1
  1831  1668  1667   ar
  1832  1360  1361    1
  1833  1360  1362    1
  1834  1366  1367    2
  1835  1692  1687   ar
  1836  1692  1691   ar
  1837  1664  1665   ar
  1838  1411  1412   ar
  1839  1424  1419    1
  1840  1364  1362    1
  1841  1388  1386   ar
  1842  1375  1361    1
  1843  1375  1393    1
  1844  1375  1377    1
  1845  1663  1661    1
  1846  1694  1691   ar
  1847  1694  1695   ar
  1848  1698  1677    2
  1849  1392  1385   ar
  1850  1687  1688   ar
  1851  1659  1660    1
  1852  1659  1661    1
  1853  1420  1421    1
  1854  1420  1418    1
  1855  1710  1711   ar
  1856  1691  1690   ar
  1857  1406  1407    2
  1858  1406  1405   ar
  1859  1362  1363    1
  1860  1713  1716   ar
  1861  1713  1712   ar
  1862  1733  1732    2
  1863  1745  1744    1
  1864  1665  1667   ar
  1865  1665  1666    1
  1866  1412  1405   ar
  1867  1746  1747    1
  1868  1746  1744    1
  1869  1377  1376    1
  1870  1716  1717   ar
  1871  1660  1677    1
  1872  1419  1418    1
  1873  1661  1662    1
  1874  1695  1696   ar
  1875  1386  1385   ar
  1876  1386  1387    2
  1877  1729  1728    1
  1878  1405  1404    1
  1879  1385  1384    1
  1880  1677  1697    1
  1881  1677  1679    1
  1882  1688  1689   ar
  1883  1711  1712   ar
  1884  1418  1416    1
  1885  1414  1395    2
  1886  1712  1718   ar
  1887  1744  1742    1
  1888  1690  1696   ar
  1889  1690  1689   ar
  1890  1732  1734   ar
  1891  1732  1731   ar
  1892  1437  1415    2
  1893  1417  1416    1
  1894  1417  1415    1
  1895  1734  1735   ar
  1896  1728  1730    1
  1897  1728  1726    1
  1898  1696  1686    1
  1899  1717  1718   ar
  1900  1376  1378    1
  1901  1679  1678    1
  1902  1730  1731    1
  1903  1730  1725    1
  1904  1379  1384    1
  1905  1379  1378    1
  1906  1384  1382    1
  1907  1404  1402    1
  1908  1404  1399    1
  1909  1415  1436    1
  1910  1415  1401    1
  1911  1718  1708    1
  1912  1380  1378    1
  1913  1380  1382    1
  1914  1380  1381    1
  1915  1402  1400    1
  1916  1402  1403    1
  1917  1731  1738   ar
  1918  1743  1742    1
  1919  1743  1741    1
  1920  1395  1397    1
  1921  1395  1381    1
  1922  1395  1413    1
  1923  1397  1396    1
  1924  1400  1401    1
  1925  1400  1398    1
  1926  1382  1383    1
  1927  1735  1736    1
  1928  1735  1737   ar
  1929  1681  1686    1
  1930  1681  1680    1
  1931  1726  1727    1
  1932  1726  1724    1
  1933  1399  1398    1
  1934  1727  1741    1
  1935  1725  1724    1
  1936  1686  1684    1
  1937  1678  1680    1
  1938  1759  1741    2
  1939  1741  1760    1
  1940  1738  1737   ar
  1941  1708  1706    1
  1942  1708  1703    1
  1943  1398  1396    1
  1944  1724  1722    1
  1945  1680  1682    1
  1946  1682  1684    1
  1947  1682  1683    1
  1948  1720  1699    2
  1949  1684  1685    1
  1950  1706  1707    1
  1951  1706  1704    1
  1952  1703  1702    1
  1953  1701  1699    1
  1954  1701  1700    1
  1955  1722  1723    1
  1956  1683  1699    1
  1957  1699  1719    1
  1958  1704  1702    1
  1959  1704  1705    1
  1960  1723  1721    1
  1961  1702  1700    1
  1962  1705  1721    1
  1963  1721  1740    2
  1964  1721  1739    1
