ligand
 OpenBabel02271912153D
libRbt.so/2013.1/901 2013/11/27
 27 29  0  0  0  0  0  0  0  0999 V2000
   -2.8248   -9.1626   18.5510 N   0  0  0  0  0  0  0  0  0  0  0  0
   -2.3142   -9.3994   17.2140 C   0  0  2  0  0  0  0  0  0  0  0  0
   -2.9378   -8.3793   16.3120 C   0  0  0  0  0  0  0  0  0  0  0  0
   -2.8870   -8.5470   15.0745 O   0  0  0  0  0  0  0  0  0  0  0  0
   -2.6733  -10.8125   16.7465 C   0  0  0  0  0  0  0  0  0  0  0  0
   -1.9690  -11.8876   17.6036 C   0  0  0  0  0  0  0  0  0  0  0  0
   -2.6796  -13.4074   17.5851 S   0  0  2  0  0  0  0  0  0  0  0  0
   -2.7480  -13.9649   16.0220 C   0  0  0  0  0  0  0  0  0  0  0  0
   -4.2256  -13.3221   18.2569 C   0  0  0  0  0  0  0  0  0  0  0  0
   -4.2617  -13.5492   19.7829 C   0  0  1  0  0  0  0  0  0  0  0  0
   -3.2623  -12.7970   20.4911 O   0  0  0  0  0  0  0  0  0  0  0  0
   -5.5446  -13.0656   20.4395 C   0  0  1  0  0  0  0  0  0  0  0  0
   -6.7276  -13.8689   20.2550 O   0  0  0  0  0  0  0  0  0  0  0  0
   -5.0963  -12.9607   21.8763 C   0  0  1  0  0  0  0  0  0  0  0  0
   -4.9332  -14.2612   22.4339 O   0  0  0  0  0  0  0  0  0  0  0  0
   -3.7485  -12.3152   21.7461 C   0  0  2  0  0  0  0  0  0  0  0  0
   -3.5268   -7.3923   16.8141 O   0  0  0  0  0  0  0  0  0  0  0  0
   -6.1734   -7.7592   20.4659 N   0  0  0  0  0  0  0  0  0  0  0  0
   -6.5073   -9.0283   20.1277 C   0  0  0  0  0  0  0  0  0  0  0  0
   -5.7931  -10.0971   20.5188 N   0  0  0  0  0  0  0  0  0  0  0  0
   -4.7082   -9.9771   21.2920 C   0  0  0  0  0  0  0  0  0  0  0  0
   -4.3110   -8.6404   21.7077 C   0  0  0  0  0  0  0  0  0  0  0  0
   -5.0939   -7.4664   21.2570 C   0  0  0  0  0  0  0  0  0  0  0  0
   -4.7632   -6.1757   21.6139 N   0  0  0  0  0  0  0  0  0  0  0  0
   -3.2439   -8.8020   22.4567 N   0  0  0  0  0  0  0  0  0  0  0  0
   -2.9486  -10.1079   22.5160 C   0  0  0  0  0  0  0  0  0  0  0  0
   -3.8307  -10.8242   21.8201 N   0  0  0  0  0  0  0  0  0  0  0  0
  2  1  1  1  0  0  0
  2  3  1  0  0  0  0
  2  5  1  0  0  0  0
  3  4  1  0  0  0  0
  3 17  1  0  0  0  0
  5  6  1  0  0  0  0
  7  6  1  6  0  0  0
  7  8  1  0  0  0  0
  7  9  1  0  0  0  0
 10  9  1  6  0  0  0
 10 11  1  0  0  0  0
 10 12  1  0  0  0  0
 11 16  1  0  0  0  0
 12 13  1  1  0  0  0
 12 14  1  0  0  0  0
 14 15  1  6  0  0  0
 14 16  1  0  0  0  0
 16 27  1  6  0  0  0
 18 19  2  0  0  0  0
 18 23  1  0  0  0  0
 19 20  1  0  0  0  0
 20 21  2  0  0  0  0
 21 22  1  0  0  0  0
 21 27  1  0  0  0  0
 22 23  2  0  0  0  0
 22 25  1  0  0  0  0
 23 24  1  0  0  0  0
 25 26  2  0  0  0  0
 26 27  1  0  0  0  0
M  END
>  <CHROM.1>
-164.66127955,-65.23689005,158.43008615,58.04712825,-89.64654090,46.77431303
75.91433123,-3.98926133,-10.85234699,19.50955070,-2.00268853,-1.17982977
3.09782746

>  <Name>
ligand

>  <RI>
0

>  <Rbt.Current_Directory>
/home/itssahil/PROJECTS/Mol_Feturizer/Test_systems_manuscript/rnas/4kqy

>  <Rbt.Executable>
rbdock ($Id: //depot/dev/client3/rdock/2013.1/src/exe/rbdock.cxx#4 $)

>  <Rbt.Library>
libRbt.so (2013.1, Build901 2013/11/27)

>  <Rbt.Parameter_File>
/export/apps/rDock/src/rDock_2013.1_src/data/scripts/dock_solv.prm

>  <Rbt.Receptor>
prm/pocket_docking_2.prm

>  <SCORE>
-17.5147

>  <SCORE.INTER>
-16.6784

>  <SCORE.INTER.CONST>
1

>  <SCORE.INTER.POLAR>
0

>  <SCORE.INTER.ROT>
7

>  <SCORE.INTER.SOLV>
16.4729

>  <SCORE.INTER.VDW>
-24.8766

>  <SCORE.INTER.norm>
-0.61772

>  <SCORE.INTRA>
-0.836215

>  <SCORE.INTRA.DIHEDRAL>
-2.94559

>  <SCORE.INTRA.DIHEDRAL.0>
10.4103

>  <SCORE.INTRA.POLAR>
0

>  <SCORE.INTRA.POLAR.0>
0

>  <SCORE.INTRA.REPUL>
0

>  <SCORE.INTRA.REPUL.0>
0

>  <SCORE.INTRA.SOLV>
1.5512

>  <SCORE.INTRA.SOLV.lig_0>
-49.5008

>  <SCORE.INTRA.VDW>
-0.139021

>  <SCORE.INTRA.VDW.0>
-2.6946

>  <SCORE.INTRA.norm>
-0.0309709

>  <SCORE.RESTR>
0

>  <SCORE.RESTR.CAVITY>
0

>  <SCORE.RESTR.norm>
0

>  <SCORE.SYSTEM>
0

>  <SCORE.SYSTEM.CONST>
0

>  <SCORE.SYSTEM.DIHEDRAL>
0

>  <SCORE.SYSTEM.SOLV>
0

>  <SCORE.SYSTEM.norm>
0

>  <SCORE.heavy>
27

>  <SCORE.norm>
-0.648691

>  <RMSD>
0.752

$$$$
ligand
 OpenBabel02271912153D
libRbt.so/2013.1/901 2013/11/27
 27 29  0  0  0  0  0  0  0  0999 V2000
   -2.6299   -8.8494   18.4515 N   0  0  0  0  0  0  0  0  0  0  0  0
   -2.2474   -9.1641   17.0881 C   0  0  2  0  0  0  0  0  0  0  0  0
   -3.0692   -8.2980   16.1838 C   0  0  0  0  0  0  0  0  0  0  0  0
   -3.7147   -7.3457   16.6724 O   0  0  0  0  0  0  0  0  0  0  0  0
   -2.5065  -10.6429   16.7873 C   0  0  0  0  0  0  0  0  0  0  0  0
   -1.7560  -11.5611   17.7773 C   0  0  0  0  0  0  0  0  0  0  0  0
   -2.2710  -13.1575   17.8162 S   0  0  2  0  0  0  0  0  0  0  0  0
   -2.1048  -13.8272   16.3054 C   0  0  0  0  0  0  0  0  0  0  0  0
   -3.8786  -13.2255   18.3259 C   0  0  0  0  0  0  0  0  0  0  0  0
   -4.0482  -13.4214   19.8473 C   0  0  1  0  0  0  0  0  0  0  0  0
   -3.1083  -12.6607   20.6244 O   0  0  0  0  0  0  0  0  0  0  0  0
   -5.3796  -12.9173   20.3806 C   0  0  1  0  0  0  0  0  0  0  0  0
   -6.5480  -13.7175   20.1101 O   0  0  0  0  0  0  0  0  0  0  0  0
   -5.0565  -12.7858   21.8484 C   0  0  1  0  0  0  0  0  0  0  0  0
   -4.9519  -14.0757   22.4436 O   0  0  0  0  0  0  0  0  0  0  0  0
   -3.6977  -12.1507   21.8228 C   0  0  2  0  0  0  0  0  0  0  0  0
   -3.0703   -8.5235   14.9500 O   0  0  0  0  0  0  0  0  0  0  0  0
   -6.1737   -7.6256   20.5309 N   0  0  0  0  0  0  0  0  0  0  0  0
   -6.5240   -8.9027   20.2427 C   0  0  0  0  0  0  0  0  0  0  0  0
   -5.7938   -9.9621   20.6298 N   0  0  0  0  0  0  0  0  0  0  0  0
   -4.6747   -9.8237   21.3495 C   0  0  0  0  0  0  0  0  0  0  0  0
   -4.2577   -8.4771   21.7102 C   0  0  0  0  0  0  0  0  0  0  0  0
   -5.0591   -7.3140   21.2639 C   0  0  0  0  0  0  0  0  0  0  0  0
   -4.7113   -6.0148   21.5703 N   0  0  0  0  0  0  0  0  0  0  0  0
   -3.1578   -8.6208   22.4142 N   0  0  0  0  0  0  0  0  0  0  0  0
   -2.8615   -9.9252   22.4954 C   0  0  0  0  0  0  0  0  0  0  0  0
   -3.7750  -10.6581   21.8600 N   0  0  0  0  0  0  0  0  0  0  0  0
  2  1  1  1  0  0  0
  2  3  1  0  0  0  0
  2  5  1  0  0  0  0
  3  4  1  0  0  0  0
  3 17  1  0  0  0  0
  5  6  1  0  0  0  0
  7  6  1  6  0  0  0
  7  8  1  0  0  0  0
  7  9  1  0  0  0  0
 10  9  1  6  0  0  0
 10 11  1  0  0  0  0
 10 12  1  0  0  0  0
 11 16  1  0  0  0  0
 12 13  1  1  0  0  0
 12 14  1  0  0  0  0
 14 15  1  6  0  0  0
 14 16  1  0  0  0  0
 16 27  1  6  0  0  0
 18 19  2  0  0  0  0
 18 23  1  0  0  0  0
 19 20  1  0  0  0  0
 20 21  2  0  0  0  0
 21 22  1  0  0  0  0
 21 27  1  0  0  0  0
 22 23  2  0  0  0  0
 22 25  1  0  0  0  0
 23 24  1  0  0  0  0
 25 26  2  0  0  0  0
 26 27  1  0  0  0  0
M  END
>  <CHROM.1>
12.39475768,-57.13673820,164.33725544,59.05588143,-92.65097025,40.16799785
83.50182752,-3.87347454,-10.68905074,19.53835723,-2.36592235,-1.15256377
2.95063528

>  <Name>
ligand

>  <RI>
0

>  <Rbt.Current_Directory>
/home/itssahil/PROJECTS/Mol_Feturizer/Test_systems_manuscript/rnas/4kqy

>  <Rbt.Executable>
rbdock ($Id: //depot/dev/client3/rdock/2013.1/src/exe/rbdock.cxx#4 $)

>  <Rbt.Library>
libRbt.so (2013.1, Build901 2013/11/27)

>  <Rbt.Parameter_File>
/export/apps/rDock/src/rDock_2013.1_src/data/scripts/dock_solv.prm

>  <Rbt.Receptor>
prm/pocket_docking_2.prm

>  <SCORE>
-17.4489

>  <SCORE.INTER>
-16.6645

>  <SCORE.INTER.CONST>
1

>  <SCORE.INTER.POLAR>
0

>  <SCORE.INTER.ROT>
7

>  <SCORE.INTER.SOLV>
18.523

>  <SCORE.INTER.VDW>
-25.5507

>  <SCORE.INTER.norm>
-0.617205

>  <SCORE.INTRA>
-0.784381

>  <SCORE.INTRA.DIHEDRAL>
-2.7563

>  <SCORE.INTRA.DIHEDRAL.0>
10.4103

>  <SCORE.INTRA.POLAR>
0

>  <SCORE.INTRA.POLAR.0>
0

>  <SCORE.INTRA.REPUL>
0

>  <SCORE.INTRA.REPUL.0>
0

>  <SCORE.INTRA.SOLV>
0.811362

>  <SCORE.INTRA.SOLV.lig_0>
-49.5008

>  <SCORE.INTRA.VDW>
0.188087

>  <SCORE.INTRA.VDW.0>
-2.6946

>  <SCORE.INTRA.norm>
-0.0290511

>  <SCORE.RESTR>
0

>  <SCORE.RESTR.CAVITY>
0

>  <SCORE.RESTR.norm>
0

>  <SCORE.SYSTEM>
0

>  <SCORE.SYSTEM.CONST>
0

>  <SCORE.SYSTEM.DIHEDRAL>
0

>  <SCORE.SYSTEM.SOLV>
0

>  <SCORE.SYSTEM.norm>
0

>  <SCORE.heavy>
27

>  <SCORE.norm>
-0.646256

>  <RMSD>
0.772

$$$$
ligand
 OpenBabel02271912153D
libRbt.so/2013.1/901 2013/11/27
 27 29  0  0  0  0  0  0  0  0999 V2000
   -2.3073   -9.3905   18.7924 N   0  0  0  0  0  0  0  0  0  0  0  0
   -1.7331   -9.4382   17.4611 C   0  0  2  0  0  0  0  0  0  0  0  0
   -2.3040   -8.2892   16.6885 C   0  0  0  0  0  0  0  0  0  0  0  0
   -1.8104   -7.9954   15.5784 O   0  0  0  0  0  0  0  0  0  0  0  0
   -2.0790  -10.7632   16.7763 C   0  0  0  0  0  0  0  0  0  0  0  0
   -1.4988  -11.9678   17.5500 C   0  0  0  0  0  0  0  0  0  0  0  0
   -2.4195  -13.3698   17.5024 S   0  0  2  0  0  0  0  0  0  0  0  0
   -2.5821  -13.8691   15.9267 C   0  0  0  0  0  0  0  0  0  0  0  0
   -3.9307  -13.0831   18.1970 C   0  0  0  0  0  0  0  0  0  0  0  0
   -3.9821  -13.3373   19.7184 C   0  0  1  0  0  0  0  0  0  0  0  0
   -3.0092  -12.5757   20.4528 O   0  0  0  0  0  0  0  0  0  0  0  0
   -5.2841  -12.8934   20.3654 C   0  0  1  0  0  0  0  0  0  0  0  0
   -6.4464  -13.7192   20.1511 O   0  0  0  0  0  0  0  0  0  0  0  0
   -4.8574  -12.8035   21.8098 C   0  0  1  0  0  0  0  0  0  0  0  0
   -4.6730  -14.1096   22.3474 O   0  0  0  0  0  0  0  0  0  0  0  0
   -3.5227  -12.1264   21.7090 C   0  0  2  0  0  0  0  0  0  0  0  0
   -3.2860   -7.6626   17.1535 O   0  0  0  0  0  0  0  0  0  0  0  0
   -6.1836   -7.6312   20.7146 N   0  0  0  0  0  0  0  0  0  0  0  0
   -6.5126   -8.9064   20.3951 C   0  0  0  0  0  0  0  0  0  0  0  0
   -5.7351   -9.9575   20.7051 N   0  0  0  0  0  0  0  0  0  0  0  0
   -4.5857   -9.8131   21.3739 C   0  0  0  0  0  0  0  0  0  0  0  0
   -4.1883   -8.4691   21.7651 C   0  0  0  0  0  0  0  0  0  0  0  0
   -5.0426   -7.3143   21.4036 C   0  0  0  0  0  0  0  0  0  0  0  0
   -4.7157   -6.0177   21.7422 N   0  0  0  0  0  0  0  0  0  0  0  0
   -3.0510   -8.6064   22.4083 N   0  0  0  0  0  0  0  0  0  0  0  0
   -2.7153   -9.9037   22.4248 C   0  0  0  0  0  0  0  0  0  0  0  0
   -3.6390  -10.6391   21.8072 N   0  0  0  0  0  0  0  0  0  0  0  0
  2  1  1  1  0  0  0
  2  3  1  0  0  0  0
  2  5  1  0  0  0  0
  3  4  1  0  0  0  0
  3 17  1  0  0  0  0
  5  6  1  0  0  0  0
  7  6  1  6  0  0  0
  7  8  1  0  0  0  0
  7  9  1  0  0  0  0
 10  9  1  6  0  0  0
 10 11  1  0  0  0  0
 10 12  1  0  0  0  0
 11 16  1  0  0  0  0
 12 13  1  1  0  0  0
 12 14  1  0  0  0  0
 14 15  1  6  0  0  0
 14 16  1  0  0  0  0
 16 27  1  6  0  0  0
 18 19  2  0  0  0  0
 18 23  1  0  0  0  0
 19 20  1  0  0  0  0
 20 21  2  0  0  0  0
 21 22  1  0  0  0  0
 21 27  1  0  0  0  0
 22 23  2  0  0  0  0
 22 25  1  0  0  0  0
 23 24  1  0  0  0  0
 25 26  2  0  0  0  0
 26 27  1  0  0  0  0
M  END
>  <CHROM.1>
169.18401962,-61.71063876,146.71461051,60.38436879,-89.35224672,56.24977643
82.13587098,-3.70178323,-10.73352384,19.57392256,-0.81068018,1.07731045,0.03791714

>  <Name>
ligand

>  <RI>
0

>  <Rbt.Current_Directory>
/home/itssahil/PROJECTS/Mol_Feturizer/Test_systems_manuscript/rnas/4kqy

>  <Rbt.Executable>
rbdock ($Id: //depot/dev/client3/rdock/2013.1/src/exe/rbdock.cxx#4 $)

>  <Rbt.Library>
libRbt.so (2013.1, Build901 2013/11/27)

>  <Rbt.Parameter_File>
/export/apps/rDock/src/rDock_2013.1_src/data/scripts/dock_solv.prm

>  <Rbt.Receptor>
prm/pocket_docking_3.prm

>  <SCORE>
-19.2017

>  <SCORE.INTER>
-18.9018

>  <SCORE.INTER.CONST>
1

>  <SCORE.INTER.POLAR>
0

>  <SCORE.INTER.ROT>
7

>  <SCORE.INTER.SOLV>
18.198

>  <SCORE.INTER.VDW>
-26.9338

>  <SCORE.INTER.norm>
-0.700065

>  <SCORE.INTRA>
-0.29996

>  <SCORE.INTRA.DIHEDRAL>
-2.05936

>  <SCORE.INTRA.DIHEDRAL.0>
10.4103

>  <SCORE.INTRA.POLAR>
0

>  <SCORE.INTRA.POLAR.0>
0

>  <SCORE.INTRA.REPUL>
0

>  <SCORE.INTRA.REPUL.0>
0

>  <SCORE.INTRA.SOLV>
2.6669

>  <SCORE.INTRA.SOLV.lig_0>
-49.5008

>  <SCORE.INTRA.VDW>
-0.603727

>  <SCORE.INTRA.VDW.0>
-2.6946

>  <SCORE.INTRA.norm>
-0.0111096

>  <SCORE.RESTR>
0

>  <SCORE.RESTR.CAVITY>
0

>  <SCORE.RESTR.norm>
0

>  <SCORE.SYSTEM>
0

>  <SCORE.SYSTEM.CONST>
0

>  <SCORE.SYSTEM.DIHEDRAL>
0

>  <SCORE.SYSTEM.SOLV>
0

>  <SCORE.SYSTEM.norm>
0

>  <SCORE.heavy>
27

>  <SCORE.norm>
-0.711175

>  <RMSD>
0.779

$$$$
ligand
 OpenBabel02271912153D
libRbt.so/2013.1/901 2013/11/27
 27 29  0  0  0  0  0  0  0  0999 V2000
   -2.0068   -7.9368   17.5287 N   0  0  0  0  0  0  0  0  0  0  0  0
   -2.5804   -8.9241   16.6340 C   0  0  2  0  0  0  0  0  0  0  0  0
   -3.9783   -8.4849   16.3236 C   0  0  0  0  0  0  0  0  0  0  0  0
   -4.6342   -9.1041   15.4584 O   0  0  0  0  0  0  0  0  0  0  0  0
   -2.5917  -10.3043   17.2965 C   0  0  0  0  0  0  0  0  0  0  0  0
   -2.9409  -11.4156   16.2819 C   0  0  0  0  0  0  0  0  0  0  0  0
   -3.1191  -12.9543   16.9268 S   0  0  2  0  0  0  0  0  0  0  0  0
   -3.1782  -14.0653   15.6936 C   0  0  0  0  0  0  0  0  0  0  0  0
   -4.5241  -13.0222   17.8596 C   0  0  0  0  0  0  0  0  0  0  0  0
   -4.2783  -13.3728   19.3423 C   0  0  1  0  0  0  0  0  0  0  0  0
   -3.2294  -12.5941   19.9418 O   0  0  0  0  0  0  0  0  0  0  0  0
   -5.4600  -13.0587   20.2454 C   0  0  1  0  0  0  0  0  0  0  0  0
   -6.5947  -13.9463   20.1855 O   0  0  0  0  0  0  0  0  0  0  0  0
   -4.7784  -13.0296   21.5911 C   0  0  1  0  0  0  0  0  0  0  0  0
   -4.4259  -14.3510   21.9894 O   0  0  0  0  0  0  0  0  0  0  0  0
   -3.5249  -12.2590   21.2998 C   0  0  2  0  0  0  0  0  0  0  0  0
   -4.4768   -7.5251   16.9587 O   0  0  0  0  0  0  0  0  0  0  0  0
   -5.9934   -7.6841   20.1804 N   0  0  0  0  0  0  0  0  0  0  0  0
   -6.2006   -8.9165   19.6560 C   0  0  0  0  0  0  0  0  0  0  0  0
   -5.4913   -9.9946   20.0299 N   0  0  0  0  0  0  0  0  0  0  0  0
   -4.5403   -9.9239   20.9680 C   0  0  0  0  0  0  0  0  0  0  0  0
   -4.2859   -8.6311   21.5855 C   0  0  0  0  0  0  0  0  0  0  0  0
   -5.0603   -7.4443   21.1543 C   0  0  0  0  0  0  0  0  0  0  0  0
   -4.8603   -6.1929   21.6989 N   0  0  0  0  0  0  0  0  0  0  0  0
   -3.3327   -8.8376   22.4657 N   0  0  0  0  0  0  0  0  0  0  0  0
   -2.9748  -10.1284   22.4235 C   0  0  0  0  0  0  0  0  0  0  0  0
   -3.7026  -10.7919   21.5259 N   0  0  0  0  0  0  0  0  0  0  0  0
  2  1  1  1  0  0  0
  2  3  1  0  0  0  0
  2  5  1  0  0  0  0
  3  4  1  0  0  0  0
  3 17  1  0  0  0  0
  5  6  1  0  0  0  0
  7  6  1  6  0  0  0
  7  8  1  0  0  0  0
  7  9  1  0  0  0  0
 10  9  1  6  0  0  0
 10 11  1  0  0  0  0
 10 12  1  0  0  0  0
 11 16  1  0  0  0  0
 12 13  1  1  0  0  0
 12 14  1  0  0  0  0
 14 15  1  6  0  0  0
 14 16  1  0  0  0  0
 16 27  1  6  0  0  0
 18 19  2  0  0  0  0
 18 23  1  0  0  0  0
 19 20  1  0  0  0  0
 20 21  2  0  0  0  0
 21 22  1  0  0  0  0
 21 27  1  0  0  0  0
 22 23  2  0  0  0  0
 22 25  1  0  0  0  0
 23 24  1  0  0  0  0
 25 26  2  0  0  0  0
 26 27  1  0  0  0  0
M  END
>  <CHROM.1>
172.65490457,-169.09398333,-174.66653692,-168.43109649,-119.48497560,48.22121388
57.33809950,-4.12798410,-10.72649459,19.20847341,-2.04836417,-1.34695947
3.06940050

>  <Name>
ligand

>  <RI>
0

>  <Rbt.Current_Directory>
/home/itssahil/PROJECTS/Mol_Feturizer/Test_systems_manuscript/rnas/4kqy

>  <Rbt.Executable>
rbdock ($Id: //depot/dev/client3/rdock/2013.1/src/exe/rbdock.cxx#4 $)

>  <Rbt.Library>
libRbt.so (2013.1, Build901 2013/11/27)

>  <Rbt.Parameter_File>
/export/apps/rDock/src/rDock_2013.1_src/data/scripts/dock_solv.prm

>  <Rbt.Receptor>
prm/pocket_docking_2.prm

>  <SCORE>
-14.7459

>  <SCORE.INTER>
-12.3198

>  <SCORE.INTER.CONST>
1

>  <SCORE.INTER.POLAR>
0

>  <SCORE.INTER.ROT>
7

>  <SCORE.INTER.SOLV>
20.2183

>  <SCORE.INTER.VDW>
-23.2193

>  <SCORE.INTER.norm>
-0.45629

>  <SCORE.INTRA>
-2.42606

>  <SCORE.INTRA.DIHEDRAL>
-1.53625

>  <SCORE.INTRA.DIHEDRAL.0>
10.4103

>  <SCORE.INTRA.POLAR>
0

>  <SCORE.INTRA.POLAR.0>
0

>  <SCORE.INTRA.REPUL>
0

>  <SCORE.INTRA.REPUL.0>
0

>  <SCORE.INTRA.SOLV>
-0.517229

>  <SCORE.INTRA.SOLV.lig_0>
-49.5008

>  <SCORE.INTRA.VDW>
-1.39932

>  <SCORE.INTRA.VDW.0>
-2.6946

>  <SCORE.INTRA.norm>
-0.0898541

>  <SCORE.RESTR>
0

>  <SCORE.RESTR.CAVITY>
0

>  <SCORE.RESTR.norm>
0

>  <SCORE.SYSTEM>
0

>  <SCORE.SYSTEM.CONST>
0

>  <SCORE.SYSTEM.DIHEDRAL>
0

>  <SCORE.SYSTEM.SOLV>
0

>  <SCORE.SYSTEM.norm>
0

>  <SCORE.heavy>
27

>  <SCORE.norm>
-0.546144

>  <RMSD>
0.796

$$$$
ligand
 OpenBabel02271912153D
libRbt.so/2013.1/901 2013/11/27
 27 29  0  0  0  0  0  0  0  0999 V2000
   -2.0849   -9.1058   18.6045 N   0  0  0  0  0  0  0  0  0  0  0  0
   -1.6029   -9.4390   17.2776 C   0  0  2  0  0  0  0  0  0  0  0  0
   -2.0599   -8.3536   16.3522 C   0  0  0  0  0  0  0  0  0  0  0  0
   -1.7623   -8.4201   15.1400 O   0  0  0  0  0  0  0  0  0  0  0  0
   -2.1633  -10.7911   16.8285 C   0  0  0  0  0  0  0  0  0  0  0  0
   -1.6172  -11.9461   17.6970 C   0  0  0  0  0  0  0  0  0  0  0  0
   -2.4738  -13.3861   17.6078 S   0  0  2  0  0  0  0  0  0  0  0  0
   -2.5978  -13.8560   16.0195 C   0  0  0  0  0  0  0  0  0  0  0  0
   -4.0034  -13.1828   18.2915 C   0  0  0  0  0  0  0  0  0  0  0  0
   -4.0420  -13.3928   19.8200 C   0  0  1  0  0  0  0  0  0  0  0  0
   -3.0487  -12.6270   20.5220 O   0  0  0  0  0  0  0  0  0  0  0  0
   -5.3293  -12.9091   20.4679 C   0  0  1  0  0  0  0  0  0  0  0  0
   -6.5072  -13.7211   20.2896 O   0  0  0  0  0  0  0  0  0  0  0  0
   -4.8852  -12.7854   21.9045 C   0  0  1  0  0  0  0  0  0  0  0  0
   -4.7162  -14.0786   22.4772 O   0  0  0  0  0  0  0  0  0  0  0  0
   -3.5407  -12.1337   21.7703 C   0  0  2  0  0  0  0  0  0  0  0  0
   -2.7589   -7.4148   16.8029 O   0  0  0  0  0  0  0  0  0  0  0  0
   -6.1914   -7.6319   20.7786 N   0  0  0  0  0  0  0  0  0  0  0  0
   -6.5544   -8.9114   20.5181 C   0  0  0  0  0  0  0  0  0  0  0  0
   -5.7754   -9.9640   20.8189 N   0  0  0  0  0  0  0  0  0  0  0  0
   -4.5893   -9.8162   21.4196 C   0  0  0  0  0  0  0  0  0  0  0  0
   -4.1532   -8.4669   21.7458 C   0  0  0  0  0  0  0  0  0  0  0  0
   -5.0104   -7.3111   21.3943 C   0  0  0  0  0  0  0  0  0  0  0  0
   -4.6482   -6.0097   21.6733 N   0  0  0  0  0  0  0  0  0  0  0  0
   -2.9844   -8.6013   22.3305 N   0  0  0  0  0  0  0  0  0  0  0  0
   -2.6657   -9.9023   22.3701 C   0  0  0  0  0  0  0  0  0  0  0  0
   -3.6315  -10.6426   21.8272 N   0  0  0  0  0  0  0  0  0  0  0  0
  2  1  1  1  0  0  0
  2  3  1  0  0  0  0
  2  5  1  0  0  0  0
  3  4  1  0  0  0  0
  3 17  1  0  0  0  0
  5  6  1  0  0  0  0
  7  6  1  6  0  0  0
  7  8  1  0  0  0  0
  7  9  1  0  0  0  0
 10  9  1  6  0  0  0
 10 11  1  0  0  0  0
 10 12  1  0  0  0  0
 11 16  1  0  0  0  0
 12 13  1  1  0  0  0
 12 14  1  0  0  0  0
 14 15  1  6  0  0  0
 14 16  1  0  0  0  0
 16 27  1  6  0  0  0
 18 19  2  0  0  0  0
 18 23  1  0  0  0  0
 19 20  1  0  0  0  0
 20 21  2  0  0  0  0
 21 22  1  0  0  0  0
 21 27  1  0  0  0  0
 22 23  2  0  0  0  0
 22 25  1  0  0  0  0
 23 24  1  0  0  0  0
 25 26  2  0  0  0  0
 26 27  1  0  0  0  0
M  END
>  <CHROM.1>
179.98066633,-66.11431293,162.91814305,54.38599109,-85.94559318,51.29864208
84.63590364,-3.67869714,-10.74008788,19.57144973,-0.43120677,1.07385952,0.06132005

>  <Name>
ligand

>  <RI>
0

>  <Rbt.Current_Directory>
/home/itssahil/PROJECTS/Mol_Feturizer/Test_systems_manuscript/rnas/4kqy

>  <Rbt.Executable>
rbdock ($Id: //depot/dev/client3/rdock/2013.1/src/exe/rbdock.cxx#4 $)

>  <Rbt.Library>
libRbt.so (2013.1, Build901 2013/11/27)

>  <Rbt.Parameter_File>
/export/apps/rDock/src/rDock_2013.1_src/data/scripts/dock_solv.prm

>  <Rbt.Receptor>
prm/pocket_docking_3.prm

>  <SCORE>
-20.2831

>  <SCORE.INTER>
-18.6982

>  <SCORE.INTER.CONST>
1

>  <SCORE.INTER.POLAR>
0

>  <SCORE.INTER.ROT>
7

>  <SCORE.INTER.SOLV>
19.5465

>  <SCORE.INTER.VDW>
-27.2476

>  <SCORE.INTER.norm>
-0.692527

>  <SCORE.INTRA>
-1.58487

>  <SCORE.INTRA.DIHEDRAL>
-4.17337

>  <SCORE.INTRA.DIHEDRAL.0>
10.4103

>  <SCORE.INTRA.POLAR>
0

>  <SCORE.INTRA.POLAR.0>
0

>  <SCORE.INTRA.REPUL>
0

>  <SCORE.INTRA.REPUL.0>
0

>  <SCORE.INTRA.SOLV>
0.884681

>  <SCORE.INTRA.SOLV.lig_0>
-49.5008

>  <SCORE.INTRA.VDW>
0.0594717

>  <SCORE.INTRA.VDW.0>
-2.6946

>  <SCORE.INTRA.norm>
-0.0586989

>  <SCORE.RESTR>
0

>  <SCORE.RESTR.CAVITY>
0

>  <SCORE.RESTR.norm>
0

>  <SCORE.SYSTEM>
0

>  <SCORE.SYSTEM.CONST>
0

>  <SCORE.SYSTEM.DIHEDRAL>
0

>  <SCORE.SYSTEM.SOLV>
0

>  <SCORE.SYSTEM.norm>
0

>  <SCORE.heavy>
27

>  <SCORE.norm>
-0.751226

>  <RMSD>
0.842

$$$$
ligand
 OpenBabel02271912153D
libRbt.so/2013.1/901 2013/11/27
 27 29  0  0  0  0  0  0  0  0999 V2000
   -1.9995   -8.9890   18.4483 N   0  0  0  0  0  0  0  0  0  0  0  0
   -1.5417   -9.4538   17.1527 C   0  0  2  0  0  0  0  0  0  0  0  0
   -2.3299   -8.7194   16.1122 C   0  0  0  0  0  0  0  0  0  0  0  0
   -3.4530   -8.2588   16.4101 O   0  0  0  0  0  0  0  0  0  0  0  0
   -1.7601  -10.9632   17.0177 C   0  0  0  0  0  0  0  0  0  0  0  0
   -3.2010  -11.3628   17.4058 C   0  0  0  0  0  0  0  0  0  0  0  0
   -3.5793  -12.9858   17.2103 S   0  0  2  0  0  0  0  0  0  0  0  0
   -3.8950  -13.2889   15.6081 C   0  0  0  0  0  0  0  0  0  0  0  0
   -4.9131  -13.3794   18.1666 C   0  0  0  0  0  0  0  0  0  0  0  0
   -4.5689  -13.6446   19.6475 C   0  0  1  0  0  0  0  0  0  0  0  0
   -3.4855  -12.8332   20.1310 O   0  0  0  0  0  0  0  0  0  0  0  0
   -5.6897  -13.2788   20.6072 C   0  0  1  0  0  0  0  0  0  0  0  0
   -6.8228  -14.1679   20.6731 O   0  0  0  0  0  0  0  0  0  0  0  0
   -4.9210  -13.1730   21.9010 C   0  0  1  0  0  0  0  0  0  0  0  0
   -4.5384  -14.4695   22.3501 O   0  0  0  0  0  0  0  0  0  0  0  0
   -3.6919  -12.4208   21.4841 C   0  0  2  0  0  0  0  0  0  0  0  0
   -1.8368   -8.5523   14.9711 O   0  0  0  0  0  0  0  0  0  0  0  0
   -6.3025   -7.9307   20.3437 N   0  0  0  0  0  0  0  0  0  0  0  0
   -6.5503   -9.1936   19.9191 C   0  0  0  0  0  0  0  0  0  0  0  0
   -5.7970  -10.2446   20.2843 N   0  0  0  0  0  0  0  0  0  0  0  0
   -4.7569  -10.1136   21.1151 C   0  0  0  0  0  0  0  0  0  0  0  0
   -4.4533   -8.7845   21.6238 C   0  0  0  0  0  0  0  0  0  0  0  0
   -5.2781   -7.6287   21.2017 C   0  0  0  0  0  0  0  0  0  0  0  0
   -5.0356   -6.3455   21.6460 N   0  0  0  0  0  0  0  0  0  0  0  0
   -3.4143   -8.9336   22.4139 N   0  0  0  0  0  0  0  0  0  0  0  0
   -3.0507  -10.2235   22.4144 C   0  0  0  0  0  0  0  0  0  0  0  0
   -3.8593  -10.9431   21.6373 N   0  0  0  0  0  0  0  0  0  0  0  0
  2  1  1  1  0  0  0
  2  3  1  0  0  0  0
  2  5  1  0  0  0  0
  3  4  1  0  0  0  0
  3 17  1  0  0  0  0
  5  6  1  0  0  0  0
  7  6  1  6  0  0  0
  7  8  1  0  0  0  0
  7  9  1  0  0  0  0
 10  9  1  6  0  0  0
 10 11  1  0  0  0  0
 10 12  1  0  0  0  0
 11 16  1  0  0  0  0
 12 13  1  1  0  0  0
 12 14  1  0  0  0  0
 14 15  1  6  0  0  0
 14 16  1  0  0  0  0
 16 27  1  6  0  0  0
 18 19  2  0  0  0  0
 18 23  1  0  0  0  0
 19 20  1  0  0  0  0
 20 21  2  0  0  0  0
 21 22  1  0  0  0  0
 21 27  1  0  0  0  0
 22 23  2  0  0  0  0
 22 25  1  0  0  0  0
 23 24  1  0  0  0  0
 25 26  2  0  0  0  0
 26 27  1  0  0  0  0
M  END
>  <CHROM.1>
-24.28581534,49.71815511,176.61057590,-79.10306945,-81.06409849,33.82805699
59.38943000,-4.06524072,-10.91405891,19.38265037,0.16675093,1.15573869,0.27482297

>  <Name>
ligand

>  <RI>
0

>  <Rbt.Current_Directory>
/home/itssahil/PROJECTS/Mol_Feturizer/Test_systems_manuscript/rnas/4kqy

>  <Rbt.Executable>
rbdock ($Id: //depot/dev/client3/rdock/2013.1/src/exe/rbdock.cxx#4 $)

>  <Rbt.Library>
libRbt.so (2013.1, Build901 2013/11/27)

>  <Rbt.Parameter_File>
/export/apps/rDock/src/rDock_2013.1_src/data/scripts/dock_solv.prm

>  <Rbt.Receptor>
prm/pocket_docking_3.prm

>  <SCORE>
-17.3469

>  <SCORE.INTER>
-15.5278

>  <SCORE.INTER.CONST>
1

>  <SCORE.INTER.POLAR>
0

>  <SCORE.INTER.ROT>
7

>  <SCORE.INTER.SOLV>
18.2513

>  <SCORE.INTER.VDW>
-24.7023

>  <SCORE.INTER.norm>
-0.575102

>  <SCORE.INTRA>
-1.81915

>  <SCORE.INTRA.DIHEDRAL>
-2.59849

>  <SCORE.INTRA.DIHEDRAL.0>
10.4103

>  <SCORE.INTRA.POLAR>
0

>  <SCORE.INTRA.POLAR.0>
0

>  <SCORE.INTRA.REPUL>
0

>  <SCORE.INTRA.REPUL.0>
0

>  <SCORE.INTRA.SOLV>
0.373821

>  <SCORE.INTRA.SOLV.lig_0>
-49.5008

>  <SCORE.INTRA.VDW>
-0.706818

>  <SCORE.INTRA.VDW.0>
-2.6946

>  <SCORE.INTRA.norm>
-0.0673761

>  <SCORE.RESTR>
0

>  <SCORE.RESTR.CAVITY>
0

>  <SCORE.RESTR.norm>
0

>  <SCORE.SYSTEM>
0

>  <SCORE.SYSTEM.CONST>
0

>  <SCORE.SYSTEM.DIHEDRAL>
0

>  <SCORE.SYSTEM.SOLV>
0

>  <SCORE.SYSTEM.norm>
0

>  <SCORE.heavy>
27

>  <SCORE.norm>
-0.642478

>  <RMSD>
0.888

$$$$
ligand
 OpenBabel02271912153D
libRbt.so/2013.1/901 2013/11/27
 27 29  0  0  0  0  0  0  0  0999 V2000
   -1.9891   -8.9697   18.4730 N   0  0  0  0  0  0  0  0  0  0  0  0
   -1.5609   -9.4129   17.1598 C   0  0  2  0  0  0  0  0  0  0  0  0
   -2.3898   -8.6800   16.1503 C   0  0  0  0  0  0  0  0  0  0  0  0
   -2.8362   -7.5476   16.4341 O   0  0  0  0  0  0  0  0  0  0  0  0
   -1.7593  -10.9240   17.0139 C   0  0  0  0  0  0  0  0  0  0  0  0
   -3.1653  -11.3577   17.4845 C   0  0  0  0  0  0  0  0  0  0  0  0
   -3.5394  -12.9765   17.2504 S   0  0  2  0  0  0  0  0  0  0  0  0
   -3.8306  -13.2473   15.6378 C   0  0  0  0  0  0  0  0  0  0  0  0
   -4.8872  -13.3901   18.1782 C   0  0  0  0  0  0  0  0  0  0  0  0
   -4.5696  -13.6571   19.6647 C   0  0  1  0  0  0  0  0  0  0  0  0
   -3.4837  -12.8587   20.1639 O   0  0  0  0  0  0  0  0  0  0  0  0
   -5.7004  -13.2757   20.6062 C   0  0  1  0  0  0  0  0  0  0  0  0
   -6.8455  -14.1504   20.6558 O   0  0  0  0  0  0  0  0  0  0  0  0
   -4.9508  -13.1775   21.9118 C   0  0  1  0  0  0  0  0  0  0  0  0
   -4.5917  -14.4780   22.3687 O   0  0  0  0  0  0  0  0  0  0  0  0
   -3.7060  -12.4415   21.5131 C   0  0  2  0  0  0  0  0  0  0  0  0
   -2.5948   -9.2008   15.0278 O   0  0  0  0  0  0  0  0  0  0  0  0
   -6.3010   -7.9347   20.4037 N   0  0  0  0  0  0  0  0  0  0  0  0
   -6.5689   -9.1976   19.9916 C   0  0  0  0  0  0  0  0  0  0  0  0
   -5.8173  -10.2533   20.3464 N   0  0  0  0  0  0  0  0  0  0  0  0
   -4.7584  -10.1270   21.1540 C   0  0  0  0  0  0  0  0  0  0  0  0
   -4.4323   -8.7979   21.6485 C   0  0  0  0  0  0  0  0  0  0  0  0
   -5.2558   -7.6371   21.2378 C   0  0  0  0  0  0  0  0  0  0  0  0
   -4.9926   -6.3537   21.6695 N   0  0  0  0  0  0  0  0  0  0  0  0
   -3.3779   -8.9519   22.4170 N   0  0  0  0  0  0  0  0  0  0  0  0
   -3.0257  -10.2449   22.4170 C   0  0  0  0  0  0  0  0  0  0  0  0
   -3.8570  -10.9615   21.6614 N   0  0  0  0  0  0  0  0  0  0  0  0
  2  1  1  1  0  0  0
  2  3  1  0  0  0  0
  2  5  1  0  0  0  0
  3  4  1  0  0  0  0
  3 17  1  0  0  0  0
  5  6  1  0  0  0  0
  7  6  1  6  0  0  0
  7  8  1  0  0  0  0
  7  9  1  0  0  0  0
 10  9  1  6  0  0  0
 10 11  1  0  0  0  0
 10 12  1  0  0  0  0
 11 16  1  0  0  0  0
 12 13  1  1  0  0  0
 12 14  1  0  0  0  0
 14 15  1  6  0  0  0
 14 16  1  0  0  0  0
 16 27  1  6  0  0  0
 18 19  2  0  0  0  0
 18 23  1  0  0  0  0
 19 20  1  0  0  0  0
 20 21  2  0  0  0  0
 21 22  1  0  0  0  0
 21 27  1  0  0  0  0
 22 23  2  0  0  0  0
 22 25  1  0  0  0  0
 23 24  1  0  0  0  0
 25 26  2  0  0  0  0
 26 27  1  0  0  0  0
M  END
>  <CHROM.1>
28.43059265,47.72022429,175.11465316,-74.07404991,-79.88663980,32.35786890
61.53879889,-4.06627282,-10.91040395,19.41064145,0.19806197,1.16381615,0.28441133

>  <Name>
ligand

>  <RI>
0

>  <Rbt.Current_Directory>
/home/itssahil/PROJECTS/Mol_Feturizer/Test_systems_manuscript/rnas/4kqy

>  <Rbt.Executable>
rbdock ($Id: //depot/dev/client3/rdock/2013.1/src/exe/rbdock.cxx#4 $)

>  <Rbt.Library>
libRbt.so (2013.1, Build901 2013/11/27)

>  <Rbt.Parameter_File>
/export/apps/rDock/src/rDock_2013.1_src/data/scripts/dock_solv.prm

>  <Rbt.Receptor>
prm/pocket_docking_2.prm

>  <SCORE>
-16.595

>  <SCORE.INTER>
-15.422

>  <SCORE.INTER.CONST>
1

>  <SCORE.INTER.POLAR>
0

>  <SCORE.INTER.ROT>
7

>  <SCORE.INTER.SOLV>
18.4979

>  <SCORE.INTER.VDW>
-24.7139

>  <SCORE.INTER.norm>
-0.571184

>  <SCORE.INTRA>
-1.17307

>  <SCORE.INTRA.DIHEDRAL>
-2.93415

>  <SCORE.INTRA.DIHEDRAL.0>
10.4103

>  <SCORE.INTRA.POLAR>
0

>  <SCORE.INTRA.POLAR.0>
0

>  <SCORE.INTRA.REPUL>
0

>  <SCORE.INTRA.REPUL.0>
0

>  <SCORE.INTRA.SOLV>
0.383199

>  <SCORE.INTRA.SOLV.lig_0>
-49.5008

>  <SCORE.INTRA.VDW>
0.102402

>  <SCORE.INTRA.VDW.0>
-2.6946

>  <SCORE.INTRA.norm>
-0.0434472

>  <SCORE.RESTR>
0

>  <SCORE.RESTR.CAVITY>
0

>  <SCORE.RESTR.norm>
0

>  <SCORE.SYSTEM>
0

>  <SCORE.SYSTEM.CONST>
0

>  <SCORE.SYSTEM.DIHEDRAL>
0

>  <SCORE.SYSTEM.SOLV>
0

>  <SCORE.SYSTEM.norm>
0

>  <SCORE.heavy>
27

>  <SCORE.norm>
-0.614631

>  <RMSD>
0.954

$$$$
ligand
 OpenBabel02271912153D
libRbt.so/2013.1/901 2013/11/27
 27 29  0  0  0  0  0  0  0  0999 V2000
   -2.0693   -9.1305   18.3157 N   0  0  0  0  0  0  0  0  0  0  0  0
   -2.2780   -8.7373   16.9351 C   0  0  2  0  0  0  0  0  0  0  0  0
   -3.7205   -8.3602   16.7928 C   0  0  0  0  0  0  0  0  0  0  0  0
   -4.1162   -7.8568   15.7194 O   0  0  0  0  0  0  0  0  0  0  0  0
   -1.9355   -9.8935   15.9917 C   0  0  0  0  0  0  0  0  0  0  0  0
   -2.8582  -11.1095   16.2294 C   0  0  0  0  0  0  0  0  0  0  0  0
   -2.4899  -12.0457   17.5722 S   0  0  2  0  0  0  0  0  0  0  0  0
   -1.2021  -13.0333   17.2191 C   0  0  0  0  0  0  0  0  0  0  0  0
   -3.8378  -12.9585   18.0178 C   0  0  0  0  0  0  0  0  0  0  0  0
   -3.9094  -13.2797   19.5256 C   0  0  1  0  0  0  0  0  0  0  0  0
   -2.9509  -12.5469   20.3067 O   0  0  0  0  0  0  0  0  0  0  0  0
   -5.2227  -12.8707   20.1728 C   0  0  1  0  0  0  0  0  0  0  0  0
   -6.3776  -13.6914   19.9056 O   0  0  0  0  0  0  0  0  0  0  0  0
   -4.8169  -12.8426   21.6256 C   0  0  1  0  0  0  0  0  0  0  0  0
   -4.6335  -14.1703   22.1079 O   0  0  0  0  0  0  0  0  0  0  0  0
   -3.4844  -12.1557   21.5740 C   0  0  2  0  0  0  0  0  0  0  0  0
   -4.5114   -8.5846   17.7400 O   0  0  0  0  0  0  0  0  0  0  0  0
   -6.1694   -7.6373   20.7674 N   0  0  0  0  0  0  0  0  0  0  0  0
   -6.4902   -8.8995   20.3925 C   0  0  0  0  0  0  0  0  0  0  0  0
   -5.7073   -9.9585   20.6588 N   0  0  0  0  0  0  0  0  0  0  0  0
   -4.5602   -9.8364   21.3361 C   0  0  0  0  0  0  0  0  0  0  0  0
   -4.1716   -8.5082   21.7859 C   0  0  0  0  0  0  0  0  0  0  0  0
   -5.0319   -7.3439   21.4722 C   0  0  0  0  0  0  0  0  0  0  0  0
   -4.7134   -6.0612   21.8672 N   0  0  0  0  0  0  0  0  0  0  0  0
   -3.0350   -8.6665   22.4254 N   0  0  0  0  0  0  0  0  0  0  0  0
   -2.6917   -9.9613   22.3869 C   0  0  0  0  0  0  0  0  0  0  0  0
   -3.6096  -10.6748   21.7358 N   0  0  0  0  0  0  0  0  0  0  0  0
  2  1  1  1  0  0  0
  2  3  1  0  0  0  0
  2  5  1  0  0  0  0
  3  4  1  0  0  0  0
  3 17  1  0  0  0  0
  5  6  1  0  0  0  0
  7  6  1  6  0  0  0
  7  8  1  0  0  0  0
  7  9  1  0  0  0  0
 10  9  1  6  0  0  0
 10 11  1  0  0  0  0
 10 12  1  0  0  0  0
 11 16  1  0  0  0  0
 12 13  1  1  0  0  0
 12 14  1  0  0  0  0
 14 15  1  6  0  0  0
 14 16  1  0  0  0  0
 16 27  1  6  0  0  0
 18 19  2  0  0  0  0
 18 23  1  0  0  0  0
 19 20  1  0  0  0  0
 20 21  2  0  0  0  0
 21 22  1  0  0  0  0
 21 27  1  0  0  0  0
 22 23  2  0  0  0  0
 22 25  1  0  0  0  0
 23 24  1  0  0  0  0
 25 26  2  0  0  0  0
 26 27  1  0  0  0  0
M  END
>  <CHROM.1>
172.91285222,62.56154716,-77.58826093,-78.41516546,-150.78615897,10.47181325
82.81946703,-3.87252047,-10.53705007,19.49947811,-0.13902967,1.17463514,-0.25987718

>  <Name>
ligand

>  <RI>
0

>  <Rbt.Current_Directory>
/home/itssahil/PROJECTS/Mol_Feturizer/Test_systems_manuscript/rnas/4kqy

>  <Rbt.Executable>
rbdock ($Id: //depot/dev/client3/rdock/2013.1/src/exe/rbdock.cxx#4 $)

>  <Rbt.Library>
libRbt.so (2013.1, Build901 2013/11/27)

>  <Rbt.Parameter_File>
/export/apps/rDock/src/rDock_2013.1_src/data/scripts/dock_solv.prm

>  <Rbt.Receptor>
prm/pocket_docking_2.prm

>  <SCORE>
-13.8071

>  <SCORE.INTER>
-15.2641

>  <SCORE.INTER.CONST>
1

>  <SCORE.INTER.POLAR>
0

>  <SCORE.INTER.ROT>
7

>  <SCORE.INTER.SOLV>
18.0494

>  <SCORE.INTER.VDW>
-24.4592

>  <SCORE.INTER.norm>
-0.565337

>  <SCORE.INTRA>
1.45701

>  <SCORE.INTRA.DIHEDRAL>
1.57035

>  <SCORE.INTRA.DIHEDRAL.0>
10.4103

>  <SCORE.INTRA.POLAR>
0

>  <SCORE.INTRA.POLAR.0>
0

>  <SCORE.INTRA.REPUL>
0.0123502

>  <SCORE.INTRA.REPUL.0>
0

>  <SCORE.INTRA.SOLV>
2.22684

>  <SCORE.INTRA.SOLV.lig_0>
-49.5008

>  <SCORE.INTRA.VDW>
-0.503338

>  <SCORE.INTRA.VDW.0>
-2.6946

>  <SCORE.INTRA.norm>
0.0539634

>  <SCORE.RESTR>
0

>  <SCORE.RESTR.CAVITY>
0

>  <SCORE.RESTR.norm>
0

>  <SCORE.SYSTEM>
0

>  <SCORE.SYSTEM.CONST>
0

>  <SCORE.SYSTEM.DIHEDRAL>
0

>  <SCORE.SYSTEM.SOLV>
0

>  <SCORE.SYSTEM.norm>
0

>  <SCORE.heavy>
27

>  <SCORE.norm>
-0.511374

>  <RMSD>
0.991

$$$$
ligand
 OpenBabel02271912153D
libRbt.so/2013.1/901 2013/11/27
 27 29  0  0  0  0  0  0  0  0999 V2000
   -2.2555   -8.4588   18.4864 N   0  0  0  0  0  0  0  0  0  0  0  0
   -1.7463   -9.5957   17.7432 C   0  0  2  0  0  0  0  0  0  0  0  0
   -1.8974   -9.2796   16.2870 C   0  0  0  0  0  0  0  0  0  0  0  0
   -1.9439  -10.2167   15.4612 O   0  0  0  0  0  0  0  0  0  0  0  0
   -2.5319  -10.8614   18.0966 C   0  0  0  0  0  0  0  0  0  0  0  0
   -1.7695  -12.1366   17.6736 C   0  0  0  0  0  0  0  0  0  0  0  0
   -2.7023  -13.5241   17.5322 S   0  0  2  0  0  0  0  0  0  0  0  0
   -2.8968  -13.8961   15.9252 C   0  0  0  0  0  0  0  0  0  0  0  0
   -4.1987  -13.2829   18.2746 C   0  0  0  0  0  0  0  0  0  0  0  0
   -4.1899  -13.5210   19.7994 C   0  0  1  0  0  0  0  0  0  0  0  0
   -3.1772  -12.7655   20.4846 O   0  0  0  0  0  0  0  0  0  0  0  0
   -5.4578  -13.0528   20.4953 C   0  0  1  0  0  0  0  0  0  0  0  0
   -6.6388  -13.8648   20.3383 O   0  0  0  0  0  0  0  0  0  0  0  0
   -4.9700  -12.9542   21.9196 C   0  0  1  0  0  0  0  0  0  0  0  0
   -4.7807  -14.2572   22.4630 O   0  0  0  0  0  0  0  0  0  0  0  0
   -3.6318  -12.2965   21.7562 C   0  0  2  0  0  0  0  0  0  0  0  0
   -2.0063   -8.0836   15.9252 O   0  0  0  0  0  0  0  0  0  0  0  0
   -6.1527   -7.7558   20.6147 N   0  0  0  0  0  0  0  0  0  0  0  0
   -6.4899   -9.0260   20.2836 C   0  0  0  0  0  0  0  0  0  0  0  0
   -5.7493  -10.0903   20.6356 N   0  0  0  0  0  0  0  0  0  0  0  0
   -4.6320   -9.9649   21.3604 C   0  0  0  0  0  0  0  0  0  0  0  0
   -4.2287   -8.6270   21.7663 C   0  0  0  0  0  0  0  0  0  0  0  0
   -5.0416   -7.4577   21.3585 C   0  0  0  0  0  0  0  0  0  0  0  0
   -4.7070   -6.1661   21.7085 N   0  0  0  0  0  0  0  0  0  0  0  0
   -3.1277   -8.7831   22.4658 N   0  0  0  0  0  0  0  0  0  0  0  0
   -2.8183  -10.0865   22.5036 C   0  0  0  0  0  0  0  0  0  0  0  0
   -3.7241  -10.8069   21.8433 N   0  0  0  0  0  0  0  0  0  0  0  0
  2  1  1  1  0  0  0
  2  3  1  0  0  0  0
  2  5  1  0  0  0  0
  3  4  1  0  0  0  0
  3 17  1  0  0  0  0
  5  6  1  0  0  0  0
  7  6  1  6  0  0  0
  7  8  1  0  0  0  0
  7  9  1  0  0  0  0
 10  9  1  6  0  0  0
 10 11  1  0  0  0  0
 10 12  1  0  0  0  0
 11 16  1  0  0  0  0
 12 13  1  1  0  0  0
 12 14  1  0  0  0  0
 14 15  1  6  0  0  0
 14 16  1  0  0  0  0
 16 27  1  6  0  0  0
 18 19  2  0  0  0  0
 18 23  1  0  0  0  0
 19 20  1  0  0  0  0
 20 21  2  0  0  0  0
 21 22  1  0  0  0  0
 21 27  1  0  0  0  0
 22 23  2  0  0  0  0
 22 25  1  0  0  0  0
 23 24  1  0  0  0  0
 25 26  2  0  0  0  0
 26 27  1  0  0  0  0
M  END
>  <CHROM.1>
-157.14576742,-162.72734864,-160.53050383,107.00551068,-83.55438715,53.40231859
76.86775959,-3.76115029,-10.96671289,19.58118965,-0.61607476,1.07291127,0.16157649

>  <Name>
ligand

>  <RI>
0

>  <Rbt.Current_Directory>
/home/itssahil/PROJECTS/Mol_Feturizer/Test_systems_manuscript/rnas/4kqy

>  <Rbt.Executable>
rbdock ($Id: //depot/dev/client3/rdock/2013.1/src/exe/rbdock.cxx#4 $)

>  <Rbt.Library>
libRbt.so (2013.1, Build901 2013/11/27)

>  <Rbt.Parameter_File>
/export/apps/rDock/src/rDock_2013.1_src/data/scripts/dock_solv.prm

>  <Rbt.Receptor>
prm/pocket_docking_2.prm

>  <SCORE>
-16.2864

>  <SCORE.INTER>
-16.9866

>  <SCORE.INTER.CONST>
1

>  <SCORE.INTER.POLAR>
0

>  <SCORE.INTER.ROT>
7

>  <SCORE.INTER.SOLV>
20.2564

>  <SCORE.INTER.VDW>
-26.3432

>  <SCORE.INTER.norm>
-0.629133

>  <SCORE.INTRA>
0.700167

>  <SCORE.INTRA.DIHEDRAL>
0.809402

>  <SCORE.INTRA.DIHEDRAL.0>
10.4103

>  <SCORE.INTRA.POLAR>
0

>  <SCORE.INTRA.POLAR.0>
0

>  <SCORE.INTRA.REPUL>
0

>  <SCORE.INTRA.REPUL.0>
0

>  <SCORE.INTRA.SOLV>
-0.314343

>  <SCORE.INTRA.SOLV.lig_0>
-49.5008

>  <SCORE.INTRA.VDW>
0.452638

>  <SCORE.INTRA.VDW.0>
-2.6946

>  <SCORE.INTRA.norm>
0.0259321

>  <SCORE.RESTR>
0

>  <SCORE.RESTR.CAVITY>
0

>  <SCORE.RESTR.norm>
0

>  <SCORE.SYSTEM>
0

>  <SCORE.SYSTEM.CONST>
0

>  <SCORE.SYSTEM.DIHEDRAL>
0

>  <SCORE.SYSTEM.SOLV>
0

>  <SCORE.SYSTEM.norm>
0

>  <SCORE.heavy>
27

>  <SCORE.norm>
-0.603201

>  <RMSD>
1.012

$$$$
ligand
 OpenBabel02271912153D
libRbt.so/2013.1/901 2013/11/27
 27 29  0  0  0  0  0  0  0  0999 V2000
   -1.0910  -10.6743   15.4195 N   0  0  0  0  0  0  0  0  0  0  0  0
   -2.3969  -10.6042   16.0473 C   0  0  2  0  0  0  0  0  0  0  0  0
   -2.8675   -9.1864   15.9392 C   0  0  0  0  0  0  0  0  0  0  0  0
   -2.0444   -8.2576   16.0877 O   0  0  0  0  0  0  0  0  0  0  0  0
   -2.3073  -11.0237   17.5171 C   0  0  0  0  0  0  0  0  0  0  0  0
   -1.9094  -12.5097   17.6576 C   0  0  0  0  0  0  0  0  0  0  0  0
   -3.1098  -13.6192   17.2788 S   0  0  2  0  0  0  0  0  0  0  0  0
   -3.4311  -13.5491   15.6508 C   0  0  0  0  0  0  0  0  0  0  0  0
   -4.4992  -13.2845   18.1766 C   0  0  0  0  0  0  0  0  0  0  0  0
   -4.3576  -13.5739   19.6859 C   0  0  1  0  0  0  0  0  0  0  0  0
   -3.3018  -12.8241   20.3096 O   0  0  0  0  0  0  0  0  0  0  0  0
   -5.5687  -13.1524   20.5022 C   0  0  1  0  0  0  0  0  0  0  0  0
   -6.7466  -13.9795   20.4166 O   0  0  0  0  0  0  0  0  0  0  0  0
   -4.9635  -13.0934   21.8829 C   0  0  1  0  0  0  0  0  0  0  0  0
   -4.7093  -14.4105   22.3621 O   0  0  0  0  0  0  0  0  0  0  0  0
   -3.6539  -12.4067   21.6308 C   0  0  2  0  0  0  0  0  0  0  0  0
   -4.0709   -8.9565   15.6705 O   0  0  0  0  0  0  0  0  0  0  0  0
   -6.1482   -7.8328   20.5658 N   0  0  0  0  0  0  0  0  0  0  0  0
   -6.4601   -9.0889   20.1639 C   0  0  0  0  0  0  0  0  0  0  0  0
   -5.7299  -10.1640   20.5050 N   0  0  0  0  0  0  0  0  0  0  0  0
   -4.6500  -10.0649   21.2882 C   0  0  0  0  0  0  0  0  0  0  0  0
   -4.2764   -8.7441   21.7711 C   0  0  0  0  0  0  0  0  0  0  0  0
   -5.0766   -7.5621   21.3753 C   0  0  0  0  0  0  0  0  0  0  0  0
   -4.7685   -6.2854   21.7969 N   0  0  0  0  0  0  0  0  0  0  0  0
   -3.2095   -8.9253   22.5161 N   0  0  0  0  0  0  0  0  0  0  0  0
   -2.8932  -10.2275   22.5123 C   0  0  0  0  0  0  0  0  0  0  0  0
   -3.7608  -10.9228   21.7779 N   0  0  0  0  0  0  0  0  0  0  0  0
  2  1  1  1  0  0  0
  2  3  1  0  0  0  0
  2  5  1  0  0  0  0
  3  4  1  0  0  0  0
  3 17  1  0  0  0  0
  5  6  1  0  0  0  0
  7  6  1  6  0  0  0
  7  8  1  0  0  0  0
  7  9  1  0  0  0  0
 10  9  1  6  0  0  0
 10 11  1  0  0  0  0
 10 12  1  0  0  0  0
 11 16  1  0  0  0  0
 12 13  1  1  0  0  0
 12 14  1  0  0  0  0
 14 15  1  6  0  0  0
 14 16  1  0  0  0  0
 16 27  1  6  0  0  0
 18 19  2  0  0  0  0
 18 23  1  0  0  0  0
 19 20  1  0  0  0  0
 20 21  2  0  0  0  0
 21 22  1  0  0  0  0
 21 27  1  0  0  0  0
 22 23  2  0  0  0  0
 22 25  1  0  0  0  0
 23 24  1  0  0  0  0
 25 26  2  0  0  0  0
 26 27  1  0  0  0  0
M  END
>  <CHROM.1>
-38.68855112,-65.11643718,-73.72845439,67.72017195,-69.56875721,59.11183792
69.18870331,-3.94794703,-11.10809191,19.33698362,-0.31927516,1.18387065,0.07633885

>  <Name>
ligand

>  <RI>
0

>  <Rbt.Current_Directory>
/home/itssahil/PROJECTS/Mol_Feturizer/Test_systems_manuscript/rnas/4kqy

>  <Rbt.Executable>
rbdock ($Id: //depot/dev/client3/rdock/2013.1/src/exe/rbdock.cxx#4 $)

>  <Rbt.Library>
libRbt.so (2013.1, Build901 2013/11/27)

>  <Rbt.Parameter_File>
/export/apps/rDock/src/rDock_2013.1_src/data/scripts/dock_solv.prm

>  <Rbt.Receptor>
prm/pocket_docking_7.prm

>  <SCORE>
-18.9933

>  <SCORE.INTER>
-16.3307

>  <SCORE.INTER.CONST>
1

>  <SCORE.INTER.POLAR>
0

>  <SCORE.INTER.ROT>
7

>  <SCORE.INTER.SOLV>
15.6847

>  <SCORE.INTER.VDW>
-24.382

>  <SCORE.INTER.norm>
-0.604841

>  <SCORE.INTRA>
-2.6626

>  <SCORE.INTRA.DIHEDRAL>
-6.38326

>  <SCORE.INTRA.DIHEDRAL.0>
10.4103

>  <SCORE.INTRA.POLAR>
0

>  <SCORE.INTRA.POLAR.0>
0

>  <SCORE.INTRA.REPUL>
0

>  <SCORE.INTRA.REPUL.0>
0

>  <SCORE.INTRA.SOLV>
1.4209

>  <SCORE.INTRA.SOLV.lig_0>
-49.5008

>  <SCORE.INTRA.VDW>
-0.18142

>  <SCORE.INTRA.VDW.0>
-2.6946

>  <SCORE.INTRA.norm>
-0.0986147

>  <SCORE.RESTR>
0

>  <SCORE.RESTR.CAVITY>
0

>  <SCORE.RESTR.norm>
0

>  <SCORE.SYSTEM>
0

>  <SCORE.SYSTEM.CONST>
0

>  <SCORE.SYSTEM.DIHEDRAL>
0

>  <SCORE.SYSTEM.SOLV>
0

>  <SCORE.SYSTEM.norm>
0

>  <SCORE.heavy>
27

>  <SCORE.norm>
-0.703456

>  <RMSD>
1.012

$$$$
ligand
 OpenBabel02271912153D
libRbt.so/2013.1/901 2013/11/27
 27 29  0  0  0  0  0  0  0  0999 V2000
   -1.4426  -10.3883   16.9955 N   0  0  0  0  0  0  0  0  0  0  0  0
   -2.3256   -9.4414   16.3412 C   0  0  2  0  0  0  0  0  0  0  0  0
   -2.6508   -8.3729   17.3391 C   0  0  0  0  0  0  0  0  0  0  0  0
   -2.0905   -8.3907   18.4562 O   0  0  0  0  0  0  0  0  0  0  0  0
   -3.6057  -10.1387   15.8731 C   0  0  0  0  0  0  0  0  0  0  0  0
   -3.3472  -11.6218   15.5262 C   0  0  0  0  0  0  0  0  0  0  0  0
   -3.0971  -12.6385   16.8373 S   0  0  2  0  0  0  0  0  0  0  0  0
   -2.7170  -14.1600   16.2901 C   0  0  0  0  0  0  0  0  0  0  0  0
   -4.4829  -12.6790   17.7998 C   0  0  0  0  0  0  0  0  0  0  0  0
   -4.2179  -13.0751   19.2676 C   0  0  1  0  0  0  0  0  0  0  0  0
   -3.1910  -12.2856   19.8905 O   0  0  0  0  0  0  0  0  0  0  0  0
   -5.4040  -12.8320   20.1868 C   0  0  1  0  0  0  0  0  0  0  0  0
   -6.5102  -13.7526   20.0996 O   0  0  0  0  0  0  0  0  0  0  0  0
   -4.7162  -12.8300   21.5296 C   0  0  1  0  0  0  0  0  0  0  0  0
   -4.3196  -14.1530   21.8779 O   0  0  0  0  0  0  0  0  0  0  0  0
   -3.4894  -12.0096   21.2611 C   0  0  2  0  0  0  0  0  0  0  0  0
   -3.4545   -7.4625   17.0255 O   0  0  0  0  0  0  0  0  0  0  0  0
   -5.9996   -7.4408   20.2118 N   0  0  0  0  0  0  0  0  0  0  0  0
   -6.1506   -8.6523   19.6237 C   0  0  0  0  0  0  0  0  0  0  0  0
   -5.4374   -9.7314   19.9876 N   0  0  0  0  0  0  0  0  0  0  0  0
   -4.5392   -9.6834   20.9777 C   0  0  0  0  0  0  0  0  0  0  0  0
   -4.3474   -8.4147   21.6639 C   0  0  0  0  0  0  0  0  0  0  0  0
   -5.1250   -7.2258   21.2441 C   0  0  0  0  0  0  0  0  0  0  0  0
   -4.9828   -5.9963   21.8529 N   0  0  0  0  0  0  0  0  0  0  0  0
   -3.4375   -8.6408   22.5842 N   0  0  0  0  0  0  0  0  0  0  0  0
   -3.0484   -9.9208   22.5049 C   0  0  0  0  0  0  0  0  0  0  0  0
   -3.7124  -10.5581   21.5413 N   0  0  0  0  0  0  0  0  0  0  0  0
  2  1  1  1  0  0  0
  2  3  1  0  0  0  0
  2  5  1  0  0  0  0
  3  4  1  0  0  0  0
  3 17  1  0  0  0  0
  5  6  1  0  0  0  0
  7  6  1  6  0  0  0
  7  8  1  0  0  0  0
  7  9  1  0  0  0  0
 10  9  1  6  0  0  0
 10 11  1  0  0  0  0
 10 12  1  0  0  0  0
 11 16  1  0  0  0  0
 12 13  1  1  0  0  0
 12 14  1  0  0  0  0
 14 15  1  6  0  0  0
 14 16  1  0  0  0  0
 16 27  1  6  0  0  0
 18 19  2  0  0  0  0
 18 23  1  0  0  0  0
 19 20  1  0  0  0  0
 20 21  2  0  0  0  0
 21 22  1  0  0  0  0
 21 27  1  0  0  0  0
 22 23  2  0  0  0  0
 22 25  1  0  0  0  0
 23 24  1  0  0  0  0
 25 26  2  0  0  0  0
 26 27  1  0  0  0  0
M  END
>  <CHROM.1>
4.85868837,-29.99901870,73.00983991,-175.54552889,-156.24021359,52.30985285
53.91677268,-3.93707191,-10.62615725,19.27055761,-0.94062519,1.22144400,0.13809133

>  <Name>
ligand

>  <RI>
0

>  <Rbt.Current_Directory>
/home/itssahil/PROJECTS/Mol_Feturizer/Test_systems_manuscript/rnas/4kqy

>  <Rbt.Executable>
rbdock ($Id: //depot/dev/client3/rdock/2013.1/src/exe/rbdock.cxx#4 $)

>  <Rbt.Library>
libRbt.so (2013.1, Build901 2013/11/27)

>  <Rbt.Parameter_File>
/export/apps/rDock/src/rDock_2013.1_src/data/scripts/dock_solv.prm

>  <Rbt.Receptor>
prm/pocket_docking_2.prm

>  <SCORE>
-12.0824

>  <SCORE.INTER>
-12.4573

>  <SCORE.INTER.CONST>
1

>  <SCORE.INTER.POLAR>
0

>  <SCORE.INTER.ROT>
7

>  <SCORE.INTER.SOLV>
16.7862

>  <SCORE.INTER.VDW>
-22.167

>  <SCORE.INTER.norm>
-0.461382

>  <SCORE.INTRA>
0.343009

>  <SCORE.INTRA.DIHEDRAL>
-2.35662

>  <SCORE.INTRA.DIHEDRAL.0>
10.4103

>  <SCORE.INTRA.POLAR>
0

>  <SCORE.INTRA.POLAR.0>
0

>  <SCORE.INTRA.REPUL>
0

>  <SCORE.INTRA.REPUL.0>
0

>  <SCORE.INTRA.SOLV>
2.95341

>  <SCORE.INTRA.SOLV.lig_0>
-49.5008

>  <SCORE.INTRA.VDW>
0.0446145

>  <SCORE.INTRA.VDW.0>
-2.6946

>  <SCORE.INTRA.norm>
0.012704

>  <SCORE.RESTR>
0.0319012

>  <SCORE.RESTR.CAVITY>
0.0319012

>  <SCORE.RESTR.norm>
0.00118153

>  <SCORE.SYSTEM>
0

>  <SCORE.SYSTEM.CONST>
0

>  <SCORE.SYSTEM.DIHEDRAL>
0

>  <SCORE.SYSTEM.SOLV>
0

>  <SCORE.SYSTEM.norm>
0

>  <SCORE.heavy>
27

>  <SCORE.norm>
-0.447497

>  <RMSD>
1.033

$$$$
ligand
 OpenBabel02271912153D
libRbt.so/2013.1/901 2013/11/27
 27 29  0  0  0  0  0  0  0  0999 V2000
   -0.6292  -10.7159   15.4040 N   0  0  0  0  0  0  0  0  0  0  0  0
   -1.9467  -10.5965   15.9991 C   0  0  2  0  0  0  0  0  0  0  0  0
   -2.4133   -9.1919   15.7697 C   0  0  0  0  0  0  0  0  0  0  0  0
   -3.5532   -8.8569   16.1578 O   0  0  0  0  0  0  0  0  0  0  0  0
   -1.8857  -10.8980   17.4989 C   0  0  0  0  0  0  0  0  0  0  0  0
   -1.4717  -12.3623   17.7649 C   0  0  0  0  0  0  0  0  0  0  0  0
   -2.6436  -13.5169   17.4351 S   0  0  2  0  0  0  0  0  0  0  0  0
   -2.8607  -13.6283   15.7922 C   0  0  0  0  0  0  0  0  0  0  0  0
   -4.0879  -13.0981   18.2013 C   0  0  0  0  0  0  0  0  0  0  0  0
   -4.0845  -13.3402   19.7255 C   0  0  1  0  0  0  0  0  0  0  0  0
   -3.0768  -12.5835   20.4167 O   0  0  0  0  0  0  0  0  0  0  0  0
   -5.3566  -12.8776   20.4175 C   0  0  1  0  0  0  0  0  0  0  0  0
   -6.5345  -13.6926   20.2536 O   0  0  0  0  0  0  0  0  0  0  0  0
   -4.8748  -12.7813   21.8440 C   0  0  1  0  0  0  0  0  0  0  0  0
   -4.6838  -14.0852   22.3847 O   0  0  0  0  0  0  0  0  0  0  0  0
   -3.5379  -12.1192   21.6877 C   0  0  2  0  0  0  0  0  0  0  0  0
   -1.6416   -8.3691   15.2215 O   0  0  0  0  0  0  0  0  0  0  0  0
   -6.1796   -7.6021   20.7427 N   0  0  0  0  0  0  0  0  0  0  0  0
   -6.5322   -8.8759   20.4431 C   0  0  0  0  0  0  0  0  0  0  0  0
   -5.7569   -9.9333   20.7366 N   0  0  0  0  0  0  0  0  0  0  0  0
   -4.5857   -9.7968   21.3684 C   0  0  0  0  0  0  0  0  0  0  0  0
   -4.1619   -8.4545   21.7371 C   0  0  0  0  0  0  0  0  0  0  0  0
   -5.0145   -7.2930   21.3935 C   0  0  0  0  0  0  0  0  0  0  0  0
   -4.6632   -5.9977   21.7122 N   0  0  0  0  0  0  0  0  0  0  0  0
   -3.0067   -8.5998   22.3457 N   0  0  0  0  0  0  0  0  0  0  0  0
   -2.6846   -9.9005   22.3615 C   0  0  0  0  0  0  0  0  0  0  0  0
   -3.6350  -10.6301   21.7783 N   0  0  0  0  0  0  0  0  0  0  0  0
  2  1  1  1  0  0  0
  2  3  1  0  0  0  0
  2  5  1  0  0  0  0
  3  4  1  0  0  0  0
  3 17  1  0  0  0  0
  5  6  1  0  0  0  0
  7  6  1  6  0  0  0
  7  8  1  0  0  0  0
  7  9  1  0  0  0  0
 10  9  1  6  0  0  0
 10 11  1  0  0  0  0
 10 12  1  0  0  0  0
 11 16  1  0  0  0  0
 12 13  1  1  0  0  0
 12 14  1  0  0  0  0
 14 15  1  6  0  0  0
 14 16  1  0  0  0  0
 16 27  1  6  0  0  0
 18 19  2  0  0  0  0
 18 23  1  0  0  0  0
 19 20  1  0  0  0  0
 20 21  2  0  0  0  0
 21 22  1  0  0  0  0
 21 27  1  0  0  0  0
 22 23  2  0  0  0  0
 22 25  1  0  0  0  0
 23 24  1  0  0  0  0
 25 26  2  0  0  0  0
 26 27  1  0  0  0  0
M  END
>  <CHROM.1>
177.63948278,-64.25527657,-73.20318011,70.44403331,-74.80254769,60.63803212
81.75301940,-3.69169653,-10.92512013,19.34562763,-0.31666563,1.10615932,0.01408333

>  <Name>
ligand

>  <RI>
0

>  <Rbt.Current_Directory>
/home/itssahil/PROJECTS/Mol_Feturizer/Test_systems_manuscript/rnas/4kqy

>  <Rbt.Executable>
rbdock ($Id: //depot/dev/client3/rdock/2013.1/src/exe/rbdock.cxx#4 $)

>  <Rbt.Library>
libRbt.so (2013.1, Build901 2013/11/27)

>  <Rbt.Parameter_File>
/export/apps/rDock/src/rDock_2013.1_src/data/scripts/dock_solv.prm

>  <Rbt.Receptor>
prm/pocket_docking_3.prm

>  <SCORE>
-19.2601

>  <SCORE.INTER>
-17.2342

>  <SCORE.INTER.CONST>
1

>  <SCORE.INTER.POLAR>
0

>  <SCORE.INTER.ROT>
7

>  <SCORE.INTER.SOLV>
16.9195

>  <SCORE.INTER.VDW>
-25.3959

>  <SCORE.INTER.norm>
-0.638302

>  <SCORE.INTRA>
-2.02596

>  <SCORE.INTRA.DIHEDRAL>
-5.96726

>  <SCORE.INTRA.DIHEDRAL.0>
10.4103

>  <SCORE.INTRA.POLAR>
0

>  <SCORE.INTRA.POLAR.0>
0

>  <SCORE.INTRA.REPUL>
0

>  <SCORE.INTRA.REPUL.0>
0

>  <SCORE.INTRA.SOLV>
1.44466

>  <SCORE.INTRA.SOLV.lig_0>
-49.5008

>  <SCORE.INTRA.VDW>
0.235347

>  <SCORE.INTRA.VDW.0>
-2.6946

>  <SCORE.INTRA.norm>
-0.0750354

>  <SCORE.RESTR>
0

>  <SCORE.RESTR.CAVITY>
0

>  <SCORE.RESTR.norm>
0

>  <SCORE.SYSTEM>
0

>  <SCORE.SYSTEM.CONST>
0

>  <SCORE.SYSTEM.DIHEDRAL>
0

>  <SCORE.SYSTEM.SOLV>
0

>  <SCORE.SYSTEM.norm>
0

>  <SCORE.heavy>
27

>  <SCORE.norm>
-0.713337

>  <RMSD>
1.034

$$$$
ligand
 OpenBabel02271912153D
libRbt.so/2013.1/901 2013/11/27
 27 29  0  0  0  0  0  0  0  0999 V2000
   -2.2389   -9.1679   14.9186 N   0  0  0  0  0  0  0  0  0  0  0  0
   -3.4046   -9.1255   15.7808 C   0  0  2  0  0  0  0  0  0  0  0  0
   -3.5450   -7.7173   16.2710 C   0  0  0  0  0  0  0  0  0  0  0  0
   -2.6709   -6.8764   15.9693 O   0  0  0  0  0  0  0  0  0  0  0  0
   -3.2320  -10.0845   16.9617 C   0  0  0  0  0  0  0  0  0  0  0  0
   -2.9558  -11.5270   16.4829 C   0  0  0  0  0  0  0  0  0  0  0  0
   -2.7256  -12.6612   17.6978 S   0  0  2  0  0  0  0  0  0  0  0  0
   -1.9039  -13.9675   17.0838 C   0  0  0  0  0  0  0  0  0  0  0  0
   -4.2190  -13.1360   18.3247 C   0  0  0  0  0  0  0  0  0  0  0  0
   -4.2120  -13.3819   19.8483 C   0  0  1  0  0  0  0  0  0  0  0  0
   -3.2061  -12.6229   20.5396 O   0  0  0  0  0  0  0  0  0  0  0  0
   -5.4847  -12.9259   20.5436 C   0  0  1  0  0  0  0  0  0  0  0  0
   -6.6598  -13.7451   20.3797 O   0  0  0  0  0  0  0  0  0  0  0  0
   -5.0009  -12.8313   21.9695 C   0  0  1  0  0  0  0  0  0  0  0  0
   -4.8038  -14.1358   22.5067 O   0  0  0  0  0  0  0  0  0  0  0  0
   -3.6668  -12.1636   21.8126 C   0  0  2  0  0  0  0  0  0  0  0  0
   -4.5517   -7.3991   16.9482 O   0  0  0  0  0  0  0  0  0  0  0  0
   -6.1423   -7.6224   20.5779 N   0  0  0  0  0  0  0  0  0  0  0  0
   -6.4566   -8.8908   20.2190 C   0  0  0  0  0  0  0  0  0  0  0  0
   -5.7312   -9.9555   20.6006 N   0  0  0  0  0  0  0  0  0  0  0  0
   -4.6541   -9.8323   21.3841 C   0  0  0  0  0  0  0  0  0  0  0  0
   -4.2781   -8.4965   21.8218 C   0  0  0  0  0  0  0  0  0  0  0  0
   -5.0730   -7.3267   21.3816 C   0  0  0  0  0  0  0  0  0  0  0  0
   -4.7624   -6.0369   21.7595 N   0  0  0  0  0  0  0  0  0  0  0  0
   -3.2147   -8.6546   22.5770 N   0  0  0  0  0  0  0  0  0  0  0  0
   -2.9025   -9.9572   22.6201 C   0  0  0  0  0  0  0  0  0  0  0  0
   -3.7695  -10.6752   21.9071 N   0  0  0  0  0  0  0  0  0  0  0  0
  2  1  1  6  0  0  0
  2  3  1  0  0  0  0
  2  5  1  0  0  0  0
  3  4  1  0  0  0  0
  3 17  1  0  0  0  0
  5  6  1  0  0  0  0
  7  6  1  6  0  0  0
  7  8  1  0  0  0  0
  7  9  1  0  0  0  0
 10  9  1  6  0  0  0
 10 11  1  0  0  0  0
 10 12  1  0  0  0  0
 11 16  1  0  0  0  0
 12 13  1  1  0  0  0
 12 14  1  0  0  0  0
 14 15  1  6  0  0  0
 14 16  1  0  0  0  0
 16 27  1  6  0  0  0
 18 19  2  0  0  0  0
 18 23  1  0  0  0  0
 19 20  1  0  0  0  0
 20 21  2  0  0  0  0
 21 22  1  0  0  0  0
 21 27  1  0  0  0  0
 22 23  2  0  0  0  0
 22 25  1  0  0  0  0
 23 24  1  0  0  0  0
 25 26  2  0  0  0  0
 26 27  1  0  0  0  0
M  END
>  <CHROM.1>
-4.33173772,-56.35300540,179.08287079,-158.95618448,-142.89288717,26.72985542
73.97479233,-4.05012492,-10.56324651,19.44924451,-0.90259260,-1.23341663
2.89735028

>  <Name>
ligand

>  <RI>
0

>  <Rbt.Current_Directory>
/home/itssahil/PROJECTS/Mol_Feturizer/Test_systems_manuscript/rnas/4kqy

>  <Rbt.Executable>
rbdock ($Id: //depot/dev/client3/rdock/2013.1/src/exe/rbdock.cxx#4 $)

>  <Rbt.Library>
libRbt.so (2013.1, Build901 2013/11/27)

>  <Rbt.Parameter_File>
/export/apps/rDock/src/rDock_2013.1_src/data/scripts/dock_solv.prm

>  <Rbt.Receptor>
prm/pocket_docking_2.prm

>  <SCORE>
-15.7435

>  <SCORE.INTER>
-15.7488

>  <SCORE.INTER.CONST>
1

>  <SCORE.INTER.POLAR>
0

>  <SCORE.INTER.ROT>
7

>  <SCORE.INTER.SOLV>
18.7019

>  <SCORE.INTER.VDW>
-24.9999

>  <SCORE.INTER.norm>
-0.583289

>  <SCORE.INTRA>
0.00534024

>  <SCORE.INTRA.DIHEDRAL>
-0.159943

>  <SCORE.INTRA.DIHEDRAL.0>
10.4103

>  <SCORE.INTRA.POLAR>
0

>  <SCORE.INTRA.POLAR.0>
0

>  <SCORE.INTRA.REPUL>
0

>  <SCORE.INTRA.REPUL.0>
0

>  <SCORE.INTRA.SOLV>
0.251604

>  <SCORE.INTRA.SOLV.lig_0>
-49.5008

>  <SCORE.INTRA.VDW>
-0.0404899

>  <SCORE.INTRA.VDW.0>
-2.6946

>  <SCORE.INTRA.norm>
0.000197787

>  <SCORE.RESTR>
0

>  <SCORE.RESTR.CAVITY>
0

>  <SCORE.RESTR.norm>
0

>  <SCORE.SYSTEM>
0

>  <SCORE.SYSTEM.CONST>
0

>  <SCORE.SYSTEM.DIHEDRAL>
0

>  <SCORE.SYSTEM.SOLV>
0

>  <SCORE.SYSTEM.norm>
0

>  <SCORE.heavy>
27

>  <SCORE.norm>
-0.583091

>  <RMSD>
1.043

$$$$
ligand
 OpenBabel02271912153D
libRbt.so/2013.1/901 2013/11/27
 27 29  0  0  0  0  0  0  0  0999 V2000
   -3.0245   -9.7631   17.8093 N   0  0  0  0  0  0  0  0  0  0  0  0
   -3.4002   -9.5860   16.4194 C   0  0  2  0  0  0  0  0  0  0  0  0
   -4.3654   -8.4423   16.3612 C   0  0  0  0  0  0  0  0  0  0  0  0
   -5.4203   -8.5673   15.7026 O   0  0  0  0  0  0  0  0  0  0  0  0
   -4.0522  -10.8598   15.8748 C   0  0  0  0  0  0  0  0  0  0  0  0
   -3.0939  -12.0681   15.9644 C   0  0  0  0  0  0  0  0  0  0  0  0
   -2.8491  -12.6849   17.5054 S   0  0  2  0  0  0  0  0  0  0  0  0
   -1.8860  -14.0348   17.4123 C   0  0  0  0  0  0  0  0  0  0  0  0
   -4.3353  -13.0593   18.2122 C   0  0  0  0  0  0  0  0  0  0  0  0
   -4.2580  -13.3402   19.7278 C   0  0  1  0  0  0  0  0  0  0  0  0
   -3.2304  -12.5859   20.3917 O   0  0  0  0  0  0  0  0  0  0  0  0
   -5.5032  -12.9153   20.4893 C   0  0  1  0  0  0  0  0  0  0  0  0
   -6.6757  -13.7440   20.3582 O   0  0  0  0  0  0  0  0  0  0  0  0
   -4.9575  -12.8480   21.8942 C   0  0  1  0  0  0  0  0  0  0  0  0
   -4.7230  -14.1622   22.3912 O   0  0  0  0  0  0  0  0  0  0  0  0
   -3.6389  -12.1615   21.6943 C   0  0  2  0  0  0  0  0  0  0  0  0
   -4.1138   -7.3920   16.9990 O   0  0  0  0  0  0  0  0  0  0  0  0
   -6.1072   -7.5996   20.5226 N   0  0  0  0  0  0  0  0  0  0  0  0
   -6.4041   -8.8589   20.1193 C   0  0  0  0  0  0  0  0  0  0  0  0
   -5.6829   -9.9303   20.4900 N   0  0  0  0  0  0  0  0  0  0  0  0
   -4.6281   -9.8240   21.3057 C   0  0  0  0  0  0  0  0  0  0  0  0
   -4.2721   -8.4993   21.7914 C   0  0  0  0  0  0  0  0  0  0  0  0
   -5.0618   -7.3215   21.3632 C   0  0  0  0  0  0  0  0  0  0  0  0
   -4.7693   -6.0415   21.7859 N   0  0  0  0  0  0  0  0  0  0  0  0
   -3.2286   -8.6735   22.5703 N   0  0  0  0  0  0  0  0  0  0  0  0
   -2.9099   -9.9751   22.5848 C   0  0  0  0  0  0  0  0  0  0  0  0
   -3.7530  -10.6768   21.8283 N   0  0  0  0  0  0  0  0  0  0  0  0
  2  1  1  1  0  0  0
  2  3  1  0  0  0  0
  2  5  1  0  0  0  0
  3  4  1  0  0  0  0
  3 17  1  0  0  0  0
  5  6  1  0  0  0  0
  7  6  1  6  0  0  0
  7  8  1  0  0  0  0
  7  9  1  0  0  0  0
 10  9  1  6  0  0  0
 10 11  1  0  0  0  0
 10 12  1  0  0  0  0
 11 16  1  0  0  0  0
 12 13  1  1  0  0  0
 12 14  1  0  0  0  0
 14 15  1  6  0  0  0
 14 16  1  0  0  0  0
 16 27  1  6  0  0  0
 18 19  2  0  0  0  0
 18 23  1  0  0  0  0
 19 20  1  0  0  0  0
 20 21  2  0  0  0  0
 21 22  1  0  0  0  0
 21 27  1  0  0  0  0
 22 23  2  0  0  0  0
 22 25  1  0  0  0  0
 23 24  1  0  0  0  0
 25 26  2  0  0  0  0
 26 27  1  0  0  0  0
M  END
>  <CHROM.1>
-132.78965811,-59.72482605,73.33056669,176.06893906,-167.30958543,31.83508391
69.85586085,-4.23877094,-10.73704161,19.46322102,-0.21078546,1.35025635,-0.70759325

>  <Name>
ligand

>  <RI>
0

>  <Rbt.Current_Directory>
/home/itssahil/PROJECTS/Mol_Feturizer/Test_systems_manuscript/rnas/4kqy

>  <Rbt.Executable>
rbdock ($Id: //depot/dev/client3/rdock/2013.1/src/exe/rbdock.cxx#4 $)

>  <Rbt.Library>
libRbt.so (2013.1, Build901 2013/11/27)

>  <Rbt.Parameter_File>
/export/apps/rDock/src/rDock_2013.1_src/data/scripts/dock_solv.prm

>  <Rbt.Receptor>
prm/pocket_docking_2.prm

>  <SCORE>
-14.7294

>  <SCORE.INTER>
-14.5583

>  <SCORE.INTER.CONST>
1

>  <SCORE.INTER.POLAR>
0

>  <SCORE.INTER.ROT>
7

>  <SCORE.INTER.SOLV>
15.6257

>  <SCORE.INTER.VDW>
-23.1808

>  <SCORE.INTER.norm>
-0.539195

>  <SCORE.INTRA>
-0.200191

>  <SCORE.INTRA.DIHEDRAL>
-4.13968

>  <SCORE.INTRA.DIHEDRAL.0>
10.4103

>  <SCORE.INTRA.POLAR>
0

>  <SCORE.INTRA.POLAR.0>
0

>  <SCORE.INTRA.REPUL>
0

>  <SCORE.INTRA.REPUL.0>
0

>  <SCORE.INTRA.SOLV>
3.02992

>  <SCORE.INTRA.SOLV.lig_0>
-49.5008

>  <SCORE.INTRA.VDW>
0.354689

>  <SCORE.INTRA.VDW.0>
-2.6946

>  <SCORE.INTRA.norm>
-0.00741446

>  <SCORE.RESTR>
0.029001

>  <SCORE.RESTR.CAVITY>
0.029001

>  <SCORE.RESTR.norm>
0.00107411

>  <SCORE.SYSTEM>
0

>  <SCORE.SYSTEM.CONST>
0

>  <SCORE.SYSTEM.DIHEDRAL>
0

>  <SCORE.SYSTEM.SOLV>
0

>  <SCORE.SYSTEM.norm>
0

>  <SCORE.heavy>
27

>  <SCORE.norm>
-0.545535

>  <RMSD>
1.087

$$$$
ligand
 OpenBabel02271912153D
libRbt.so/2013.1/901 2013/11/27
 27 29  0  0  0  0  0  0  0  0999 V2000
   -2.3730   -9.0962   14.9209 N   0  0  0  0  0  0  0  0  0  0  0  0
   -3.6810   -9.1886   15.5413 C   0  0  2  0  0  0  0  0  0  0  0  0
   -4.0423   -7.8179   16.0249 C   0  0  0  0  0  0  0  0  0  0  0  0
   -3.1309   -7.0033   16.2858 O   0  0  0  0  0  0  0  0  0  0  0  0
   -3.6495  -10.1742   16.7125 C   0  0  0  0  0  0  0  0  0  0  0  0
   -3.3156  -11.6058   16.2378 C   0  0  0  0  0  0  0  0  0  0  0  0
   -3.0605  -12.7310   17.4560 S   0  0  2  0  0  0  0  0  0  0  0  0
   -2.4461  -14.1266   16.7975 C   0  0  0  0  0  0  0  0  0  0  0  0
   -4.5119  -13.0390   18.2606 C   0  0  0  0  0  0  0  0  0  0  0  0
   -4.3453  -13.3405   19.7650 C   0  0  1  0  0  0  0  0  0  0  0  0
   -3.2912  -12.5821   20.3811 O   0  0  0  0  0  0  0  0  0  0  0  0
   -5.5506  -12.9431   20.6018 C   0  0  1  0  0  0  0  0  0  0  0  0
   -6.7182  -13.7853   20.5247 O   0  0  0  0  0  0  0  0  0  0  0  0
   -4.9270  -12.8887   21.9746 C   0  0  1  0  0  0  0  0  0  0  0  0
   -4.6484  -14.2066   22.4377 O   0  0  0  0  0  0  0  0  0  0  0  0
   -3.6305  -12.1819   21.7109 C   0  0  2  0  0  0  0  0  0  0  0  0
   -5.2514   -7.5013   16.1294 O   0  0  0  0  0  0  0  0  0  0  0  0
   -6.0379   -7.5954   20.5089 N   0  0  0  0  0  0  0  0  0  0  0  0
   -6.3085   -8.8449   20.0594 C   0  0  0  0  0  0  0  0  0  0  0  0
   -5.6073   -9.9243   20.4451 N   0  0  0  0  0  0  0  0  0  0  0  0
   -4.6011   -9.8366   21.3221 C   0  0  0  0  0  0  0  0  0  0  0  0
   -4.2763   -8.5236   21.8587 C   0  0  0  0  0  0  0  0  0  0  0  0
   -5.0429   -7.3366   21.4143 C   0  0  0  0  0  0  0  0  0  0  0  0
   -4.7777   -6.0668   21.8834 N   0  0  0  0  0  0  0  0  0  0  0  0
   -3.2786   -8.7155   22.6917 N   0  0  0  0  0  0  0  0  0  0  0  0
   -2.9584  -10.0168   22.6934 C   0  0  0  0  0  0  0  0  0  0  0  0
   -3.7553  -10.7010   21.8735 N   0  0  0  0  0  0  0  0  0  0  0  0
  2  1  1  1  0  0  0
  2  3  1  0  0  0  0
  2  5  1  0  0  0  0
  3  4  1  0  0  0  0
  3 17  1  0  0  0  0
  5  6  1  0  0  0  0
  7  6  1  6  0  0  0
  7  8  1  0  0  0  0
  7  9  1  0  0  0  0
 10  9  1  6  0  0  0
 10 11  1  0  0  0  0
 10 12  1  0  0  0  0
 11 16  1  0  0  0  0
 12 13  1  1  0  0  0
 12 14  1  0  0  0  0
 14 15  1  6  0  0  0
 14 16  1  0  0  0  0
 16 27  1  6  0  0  0
 18 19  2  0  0  0  0
 18 23  1  0  0  0  0
 19 20  1  0  0  0  0
 20 21  2  0  0  0  0
 21 22  1  0  0  0  0
 21 27  1  0  0  0  0
 22 23  2  0  0  0  0
 22 25  1  0  0  0  0
 23 24  1  0  0  0  0
 25 26  2  0  0  0  0
 26 27  1  0  0  0  0
M  END
>  <CHROM.1>
-25.08144569,-63.04638480,172.48005021,-169.68393558,-146.59297819,35.52691926
63.28403612,-4.20501067,-10.59806722,19.35168632,-0.91434988,-1.33826069
2.79913674

>  <Name>
ligand

>  <RI>
0

>  <Rbt.Current_Directory>
/home/itssahil/PROJECTS/Mol_Feturizer/Test_systems_manuscript/rnas/4kqy

>  <Rbt.Executable>
rbdock ($Id: //depot/dev/client3/rdock/2013.1/src/exe/rbdock.cxx#4 $)

>  <Rbt.Library>
libRbt.so (2013.1, Build901 2013/11/27)

>  <Rbt.Parameter_File>
/export/apps/rDock/src/rDock_2013.1_src/data/scripts/dock_solv.prm

>  <Rbt.Receptor>
prm/pocket_docking_2.prm

>  <SCORE>
-15.7217

>  <SCORE.INTER>
-14.0457

>  <SCORE.INTER.CONST>
1

>  <SCORE.INTER.POLAR>
0

>  <SCORE.INTER.ROT>
7

>  <SCORE.INTER.SOLV>
19.0978

>  <SCORE.INTER.VDW>
-23.9964

>  <SCORE.INTER.norm>
-0.52021

>  <SCORE.INTRA>
-1.67602

>  <SCORE.INTRA.DIHEDRAL>
-2.51055

>  <SCORE.INTRA.DIHEDRAL.0>
10.4103

>  <SCORE.INTRA.POLAR>
0

>  <SCORE.INTRA.POLAR.0>
0

>  <SCORE.INTRA.REPUL>
0

>  <SCORE.INTRA.REPUL.0>
0

>  <SCORE.INTRA.SOLV>
0.184076

>  <SCORE.INTRA.SOLV.lig_0>
-49.5008

>  <SCORE.INTRA.VDW>
-0.512776

>  <SCORE.INTRA.VDW.0>
-2.6946

>  <SCORE.INTRA.norm>
-0.0620746

>  <SCORE.RESTR>
0

>  <SCORE.RESTR.CAVITY>
0

>  <SCORE.RESTR.norm>
0

>  <SCORE.SYSTEM>
0

>  <SCORE.SYSTEM.CONST>
0

>  <SCORE.SYSTEM.DIHEDRAL>
0

>  <SCORE.SYSTEM.SOLV>
0

>  <SCORE.SYSTEM.norm>
0

>  <SCORE.heavy>
27

>  <SCORE.norm>
-0.582285

>  <RMSD>
1.094

$$$$
ligand
 OpenBabel02271912153D
libRbt.so/2013.1/901 2013/11/27
 27 29  0  0  0  0  0  0  0  0999 V2000
   -3.1520   -9.4703   17.8200 N   0  0  0  0  0  0  0  0  0  0  0  0
   -3.5908   -9.2324   16.4580 C   0  0  2  0  0  0  0  0  0  0  0  0
   -4.6928   -8.2197   16.5157 C   0  0  0  0  0  0  0  0  0  0  0  0
   -4.4036   -7.0037   16.5285 O   0  0  0  0  0  0  0  0  0  0  0  0
   -4.0955  -10.5312   15.8237 C   0  0  0  0  0  0  0  0  0  0  0  0
   -3.0027  -11.6232   15.8256 C   0  0  0  0  0  0  0  0  0  0  0  0
   -2.6585  -12.2998   17.3219 S   0  0  2  0  0  0  0  0  0  0  0  0
   -1.4979  -13.4743   17.1418 C   0  0  0  0  0  0  0  0  0  0  0  0
   -4.0655  -12.9484   17.9914 C   0  0  0  0  0  0  0  0  0  0  0  0
   -3.9629  -13.2485   19.5017 C   0  0  1  0  0  0  0  0  0  0  0  0
   -2.9620  -12.4615   20.1687 O   0  0  0  0  0  0  0  0  0  0  0  0
   -5.2180  -12.8879   20.2800 C   0  0  1  0  0  0  0  0  0  0  0  0
   -6.3558  -13.7633   20.1459 O   0  0  0  0  0  0  0  0  0  0  0  0
   -4.6631  -12.8189   21.6812 C   0  0  1  0  0  0  0  0  0  0  0  0
   -4.3691  -14.1293   22.1560 O   0  0  0  0  0  0  0  0  0  0  0  0
   -3.3763  -12.0744   21.4810 C   0  0  2  0  0  0  0  0  0  0  0  0
   -5.8854   -8.6078   16.5183 O   0  0  0  0  0  0  0  0  0  0  0  0
   -6.1923   -7.6453   20.6267 N   0  0  0  0  0  0  0  0  0  0  0  0
   -6.4665   -8.9175   20.2487 C   0  0  0  0  0  0  0  0  0  0  0  0
   -5.6542   -9.9505   20.5285 N   0  0  0  0  0  0  0  0  0  0  0  0
   -4.5223   -9.7910   21.2232 C   0  0  0  0  0  0  0  0  0  0  0  0
   -4.1835   -8.4506   21.6771 C   0  0  0  0  0  0  0  0  0  0  0  0
   -5.0759   -7.3148   21.3486 C   0  0  0  0  0  0  0  0  0  0  0  0
   -4.8048   -6.0222   21.7466 N   0  0  0  0  0  0  0  0  0  0  0  0
   -3.0524   -8.5717   22.3342 N   0  0  0  0  0  0  0  0  0  0  0  0
   -2.6671   -9.8549   22.3028 C   0  0  0  0  0  0  0  0  0  0  0  0
   -3.5515  -10.5981   21.6388 N   0  0  0  0  0  0  0  0  0  0  0  0
  2  1  1  1  0  0  0
  2  3  1  0  0  0  0
  2  5  1  0  0  0  0
  3  4  1  0  0  0  0
  3 17  1  0  0  0  0
  5  6  1  0  0  0  0
  7  6  1  6  0  0  0
  7  8  1  0  0  0  0
  7  9  1  0  0  0  0
 10  9  1  6  0  0  0
 10 11  1  0  0  0  0
 10 12  1  0  0  0  0
 11 16  1  0  0  0  0
 12 13  1  1  0  0  0
 12 14  1  0  0  0  0
 14 15  1  6  0  0  0
 14 16  1  0  0  0  0
 16 27  1  6  0  0  0
 18 19  2  0  0  0  0
 18 23  1  0  0  0  0
 19 20  1  0  0  0  0
 20 21  2  0  0  0  0
 21 22  1  0  0  0  0
 21 27  1  0  0  0  0
 22 23  2  0  0  0  0
 22 25  1  0  0  0  0
 23 24  1  0  0  0  0
 25 26  2  0  0  0  0
 26 27  1  0  0  0  0
M  END
>  <CHROM.1>
85.51998255,-58.23440310,72.47905410,178.58566209,-164.22850738,23.89902055
75.78884099,-4.15080570,-10.58573135,19.36456338,-2.91919453,-1.30974102
2.19193533

>  <Name>
ligand

>  <RI>
0

>  <Rbt.Current_Directory>
/home/itssahil/PROJECTS/Mol_Feturizer/Test_systems_manuscript/rnas/4kqy

>  <Rbt.Executable>
rbdock ($Id: //depot/dev/client3/rdock/2013.1/src/exe/rbdock.cxx#4 $)

>  <Rbt.Library>
libRbt.so (2013.1, Build901 2013/11/27)

>  <Rbt.Parameter_File>
/export/apps/rDock/src/rDock_2013.1_src/data/scripts/dock_solv.prm

>  <Rbt.Receptor>
prm/pocket_docking_2.prm

>  <SCORE>
-13.7596

>  <SCORE.INTER>
-13.8594

>  <SCORE.INTER.CONST>
1

>  <SCORE.INTER.POLAR>
0

>  <SCORE.INTER.ROT>
7

>  <SCORE.INTER.SOLV>
15.0777

>  <SCORE.INTER.VDW>
-22.5322

>  <SCORE.INTER.norm>
-0.513312

>  <SCORE.INTRA>
0.0453658

>  <SCORE.INTRA.DIHEDRAL>
-2.91198

>  <SCORE.INTRA.DIHEDRAL.0>
10.4103

>  <SCORE.INTRA.POLAR>
0

>  <SCORE.INTRA.POLAR.0>
0

>  <SCORE.INTRA.REPUL>
0

>  <SCORE.INTRA.REPUL.0>
0

>  <SCORE.INTRA.SOLV>
3.25788

>  <SCORE.INTRA.SOLV.lig_0>
-49.5008

>  <SCORE.INTRA.VDW>
-0.127584

>  <SCORE.INTRA.VDW.0>
-2.6946

>  <SCORE.INTRA.norm>
0.00168021

>  <SCORE.RESTR>
0.0544364

>  <SCORE.RESTR.CAVITY>
0.0544364

>  <SCORE.RESTR.norm>
0.00201616

>  <SCORE.SYSTEM>
0

>  <SCORE.SYSTEM.CONST>
0

>  <SCORE.SYSTEM.DIHEDRAL>
0

>  <SCORE.SYSTEM.SOLV>
0

>  <SCORE.SYSTEM.norm>
0

>  <SCORE.heavy>
27

>  <SCORE.norm>
-0.509616

>  <RMSD>
1.121

$$$$
ligand
 OpenBabel02271912153D
libRbt.so/2013.1/901 2013/11/27
 27 29  0  0  0  0  0  0  0  0999 V2000
   -1.8949  -10.5445   15.8495 N   0  0  0  0  0  0  0  0  0  0  0  0
   -2.7410  -10.5980   17.0265 C   0  0  2  0  0  0  0  0  0  0  0  0
   -3.0309   -9.1854   17.4312 C   0  0  0  0  0  0  0  0  0  0  0  0
   -4.2188   -8.8213   17.5668 O   0  0  0  0  0  0  0  0  0  0  0  0
   -2.0321  -11.3412   18.1620 C   0  0  0  0  0  0  0  0  0  0  0  0
   -1.7026  -12.7975   17.7654 C   0  0  0  0  0  0  0  0  0  0  0  0
   -3.0214  -13.7542   17.3645 S   0  0  2  0  0  0  0  0  0  0  0  0
   -3.2951  -13.6582   15.7291 C   0  0  0  0  0  0  0  0  0  0  0  0
   -4.3790  -13.2444   18.2280 C   0  0  0  0  0  0  0  0  0  0  0  0
   -4.2954  -13.5108   19.7459 C   0  0  1  0  0  0  0  0  0  0  0  0
   -3.2464  -12.7718   20.3935 O   0  0  0  0  0  0  0  0  0  0  0  0
   -5.5249  -13.0510   20.5125 C   0  0  1  0  0  0  0  0  0  0  0  0
   -6.7161  -13.8555   20.3996 O   0  0  0  0  0  0  0  0  0  0  0  0
   -4.9665  -12.9807   21.9123 C   0  0  1  0  0  0  0  0  0  0  0  0
   -4.7563  -14.2942   22.4216 O   0  0  0  0  0  0  0  0  0  0  0  0
   -3.6350  -12.3249   21.6946 C   0  0  2  0  0  0  0  0  0  0  0  0
   -2.0775   -8.4024   17.6575 O   0  0  0  0  0  0  0  0  0  0  0  0
   -6.1237   -7.7423   20.6543 N   0  0  0  0  0  0  0  0  0  0  0  0
   -6.4709   -9.0026   20.2969 C   0  0  0  0  0  0  0  0  0  0  0  0
   -5.7377  -10.0797   20.6248 N   0  0  0  0  0  0  0  0  0  0  0  0
   -4.6184   -9.9780   21.3502 C   0  0  0  0  0  0  0  0  0  0  0  0
   -4.2045   -8.6521   21.7838 C   0  0  0  0  0  0  0  0  0  0  0  0
   -5.0092   -7.4684   21.4024 C   0  0  0  0  0  0  0  0  0  0  0  0
   -4.6644   -6.1871   21.7792 N   0  0  0  0  0  0  0  0  0  0  0  0
   -3.1036   -8.8313   22.4780 N   0  0  0  0  0  0  0  0  0  0  0  0
   -2.8039  -10.1374   22.4874 C   0  0  0  0  0  0  0  0  0  0  0  0
   -3.7161  -10.8368   21.8135 N   0  0  0  0  0  0  0  0  0  0  0  0
  2  1  1  6  0  0  0
  2  3  1  0  0  0  0
  2  5  1  0  0  0  0
  3  4  1  0  0  0  0
  3 17  1  0  0  0  0
  5  6  1  0  0  0  0
  7  6  1  6  0  0  0
  7  8  1  0  0  0  0
  7  9  1  0  0  0  0
 10  9  1  6  0  0  0
 10 11  1  0  0  0  0
 10 12  1  0  0  0  0
 11 16  1  0  0  0  0
 12 13  1  1  0  0  0
 12 14  1  0  0  0  0
 14 15  1  6  0  0  0
 14 16  1  0  0  0  0
 16 27  1  6  0  0  0
 18 19  2  0  0  0  0
 18 23  1  0  0  0  0
 19 20  1  0  0  0  0
 20 21  2  0  0  0  0
 21 22  1  0  0  0  0
 21 27  1  0  0  0  0
 22 23  2  0  0  0  0
 22 25  1  0  0  0  0
 23 24  1  0  0  0  0
 25 26  2  0  0  0  0
 26 27  1  0  0  0  0
M  END
>  <CHROM.1>
125.72061856,-60.76578414,-59.81597624,91.35148504,-68.37645777,64.47122441
74.09702065,-3.94351259,-11.08516428,19.63582157,-0.95187323,1.12934953,0.12939751

>  <Name>
ligand

>  <RI>
0

>  <Rbt.Current_Directory>
/home/itssahil/PROJECTS/Mol_Feturizer/Test_systems_manuscript/rnas/4kqy

>  <Rbt.Executable>
rbdock ($Id: //depot/dev/client3/rdock/2013.1/src/exe/rbdock.cxx#4 $)

>  <Rbt.Library>
libRbt.so (2013.1, Build901 2013/11/27)

>  <Rbt.Parameter_File>
/export/apps/rDock/src/rDock_2013.1_src/data/scripts/dock_solv.prm

>  <Rbt.Receptor>
prm/pocket_docking_2.prm

>  <SCORE>
-18.9043

>  <SCORE.INTER>
-16.9388

>  <SCORE.INTER.CONST>
1

>  <SCORE.INTER.POLAR>
0

>  <SCORE.INTER.ROT>
7

>  <SCORE.INTER.SOLV>
15.3073

>  <SCORE.INTER.VDW>
-24.6616

>  <SCORE.INTER.norm>
-0.627361

>  <SCORE.INTRA>
-1.96553

>  <SCORE.INTRA.DIHEDRAL>
-4.91395

>  <SCORE.INTRA.DIHEDRAL.0>
10.4103

>  <SCORE.INTRA.POLAR>
0

>  <SCORE.INTRA.POLAR.0>
0

>  <SCORE.INTRA.REPUL>
0

>  <SCORE.INTRA.REPUL.0>
0

>  <SCORE.INTRA.SOLV>
2.1763

>  <SCORE.INTRA.SOLV.lig_0>
-49.5008

>  <SCORE.INTRA.VDW>
-0.596699

>  <SCORE.INTRA.VDW.0>
-2.6946

>  <SCORE.INTRA.norm>
-0.0727972

>  <SCORE.RESTR>
0

>  <SCORE.RESTR.CAVITY>
0

>  <SCORE.RESTR.norm>
0

>  <SCORE.SYSTEM>
0

>  <SCORE.SYSTEM.CONST>
0

>  <SCORE.SYSTEM.DIHEDRAL>
0

>  <SCORE.SYSTEM.SOLV>
0

>  <SCORE.SYSTEM.norm>
0

>  <SCORE.heavy>
27

>  <SCORE.norm>
-0.700158

>  <RMSD>
1.151

$$$$
ligand
 OpenBabel02271912153D
libRbt.so/2013.1/901 2013/11/27
 27 29  0  0  0  0  0  0  0  0999 V2000
   -2.8221   -9.5709   15.3524 N   0  0  0  0  0  0  0  0  0  0  0  0
   -2.4988   -9.8305   16.7425 C   0  0  2  0  0  0  0  0  0  0  0  0
   -2.2060   -8.5100   17.3856 C   0  0  0  0  0  0  0  0  0  0  0  0
   -2.2608   -7.4697   16.6950 O   0  0  0  0  0  0  0  0  0  0  0  0
   -1.2815  -10.7533   16.8455 C   0  0  0  0  0  0  0  0  0  0  0  0
   -1.4834  -12.0489   16.0286 C   0  0  0  0  0  0  0  0  0  0  0  0
   -2.3044  -13.2812   16.8175 S   0  0  2  0  0  0  0  0  0  0  0  0
   -2.8024  -14.4110   15.7065 C   0  0  0  0  0  0  0  0  0  0  0  0
   -3.6247  -12.6429   17.6530 C   0  0  0  0  0  0  0  0  0  0  0  0
   -3.6676  -13.0250   19.1476 C   0  0  1  0  0  0  0  0  0  0  0  0
   -2.7145  -12.3022   19.9444 O   0  0  0  0  0  0  0  0  0  0  0  0
   -4.9802  -12.6716   19.8281 C   0  0  1  0  0  0  0  0  0  0  0  0
   -6.1204  -13.5070   19.5439 O   0  0  0  0  0  0  0  0  0  0  0  0
   -4.5545  -12.6919   21.2753 C   0  0  1  0  0  0  0  0  0  0  0  0
   -4.3350  -14.0331   21.7018 O   0  0  0  0  0  0  0  0  0  0  0  0
   -3.2383  -11.9736   21.2333 C   0  0  2  0  0  0  0  0  0  0  0  0
   -1.9422   -8.4677   18.6111 O   0  0  0  0  0  0  0  0  0  0  0  0
   -6.1488   -7.5371   20.8832 N   0  0  0  0  0  0  0  0  0  0  0  0
   -6.4680   -8.7993   20.5071 C   0  0  0  0  0  0  0  0  0  0  0  0
   -5.6244   -9.8355   20.6483 N   0  0  0  0  0  0  0  0  0  0  0  0
   -4.4118   -9.6899   21.1940 C   0  0  0  0  0  0  0  0  0  0  0  0
   -4.0189   -8.3614   21.6388 C   0  0  0  0  0  0  0  0  0  0  0  0
   -4.9483   -7.2214   21.4627 C   0  0  0  0  0  0  0  0  0  0  0  0
   -4.6298   -5.9393   21.8597 N   0  0  0  0  0  0  0  0  0  0  0  0
   -2.8116   -8.4952   22.1391 N   0  0  0  0  0  0  0  0  0  0  0  0
   -2.4316   -9.7748   22.0203 C   0  0  0  0  0  0  0  0  0  0  0  0
   -3.3939  -10.5034   21.4557 N   0  0  0  0  0  0  0  0  0  0  0  0
  2  1  1  6  0  0  0
  2  3  1  0  0  0  0
  2  5  1  0  0  0  0
  3  4  1  0  0  0  0
  3 17  1  0  0  0  0
  5  6  1  0  0  0  0
  7  6  1  6  0  0  0
  7  8  1  0  0  0  0
  7  9  1  0  0  0  0
 10  9  1  6  0  0  0
 10 11  1  0  0  0  0
 10 12  1  0  0  0  0
 11 16  1  0  0  0  0
 12 13  1  1  0  0  0
 12 14  1  0  0  0  0
 14 15  1  6  0  0  0
 14 16  1  0  0  0  0
 16 27  1  6  0  0  0
 18 19  2  0  0  0  0
 18 23  1  0  0  0  0
 19 20  1  0  0  0  0
 20 21  2  0  0  0  0
 21 22  1  0  0  0  0
 21 27  1  0  0  0  0
 22 23  2  0  0  0  0
 22 25  1  0  0  0  0
 23 24  1  0  0  0  0
 25 26  2  0  0  0  0
 26 27  1  0  0  0  0
M  END
>  <CHROM.1>
-0.76713543,-53.89851879,-85.04545539,164.52024633,-126.66149667,75.18230368
88.68295658,-3.53622240,-10.68535497,19.24355155,-0.89851530,1.08676432,0.17278035

>  <Name>
ligand

>  <RI>
0

>  <Rbt.Current_Directory>
/home/itssahil/PROJECTS/Mol_Feturizer/Test_systems_manuscript/rnas/4kqy

>  <Rbt.Executable>
rbdock ($Id: //depot/dev/client3/rdock/2013.1/src/exe/rbdock.cxx#4 $)

>  <Rbt.Library>
libRbt.so (2013.1, Build901 2013/11/27)

>  <Rbt.Parameter_File>
/export/apps/rDock/src/rDock_2013.1_src/data/scripts/dock_solv.prm

>  <Rbt.Receptor>
prm/pocket_docking_2.prm

>  <SCORE>
-15.0824

>  <SCORE.INTER>
-15.7957

>  <SCORE.INTER.CONST>
1

>  <SCORE.INTER.POLAR>
0

>  <SCORE.INTER.ROT>
7

>  <SCORE.INTER.SOLV>
16.1236

>  <SCORE.INTER.VDW>
-24.1717

>  <SCORE.INTER.norm>
-0.585025

>  <SCORE.INTRA>
0.673989

>  <SCORE.INTRA.DIHEDRAL>
0.785915

>  <SCORE.INTRA.DIHEDRAL.0>
10.4103

>  <SCORE.INTRA.POLAR>
0

>  <SCORE.INTRA.POLAR.0>
0

>  <SCORE.INTRA.REPUL>
0

>  <SCORE.INTRA.REPUL.0>
0

>  <SCORE.INTRA.SOLV>
1.20568

>  <SCORE.INTRA.SOLV.lig_0>
-49.5008

>  <SCORE.INTRA.VDW>
-0.32181

>  <SCORE.INTRA.VDW.0>
-2.6946

>  <SCORE.INTRA.norm>
0.0249626

>  <SCORE.RESTR>
0.0392448

>  <SCORE.RESTR.CAVITY>
0.0392448

>  <SCORE.RESTR.norm>
0.00145351

>  <SCORE.SYSTEM>
0

>  <SCORE.SYSTEM.CONST>
0

>  <SCORE.SYSTEM.DIHEDRAL>
0

>  <SCORE.SYSTEM.SOLV>
0

>  <SCORE.SYSTEM.norm>
0

>  <SCORE.heavy>
27

>  <SCORE.norm>
-0.558609

>  <RMSD>
1.155

$$$$
ligand
 OpenBabel02271912153D
libRbt.so/2013.1/901 2013/11/27
 27 29  0  0  0  0  0  0  0  0999 V2000
   -4.2759   -9.5827   15.8702 N   0  0  0  0  0  0  0  0  0  0  0  0
   -2.9958   -9.6052   16.5522 C   0  0  2  0  0  0  0  0  0  0  0  0
   -2.5706   -8.1825   16.7482 C   0  0  0  0  0  0  0  0  0  0  0  0
   -2.2113   -7.8042   17.8840 O   0  0  0  0  0  0  0  0  0  0  0  0
   -1.9578  -10.3598   15.7173 C   0  0  0  0  0  0  0  0  0  0  0  0
   -2.1528  -11.8889   15.8202 C   0  0  0  0  0  0  0  0  0  0  0  0
   -2.1276  -12.5185   17.3752 S   0  0  2  0  0  0  0  0  0  0  0  0
   -1.4032  -14.0129   17.3531 C   0  0  0  0  0  0  0  0  0  0  0  0
   -3.7027  -12.6272   17.9717 C   0  0  0  0  0  0  0  0  0  0  0  0
   -3.7847  -13.0029   19.4664 C   0  0  1  0  0  0  0  0  0  0  0  0
   -2.9058  -12.2238   20.2950 O   0  0  0  0  0  0  0  0  0  0  0  0
   -5.1412  -12.7191   20.0912 C   0  0  1  0  0  0  0  0  0  0  0  0
   -6.2211  -13.6182   19.7682 O   0  0  0  0  0  0  0  0  0  0  0  0
   -4.7737  -12.7077   21.5544 C   0  0  1  0  0  0  0  0  0  0  0  0
   -4.4977  -14.0323   21.9997 O   0  0  0  0  0  0  0  0  0  0  0  0
   -3.4985  -11.9176   21.5593 C   0  0  2  0  0  0  0  0  0  0  0  0
   -2.5522   -7.4048   15.7642 O   0  0  0  0  0  0  0  0  0  0  0  0
   -6.0891   -7.4519   20.2857 N   0  0  0  0  0  0  0  0  0  0  0  0
   -6.2232   -8.6952   19.7632 C   0  0  0  0  0  0  0  0  0  0  0  0
   -5.4905   -9.7418   20.1793 N   0  0  0  0  0  0  0  0  0  0  0  0
   -4.5879   -9.6270   21.1599 C   0  0  0  0  0  0  0  0  0  0  0  0
   -4.4135   -8.3208   21.7770 C   0  0  0  0  0  0  0  0  0  0  0  0
   -5.2127   -7.1686   21.2998 C   0  0  0  0  0  0  0  0  0  0  0  0
   -5.0876   -5.9064   21.8420 N   0  0  0  0  0  0  0  0  0  0  0  0
   -3.4952   -8.4832   22.7024 N   0  0  0  0  0  0  0  0  0  0  0  0
   -3.0855   -9.7591   22.6884 C   0  0  0  0  0  0  0  0  0  0  0  0
   -3.7439  -10.4571   21.7639 N   0  0  0  0  0  0  0  0  0  0  0  0
  2  1  1  6  0  0  0
  2  3  1  0  0  0  0
  2  5  1  0  0  0  0
  3  4  1  0  0  0  0
  3 17  1  0  0  0  0
  5  6  1  0  0  0  0
  7  6  1  6  0  0  0
  7  8  1  0  0  0  0
  7  9  1  0  0  0  0
 10  9  1  6  0  0  0
 10 11  1  0  0  0  0
 10 12  1  0  0  0  0
 11 16  1  0  0  0  0
 12 13  1  1  0  0  0
 12 14  1  0  0  0  0
 14 15  1  6  0  0  0
 14 16  1  0  0  0  0
 16 27  1  6  0  0  0
 18 19  2  0  0  0  0
 18 23  1  0  0  0  0
 19 20  1  0  0  0  0
 20 21  2  0  0  0  0
 21 22  1  0  0  0  0
 21 27  1  0  0  0  0
 22 23  2  0  0  0  0
 22 25  1  0  0  0  0
 23 24  1  0  0  0  0
 25 26  2  0  0  0  0
 26 27  1  0  0  0  0
M  END
>  <CHROM.1>
129.58983184,-77.23443921,-56.11778504,-144.33739852,-171.67750777,47.93407562
67.62488397,-3.75065510,-10.52253338,19.30444565,-0.32399242,1.16052713,-0.22712114

>  <Name>
ligand

>  <RI>
0

>  <Rbt.Current_Directory>
/home/itssahil/PROJECTS/Mol_Feturizer/Test_systems_manuscript/rnas/4kqy

>  <Rbt.Executable>
rbdock ($Id: //depot/dev/client3/rdock/2013.1/src/exe/rbdock.cxx#4 $)

>  <Rbt.Library>
libRbt.so (2013.1, Build901 2013/11/27)

>  <Rbt.Parameter_File>
/export/apps/rDock/src/rDock_2013.1_src/data/scripts/dock_solv.prm

>  <Rbt.Receptor>
prm/pocket_docking_3.prm

>  <SCORE>
-16.8588

>  <SCORE.INTER>
-15.0881

>  <SCORE.INTER.CONST>
1

>  <SCORE.INTER.POLAR>
0

>  <SCORE.INTER.ROT>
7

>  <SCORE.INTER.SOLV>
16.4894

>  <SCORE.INTER.VDW>
-23.8219

>  <SCORE.INTER.norm>
-0.558819

>  <SCORE.INTRA>
-1.77063

>  <SCORE.INTRA.DIHEDRAL>
-2.88241

>  <SCORE.INTRA.DIHEDRAL.0>
10.4103

>  <SCORE.INTRA.POLAR>
0

>  <SCORE.INTRA.POLAR.0>
0

>  <SCORE.INTRA.REPUL>
0

>  <SCORE.INTRA.REPUL.0>
0

>  <SCORE.INTRA.SOLV>
1.16473

>  <SCORE.INTRA.SOLV.lig_0>
-49.5008

>  <SCORE.INTRA.VDW>
-0.911791

>  <SCORE.INTRA.VDW.0>
-2.6946

>  <SCORE.INTRA.norm>
-0.065579

>  <SCORE.RESTR>
0

>  <SCORE.RESTR.CAVITY>
0

>  <SCORE.RESTR.norm>
0

>  <SCORE.SYSTEM>
0

>  <SCORE.SYSTEM.CONST>
0

>  <SCORE.SYSTEM.DIHEDRAL>
0

>  <SCORE.SYSTEM.SOLV>
0

>  <SCORE.SYSTEM.norm>
0

>  <SCORE.heavy>
27

>  <SCORE.norm>
-0.624398

>  <RMSD>
1.160

$$$$
ligand
 OpenBabel02271912153D
libRbt.so/2013.1/901 2013/11/27
 27 29  0  0  0  0  0  0  0  0999 V2000
   -4.5119   -9.0500   16.6055 N   0  0  0  0  0  0  0  0  0  0  0  0
   -3.1971   -9.5393   16.9745 C   0  0  2  0  0  0  0  0  0  0  0  0
   -2.3864   -8.3561   17.4057 C   0  0  0  0  0  0  0  0  0  0  0  0
   -2.3525   -7.3416   16.6764 O   0  0  0  0  0  0  0  0  0  0  0  0
   -2.5312  -10.2344   15.7839 C   0  0  0  0  0  0  0  0  0  0  0  0
   -3.1750  -11.6095   15.4995 C   0  0  0  0  0  0  0  0  0  0  0  0
   -3.0311  -12.7437   16.7276 S   0  0  2  0  0  0  0  0  0  0  0  0
   -2.8524  -14.2555   16.0634 C   0  0  0  0  0  0  0  0  0  0  0  0
   -4.3948  -12.6851   17.7203 C   0  0  0  0  0  0  0  0  0  0  0  0
   -4.1211  -13.0744   19.1884 C   0  0  1  0  0  0  0  0  0  0  0  0
   -3.0773  -12.2950   19.7957 O   0  0  0  0  0  0  0  0  0  0  0  0
   -5.2948  -12.8080   20.1171 C   0  0  1  0  0  0  0  0  0  0  0  0
   -6.4146  -13.7135   20.0471 O   0  0  0  0  0  0  0  0  0  0  0  0
   -4.5941  -12.8061   21.4532 C   0  0  1  0  0  0  0  0  0  0  0  0
   -4.2128  -14.1321   21.8073 O   0  0  0  0  0  0  0  0  0  0  0  0
   -3.3586  -12.0050   21.1670 C   0  0  2  0  0  0  0  0  0  0  0  0
   -1.7821   -8.3918   18.5042 O   0  0  0  0  0  0  0  0  0  0  0  0
   -6.1186   -7.5157   20.4572 N   0  0  0  0  0  0  0  0  0  0  0  0
   -6.3479   -8.7489   19.9442 C   0  0  0  0  0  0  0  0  0  0  0  0
   -5.5566   -9.8033   20.2039 N   0  0  0  0  0  0  0  0  0  0  0  0
   -4.4935   -9.7070   21.0101 C   0  0  0  0  0  0  0  0  0  0  0  0
   -4.2073   -8.4127   21.6102 C   0  0  0  0  0  0  0  0  0  0  0  0
   -5.0747   -7.2516   21.3041 C   0  0  0  0  0  0  0  0  0  0  0  0
   -4.8505   -5.9998   21.8385 N   0  0  0  0  0  0  0  0  0  0  0  0
   -3.1396   -8.5927   22.3542 N   0  0  0  0  0  0  0  0  0  0  0  0
   -2.7435   -9.8681   22.2440 C   0  0  0  0  0  0  0  0  0  0  0  0
   -3.5584  -10.5486   21.4388 N   0  0  0  0  0  0  0  0  0  0  0  0
  2  1  1  6  0  0  0
  2  3  1  0  0  0  0
  2  5  1  0  0  0  0
  3  4  1  0  0  0  0
  3 17  1  0  0  0  0
  5  6  1  0  0  0  0
  7  6  1  6  0  0  0
  7  8  1  0  0  0  0
  7  9  1  0  0  0  0
 10  9  1  6  0  0  0
 10 11  1  0  0  0  0
 10 12  1  0  0  0  0
 11 16  1  0  0  0  0
 12 13  1  1  0  0  0
 12 14  1  0  0  0  0
 14 15  1  6  0  0  0
 14 16  1  0  0  0  0
 16 27  1  6  0  0  0
 18 19  2  0  0  0  0
 18 23  1  0  0  0  0
 19 20  1  0  0  0  0
 20 21  2  0  0  0  0
 21 22  1  0  0  0  0
 21 27  1  0  0  0  0
 22 23  2  0  0  0  0
 22 25  1  0  0  0  0
 23 24  1  0  0  0  0
 25 26  2  0  0  0  0
 26 27  1  0  0  0  0
M  END
>  <CHROM.1>
-49.36563154,-73.18504978,-62.87475215,-144.84990293,-149.99715470,55.12661890
64.21952816,-3.91089220,-10.59380544,19.23017563,-1.05228757,1.23600374,0.20055277

>  <Name>
ligand

>  <RI>
0

>  <Rbt.Current_Directory>
/home/itssahil/PROJECTS/Mol_Feturizer/Test_systems_manuscript/rnas/4kqy

>  <Rbt.Executable>
rbdock ($Id: //depot/dev/client3/rdock/2013.1/src/exe/rbdock.cxx#4 $)

>  <Rbt.Library>
libRbt.so (2013.1, Build901 2013/11/27)

>  <Rbt.Parameter_File>
/export/apps/rDock/src/rDock_2013.1_src/data/scripts/dock_solv.prm

>  <Rbt.Receptor>
prm/pocket_docking_2.prm

>  <SCORE>
-14.8202

>  <SCORE.INTER>
-12.8423

>  <SCORE.INTER.CONST>
1

>  <SCORE.INTER.POLAR>
0

>  <SCORE.INTER.ROT>
7

>  <SCORE.INTER.SOLV>
15.2209

>  <SCORE.INTER.VDW>
-21.9018

>  <SCORE.INTER.norm>
-0.47564

>  <SCORE.INTRA>
-1.99983

>  <SCORE.INTRA.DIHEDRAL>
-1.62301

>  <SCORE.INTRA.DIHEDRAL.0>
10.4103

>  <SCORE.INTRA.POLAR>
0

>  <SCORE.INTRA.POLAR.0>
0

>  <SCORE.INTRA.REPUL>
0

>  <SCORE.INTRA.REPUL.0>
0

>  <SCORE.INTRA.SOLV>
1.36492

>  <SCORE.INTRA.SOLV.lig_0>
-49.5008

>  <SCORE.INTRA.VDW>
-1.87078

>  <SCORE.INTRA.VDW.0>
-2.6946

>  <SCORE.INTRA.norm>
-0.0740677

>  <SCORE.RESTR>
0.0218762

>  <SCORE.RESTR.CAVITY>
0.0218762

>  <SCORE.RESTR.norm>
0.000810229

>  <SCORE.SYSTEM>
0

>  <SCORE.SYSTEM.CONST>
0

>  <SCORE.SYSTEM.DIHEDRAL>
0

>  <SCORE.SYSTEM.SOLV>
0

>  <SCORE.SYSTEM.norm>
0

>  <SCORE.heavy>
27

>  <SCORE.norm>
-0.548898

>  <RMSD>
1.170

$$$$
ligand
 OpenBabel02271912153D
libRbt.so/2013.1/901 2013/11/27
 27 29  0  0  0  0  0  0  0  0999 V2000
   -2.1086   -9.6164   14.9889 N   0  0  0  0  0  0  0  0  0  0  0  0
   -2.2299  -10.4034   16.2014 C   0  0  2  0  0  0  0  0  0  0  0  0
   -2.7299   -9.4894   17.2773 C   0  0  0  0  0  0  0  0  0  0  0  0
   -3.9347   -9.5366   17.6066 O   0  0  0  0  0  0  0  0  0  0  0  0
   -0.8730  -10.9940   16.5940 C   0  0  0  0  0  0  0  0  0  0  0  0
   -0.9987  -11.9416   17.8076 C   0  0  0  0  0  0  0  0  0  0  0  0
   -1.9955  -13.2729   17.5860 S   0  0  2  0  0  0  0  0  0  0  0  0
   -1.9684  -13.7216   15.9870 C   0  0  0  0  0  0  0  0  0  0  0  0
   -3.5667  -12.8962   18.0739 C   0  0  0  0  0  0  0  0  0  0  0  0
   -3.8528  -13.1970   19.5603 C   0  0  1  0  0  0  0  0  0  0  0  0
   -2.9797  -12.4924   20.4587 O   0  0  0  0  0  0  0  0  0  0  0  0
   -5.2239  -12.7304   20.0221 C   0  0  1  0  0  0  0  0  0  0  0  0
   -6.3640  -13.5093   19.6070 O   0  0  0  0  0  0  0  0  0  0  0  0
   -5.0162  -12.7010   21.5162 C   0  0  1  0  0  0  0  0  0  0  0  0
   -4.9518  -14.0291   22.0271 O   0  0  0  0  0  0  0  0  0  0  0  0
   -3.6627  -12.0664   21.6401 C   0  0  2  0  0  0  0  0  0  0  0  0
   -1.9257   -8.7159   17.8503 O   0  0  0  0  0  0  0  0  0  0  0  0
   -6.1317   -7.4760   20.5871 N   0  0  0  0  0  0  0  0  0  0  0  0
   -6.4667   -8.7326   20.2058 C   0  0  0  0  0  0  0  0  0  0  0  0
   -5.7404   -9.8122   20.5407 N   0  0  0  0  0  0  0  0  0  0  0  0
   -4.6411   -9.7172   21.2970 C   0  0  0  0  0  0  0  0  0  0  0  0
   -4.2417   -8.3958   21.7571 C   0  0  0  0  0  0  0  0  0  0  0  0
   -5.0382   -7.2091   21.3681 C   0  0  0  0  0  0  0  0  0  0  0  0
   -4.7062   -5.9317   21.7690 N   0  0  0  0  0  0  0  0  0  0  0  0
   -3.1594   -8.5813   22.4784 N   0  0  0  0  0  0  0  0  0  0  0  0
   -2.8575   -9.8870   22.4806 C   0  0  0  0  0  0  0  0  0  0  0  0
   -3.7498  -10.5799   21.7742 N   0  0  0  0  0  0  0  0  0  0  0  0
  2  1  1  6  0  0  0
  2  3  1  0  0  0  0
  2  5  1  0  0  0  0
  3  4  1  0  0  0  0
  3 17  1  0  0  0  0
  5  6  1  0  0  0  0
  7  6  1  6  0  0  0
  7  8  1  0  0  0  0
  7  9  1  0  0  0  0
 10  9  1  6  0  0  0
 10 11  1  0  0  0  0
 10 12  1  0  0  0  0
 11 16  1  0  0  0  0
 12 13  1  1  0  0  0
 12 14  1  0  0  0  0
 14 15  1  6  0  0  0
 14 16  1  0  0  0  0
 16 27  1  6  0  0  0
 18 19  2  0  0  0  0
 18 23  1  0  0  0  0
 19 20  1  0  0  0  0
 20 21  2  0  0  0  0
 21 22  1  0  0  0  0
 21 27  1  0  0  0  0
 22 23  2  0  0  0  0
 22 25  1  0  0  0  0
 23 24  1  0  0  0  0
 25 26  2  0  0  0  0
 26 27  1  0  0  0  0
M  END
>  <CHROM.1>
102.20934078,-174.77552415,60.60804236,30.27536297,-89.99147986,58.71216568
86.47564360,-3.64530949,-10.84204732,19.45271277,-0.58582278,1.03179588,-0.00172051

>  <Name>
ligand

>  <RI>
0

>  <Rbt.Current_Directory>
/home/itssahil/PROJECTS/Mol_Feturizer/Test_systems_manuscript/rnas/4kqy

>  <Rbt.Executable>
rbdock ($Id: //depot/dev/client3/rdock/2013.1/src/exe/rbdock.cxx#4 $)

>  <Rbt.Library>
libRbt.so (2013.1, Build901 2013/11/27)

>  <Rbt.Parameter_File>
/export/apps/rDock/src/rDock_2013.1_src/data/scripts/dock_solv.prm

>  <Rbt.Receptor>
prm/pocket_docking_2.prm

>  <SCORE>
-17.3831

>  <SCORE.INTER>
-16.3603

>  <SCORE.INTER.CONST>
1

>  <SCORE.INTER.POLAR>
0

>  <SCORE.INTER.ROT>
7

>  <SCORE.INTER.SOLV>
16.5726

>  <SCORE.INTER.VDW>
-24.6977

>  <SCORE.INTER.norm>
-0.605937

>  <SCORE.INTRA>
-1.03058

>  <SCORE.INTRA.DIHEDRAL>
-2.59112

>  <SCORE.INTRA.DIHEDRAL.0>
10.4103

>  <SCORE.INTRA.POLAR>
0

>  <SCORE.INTRA.POLAR.0>
0

>  <SCORE.INTRA.REPUL>
0

>  <SCORE.INTRA.REPUL.0>
0

>  <SCORE.INTRA.SOLV>
-0.0130388

>  <SCORE.INTRA.SOLV.lig_0>
-49.5008

>  <SCORE.INTRA.VDW>
0.271504

>  <SCORE.INTRA.VDW.0>
-2.6946

>  <SCORE.INTRA.norm>
-0.0381695

>  <SCORE.RESTR>
0.00773243

>  <SCORE.RESTR.CAVITY>
0.00773243

>  <SCORE.RESTR.norm>
0.000286386

>  <SCORE.SYSTEM>
0

>  <SCORE.SYSTEM.CONST>
0

>  <SCORE.SYSTEM.DIHEDRAL>
0

>  <SCORE.SYSTEM.SOLV>
0

>  <SCORE.SYSTEM.norm>
0

>  <SCORE.heavy>
27

>  <SCORE.norm>
-0.64382

>  <RMSD>
1.207

$$$$
ligand
 OpenBabel02271912153D
libRbt.so/2013.1/901 2013/11/27
 27 29  0  0  0  0  0  0  0  0999 V2000
   -4.4512   -8.3593   16.7671 N   0  0  0  0  0  0  0  0  0  0  0  0
   -3.0525   -8.7438   16.7704 C   0  0  2  0  0  0  0  0  0  0  0  0
   -2.3739   -7.9646   15.6862 C   0  0  0  0  0  0  0  0  0  0  0  0
   -1.9288   -8.5699   14.6873 O   0  0  0  0  0  0  0  0  0  0  0  0
   -2.9099  -10.2465   16.5138 C   0  0  0  0  0  0  0  0  0  0  0  0
   -3.7542  -11.0726   17.5093 C   0  0  0  0  0  0  0  0  0  0  0  0
   -3.7985  -12.7253   17.2231 S   0  0  2  0  0  0  0  0  0  0  0  0
   -4.0769  -12.9978   15.6085 C   0  0  0  0  0  0  0  0  0  0  0  0
   -5.0057  -13.4349   18.1653 C   0  0  0  0  0  0  0  0  0  0  0  0
   -4.5894  -13.6968   19.6281 C   0  0  1  0  0  0  0  0  0  0  0  0
   -3.5045  -12.8619   20.0661 O   0  0  0  0  0  0  0  0  0  0  0  0
   -5.6741  -13.3604   20.6386 C   0  0  1  0  0  0  0  0  0  0  0  0
   -6.7822  -14.2759   20.7514 O   0  0  0  0  0  0  0  0  0  0  0  0
   -4.8508  -13.2408   21.8972 C   0  0  1  0  0  0  0  0  0  0  0  0
   -4.4186  -14.5295   22.3231 O   0  0  0  0  0  0  0  0  0  0  0  0
   -3.6595  -12.4588   21.4289 C   0  0  2  0  0  0  0  0  0  0  0  0
   -2.2920   -6.7169   15.7843 O   0  0  0  0  0  0  0  0  0  0  0  0
   -6.2967   -7.9919   20.2593 N   0  0  0  0  0  0  0  0  0  0  0  0
   -6.5111   -9.2523   19.8099 C   0  0  0  0  0  0  0  0  0  0  0  0
   -5.7550  -10.2971   20.1867 N   0  0  0  0  0  0  0  0  0  0  0  0
   -4.7458  -10.1624   21.0542 C   0  0  0  0  0  0  0  0  0  0  0  0
   -4.4795   -8.8362   21.5904 C   0  0  0  0  0  0  0  0  0  0  0  0
   -5.3067   -7.6868   21.1557 C   0  0  0  0  0  0  0  0  0  0  0  0
   -5.0986   -6.4064   21.6249 N   0  0  0  0  0  0  0  0  0  0  0  0
   -3.4658   -8.9810   22.4135 N   0  0  0  0  0  0  0  0  0  0  0  0
   -3.0832  -10.2653   22.4094 C   0  0  0  0  0  0  0  0  0  0  0  0
   -3.8541  -10.9859   21.5957 N   0  0  0  0  0  0  0  0  0  0  0  0
  2  1  1  6  0  0  0
  2  3  1  0  0  0  0
  2  5  1  0  0  0  0
  3  4  1  0  0  0  0
  3 17  1  0  0  0  0
  5  6  1  0  0  0  0
  7  6  1  6  0  0  0
  7  8  1  0  0  0  0
  7  9  1  0  0  0  0
 10  9  1  6  0  0  0
 10 11  1  0  0  0  0
 10 12  1  0  0  0  0
 11 16  1  0  0  0  0
 12 13  1  1  0  0  0
 12 14  1  0  0  0  0
 14 15  1  6  0  0  0
 14 16  1  0  0  0  0
 16 27  1  6  0  0  0
 18 19  2  0  0  0  0
 18 23  1  0  0  0  0
 19 20  1  0  0  0  0
 20 21  2  0  0  0  0
 21 22  1  0  0  0  0
 21 27  1  0  0  0  0
 22 23  2  0  0  0  0
 22 25  1  0  0  0  0
 23 24  1  0  0  0  0
 25 26  2  0  0  0  0
 26 27  1  0  0  0  0
M  END
>  <CHROM.1>
-112.93284524,-54.06590652,173.98883263,-46.09771558,-80.67369890,22.67221209
54.81047829,-4.24495211,-10.74881533,19.22706522,0.43383893,1.26775240,0.26535770

>  <Name>
ligand

>  <RI>
0

>  <Rbt.Current_Directory>
/home/itssahil/PROJECTS/Mol_Feturizer/Test_systems_manuscript/rnas/4kqy

>  <Rbt.Executable>
rbdock ($Id: //depot/dev/client3/rdock/2013.1/src/exe/rbdock.cxx#4 $)

>  <Rbt.Library>
libRbt.so (2013.1, Build901 2013/11/27)

>  <Rbt.Parameter_File>
/export/apps/rDock/src/rDock_2013.1_src/data/scripts/dock_solv.prm

>  <Rbt.Receptor>
prm/pocket_docking_2.prm

>  <SCORE>
-15.5792

>  <SCORE.INTER>
-15.3625

>  <SCORE.INTER.CONST>
1

>  <SCORE.INTER.POLAR>
0

>  <SCORE.INTER.ROT>
7

>  <SCORE.INTER.SOLV>
16.1854

>  <SCORE.INTER.VDW>
-23.9034

>  <SCORE.INTER.norm>
-0.56898

>  <SCORE.INTRA>
-0.216706

>  <SCORE.INTRA.DIHEDRAL>
-2.06345

>  <SCORE.INTRA.DIHEDRAL.0>
10.4103

>  <SCORE.INTRA.POLAR>
0

>  <SCORE.INTRA.POLAR.0>
0

>  <SCORE.INTRA.REPUL>
0

>  <SCORE.INTRA.REPUL.0>
0

>  <SCORE.INTRA.SOLV>
0.49373

>  <SCORE.INTRA.SOLV.lig_0>
-49.5008

>  <SCORE.INTRA.VDW>
0.568154

>  <SCORE.INTRA.VDW.0>
-2.6946

>  <SCORE.INTRA.norm>
-0.00802616

>  <SCORE.RESTR>
0

>  <SCORE.RESTR.CAVITY>
0

>  <SCORE.RESTR.norm>
0

>  <SCORE.SYSTEM>
0

>  <SCORE.SYSTEM.CONST>
0

>  <SCORE.SYSTEM.DIHEDRAL>
0

>  <SCORE.SYSTEM.SOLV>
0

>  <SCORE.SYSTEM.norm>
0

>  <SCORE.heavy>
27

>  <SCORE.norm>
-0.577006

>  <RMSD>
1.216

$$$$
ligand
 OpenBabel02271912153D
libRbt.so/2013.1/901 2013/11/27
 27 29  0  0  0  0  0  0  0  0999 V2000
   -2.1022   -8.5292   16.7341 N   0  0  0  0  0  0  0  0  0  0  0  0
   -2.3756   -9.9533   16.7686 C   0  0  2  0  0  0  0  0  0  0  0  0
   -3.7975  -10.1444   16.3385 C   0  0  0  0  0  0  0  0  0  0  0  0
   -4.0639  -11.0146   15.4818 O   0  0  0  0  0  0  0  0  0  0  0  0
   -2.1696  -10.5038   18.1823 C   0  0  0  0  0  0  0  0  0  0  0  0
   -1.4005  -11.8434   18.1609 C   0  0  0  0  0  0  0  0  0  0  0  0
   -2.2955  -13.1842   17.6954 S   0  0  2  0  0  0  0  0  0  0  0  0
   -2.3071  -13.2908   16.0380 C   0  0  0  0  0  0  0  0  0  0  0  0
   -3.8674  -13.0570   18.2967 C   0  0  0  0  0  0  0  0  0  0  0  0
   -3.9824  -13.3092   19.8149 C   0  0  1  0  0  0  0  0  0  0  0  0
   -3.0577  -12.5283   20.5902 O   0  0  0  0  0  0  0  0  0  0  0  0
   -5.3201  -12.8883   20.4016 C   0  0  1  0  0  0  0  0  0  0  0  0
   -6.4561  -13.7359   20.1375 O   0  0  0  0  0  0  0  0  0  0  0  0
   -4.9605  -12.7878   21.8634 C   0  0  1  0  0  0  0  0  0  0  0  0
   -4.7764  -14.0892   22.4124 O   0  0  0  0  0  0  0  0  0  0  0  0
   -3.6353  -12.0862   21.8208 C   0  0  2  0  0  0  0  0  0  0  0  0
   -4.6987   -9.4507   16.8675 O   0  0  0  0  0  0  0  0  0  0  0  0
   -6.1847   -7.6157   20.4824 N   0  0  0  0  0  0  0  0  0  0  0  0
   -6.4486   -8.8924   20.1124 C   0  0  0  0  0  0  0  0  0  0  0  0
   -5.7098   -9.9364   20.5241 N   0  0  0  0  0  0  0  0  0  0  0  0
   -4.6692   -9.7833   21.3504 C   0  0  0  0  0  0  0  0  0  0  0  0
   -4.3486   -8.4375   21.8017 C   0  0  0  0  0  0  0  0  0  0  0  0
   -5.1575   -7.2904   21.3285 C   0  0  0  0  0  0  0  0  0  0  0  0
   -4.8986   -5.9924   21.7173 N   0  0  0  0  0  0  0  0  0  0  0  0
   -3.3127   -8.5660   22.5994 N   0  0  0  0  0  0  0  0  0  0  0  0
   -2.9663   -9.8593   22.6564 C   0  0  0  0  0  0  0  0  0  0  0  0
   -3.7833  -10.6012   21.9096 N   0  0  0  0  0  0  0  0  0  0  0  0
  2  1  1  1  0  0  0
  2  3  1  0  0  0  0
  2  5  1  0  0  0  0
  3  4  1  0  0  0  0
  3 17  1  0  0  0  0
  5  6  1  0  0  0  0
  7  6  1  6  0  0  0
  7  8  1  0  0  0  0
  7  9  1  0  0  0  0
 10  9  1  6  0  0  0
 10 11  1  0  0  0  0
 10 12  1  0  0  0  0
 11 16  1  0  0  0  0
 12 13  1  1  0  0  0
 12 14  1  0  0  0  0
 14 15  1  6  0  0  0
 14 16  1  0  0  0  0
 16 27  1  6  0  0  0
 18 19  2  0  0  0  0
 18 23  1  0  0  0  0
 19 20  1  0  0  0  0
 20 21  2  0  0  0  0
 21 22  1  0  0  0  0
 21 27  1  0  0  0  0
 22 23  2  0  0  0  0
 22 25  1  0  0  0  0
 23 24  1  0  0  0  0
 25 26  2  0  0  0  0
 26 27  1  0  0  0  0
M  END
>  <CHROM.1>
132.44232329,-136.19714320,-76.32932824,84.80290693,-73.77309710,51.14323377
76.49509143,-3.94081414,-10.90715763,19.55571964,-0.36239753,1.21522452,-0.27288303

>  <Name>
ligand

>  <RI>
0

>  <Rbt.Current_Directory>
/home/itssahil/PROJECTS/Mol_Feturizer/Test_systems_manuscript/rnas/4kqy

>  <Rbt.Executable>
rbdock ($Id: //depot/dev/client3/rdock/2013.1/src/exe/rbdock.cxx#4 $)

>  <Rbt.Library>
libRbt.so (2013.1, Build901 2013/11/27)

>  <Rbt.Parameter_File>
/export/apps/rDock/src/rDock_2013.1_src/data/scripts/dock_solv.prm

>  <Rbt.Receptor>
prm/pocket_docking_2.prm

>  <SCORE>
-15.5694

>  <SCORE.INTER>
-14.4596

>  <SCORE.INTER.CONST>
1

>  <SCORE.INTER.POLAR>
0

>  <SCORE.INTER.ROT>
7

>  <SCORE.INTER.SOLV>
18.4768

>  <SCORE.INTER.VDW>
-24.0653

>  <SCORE.INTER.norm>
-0.535542

>  <SCORE.INTRA>
-1.10977

>  <SCORE.INTRA.DIHEDRAL>
0.658133

>  <SCORE.INTRA.DIHEDRAL.0>
10.4103

>  <SCORE.INTRA.POLAR>
0

>  <SCORE.INTRA.POLAR.0>
0

>  <SCORE.INTRA.REPUL>
0

>  <SCORE.INTRA.REPUL.0>
0

>  <SCORE.INTRA.SOLV>
-0.246031

>  <SCORE.INTRA.SOLV.lig_0>
-49.5008

>  <SCORE.INTRA.VDW>
-1.31583

>  <SCORE.INTRA.VDW.0>
-2.6946

>  <SCORE.INTRA.norm>
-0.0411027

>  <SCORE.RESTR>
0

>  <SCORE.RESTR.CAVITY>
0

>  <SCORE.RESTR.norm>
0

>  <SCORE.SYSTEM>
0

>  <SCORE.SYSTEM.CONST>
0

>  <SCORE.SYSTEM.DIHEDRAL>
0

>  <SCORE.SYSTEM.SOLV>
0

>  <SCORE.SYSTEM.norm>
0

>  <SCORE.heavy>
27

>  <SCORE.norm>
-0.576645

>  <RMSD>
1.226

$$$$
ligand
 OpenBabel02271912153D
libRbt.so/2013.1/901 2013/11/27
 27 29  0  0  0  0  0  0  0  0999 V2000
   -3.7789   -9.8438   15.5219 N   0  0  0  0  0  0  0  0  0  0  0  0
   -3.0895   -9.2807   16.6673 C   0  0  2  0  0  0  0  0  0  0  0  0
   -3.4515   -7.8290   16.7355 C   0  0  0  0  0  0  0  0  0  0  0  0
   -4.3869   -7.4681   17.4818 O   0  0  0  0  0  0  0  0  0  0  0  0
   -1.5749   -9.4440   16.5137 C   0  0  0  0  0  0  0  0  0  0  0  0
   -1.1939  -10.9055   16.1888 C   0  0  0  0  0  0  0  0  0  0  0  0
   -1.3732  -11.9975   17.4500 S   0  0  2  0  0  0  0  0  0  0  0  0
   -0.5692  -13.4031   17.0805 C   0  0  0  0  0  0  0  0  0  0  0  0
   -3.0127  -12.2991   17.7140 C   0  0  0  0  0  0  0  0  0  0  0  0
   -3.3405  -12.7875   19.1409 C   0  0  1  0  0  0  0  0  0  0  0  0
   -2.6210  -12.0763   20.1619 O   0  0  0  0  0  0  0  0  0  0  0  0
   -4.7853  -12.5485   19.5484 C   0  0  1  0  0  0  0  0  0  0  0  0
   -5.7866  -13.4172   18.9815 O   0  0  0  0  0  0  0  0  0  0  0  0
   -4.6687  -12.6497   21.0492 C   0  0  1  0  0  0  0  0  0  0  0  0
   -4.4580  -14.0052   21.4330 O   0  0  0  0  0  0  0  0  0  0  0  0
   -3.4205  -11.8659   21.3282 C   0  0  2  0  0  0  0  0  0  0  0  0
   -2.7903   -6.9981   16.0680 O   0  0  0  0  0  0  0  0  0  0  0  0
   -6.1262   -7.4212   20.2328 N   0  0  0  0  0  0  0  0  0  0  0  0
   -6.2169   -8.6413   19.6501 C   0  0  0  0  0  0  0  0  0  0  0  0
   -5.4588   -9.6850   20.0259 N   0  0  0  0  0  0  0  0  0  0  0  0
   -4.5722   -9.5912   21.0232 C   0  0  0  0  0  0  0  0  0  0  0  0
   -4.4440   -8.3116   21.7040 C   0  0  0  0  0  0  0  0  0  0  0  0
   -5.2711   -7.1615   21.2712 C   0  0  0  0  0  0  0  0  0  0  0  0
   -5.1900   -5.9236   21.8744 N   0  0  0  0  0  0  0  0  0  0  0  0
   -3.5328   -8.4915   22.6331 N   0  0  0  0  0  0  0  0  0  0  0  0
   -3.0854   -9.7529   22.5641 C   0  0  0  0  0  0  0  0  0  0  0  0
   -3.7115  -10.4246   21.5986 N   0  0  0  0  0  0  0  0  0  0  0  0
  2  1  1  6  0  0  0
  2  3  1  0  0  0  0
  2  5  1  0  0  0  0
  3  4  1  0  0  0  0
  3 17  1  0  0  0  0
  5  6  1  0  0  0  0
  7  6  1  6  0  0  0
  7  8  1  0  0  0  0
  7  9  1  0  0  0  0
 10  9  1  6  0  0  0
 10 11  1  0  0  0  0
 10 12  1  0  0  0  0
 11 16  1  0  0  0  0
 12 13  1  6  0  0  0
 12 14  1  0  0  0  0
 14 15  1  6  0  0  0
 14 16  1  0  0  0  0
 16 27  1  6  0  0  0
 18 19  2  0  0  0  0
 18 23  1  0  0  0  0
 19 20  1  0  0  0  0
 20 21  2  0  0  0  0
 21 22  1  0  0  0  0
 21 27  1  0  0  0  0
 22 23  2  0  0  0  0
 22 25  1  0  0  0  0
 23 24  1  0  0  0  0
 25 26  2  0  0  0  0
 26 27  1  0  0  0  0
M  END
>  <CHROM.1>
95.69562375,-51.40034872,-71.27722395,-165.40648095,-156.11783784,41.97199997
76.82340277,-3.63709214,-10.29469333,19.17587537,-0.25617922,1.07392305,-0.48178885

>  <Name>
ligand

>  <RI>
0

>  <Rbt.Current_Directory>
/home/itssahil/PROJECTS/Mol_Feturizer/Test_systems_manuscript/rnas/4kqy

>  <Rbt.Executable>
rbdock ($Id: //depot/dev/client3/rdock/2013.1/src/exe/rbdock.cxx#4 $)

>  <Rbt.Library>
libRbt.so (2013.1, Build901 2013/11/27)

>  <Rbt.Parameter_File>
/export/apps/rDock/src/rDock_2013.1_src/data/scripts/dock_solv.prm

>  <Rbt.Receptor>
prm/pocket_docking_2.prm

>  <SCORE>
-16.3465

>  <SCORE.INTER>
-15.2584

>  <SCORE.INTER.CONST>
1

>  <SCORE.INTER.POLAR>
0

>  <SCORE.INTER.ROT>
7

>  <SCORE.INTER.SOLV>
16.8313

>  <SCORE.INTER.VDW>
-24.0494

>  <SCORE.INTER.norm>
-0.565126

>  <SCORE.INTRA>
-1.39115

>  <SCORE.INTRA.DIHEDRAL>
-3.6192

>  <SCORE.INTRA.DIHEDRAL.0>
10.4103

>  <SCORE.INTRA.POLAR>
0

>  <SCORE.INTRA.POLAR.0>
0

>  <SCORE.INTRA.REPUL>
0

>  <SCORE.INTRA.REPUL.0>
0

>  <SCORE.INTRA.SOLV>
1.74141

>  <SCORE.INTRA.SOLV.lig_0>
-49.5008

>  <SCORE.INTRA.VDW>
-0.452257

>  <SCORE.INTRA.VDW.0>
-2.6946

>  <SCORE.INTRA.norm>
-0.0515241

>  <SCORE.RESTR>
0.303055

>  <SCORE.RESTR.CAVITY>
0.303055

>  <SCORE.RESTR.norm>
0.0112243

>  <SCORE.SYSTEM>
0

>  <SCORE.SYSTEM.CONST>
0

>  <SCORE.SYSTEM.DIHEDRAL>
0

>  <SCORE.SYSTEM.SOLV>
0

>  <SCORE.SYSTEM.norm>
0

>  <SCORE.heavy>
27

>  <SCORE.norm>
-0.605425

>  <RMSD>
1.242

$$$$
ligand
 OpenBabel02271912153D
libRbt.so/2013.1/901 2013/11/27
 27 29  0  0  0  0  0  0  0  0999 V2000
   -4.3131   -8.4239   16.9489 N   0  0  0  0  0  0  0  0  0  0  0  0
   -3.3906   -9.5347   16.8098 C   0  0  2  0  0  0  0  0  0  0  0  0
   -2.1434   -9.0010   16.1752 C   0  0  0  0  0  0  0  0  0  0  0  0
   -2.1954   -7.9286   15.5353 O   0  0  0  0  0  0  0  0  0  0  0  0
   -4.0032  -10.6329   15.9363 C   0  0  0  0  0  0  0  0  0  0  0  0
   -3.1400  -11.9140   15.9505 C   0  0  0  0  0  0  0  0  0  0  0  0
   -2.8361  -12.5649   17.4668 S   0  0  2  0  0  0  0  0  0  0  0  0
   -1.8330  -13.8795   17.3113 C   0  0  0  0  0  0  0  0  0  0  0  0
   -4.2909  -13.0072   18.1993 C   0  0  0  0  0  0  0  0  0  0  0  0
   -4.1740  -13.2848   19.7129 C   0  0  1  0  0  0  0  0  0  0  0  0
   -3.1540  -12.5018   20.3551 O   0  0  0  0  0  0  0  0  0  0  0  0
   -5.4143  -12.8941   20.5003 C   0  0  1  0  0  0  0  0  0  0  0  0
   -6.5658  -13.7551   20.3939 O   0  0  0  0  0  0  0  0  0  0  0  0
   -4.8413  -12.8108   21.8935 C   0  0  1  0  0  0  0  0  0  0  0  0
   -4.5600  -14.1176   22.3856 O   0  0  0  0  0  0  0  0  0  0  0  0
   -3.5467  -12.0880   21.6659 C   0  0  2  0  0  0  0  0  0  0  0  0
   -1.0637   -9.6219   16.3232 O   0  0  0  0  0  0  0  0  0  0  0  0
   -6.1755   -7.5997   20.5611 N   0  0  0  0  0  0  0  0  0  0  0  0
   -6.4476   -8.8675   20.1670 C   0  0  0  0  0  0  0  0  0  0  0  0
   -5.6863   -9.9175   20.5180 N   0  0  0  0  0  0  0  0  0  0  0  0
   -4.6125   -9.7801   21.3038 C   0  0  0  0  0  0  0  0  0  0  0  0
   -4.2807   -8.4452   21.7785 C   0  0  0  0  0  0  0  0  0  0  0  0
   -5.1153   -7.2909   21.3719 C   0  0  0  0  0  0  0  0  0  0  0  0
   -4.8475   -6.0025   21.7855 N   0  0  0  0  0  0  0  0  0  0  0  0
   -3.2114   -8.5886   22.5280 N   0  0  0  0  0  0  0  0  0  0  0  0
   -2.8555   -9.8806   22.5343 C   0  0  0  0  0  0  0  0  0  0  0  0
   -3.6992  -10.6070   21.8022 N   0  0  0  0  0  0  0  0  0  0  0  0
  2  1  1  6  0  0  0
  2  3  1  0  0  0  0
  2  5  1  0  0  0  0
  3  4  1  0  0  0  0
  3 17  1  0  0  0  0
  5  6  1  0  0  0  0
  7  6  1  6  0  0  0
  7  8  1  0  0  0  0
  7  9  1  0  0  0  0
 10  9  1  6  0  0  0
 10 11  1  0  0  0  0
 10 12  1  0  0  0  0
 11 16  1  0  0  0  0
 12 13  1  1  0  0  0
 12 14  1  0  0  0  0
 14 15  1  6  0  0  0
 14 16  1  0  0  0  0
 16 27  1  6  0  0  0
 18 19  2  0  0  0  0
 18 23  1  0  0  0  0
 19 20  1  0  0  0  0
 20 21  2  0  0  0  0
 21 22  1  0  0  0  0
 21 27  1  0  0  0  0
 22 23  2  0  0  0  0
 22 25  1  0  0  0  0
 23 24  1  0  0  0  0
 25 26  2  0  0  0  0
 26 27  1  0  0  0  0
M  END
>  <CHROM.1>
-20.71364740,-171.15642271,56.15752135,-176.91352125,-165.51090871,30.78609748
70.26169643,-3.93121634,-10.71320609,19.39755273,-0.06499330,1.19088884,-0.07989786

>  <Name>
ligand

>  <RI>
0

>  <Rbt.Current_Directory>
/home/itssahil/PROJECTS/Mol_Feturizer/Test_systems_manuscript/rnas/4kqy

>  <Rbt.Executable>
rbdock ($Id: //depot/dev/client3/rdock/2013.1/src/exe/rbdock.cxx#4 $)

>  <Rbt.Library>
libRbt.so (2013.1, Build901 2013/11/27)

>  <Rbt.Parameter_File>
/export/apps/rDock/src/rDock_2013.1_src/data/scripts/dock_solv.prm

>  <Rbt.Receptor>
prm/pocket_docking_4.prm

>  <SCORE>
-18.0049

>  <SCORE.INTER>
-15.2368

>  <SCORE.INTER.CONST>
1

>  <SCORE.INTER.POLAR>
0

>  <SCORE.INTER.ROT>
7

>  <SCORE.INTER.SOLV>
16.343

>  <SCORE.INTER.VDW>
-23.8722

>  <SCORE.INTER.norm>
-0.564325

>  <SCORE.INTRA>
-2.76814

>  <SCORE.INTRA.DIHEDRAL>
-4.16966

>  <SCORE.INTRA.DIHEDRAL.0>
10.4103

>  <SCORE.INTRA.POLAR>
0

>  <SCORE.INTRA.POLAR.0>
0

>  <SCORE.INTRA.REPUL>
0

>  <SCORE.INTRA.REPUL.0>
0

>  <SCORE.INTRA.SOLV>
-0.245186

>  <SCORE.INTRA.SOLV.lig_0>
-49.5008

>  <SCORE.INTRA.VDW>
-0.560718

>  <SCORE.INTRA.VDW.0>
-2.6946

>  <SCORE.INTRA.norm>
-0.102524

>  <SCORE.RESTR>
0

>  <SCORE.RESTR.CAVITY>
0

>  <SCORE.RESTR.norm>
0

>  <SCORE.SYSTEM>
0

>  <SCORE.SYSTEM.CONST>
0

>  <SCORE.SYSTEM.DIHEDRAL>
0

>  <SCORE.SYSTEM.SOLV>
0

>  <SCORE.SYSTEM.norm>
0

>  <SCORE.heavy>
27

>  <SCORE.norm>
-0.666849

>  <RMSD>
1.243

$$$$
ligand
 OpenBabel02271912153D
libRbt.so/2013.1/901 2013/11/27
 27 29  0  0  0  0  0  0  0  0999 V2000
   -4.3640   -8.6210   16.1027 N   0  0  0  0  0  0  0  0  0  0  0  0
   -3.6093   -8.8828   17.3136 C   0  0  2  0  0  0  0  0  0  0  0  0
   -2.1723   -8.5832   17.0163 C   0  0  0  0  0  0  0  0  0  0  0  0
   -1.8019   -8.4921   15.8260 O   0  0  0  0  0  0  0  0  0  0  0  0
   -3.7703  -10.3448   17.7389 C   0  0  0  0  0  0  0  0  0  0  0  0
   -3.3413  -11.3116   16.6131 C   0  0  0  0  0  0  0  0  0  0  0  0
   -3.3851  -12.9427   17.0042 S   0  0  2  0  0  0  0  0  0  0  0  0
   -3.4280  -13.8430   15.6092 C   0  0  0  0  0  0  0  0  0  0  0  0
   -4.7366  -13.2627   17.9633 C   0  0  0  0  0  0  0  0  0  0  0  0
   -4.4021  -13.5754   19.4371 C   0  0  1  0  0  0  0  0  0  0  0  0
   -3.2933  -12.8118   19.9403 O   0  0  0  0  0  0  0  0  0  0  0  0
   -5.5110  -13.1974   20.4057 C   0  0  1  0  0  0  0  0  0  0  0  0
   -6.6724  -14.0507   20.4498 O   0  0  0  0  0  0  0  0  0  0  0  0
   -4.7401  -13.1485   21.7017 C   0  0  1  0  0  0  0  0  0  0  0  0
   -4.4001  -14.4675   22.1185 O   0  0  0  0  0  0  0  0  0  0  0  0
   -3.4871  -12.4264   21.3033 C   0  0  2  0  0  0  0  0  0  0  0  0
   -1.3735   -8.3979   17.9653 O   0  0  0  0  0  0  0  0  0  0  0  0
   -6.1922   -7.8952   20.6504 N   0  0  0  0  0  0  0  0  0  0  0  0
   -6.5247   -9.1510   20.2645 C   0  0  0  0  0  0  0  0  0  0  0  0
   -5.7348  -10.2143   20.4903 N   0  0  0  0  0  0  0  0  0  0  0  0
   -4.5682  -10.1034   21.1352 C   0  0  0  0  0  0  0  0  0  0  0  0
   -4.1657   -8.7828   21.5949 C   0  0  0  0  0  0  0  0  0  0  0  0
   -5.0342   -7.6134   21.3259 C   0  0  0  0  0  0  0  0  0  0  0  0
   -4.7034   -6.3374   21.7322 N   0  0  0  0  0  0  0  0  0  0  0  0
   -3.0107   -8.9516   22.1979 N   0  0  0  0  0  0  0  0  0  0  0  0
   -2.6694  -10.2457   22.1280 C   0  0  0  0  0  0  0  0  0  0  0  0
   -3.6067  -10.9483   21.4929 N   0  0  0  0  0  0  0  0  0  0  0  0
  2  1  1  6  0  0  0
  2  3  1  0  0  0  0
  2  5  1  0  0  0  0
  3  4  1  0  0  0  0
  3 17  1  0  0  0  0
  5  6  1  0  0  0  0
  7  6  1  6  0  0  0
  7  8  1  0  0  0  0
  7  9  1  0  0  0  0
 10  9  1  6  0  0  0
 10 11  1  0  0  0  0
 10 12  1  0  0  0  0
 11 16  1  0  0  0  0
 12 13  1  1  0  0  0
 12 14  1  0  0  0  0
 14 15  1  6  0  0  0
 14 16  1  0  0  0  0
 16 27  1  6  0  0  0
 18 19  2  0  0  0  0
 18 23  1  0  0  0  0
 19 20  1  0  0  0  0
 20 21  2  0  0  0  0
 21 22  1  0  0  0  0
 21 27  1  0  0  0  0
 22 23  2  0  0  0  0
 22 25  1  0  0  0  0
 23 24  1  0  0  0  0
 25 26  2  0  0  0  0
 26 27  1  0  0  0  0
M  END
>  <CHROM.1>
-16.52601889,56.69223137,176.31784966,160.26980092,-108.75167542,35.88563569
69.19791942,-4.04408704,-10.85569301,19.36474727,-1.28785488,-1.21714141
-2.79087089

>  <Name>
ligand

>  <RI>
0

>  <Rbt.Current_Directory>
/home/itssahil/PROJECTS/Mol_Feturizer/Test_systems_manuscript/rnas/4kqy

>  <Rbt.Executable>
rbdock ($Id: //depot/dev/client3/rdock/2013.1/src/exe/rbdock.cxx#4 $)

>  <Rbt.Library>
libRbt.so (2013.1, Build901 2013/11/27)

>  <Rbt.Parameter_File>
/export/apps/rDock/src/rDock_2013.1_src/data/scripts/dock_solv.prm

>  <Rbt.Receptor>
prm/pocket_docking_2.prm

>  <SCORE>
-14.9515

>  <SCORE.INTER>
-14.4248

>  <SCORE.INTER.CONST>
1

>  <SCORE.INTER.POLAR>
0

>  <SCORE.INTER.ROT>
7

>  <SCORE.INTER.SOLV>
16.0681

>  <SCORE.INTER.VDW>
-23.2393

>  <SCORE.INTER.norm>
-0.534253

>  <SCORE.INTRA>
-0.667755

>  <SCORE.INTRA.DIHEDRAL>
-0.0920672

>  <SCORE.INTRA.DIHEDRAL.0>
10.4103

>  <SCORE.INTRA.POLAR>
0

>  <SCORE.INTRA.POLAR.0>
0

>  <SCORE.INTRA.REPUL>
0

>  <SCORE.INTRA.REPUL.0>
0

>  <SCORE.INTRA.SOLV>
0.311425

>  <SCORE.INTRA.SOLV.lig_0>
-49.5008

>  <SCORE.INTRA.VDW>
-0.777433

>  <SCORE.INTRA.VDW.0>
-2.6946

>  <SCORE.INTRA.norm>
-0.0247316

>  <SCORE.RESTR>
0.141089

>  <SCORE.RESTR.CAVITY>
0.141089

>  <SCORE.RESTR.norm>
0.00522553

>  <SCORE.SYSTEM>
0

>  <SCORE.SYSTEM.CONST>
0

>  <SCORE.SYSTEM.DIHEDRAL>
0

>  <SCORE.SYSTEM.SOLV>
0

>  <SCORE.SYSTEM.norm>
0

>  <SCORE.heavy>
27

>  <SCORE.norm>
-0.553759

>  <RMSD>
1.253

$$$$
ligand
 OpenBabel02271912153D
libRbt.so/2013.1/901 2013/11/27
 27 29  0  0  0  0  0  0  0  0999 V2000
   -1.4415   -9.2995   16.7458 N   0  0  0  0  0  0  0  0  0  0  0  0
   -2.8506   -9.1935   16.4178 C   0  0  2  0  0  0  0  0  0  0  0  0
   -3.1438   -7.7448   16.1758 C   0  0  0  0  0  0  0  0  0  0  0  0
   -4.2686   -7.2914   16.4781 O   0  0  0  0  0  0  0  0  0  0  0  0
   -3.7094   -9.7244   17.5688 C   0  0  0  0  0  0  0  0  0  0  0  0
   -3.9585  -11.2431   17.4344 C   0  0  0  0  0  0  0  0  0  0  0  0
   -2.8251  -12.2310   18.1792 S   0  0  2  0  0  0  0  0  0  0  0  0
   -1.4705  -12.3332   17.2236 C   0  0  0  0  0  0  0  0  0  0  0  0
   -3.4874  -13.7609   18.4419 C   0  0  0  0  0  0  0  0  0  0  0  0
   -4.5317  -13.8077   19.5773 C   0  0  1  0  0  0  0  0  0  0  0  0
   -4.0230  -13.3314   20.8344 O   0  0  0  0  0  0  0  0  0  0  0  0
   -5.7200  -12.8876   19.3488 C   0  0  1  0  0  0  0  0  0  0  0  0
   -6.7025  -13.3019   18.3783 O   0  0  0  0  0  0  0  0  0  0  0  0
   -6.2585  -12.7787   20.7539 C   0  0  1  0  0  0  0  0  0  0  0  0
   -6.8815  -14.0016   21.1350 O   0  0  0  0  0  0  0  0  0  0  0  0
   -5.0089  -12.5968   21.5638 C   0  0  2  0  0  0  0  0  0  0  0  0
   -2.2466   -7.0061   15.7041 O   0  0  0  0  0  0  0  0  0  0  0  0
   -5.9602   -7.4625   20.5588 N   0  0  0  0  0  0  0  0  0  0  0  0
   -6.6283   -8.5565   20.1189 C   0  0  0  0  0  0  0  0  0  0  0  0
   -6.2704   -9.8087   20.4491 N   0  0  0  0  0  0  0  0  0  0  0  0
   -5.2343  -10.0572   21.2579 C   0  0  0  0  0  0  0  0  0  0  0  0
   -4.4899   -8.9219   21.7815 C   0  0  0  0  0  0  0  0  0  0  0  0
   -4.8806   -7.5455   21.3979 C   0  0  0  0  0  0  0  0  0  0  0  0
   -4.2103   -6.4311   21.8578 N   0  0  0  0  0  0  0  0  0  0  0  0
   -3.5505   -9.4326   22.5449 N   0  0  0  0  0  0  0  0  0  0  0  0
   -3.6459  -10.7690   22.5156 C   0  0  0  0  0  0  0  0  0  0  0  0
   -4.6629  -11.1537   21.7453 N   0  0  0  0  0  0  0  0  0  0  0  0
  2  1  1  1  0  0  0
  2  3  1  0  0  0  0
  2  5  1  0  0  0  0
  3  4  1  0  0  0  0
  3 17  1  0  0  0  0
  5  6  1  0  0  0  0
  7  6  1  6  0  0  0
  7  8  1  0  0  0  0
  7  9  1  0  0  0  0
 10  9  1  6  0  0  0
 10 11  1  0  0  0  0
 10 12  1  0  0  0  0
 11 16  1  0  0  0  0
 12 13  1  6  0  0  0
 12 14  1  0  0  0  0
 14 15  1  1  0  0  0
 14 16  1  0  0  0  0
 16 27  1  6  0  0  0
 18 19  2  0  0  0  0
 18 23  1  0  0  0  0
 19 20  1  0  0  0  0
 20 21  2  0  0  0  0
 21 22  1  0  0  0  0
 21 27  1  0  0  0  0
 22 23  2  0  0  0  0
 22 25  1  0  0  0  0
 23 24  1  0  0  0  0
 25 26  2  0  0  0  0
 26 27  1  0  0  0  0
M  END
>  <CHROM.1>
-147.24707199,-88.46239724,90.07646180,-78.88661074,-73.06663573,-56.46732711
113.16838907,-4.28938105,-10.59365975,19.36377342,-0.73082125,-1.07251929
-3.01411223

>  <Name>
ligand

>  <RI>
0

>  <Rbt.Current_Directory>
/home/itssahil/PROJECTS/Mol_Feturizer/Test_systems_manuscript/rnas/4kqy

>  <Rbt.Executable>
rbdock ($Id: //depot/dev/client3/rdock/2013.1/src/exe/rbdock.cxx#4 $)

>  <Rbt.Library>
libRbt.so (2013.1, Build901 2013/11/27)

>  <Rbt.Parameter_File>
/export/apps/rDock/src/rDock_2013.1_src/data/scripts/dock_solv.prm

>  <Rbt.Receptor>
prm/pocket_docking_2.prm

>  <SCORE>
-12.6225

>  <SCORE.INTER>
-13.277

>  <SCORE.INTER.CONST>
1

>  <SCORE.INTER.POLAR>
0

>  <SCORE.INTER.ROT>
7

>  <SCORE.INTER.SOLV>
18.2367

>  <SCORE.INTER.VDW>
-23.1969

>  <SCORE.INTER.norm>
-0.49174

>  <SCORE.INTRA>
0.649148

>  <SCORE.INTRA.DIHEDRAL>
-0.394242

>  <SCORE.INTRA.DIHEDRAL.0>
10.4103

>  <SCORE.INTRA.POLAR>
0

>  <SCORE.INTRA.POLAR.0>
0

>  <SCORE.INTRA.REPUL>
0

>  <SCORE.INTRA.REPUL.0>
0

>  <SCORE.INTRA.SOLV>
2.21026

>  <SCORE.INTRA.SOLV.lig_0>
-49.5008

>  <SCORE.INTRA.VDW>
-0.25886

>  <SCORE.INTRA.VDW.0>
-2.6946

>  <SCORE.INTRA.norm>
0.0240425

>  <SCORE.RESTR>
0.00538407

>  <SCORE.RESTR.CAVITY>
0.00538407

>  <SCORE.RESTR.norm>
0.00019941

>  <SCORE.SYSTEM>
0

>  <SCORE.SYSTEM.CONST>
0

>  <SCORE.SYSTEM.DIHEDRAL>
0

>  <SCORE.SYSTEM.SOLV>
0

>  <SCORE.SYSTEM.norm>
0

>  <SCORE.heavy>
27

>  <SCORE.norm>
-0.467498

>  <RMSD>
1.260

$$$$
ligand
 OpenBabel02271912153D
libRbt.so/2013.1/901 2013/11/27
 27 29  0  0  0  0  0  0  0  0999 V2000
   -4.1295   -8.3735   16.8156 N   0  0  0  0  0  0  0  0  0  0  0  0
   -3.2968   -9.5608   16.8464 C   0  0  2  0  0  0  0  0  0  0  0  0
   -1.9241   -9.1536   16.4072 C   0  0  0  0  0  0  0  0  0  0  0  0
   -0.9289   -9.6492   16.9783 O   0  0  0  0  0  0  0  0  0  0  0  0
   -3.8585  -10.6329   15.9087 C   0  0  0  0  0  0  0  0  0  0  0  0
   -3.0181  -11.9280   15.9627 C   0  0  0  0  0  0  0  0  0  0  0  0
   -2.7805  -12.5730   17.4934 S   0  0  2  0  0  0  0  0  0  0  0  0
   -1.8366  -13.9347   17.3772 C   0  0  0  0  0  0  0  0  0  0  0  0
   -4.2711  -12.9379   18.1958 C   0  0  0  0  0  0  0  0  0  0  0  0
   -4.1970  -13.2391   19.7076 C   0  0  1  0  0  0  0  0  0  0  0  0
   -3.1950  -12.4672   20.3903 O   0  0  0  0  0  0  0  0  0  0  0  0
   -5.4587  -12.8594   20.4659 C   0  0  1  0  0  0  0  0  0  0  0  0
   -6.6073  -13.7175   20.3138 O   0  0  0  0  0  0  0  0  0  0  0  0
   -4.9251  -12.7984   21.8757 C   0  0  1  0  0  0  0  0  0  0  0  0
   -4.6585  -14.1129   22.3551 O   0  0  0  0  0  0  0  0  0  0  0  0
   -3.6241  -12.0735   21.6959 C   0  0  2  0  0  0  0  0  0  0  0  0
   -1.7968   -8.3477   15.4546 O   0  0  0  0  0  0  0  0  0  0  0  0
   -6.2068   -7.5631   20.5725 N   0  0  0  0  0  0  0  0  0  0  0  0
   -6.4664   -8.8238   20.1484 C   0  0  0  0  0  0  0  0  0  0  0  0
   -5.7192   -9.8807   20.5088 N   0  0  0  0  0  0  0  0  0  0  0  0
   -4.6736   -9.7580   21.3341 C   0  0  0  0  0  0  0  0  0  0  0  0
   -4.3572   -8.4316   21.8419 C   0  0  0  0  0  0  0  0  0  0  0  0
   -5.1755   -7.2694   21.4251 C   0  0  0  0  0  0  0  0  0  0  0  0
   -4.9209   -5.9884   21.8689 N   0  0  0  0  0  0  0  0  0  0  0  0
   -3.3151   -8.5892   22.6263 N   0  0  0  0  0  0  0  0  0  0  0  0
   -2.9613   -9.8817   22.6241 C   0  0  0  0  0  0  0  0  0  0  0  0
   -3.7795  -10.5947   21.8508 N   0  0  0  0  0  0  0  0  0  0  0  0
  2  1  1  6  0  0  0
  2  3  1  0  0  0  0
  2  5  1  0  0  0  0
  3  4  1  0  0  0  0
  3 17  1  0  0  0  0
  5  6  1  0  0  0  0
  7  6  1  6  0  0  0
  7  8  1  0  0  0  0
  7  9  1  0  0  0  0
 10  9  1  6  0  0  0
 10 11  1  0  0  0  0
 10 12  1  0  0  0  0
 11 16  1  0  0  0  0
 12 13  1  1  0  0  0
 12 14  1  0  0  0  0
 14 15  1  6  0  0  0
 14 16  1  0  0  0  0
 16 27  1  6  0  0  0
 18 19  2  0  0  0  0
 18 23  1  0  0  0  0
 19 20  1  0  0  0  0
 20 21  2  0  0  0  0
 21 22  1  0  0  0  0
 21 27  1  0  0  0  0
 22 23  2  0  0  0  0
 22 25  1  0  0  0  0
 23 24  1  0  0  0  0
 25 26  2  0  0  0  0
 26 27  1  0  0  0  0
M  END
>  <CHROM.1>
140.84856365,-177.90050208,53.51219656,-178.80133907,-167.09114983,34.14926701
69.84681426,-3.91469011,-10.72270771,19.43975146,-0.20186255,1.15358776,-0.03544890

>  <Name>
ligand

>  <RI>
0

>  <Rbt.Current_Directory>
/home/itssahil/PROJECTS/Mol_Feturizer/Test_systems_manuscript/rnas/4kqy

>  <Rbt.Executable>
rbdock ($Id: //depot/dev/client3/rdock/2013.1/src/exe/rbdock.cxx#4 $)

>  <Rbt.Library>
libRbt.so (2013.1, Build901 2013/11/27)

>  <Rbt.Parameter_File>
/export/apps/rDock/src/rDock_2013.1_src/data/scripts/dock_solv.prm

>  <Rbt.Receptor>
prm/pocket_docking_4.prm

>  <SCORE>
-18.1887

>  <SCORE.INTER>
-14.8285

>  <SCORE.INTER.CONST>
1

>  <SCORE.INTER.POLAR>
0

>  <SCORE.INTER.ROT>
7

>  <SCORE.INTER.SOLV>
16.8156

>  <SCORE.INTER.VDW>
-23.7575

>  <SCORE.INTER.norm>
-0.549204

>  <SCORE.INTRA>
-3.36016

>  <SCORE.INTRA.DIHEDRAL>
-5.07106

>  <SCORE.INTRA.DIHEDRAL.0>
10.4103

>  <SCORE.INTRA.POLAR>
0

>  <SCORE.INTRA.POLAR.0>
0

>  <SCORE.INTRA.REPUL>
0

>  <SCORE.INTRA.REPUL.0>
0

>  <SCORE.INTRA.SOLV>
-0.355562

>  <SCORE.INTRA.SOLV.lig_0>
-49.5008

>  <SCORE.INTRA.VDW>
-0.646846

>  <SCORE.INTRA.VDW.0>
-2.6946

>  <SCORE.INTRA.norm>
-0.12445

>  <SCORE.RESTR>
0

>  <SCORE.RESTR.CAVITY>
0

>  <SCORE.RESTR.norm>
0

>  <SCORE.SYSTEM>
0

>  <SCORE.SYSTEM.CONST>
0

>  <SCORE.SYSTEM.DIHEDRAL>
0

>  <SCORE.SYSTEM.SOLV>
0

>  <SCORE.SYSTEM.norm>
0

>  <SCORE.heavy>
27

>  <SCORE.norm>
-0.673654

>  <RMSD>
1.280

$$$$
ligand
 OpenBabel02271912153D
libRbt.so/2013.1/901 2013/11/27
 27 29  0  0  0  0  0  0  0  0999 V2000
   -2.8309   -9.6072   15.4208 N   0  0  0  0  0  0  0  0  0  0  0  0
   -2.6041  -10.3123   16.6680 C   0  0  2  0  0  0  0  0  0  0  0  0
   -2.7087   -9.3071   17.7733 C   0  0  0  0  0  0  0  0  0  0  0  0
   -2.1098   -9.5195   18.8496 O   0  0  0  0  0  0  0  0  0  0  0  0
   -1.2181  -10.9628   16.6707 C   0  0  0  0  0  0  0  0  0  0  0  0
   -1.1263  -12.0936   17.7191 C   0  0  0  0  0  0  0  0  0  0  0  0
   -2.1815  -13.3782   17.4921 S   0  0  2  0  0  0  0  0  0  0  0  0
   -2.2850  -13.7267   15.8714 C   0  0  0  0  0  0  0  0  0  0  0  0
   -3.6996  -12.9860   18.1167 C   0  0  0  0  0  0  0  0  0  0  0  0
   -3.8458  -13.2544   19.6294 C   0  0  1  0  0  0  0  0  0  0  0  0
   -2.9158  -12.5057   20.4297 O   0  0  0  0  0  0  0  0  0  0  0  0
   -5.1827  -12.8089   20.1996 C   0  0  1  0  0  0  0  0  0  0  0  0
   -6.3340  -13.6256   19.9061 O   0  0  0  0  0  0  0  0  0  0  0  0
   -4.8451  -12.7353   21.6682 C   0  0  1  0  0  0  0  0  0  0  0  0
   -4.7012  -14.0476   22.2033 O   0  0  0  0  0  0  0  0  0  0  0  0
   -3.5031  -12.0653   21.6564 C   0  0  2  0  0  0  0  0  0  0  0  0
   -3.3683   -8.2564   17.5888 O   0  0  0  0  0  0  0  0  0  0  0  0
   -6.1826   -7.5665   20.7310 N   0  0  0  0  0  0  0  0  0  0  0  0
   -6.5182   -8.8406   20.4139 C   0  0  0  0  0  0  0  0  0  0  0  0
   -5.7349   -9.8928   20.7045 N   0  0  0  0  0  0  0  0  0  0  0  0
   -4.5721   -9.7508   21.3505 C   0  0  0  0  0  0  0  0  0  0  0  0
   -4.1667   -8.4082   21.7383 C   0  0  0  0  0  0  0  0  0  0  0  0
   -5.0280   -7.2521   21.3979 C   0  0  0  0  0  0  0  0  0  0  0  0
   -4.6941   -5.9567   21.7343 N   0  0  0  0  0  0  0  0  0  0  0  0
   -3.0167   -8.5478   22.3580 N   0  0  0  0  0  0  0  0  0  0  0  0
   -2.6810   -9.8452   22.3634 C   0  0  0  0  0  0  0  0  0  0  0  0
   -3.6170  -10.5784   21.7620 N   0  0  0  0  0  0  0  0  0  0  0  0
  2  1  1  6  0  0  0
  2  3  1  0  0  0  0
  2  5  1  0  0  0  0
  3  4  1  0  0  0  0
  3 17  1  0  0  0  0
  5  6  1  0  0  0  0
  7  6  1  6  0  0  0
  7  8  1  0  0  0  0
  7  9  1  0  0  0  0
 10  9  1  6  0  0  0
 10 11  1  0  0  0  0
 10 12  1  0  0  0  0
 11 16  1  0  0  0  0
 12 13  1  1  0  0  0
 12 14  1  0  0  0  0
 14 15  1  6  0  0  0
 14 16  1  0  0  0  0
 16 27  1  6  0  0  0
 18 19  2  0  0  0  0
 18 23  1  0  0  0  0
 19 20  1  0  0  0  0
 20 21  2  0  0  0  0
 21 22  1  0  0  0  0
 21 27  1  0  0  0  0
 22 23  2  0  0  0  0
 22 25  1  0  0  0  0
 23 24  1  0  0  0  0
 25 26  2  0  0  0  0
 26 27  1  0  0  0  0
M  END
>  <CHROM.1>
-154.60412345,-160.26977881,61.38164848,39.63716507,-84.82425336,60.33318770
86.83579727,-3.67257746,-10.85220361,19.57016483,-0.70392568,1.07486900,-0.01669698

>  <Name>
ligand

>  <RI>
0

>  <Rbt.Current_Directory>
/home/itssahil/PROJECTS/Mol_Feturizer/Test_systems_manuscript/rnas/4kqy

>  <Rbt.Executable>
rbdock ($Id: //depot/dev/client3/rdock/2013.1/src/exe/rbdock.cxx#4 $)

>  <Rbt.Library>
libRbt.so (2013.1, Build901 2013/11/27)

>  <Rbt.Parameter_File>
/export/apps/rDock/src/rDock_2013.1_src/data/scripts/dock_solv.prm

>  <Rbt.Receptor>
prm/pocket_docking_2.prm

>  <SCORE>
-18.3228

>  <SCORE.INTER>
-16.9109

>  <SCORE.INTER.CONST>
1

>  <SCORE.INTER.POLAR>
0

>  <SCORE.INTER.ROT>
7

>  <SCORE.INTER.SOLV>
15.8699

>  <SCORE.INTER.VDW>
-24.8306

>  <SCORE.INTER.norm>
-0.62633

>  <SCORE.INTRA>
-1.44143

>  <SCORE.INTRA.DIHEDRAL>
-3.02941

>  <SCORE.INTRA.DIHEDRAL.0>
10.4103

>  <SCORE.INTRA.POLAR>
0

>  <SCORE.INTRA.POLAR.0>
0

>  <SCORE.INTRA.REPUL>
0

>  <SCORE.INTRA.REPUL.0>
0

>  <SCORE.INTRA.SOLV>
0.44423

>  <SCORE.INTRA.SOLV.lig_0>
-49.5008

>  <SCORE.INTRA.VDW>
-0.148839

>  <SCORE.INTRA.VDW.0>
-2.6946

>  <SCORE.INTRA.norm>
-0.0533863

>  <SCORE.RESTR>
0.0295749

>  <SCORE.RESTR.CAVITY>
0.0295749

>  <SCORE.RESTR.norm>
0.00109537

>  <SCORE.SYSTEM>
0

>  <SCORE.SYSTEM.CONST>
0

>  <SCORE.SYSTEM.DIHEDRAL>
0

>  <SCORE.SYSTEM.SOLV>
0

>  <SCORE.SYSTEM.norm>
0

>  <SCORE.heavy>
27

>  <SCORE.norm>
-0.678621

>  <RMSD>
1.299

$$$$
ligand
 OpenBabel02271912153D
libRbt.so/2013.1/901 2013/11/27
 27 29  0  0  0  0  0  0  0  0999 V2000
   -2.2000   -8.4550   17.5123 N   0  0  0  0  0  0  0  0  0  0  0  0
   -1.6597   -9.7892   17.3328 C   0  0  2  0  0  0  0  0  0  0  0  0
   -1.0907   -9.8568   15.9491 C   0  0  0  0  0  0  0  0  0  0  0  0
   -1.5218   -9.0759   15.0735 O   0  0  0  0  0  0  0  0  0  0  0  0
   -2.7596  -10.8399   17.5071 C   0  0  0  0  0  0  0  0  0  0  0  0
   -2.1770  -12.2706   17.5248 C   0  0  0  0  0  0  0  0  0  0  0  0
   -3.2810  -13.5048   17.2543 S   0  0  2  0  0  0  0  0  0  0  0  0
   -3.6906  -13.5351   15.6450 C   0  0  0  0  0  0  0  0  0  0  0  0
   -4.6487  -13.2667   18.2142 C   0  0  0  0  0  0  0  0  0  0  0  0
   -4.4175  -13.5358   19.7162 C   0  0  1  0  0  0  0  0  0  0  0  0
   -3.3187  -12.7877   20.2629 O   0  0  0  0  0  0  0  0  0  0  0  0
   -5.5725  -13.0903   20.5986 C   0  0  1  0  0  0  0  0  0  0  0  0
   -6.7609  -13.9067   20.5975 O   0  0  0  0  0  0  0  0  0  0  0  0
   -4.8833  -13.0176   21.9387 C   0  0  1  0  0  0  0  0  0  0  0  0
   -4.6123  -14.3301   22.4212 O   0  0  0  0  0  0  0  0  0  0  0  0
   -3.5854  -12.3478   21.5967 C   0  0  2  0  0  0  0  0  0  0  0  0
   -0.1710  -10.6729   15.7013 O   0  0  0  0  0  0  0  0  0  0  0  0
   -6.1625   -7.7783   20.7285 N   0  0  0  0  0  0  0  0  0  0  0  0
   -6.5216   -9.0393   20.3858 C   0  0  0  0  0  0  0  0  0  0  0  0
   -5.7629  -10.1126   20.6644 N   0  0  0  0  0  0  0  0  0  0  0  0
   -4.6034  -10.0064   21.3229 C   0  0  0  0  0  0  0  0  0  0  0  0
   -4.1737   -8.6796   21.7381 C   0  0  0  0  0  0  0  0  0  0  0  0
   -5.0077   -7.4999   21.4109 C   0  0  0  0  0  0  0  0  0  0  0  0
   -4.6500   -6.2179   21.7732 N   0  0  0  0  0  0  0  0  0  0  0  0
   -3.0325   -8.8541   22.3651 N   0  0  0  0  0  0  0  0  0  0  0  0
   -2.7238  -10.1581   22.3502 C   0  0  0  0  0  0  0  0  0  0  0  0
   -3.6694  -10.8609   21.7277 N   0  0  0  0  0  0  0  0  0  0  0  0
  2  1  1  6  0  0  0
  2  3  1  0  0  0  0
  2  5  1  0  0  0  0
  3  4  1  0  0  0  0
  3 17  1  0  0  0  0
  5  6  1  0  0  0  0
  7  6  1  6  0  0  0
  7  8  1  0  0  0  0
  7  9  1  0  0  0  0
 10  9  1  6  0  0  0
 10 11  1  0  0  0  0
 10 12  1  0  0  0  0
 11 16  1  0  0  0  0
 12 13  1  1  0  0  0
 12 14  1  0  0  0  0
 14 15  1  6  0  0  0
 14 16  1  0  0  0  0
 16 27  1  6  0  0  0
 18 19  2  0  0  0  0
 18 23  1  0  0  0  0
 19 20  1  0  0  0  0
 20 21  2  0  0  0  0
 21 22  1  0  0  0  0
 21 27  1  0  0  0  0
 22 23  2  0  0  0  0
 22 25  1  0  0  0  0
 23 24  1  0  0  0  0
 25 26  2  0  0  0  0
 26 27  1  0  0  0  0
M  END
>  <CHROM.1>
-23.96357810,-171.75634275,-162.62617992,74.29911879,-72.05856302,54.26203423
71.97836358,-3.75476249,-11.06407471,19.42827293,-0.46422992,1.02305480,0.31702433

>  <Name>
ligand

>  <RI>
0

>  <Rbt.Current_Directory>
/home/itssahil/PROJECTS/Mol_Feturizer/Test_systems_manuscript/rnas/4kqy

>  <Rbt.Executable>
rbdock ($Id: //depot/dev/client3/rdock/2013.1/src/exe/rbdock.cxx#4 $)

>  <Rbt.Library>
libRbt.so (2013.1, Build901 2013/11/27)

>  <Rbt.Parameter_File>
/export/apps/rDock/src/rDock_2013.1_src/data/scripts/dock_solv.prm

>  <Rbt.Receptor>
prm/pocket_docking_3.prm

>  <SCORE>
-19.3495

>  <SCORE.INTER>
-16.142

>  <SCORE.INTER.CONST>
1

>  <SCORE.INTER.POLAR>
0

>  <SCORE.INTER.ROT>
7

>  <SCORE.INTER.SOLV>
18.9638

>  <SCORE.INTER.VDW>
-25.3493

>  <SCORE.INTER.norm>
-0.597851

>  <SCORE.INTRA>
-3.20751

>  <SCORE.INTRA.DIHEDRAL>
-5.11833

>  <SCORE.INTRA.DIHEDRAL.0>
10.4103

>  <SCORE.INTRA.POLAR>
0

>  <SCORE.INTRA.POLAR.0>
0

>  <SCORE.INTRA.REPUL>
0

>  <SCORE.INTRA.REPUL.0>
0

>  <SCORE.INTRA.SOLV>
-0.45989

>  <SCORE.INTRA.SOLV.lig_0>
-49.5008

>  <SCORE.INTRA.VDW>
-0.418402

>  <SCORE.INTRA.VDW.0>
-2.6946

>  <SCORE.INTRA.norm>
-0.118797

>  <SCORE.RESTR>
0

>  <SCORE.RESTR.CAVITY>
0

>  <SCORE.RESTR.norm>
0

>  <SCORE.SYSTEM>
0

>  <SCORE.SYSTEM.CONST>
0

>  <SCORE.SYSTEM.DIHEDRAL>
0

>  <SCORE.SYSTEM.SOLV>
0

>  <SCORE.SYSTEM.norm>
0

>  <SCORE.heavy>
27

>  <SCORE.norm>
-0.716648

>  <RMSD>
1.326

$$$$
ligand
 OpenBabel02271912153D
libRbt.so/2013.1/901 2013/11/27
 27 29  0  0  0  0  0  0  0  0999 V2000
   -2.1337   -7.8031   16.6536 N   0  0  0  0  0  0  0  0  0  0  0  0
   -2.9523   -8.9890   16.8200 C   0  0  2  0  0  0  0  0  0  0  0  0
   -4.3657   -8.6013   16.5115 C   0  0  0  0  0  0  0  0  0  0  0  0
   -5.1075   -9.4174   15.9233 O   0  0  0  0  0  0  0  0  0  0  0  0
   -2.8466   -9.5155   18.2538 C   0  0  0  0  0  0  0  0  0  0  0  0
   -3.5528  -10.8807   18.4082 C   0  0  0  0  0  0  0  0  0  0  0  0
   -2.5456  -12.2226   18.3899 S   0  0  2  0  0  0  0  0  0  0  0  0
   -1.6056  -12.1874   17.0210 C   0  0  0  0  0  0  0  0  0  0  0  0
   -3.4728  -13.6319   18.4415 C   0  0  0  0  0  0  0  0  0  0  0  0
   -4.3554  -13.7583   19.7012 C   0  0  1  0  0  0  0  0  0  0  0  0
   -3.7464  -13.2005   20.8775 O   0  0  0  0  0  0  0  0  0  0  0  0
   -5.6538  -12.9724   19.6152 C   0  0  1  0  0  0  0  0  0  0  0  0
   -6.7008  -13.5105   18.7827 O   0  0  0  0  0  0  0  0  0  0  0  0
   -6.0202  -12.8848   21.0761 C   0  0  1  0  0  0  0  0  0  0  0  0
   -6.4573  -14.1559   21.5477 O   0  0  0  0  0  0  0  0  0  0  0  0
   -4.7053  -12.5541   21.7180 C   0  0  2  0  0  0  0  0  0  0  0  0
   -4.7892   -7.4784   16.8762 O   0  0  0  0  0  0  0  0  0  0  0  0
   -6.0361   -7.5808   20.3872 N   0  0  0  0  0  0  0  0  0  0  0  0
   -6.5834   -8.7502   19.9754 C   0  0  0  0  0  0  0  0  0  0  0  0
   -6.1381   -9.9478   20.3910 N   0  0  0  0  0  0  0  0  0  0  0  0
   -5.1300  -10.0630   21.2626 C   0  0  0  0  0  0  0  0  0  0  0  0
   -4.5148   -8.8415   21.7595 C   0  0  0  0  0  0  0  0  0  0  0  0
   -5.0003   -7.5260   21.2821 C   0  0  0  0  0  0  0  0  0  0  0  0
   -4.4536   -6.3351   21.7130 N   0  0  0  0  0  0  0  0  0  0  0  0
   -3.5780   -9.2283   22.5954 N   0  0  0  0  0  0  0  0  0  0  0  0
   -3.5571  -10.5677   22.6346 C   0  0  0  0  0  0  0  0  0  0  0  0
   -4.4942  -11.0789   21.8371 N   0  0  0  0  0  0  0  0  0  0  0  0
  2  1  1  1  0  0  0
  2  3  1  0  0  0  0
  2  5  1  0  0  0  0
  3  4  1  0  0  0  0
  3 17  1  0  0  0  0
  5  6  1  0  0  0  0
  7  6  1  6  0  0  0
  7  8  1  0  0  0  0
  7  9  1  0  0  0  0
 10  9  1  6  0  0  0
 10 11  1  0  0  0  0
 10 12  1  0  0  0  0
 11 16  1  0  0  0  0
 12 13  1  6  0  0  0
 12 14  1  0  0  0  0
 14 15  1  1  0  0  0
 14 16  1  0  0  0  0
 16 27  1  6  0  0  0
 18 19  2  0  0  0  0
 18 23  1  0  0  0  0
 19 20  1  0  0  0  0
 20 21  2  0  0  0  0
 21 22  1  0  0  0  0
 21 27  1  0  0  0  0
 22 23  2  0  0  0  0
 22 25  1  0  0  0  0
 23 24  1  0  0  0  0
 25 26  2  0  0  0  0
 26 27  1  0  0  0  0
M  END
>  <CHROM.1>
143.47054834,-172.28578155,100.18022634,-53.77647400,-60.41339673,-34.43120083
102.67639856,-4.37377111,-10.63998579,19.52957708,-1.14828265,-1.17259422
3.08593072

>  <Name>
ligand

>  <RI>
0

>  <Rbt.Current_Directory>
/home/itssahil/PROJECTS/Mol_Feturizer/Test_systems_manuscript/rnas/4kqy

>  <Rbt.Executable>
rbdock ($Id: //depot/dev/client3/rdock/2013.1/src/exe/rbdock.cxx#4 $)

>  <Rbt.Library>
libRbt.so (2013.1, Build901 2013/11/27)

>  <Rbt.Parameter_File>
/export/apps/rDock/src/rDock_2013.1_src/data/scripts/dock_solv.prm

>  <Rbt.Receptor>
prm/pocket_docking_2.prm

>  <SCORE>
-15.4373

>  <SCORE.INTER>
-13.0355

>  <SCORE.INTER.CONST>
1

>  <SCORE.INTER.POLAR>
0

>  <SCORE.INTER.ROT>
7

>  <SCORE.INTER.SOLV>
19.3122

>  <SCORE.INTER.VDW>
-23.3944

>  <SCORE.INTER.norm>
-0.482797

>  <SCORE.INTRA>
-2.46639

>  <SCORE.INTRA.DIHEDRAL>
-1.21821

>  <SCORE.INTRA.DIHEDRAL.0>
10.4103

>  <SCORE.INTRA.POLAR>
0

>  <SCORE.INTRA.POLAR.0>
0

>  <SCORE.INTRA.REPUL>
0

>  <SCORE.INTRA.REPUL.0>
0

>  <SCORE.INTRA.SOLV>
-0.0544499

>  <SCORE.INTRA.SOLV.lig_0>
-49.5008

>  <SCORE.INTRA.VDW>
-1.83006

>  <SCORE.INTRA.VDW.0>
-2.6946

>  <SCORE.INTRA.norm>
-0.0913478

>  <SCORE.RESTR>
0.0646325

>  <SCORE.RESTR.CAVITY>
0.0646325

>  <SCORE.RESTR.norm>
0.0023938

>  <SCORE.SYSTEM>
0

>  <SCORE.SYSTEM.CONST>
0

>  <SCORE.SYSTEM.DIHEDRAL>
0

>  <SCORE.SYSTEM.SOLV>
0

>  <SCORE.SYSTEM.norm>
0

>  <SCORE.heavy>
27

>  <SCORE.norm>
-0.571751

>  <RMSD>
1.372

$$$$
ligand
 OpenBabel02271912153D
libRbt.so/2013.1/901 2013/11/27
 27 29  0  0  0  0  0  0  0  0999 V2000
   -2.3501   -9.1166   16.7376 N   0  0  0  0  0  0  0  0  0  0  0  0
   -2.8075  -10.4902   16.8290 C   0  0  2  0  0  0  0  0  0  0  0  0
   -4.3042  -10.4590   16.8744 C   0  0  0  0  0  0  0  0  0  0  0  0
   -4.9535  -10.9462   15.9240 O   0  0  0  0  0  0  0  0  0  0  0  0
   -2.2514  -11.1566   18.0903 C   0  0  0  0  0  0  0  0  0  0  0  0
   -1.8036  -12.6086   17.8119 C   0  0  0  0  0  0  0  0  0  0  0  0
   -3.0273  -13.6738   17.3839 S   0  0  2  0  0  0  0  0  0  0  0  0
   -3.2954  -13.5763   15.7476 C   0  0  0  0  0  0  0  0  0  0  0  0
   -4.4322  -13.3026   18.2423 C   0  0  0  0  0  0  0  0  0  0  0  0
   -4.3282  -13.5599   19.7604 C   0  0  1  0  0  0  0  0  0  0  0  0
   -3.2775  -12.8088   20.3912 O   0  0  0  0  0  0  0  0  0  0  0  0
   -5.5521  -13.1058   20.5394 C   0  0  1  0  0  0  0  0  0  0  0  0
   -6.7378  -13.9206   20.4454 O   0  0  0  0  0  0  0  0  0  0  0  0
   -4.9773  -13.0232   21.9319 C   0  0  1  0  0  0  0  0  0  0  0  0
   -4.7503  -14.3321   22.4458 O   0  0  0  0  0  0  0  0  0  0  0  0
   -3.6540  -12.3578   21.6945 C   0  0  2  0  0  0  0  0  0  0  0  0
   -4.8793   -9.9740   17.8780 O   0  0  0  0  0  0  0  0  0  0  0  0
   -6.1952   -7.8019   20.6638 N   0  0  0  0  0  0  0  0  0  0  0  0
   -6.5369   -9.0671   20.3183 C   0  0  0  0  0  0  0  0  0  0  0  0
   -5.7902  -10.1362   20.6419 N   0  0  0  0  0  0  0  0  0  0  0  0
   -4.6617  -10.0211   21.3509 C   0  0  0  0  0  0  0  0  0  0  0  0
   -4.2528   -8.6894   21.7713 C   0  0  0  0  0  0  0  0  0  0  0  0
   -5.0727   -7.5146   21.3947 C   0  0  0  0  0  0  0  0  0  0  0  0
   -4.7334   -6.2283   21.7595 N   0  0  0  0  0  0  0  0  0  0  0  0
   -3.1409   -8.8555   22.4509 N   0  0  0  0  0  0  0  0  0  0  0  0
   -2.8301  -10.1591   22.4634 C   0  0  0  0  0  0  0  0  0  0  0  0
   -3.7458  -10.8698   21.8063 N   0  0  0  0  0  0  0  0  0  0  0  0
  2  1  1  1  0  0  0
  2  3  1  0  0  0  0
  2  5  1  0  0  0  0
  3  4  1  0  0  0  0
  3 17  1  0  0  0  0
  5  6  1  0  0  0  0
  7  6  1  1  0  0  0
  7  8  1  0  0  0  0
  7  9  1  0  0  0  0
 10  9  1  6  0  0  0
 10 11  1  0  0  0  0
 10 12  1  0  0  0  0
 11 16  1  0  0  0  0
 12 13  1  1  0  0  0
 12 14  1  0  0  0  0
 14 15  1  6  0  0  0
 14 16  1  0  0  0  0
 16 27  1  6  0  0  0
 18 19  2  0  0  0  0
 18 23  1  0  0  0  0
 19 20  1  0  0  0  0
 20 21  2  0  0  0  0
 21 22  1  0  0  0  0
 21 27  1  0  0  0  0
 22 23  2  0  0  0  0
 22 25  1  0  0  0  0
 23 24  1  0  0  0  0
 25 26  2  0  0  0  0
 26 27  1  0  0  0  0
M  END
>  <CHROM.1>
114.06636616,-139.12973532,-64.86818186,85.45012011,-67.28047379,59.11414634
74.20731514,-4.18193935,-11.22589194,19.59073582,-0.64391622,1.29765034,-0.10625772

>  <Name>
ligand

>  <RI>
0

>  <Rbt.Current_Directory>
/home/itssahil/PROJECTS/Mol_Feturizer/Test_systems_manuscript/rnas/4kqy

>  <Rbt.Executable>
rbdock ($Id: //depot/dev/client3/rdock/2013.1/src/exe/rbdock.cxx#4 $)

>  <Rbt.Library>
libRbt.so (2013.1, Build901 2013/11/27)

>  <Rbt.Parameter_File>
/export/apps/rDock/src/rDock_2013.1_src/data/scripts/dock_solv.prm

>  <Rbt.Receptor>
prm/pocket_docking_4.prm

>  <SCORE>
-17.2424

>  <SCORE.INTER>
-14.995

>  <SCORE.INTER.CONST>
1

>  <SCORE.INTER.POLAR>
0

>  <SCORE.INTER.ROT>
7

>  <SCORE.INTER.SOLV>
15.8852

>  <SCORE.INTER.VDW>
-23.5584

>  <SCORE.INTER.norm>
-0.555372

>  <SCORE.INTRA>
-2.24739

>  <SCORE.INTRA.DIHEDRAL>
-1.12775

>  <SCORE.INTRA.DIHEDRAL.0>
10.4103

>  <SCORE.INTRA.POLAR>
0

>  <SCORE.INTRA.POLAR.0>
0

>  <SCORE.INTRA.REPUL>
0

>  <SCORE.INTRA.REPUL.0>
0

>  <SCORE.INTRA.SOLV>
-0.115416

>  <SCORE.INTRA.SOLV.lig_0>
-49.5008

>  <SCORE.INTRA.VDW>
-1.62581

>  <SCORE.INTRA.VDW.0>
-2.6946

>  <SCORE.INTRA.norm>
-0.0832368

>  <SCORE.RESTR>
0

>  <SCORE.RESTR.CAVITY>
0

>  <SCORE.RESTR.norm>
0

>  <SCORE.SYSTEM>
0

>  <SCORE.SYSTEM.CONST>
0

>  <SCORE.SYSTEM.DIHEDRAL>
0

>  <SCORE.SYSTEM.SOLV>
0

>  <SCORE.SYSTEM.norm>
0

>  <SCORE.heavy>
27

>  <SCORE.norm>
-0.638608

>  <RMSD>
1.402

$$$$
ligand
 OpenBabel02271912153D
libRbt.so/2013.1/901 2013/11/27
 27 29  0  0  0  0  0  0  0  0999 V2000
   -2.4491   -9.0788   16.7684 N   0  0  0  0  0  0  0  0  0  0  0  0
   -2.8125  -10.4827   16.8007 C   0  0  2  0  0  0  0  0  0  0  0  0
   -4.3084  -10.5559   16.7942 C   0  0  0  0  0  0  0  0  0  0  0  0
   -4.8949  -10.9584   15.7664 O   0  0  0  0  0  0  0  0  0  0  0  0
   -2.2532  -11.1515   18.0594 C   0  0  0  0  0  0  0  0  0  0  0  0
   -1.8176  -12.6071   17.7802 C   0  0  0  0  0  0  0  0  0  0  0  0
   -3.0576  -13.6750   17.4095 S   0  0  2  0  0  0  0  0  0  0  0  0
   -3.3551  -13.6285   15.7760 C   0  0  0  0  0  0  0  0  0  0  0  0
   -4.4434  -13.2639   18.2807 C   0  0  0  0  0  0  0  0  0  0  0  0
   -4.3328  -13.5244   19.7979 C   0  0  1  0  0  0  0  0  0  0  0  0
   -3.2779  -12.7764   20.4253 O   0  0  0  0  0  0  0  0  0  0  0  0
   -5.5522  -13.0698   20.5834 C   0  0  1  0  0  0  0  0  0  0  0  0
   -6.7398  -13.8824   20.4933 O   0  0  0  0  0  0  0  0  0  0  0  0
   -4.9710  -12.9908   21.9734 C   0  0  1  0  0  0  0  0  0  0  0  0
   -4.7438  -14.3012   22.4837 O   0  0  0  0  0  0  0  0  0  0  0  0
   -3.6476  -12.3273   21.7312 C   0  0  2  0  0  0  0  0  0  0  0  0
   -4.9441  -10.2425   17.8290 O   0  0  0  0  0  0  0  0  0  0  0  0
   -6.1327   -7.7554   20.6366 N   0  0  0  0  0  0  0  0  0  0  0  0
   -6.4684   -9.0174   20.2746 C   0  0  0  0  0  0  0  0  0  0  0  0
   -5.7377  -10.0913   20.6181 N   0  0  0  0  0  0  0  0  0  0  0  0
   -4.6328   -9.9845   21.3645 C   0  0  0  0  0  0  0  0  0  0  0  0
   -4.2321   -8.6565   21.8040 C   0  0  0  0  0  0  0  0  0  0  0  0
   -5.0337   -7.4763   21.4055 C   0  0  0  0  0  0  0  0  0  0  0  0
   -4.7008   -6.1932   21.7869 N   0  0  0  0  0  0  0  0  0  0  0  0
   -3.1440   -8.8306   22.5193 N   0  0  0  0  0  0  0  0  0  0  0  0
   -2.8397  -10.1356   22.5365 C   0  0  0  0  0  0  0  0  0  0  0  0
   -3.7363  -10.8394   21.8463 N   0  0  0  0  0  0  0  0  0  0  0  0
  2  1  1  1  0  0  0
  2  3  1  0  0  0  0
  2  5  1  0  0  0  0
  3  4  1  0  0  0  0
  3 17  1  0  0  0  0
  5  6  1  0  0  0  0
  7  6  1  6  0  0  0
  7  8  1  0  0  0  0
  7  9  1  0  0  0  0
 10  9  1  6  0  0  0
 10 11  1  0  0  0  0
 10 12  1  0  0  0  0
 11 16  1  0  0  0  0
 12 13  1  1  0  0  0
 12 14  1  0  0  0  0
 14 15  1  6  0  0  0
 14 16  1  0  0  0  0
 16 27  1  6  0  0  0
 18 19  2  0  0  0  0
 18 23  1  0  0  0  0
 19 20  1  0  0  0  0
 20 21  2  0  0  0  0
 21 22  1  0  0  0  0
 21 27  1  0  0  0  0
 22 23  2  0  0  0  0
 22 25  1  0  0  0  0
 23 24  1  0  0  0  0
 25 26  2  0  0  0  0
 26 27  1  0  0  0  0
M  END
>  <CHROM.1>
108.60232772,-144.44879813,-66.75562370,87.15490849,-69.54359238,60.67916612
72.03463922,-4.18130155,-11.21851107,19.59822373,-0.62576782,1.32017265,-0.10751418

>  <Name>
ligand

>  <RI>
0

>  <Rbt.Current_Directory>
/home/itssahil/PROJECTS/Mol_Feturizer/Test_systems_manuscript/rnas/4kqy

>  <Rbt.Executable>
rbdock ($Id: //depot/dev/client3/rdock/2013.1/src/exe/rbdock.cxx#4 $)

>  <Rbt.Library>
libRbt.so (2013.1, Build901 2013/11/27)

>  <Rbt.Parameter_File>
/export/apps/rDock/src/rDock_2013.1_src/data/scripts/dock_solv.prm

>  <Rbt.Receptor>
prm/pocket_docking_3.prm

>  <SCORE>
-17.2189

>  <SCORE.INTER>
-14.9627

>  <SCORE.INTER.CONST>
1

>  <SCORE.INTER.POLAR>
0

>  <SCORE.INTER.ROT>
7

>  <SCORE.INTER.SOLV>
15.9717

>  <SCORE.INTER.VDW>
-23.5657

>  <SCORE.INTER.norm>
-0.554173

>  <SCORE.INTRA>
-2.2562

>  <SCORE.INTRA.DIHEDRAL>
-1.43623

>  <SCORE.INTRA.DIHEDRAL.0>
10.4103

>  <SCORE.INTRA.POLAR>
0

>  <SCORE.INTRA.POLAR.0>
0

>  <SCORE.INTRA.REPUL>
0

>  <SCORE.INTRA.REPUL.0>
0

>  <SCORE.INTRA.SOLV>
-0.205807

>  <SCORE.INTRA.SOLV.lig_0>
-49.5008

>  <SCORE.INTRA.VDW>
-1.43518

>  <SCORE.INTRA.VDW.0>
-2.6946

>  <SCORE.INTRA.norm>
-0.083563

>  <SCORE.RESTR>
0

>  <SCORE.RESTR.CAVITY>
0

>  <SCORE.RESTR.norm>
0

>  <SCORE.SYSTEM>
0

>  <SCORE.SYSTEM.CONST>
0

>  <SCORE.SYSTEM.DIHEDRAL>
0

>  <SCORE.SYSTEM.SOLV>
0

>  <SCORE.SYSTEM.norm>
0

>  <SCORE.heavy>
27

>  <SCORE.norm>
-0.637736

>  <RMSD>
1.416

$$$$
ligand
 OpenBabel02271912153D
libRbt.so/2013.1/901 2013/11/27
 27 29  0  0  0  0  0  0  0  0999 V2000
   -2.0311   -8.2601   15.3759 N   0  0  0  0  0  0  0  0  0  0  0  0
   -2.7421   -9.2756   16.1292 C   0  0  2  0  0  0  0  0  0  0  0  0
   -1.9904   -9.4903   17.4067 C   0  0  0  0  0  0  0  0  0  0  0  0
   -2.4495   -9.0217   18.4706 O   0  0  0  0  0  0  0  0  0  0  0  0
   -2.8168  -10.5800   15.3310 C   0  0  0  0  0  0  0  0  0  0  0  0
   -3.8010  -11.5814   15.9751 C   0  0  0  0  0  0  0  0  0  0  0  0
   -3.2824  -12.2866   17.4066 S   0  0  2  0  0  0  0  0  0  0  0  0
   -2.1238  -13.4282   17.0704 C   0  0  0  0  0  0  0  0  0  0  0  0
   -4.5945  -12.9848   18.2061 C   0  0  0  0  0  0  0  0  0  0  0  0
   -4.3406  -13.2699   19.7015 C   0  0  1  0  0  0  0  0  0  0  0  0
   -3.2828  -12.4718   20.2583 O   0  0  0  0  0  0  0  0  0  0  0  0
   -5.5141  -12.9078   20.5973 C   0  0  1  0  0  0  0  0  0  0  0  0
   -6.6546  -13.7897   20.5851 O   0  0  0  0  0  0  0  0  0  0  0  0
   -4.8230  -12.8226   21.9357 C   0  0  1  0  0  0  0  0  0  0  0  0
   -4.4759  -14.1269   22.3909 O   0  0  0  0  0  0  0  0  0  0  0  0
   -3.5668  -12.0740   21.6017 C   0  0  2  0  0  0  0  0  0  0  0  0
   -0.9315  -10.1623   17.3919 O   0  0  0  0  0  0  0  0  0  0  0  0
   -6.2124   -7.5867   20.5337 N   0  0  0  0  0  0  0  0  0  0  0  0
   -6.4672   -8.8490   20.1114 C   0  0  0  0  0  0  0  0  0  0  0  0
   -5.7035   -9.8993   20.4563 N   0  0  0  0  0  0  0  0  0  0  0  0
   -4.6449   -9.7682   21.2635 C   0  0  0  0  0  0  0  0  0  0  0  0
   -4.3326   -8.4398   21.7687 C   0  0  0  0  0  0  0  0  0  0  0  0
   -5.1693   -7.2847   21.3688 C   0  0  0  0  0  0  0  0  0  0  0  0
   -4.9195   -6.0022   21.8110 N   0  0  0  0  0  0  0  0  0  0  0  0
   -3.2755   -8.5887   22.5344 N   0  0  0  0  0  0  0  0  0  0  0  0
   -2.9092   -9.8778   22.5231 C   0  0  0  0  0  0  0  0  0  0  0  0
   -3.7338  -10.5971   21.7627 N   0  0  0  0  0  0  0  0  0  0  0  0
  2  1  1  6  0  0  0
  2  3  1  0  0  0  0
  2  5  1  0  0  0  0
  3  4  1  0  0  0  0
  3 17  1  0  0  0  0
  5  6  1  0  0  0  0
  7  6  1  6  0  0  0
  7  8  1  0  0  0  0
  7  9  1  0  0  0  0
 10  9  1  6  0  0  0
 10 11  1  0  0  0  0
 10 12  1  0  0  0  0
 11 16  1  0  0  0  0
 12 13  1  1  0  0  0
 12 14  1  0  0  0  0
 14 15  1  6  0  0  0
 14 16  1  0  0  0  0
 16 27  1  6  0  0  0
 18 19  2  0  0  0  0
 18 23  1  0  0  0  0
 19 20  1  0  0  0  0
 20 21  2  0  0  0  0
 21 22  1  0  0  0  0
 21 27  1  0  0  0  0
 22 23  2  0  0  0  0
 22 25  1  0  0  0  0
 23 24  1  0  0  0  0
 25 26  2  0  0  0  0
 26 27  1  0  0  0  0
M  END
>  <CHROM.1>
104.91880914,-168.59223536,-71.98677931,-74.57997963,-162.00053642,21.88938454
64.16318273,-3.89687382,-10.72340589,19.48461325,-0.33017110,1.14286610,0.15614045

>  <Name>
ligand

>  <RI>
0

>  <Rbt.Current_Directory>
/home/itssahil/PROJECTS/Mol_Feturizer/Test_systems_manuscript/rnas/4kqy

>  <Rbt.Executable>
rbdock ($Id: //depot/dev/client3/rdock/2013.1/src/exe/rbdock.cxx#4 $)

>  <Rbt.Library>
libRbt.so (2013.1, Build901 2013/11/27)

>  <Rbt.Parameter_File>
/export/apps/rDock/src/rDock_2013.1_src/data/scripts/dock_solv.prm

>  <Rbt.Receptor>
prm/pocket_docking_2.prm

>  <SCORE>
-15.2101

>  <SCORE.INTER>
-13.1582

>  <SCORE.INTER.CONST>
1

>  <SCORE.INTER.POLAR>
0

>  <SCORE.INTER.ROT>
7

>  <SCORE.INTER.SOLV>
19.9314

>  <SCORE.INTER.VDW>
-23.6826

>  <SCORE.INTER.norm>
-0.48734

>  <SCORE.INTRA>
-2.05192

>  <SCORE.INTRA.DIHEDRAL>
-1.29555

>  <SCORE.INTRA.DIHEDRAL.0>
10.4103

>  <SCORE.INTRA.POLAR>
0

>  <SCORE.INTRA.POLAR.0>
0

>  <SCORE.INTRA.REPUL>
0

>  <SCORE.INTRA.REPUL.0>
0

>  <SCORE.INTRA.SOLV>
-0.444284

>  <SCORE.INTRA.SOLV.lig_0>
-49.5008

>  <SCORE.INTRA.VDW>
-1.18201

>  <SCORE.INTRA.VDW.0>
-2.6946

>  <SCORE.INTRA.norm>
-0.0759972

>  <SCORE.RESTR>
0

>  <SCORE.RESTR.CAVITY>
0

>  <SCORE.RESTR.norm>
0

>  <SCORE.SYSTEM>
0

>  <SCORE.SYSTEM.CONST>
0

>  <SCORE.SYSTEM.DIHEDRAL>
0

>  <SCORE.SYSTEM.SOLV>
0

>  <SCORE.SYSTEM.norm>
0

>  <SCORE.heavy>
27

>  <SCORE.norm>
-0.563337

>  <RMSD>
1.429

$$$$
ligand
 OpenBabel02271912153D
libRbt.so/2013.1/901 2013/11/27
 27 29  0  0  0  0  0  0  0  0999 V2000
   -2.5289   -9.0981   16.8010 N   0  0  0  0  0  0  0  0  0  0  0  0
   -2.9047  -10.4972   16.8761 C   0  0  2  0  0  0  0  0  0  0  0  0
   -4.4006  -10.5546   16.9233 C   0  0  0  0  0  0  0  0  0  0  0  0
   -5.0200  -11.0975   15.9831 O   0  0  0  0  0  0  0  0  0  0  0  0
   -2.3083  -11.1450   18.1287 C   0  0  0  0  0  0  0  0  0  0  0  0
   -1.8328  -12.5876   17.8473 C   0  0  0  0  0  0  0  0  0  0  0  0
   -3.0301  -13.6659   17.3795 S   0  0  2  0  0  0  0  0  0  0  0  0
   -3.2606  -13.5556   15.7383 C   0  0  0  0  0  0  0  0  0  0  0  0
   -4.4604  -13.3239   18.2076 C   0  0  0  0  0  0  0  0  0  0  0  0
   -4.3878  -13.5921   19.7257 C   0  0  1  0  0  0  0  0  0  0  0  0
   -3.3179  -12.8853   20.3750 O   0  0  0  0  0  0  0  0  0  0  0  0
   -5.6041  -13.0948   20.4900 C   0  0  1  0  0  0  0  0  0  0  0  0
   -6.8189  -13.8627   20.3752 O   0  0  0  0  0  0  0  0  0  0  0  0
   -5.0463  -13.0410   21.8908 C   0  0  1  0  0  0  0  0  0  0  0  0
   -4.8772  -14.3602   22.4008 O   0  0  0  0  0  0  0  0  0  0  0  0
   -3.6950  -12.4262   21.6753 C   0  0  2  0  0  0  0  0  0  0  0  0
   -5.0031  -10.0860   17.9185 O   0  0  0  0  0  0  0  0  0  0  0  0
   -6.0879   -7.7775   20.7061 N   0  0  0  0  0  0  0  0  0  0  0  0
   -6.4813   -9.0281   20.3627 C   0  0  0  0  0  0  0  0  0  0  0  0
   -5.7681  -10.1247   20.6691 N   0  0  0  0  0  0  0  0  0  0  0  0
   -4.6235  -10.0533   21.3578 C   0  0  0  0  0  0  0  0  0  0  0  0
   -4.1592   -8.7389   21.7750 C   0  0  0  0  0  0  0  0  0  0  0  0
   -4.9427   -7.5338   21.4173 C   0  0  0  0  0  0  0  0  0  0  0  0
   -4.5505   -6.2620   21.7801 N   0  0  0  0  0  0  0  0  0  0  0  0
   -3.0419   -8.9478   22.4337 N   0  0  0  0  0  0  0  0  0  0  0  0
   -2.7783  -10.2617   22.4363 C   0  0  0  0  0  0  0  0  0  0  0  0
   -3.7309  -10.9363   21.7936 N   0  0  0  0  0  0  0  0  0  0  0  0
  2  1  1  1  0  0  0
  2  3  1  0  0  0  0
  2  5  1  0  0  0  0
  3  4  1  0  0  0  0
  3 17  1  0  0  0  0
  5  6  1  0  0  0  0
  7  6  1  1  0  0  0
  7  8  1  0  0  0  0
  7  9  1  0  0  0  0
 10  9  1  6  0  0  0
 10 11  1  0  0  0  0
 10 12  1  0  0  0  0
 11 16  1  0  0  0  0
 12 13  1  1  0  0  0
 12 14  1  0  0  0  0
 14 15  1  6  0  0  0
 14 16  1  0  0  0  0
 16 27  1  6  0  0  0
 18 19  2  0  0  0  0
 18 23  1  0  0  0  0
 19 20  1  0  0  0  0
 20 21  2  0  0  0  0
 21 22  1  0  0  0  0
 21 27  1  0  0  0  0
 22 23  2  0  0  0  0
 22 25  1  0  0  0  0
 23 24  1  0  0  0  0
 25 26  2  0  0  0  0
 26 27  1  0  0  0  0
M  END
>  <CHROM.1>
115.83450561,-141.62628918,-62.17065484,85.42958815,-67.15097995,55.94666244
76.05751729,-4.19628427,-11.25351354,19.59437038,-0.75271908,1.30762354,-0.00943577

>  <Name>
ligand

>  <RI>
0

>  <Rbt.Current_Directory>
/home/itssahil/PROJECTS/Mol_Feturizer/Test_systems_manuscript/rnas/4kqy

>  <Rbt.Executable>
rbdock ($Id: //depot/dev/client3/rdock/2013.1/src/exe/rbdock.cxx#4 $)

>  <Rbt.Library>
libRbt.so (2013.1, Build901 2013/11/27)

>  <Rbt.Parameter_File>
/export/apps/rDock/src/rDock_2013.1_src/data/scripts/dock_solv.prm

>  <Rbt.Receptor>
prm/pocket_docking_8.prm

>  <SCORE>
-17.0253

>  <SCORE.INTER>
-14.8499

>  <SCORE.INTER.CONST>
1

>  <SCORE.INTER.POLAR>
0

>  <SCORE.INTER.ROT>
7

>  <SCORE.INTER.SOLV>
15.4903

>  <SCORE.INTER.VDW>
-23.33

>  <SCORE.INTER.norm>
-0.549995

>  <SCORE.INTRA>
-2.17545

>  <SCORE.INTRA.DIHEDRAL>
-1.49456

>  <SCORE.INTRA.DIHEDRAL.0>
10.4103

>  <SCORE.INTRA.POLAR>
0

>  <SCORE.INTRA.POLAR.0>
0

>  <SCORE.INTRA.REPUL>
0

>  <SCORE.INTRA.REPUL.0>
0

>  <SCORE.INTRA.SOLV>
-0.0831705

>  <SCORE.INTRA.SOLV.lig_0>
-49.5008

>  <SCORE.INTRA.VDW>
-1.38659

>  <SCORE.INTRA.VDW.0>
-2.6946

>  <SCORE.INTRA.norm>
-0.0805723

>  <SCORE.RESTR>
0

>  <SCORE.RESTR.CAVITY>
0

>  <SCORE.RESTR.norm>
0

>  <SCORE.SYSTEM>
0

>  <SCORE.SYSTEM.CONST>
0

>  <SCORE.SYSTEM.DIHEDRAL>
0

>  <SCORE.SYSTEM.SOLV>
0

>  <SCORE.SYSTEM.norm>
0

>  <SCORE.heavy>
27

>  <SCORE.norm>
-0.630567

>  <RMSD>
1.442

$$$$
ligand
 OpenBabel02271912153D
libRbt.so/2013.1/901 2013/11/27
 27 29  0  0  0  0  0  0  0  0999 V2000
   -3.1575   -9.2981   16.3577 N   0  0  0  0  0  0  0  0  0  0  0  0
   -2.7451  -10.2815   17.3410 C   0  0  2  0  0  0  0  0  0  0  0  0
   -2.2929   -9.5330   18.5569 C   0  0  0  0  0  0  0  0  0  0  0  0
   -2.2428  -10.1272   19.6554 O   0  0  0  0  0  0  0  0  0  0  0  0
   -1.6039  -11.1418   16.7916 C   0  0  0  0  0  0  0  0  0  0  0  0
   -1.3946  -12.4139   17.6427 C   0  0  0  0  0  0  0  0  0  0  0  0
   -2.5724  -13.5974   17.4768 S   0  0  2  0  0  0  0  0  0  0  0  0
   -2.8149  -13.9112   15.8639 C   0  0  0  0  0  0  0  0  0  0  0  0
   -4.0044  -13.0828   18.2069 C   0  0  0  0  0  0  0  0  0  0  0  0
   -4.0696  -13.3547   19.7246 C   0  0  1  0  0  0  0  0  0  0  0  0
   -3.0923  -12.6145   20.4749 O   0  0  0  0  0  0  0  0  0  0  0  0
   -5.3703  -12.9022   20.3682 C   0  0  1  0  0  0  0  0  0  0  0  0
   -6.5414  -13.7105   20.1359 O   0  0  0  0  0  0  0  0  0  0  0  0
   -4.9526  -12.8353   21.8164 C   0  0  1  0  0  0  0  0  0  0  0  0
   -4.7884  -14.1501   22.3393 O   0  0  0  0  0  0  0  0  0  0  0  0
   -3.6087  -12.1740   21.7330 C   0  0  2  0  0  0  0  0  0  0  0  0
   -1.9427   -8.3337   18.4461 O   0  0  0  0  0  0  0  0  0  0  0  0
   -6.1767   -7.6279   20.7259 N   0  0  0  0  0  0  0  0  0  0  0  0
   -6.5143   -8.8938   20.3795 C   0  0  0  0  0  0  0  0  0  0  0  0
   -5.7609   -9.9601   20.6968 N   0  0  0  0  0  0  0  0  0  0  0  0
   -4.6291   -9.8413   21.3999 C   0  0  0  0  0  0  0  0  0  0  0  0
   -4.2243   -8.5086   21.8211 C   0  0  0  0  0  0  0  0  0  0  0  0
   -5.0517   -7.3369   21.4514 C   0  0  0  0  0  0  0  0  0  0  0  0
   -4.7164   -6.0498   21.8173 N   0  0  0  0  0  0  0  0  0  0  0  0
   -3.1080   -8.6710   22.4944 N   0  0  0  0  0  0  0  0  0  0  0  0
   -2.7911   -9.9731   22.5024 C   0  0  0  0  0  0  0  0  0  0  0  0
   -3.7069  -10.6867   21.8485 N   0  0  0  0  0  0  0  0  0  0  0  0
  2  1  1  6  0  0  0
  2  3  1  0  0  0  0
  2  5  1  0  0  0  0
  3  4  1  0  0  0  0
  3 17  1  0  0  0  0
  5  6  1  0  0  0  0
  7  6  1  6  0  0  0
  7  8  1  0  0  0  0
  7  9  1  0  0  0  0
 10  9  1  6  0  0  0
 10 11  1  0  0  0  0
 10 12  1  0  0  0  0
 11 16  1  0  0  0  0
 12 13  1  1  0  0  0
 12 14  1  0  0  0  0
 14 15  1  6  0  0  0
 14 16  1  0  0  0  0
 16 27  1  6  0  0  0
 18 19  2  0  0  0  0
 18 23  1  0  0  0  0
 19 20  1  0  0  0  0
 20 21  2  0  0  0  0
 21 22  1  0  0  0  0
 21 27  1  0  0  0  0
 22 23  2  0  0  0  0
 22 25  1  0  0  0  0
 23 24  1  0  0  0  0
 25 26  2  0  0  0  0
 26 27  1  0  0  0  0
M  END
>  <CHROM.1>
160.25436721,-165.03638039,72.73314585,50.42240987,-84.59287936,65.00872553
80.88556917,-3.76586707,-10.97752521,19.77437823,-1.00865459,1.01863537,0.18932440

>  <Name>
ligand

>  <RI>
0

>  <Rbt.Current_Directory>
/home/itssahil/PROJECTS/Mol_Feturizer/Test_systems_manuscript/rnas/4kqy

>  <Rbt.Executable>
rbdock ($Id: //depot/dev/client3/rdock/2013.1/src/exe/rbdock.cxx#4 $)

>  <Rbt.Library>
libRbt.so (2013.1, Build901 2013/11/27)

>  <Rbt.Parameter_File>
/export/apps/rDock/src/rDock_2013.1_src/data/scripts/dock_solv.prm

>  <Rbt.Receptor>
prm/pocket_docking_3.prm

>  <SCORE>
-22.2921

>  <SCORE.INTER>
-18.5234

>  <SCORE.INTER.CONST>
1

>  <SCORE.INTER.POLAR>
0

>  <SCORE.INTER.ROT>
7

>  <SCORE.INTER.SOLV>
15.5545

>  <SCORE.INTER.VDW>
-25.8005

>  <SCORE.INTER.norm>
-0.686052

>  <SCORE.INTRA>
-3.76872

>  <SCORE.INTRA.DIHEDRAL>
-4.05977

>  <SCORE.INTRA.DIHEDRAL.0>
10.4103

>  <SCORE.INTRA.POLAR>
0

>  <SCORE.INTRA.POLAR.0>
0

>  <SCORE.INTRA.REPUL>
0

>  <SCORE.INTRA.REPUL.0>
0

>  <SCORE.INTRA.SOLV>
0.173399

>  <SCORE.INTRA.SOLV.lig_0>
-49.5008

>  <SCORE.INTRA.VDW>
-1.82554

>  <SCORE.INTRA.VDW.0>
-2.6946

>  <SCORE.INTRA.norm>
-0.139582

>  <SCORE.RESTR>
0

>  <SCORE.RESTR.CAVITY>
0

>  <SCORE.RESTR.norm>
0

>  <SCORE.SYSTEM>
0

>  <SCORE.SYSTEM.CONST>
0

>  <SCORE.SYSTEM.DIHEDRAL>
0

>  <SCORE.SYSTEM.SOLV>
0

>  <SCORE.SYSTEM.norm>
0

>  <SCORE.heavy>
27

>  <SCORE.norm>
-0.825635

>  <RMSD>
1.448

$$$$
ligand
 OpenBabel02271912153D
libRbt.so/2013.1/901 2013/11/27
 27 29  0  0  0  0  0  0  0  0999 V2000
   -4.8226   -8.0419   16.2206 N   0  0  0  0  0  0  0  0  0  0  0  0
   -3.8010   -8.9187   16.7608 C   0  0  2  0  0  0  0  0  0  0  0  0
   -2.5794   -8.0855   16.9987 C   0  0  0  0  0  0  0  0  0  0  0  0
   -2.3711   -7.0878   16.2751 O   0  0  0  0  0  0  0  0  0  0  0  0
   -3.4900  -10.0487   15.7757 C   0  0  0  0  0  0  0  0  0  0  0  0
   -3.9997  -11.4103   16.2980 C   0  0  0  0  0  0  0  0  0  0  0  0
   -3.4833  -11.8341   17.8372 S   0  0  2  0  0  0  0  0  0  0  0  0
   -1.8242  -11.9072   17.8612 C   0  0  0  0  0  0  0  0  0  0  0  0
   -4.1529  -13.3205   18.2739 C   0  0  0  0  0  0  0  0  0  0  0  0
   -4.2406  -13.5473   19.7980 C   0  0  1  0  0  0  0  0  0  0  0  0
   -3.2284  -12.8412   20.5346 O   0  0  0  0  0  0  0  0  0  0  0  0
   -5.5181  -13.0077   20.4206 C   0  0  1  0  0  0  0  0  0  0  0  0
   -6.7302  -13.7572   20.2022 O   0  0  0  0  0  0  0  0  0  0  0  0
   -5.1048  -12.9243   21.8692 C   0  0  1  0  0  0  0  0  0  0  0  0
   -5.0151  -14.2314   22.4281 O   0  0  0  0  0  0  0  0  0  0  0  0
   -3.7266  -12.3394   21.7770 C   0  0  2  0  0  0  0  0  0  0  0  0
   -1.8042   -8.3845   17.9383 O   0  0  0  0  0  0  0  0  0  0  0  0
   -6.0641   -7.6920   20.6753 N   0  0  0  0  0  0  0  0  0  0  0  0
   -6.4731   -8.9472   20.3687 C   0  0  0  0  0  0  0  0  0  0  0  0
   -5.7728  -10.0431   20.7062 N   0  0  0  0  0  0  0  0  0  0  0  0
   -4.6266   -9.9656   21.3916 C   0  0  0  0  0  0  0  0  0  0  0  0
   -4.1460   -8.6454   21.7701 C   0  0  0  0  0  0  0  0  0  0  0  0
   -4.9152   -7.4417   21.3782 C   0  0  0  0  0  0  0  0  0  0  0  0
   -4.5072   -6.1648   21.7036 N   0  0  0  0  0  0  0  0  0  0  0  0
   -3.0305   -8.8486   22.4337 N   0  0  0  0  0  0  0  0  0  0  0  0
   -2.7829  -10.1650   22.4742 C   0  0  0  0  0  0  0  0  0  0  0  0
   -3.7442  -10.8464   21.8521 N   0  0  0  0  0  0  0  0  0  0  0  0
  2  1  1  6  0  0  0
  2  3  1  0  0  0  0
  2  5  1  0  0  0  0
  3  4  1  0  0  0  0
  3 17  1  0  0  0  0
  5  6  1  0  0  0  0
  7  6  1  6  0  0  0
  7  8  1  0  0  0  0
  7  9  1  0  0  0  0
 10  9  1  6  0  0  0
 10 11  1  0  0  0  0
 10 12  1  0  0  0  0
 11 16  1  0  0  0  0
 12 13  1  1  0  0  0
 12 14  1  0  0  0  0
 14 15  1  6  0  0  0
 14 16  1  0  0  0  0
 16 27  1  6  0  0  0
 18 19  2  0  0  0  0
 18 23  1  0  0  0  0
 19 20  1  0  0  0  0
 20 21  2  0  0  0  0
 21 22  1  0  0  0  0
 21 27  1  0  0  0  0
 22 23  2  0  0  0  0
 22 25  1  0  0  0  0
 23 24  1  0  0  0  0
 25 26  2  0  0  0  0
 26 27  1  0  0  0  0
M  END
>  <CHROM.1>
-29.42696785,-110.01470483,-53.52746496,-59.73532191,-156.43788161,-28.16678327
81.98533134,-4.09408645,-10.50445315,19.57025507,-0.58872726,-1.28410478
-2.90259913

>  <Name>
ligand

>  <RI>
0

>  <Rbt.Current_Directory>
/home/itssahil/PROJECTS/Mol_Feturizer/Test_systems_manuscript/rnas/4kqy

>  <Rbt.Executable>
rbdock ($Id: //depot/dev/client3/rdock/2013.1/src/exe/rbdock.cxx#4 $)

>  <Rbt.Library>
libRbt.so (2013.1, Build901 2013/11/27)

>  <Rbt.Parameter_File>
/export/apps/rDock/src/rDock_2013.1_src/data/scripts/dock_solv.prm

>  <Rbt.Receptor>
prm/pocket_docking_2.prm

>  <SCORE>
-14.3779

>  <SCORE.INTER>
-14.6632

>  <SCORE.INTER.CONST>
1

>  <SCORE.INTER.POLAR>
0

>  <SCORE.INTER.ROT>
7

>  <SCORE.INTER.SOLV>
18.8455

>  <SCORE.INTER.VDW>
-24.3239

>  <SCORE.INTER.norm>
-0.543081

>  <SCORE.INTRA>
0.275681

>  <SCORE.INTRA.DIHEDRAL>
2.43175

>  <SCORE.INTRA.DIHEDRAL.0>
10.4103

>  <SCORE.INTRA.POLAR>
0

>  <SCORE.INTRA.POLAR.0>
0

>  <SCORE.INTRA.REPUL>
0

>  <SCORE.INTRA.REPUL.0>
0

>  <SCORE.INTRA.SOLV>
0.109935

>  <SCORE.INTRA.SOLV.lig_0>
-49.5008

>  <SCORE.INTRA.VDW>
-0.995163

>  <SCORE.INTRA.VDW.0>
-2.6946

>  <SCORE.INTRA.norm>
0.0102104

>  <SCORE.RESTR>
0.0095992

>  <SCORE.RESTR.CAVITY>
0.0095992

>  <SCORE.RESTR.norm>
0.000355526

>  <SCORE.SYSTEM>
0

>  <SCORE.SYSTEM.CONST>
0

>  <SCORE.SYSTEM.DIHEDRAL>
0

>  <SCORE.SYSTEM.SOLV>
0

>  <SCORE.SYSTEM.norm>
0

>  <SCORE.heavy>
27

>  <SCORE.norm>
-0.532515

>  <RMSD>
1.449

$$$$
ligand
 OpenBabel02271912153D
libRbt.so/2013.1/901 2013/11/27
 27 29  0  0  0  0  0  0  0  0999 V2000
   -4.8778   -8.4260   15.6886 N   0  0  0  0  0  0  0  0  0  0  0  0
   -3.7582   -8.9987   16.4115 C   0  0  2  0  0  0  0  0  0  0  0  0
   -2.7248   -7.9242   16.5559 C   0  0  0  0  0  0  0  0  0  0  0  0
   -2.6897   -6.9955   15.7201 O   0  0  0  0  0  0  0  0  0  0  0  0
   -3.1806  -10.1920   15.6456 C   0  0  0  0  0  0  0  0  0  0  0  0
   -3.7919  -11.5250   16.1312 C   0  0  0  0  0  0  0  0  0  0  0  0
   -3.6329  -11.8387   17.7718 S   0  0  2  0  0  0  0  0  0  0  0  0
   -2.0381  -11.6861   18.2101 C   0  0  0  0  0  0  0  0  0  0  0  0
   -4.1999  -13.3914   18.1128 C   0  0  0  0  0  0  0  0  0  0  0  0
   -4.4793  -13.6444   19.6094 C   0  0  1  0  0  0  0  0  0  0  0  0
   -3.5257  -13.0107   20.4784 O   0  0  0  0  0  0  0  0  0  0  0  0
   -5.7914  -13.0478   20.0923 C   0  0  1  0  0  0  0  0  0  0  0  0
   -7.0068  -13.7245   19.7133 O   0  0  0  0  0  0  0  0  0  0  0  0
   -5.5488  -13.0173   21.5811 C   0  0  1  0  0  0  0  0  0  0  0  0
   -5.5948  -14.3386   22.1113 O   0  0  0  0  0  0  0  0  0  0  0  0
   -4.1406  -12.5078   21.6669 C   0  0  2  0  0  0  0  0  0  0  0  0
   -1.9342   -7.9578   17.5290 O   0  0  0  0  0  0  0  0  0  0  0  0
   -6.0985   -7.7175   20.4440 N   0  0  0  0  0  0  0  0  0  0  0  0
   -6.5362   -8.9416   20.0615 C   0  0  0  0  0  0  0  0  0  0  0  0
   -5.9350  -10.0810   20.4432 N   0  0  0  0  0  0  0  0  0  0  0  0
   -4.8682  -10.0808   21.2503 C   0  0  0  0  0  0  0  0  0  0  0  0
   -4.3638   -8.7970   21.7138 C   0  0  0  0  0  0  0  0  0  0  0  0
   -5.0219   -7.5451   21.2735 C   0  0  0  0  0  0  0  0  0  0  0  0
   -4.5860   -6.2996   21.6752 N   0  0  0  0  0  0  0  0  0  0  0  0
   -3.3396   -9.0748   22.4884 N   0  0  0  0  0  0  0  0  0  0  0  0
   -3.1668  -10.4033   22.5200 C   0  0  0  0  0  0  0  0  0  0  0  0
   -4.0886  -11.0179   21.7797 N   0  0  0  0  0  0  0  0  0  0  0  0
  2  1  1  6  0  0  0
  2  3  1  0  0  0  0
  2  5  1  0  0  0  0
  3  4  1  0  0  0  0
  3 17  1  0  0  0  0
  5  6  1  0  0  0  0
  7  6  1  6  0  0  0
  7  8  1  0  0  0  0
  7  9  1  0  0  0  0
 10  9  1  6  0  0  0
 10 11  1  0  0  0  0
 10 12  1  0  0  0  0
 11 16  1  0  0  0  0
 12 13  1  1  0  0  0
 12 14  1  0  0  0  0
 14 15  1  6  0  0  0
 14 16  1  0  0  0  0
 16 27  1  6  0  0  0
 18 19  2  0  0  0  0
 18 23  1  0  0  0  0
 19 20  1  0  0  0  0
 20 21  2  0  0  0  0
 21 22  1  0  0  0  0
 21 27  1  0  0  0  0
 22 23  2  0  0  0  0
 22 25  1  0  0  0  0
 23 24  1  0  0  0  0
 25 26  2  0  0  0  0
 26 27  1  0  0  0  0
M  END
>  <CHROM.1>
-25.84355952,-94.20930869,-56.33148096,-52.39378755,-163.47515182,-37.39403439
82.51188310,-4.27857771,-10.56157253,19.37541232,-0.41196880,-1.26805459
-2.78741266

>  <Name>
ligand

>  <RI>
0

>  <Rbt.Current_Directory>
/home/itssahil/PROJECTS/Mol_Feturizer/Test_systems_manuscript/rnas/4kqy

>  <Rbt.Executable>
rbdock ($Id: //depot/dev/client3/rdock/2013.1/src/exe/rbdock.cxx#4 $)

>  <Rbt.Library>
libRbt.so (2013.1, Build901 2013/11/27)

>  <Rbt.Parameter_File>
/export/apps/rDock/src/rDock_2013.1_src/data/scripts/dock_solv.prm

>  <Rbt.Receptor>
prm/pocket_docking_2.prm

>  <SCORE>
-14.9848

>  <SCORE.INTER>
-13.9395

>  <SCORE.INTER.CONST>
1

>  <SCORE.INTER.POLAR>
0

>  <SCORE.INTER.ROT>
7

>  <SCORE.INTER.SOLV>
18.0958

>  <SCORE.INTER.VDW>
-23.5916

>  <SCORE.INTER.norm>
-0.516279

>  <SCORE.INTRA>
-1.07406

>  <SCORE.INTRA.DIHEDRAL>
-1.41581

>  <SCORE.INTRA.DIHEDRAL.0>
10.4103

>  <SCORE.INTRA.POLAR>
0

>  <SCORE.INTRA.POLAR.0>
0

>  <SCORE.INTRA.REPUL>
0

>  <SCORE.INTRA.REPUL.0>
0

>  <SCORE.INTRA.SOLV>
0.363605

>  <SCORE.INTRA.SOLV.lig_0>
-49.5008

>  <SCORE.INTRA.VDW>
-0.547962

>  <SCORE.INTRA.VDW.0>
-2.6946

>  <SCORE.INTRA.norm>
-0.0397801

>  <SCORE.RESTR>
0.0287971

>  <SCORE.RESTR.CAVITY>
0.0287971

>  <SCORE.RESTR.norm>
0.00106656

>  <SCORE.SYSTEM>
0

>  <SCORE.SYSTEM.CONST>
0

>  <SCORE.SYSTEM.DIHEDRAL>
0

>  <SCORE.SYSTEM.SOLV>
0

>  <SCORE.SYSTEM.norm>
0

>  <SCORE.heavy>
27

>  <SCORE.norm>
-0.554992

>  <RMSD>
1.449

$$$$
ligand
 OpenBabel02271912153D
libRbt.so/2013.1/901 2013/11/27
 27 29  0  0  0  0  0  0  0  0999 V2000
   -5.5178   -8.4944   16.6703 N   0  0  0  0  0  0  0  0  0  0  0  0
   -4.2787   -9.2272   16.8493 C   0  0  2  0  0  0  0  0  0  0  0  0
   -3.1691   -8.2221   16.8918 C   0  0  0  0  0  0  0  0  0  0  0  0
   -2.1783   -8.4380   17.6225 O   0  0  0  0  0  0  0  0  0  0  0  0
   -4.0643  -10.2068   15.6924 C   0  0  0  0  0  0  0  0  0  0  0  0
   -2.7463  -10.9957   15.8564 C   0  0  0  0  0  0  0  0  0  0  0  0
   -2.4330  -11.5677   17.4023 S   0  0  2  0  0  0  0  0  0  0  0  0
   -0.8879  -12.1740   17.4630 C   0  0  0  0  0  0  0  0  0  0  0  0
   -3.5581  -12.7585   17.8083 C   0  0  0  0  0  0  0  0  0  0  0  0
   -3.6153  -13.0817   19.3163 C   0  0  1  0  0  0  0  0  0  0  0  0
   -2.6793  -12.3178   20.0950 O   0  0  0  0  0  0  0  0  0  0  0  0
   -4.9396  -12.7156   19.9668 C   0  0  1  0  0  0  0  0  0  0  0  0
   -6.0678  -13.5736   19.7026 O   0  0  0  0  0  0  0  0  0  0  0  0
   -4.5313  -12.6741   21.4186 C   0  0  1  0  0  0  0  0  0  0  0  0
   -4.3034  -13.9950   21.9005 O   0  0  0  0  0  0  0  0  0  0  0  0
   -3.2220  -11.9441   21.3636 C   0  0  2  0  0  0  0  0  0  0  0  0
   -3.2386   -7.1982   16.1707 O   0  0  0  0  0  0  0  0  0  0  0  0
   -6.1735   -7.5562   20.8053 N   0  0  0  0  0  0  0  0  0  0  0  0
   -6.4754   -8.8357   20.4761 C   0  0  0  0  0  0  0  0  0  0  0  0
   -5.6230   -9.8565   20.6678 N   0  0  0  0  0  0  0  0  0  0  0  0
   -4.4182   -9.6764   21.2206 C   0  0  0  0  0  0  0  0  0  0  0  0
   -4.0441   -8.3272   21.6166 C   0  0  0  0  0  0  0  0  0  0  0  0
   -4.9830   -7.2051   21.3851 C   0  0  0  0  0  0  0  0  0  0  0  0
   -4.6822   -5.9050   21.7343 N   0  0  0  0  0  0  0  0  0  0  0  0
   -2.8413   -8.4282   22.1352 N   0  0  0  0  0  0  0  0  0  0  0  0
   -2.4469   -9.7074   22.0715 C   0  0  0  0  0  0  0  0  0  0  0  0
   -3.3951  -10.4680   21.5256 N   0  0  0  0  0  0  0  0  0  0  0  0
  2  1  1  6  0  0  0
  2  3  1  0  0  0  0
  2  5  1  0  0  0  0
  3  4  1  0  0  0  0
  3 17  1  0  0  0  0
  5  6  1  0  0  0  0
  7  6  1  6  0  0  0
  7  8  1  0  0  0  0
  7  9  1  0  0  0  0
 10  9  1  6  0  0  0
 10 11  1  0  0  0  0
 10 12  1  0  0  0  0
 11 16  1  0  0  0  0
 12 13  1  1  0  0  0
 12 14  1  0  0  0  0
 14 15  1  6  0  0  0
 14 16  1  0  0  0  0
 16 27  1  6  0  0  0
 18 19  2  0  0  0  0
 18 23  1  0  0  0  0
 19 20  1  0  0  0  0
 20 21  2  0  0  0  0
 21 22  1  0  0  0  0
 21 27  1  0  0  0  0
 22 23  2  0  0  0  0
 22 25  1  0  0  0  0
 23 24  1  0  0  0  0
 25 26  2  0  0  0  0
 26 27  1  0  0  0  0
M  END
>  <CHROM.1>
146.06440395,179.73034651,43.43187057,-171.11611814,-164.21203685,-0.90909184
88.72121722,-3.84875610,-10.32238552,19.32516872,-0.18441409,1.25417338,-0.46952744

>  <Name>
ligand

>  <RI>
0

>  <Rbt.Current_Directory>
/home/itssahil/PROJECTS/Mol_Feturizer/Test_systems_manuscript/rnas/4kqy

>  <Rbt.Executable>
rbdock ($Id: //depot/dev/client3/rdock/2013.1/src/exe/rbdock.cxx#4 $)

>  <Rbt.Library>
libRbt.so (2013.1, Build901 2013/11/27)

>  <Rbt.Parameter_File>
/export/apps/rDock/src/rDock_2013.1_src/data/scripts/dock_solv.prm

>  <Rbt.Receptor>
prm/pocket_docking_2.prm

>  <SCORE>
-13.9804

>  <SCORE.INTER>
-13.0667

>  <SCORE.INTER.CONST>
1

>  <SCORE.INTER.POLAR>
0

>  <SCORE.INTER.ROT>
7

>  <SCORE.INTER.SOLV>
17.1787

>  <SCORE.INTER.VDW>
-22.704

>  <SCORE.INTER.norm>
-0.48395

>  <SCORE.INTRA>
-0.913729

>  <SCORE.INTRA.DIHEDRAL>
-0.631582

>  <SCORE.INTRA.DIHEDRAL.0>
10.4103

>  <SCORE.INTRA.POLAR>
0

>  <SCORE.INTRA.POLAR.0>
0

>  <SCORE.INTRA.REPUL>
0

>  <SCORE.INTRA.REPUL.0>
0

>  <SCORE.INTRA.SOLV>
-0.180023

>  <SCORE.INTRA.SOLV.lig_0>
-49.5008

>  <SCORE.INTRA.VDW>
-0.507926

>  <SCORE.INTRA.VDW.0>
-2.6946

>  <SCORE.INTRA.norm>
-0.0338418

>  <SCORE.RESTR>
0

>  <SCORE.RESTR.CAVITY>
0

>  <SCORE.RESTR.norm>
0

>  <SCORE.SYSTEM>
0

>  <SCORE.SYSTEM.CONST>
0

>  <SCORE.SYSTEM.DIHEDRAL>
0

>  <SCORE.SYSTEM.SOLV>
0

>  <SCORE.SYSTEM.norm>
0

>  <SCORE.heavy>
27

>  <SCORE.norm>
-0.517792

>  <RMSD>
1.461

$$$$
ligand
 OpenBabel02271912153D
libRbt.so/2013.1/901 2013/11/27
 27 29  0  0  0  0  0  0  0  0999 V2000
   -4.8480   -7.9214   15.9685 N   0  0  0  0  0  0  0  0  0  0  0  0
   -4.0101   -8.8914   16.6477 C   0  0  2  0  0  0  0  0  0  0  0  0
   -2.8043   -8.1613   17.1539 C   0  0  0  0  0  0  0  0  0  0  0  0
   -2.2597   -7.3042   16.4251 O   0  0  0  0  0  0  0  0  0  0  0  0
   -3.5913  -10.0049   15.6839 C   0  0  0  0  0  0  0  0  0  0  0  0
   -3.9924  -11.3971   16.2200 C   0  0  0  0  0  0  0  0  0  0  0  0
   -3.5362  -11.7225   17.8015 S   0  0  2  0  0  0  0  0  0  0  0  0
   -1.8854  -11.5977   17.9356 C   0  0  0  0  0  0  0  0  0  0  0  0
   -4.0557  -13.2678   18.2382 C   0  0  0  0  0  0  0  0  0  0  0  0
   -4.1673  -13.4866   19.7618 C   0  0  1  0  0  0  0  0  0  0  0  0
   -3.1823  -12.7568   20.5122 O   0  0  0  0  0  0  0  0  0  0  0  0
   -5.4660  -12.9673   20.3572 C   0  0  1  0  0  0  0  0  0  0  0  0
   -6.6596  -13.7410   20.1216 O   0  0  0  0  0  0  0  0  0  0  0  0
   -5.0812  -12.8670   21.8126 C   0  0  1  0  0  0  0  0  0  0  0  0
   -4.9774  -14.1686   22.3818 O   0  0  0  0  0  0  0  0  0  0  0  0
   -3.7128  -12.2567   21.7419 C   0  0  2  0  0  0  0  0  0  0  0  0
   -2.3815   -8.3995   18.3105 O   0  0  0  0  0  0  0  0  0  0  0  0
   -6.1070   -7.6605   20.5511 N   0  0  0  0  0  0  0  0  0  0  0  0
   -6.4848   -8.9249   20.2425 C   0  0  0  0  0  0  0  0  0  0  0  0
   -5.7732  -10.0054   20.6048 N   0  0  0  0  0  0  0  0  0  0  0  0
   -4.6464   -9.9025   21.3183 C   0  0  0  0  0  0  0  0  0  0  0  0
   -4.1999   -8.5713   21.7002 C   0  0  0  0  0  0  0  0  0  0  0  0
   -4.9811   -7.3845   21.2811 C   0  0  0  0  0  0  0  0  0  0  0  0
   -4.6051   -6.0983   21.6084 N   0  0  0  0  0  0  0  0  0  0  0  0
   -3.0980   -8.7496   22.3930 N   0  0  0  0  0  0  0  0  0  0  0  0
   -2.8273  -10.0609   22.4484 C   0  0  0  0  0  0  0  0  0  0  0  0
   -3.7598  -10.7639   21.8067 N   0  0  0  0  0  0  0  0  0  0  0  0
  2  1  1  6  0  0  0
  2  3  1  0  0  0  0
  2  5  1  0  0  0  0
  3  4  1  0  0  0  0
  3 17  1  0  0  0  0
  5  6  1  0  0  0  0
  7  6  1  6  0  0  0
  7  8  1  0  0  0  0
  7  9  1  0  0  0  0
 10  9  1  6  0  0  0
 10 11  1  0  0  0  0
 10 12  1  0  0  0  0
 11 16  1  0  0  0  0
 12 13  1  1  0  0  0
 12 14  1  0  0  0  0
 14 15  1  6  0  0  0
 14 16  1  0  0  0  0
 16 27  1  6  0  0  0
 18 19  2  0  0  0  0
 18 23  1  0  0  0  0
 19 20  1  0  0  0  0
 20 21  2  0  0  0  0
 21 22  1  0  0  0  0
 21 27  1  0  0  0  0
 22 23  2  0  0  0  0
 22 25  1  0  0  0  0
 23 24  1  0  0  0  0
 25 26  2  0  0  0  0
 26 27  1  0  0  0  0
M  END
>  <CHROM.1>
-41.42081585,-123.96980951,-50.35191949,-58.80789874,-158.68842268,-33.33769623
81.59367384,-4.13686531,-10.45001635,19.53699294,-0.64794865,-1.32050161
-2.94683042

>  <Name>
ligand

>  <RI>
0

>  <Rbt.Current_Directory>
/home/itssahil/PROJECTS/Mol_Feturizer/Test_systems_manuscript/rnas/4kqy

>  <Rbt.Executable>
rbdock ($Id: //depot/dev/client3/rdock/2013.1/src/exe/rbdock.cxx#4 $)

>  <Rbt.Library>
libRbt.so (2013.1, Build901 2013/11/27)

>  <Rbt.Parameter_File>
/export/apps/rDock/src/rDock_2013.1_src/data/scripts/dock_solv.prm

>  <Rbt.Receptor>
prm/pocket_docking_2.prm

>  <SCORE>
-14.575

>  <SCORE.INTER>
-14.0089

>  <SCORE.INTER.CONST>
1

>  <SCORE.INTER.POLAR>
0

>  <SCORE.INTER.ROT>
7

>  <SCORE.INTER.SOLV>
19.4386

>  <SCORE.INTER.VDW>
-24.0854

>  <SCORE.INTER.norm>
-0.518847

>  <SCORE.INTRA>
-0.570853

>  <SCORE.INTRA.DIHEDRAL>
1.98672

>  <SCORE.INTRA.DIHEDRAL.0>
10.4103

>  <SCORE.INTRA.POLAR>
0

>  <SCORE.INTRA.POLAR.0>
0

>  <SCORE.INTRA.REPUL>
0

>  <SCORE.INTRA.REPUL.0>
0

>  <SCORE.INTRA.SOLV>
-0.0156278

>  <SCORE.INTRA.SOLV.lig_0>
-49.5008

>  <SCORE.INTRA.VDW>
-1.5564

>  <SCORE.INTRA.VDW.0>
-2.6946

>  <SCORE.INTRA.norm>
-0.0211427

>  <SCORE.RESTR>
0.00475191

>  <SCORE.RESTR.CAVITY>
0.00475191

>  <SCORE.RESTR.norm>
0.000175997

>  <SCORE.SYSTEM>
0

>  <SCORE.SYSTEM.CONST>
0

>  <SCORE.SYSTEM.DIHEDRAL>
0

>  <SCORE.SYSTEM.SOLV>
0

>  <SCORE.SYSTEM.norm>
0

>  <SCORE.heavy>
27

>  <SCORE.norm>
-0.539813

>  <RMSD>
1.480

$$$$
ligand
 OpenBabel02271912153D
libRbt.so/2013.1/901 2013/11/27
 27 29  0  0  0  0  0  0  0  0999 V2000
   -4.0693   -9.6054   15.4376 N   0  0  0  0  0  0  0  0  0  0  0  0
   -3.4354   -8.7528   16.4252 C   0  0  2  0  0  0  0  0  0  0  0  0
   -2.5223   -7.8213   15.6890 C   0  0  0  0  0  0  0  0  0  0  0  0
   -2.5056   -6.6110   16.0005 O   0  0  0  0  0  0  0  0  0  0  0  0
   -2.6405   -9.5942   17.4274 C   0  0  0  0  0  0  0  0  0  0  0  0
   -3.4030  -10.8804   17.8160 C   0  0  0  0  0  0  0  0  0  0  0  0
   -2.4537  -12.1379   18.3928 S   0  0  2  0  0  0  0  0  0  0  0  0
   -1.1105  -12.3012   17.4295 C   0  0  0  0  0  0  0  0  0  0  0  0
   -3.3515  -13.5670   18.4127 C   0  0  0  0  0  0  0  0  0  0  0  0
   -4.4033  -13.6332   19.5401 C   0  0  1  0  0  0  0  0  0  0  0  0
   -3.9173  -13.1357   20.7979 O   0  0  0  0  0  0  0  0  0  0  0  0
   -5.6131  -12.7456   19.2960 C   0  0  1  0  0  0  0  0  0  0  0  0
   -6.5767  -13.1915   18.3206 O   0  0  0  0  0  0  0  0  0  0  0  0
   -6.1655  -12.6415   20.6960 C   0  0  1  0  0  0  0  0  0  0  0  0
   -6.7599  -13.8776   21.0804 O   0  0  0  0  0  0  0  0  0  0  0  0
   -4.9276  -12.4221   21.5145 C   0  0  2  0  0  0  0  0  0  0  0  0
   -1.7688   -8.2768   14.7958 O   0  0  0  0  0  0  0  0  0  0  0  0
   -5.9047   -7.3270   20.3474 N   0  0  0  0  0  0  0  0  0  0  0  0
   -6.5229   -8.4419   19.8874 C   0  0  0  0  0  0  0  0  0  0  0  0
   -6.1644   -9.6805   20.2651 N   0  0  0  0  0  0  0  0  0  0  0  0
   -5.1787   -9.8936   21.1439 C   0  0  0  0  0  0  0  0  0  0  0  0
   -4.4906   -8.7343   21.6916 C   0  0  0  0  0  0  0  0  0  0  0  0
   -4.8804   -7.3733   21.2560 C   0  0  0  0  0  0  0  0  0  0  0  0
   -4.2617   -6.2376   21.7358 N   0  0  0  0  0  0  0  0  0  0  0  0
   -3.5936   -9.2123   22.5241 N   0  0  0  0  0  0  0  0  0  0  0  0
   -3.6626  -10.5506   22.5154 C   0  0  0  0  0  0  0  0  0  0  0  0
   -4.6203  -10.9694   21.6890 N   0  0  0  0  0  0  0  0  0  0  0  0
  2  1  1  6  0  0  0
  2  3  1  0  0  0  0
  2  5  1  0  0  0  0
  3  4  1  0  0  0  0
  3 17  1  0  0  0  0
  5  6  1  0  0  0  0
  7  6  1  6  0  0  0
  7  8  1  0  0  0  0
  7  9  1  0  0  0  0
 10  9  1  6  0  0  0
 10 11  1  0  0  0  0
 10 12  1  0  0  0  0
 11 16  1  0  0  0  0
 12 13  1  6  0  0  0
 12 14  1  0  0  0  0
 14 15  1  1  0  0  0
 14 16  1  0  0  0  0
 16 27  1  6  0  0  0
 18 19  2  0  0  0  0
 18 23  1  0  0  0  0
 19 20  1  0  0  0  0
 20 21  2  0  0  0  0
 21 22  1  0  0  0  0
 21 27  1  0  0  0  0
 22 23  2  0  0  0  0
 22 25  1  0  0  0  0
 23 24  1  0  0  0  0
 25 26  2  0  0  0  0
 26 27  1  0  0  0  0
M  END
>  <CHROM.1>
136.00891988,-40.63082620,156.98297919,-44.57596782,-73.79081181,-42.06228094
109.80869115,-4.14810577,-10.48707295,19.22656503,-0.53443036,-1.09014190
-3.04322896

>  <Name>
ligand

>  <RI>
0

>  <Rbt.Current_Directory>
/home/itssahil/PROJECTS/Mol_Feturizer/Test_systems_manuscript/rnas/4kqy

>  <Rbt.Executable>
rbdock ($Id: //depot/dev/client3/rdock/2013.1/src/exe/rbdock.cxx#4 $)

>  <Rbt.Library>
libRbt.so (2013.1, Build901 2013/11/27)

>  <Rbt.Parameter_File>
/export/apps/rDock/src/rDock_2013.1_src/data/scripts/dock_solv.prm

>  <Rbt.Receptor>
prm/pocket_docking_2.prm

>  <SCORE>
-16.1045

>  <SCORE.INTER>
-15.436

>  <SCORE.INTER.CONST>
1

>  <SCORE.INTER.POLAR>
0

>  <SCORE.INTER.ROT>
7

>  <SCORE.INTER.SOLV>
16.9307

>  <SCORE.INTER.VDW>
-24.2009

>  <SCORE.INTER.norm>
-0.571703

>  <SCORE.INTRA>
-0.668494

>  <SCORE.INTRA.DIHEDRAL>
-2.18556

>  <SCORE.INTRA.DIHEDRAL.0>
10.4103

>  <SCORE.INTRA.POLAR>
0

>  <SCORE.INTRA.POLAR.0>
0

>  <SCORE.INTRA.REPUL>
0

>  <SCORE.INTRA.REPUL.0>
0

>  <SCORE.INTRA.SOLV>
0.966506

>  <SCORE.INTRA.SOLV.lig_0>
-49.5008

>  <SCORE.INTRA.VDW>
-0.0589672

>  <SCORE.INTRA.VDW.0>
-2.6946

>  <SCORE.INTRA.norm>
-0.024759

>  <SCORE.RESTR>
0

>  <SCORE.RESTR.CAVITY>
0

>  <SCORE.RESTR.norm>
0

>  <SCORE.SYSTEM>
0

>  <SCORE.SYSTEM.CONST>
0

>  <SCORE.SYSTEM.DIHEDRAL>
0

>  <SCORE.SYSTEM.SOLV>
0

>  <SCORE.SYSTEM.norm>
0

>  <SCORE.heavy>
27

>  <SCORE.norm>
-0.596462

>  <RMSD>
1.487

$$$$
ligand
 OpenBabel02271912153D
libRbt.so/2013.1/901 2013/11/27
 27 29  0  0  0  0  0  0  0  0999 V2000
   -2.9854   -8.1732   16.8009 N   0  0  0  0  0  0  0  0  0  0  0  0
   -2.3532   -9.4784   16.8300 C   0  0  2  0  0  0  0  0  0  0  0  0
   -0.9512   -9.3054   16.3324 C   0  0  0  0  0  0  0  0  0  0  0  0
   -0.7516   -8.6505   15.2867 O   0  0  0  0  0  0  0  0  0  0  0  0
   -3.1157  -10.4624   15.9387 C   0  0  0  0  0  0  0  0  0  0  0  0
   -2.5941  -11.9059   16.1148 C   0  0  0  0  0  0  0  0  0  0  0  0
   -2.8056  -12.5704   17.6409 S   0  0  2  0  0  0  0  0  0  0  0  0
   -2.1288  -14.0867   17.6803 C   0  0  0  0  0  0  0  0  0  0  0  0
   -4.4512  -12.6413   18.0088 C   0  0  0  0  0  0  0  0  0  0  0  0
   -4.7517  -12.9043   19.4995 C   0  0  1  0  0  0  0  0  0  0  0  0
   -3.8832  -12.1818   20.3882 O   0  0  0  0  0  0  0  0  0  0  0  0
   -6.1246  -12.4204   19.9377 C   0  0  1  0  0  0  0  0  0  0  0  0
   -7.2646  -13.2042   19.5317 O   0  0  0  0  0  0  0  0  0  0  0  0
   -5.9298  -12.3555   21.4324 C   0  0  1  0  0  0  0  0  0  0  0  0
   -5.8760  -13.6709   21.9762 O   0  0  0  0  0  0  0  0  0  0  0  0
   -4.5744  -11.7240   21.5527 C   0  0  2  0  0  0  0  0  0  0  0  0
   -0.0006   -9.7929   16.9896 O   0  0  0  0  0  0  0  0  0  0  0  0
   -5.9003   -7.0287   19.4380 N   0  0  0  0  0  0  0  0  0  0  0  0
   -6.0335   -8.2702   18.9114 C   0  0  0  0  0  0  0  0  0  0  0  0
   -5.6453   -9.3809   19.5602 N   0  0  0  0  0  0  0  0  0  0  0  0
   -5.1167   -9.3334   20.7881 C   0  0  0  0  0  0  0  0  0  0  0  0
   -4.9683   -8.0296   21.4170 C   0  0  0  0  0  0  0  0  0  0  0  0
   -5.3824   -6.8090   20.6871 C   0  0  0  0  0  0  0  0  0  0  0  0
   -5.2613   -5.5463   21.2291 N   0  0  0  0  0  0  0  0  0  0  0  0
   -4.4474   -8.2617   22.6006 N   0  0  0  0  0  0  0  0  0  0  0  0
   -4.2496   -9.5801   22.7371 C   0  0  0  0  0  0  0  0  0  0  0  0
   -4.6559  -10.2343   21.6497 N   0  0  0  0  0  0  0  0  0  0  0  0
  2  1  1  6  0  0  0
  2  3  1  0  0  0  0
  2  5  1  0  0  0  0
  3  4  1  0  0  0  0
  3 17  1  0  0  0  0
  5  6  1  0  0  0  0
  7  6  1  6  0  0  0
  7  8  1  0  0  0  0
  7  9  1  0  0  0  0
 10  9  1  6  0  0  0
 10 11  1  0  0  0  0
 10 12  1  0  0  0  0
 11 16  1  0  0  0  0
 12 13  1  1  0  0  0
 12 14  1  0  0  0  0
 14 15  1  6  0  0  0
 14 16  1  0  0  0  0
 16 27  1  6  0  0  0
 18 19  2  0  0  0  0
 18 23  1  0  0  0  0
 19 20  1  0  0  0  0
 20 21  2  0  0  0  0
 21 22  1  0  0  0  0
 21 27  1  0  0  0  0
 22 23  2  0  0  0  0
 22 25  1  0  0  0  0
 23 24  1  0  0  0  0
 25 26  2  0  0  0  0
 26 27  1  0  0  0  0
M  END
>  <CHROM.1>
-47.43457928,-171.45449916,63.85339214,-177.28121930,-165.71340909,40.73095219
54.56121368,-4.05590738,-10.47716561,19.16879194,-0.22439764,0.90615798,0.10960074

>  <Name>
ligand

>  <RI>
0

>  <Rbt.Current_Directory>
/home/itssahil/PROJECTS/Mol_Feturizer/Test_systems_manuscript/rnas/4kqy

>  <Rbt.Executable>
rbdock ($Id: //depot/dev/client3/rdock/2013.1/src/exe/rbdock.cxx#4 $)

>  <Rbt.Library>
libRbt.so (2013.1, Build901 2013/11/27)

>  <Rbt.Parameter_File>
/export/apps/rDock/src/rDock_2013.1_src/data/scripts/dock_solv.prm

>  <Rbt.Receptor>
prm/pocket_docking_5.prm

>  <SCORE>
29.2575

>  <SCORE.INTER>
32.6554

>  <SCORE.INTER.CONST>
1

>  <SCORE.INTER.POLAR>
0

>  <SCORE.INTER.ROT>
7

>  <SCORE.INTER.SOLV>
18.892

>  <SCORE.INTER.VDW>
7.20628

>  <SCORE.INTER.norm>
1.20946

>  <SCORE.INTRA>
-3.99221

>  <SCORE.INTRA.DIHEDRAL>
-5.5326

>  <SCORE.INTRA.DIHEDRAL.0>
10.4103

>  <SCORE.INTRA.POLAR>
0

>  <SCORE.INTRA.POLAR.0>
0

>  <SCORE.INTRA.REPUL>
0

>  <SCORE.INTRA.REPUL.0>
0

>  <SCORE.INTRA.SOLV>
-0.228619

>  <SCORE.INTRA.SOLV.lig_0>
-49.5008

>  <SCORE.INTRA.VDW>
-1.1116

>  <SCORE.INTRA.VDW.0>
-2.6946

>  <SCORE.INTRA.norm>
-0.14786

>  <SCORE.RESTR>
0.594322

>  <SCORE.RESTR.CAVITY>
0.594322

>  <SCORE.RESTR.norm>
0.0220119

>  <SCORE.SYSTEM>
0

>  <SCORE.SYSTEM.CONST>
0

>  <SCORE.SYSTEM.DIHEDRAL>
0

>  <SCORE.SYSTEM.SOLV>
0

>  <SCORE.SYSTEM.norm>
0

>  <SCORE.heavy>
27

>  <SCORE.norm>
1.08361

>  <RMSD>
1.491

$$$$
ligand
 OpenBabel02271912153D
libRbt.so/2013.1/901 2013/11/27
 27 29  0  0  0  0  0  0  0  0999 V2000
   -2.2278   -8.9418   15.2820 N   0  0  0  0  0  0  0  0  0  0  0  0
   -3.4832   -8.5324   15.8826 C   0  0  2  0  0  0  0  0  0  0  0  0
   -3.1958   -8.1588   17.3042 C   0  0  0  0  0  0  0  0  0  0  0  0
   -2.0344   -7.8262   17.6246 O   0  0  0  0  0  0  0  0  0  0  0  0
   -4.5002   -9.6756   15.8287 C   0  0  0  0  0  0  0  0  0  0  0  0
   -3.8445  -11.0321   16.1698 C   0  0  0  0  0  0  0  0  0  0  0  0
   -3.5587  -11.3081   17.7999 S   0  0  2  0  0  0  0  0  0  0  0  0
   -2.0110  -10.8366   18.1756 C   0  0  0  0  0  0  0  0  0  0  0  0
   -3.7862  -12.9435   18.1496 C   0  0  0  0  0  0  0  0  0  0  0  0
   -3.9909  -13.2434   19.6496 C   0  0  1  0  0  0  0  0  0  0  0  0
   -3.0892  -12.5163   20.5005 O   0  0  0  0  0  0  0  0  0  0  0  0
   -5.3468  -12.8039   20.1780 C   0  0  1  0  0  0  0  0  0  0  0  0
   -6.4893  -13.6088   19.8235 O   0  0  0  0  0  0  0  0  0  0  0  0
   -5.0651  -12.7632   21.6597 C   0  0  1  0  0  0  0  0  0  0  0  0
   -4.9467  -14.0872   22.1715 O   0  0  0  0  0  0  0  0  0  0  0  0
   -3.7210  -12.0994   21.7132 C   0  0  2  0  0  0  0  0  0  0  0  0
   -4.1306   -8.1558   18.1405 O   0  0  0  0  0  0  0  0  0  0  0  0
   -6.1877   -7.5360   20.5439 N   0  0  0  0  0  0  0  0  0  0  0  0
   -6.4869   -8.7953   20.1425 C   0  0  0  0  0  0  0  0  0  0  0  0
   -5.7659   -9.8671   20.5122 N   0  0  0  0  0  0  0  0  0  0  0  0
   -4.7089   -9.7612   21.3252 C   0  0  0  0  0  0  0  0  0  0  0  0
   -4.3502   -8.4365   21.8087 C   0  0  0  0  0  0  0  0  0  0  0  0
   -5.1399   -7.2583   21.3816 C   0  0  0  0  0  0  0  0  0  0  0  0
   -4.8449   -5.9782   21.8025 N   0  0  0  0  0  0  0  0  0  0  0  0
   -3.3049   -8.6111   22.5852 N   0  0  0  0  0  0  0  0  0  0  0  0
   -2.9875   -9.9130   22.5999 C   0  0  0  0  0  0  0  0  0  0  0  0
   -3.8333  -10.6145   21.8462 N   0  0  0  0  0  0  0  0  0  0  0  0
  2  1  1  1  0  0  0
  2  3  1  0  0  0  0
  2  5  1  0  0  0  0
  3  4  1  0  0  0  0
  3 17  1  0  0  0  0
  5  6  1  0  0  0  0
  7  6  1  6  0  0  0
  7  8  1  0  0  0  0
  7  9  1  0  0  0  0
 10  9  1  6  0  0  0
 10 11  1  0  0  0  0
 10 12  1  0  0  0  0
 11 16  1  0  0  0  0
 12 13  1  1  0  0  0
 12 14  1  0  0  0  0
 14 15  1  6  0  0  0
 14 16  1  0  0  0  0
 16 27  1  6  0  0  0
 18 19  2  0  0  0  0
 18 23  1  0  0  0  0
 19 20  1  0  0  0  0
 20 21  2  0  0  0  0
 21 22  1  0  0  0  0
 21 27  1  0  0  0  0
 22 23  2  0  0  0  0
 22 25  1  0  0  0  0
 23 24  1  0  0  0  0
 25 26  2  0  0  0  0
 26 27  1  0  0  0  0
M  END
>  <CHROM.1>
22.84496607,41.63346166,77.45842318,-93.57526659,-161.68963857,-43.12592458
80.56776701,-4.13967766,-10.30018839,19.52584391,-0.46176117,-1.29501398
-3.01817727

>  <Name>
ligand

>  <RI>
0

>  <Rbt.Current_Directory>
/home/itssahil/PROJECTS/Mol_Feturizer/Test_systems_manuscript/rnas/4kqy

>  <Rbt.Executable>
rbdock ($Id: //depot/dev/client3/rdock/2013.1/src/exe/rbdock.cxx#4 $)

>  <Rbt.Library>
libRbt.so (2013.1, Build901 2013/11/27)

>  <Rbt.Parameter_File>
/export/apps/rDock/src/rDock_2013.1_src/data/scripts/dock_solv.prm

>  <Rbt.Receptor>
prm/pocket_docking_4.prm

>  <SCORE>
-14.2537

>  <SCORE.INTER>
-14.0633

>  <SCORE.INTER.CONST>
1

>  <SCORE.INTER.POLAR>
0

>  <SCORE.INTER.ROT>
7

>  <SCORE.INTER.SOLV>
18.0513

>  <SCORE.INTER.VDW>
-23.6593

>  <SCORE.INTER.norm>
-0.520862

>  <SCORE.INTRA>
-0.190381

>  <SCORE.INTRA.DIHEDRAL>
-0.53058

>  <SCORE.INTRA.DIHEDRAL.0>
10.4103

>  <SCORE.INTRA.POLAR>
0

>  <SCORE.INTRA.POLAR.0>
0

>  <SCORE.INTRA.REPUL>
0

>  <SCORE.INTRA.REPUL.0>
0

>  <SCORE.INTRA.SOLV>
2.07322

>  <SCORE.INTRA.SOLV.lig_0>
-49.5008

>  <SCORE.INTRA.VDW>
-0.9617

>  <SCORE.INTRA.VDW.0>
-2.6946

>  <SCORE.INTRA.norm>
-0.00705115

>  <SCORE.RESTR>
0

>  <SCORE.RESTR.CAVITY>
0

>  <SCORE.RESTR.norm>
0

>  <SCORE.SYSTEM>
0

>  <SCORE.SYSTEM.CONST>
0

>  <SCORE.SYSTEM.DIHEDRAL>
0

>  <SCORE.SYSTEM.SOLV>
0

>  <SCORE.SYSTEM.norm>
0

>  <SCORE.heavy>
27

>  <SCORE.norm>
-0.527913

>  <RMSD>
1.492

$$$$
ligand
 OpenBabel02271912153D
libRbt.so/2013.1/901 2013/11/27
 27 29  0  0  0  0  0  0  0  0999 V2000
   -1.9473   -8.9393   15.1693 N   0  0  0  0  0  0  0  0  0  0  0  0
   -3.2687   -8.5293   15.6050 C   0  0  2  0  0  0  0  0  0  0  0  0
   -3.1293   -7.9765   16.9900 C   0  0  0  0  0  0  0  0  0  0  0  0
   -1.9915   -7.8870   17.4993 O   0  0  0  0  0  0  0  0  0  0  0  0
   -4.2272   -9.7233   15.6034 C   0  0  0  0  0  0  0  0  0  0  0  0
   -3.5397  -11.0008   16.1342 C   0  0  0  0  0  0  0  0  0  0  0  0
   -3.6161  -11.2269   17.7950 S   0  0  2  0  0  0  0  0  0  0  0  0
   -2.2845  -10.5353   18.5072 C   0  0  0  0  0  0  0  0  0  0  0  0
   -3.6900  -12.8768   18.1428 C   0  0  0  0  0  0  0  0  0  0  0  0
   -3.9612  -13.1948   19.6285 C   0  0  1  0  0  0  0  0  0  0  0  0
   -3.0806  -12.4989   20.5264 O   0  0  0  0  0  0  0  0  0  0  0  0
   -5.3285  -12.7359   20.1087 C   0  0  1  0  0  0  0  0  0  0  0  0
   -6.4713  -13.5120   19.6959 O   0  0  0  0  0  0  0  0  0  0  0  0
   -5.1065  -12.7230   21.6010 C   0  0  1  0  0  0  0  0  0  0  0  0
   -5.0350  -14.0567   22.0963 O   0  0  0  0  0  0  0  0  0  0  0  0
   -3.7529  -12.0874   21.7190 C   0  0  2  0  0  0  0  0  0  0  0  0
   -4.1517   -7.5843   17.6016 O   0  0  0  0  0  0  0  0  0  0  0  0
   -6.0887   -7.4597   20.5343 N   0  0  0  0  0  0  0  0  0  0  0  0
   -6.3977   -8.7068   20.1034 C   0  0  0  0  0  0  0  0  0  0  0  0
   -5.7109   -9.7980   20.4816 N   0  0  0  0  0  0  0  0  0  0  0  0
   -4.6813   -9.7248   21.3325 C   0  0  0  0  0  0  0  0  0  0  0  0
   -4.3146   -8.4146   21.8486 C   0  0  0  0  0  0  0  0  0  0  0  0
   -5.0659   -7.2149   21.4122 C   0  0  0  0  0  0  0  0  0  0  0  0
   -4.7614   -5.9472   21.8627 N   0  0  0  0  0  0  0  0  0  0  0  0
   -3.3008   -8.6212   22.6583 N   0  0  0  0  0  0  0  0  0  0  0  0
   -3.0092   -9.9292   22.6642 C   0  0  0  0  0  0  0  0  0  0  0  0
   -3.8412  -10.6028   21.8708 N   0  0  0  0  0  0  0  0  0  0  0  0
  2  1  1  1  0  0  0
  2  3  1  0  0  0  0
  2  5  1  0  0  0  0
  3  4  1  0  0  0  0
  3 17  1  0  0  0  0
  5  6  1  0  0  0  0
  7  6  1  6  0  0  0
  7  8  1  0  0  0  0
  7  9  1  0  0  0  0
 10  9  1  6  0  0  0
 10 11  1  0  0  0  0
 10 12  1  0  0  0  0
 11 16  1  0  0  0  0
 12 13  1  1  0  0  0
 12 14  1  0  0  0  0
 14 15  1  6  0  0  0
 14 16  1  0  0  0  0
 16 27  1  6  0  0  0
 18 19  2  0  0  0  0
 18 23  1  0  0  0  0
 19 20  1  0  0  0  0
 20 21  2  0  0  0  0
 21 22  1  0  0  0  0
 21 27  1  0  0  0  0
 22 23  2  0  0  0  0
 22 25  1  0  0  0  0
 23 24  1  0  0  0  0
 25 26  2  0  0  0  0
 26 27  1  0  0  0  0
M  END
>  <CHROM.1>
3.54736201,40.41488921,88.27468493,-91.11898035,-171.90466245,-50.67811062
80.87402681,-4.09923388,-10.23006123,19.47375103,-0.37390795,-1.29401916
-2.98022284

>  <Name>
ligand

>  <RI>
0

>  <Rbt.Current_Directory>
/home/itssahil/PROJECTS/Mol_Feturizer/Test_systems_manuscript/rnas/4kqy

>  <Rbt.Executable>
rbdock ($Id: //depot/dev/client3/rdock/2013.1/src/exe/rbdock.cxx#4 $)

>  <Rbt.Library>
libRbt.so (2013.1, Build901 2013/11/27)

>  <Rbt.Parameter_File>
/export/apps/rDock/src/rDock_2013.1_src/data/scripts/dock_solv.prm

>  <Rbt.Receptor>
prm/pocket_docking_2.prm

>  <SCORE>
-13.4664

>  <SCORE.INTER>
-13.7705

>  <SCORE.INTER.CONST>
1

>  <SCORE.INTER.POLAR>
0

>  <SCORE.INTER.ROT>
7

>  <SCORE.INTER.SOLV>
18.943

>  <SCORE.INTER.VDW>
-23.7613

>  <SCORE.INTER.norm>
-0.510018

>  <SCORE.INTRA>
0.280177

>  <SCORE.INTRA.DIHEDRAL>
-0.633682

>  <SCORE.INTRA.DIHEDRAL.0>
10.4103

>  <SCORE.INTRA.POLAR>
0

>  <SCORE.INTRA.POLAR.0>
0

>  <SCORE.INTRA.REPUL>
0

>  <SCORE.INTRA.REPUL.0>
0

>  <SCORE.INTRA.SOLV>
1.81512

>  <SCORE.INTRA.SOLV.lig_0>
-49.5008

>  <SCORE.INTRA.VDW>
-0.31054

>  <SCORE.INTRA.VDW.0>
-2.6946

>  <SCORE.INTRA.norm>
0.0103769

>  <SCORE.RESTR>
0.023935

>  <SCORE.RESTR.CAVITY>
0.023935

>  <SCORE.RESTR.norm>
0.000886481

>  <SCORE.SYSTEM>
0

>  <SCORE.SYSTEM.CONST>
0

>  <SCORE.SYSTEM.DIHEDRAL>
0

>  <SCORE.SYSTEM.SOLV>
0

>  <SCORE.SYSTEM.norm>
0

>  <SCORE.heavy>
27

>  <SCORE.norm>
-0.498755

>  <RMSD>
1.496

$$$$
ligand
 OpenBabel02271912153D
libRbt.so/2013.1/901 2013/11/27
 27 29  0  0  0  0  0  0  0  0999 V2000
   -0.4562  -11.3980   17.8377 N   0  0  0  0  0  0  0  0  0  0  0  0
   -0.9721  -11.0899   16.5175 C   0  0  2  0  0  0  0  0  0  0  0  0
   -1.4819   -9.6821   16.5560 C   0  0  0  0  0  0  0  0  0  0  0  0
   -1.9571   -9.1769   15.5162 O   0  0  0  0  0  0  0  0  0  0  0  0
   -2.1018  -12.0541   16.1458 C   0  0  0  0  0  0  0  0  0  0  0  0
   -3.2169  -12.0574   17.2149 C   0  0  0  0  0  0  0  0  0  0  0  0
   -4.3380  -13.2992   17.0873 S   0  0  2  0  0  0  0  0  0  0  0  0
   -5.0902  -13.2129   15.6090 C   0  0  0  0  0  0  0  0  0  0  0  0
   -5.4647  -13.1808   18.3384 C   0  0  0  0  0  0  0  0  0  0  0  0
   -4.9045  -13.5553   19.7268 C   0  0  1  0  0  0  0  0  0  0  0  0
   -3.7035  -12.8414   20.0642 O   0  0  0  0  0  0  0  0  0  0  0  0
   -5.8270  -13.1816   20.8758 C   0  0  1  0  0  0  0  0  0  0  0  0
   -6.9933  -14.0032   21.0840 O   0  0  0  0  0  0  0  0  0  0  0  0
   -4.8535  -13.2006   22.0282 C   0  0  1  0  0  0  0  0  0  0  0  0
   -4.4941  -14.5426   22.3426 O   0  0  0  0  0  0  0  0  0  0  0  0
   -3.6591  -12.4999   21.4516 C   0  0  2  0  0  0  0  0  0  0  0  0
   -1.4522   -9.0465   17.6369 O   0  0  0  0  0  0  0  0  0  0  0  0
   -5.9938   -7.7665   20.8035 N   0  0  0  0  0  0  0  0  0  0  0  0
   -6.3741   -8.9779   20.3298 C   0  0  0  0  0  0  0  0  0  0  0  0
   -5.6783  -10.1026   20.5669 N   0  0  0  0  0  0  0  0  0  0  0  0
   -4.5663  -10.1018   21.3104 C   0  0  0  0  0  0  0  0  0  0  0  0
   -4.1184   -8.8340   21.8666 C   0  0  0  0  0  0  0  0  0  0  0  0
   -4.8818   -7.5961   21.5853 C   0  0  0  0  0  0  0  0  0  0  0  0
   -4.5035   -6.3654   22.0802 N   0  0  0  0  0  0  0  0  0  0  0  0
   -3.0329   -9.1094   22.5535 N   0  0  0  0  0  0  0  0  0  0  0  0
   -2.7730  -10.4198   22.4480 C   0  0  0  0  0  0  0  0  0  0  0  0
   -3.6967  -11.0267   21.7038 N   0  0  0  0  0  0  0  0  0  0  0  0
  2  1  1  1  0  0  0
  2  3  1  0  0  0  0
  2  5  1  0  0  0  0
  3  4  1  0  0  0  0
  3 17  1  0  0  0  0
  5  6  1  0  0  0  0
  7  6  1  1  0  0  0
  7  8  1  0  0  0  0
  7  9  1  0  0  0  0
 10  9  1  6  0  0  0
 10 11  1  0  0  0  0
 10 12  1  0  0  0  0
 11 16  1  0  0  0  0
 12 13  1  1  0  0  0
 12 14  1  0  0  0  0
 14 15  1  6  0  0  0
 14 16  1  0  0  0  0
 16 27  1  6  0  0  0
 18 19  2  0  0  0  0
 18 23  1  0  0  0  0
 19 20  1  0  0  0  0
 20 21  2  0  0  0  0
 21 22  1  0  0  0  0
 21 27  1  0  0  0  0
 22 23  2  0  0  0  0
 22 25  1  0  0  0  0
 23 24  1  0  0  0  0
 25 26  2  0  0  0  0
 26 27  1  0  0  0  0
M  END
>  <CHROM.1>
178.65660798,54.88842276,-167.51064818,-59.47772921,-71.76482698,52.63015094
54.76150568,-3.95897405,-11.21489834,19.50087844,-0.82828194,1.00432038,0.60223112

>  <Name>
ligand

>  <RI>
0

>  <Rbt.Current_Directory>
/home/itssahil/PROJECTS/Mol_Feturizer/Test_systems_manuscript/rnas/4kqy

>  <Rbt.Executable>
rbdock ($Id: //depot/dev/client3/rdock/2013.1/src/exe/rbdock.cxx#4 $)

>  <Rbt.Library>
libRbt.so (2013.1, Build901 2013/11/27)

>  <Rbt.Parameter_File>
/export/apps/rDock/src/rDock_2013.1_src/data/scripts/dock_solv.prm

>  <Rbt.Receptor>
prm/pocket_docking_2.prm

>  <SCORE>
-15.7666

>  <SCORE.INTER>
-13.8562

>  <SCORE.INTER.CONST>
1

>  <SCORE.INTER.POLAR>
0

>  <SCORE.INTER.ROT>
7

>  <SCORE.INTER.SOLV>
20.4236

>  <SCORE.INTER.VDW>
-24.312

>  <SCORE.INTER.norm>
-0.513191

>  <SCORE.INTRA>
-2.52285

>  <SCORE.INTRA.DIHEDRAL>
-6.41012

>  <SCORE.INTRA.DIHEDRAL.0>
10.4103

>  <SCORE.INTRA.POLAR>
0

>  <SCORE.INTRA.POLAR.0>
0

>  <SCORE.INTRA.REPUL>
0

>  <SCORE.INTRA.REPUL.0>
0

>  <SCORE.INTRA.SOLV>
0.437635

>  <SCORE.INTRA.SOLV.lig_0>
-49.5008

>  <SCORE.INTRA.VDW>
0.463396

>  <SCORE.INTRA.VDW.0>
-2.6946

>  <SCORE.INTRA.norm>
-0.0934387

>  <SCORE.RESTR>
0.612449

>  <SCORE.RESTR.CAVITY>
0.612449

>  <SCORE.RESTR.norm>
0.0226833

>  <SCORE.SYSTEM>
0

>  <SCORE.SYSTEM.CONST>
0

>  <SCORE.SYSTEM.DIHEDRAL>
0

>  <SCORE.SYSTEM.SOLV>
0

>  <SCORE.SYSTEM.norm>
0

>  <SCORE.heavy>
27

>  <SCORE.norm>
-0.583947

>  <RMSD>
1.500

$$$$
ligand
 OpenBabel02271912153D
libRbt.so/2013.1/901 2013/11/27
 27 29  0  0  0  0  0  0  0  0999 V2000
   -4.3849   -8.5705   14.9949 N   0  0  0  0  0  0  0  0  0  0  0  0
   -3.9692   -9.3671   16.1337 C   0  0  2  0  0  0  0  0  0  0  0  0
   -3.3953   -8.4273   17.1489 C   0  0  0  0  0  0  0  0  0  0  0  0
   -4.1000   -7.4884   17.5780 O   0  0  0  0  0  0  0  0  0  0  0  0
   -2.9194  -10.3983   15.7109 C   0  0  0  0  0  0  0  0  0  0  0  0
   -3.2801  -11.8125   16.2171 C   0  0  0  0  0  0  0  0  0  0  0  0
   -3.4471  -11.9652   17.8797 S   0  0  2  0  0  0  0  0  0  0  0  0
   -2.0129  -11.5666   18.6165 C   0  0  0  0  0  0  0  0  0  0  0  0
   -3.8971  -13.5456   18.2646 C   0  0  0  0  0  0  0  0  0  0  0  0
   -4.4121  -13.7188   19.7092 C   0  0  1  0  0  0  0  0  0  0  0  0
   -3.5802  -13.0738   20.6879 O   0  0  0  0  0  0  0  0  0  0  0  0
   -5.7596  -13.0604   19.9574 C   0  0  1  0  0  0  0  0  0  0  0  0
   -6.9268  -13.7171   19.4234 O   0  0  0  0  0  0  0  0  0  0  0  0
   -5.7474  -12.9667   21.4631 C   0  0  1  0  0  0  0  0  0  0  0  0
   -5.9234  -14.2594   22.0350 O   0  0  0  0  0  0  0  0  0  0  0  0
   -4.3510  -12.4967   21.7446 C   0  0  2  0  0  0  0  0  0  0  0  0
   -2.2305   -8.6171   17.5736 O   0  0  0  0  0  0  0  0  0  0  0  0
   -6.1197   -7.7088   20.2536 N   0  0  0  0  0  0  0  0  0  0  0  0
   -6.5759   -8.9352   19.9010 C   0  0  0  0  0  0  0  0  0  0  0  0
   -6.0236  -10.0740   20.3521 N   0  0  0  0  0  0  0  0  0  0  0  0
   -4.9915  -10.0698   21.2030 C   0  0  0  0  0  0  0  0  0  0  0  0
   -4.4703   -8.7824   21.6370 C   0  0  0  0  0  0  0  0  0  0  0  0
   -5.0738   -7.5321   21.1206 C   0  0  0  0  0  0  0  0  0  0  0  0
   -4.6196   -6.2835   21.4914 N   0  0  0  0  0  0  0  0  0  0  0  0
   -3.4873   -9.0562   22.4645 N   0  0  0  0  0  0  0  0  0  0  0  0
   -3.3538  -10.3865   22.5553 C   0  0  0  0  0  0  0  0  0  0  0  0
   -4.2613  -11.0055   21.8011 N   0  0  0  0  0  0  0  0  0  0  0  0
  2  1  1  6  0  0  0
  2  3  1  0  0  0  0
  2  5  1  0  0  0  0
  3  4  1  0  0  0  0
  3 17  1  0  0  0  0
  5  6  1  0  0  0  0
  7  6  1  6  0  0  0
  7  8  1  0  0  0  0
  7  9  1  0  0  0  0
 10  9  1  6  0  0  0
 10 11  1  0  0  0  0
 10 12  1  0  0  0  0
 11 16  1  0  0  0  0
 12 13  1  1  0  0  0
 12 14  1  0  0  0  0
 14 15  1  1  0  0  0
 14 16  1  0  0  0  0
 16 27  1  6  0  0  0
 18 19  2  0  0  0  0
 18 23  1  0  0  0  0
 19 20  1  0  0  0  0
 20 21  2  0  0  0  0
 21 22  1  0  0  0  0
 21 27  1  0  0  0  0
 22 23  2  0  0  0  0
 22 25  1  0  0  0  0
 23 24  1  0  0  0  0
 25 26  2  0  0  0  0
 26 27  1  0  0  0  0
M  END
>  <CHROM.1>
57.34224932,-130.40731269,-58.52363306,-60.50541873,-165.78380604,-46.31859578
89.00682941,-4.35866771,-10.66655088,19.43477251,-0.65780014,-1.26676347
-3.01020115

>  <Name>
ligand

>  <RI>
0

>  <Rbt.Current_Directory>
/home/itssahil/PROJECTS/Mol_Feturizer/Test_systems_manuscript/rnas/4kqy

>  <Rbt.Executable>
rbdock ($Id: //depot/dev/client3/rdock/2013.1/src/exe/rbdock.cxx#4 $)

>  <Rbt.Library>
libRbt.so (2013.1, Build901 2013/11/27)

>  <Rbt.Parameter_File>
/export/apps/rDock/src/rDock_2013.1_src/data/scripts/dock_solv.prm

>  <Rbt.Receptor>
prm/pocket_docking_2.prm

>  <SCORE>
-11.6711

>  <SCORE.INTER>
-10.5004

>  <SCORE.INTER.CONST>
1

>  <SCORE.INTER.POLAR>
0

>  <SCORE.INTER.ROT>
7

>  <SCORE.INTER.SOLV>
18.8123

>  <SCORE.INTER.VDW>
-21.5377

>  <SCORE.INTER.norm>
-0.388904

>  <SCORE.INTRA>
-1.18723

>  <SCORE.INTRA.DIHEDRAL>
-0.972743

>  <SCORE.INTRA.DIHEDRAL.0>
10.4103

>  <SCORE.INTRA.POLAR>
0

>  <SCORE.INTRA.POLAR.0>
0

>  <SCORE.INTRA.REPUL>
0

>  <SCORE.INTRA.REPUL.0>
0

>  <SCORE.INTRA.SOLV>
-0.148795

>  <SCORE.INTRA.SOLV.lig_0>
-49.5008

>  <SCORE.INTRA.VDW>
-0.626462

>  <SCORE.INTRA.VDW.0>
-2.6946

>  <SCORE.INTRA.norm>
-0.0439715

>  <SCORE.RESTR>
0.016502

>  <SCORE.RESTR.CAVITY>
0.016502

>  <SCORE.RESTR.norm>
0.000611186

>  <SCORE.SYSTEM>
0

>  <SCORE.SYSTEM.CONST>
0

>  <SCORE.SYSTEM.DIHEDRAL>
0

>  <SCORE.SYSTEM.SOLV>
0

>  <SCORE.SYSTEM.norm>
0

>  <SCORE.heavy>
27

>  <SCORE.norm>
-0.432264

>  <RMSD>
1.524

$$$$
ligand
 OpenBabel02271912153D
libRbt.so/2013.1/901 2013/11/27
 27 29  0  0  0  0  0  0  0  0999 V2000
   -3.1146   -9.6609   18.4164 N   0  0  0  0  0  0  0  0  0  0  0  0
   -3.1949   -9.7592   16.9714 C   0  0  2  0  0  0  0  0  0  0  0  0
   -2.4779   -8.5730   16.4038 C   0  0  0  0  0  0  0  0  0  0  0  0
   -2.2630   -8.5215   15.1736 O   0  0  0  0  0  0  0  0  0  0  0  0
   -4.6566   -9.7646   16.5157 C   0  0  0  0  0  0  0  0  0  0  0  0
   -5.5065  -10.7450   17.3541 C   0  0  0  0  0  0  0  0  0  0  0  0
   -5.0042  -12.3457   17.3247 S   0  0  2  0  0  0  0  0  0  0  0  0
   -5.1838  -12.9515   15.7887 C   0  0  0  0  0  0  0  0  0  0  0  0
   -5.9059  -13.2465   18.4311 C   0  0  0  0  0  0  0  0  0  0  0  0
   -5.1500  -13.5808   19.7344 C   0  0  1  0  0  0  0  0  0  0  0  0
   -3.9473  -12.8124   19.9043 O   0  0  0  0  0  0  0  0  0  0  0  0
   -5.9269  -13.2334   20.9941 C   0  0  1  0  0  0  0  0  0  0  0  0
   -7.0179  -14.1016   21.3609 O   0  0  0  0  0  0  0  0  0  0  0  0
   -4.8087  -13.1977   22.0064 C   0  0  1  0  0  0  0  0  0  0  0  0
   -4.3522  -14.5194   22.2777 O   0  0  0  0  0  0  0  0  0  0  0  0
   -3.7335  -12.4533   21.2715 C   0  0  2  0  0  0  0  0  0  0  0  0
   -2.1341   -7.6389   17.1670 O   0  0  0  0  0  0  0  0  0  0  0  0
   -6.1644   -7.7715   20.6028 N   0  0  0  0  0  0  0  0  0  0  0  0
   -6.5192   -8.9923   20.1334 C   0  0  0  0  0  0  0  0  0  0  0  0
   -5.8006  -10.1015   20.3755 N   0  0  0  0  0  0  0  0  0  0  0  0
   -4.6897  -10.0750   21.1201 C   0  0  0  0  0  0  0  0  0  0  0  0
   -4.2686   -8.7961   21.6719 C   0  0  0  0  0  0  0  0  0  0  0  0
   -5.0569   -7.5753   21.3850 C   0  0  0  0  0  0  0  0  0  0  0  0
   -4.7046   -6.3351   21.8755 N   0  0  0  0  0  0  0  0  0  0  0  0
   -3.1784   -9.0465   22.3609 N   0  0  0  0  0  0  0  0  0  0  0  0
   -2.8914  -10.3517   22.2607 C   0  0  0  0  0  0  0  0  0  0  0  0
   -3.8017  -10.9804   21.5179 N   0  0  0  0  0  0  0  0  0  0  0  0
  2  1  1  1  0  0  0
  2  3  1  0  0  0  0
  2  5  1  0  0  0  0
  3  4  1  0  0  0  0
  3 17  1  0  0  0  0
  5  6  1  0  0  0  0
  7  6  1  6  0  0  0
  7  8  1  0  0  0  0
  7  9  1  0  0  0  0
 10  9  1  6  0  0  0
 10 11  1  0  0  0  0
 10 12  1  0  0  0  0
 11 16  1  0  0  0  0
 12 13  1  1  0  0  0
 12 14  1  0  0  0  0
 14 15  1  6  0  0  0
 14 16  1  0  0  0  0
 16 27  1  6  0  0  0
 18 19  2  0  0  0  0
 18 23  1  0  0  0  0
 19 20  1  0  0  0  0
 20 21  2  0  0  0  0
 21 22  1  0  0  0  0
 21 27  1  0  0  0  0
 22 23  2  0  0  0  0
 22 25  1  0  0  0  0
 23 24  1  0  0  0  0
 25 26  2  0  0  0  0
 26 27  1  0  0  0  0
M  END
>  <CHROM.1>
170.97242745,-46.96090429,-58.79469278,-65.42075082,-103.51205227,13.71792803
46.92519350,-4.51417617,-10.76775678,19.48163208,0.19727010,-1.27128405,-2.09001316

>  <Name>
ligand

>  <RI>
0

>  <Rbt.Current_Directory>
/home/itssahil/PROJECTS/Mol_Feturizer/Test_systems_manuscript/rnas/4kqy

>  <Rbt.Executable>
rbdock ($Id: //depot/dev/client3/rdock/2013.1/src/exe/rbdock.cxx#4 $)

>  <Rbt.Library>
libRbt.so (2013.1, Build901 2013/11/27)

>  <Rbt.Parameter_File>
/export/apps/rDock/src/rDock_2013.1_src/data/scripts/dock_solv.prm

>  <Rbt.Receptor>
prm/pocket_docking_3.prm

>  <SCORE>
-13.3622

>  <SCORE.INTER>
-14.4809

>  <SCORE.INTER.CONST>
1

>  <SCORE.INTER.POLAR>
0

>  <SCORE.INTER.ROT>
7

>  <SCORE.INTER.SOLV>
15.2789

>  <SCORE.INTER.VDW>
-23.0136

>  <SCORE.INTER.norm>
-0.536329

>  <SCORE.INTRA>
1.1187

>  <SCORE.INTRA.DIHEDRAL>
1.55776

>  <SCORE.INTRA.DIHEDRAL.0>
10.4103

>  <SCORE.INTRA.POLAR>
0

>  <SCORE.INTRA.POLAR.0>
0

>  <SCORE.INTRA.REPUL>
0

>  <SCORE.INTRA.REPUL.0>
0

>  <SCORE.INTRA.SOLV>
3.49519

>  <SCORE.INTRA.SOLV.lig_0>
-49.5008

>  <SCORE.INTRA.VDW>
-1.40778

>  <SCORE.INTRA.VDW.0>
-2.6946

>  <SCORE.INTRA.norm>
0.0414333

>  <SCORE.RESTR>
0

>  <SCORE.RESTR.CAVITY>
0

>  <SCORE.RESTR.norm>
0

>  <SCORE.SYSTEM>
0

>  <SCORE.SYSTEM.CONST>
0

>  <SCORE.SYSTEM.DIHEDRAL>
0

>  <SCORE.SYSTEM.SOLV>
0

>  <SCORE.SYSTEM.norm>
0

>  <SCORE.heavy>
27

>  <SCORE.norm>
-0.494896

>  <RMSD>
1.526

$$$$
ligand
 OpenBabel02271912153D
libRbt.so/2013.1/901 2013/11/27
 27 29  0  0  0  0  0  0  0  0999 V2000
   -2.3101   -6.8419   16.1527 N   0  0  0  0  0  0  0  0  0  0  0  0
   -2.5680   -8.2488   16.3942 C   0  0  2  0  0  0  0  0  0  0  0  0
   -3.8753   -8.5802   15.7428 C   0  0  0  0  0  0  0  0  0  0  0  0
   -3.9532   -9.5902   15.0106 O   0  0  0  0  0  0  0  0  0  0  0  0
   -2.6371   -8.5299   17.8976 C   0  0  0  0  0  0  0  0  0  0  0  0
   -3.0972   -9.9771   18.1817 C   0  0  0  0  0  0  0  0  0  0  0  0
   -1.8927  -11.1437   18.1237 S   0  0  2  0  0  0  0  0  0  0  0  0
   -0.9770  -10.9231   16.7557 C   0  0  0  0  0  0  0  0  0  0  0  0
   -2.5878  -12.6817   18.1354 C   0  0  0  0  0  0  0  0  0  0  0  0
   -3.2826  -13.0478   19.4639 C   0  0  1  0  0  0  0  0  0  0  0  0
   -2.6815  -12.4203   20.6089 O   0  0  0  0  0  0  0  0  0  0  0  0
   -4.7191  -12.5584   19.5539 C   0  0  1  0  0  0  0  0  0  0  0  0
   -5.7126  -13.2755   18.7940 O   0  0  0  0  0  0  0  0  0  0  0  0
   -4.9357  -12.6125   21.0460 C   0  0  1  0  0  0  0  0  0  0  0  0
   -5.0414  -13.9663   21.4761 O   0  0  0  0  0  0  0  0  0  0  0  0
   -3.6587  -12.0318   21.5774 C   0  0  2  0  0  0  0  0  0  0  0  0
   -4.8754   -7.8576   15.9680 O   0  0  0  0  0  0  0  0  0  0  0  0
   -6.1167   -7.4068   20.6594 N   0  0  0  0  0  0  0  0  0  0  0  0
   -6.4414   -8.6476   20.2217 C   0  0  0  0  0  0  0  0  0  0  0  0
   -5.7194   -9.7387   20.5277 N   0  0  0  0  0  0  0  0  0  0  0  0
   -4.6354   -9.6723   21.3087 C   0  0  0  0  0  0  0  0  0  0  0  0
   -4.2480   -8.3697   21.8288 C   0  0  0  0  0  0  0  0  0  0  0  0
   -5.0395   -7.1696   21.4718 C   0  0  0  0  0  0  0  0  0  0  0  0
   -4.7183   -5.9087   21.9297 N   0  0  0  0  0  0  0  0  0  0  0  0
   -3.1798   -8.5822   22.5634 N   0  0  0  0  0  0  0  0  0  0  0  0
   -2.8750   -9.8865   22.5196 C   0  0  0  0  0  0  0  0  0  0  0  0
   -3.7518  -10.5521   21.7688 N   0  0  0  0  0  0  0  0  0  0  0  0
  2  1  1  1  0  0  0
  2  3  1  0  0  0  0
  2  5  1  0  0  0  0
  3  4  1  0  0  0  0
  3 17  1  0  0  0  0
  5  6  1  0  0  0  0
  7  6  1  6  0  0  0
  7  8  1  0  0  0  0
  7  9  1  0  0  0  0
 10  9  1  6  0  0  0
 10 11  1  0  0  0  0
 10 12  1  0  0  0  0
 11 16  1  0  0  0  0
 12 13  1  6  0  0  0
 12 14  1  0  0  0  0
 14 15  1  1  0  0  0
 14 16  1  0  0  0  0
 16 27  1  6  0  0  0
 18 19  2  0  0  0  0
 18 23  1  0  0  0  0
 19 20  1  0  0  0  0
 20 21  2  0  0  0  0
 21 22  1  0  0  0  0
 21 27  1  0  0  0  0
 22 23  2  0  0  0  0
 22 25  1  0  0  0  0
 23 24  1  0  0  0  0
 25 26  2  0  0  0  0
 26 27  1  0  0  0  0
M  END
>  <CHROM.1>
131.49881266,172.35556032,83.40214518,-46.75293439,-67.73923202,-30.25885706
101.61848984,-3.80354438,-10.11733605,19.33825334,0.84563596,1.21416971,-0.42793644

>  <Name>
ligand

>  <RI>
0

>  <Rbt.Current_Directory>
/home/itssahil/PROJECTS/Mol_Feturizer/Test_systems_manuscript/rnas/4kqy

>  <Rbt.Executable>
rbdock ($Id: //depot/dev/client3/rdock/2013.1/src/exe/rbdock.cxx#4 $)

>  <Rbt.Library>
libRbt.so (2013.1, Build901 2013/11/27)

>  <Rbt.Parameter_File>
/export/apps/rDock/src/rDock_2013.1_src/data/scripts/dock_solv.prm

>  <Rbt.Receptor>
prm/pocket_docking_2.prm

>  <SCORE>
-15.6423

>  <SCORE.INTER>
-13.9495

>  <SCORE.INTER.CONST>
1

>  <SCORE.INTER.POLAR>
0

>  <SCORE.INTER.ROT>
7

>  <SCORE.INTER.SOLV>
24.1245

>  <SCORE.INTER.VDW>
-25.6078

>  <SCORE.INTER.norm>
-0.516649

>  <SCORE.INTRA>
-1.69276

>  <SCORE.INTRA.DIHEDRAL>
-2.3748

>  <SCORE.INTRA.DIHEDRAL.0>
10.4103

>  <SCORE.INTRA.POLAR>
0

>  <SCORE.INTRA.POLAR.0>
0

>  <SCORE.INTRA.REPUL>
0

>  <SCORE.INTRA.REPUL.0>
0

>  <SCORE.INTRA.SOLV>
-0.00853487

>  <SCORE.INTRA.SOLV.lig_0>
-49.5008

>  <SCORE.INTRA.VDW>
-0.501094

>  <SCORE.INTRA.VDW.0>
-2.6946

>  <SCORE.INTRA.norm>
-0.0626949

>  <SCORE.RESTR>
0

>  <SCORE.RESTR.CAVITY>
0

>  <SCORE.RESTR.norm>
0

>  <SCORE.SYSTEM>
0

>  <SCORE.SYSTEM.CONST>
0

>  <SCORE.SYSTEM.DIHEDRAL>
0

>  <SCORE.SYSTEM.SOLV>
0

>  <SCORE.SYSTEM.norm>
0

>  <SCORE.heavy>
27

>  <SCORE.norm>
-0.579344

>  <RMSD>
1.537

$$$$
ligand
 OpenBabel02271912153D
libRbt.so/2013.1/901 2013/11/27
 27 29  0  0  0  0  0  0  0  0999 V2000
   -2.6115   -7.5682   16.3337 N   0  0  0  0  0  0  0  0  0  0  0  0
   -3.3906   -8.6493   15.7605 C   0  0  2  0  0  0  0  0  0  0  0  0
   -4.7859   -8.5216   16.2895 C   0  0  0  0  0  0  0  0  0  0  0  0
   -5.0868   -7.5259   16.9825 O   0  0  0  0  0  0  0  0  0  0  0  0
   -2.7955  -10.0043   16.1527 C   0  0  0  0  0  0  0  0  0  0  0  0
   -2.7359  -10.1728   17.6871 C   0  0  0  0  0  0  0  0  0  0  0  0
   -1.8186  -11.4652   18.2381 S   0  0  2  0  0  0  0  0  0  0  0  0
   -0.3960  -11.5351   17.3838 C   0  0  0  0  0  0  0  0  0  0  0  0
   -2.6913  -12.8992   18.0632 C   0  0  0  0  0  0  0  0  0  0  0  0
   -3.6899  -13.1713   19.2079 C   0  0  1  0  0  0  0  0  0  0  0  0
   -3.2332  -12.6917   20.4836 O   0  0  0  0  0  0  0  0  0  0  0  0
   -5.0115  -12.4370   19.0494 C   0  0  1  0  0  0  0  0  0  0  0  0
   -5.9392  -12.9453   18.0699 O   0  0  0  0  0  0  0  0  0  0  0  0
   -5.5286  -12.4916   20.4657 C   0  0  1  0  0  0  0  0  0  0  0  0
   -5.9456  -13.8160   20.7834 O   0  0  0  0  0  0  0  0  0  0  0  0
   -4.3046  -12.1617   21.2677 C   0  0  2  0  0  0  0  0  0  0  0  0
   -5.6354   -9.3986   16.0022 O   0  0  0  0  0  0  0  0  0  0  0  0
   -5.9431   -7.1741   20.4221 N   0  0  0  0  0  0  0  0  0  0  0  0
   -6.4209   -8.3298   19.8998 C   0  0  0  0  0  0  0  0  0  0  0  0
   -5.9012   -9.5324   20.1982 N   0  0  0  0  0  0  0  0  0  0  0  0
   -4.8826   -9.6690   21.0544 C   0  0  0  0  0  0  0  0  0  0  0  0
   -4.3397   -8.4656   21.6664 C   0  0  0  0  0  0  0  0  0  0  0  0
   -4.9071   -7.1424   21.3179 C   0  0  0  0  0  0  0  0  0  0  0  0
   -4.4311   -5.9672   21.8612 N   0  0  0  0  0  0  0  0  0  0  0  0
   -3.3760   -8.8730   22.4609 N   0  0  0  0  0  0  0  0  0  0  0  0
   -3.2735  -10.2062   22.3710 C   0  0  0  0  0  0  0  0  0  0  0  0
   -4.1828  -10.6947   21.5283 N   0  0  0  0  0  0  0  0  0  0  0  0
  2  1  1  1  0  0  0
  2  3  1  0  0  0  0
  2  5  1  0  0  0  0
  3  4  1  0  0  0  0
  3 17  1  0  0  0  0
  5  6  1  0  0  0  0
  7  6  1  6  0  0  0
  7  8  1  0  0  0  0
  7  9  1  0  0  0  0
 10  9  1  6  0  0  0
 10 11  1  0  0  0  0
 10 12  1  0  0  0  0
 11 16  1  0  0  0  0
 12 13  1  6  0  0  0
 12 14  1  0  0  0  0
 14 15  1  1  0  0  0
 14 16  1  0  0  0  0
 16 27  1  6  0  0  0
 18 19  2  0  0  0  0
 18 23  1  0  0  0  0
 19 20  1  0  0  0  0
 20 21  2  0  0  0  0
 21 22  1  0  0  0  0
 21 27  1  0  0  0  0
 22 23  2  0  0  0  0
 22 25  1  0  0  0  0
 23 24  1  0  0  0  0
 25 26  2  0  0  0  0
 26 27  1  0  0  0  0
M  END
>  <CHROM.1>
6.15411744,58.17151558,-167.74174214,43.59627671,-82.51252235,-33.45456343
108.91174074,-4.07947861,-10.24707542,19.18778514,-2.68782758,-1.18817395
2.62536266

>  <Name>
ligand

>  <RI>
0

>  <Rbt.Current_Directory>
/home/itssahil/PROJECTS/Mol_Feturizer/Test_systems_manuscript/rnas/4kqy

>  <Rbt.Executable>
rbdock ($Id: //depot/dev/client3/rdock/2013.1/src/exe/rbdock.cxx#4 $)

>  <Rbt.Library>
libRbt.so (2013.1, Build901 2013/11/27)

>  <Rbt.Parameter_File>
/export/apps/rDock/src/rDock_2013.1_src/data/scripts/dock_solv.prm

>  <Rbt.Receptor>
prm/pocket_docking_2.prm

>  <SCORE>
-13.3585

>  <SCORE.INTER>
-12.4338

>  <SCORE.INTER.CONST>
1

>  <SCORE.INTER.POLAR>
0

>  <SCORE.INTER.ROT>
7

>  <SCORE.INTER.SOLV>
20.3528

>  <SCORE.INTER.VDW>
-23.3401

>  <SCORE.INTER.norm>
-0.46051

>  <SCORE.INTRA>
-0.962435

>  <SCORE.INTRA.DIHEDRAL>
-2.55319

>  <SCORE.INTRA.DIHEDRAL.0>
10.4103

>  <SCORE.INTRA.POLAR>
0

>  <SCORE.INTRA.POLAR.0>
0

>  <SCORE.INTRA.REPUL>
0

>  <SCORE.INTRA.REPUL.0>
0

>  <SCORE.INTRA.SOLV>
0.517222

>  <SCORE.INTRA.SOLV.lig_0>
-49.5008

>  <SCORE.INTRA.VDW>
0.0555491

>  <SCORE.INTRA.VDW.0>
-2.6946

>  <SCORE.INTRA.norm>
-0.0356457

>  <SCORE.RESTR>
0.0377267

>  <SCORE.RESTR.CAVITY>
0.0377267

>  <SCORE.RESTR.norm>
0.00139729

>  <SCORE.SYSTEM>
0

>  <SCORE.SYSTEM.CONST>
0

>  <SCORE.SYSTEM.DIHEDRAL>
0

>  <SCORE.SYSTEM.SOLV>
0

>  <SCORE.SYSTEM.norm>
0

>  <SCORE.heavy>
27

>  <SCORE.norm>
-0.494759

>  <RMSD>
1.538

$$$$
ligand
 OpenBabel02271912153D
libRbt.so/2013.1/901 2013/11/27
 27 29  0  0  0  0  0  0  0  0999 V2000
   -4.5144   -7.8642   17.8337 N   0  0  0  0  0  0  0  0  0  0  0  0
   -3.1694   -7.8445   17.2907 C   0  0  2  0  0  0  0  0  0  0  0  0
   -3.2705   -8.1944   15.8380 C   0  0  0  0  0  0  0  0  0  0  0  0
   -2.2447   -8.1440   15.1257 O   0  0  0  0  0  0  0  0  0  0  0  0
   -2.2827   -8.8570   18.0207 C   0  0  0  0  0  0  0  0  0  0  0  0
   -2.7991  -10.3006   17.8315 C   0  0  0  0  0  0  0  0  0  0  0  0
   -1.7454  -11.5148   18.3116 S   0  0  2  0  0  0  0  0  0  0  0  0
   -0.3863  -11.4741   17.3577 C   0  0  0  0  0  0  0  0  0  0  0  0
   -2.5120  -13.0139   18.1951 C   0  0  0  0  0  0  0  0  0  0  0  0
   -3.6282  -13.2322   19.2382 C   0  0  1  0  0  0  0  0  0  0  0  0
   -3.2716  -12.7747   20.5532 O   0  0  0  0  0  0  0  0  0  0  0  0
   -4.8890  -12.4309   18.9565 C   0  0  1  0  0  0  0  0  0  0  0  0
   -5.7437  -12.8924   17.8910 O   0  0  0  0  0  0  0  0  0  0  0  0
   -5.5414  -12.4564   20.3166 C   0  0  1  0  0  0  0  0  0  0  0  0
   -6.0545  -13.7570   20.5886 O   0  0  0  0  0  0  0  0  0  0  0  0
   -4.3844  -12.1888   21.2331 C   0  0  2  0  0  0  0  0  0  0  0  0
   -4.3743   -8.5617   15.3691 O   0  0  0  0  0  0  0  0  0  0  0  0
   -6.0098   -7.1600   20.6458 N   0  0  0  0  0  0  0  0  0  0  0  0
   -6.5556   -8.2970   20.1500 C   0  0  0  0  0  0  0  0  0  0  0  0
   -6.0305   -9.5134   20.3735 N   0  0  0  0  0  0  0  0  0  0  0  0
   -4.9368   -9.6835   21.1246 C   0  0  0  0  0  0  0  0  0  0  0  0
   -4.3168   -8.5017   21.7044 C   0  0  0  0  0  0  0  0  0  0  0  0
   -4.8920   -7.1629   21.4379 C   0  0  0  0  0  0  0  0  0  0  0  0
   -4.3456   -6.0068   21.9553 N   0  0  0  0  0  0  0  0  0  0  0  0
   -3.2883   -8.9404   22.3942 N   0  0  0  0  0  0  0  0  0  0  0  0
   -3.2181  -10.2728   22.2692 C   0  0  0  0  0  0  0  0  0  0  0  0
   -4.2125  -10.7295   21.5089 N   0  0  0  0  0  0  0  0  0  0  0  0
  2  1  1  1  0  0  0
  2  3  1  0  0  0  0
  2  5  1  0  0  0  0
  3  4  1  0  0  0  0
  3 17  1  0  0  0  0
  5  6  1  0  0  0  0
  7  6  1  6  0  0  0
  7  8  1  0  0  0  0
  7  9  1  0  0  0  0
 10  9  1  6  0  0  0
 10 11  1  0  0  0  0
 10 12  1  0  0  0  0
 11 16  1  0  0  0  0
 12 13  1  6  0  0  0
 12 14  1  0  0  0  0
 14 15  1  1  0  0  0
 14 16  1  0  0  0  0
 16 27  1  6  0  0  0
 18 19  2  0  0  0  0
 18 23  1  0  0  0  0
 19 20  1  0  0  0  0
 20 21  2  0  0  0  0
 21 22  1  0  0  0  0
 21 27  1  0  0  0  0
 22 23  2  0  0  0  0
 22 25  1  0  0  0  0
 23 24  1  0  0  0  0
 25 26  2  0  0  0  0
 26 27  1  0  0  0  0
M  END
>  <CHROM.1>
174.65342919,62.34579527,167.86227201,-64.29381342,-69.84976808,-42.46942237
120.17034901,-3.89637842,-10.18853620,19.26428696,0.12266910,1.09609945,-0.21106643

>  <Name>
ligand

>  <RI>
0

>  <Rbt.Current_Directory>
/home/itssahil/PROJECTS/Mol_Feturizer/Test_systems_manuscript/rnas/4kqy

>  <Rbt.Executable>
rbdock ($Id: //depot/dev/client3/rdock/2013.1/src/exe/rbdock.cxx#4 $)

>  <Rbt.Library>
libRbt.so (2013.1, Build901 2013/11/27)

>  <Rbt.Parameter_File>
/export/apps/rDock/src/rDock_2013.1_src/data/scripts/dock_solv.prm

>  <Rbt.Receptor>
prm/pocket_docking_3.prm

>  <SCORE>
-17.639

>  <SCORE.INTER>
-14.7826

>  <SCORE.INTER.CONST>
1

>  <SCORE.INTER.POLAR>
0

>  <SCORE.INTER.ROT>
7

>  <SCORE.INTER.SOLV>
18.7739

>  <SCORE.INTER.VDW>
-24.3797

>  <SCORE.INTER.norm>
-0.547504

>  <SCORE.INTRA>
-2.85642

>  <SCORE.INTRA.DIHEDRAL>
-5.70771

>  <SCORE.INTRA.DIHEDRAL.0>
10.4103

>  <SCORE.INTRA.POLAR>
0

>  <SCORE.INTRA.POLAR.0>
0

>  <SCORE.INTRA.REPUL>
0

>  <SCORE.INTRA.REPUL.0>
0

>  <SCORE.INTRA.SOLV>
1.88106

>  <SCORE.INTRA.SOLV.lig_0>
-49.5008

>  <SCORE.INTRA.VDW>
-0.943103

>  <SCORE.INTRA.VDW.0>
-2.6946

>  <SCORE.INTRA.norm>
-0.105793

>  <SCORE.RESTR>
0

>  <SCORE.RESTR.CAVITY>
0

>  <SCORE.RESTR.norm>
0

>  <SCORE.SYSTEM>
0

>  <SCORE.SYSTEM.CONST>
0

>  <SCORE.SYSTEM.DIHEDRAL>
0

>  <SCORE.SYSTEM.SOLV>
0

>  <SCORE.SYSTEM.norm>
0

>  <SCORE.heavy>
27

>  <SCORE.norm>
-0.653298

>  <RMSD>
1.542

$$$$
ligand
 OpenBabel02271912153D
libRbt.so/2013.1/901 2013/11/27
 27 29  0  0  0  0  0  0  0  0999 V2000
   -6.1310   -9.2852   16.2241 N   0  0  0  0  0  0  0  0  0  0  0  0
   -4.7559   -9.5236   16.6197 C   0  0  2  0  0  0  0  0  0  0  0  0
   -4.0359   -8.2127   16.5401 C   0  0  0  0  0  0  0  0  0  0  0  0
   -3.5207   -7.8647   15.4558 O   0  0  0  0  0  0  0  0  0  0  0  0
   -4.1008  -10.5471   15.6884 C   0  0  0  0  0  0  0  0  0  0  0  0
   -2.6281  -10.8045   16.0777 C   0  0  0  0  0  0  0  0  0  0  0  0
   -2.3832  -11.4049   17.6252 S   0  0  2  0  0  0  0  0  0  0  0  0
   -0.7570  -11.6280   17.8788 C   0  0  0  0  0  0  0  0  0  0  0  0
   -3.2215  -12.8578   17.8122 C   0  0  0  0  0  0  0  0  0  0  0  0
   -3.5576  -13.2059   19.2777 C   0  0  1  0  0  0  0  0  0  0  0  0
   -2.7461  -12.4964   20.2285 O   0  0  0  0  0  0  0  0  0  0  0  0
   -4.9613  -12.7965   19.6934 C   0  0  1  0  0  0  0  0  0  0  0  0
   -6.0566  -13.6014   19.2125 O   0  0  0  0  0  0  0  0  0  0  0  0
   -4.8157  -12.7988   21.1951 C   0  0  1  0  0  0  0  0  0  0  0  0
   -4.7273  -14.1367   21.6758 O   0  0  0  0  0  0  0  0  0  0  0  0
   -3.4906  -12.1235   21.3906 C   0  0  2  0  0  0  0  0  0  0  0  0
   -3.9897   -7.4737   17.5525 O   0  0  0  0  0  0  0  0  0  0  0  0
   -6.0081   -7.5762   20.2682 N   0  0  0  0  0  0  0  0  0  0  0  0
   -6.2736   -8.8301   19.8279 C   0  0  0  0  0  0  0  0  0  0  0  0
   -5.5433   -9.8980   20.1904 N   0  0  0  0  0  0  0  0  0  0  0  0
   -4.5102   -9.7940   21.0338 C   0  0  0  0  0  0  0  0  0  0  0  0
   -4.1887   -8.4758   21.5594 C   0  0  0  0  0  0  0  0  0  0  0  0
   -4.9881   -7.3012   21.1403 C   0  0  0  0  0  0  0  0  0  0  0  0
   -4.7277   -6.0271   21.6004 N   0  0  0  0  0  0  0  0  0  0  0  0
   -3.1613   -8.6515   22.3591 N   0  0  0  0  0  0  0  0  0  0  0  0
   -2.8207   -9.9476   22.3504 C   0  0  0  0  0  0  0  0  0  0  0  0
   -3.6333  -10.6447   21.5571 N   0  0  0  0  0  0  0  0  0  0  0  0
  2  1  1  6  0  0  0
  2  3  1  0  0  0  0
  2  5  1  0  0  0  0
  3  4  1  0  0  0  0
  3 17  1  0  0  0  0
  5  6  1  0  0  0  0
  7  6  1  6  0  0  0
  7  8  1  0  0  0  0
  7  9  1  0  0  0  0
 10  9  1  6  0  0  0
 10 11  1  0  0  0  0
 10 12  1  0  0  0  0
 11 16  1  0  0  0  0
 12 13  1  1  0  0  0
 12 14  1  0  0  0  0
 14 15  1  6  0  0  0
 14 16  1  0  0  0  0
 16 27  1  6  0  0  0
 18 19  2  0  0  0  0
 18 23  1  0  0  0  0
 19 20  1  0  0  0  0
 20 21  2  0  0  0  0
 21 22  1  0  0  0  0
 21 27  1  0  0  0  0
 22 23  2  0  0  0  0
 22 25  1  0  0  0  0
 23 24  1  0  0  0  0
 25 26  2  0  0  0  0
 26 27  1  0  0  0  0
M  END
>  <CHROM.1>
-87.47352291,179.23876079,60.20741273,179.82582388,-156.30637893,-19.22692272
84.28457657,-4.03746543,-10.39323423,19.20156437,-1.69379214,-1.31271750
2.27130366

>  <Name>
ligand

>  <RI>
0

>  <Rbt.Current_Directory>
/home/itssahil/PROJECTS/Mol_Feturizer/Test_systems_manuscript/rnas/4kqy

>  <Rbt.Executable>
rbdock ($Id: //depot/dev/client3/rdock/2013.1/src/exe/rbdock.cxx#4 $)

>  <Rbt.Library>
libRbt.so (2013.1, Build901 2013/11/27)

>  <Rbt.Parameter_File>
/export/apps/rDock/src/rDock_2013.1_src/data/scripts/dock_solv.prm

>  <Rbt.Receptor>
prm/pocket_docking_2.prm

>  <SCORE>
-12.2134

>  <SCORE.INTER>
-10.5722

>  <SCORE.INTER.CONST>
1

>  <SCORE.INTER.POLAR>
0

>  <SCORE.INTER.ROT>
7

>  <SCORE.INTER.SOLV>
16.3639

>  <SCORE.INTER.VDW>
-20.7695

>  <SCORE.INTER.norm>
-0.391564

>  <SCORE.INTRA>
-2.14984

>  <SCORE.INTRA.DIHEDRAL>
-2.16239

>  <SCORE.INTRA.DIHEDRAL.0>
10.4103

>  <SCORE.INTRA.POLAR>
0

>  <SCORE.INTRA.POLAR.0>
0

>  <SCORE.INTRA.REPUL>
0

>  <SCORE.INTRA.REPUL.0>
0

>  <SCORE.INTRA.SOLV>
-0.08271

>  <SCORE.INTRA.SOLV.lig_0>
-49.5008

>  <SCORE.INTRA.VDW>
-1.02729

>  <SCORE.INTRA.VDW.0>
-2.6946

>  <SCORE.INTRA.norm>
-0.0796236

>  <SCORE.RESTR>
0.508635

>  <SCORE.RESTR.CAVITY>
0.508635

>  <SCORE.RESTR.norm>
0.0188383

>  <SCORE.SYSTEM>
0

>  <SCORE.SYSTEM.CONST>
0

>  <SCORE.SYSTEM.DIHEDRAL>
0

>  <SCORE.SYSTEM.SOLV>
0

>  <SCORE.SYSTEM.norm>
0

>  <SCORE.heavy>
27

>  <SCORE.norm>
-0.45235

>  <RMSD>
1.551

$$$$
ligand
 OpenBabel02271912153D
libRbt.so/2013.1/901 2013/11/27
 27 29  0  0  0  0  0  0  0  0999 V2000
   -5.4673   -8.3099   17.5854 N   0  0  0  0  0  0  0  0  0  0  0  0
   -4.0632   -8.4549   17.2509 C   0  0  2  0  0  0  0  0  0  0  0  0
   -3.9819   -8.7307   15.7810 C   0  0  0  0  0  0  0  0  0  0  0  0
   -4.8579   -9.4429   15.2447 O   0  0  0  0  0  0  0  0  0  0  0  0
   -3.4406   -9.6077   18.0431 C   0  0  0  0  0  0  0  0  0  0  0  0
   -2.0526   -9.9926   17.4847 C   0  0  0  0  0  0  0  0  0  0  0  0
   -1.3982  -11.4143   18.0895 S   0  0  2  0  0  0  0  0  0  0  0  0
   -0.0038  -11.7748   17.2623 C   0  0  0  0  0  0  0  0  0  0  0  0
   -2.5205  -12.6663   17.9422 C   0  0  0  0  0  0  0  0  0  0  0  0
   -3.2057  -13.0560   19.2690 C   0  0  1  0  0  0  0  0  0  0  0  0
   -2.6204  -12.4190   20.4169 O   0  0  0  0  0  0  0  0  0  0  0  0
   -4.6540  -12.6035   19.3613 C   0  0  1  0  0  0  0  0  0  0  0  0
   -5.6293  -13.3418   18.5982 O   0  0  0  0  0  0  0  0  0  0  0  0
   -4.8690  -12.6700   20.8532 C   0  0  1  0  0  0  0  0  0  0  0  0
   -4.9404  -14.0280   21.2769 O   0  0  0  0  0  0  0  0  0  0  0  0
   -3.6069  -12.0599   21.3872 C   0  0  2  0  0  0  0  0  0  0  0  0
   -3.0555   -8.2173   15.1092 O   0  0  0  0  0  0  0  0  0  0  0  0
   -6.2485   -7.5137   20.5935 N   0  0  0  0  0  0  0  0  0  0  0  0
   -6.5542   -8.7639   20.1691 C   0  0  0  0  0  0  0  0  0  0  0  0
   -5.7850   -9.8319   20.4390 N   0  0  0  0  0  0  0  0  0  0  0  0
   -4.6684   -9.7320   21.1689 C   0  0  0  0  0  0  0  0  0  0  0  0
   -4.2982   -8.4181   21.6730 C   0  0  0  0  0  0  0  0  0  0  0  0
   -5.1426   -7.2432   21.3554 C   0  0  0  0  0  0  0  0  0  0  0  0
   -4.8400   -5.9731   21.8004 N   0  0  0  0  0  0  0  0  0  0  0  0
   -3.1908   -8.5974   22.3567 N   0  0  0  0  0  0  0  0  0  0  0  0
   -2.8477   -9.8915   22.2962 C   0  0  0  0  0  0  0  0  0  0  0  0
   -3.7373  -10.5838   21.5857 N   0  0  0  0  0  0  0  0  0  0  0  0
  2  1  1  1  0  0  0
  2  3  1  0  0  0  0
  2  5  1  0  0  0  0
  3  4  1  0  0  0  0
  3 17  1  0  0  0  0
  5  6  1  0  0  0  0
  7  6  1  6  0  0  0
  7  8  1  0  0  0  0
  7  9  1  0  0  0  0
 10  9  1  6  0  0  0
 10 11  1  0  0  0  0
 10 12  1  0  0  0  0
 11 16  1  0  0  0  0
 12 13  1  6  0  0  0
 12 14  1  0  0  0  0
 14 15  1  1  0  0  0
 14 16  1  0  0  0  0
 16 27  1  6  0  0  0
 18 19  2  0  0  0  0
 18 23  1  0  0  0  0
 19 20  1  0  0  0  0
 20 21  2  0  0  0  0
 21 22  1  0  0  0  0
 21 27  1  0  0  0  0
 22 23  2  0  0  0  0
 22 25  1  0  0  0  0
 23 24  1  0  0  0  0
 25 26  2  0  0  0  0
 26 27  1  0  0  0  0
M  END
>  <CHROM.1>
-36.77653771,167.11937249,-169.38107258,173.31223400,-104.35397282,-8.70537832
104.31058616,-3.84422920,-10.31430119,19.28865112,2.94921813,-1.10150144
2.31866566

>  <Name>
ligand

>  <RI>
0

>  <Rbt.Current_Directory>
/home/itssahil/PROJECTS/Mol_Feturizer/Test_systems_manuscript/rnas/4kqy

>  <Rbt.Executable>
rbdock ($Id: //depot/dev/client3/rdock/2013.1/src/exe/rbdock.cxx#4 $)

>  <Rbt.Library>
libRbt.so (2013.1, Build901 2013/11/27)

>  <Rbt.Parameter_File>
/export/apps/rDock/src/rDock_2013.1_src/data/scripts/dock_solv.prm

>  <Rbt.Receptor>
prm/pocket_docking_4.prm

>  <SCORE>
-13.3593

>  <SCORE.INTER>
-14.1152

>  <SCORE.INTER.CONST>
1

>  <SCORE.INTER.POLAR>
0

>  <SCORE.INTER.ROT>
7

>  <SCORE.INTER.SOLV>
17.3124

>  <SCORE.INTER.VDW>
-23.4476

>  <SCORE.INTER.norm>
-0.522785

>  <SCORE.INTRA>
0.755916

>  <SCORE.INTRA.DIHEDRAL>
2.6135

>  <SCORE.INTRA.DIHEDRAL.0>
10.4103

>  <SCORE.INTRA.POLAR>
0

>  <SCORE.INTRA.POLAR.0>
0

>  <SCORE.INTRA.REPUL>
0

>  <SCORE.INTRA.REPUL.0>
0

>  <SCORE.INTRA.SOLV>
1.25718

>  <SCORE.INTRA.SOLV.lig_0>
-49.5008

>  <SCORE.INTRA.VDW>
-1.17942

>  <SCORE.INTRA.VDW.0>
-2.6946

>  <SCORE.INTRA.norm>
0.0279969

>  <SCORE.RESTR>
0

>  <SCORE.RESTR.CAVITY>
0

>  <SCORE.RESTR.norm>
0

>  <SCORE.SYSTEM>
0

>  <SCORE.SYSTEM.CONST>
0

>  <SCORE.SYSTEM.DIHEDRAL>
0

>  <SCORE.SYSTEM.SOLV>
0

>  <SCORE.SYSTEM.norm>
0

>  <SCORE.heavy>
27

>  <SCORE.norm>
-0.494788

>  <RMSD>
1.580

$$$$
ligand
 OpenBabel02271912153D
libRbt.so/2013.1/901 2013/11/27
 27 29  0  0  0  0  0  0  0  0999 V2000
   -4.4531   -7.8817   15.6596 N   0  0  0  0  0  0  0  0  0  0  0  0
   -4.2355   -9.1123   16.3959 C   0  0  2  0  0  0  0  0  0  0  0  0
   -3.7530   -8.7343   17.7625 C   0  0  0  0  0  0  0  0  0  0  0  0
   -4.4166   -9.0845   18.7621 O   0  0  0  0  0  0  0  0  0  0  0  0
   -3.1947   -9.9832   15.6871 C   0  0  0  0  0  0  0  0  0  0  0  0
   -3.2683  -11.4515   16.1617 C   0  0  0  0  0  0  0  0  0  0  0  0
   -3.0750  -11.6892   17.8114 S   0  0  2  0  0  0  0  0  0  0  0  0
   -1.4884  -11.4230   18.2243 C   0  0  0  0  0  0  0  0  0  0  0  0
   -3.5431  -13.2585   18.2198 C   0  0  0  0  0  0  0  0  0  0  0  0
   -4.1313  -13.3897   19.6406 C   0  0  1  0  0  0  0  0  0  0  0  0
   -3.3024  -12.7958   20.6536 O   0  0  0  0  0  0  0  0  0  0  0  0
   -5.4419  -12.6426   19.8274 C   0  0  1  0  0  0  0  0  0  0  0  0
   -6.6254  -13.2237   19.2440 O   0  0  0  0  0  0  0  0  0  0  0  0
   -5.4897  -12.5420   21.3320 C   0  0  1  0  0  0  0  0  0  0  0  0
   -5.7757  -13.8172   21.8986 O   0  0  0  0  0  0  0  0  0  0  0  0
   -4.0790  -12.1636   21.6738 C   0  0  2  0  0  0  0  0  0  0  0  0
   -2.6769   -8.1011   17.8816 O   0  0  0  0  0  0  0  0  0  0  0  0
   -5.9142   -7.2481   20.8103 N   0  0  0  0  0  0  0  0  0  0  0  0
   -6.5174   -8.4383   20.5736 C   0  0  0  0  0  0  0  0  0  0  0  0
   -5.9283   -9.6171   20.8358 N   0  0  0  0  0  0  0  0  0  0  0  0
   -4.7050   -9.6916   21.3720 C   0  0  0  0  0  0  0  0  0  0  0  0
   -4.0138   -8.4464   21.6702 C   0  0  0  0  0  0  0  0  0  0  0  0
   -4.6637   -7.1516   21.3613 C   0  0  0  0  0  0  0  0  0  0  0  0
   -4.0562   -5.9397   21.6164 N   0  0  0  0  0  0  0  0  0  0  0  0
   -2.8598   -8.7951   22.1923 N   0  0  0  0  0  0  0  0  0  0  0  0
   -2.7817  -10.1327   22.2191 C   0  0  0  0  0  0  0  0  0  0  0  0
   -3.8935  -10.6812   21.7307 N   0  0  0  0  0  0  0  0  0  0  0  0
  2  1  1  6  0  0  0
  2  3  1  0  0  0  0
  2  5  1  0  0  0  0
  3  4  1  0  0  0  0
  3 17  1  0  0  0  0
  5  6  1  0  0  0  0
  7  6  1  6  0  0  0
  7  8  1  0  0  0  0
  7  9  1  0  0  0  0
 10  9  1  6  0  0  0
 10 11  1  0  0  0  0
 10 12  1  0  0  0  0
 11 16  1  0  0  0  0
 12 13  1  1  0  0  0
 12 14  1  0  0  0  0
 14 15  1  1  0  0  0
 14 16  1  0  0  0  0
 16 27  1  6  0  0  0
 18 19  2  0  0  0  0
 18 23  1  0  0  0  0
 19 20  1  0  0  0  0
 20 21  2  0  0  0  0
 21 22  1  0  0  0  0
 21 27  1  0  0  0  0
 22 23  2  0  0  0  0
 22 25  1  0  0  0  0
 23 24  1  0  0  0  0
 25 26  2  0  0  0  0
 26 27  1  0  0  0  0
M  END
>  <CHROM.1>
120.17996054,-161.57853781,-57.26108288,-71.88675448,-148.85048906,-50.48572304
107.45911774,-4.16925309,-10.39768950,19.54803451,-1.60559599,-1.29469778
-3.04027388

>  <Name>
ligand

>  <RI>
0

>  <Rbt.Current_Directory>
/home/itssahil/PROJECTS/Mol_Feturizer/Test_systems_manuscript/rnas/4kqy

>  <Rbt.Executable>
rbdock ($Id: //depot/dev/client3/rdock/2013.1/src/exe/rbdock.cxx#4 $)

>  <Rbt.Library>
libRbt.so (2013.1, Build901 2013/11/27)

>  <Rbt.Parameter_File>
/export/apps/rDock/src/rDock_2013.1_src/data/scripts/dock_solv.prm

>  <Rbt.Receptor>
prm/pocket_docking_3.prm

>  <SCORE>
-13.4574

>  <SCORE.INTER>
-9.64099

>  <SCORE.INTER.CONST>
1

>  <SCORE.INTER.POLAR>
0

>  <SCORE.INTER.ROT>
7

>  <SCORE.INTER.SOLV>
21.1837

>  <SCORE.INTER.VDW>
-21.7552

>  <SCORE.INTER.norm>
-0.357074

>  <SCORE.INTRA>
-3.81645

>  <SCORE.INTRA.DIHEDRAL>
-3.05645

>  <SCORE.INTRA.DIHEDRAL.0>
10.4103

>  <SCORE.INTRA.POLAR>
0

>  <SCORE.INTRA.POLAR.0>
0

>  <SCORE.INTRA.REPUL>
0

>  <SCORE.INTRA.REPUL.0>
0

>  <SCORE.INTRA.SOLV>
-0.292115

>  <SCORE.INTRA.SOLV.lig_0>
-49.5008

>  <SCORE.INTRA.VDW>
-2.14216

>  <SCORE.INTRA.VDW.0>
-2.6946

>  <SCORE.INTRA.norm>
-0.14135

>  <SCORE.RESTR>
0

>  <SCORE.RESTR.CAVITY>
0

>  <SCORE.RESTR.norm>
0

>  <SCORE.SYSTEM>
0

>  <SCORE.SYSTEM.CONST>
0

>  <SCORE.SYSTEM.DIHEDRAL>
0

>  <SCORE.SYSTEM.SOLV>
0

>  <SCORE.SYSTEM.norm>
0

>  <SCORE.heavy>
27

>  <SCORE.norm>
-0.498424

>  <RMSD>
1.599

$$$$
ligand
 OpenBabel02271912153D
libRbt.so/2013.1/901 2013/11/27
 27 29  0  0  0  0  0  0  0  0999 V2000
   -4.5453   -7.9095   17.0739 N   0  0  0  0  0  0  0  0  0  0  0  0
   -3.9863   -9.1437   17.5922 C   0  0  2  0  0  0  0  0  0  0  0  0
   -2.5943   -8.8422   18.0553 C   0  0  0  0  0  0  0  0  0  0  0  0
   -2.0980   -9.5224   18.9790 O   0  0  0  0  0  0  0  0  0  0  0  0
   -3.9626  -10.2194   16.5029 C   0  0  0  0  0  0  0  0  0  0  0  0
   -4.2873  -11.6153   17.0796 C   0  0  0  0  0  0  0  0  0  0  0  0
   -3.1082  -12.2809   18.0706 S   0  0  2  0  0  0  0  0  0  0  0  0
   -1.6526  -12.2825   17.2706 C   0  0  0  0  0  0  0  0  0  0  0  0
   -3.5506  -13.8496   18.5085 C   0  0  0  0  0  0  0  0  0  0  0  0
   -4.4267  -13.9252   19.7768 C   0  0  1  0  0  0  0  0  0  0  0  0
   -3.8162  -13.3111   20.9240 O   0  0  0  0  0  0  0  0  0  0  0  0
   -5.7308  -13.1525   19.6619 C   0  0  1  0  0  0  0  0  0  0  0  0
   -6.7778  -13.7343   18.8595 O   0  0  0  0  0  0  0  0  0  0  0  0
   -6.0911  -13.0018   21.1192 C   0  0  1  0  0  0  0  0  0  0  0  0
   -6.5174  -14.2533   21.6495 O   0  0  0  0  0  0  0  0  0  0  0  0
   -4.7757  -12.6339   21.7392 C   0  0  2  0  0  0  0  0  0  0  0  0
   -1.9402   -7.9346   17.4881 O   0  0  0  0  0  0  0  0  0  0  0  0
   -6.0770   -7.7410   20.1139 N   0  0  0  0  0  0  0  0  0  0  0  0
   -6.6055   -8.9325   19.7430 C   0  0  0  0  0  0  0  0  0  0  0  0
   -6.1707  -10.1053   20.2337 N   0  0  0  0  0  0  0  0  0  0  0  0
   -5.1931  -10.1711   21.1443 C   0  0  0  0  0  0  0  0  0  0  0  0
   -4.5999   -8.9229   21.5999 C   0  0  0  0  0  0  0  0  0  0  0  0
   -5.0732   -7.6357   21.0402 C   0  0  0  0  0  0  0  0  0  0  0  0
   -4.5461   -6.4217   21.4291 N   0  0  0  0  0  0  0  0  0  0  0  0
   -3.6914   -9.2623   22.4861 N   0  0  0  0  0  0  0  0  0  0  0  0
   -3.6670  -10.5979   22.5936 C   0  0  0  0  0  0  0  0  0  0  0  0
   -4.5740  -11.1535   21.7910 N   0  0  0  0  0  0  0  0  0  0  0  0
  2  1  1  6  0  0  0
  2  3  1  0  0  0  0
  2  5  1  0  0  0  0
  3  4  1  0  0  0  0
  3 17  1  0  0  0  0
  5  6  1  0  0  0  0
  7  6  1  6  0  0  0
  7  8  1  0  0  0  0
  7  9  1  0  0  0  0
 10  9  1  6  0  0  0
 10 11  1  0  0  0  0
 10 12  1  0  0  0  0
 11 16  1  0  0  0  0
 12 13  1  6  0  0  0
 12 14  1  0  0  0  0
 14 15  1  1  0  0  0
 14 16  1  0  0  0  0
 16 27  1  6  0  0  0
 18 19  2  0  0  0  0
 18 23  1  0  0  0  0
 19 20  1  0  0  0  0
 20 21  2  0  0  0  0
 21 22  1  0  0  0  0
 21 27  1  0  0  0  0
 22 23  2  0  0  0  0
 22 25  1  0  0  0  0
 23 24  1  0  0  0  0
 25 26  2  0  0  0  0
 26 27  1  0  0  0  0
M  END
>  <CHROM.1>
151.87819558,-142.66191101,-69.91351026,-53.50502949,-87.88092889,-56.61073030
100.39468163,-4.35935111,-10.81732297,19.60319351,-1.14883202,-1.04625853
-2.94307293

>  <Name>
ligand

>  <RI>
0

>  <Rbt.Current_Directory>
/home/itssahil/PROJECTS/Mol_Feturizer/Test_systems_manuscript/rnas/4kqy

>  <Rbt.Executable>
rbdock ($Id: //depot/dev/client3/rdock/2013.1/src/exe/rbdock.cxx#4 $)

>  <Rbt.Library>
libRbt.so (2013.1, Build901 2013/11/27)

>  <Rbt.Parameter_File>
/export/apps/rDock/src/rDock_2013.1_src/data/scripts/dock_solv.prm

>  <Rbt.Receptor>
prm/pocket_docking_2.prm

>  <SCORE>
-14.6524

>  <SCORE.INTER>
-11.5031

>  <SCORE.INTER.CONST>
1

>  <SCORE.INTER.POLAR>
0

>  <SCORE.INTER.ROT>
7

>  <SCORE.INTER.SOLV>
15.9033

>  <SCORE.INTER.VDW>
-21.2365

>  <SCORE.INTER.norm>
-0.426041

>  <SCORE.INTRA>
-3.27594

>  <SCORE.INTRA.DIHEDRAL>
-0.999829

>  <SCORE.INTRA.DIHEDRAL.0>
10.4103

>  <SCORE.INTRA.POLAR>
0

>  <SCORE.INTRA.POLAR.0>
0

>  <SCORE.INTRA.REPUL>
0

>  <SCORE.INTRA.REPUL.0>
0

>  <SCORE.INTRA.SOLV>
0.537179

>  <SCORE.INTRA.SOLV.lig_0>
-49.5008

>  <SCORE.INTRA.VDW>
-3.04462

>  <SCORE.INTRA.VDW.0>
-2.6946

>  <SCORE.INTRA.norm>
-0.121331

>  <SCORE.RESTR>
0.126647

>  <SCORE.RESTR.CAVITY>
0.126647

>  <SCORE.RESTR.norm>
0.00469062

>  <SCORE.SYSTEM>
0

>  <SCORE.SYSTEM.CONST>
0

>  <SCORE.SYSTEM.DIHEDRAL>
0

>  <SCORE.SYSTEM.SOLV>
0

>  <SCORE.SYSTEM.norm>
0

>  <SCORE.heavy>
27

>  <SCORE.norm>
-0.542681

>  <RMSD>
1.625

$$$$
ligand
 OpenBabel02271912153D
libRbt.so/2013.1/901 2013/11/27
 27 29  0  0  0  0  0  0  0  0999 V2000
   -2.6885   -7.6299   15.6353 N   0  0  0  0  0  0  0  0  0  0  0  0
   -2.4587   -9.0253   15.9584 C   0  0  2  0  0  0  0  0  0  0  0  0
   -1.2967   -9.4877   15.1344 C   0  0  0  0  0  0  0  0  0  0  0  0
   -1.0875   -8.9563   14.0226 O   0  0  0  0  0  0  0  0  0  0  0  0
   -3.7018   -9.8602   15.6397 C   0  0  0  0  0  0  0  0  0  0  0  0
   -3.5682  -11.3017   16.1789 C   0  0  0  0  0  0  0  0  0  0  0  0
   -3.6695  -11.4631   17.8459 S   0  0  2  0  0  0  0  0  0  0  0  0
   -2.3323  -10.7726   18.5487 C   0  0  0  0  0  0  0  0  0  0  0  0
   -3.7825  -13.0967   18.2546 C   0  0  0  0  0  0  0  0  0  0  0  0
   -4.0693  -13.3527   19.7492 C   0  0  1  0  0  0  0  0  0  0  0  0
   -3.1787  -12.6430   20.6263 O   0  0  0  0  0  0  0  0  0  0  0  0
   -5.4289  -12.8463   20.2030 C   0  0  1  0  0  0  0  0  0  0  0  0
   -6.5861  -13.6122   19.8119 O   0  0  0  0  0  0  0  0  0  0  0  0
   -5.2152  -12.7823   21.6951 C   0  0  1  0  0  0  0  0  0  0  0  0
   -5.1761  -14.0976   22.2404 O   0  0  0  0  0  0  0  0  0  0  0  0
   -3.8486  -12.1725   21.7982 C   0  0  2  0  0  0  0  0  0  0  0  0
   -0.5364  -10.3766   15.5872 O   0  0  0  0  0  0  0  0  0  0  0  0
   -6.1215   -7.5480   20.4851 N   0  0  0  0  0  0  0  0  0  0  0  0
   -6.4641   -8.8045   20.1102 C   0  0  0  0  0  0  0  0  0  0  0  0
   -5.7899   -9.8937   20.5156 N   0  0  0  0  0  0  0  0  0  0  0  0
   -4.7401   -9.8084   21.3402 C   0  0  0  0  0  0  0  0  0  0  0  0
   -4.3366   -8.4869   21.7965 C   0  0  0  0  0  0  0  0  0  0  0  0
   -5.0745   -7.2901   21.3302 C   0  0  0  0  0  0  0  0  0  0  0  0
   -4.7356   -6.0123   21.7240 N   0  0  0  0  0  0  0  0  0  0  0  0
   -3.3089   -8.6823   22.5912 N   0  0  0  0  0  0  0  0  0  0  0  0
   -3.0424   -9.9946   22.6419 C   0  0  0  0  0  0  0  0  0  0  0  0
   -3.9049  -10.6816   21.8938 N   0  0  0  0  0  0  0  0  0  0  0  0
  2  1  1  6  0  0  0
  2  3  1  0  0  0  0
  2  5  1  0  0  0  0
  3  4  1  0  0  0  0
  3 17  1  0  0  0  0
  5  6  1  0  0  0  0
  7  6  1  6  0  0  0
  7  8  1  0  0  0  0
  7  9  1  0  0  0  0
 10  9  1  6  0  0  0
 10 11  1  0  0  0  0
 10 12  1  0  0  0  0
 11 16  1  0  0  0  0
 12 13  1  1  0  0  0
 12 14  1  0  0  0  0
 14 15  1  6  0  0  0
 14 16  1  0  0  0  0
 16 27  1  6  0  0  0
 18 19  2  0  0  0  0
 18 23  1  0  0  0  0
 19 20  1  0  0  0  0
 20 21  2  0  0  0  0
 21 22  1  0  0  0  0
 21 27  1  0  0  0  0
 22 23  2  0  0  0  0
 22 25  1  0  0  0  0
 23 24  1  0  0  0  0
 25 26  2  0  0  0  0
 26 27  1  0  0  0  0
M  END
>  <CHROM.1>
-29.44507025,-170.96864361,71.73411031,-68.37332026,-172.28276866,-50.65536000
82.51788803,-3.88865774,-10.50810998,19.24905560,0.08305849,1.14429264,0.13083749

>  <Name>
ligand

>  <RI>
0

>  <Rbt.Current_Directory>
/home/itssahil/PROJECTS/Mol_Feturizer/Test_systems_manuscript/rnas/4kqy

>  <Rbt.Executable>
rbdock ($Id: //depot/dev/client3/rdock/2013.1/src/exe/rbdock.cxx#4 $)

>  <Rbt.Library>
libRbt.so (2013.1, Build901 2013/11/27)

>  <Rbt.Parameter_File>
/export/apps/rDock/src/rDock_2013.1_src/data/scripts/dock_solv.prm

>  <Rbt.Receptor>
prm/pocket_docking_4.prm

>  <SCORE>
-16.7708

>  <SCORE.INTER>
-13.2453

>  <SCORE.INTER.CONST>
1

>  <SCORE.INTER.POLAR>
0

>  <SCORE.INTER.ROT>
7

>  <SCORE.INTER.SOLV>
20.0142

>  <SCORE.INTER.VDW>
-23.7683

>  <SCORE.INTER.norm>
-0.490568

>  <SCORE.INTRA>
-3.541

>  <SCORE.INTRA.DIHEDRAL>
-6.0229

>  <SCORE.INTRA.DIHEDRAL.0>
10.4103

>  <SCORE.INTRA.POLAR>
0

>  <SCORE.INTRA.POLAR.0>
0

>  <SCORE.INTRA.REPUL>
0

>  <SCORE.INTRA.REPUL.0>
0

>  <SCORE.INTRA.SOLV>
0.132882

>  <SCORE.INTRA.SOLV.lig_0>
-49.5008

>  <SCORE.INTRA.VDW>
-0.595996

>  <SCORE.INTRA.VDW.0>
-2.6946

>  <SCORE.INTRA.norm>
-0.131148

>  <SCORE.RESTR>
0.0155288

>  <SCORE.RESTR.CAVITY>
0.0155288

>  <SCORE.RESTR.norm>
0.000575143

>  <SCORE.SYSTEM>
0

>  <SCORE.SYSTEM.CONST>
0

>  <SCORE.SYSTEM.DIHEDRAL>
0

>  <SCORE.SYSTEM.SOLV>
0

>  <SCORE.SYSTEM.norm>
0

>  <SCORE.heavy>
27

>  <SCORE.norm>
-0.621142

>  <RMSD>
1.691

$$$$
ligand
 OpenBabel02271912153D
libRbt.so/2013.1/901 2013/11/27
 27 29  0  0  0  0  0  0  0  0999 V2000
   -1.4027  -11.9149   17.1524 N   0  0  0  0  0  0  0  0  0  0  0  0
   -1.8230  -10.5520   16.8879 C   0  0  2  0  0  0  0  0  0  0  0  0
   -1.9198   -9.8516   18.2082 C   0  0  0  0  0  0  0  0  0  0  0  0
   -2.0326  -10.5302   19.2518 O   0  0  0  0  0  0  0  0  0  0  0  0
   -3.1797  -10.5384   16.1784 C   0  0  0  0  0  0  0  0  0  0  0  0
   -4.2988  -11.0925   17.0878 C   0  0  0  0  0  0  0  0  0  0  0  0
   -4.4543  -12.7630   17.1078 S   0  0  2  0  0  0  0  0  0  0  0  0
   -4.9334  -13.2899   15.6073 C   0  0  0  0  0  0  0  0  0  0  0  0
   -5.5743  -13.2172   18.2859 C   0  0  0  0  0  0  0  0  0  0  0  0
   -4.9466  -13.5463   19.6568 C   0  0  1  0  0  0  0  0  0  0  0  0
   -3.7705  -12.7707   19.9419 O   0  0  0  0  0  0  0  0  0  0  0  0
   -5.8441  -13.2029   20.8348 C   0  0  1  0  0  0  0  0  0  0  0  0
   -6.9606  -14.0774   21.0948 O   0  0  0  0  0  0  0  0  0  0  0  0
   -4.8298  -13.1600   21.9508 C   0  0  1  0  0  0  0  0  0  0  0  0
   -4.3941  -14.4789   22.2666 O   0  0  0  0  0  0  0  0  0  0  0  0
   -3.6927  -12.4097   21.3229 C   0  0  2  0  0  0  0  0  0  0  0  0
   -1.8545   -8.5996   18.2467 O   0  0  0  0  0  0  0  0  0  0  0  0
   -6.1472   -7.7629   20.5113 N   0  0  0  0  0  0  0  0  0  0  0  0
   -6.4609   -8.9898   20.0287 C   0  0  0  0  0  0  0  0  0  0  0  0
   -5.7413  -10.0886   20.3119 N   0  0  0  0  0  0  0  0  0  0  0  0
   -4.6710  -10.0449   21.1132 C   0  0  0  0  0  0  0  0  0  0  0  0
   -4.2962   -8.7588   21.6813 C   0  0  0  0  0  0  0  0  0  0  0  0
   -5.0846   -7.5496   21.3493 C   0  0  0  0  0  0  0  0  0  0  0  0
   -4.7747   -6.3033   21.8528 N   0  0  0  0  0  0  0  0  0  0  0  0
   -3.2401   -8.9924   22.4270 N   0  0  0  0  0  0  0  0  0  0  0  0
   -2.9311  -10.2940   22.3467 C   0  0  0  0  0  0  0  0  0  0  0  0
   -3.7930  -10.9370   21.5600 N   0  0  0  0  0  0  0  0  0  0  0  0
  2  1  1  1  0  0  0
  2  3  1  0  0  0  0
  2  5  1  0  0  0  0
  3  4  1  0  0  0  0
  3 17  1  0  0  0  0
  5  6  1  0  0  0  0
  7  6  1  6  0  0  0
  7  8  1  0  0  0  0
  7  9  1  0  0  0  0
 10  9  1  6  0  0  0
 10 11  1  0  0  0  0
 10 12  1  0  0  0  0
 11 16  1  0  0  0  0
 12 13  1  1  0  0  0
 12 14  1  0  0  0  0
 14 15  1  6  0  0  0
 14 16  1  0  0  0  0
 16 27  1  6  0  0  0
 18 19  2  0  0  0  0
 18 23  1  0  0  0  0
 19 20  1  0  0  0  0
 20 21  2  0  0  0  0
 21 22  1  0  0  0  0
 21 27  1  0  0  0  0
 22 23  2  0  0  0  0
 22 25  1  0  0  0  0
 23 24  1  0  0  0  0
 25 26  2  0  0  0  0
 26 27  1  0  0  0  0
M  END
>  <CHROM.1>
-20.35411946,65.44158070,-83.84457063,-65.55738391,-93.17335675,32.19773727
49.55519918,-4.18988499,-11.10328860,19.62673862,-1.42340961,1.09127979,0.62208279

>  <Name>
ligand

>  <RI>
0

>  <Rbt.Current_Directory>
/home/itssahil/PROJECTS/Mol_Feturizer/Test_systems_manuscript/rnas/4kqy

>  <Rbt.Executable>
rbdock ($Id: //depot/dev/client3/rdock/2013.1/src/exe/rbdock.cxx#4 $)

>  <Rbt.Library>
libRbt.so (2013.1, Build901 2013/11/27)

>  <Rbt.Parameter_File>
/export/apps/rDock/src/rDock_2013.1_src/data/scripts/dock_solv.prm

>  <Rbt.Receptor>
prm/pocket_docking_3.prm

>  <SCORE>
-15.3724

>  <SCORE.INTER>
-14.0342

>  <SCORE.INTER.CONST>
1

>  <SCORE.INTER.POLAR>
0

>  <SCORE.INTER.ROT>
7

>  <SCORE.INTER.SOLV>
15.7748

>  <SCORE.INTER.VDW>
-22.8811

>  <SCORE.INTER.norm>
-0.519785

>  <SCORE.INTRA>
-1.33826

>  <SCORE.INTRA.DIHEDRAL>
-0.419598

>  <SCORE.INTRA.DIHEDRAL.0>
10.4103

>  <SCORE.INTRA.POLAR>
0

>  <SCORE.INTRA.POLAR.0>
0

>  <SCORE.INTRA.REPUL>
0

>  <SCORE.INTRA.REPUL.0>
0

>  <SCORE.INTRA.SOLV>
2.23263

>  <SCORE.INTRA.SOLV.lig_0>
-49.5008

>  <SCORE.INTRA.VDW>
-2.24478

>  <SCORE.INTRA.VDW.0>
-2.6946

>  <SCORE.INTRA.norm>
-0.0495652

>  <SCORE.RESTR>
0

>  <SCORE.RESTR.CAVITY>
0

>  <SCORE.RESTR.norm>
0

>  <SCORE.SYSTEM>
0

>  <SCORE.SYSTEM.CONST>
0

>  <SCORE.SYSTEM.DIHEDRAL>
0

>  <SCORE.SYSTEM.SOLV>
0

>  <SCORE.SYSTEM.norm>
0

>  <SCORE.heavy>
27

>  <SCORE.norm>
-0.56935

>  <RMSD>
1.701

$$$$
ligand
 OpenBabel02271912153D
libRbt.so/2013.1/901 2013/11/27
 27 29  0  0  0  0  0  0  0  0999 V2000
   -2.2082   -8.9515   18.9793 N   0  0  0  0  0  0  0  0  0  0  0  0
   -1.8414   -9.2647   17.6112 C   0  0  2  0  0  0  0  0  0  0  0  0
   -2.4706   -8.2275   16.7329 C   0  0  0  0  0  0  0  0  0  0  0  0
   -3.4932   -7.6296   17.1315 O   0  0  0  0  0  0  0  0  0  0  0  0
   -2.3426  -10.6600   17.2288 C   0  0  0  0  0  0  0  0  0  0  0  0
   -1.6760  -11.7558   18.0898 C   0  0  0  0  0  0  0  0  0  0  0  0
   -2.1805  -13.3258   17.7804 S   0  0  2  0  0  0  0  0  0  0  0  0
   -1.8633  -13.7043   16.1946 C   0  0  0  0  0  0  0  0  0  0  0  0
   -3.8294  -13.4702   18.1104 C   0  0  0  0  0  0  0  0  0  0  0  0
   -4.1678  -13.5174   19.6154 C   0  0  1  0  0  0  0  0  0  0  0  0
   -3.6573  -12.3899   20.3462 O   0  0  0  0  0  0  0  0  0  0  0  0
   -5.6575  -13.4339   19.9067 C   0  0  1  0  0  0  0  0  0  0  0  0
   -6.4496  -14.6118   19.6540 O   0  0  0  0  0  0  0  0  0  0  0  0
   -5.6319  -13.0151   21.3558 C   0  0  1  0  0  0  0  0  0  0  0  0
   -5.2165  -14.1055   22.1728 O   0  0  0  0  0  0  0  0  0  0  0  0
   -4.5621  -11.9637   21.3677 C   0  0  2  0  0  0  0  0  0  0  0  0
   -1.9433   -7.9550   15.6280 O   0  0  0  0  0  0  0  0  0  0  0  0
   -3.9344   -6.6840   21.2836 N   0  0  0  0  0  0  0  0  0  0  0  0
   -3.0307   -7.6464   21.5899 C   0  0  0  0  0  0  0  0  0  0  0  0
   -3.3305   -8.9560   21.5776 N   0  0  0  0  0  0  0  0  0  0  0  0
   -4.5462   -9.3992   21.2383 C   0  0  0  0  0  0  0  0  0  0  0  0
   -5.5549   -8.4147   20.8769 C   0  0  0  0  0  0  0  0  0  0  0  0
   -5.2207   -6.9720   20.9106 C   0  0  0  0  0  0  0  0  0  0  0  0
   -6.1359   -5.9930   20.5839 N   0  0  0  0  0  0  0  0  0  0  0  0
   -6.6338   -9.1024   20.5786 N   0  0  0  0  0  0  0  0  0  0  0  0
   -6.3770  -10.4072   20.7449 C   0  0  0  0  0  0  0  0  0  0  0  0
   -5.1177  -10.5949   21.1378 N   0  0  0  0  0  0  0  0  0  0  0  0
  2  1  1  1  0  0  0
  2  3  1  0  0  0  0
  2  5  1  0  0  0  0
  3  4  1  0  0  0  0
  3 17  1  0  0  0  0
  5  6  1  0  0  0  0
  7  6  1  6  0  0  0
  7  8  1  0  0  0  0
  7  9  1  0  0  0  0
 10  9  1  6  0  0  0
 10 11  1  0  0  0  0
 10 12  1  0  0  0  0
 11 16  1  0  0  0  0
 12 13  1  1  0  0  0
 12 14  1  0  0  0  0
 14 15  1  1  0  0  0
 14 16  1  0  0  0  0
 16 27  1  6  0  0  0
 18 19  2  0  0  0  0
 18 23  1  0  0  0  0
 19 20  1  0  0  0  0
 20 21  2  0  0  0  0
 21 22  1  0  0  0  0
 21 27  1  0  0  0  0
 22 23  2  0  0  0  0
 22 25  1  0  0  0  0
 23 24  1  0  0  0  0
 25 26  2  0  0  0  0
 26 27  1  0  0  0  0
M  END
>  <CHROM.1>
-24.87156646,-63.33572345,178.57937739,59.56057467,-74.97389194,55.52077926
-72.45378908,-3.93132810,-10.65137283,19.43556922,-1.65345274,-0.90021269
-3.07114079

>  <Name>
ligand

>  <RI>
0

>  <Rbt.Current_Directory>
/home/itssahil/PROJECTS/Mol_Feturizer/Test_systems_manuscript/rnas/4kqy

>  <Rbt.Executable>
rbdock ($Id: //depot/dev/client3/rdock/2013.1/src/exe/rbdock.cxx#4 $)

>  <Rbt.Library>
libRbt.so (2013.1, Build901 2013/11/27)

>  <Rbt.Parameter_File>
/export/apps/rDock/src/rDock_2013.1_src/data/scripts/dock_solv.prm

>  <Rbt.Receptor>
prm/pocket_docking_3.prm

>  <SCORE>
-19.0308

>  <SCORE.INTER>
-16.9408

>  <SCORE.INTER.CONST>
1

>  <SCORE.INTER.POLAR>
0

>  <SCORE.INTER.ROT>
7

>  <SCORE.INTER.SOLV>
22.1642

>  <SCORE.INTER.VDW>
-26.9486

>  <SCORE.INTER.norm>
-0.627437

>  <SCORE.INTRA>
-2.09001

>  <SCORE.INTRA.DIHEDRAL>
-6.8184

>  <SCORE.INTRA.DIHEDRAL.0>
10.4103

>  <SCORE.INTRA.POLAR>
0

>  <SCORE.INTRA.POLAR.0>
0

>  <SCORE.INTRA.REPUL>
0

>  <SCORE.INTRA.REPUL.0>
0

>  <SCORE.INTRA.SOLV>
2.22446

>  <SCORE.INTRA.SOLV.lig_0>
-49.5008

>  <SCORE.INTRA.VDW>
0.206959

>  <SCORE.INTRA.VDW.0>
-2.6946

>  <SCORE.INTRA.norm>
-0.0774078

>  <SCORE.RESTR>
0

>  <SCORE.RESTR.CAVITY>
0

>  <SCORE.RESTR.norm>
0

>  <SCORE.SYSTEM>
0

>  <SCORE.SYSTEM.CONST>
0

>  <SCORE.SYSTEM.DIHEDRAL>
0

>  <SCORE.SYSTEM.SOLV>
0

>  <SCORE.SYSTEM.norm>
0

>  <SCORE.heavy>
27

>  <SCORE.norm>
-0.704845

>  <RMSD>
1.734

$$$$
ligand
 OpenBabel02271912153D
libRbt.so/2013.1/901 2013/11/27
 27 29  0  0  0  0  0  0  0  0999 V2000
   -1.0925   -9.9488   14.3952 N   0  0  0  0  0  0  0  0  0  0  0  0
   -1.9884  -10.5207   15.3824 C   0  0  2  0  0  0  0  0  0  0  0  0
   -1.2566  -10.5414   16.6889 C   0  0  0  0  0  0  0  0  0  0  0  0
   -1.7729   -9.9923   17.6860 O   0  0  0  0  0  0  0  0  0  0  0  0
   -2.3940  -11.9406   14.9780 C   0  0  0  0  0  0  0  0  0  0  0  0
   -3.5709  -12.4580   15.8347 C   0  0  0  0  0  0  0  0  0  0  0  0
   -3.2144  -12.7614   17.4459 S   0  0  2  0  0  0  0  0  0  0  0  0
   -2.1398  -14.0240   17.5443 C   0  0  0  0  0  0  0  0  0  0  0  0
   -4.6339  -13.1185   18.2863 C   0  0  0  0  0  0  0  0  0  0  0  0
   -4.4224  -13.3920   19.7904 C   0  0  1  0  0  0  0  0  0  0  0  0
   -3.3431  -12.6312   20.3579 O   0  0  0  0  0  0  0  0  0  0  0  0
   -5.5973  -12.9676   20.6566 C   0  0  1  0  0  0  0  0  0  0  0  0
   -6.7737  -13.8008   20.6329 O   0  0  0  0  0  0  0  0  0  0  0  0
   -4.9303  -12.8919   22.0078 C   0  0  1  0  0  0  0  0  0  0  0  0
   -4.6481  -14.2030   22.4880 O   0  0  0  0  0  0  0  0  0  0  0  0
   -3.6369  -12.2020   21.6895 C   0  0  2  0  0  0  0  0  0  0  0  0
   -0.1548  -11.1356   16.7676 O   0  0  0  0  0  0  0  0  0  0  0  0
   -6.1352   -7.6368   20.5974 N   0  0  0  0  0  0  0  0  0  0  0  0
   -6.4472   -8.8958   20.2046 C   0  0  0  0  0  0  0  0  0  0  0  0
   -5.7159   -9.9681   20.5519 N   0  0  0  0  0  0  0  0  0  0  0  0
   -4.6347   -9.8631   21.3325 C   0  0  0  0  0  0  0  0  0  0  0  0
   -4.2608   -8.5388   21.8056 C   0  0  0  0  0  0  0  0  0  0  0  0
   -5.0624   -7.3600   21.4031 C   0  0  0  0  0  0  0  0  0  0  0  0
   -4.7541   -6.0802   21.8154 N   0  0  0  0  0  0  0  0  0  0  0  0
   -3.1927   -8.7143   22.5500 N   0  0  0  0  0  0  0  0  0  0  0  0
   -2.8757  -10.0164   22.5546 C   0  0  0  0  0  0  0  0  0  0  0  0
   -3.7442  -10.7172   21.8265 N   0  0  0  0  0  0  0  0  0  0  0  0
  2  1  1  6  0  0  0
  2  3  1  0  0  0  0
  2  5  1  0  0  0  0
  3  4  1  0  0  0  0
  3 17  1  0  0  0  0
  5  6  1  0  0  0  0
  7  6  1  6  0  0  0
  7  8  1  0  0  0  0
  7  9  1  0  0  0  0
 10  9  1  6  0  0  0
 10 11  1  0  0  0  0
 10 12  1  0  0  0  0
 11 16  1  0  0  0  0
 12 13  1  1  0  0  0
 12 14  1  0  0  0  0
 14 15  1  6  0  0  0
 14 16  1  0  0  0  0
 16 27  1  6  0  0  0
 18 19  2  0  0  0  0
 18 23  1  0  0  0  0
 19 20  1  0  0  0  0
 20 21  2  0  0  0  0
 21 22  1  0  0  0  0
 21 27  1  0  0  0  0
 22 23  2  0  0  0  0
 22 25  1  0  0  0  0
 23 24  1  0  0  0  0
 25 26  2  0  0  0  0
 26 27  1  0  0  0  0
M  END
>  <CHROM.1>
125.14216692,-167.72298811,-69.06465294,-65.82654477,-179.02342439,32.55746375
66.66428020,-3.73642781,-11.13728753,19.38849498,-0.50101227,1.04916958,0.22502527

>  <Name>
ligand

>  <RI>
0

>  <Rbt.Current_Directory>
/home/itssahil/PROJECTS/Mol_Feturizer/Test_systems_manuscript/rnas/4kqy

>  <Rbt.Executable>
rbdock ($Id: //depot/dev/client3/rdock/2013.1/src/exe/rbdock.cxx#4 $)

>  <Rbt.Library>
libRbt.so (2013.1, Build901 2013/11/27)

>  <Rbt.Parameter_File>
/export/apps/rDock/src/rDock_2013.1_src/data/scripts/dock_solv.prm

>  <Rbt.Receptor>
prm/pocket_docking_3.prm

>  <SCORE>
-17.3062

>  <SCORE.INTER>
-14.2434

>  <SCORE.INTER.CONST>
1

>  <SCORE.INTER.POLAR>
0

>  <SCORE.INTER.ROT>
7

>  <SCORE.INTER.SOLV>
17.2567

>  <SCORE.INTER.VDW>
-23.5145

>  <SCORE.INTER.norm>
-0.527534

>  <SCORE.INTRA>
-3.06282

>  <SCORE.INTRA.DIHEDRAL>
-4.45198

>  <SCORE.INTRA.DIHEDRAL.0>
10.4103

>  <SCORE.INTRA.POLAR>
0

>  <SCORE.INTRA.POLAR.0>
0

>  <SCORE.INTRA.REPUL>
0

>  <SCORE.INTRA.REPUL.0>
0

>  <SCORE.INTRA.SOLV>
-0.438052

>  <SCORE.INTRA.SOLV.lig_0>
-49.5008

>  <SCORE.INTRA.VDW>
-0.617801

>  <SCORE.INTRA.VDW.0>
-2.6946

>  <SCORE.INTRA.norm>
-0.113438

>  <SCORE.RESTR>
0

>  <SCORE.RESTR.CAVITY>
0

>  <SCORE.RESTR.norm>
0

>  <SCORE.SYSTEM>
0

>  <SCORE.SYSTEM.CONST>
0

>  <SCORE.SYSTEM.DIHEDRAL>
0

>  <SCORE.SYSTEM.SOLV>
0

>  <SCORE.SYSTEM.norm>
0

>  <SCORE.heavy>
27

>  <SCORE.norm>
-0.640972

>  <RMSD>
1.756

$$$$
ligand
 OpenBabel02271912153D
libRbt.so/2013.1/901 2013/11/27
 27 29  0  0  0  0  0  0  0  0999 V2000
   -6.2605   -9.6654   17.3809 N   0  0  0  0  0  0  0  0  0  0  0  0
   -4.8403   -9.3870   17.4795 C   0  0  2  0  0  0  0  0  0  0  0  0
   -4.6594   -7.9153   17.2691 C   0  0  0  0  0  0  0  0  0  0  0  0
   -4.9669   -7.4144   16.1660 O   0  0  0  0  0  0  0  0  0  0  0  0
   -4.0658  -10.1746   16.4193 C   0  0  0  0  0  0  0  0  0  0  0  0
   -4.0701  -11.6889   16.7246 C   0  0  0  0  0  0  0  0  0  0  0  0
   -3.1020  -12.1712   18.0073 S   0  0  2  0  0  0  0  0  0  0  0  0
   -1.5075  -12.1168   17.5454 C   0  0  0  0  0  0  0  0  0  0  0  0
   -3.5308  -13.7305   18.4903 C   0  0  0  0  0  0  0  0  0  0  0  0
   -4.5372  -13.7723   19.6596 C   0  0  1  0  0  0  0  0  0  0  0  0
   -3.9970  -13.2620   20.8899 O   0  0  0  0  0  0  0  0  0  0  0  0
   -5.7485  -12.8776   19.4517 C   0  0  1  0  0  0  0  0  0  0  0  0
   -6.7540  -13.3283   18.5219 O   0  0  0  0  0  0  0  0  0  0  0  0
   -6.2434  -12.7497   20.8712 C   0  0  1  0  0  0  0  0  0  0  0  0
   -6.8320  -13.9753   21.2962 O   0  0  0  0  0  0  0  0  0  0  0  0
   -4.9720  -12.5300   21.6363 C   0  0  2  0  0  0  0  0  0  0  0  0
   -4.2328   -7.2069   18.2122 O   0  0  0  0  0  0  0  0  0  0  0  0
   -5.9909   -7.4393   20.4862 N   0  0  0  0  0  0  0  0  0  0  0  0
   -6.6428   -8.5542   20.0757 C   0  0  0  0  0  0  0  0  0  0  0  0
   -6.2686   -9.7917   20.4415 N   0  0  0  0  0  0  0  0  0  0  0  0
   -5.2313  -10.0033   21.2592 C   0  0  0  0  0  0  0  0  0  0  0  0
   -4.5038   -8.8436   21.7524 C   0  0  0  0  0  0  0  0  0  0  0  0
   -4.9123   -7.4840   21.3296 C   0  0  0  0  0  0  0  0  0  0  0  0
   -4.2584   -6.3481   21.7597 N   0  0  0  0  0  0  0  0  0  0  0  0
   -3.5595   -9.3199   22.5318 N   0  0  0  0  0  0  0  0  0  0  0  0
   -3.6365  -10.6578   22.5396 C   0  0  0  0  0  0  0  0  0  0  0  0
   -4.6462  -11.0778   21.7783 N   0  0  0  0  0  0  0  0  0  0  0  0
  2  1  1  6  0  0  0
  2  3  1  0  0  0  0
  2  5  1  0  0  0  0
  3  4  1  0  0  0  0
  3 17  1  0  0  0  0
  5  6  1  0  0  0  0
  7  6  1  6  0  0  0
  7  8  1  0  0  0  0
  7  9  1  0  0  0  0
 10  9  1  6  0  0  0
 10 11  1  0  0  0  0
 10 12  1  0  0  0  0
 11 16  1  0  0  0  0
 12 13  1  6  0  0  0
 12 14  1  0  0  0  0
 14 15  1  1  0  0  0
 14 16  1  0  0  0  0
 16 27  1  6  0  0  0
 18 19  2  0  0  0  0
 18 23  1  0  0  0  0
 19 20  1  0  0  0  0
 20 21  2  0  0  0  0
 21 22  1  0  0  0  0
 21 27  1  0  0  0  0
 22 23  2  0  0  0  0
 22 25  1  0  0  0  0
 23 24  1  0  0  0  0
 25 26  2  0  0  0  0
 26 27  1  0  0  0  0
M  END
>  <CHROM.1>
-63.70980197,-69.50109209,-72.85843486,-74.12049756,-94.88569027,-66.17261351
111.12139688,-4.73021811,-10.62144719,19.49685995,-1.73092842,-1.35566276
2.95352058

>  <Name>
ligand

>  <RI>
0

>  <Rbt.Current_Directory>
/home/itssahil/PROJECTS/Mol_Feturizer/Test_systems_manuscript/rnas/4kqy

>  <Rbt.Executable>
rbdock ($Id: //depot/dev/client3/rdock/2013.1/src/exe/rbdock.cxx#4 $)

>  <Rbt.Library>
libRbt.so (2013.1, Build901 2013/11/27)

>  <Rbt.Parameter_File>
/export/apps/rDock/src/rDock_2013.1_src/data/scripts/dock_solv.prm

>  <Rbt.Receptor>
prm/pocket_docking_3.prm

>  <SCORE>
-14.4885

>  <SCORE.INTER>
-12.0465

>  <SCORE.INTER.CONST>
1

>  <SCORE.INTER.POLAR>
0

>  <SCORE.INTER.ROT>
7

>  <SCORE.INTER.SOLV>
15.2906

>  <SCORE.INTER.VDW>
-21.3945

>  <SCORE.INTER.norm>
-0.446165

>  <SCORE.INTRA>
-2.44201

>  <SCORE.INTRA.DIHEDRAL>
-2.88128

>  <SCORE.INTRA.DIHEDRAL.0>
10.4103

>  <SCORE.INTRA.POLAR>
0

>  <SCORE.INTRA.POLAR.0>
0

>  <SCORE.INTRA.REPUL>
0

>  <SCORE.INTRA.REPUL.0>
0

>  <SCORE.INTRA.SOLV>
3.08384

>  <SCORE.INTRA.SOLV.lig_0>
-49.5008

>  <SCORE.INTRA.VDW>
-2.54329

>  <SCORE.INTRA.VDW.0>
-2.6946

>  <SCORE.INTRA.norm>
-0.0904446

>  <SCORE.RESTR>
0

>  <SCORE.RESTR.CAVITY>
0

>  <SCORE.RESTR.norm>
0

>  <SCORE.SYSTEM>
0

>  <SCORE.SYSTEM.CONST>
0

>  <SCORE.SYSTEM.DIHEDRAL>
0

>  <SCORE.SYSTEM.SOLV>
0

>  <SCORE.SYSTEM.norm>
0

>  <SCORE.heavy>
27

>  <SCORE.norm>
-0.53661

>  <RMSD>
1.794

$$$$
ligand
 OpenBabel02271912153D
libRbt.so/2013.1/901 2013/11/27
 27 29  0  0  0  0  0  0  0  0999 V2000
   -2.1663   -9.6339   14.9757 N   0  0  0  0  0  0  0  0  0  0  0  0
   -3.4130   -9.4471   15.6934 C   0  0  2  0  0  0  0  0  0  0  0  0
   -3.1986   -8.3386   16.6775 C   0  0  0  0  0  0  0  0  0  0  0  0
   -4.0675   -8.1201   17.5489 O   0  0  0  0  0  0  0  0  0  0  0  0
   -3.8096  -10.7345   16.4212 C   0  0  0  0  0  0  0  0  0  0  0  0
   -2.6893  -11.2157   17.3698 C   0  0  0  0  0  0  0  0  0  0  0  0
   -2.5345  -12.8795   17.5213 S   0  0  2  0  0  0  0  0  0  0  0  0
   -2.1217  -13.5309   16.0502 C   0  0  0  0  0  0  0  0  0  0  0  0
   -3.9843  -13.5383   18.0803 C   0  0  0  0  0  0  0  0  0  0  0  0
   -4.1235  -13.5391   19.6173 C   0  0  1  0  0  0  0  0  0  0  0  0
   -3.5371  -12.3837   20.2395 O   0  0  0  0  0  0  0  0  0  0  0  0
   -5.5636  -13.4592   20.0976 C   0  0  1  0  0  0  0  0  0  0  0  0
   -6.3664  -14.6518   19.9875 O   0  0  0  0  0  0  0  0  0  0  0  0
   -5.3553  -12.9928   21.5171 C   0  0  1  0  0  0  0  0  0  0  0  0
   -4.8229  -14.0520   22.3068 O   0  0  0  0  0  0  0  0  0  0  0  0
   -4.3068  -11.9321   21.3563 C   0  0  2  0  0  0  0  0  0  0  0  0
   -2.1383   -7.6704   16.6299 O   0  0  0  0  0  0  0  0  0  0  0  0
   -3.8866   -6.6338   21.5227 N   0  0  0  0  0  0  0  0  0  0  0  0
   -2.9602   -7.5737   21.8308 C   0  0  0  0  0  0  0  0  0  0  0  0
   -3.2068   -8.8920   21.7495 N   0  0  0  0  0  0  0  0  0  0  0  0
   -4.3872   -9.3656   21.3351 C   0  0  0  0  0  0  0  0  0  0  0  0
   -5.4168   -8.4052   20.9680 C   0  0  0  0  0  0  0  0  0  0  0  0
   -5.1422   -6.9537   21.0778 C   0  0  0  0  0  0  0  0  0  0  0  0
   -6.0798   -5.9967   20.7494 N   0  0  0  0  0  0  0  0  0  0  0  0
   -6.4528   -9.1196   20.5907 N   0  0  0  0  0  0  0  0  0  0  0  0
   -6.1520  -10.4196   20.7143 C   0  0  0  0  0  0  0  0  0  0  0  0
   -4.9054  -10.5766   21.1579 N   0  0  0  0  0  0  0  0  0  0  0  0
  2  1  1  1  0  0  0
  2  3  1  0  0  0  0
  2  5  1  0  0  0  0
  3  4  1  0  0  0  0
  3 17  1  0  0  0  0
  5  6  1  0  0  0  0
  7  6  1  6  0  0  0
  7  8  1  0  0  0  0
  7  9  1  0  0  0  0
 10  9  1  6  0  0  0
 10 11  1  0  0  0  0
 10 12  1  0  0  0  0
 11 16  1  0  0  0  0
 12 13  1  1  0  0  0
 12 14  1  0  0  0  0
 14 15  1  1  0  0  0
 14 16  1  0  0  0  0
 16 27  1  6  0  0  0
 18 19  2  0  0  0  0
 18 23  1  0  0  0  0
 19 20  1  0  0  0  0
 20 21  2  0  0  0  0
 21 22  1  0  0  0  0
 21 27  1  0  0  0  0
 22 23  2  0  0  0  0
 22 25  1  0  0  0  0
 23 24  1  0  0  0  0
 25 26  2  0  0  0  0
 26 27  1  0  0  0  0
M  END
>  <CHROM.1>
-169.66646914,56.00713683,-145.86470187,63.14089978,-86.29579989,35.72754393
-83.58205392,-4.08012971,-10.62739214,19.26706878,-1.28182696,1.12662568
0.07413864

>  <Name>
ligand

>  <RI>
0

>  <Rbt.Current_Directory>
/home/itssahil/PROJECTS/Mol_Feturizer/Test_systems_manuscript/rnas/4kqy

>  <Rbt.Executable>
rbdock ($Id: //depot/dev/client3/rdock/2013.1/src/exe/rbdock.cxx#4 $)

>  <Rbt.Library>
libRbt.so (2013.1, Build901 2013/11/27)

>  <Rbt.Parameter_File>
/export/apps/rDock/src/rDock_2013.1_src/data/scripts/dock_solv.prm

>  <Rbt.Receptor>
prm/pocket_docking_2.prm

>  <SCORE>
-11.3353

>  <SCORE.INTER>
-12.917

>  <SCORE.INTER.CONST>
1

>  <SCORE.INTER.POLAR>
0

>  <SCORE.INTER.ROT>
7

>  <SCORE.INTER.SOLV>
18.8822

>  <SCORE.INTER.VDW>
-23.1721

>  <SCORE.INTER.norm>
-0.478407

>  <SCORE.INTRA>
1.57059

>  <SCORE.INTRA.DIHEDRAL>
-0.497075

>  <SCORE.INTRA.DIHEDRAL.0>
10.4103

>  <SCORE.INTRA.POLAR>
0

>  <SCORE.INTRA.POLAR.0>
0

>  <SCORE.INTRA.REPUL>
0

>  <SCORE.INTRA.REPUL.0>
0

>  <SCORE.INTRA.SOLV>
1.03301

>  <SCORE.INTRA.SOLV.lig_0>
-49.5008

>  <SCORE.INTRA.VDW>
1.30262

>  <SCORE.INTRA.VDW.0>
-2.6946

>  <SCORE.INTRA.norm>
0.05817

>  <SCORE.RESTR>
0.0111024

>  <SCORE.RESTR.CAVITY>
0.0111024

>  <SCORE.RESTR.norm>
0.0004112

>  <SCORE.SYSTEM>
0

>  <SCORE.SYSTEM.CONST>
0

>  <SCORE.SYSTEM.DIHEDRAL>
0

>  <SCORE.SYSTEM.SOLV>
0

>  <SCORE.SYSTEM.norm>
0

>  <SCORE.heavy>
27

>  <SCORE.norm>
-0.419826

>  <RMSD>
1.835

$$$$
ligand
 OpenBabel02271912153D
libRbt.so/2013.1/901 2013/11/27
 27 29  0  0  0  0  0  0  0  0999 V2000
   -3.8062   -8.3360   17.4456 N   0  0  0  0  0  0  0  0  0  0  0  0
   -2.6931   -9.2657   17.4148 C   0  0  2  0  0  0  0  0  0  0  0  0
   -1.8843   -8.9516   16.1940 C   0  0  0  0  0  0  0  0  0  0  0  0
   -0.9979   -9.7528   15.8268 O   0  0  0  0  0  0  0  0  0  0  0  0
   -3.2022  -10.7085   17.3582 C   0  0  0  0  0  0  0  0  0  0  0  0
   -2.1042  -11.7122   17.7746 C   0  0  0  0  0  0  0  0  0  0  0  0
   -2.4937  -13.3326   17.5801 S   0  0  2  0  0  0  0  0  0  0  0  0
   -2.3850  -13.7365   15.9726 C   0  0  0  0  0  0  0  0  0  0  0  0
   -4.0514  -13.6185   18.1636 C   0  0  0  0  0  0  0  0  0  0  0  0
   -4.1664  -13.5656   19.7017 C   0  0  1  0  0  0  0  0  0  0  0  0
   -3.5944  -12.3765   20.2716 O   0  0  0  0  0  0  0  0  0  0  0  0
   -5.6001  -13.4972   20.2023 C   0  0  1  0  0  0  0  0  0  0  0  0
   -6.3796  -14.7090   20.1489 O   0  0  0  0  0  0  0  0  0  0  0  0
   -5.3793  -12.9748   21.6003 C   0  0  1  0  0  0  0  0  0  0  0  0
   -4.8127  -13.9933   22.4192 O   0  0  0  0  0  0  0  0  0  0  0  0
   -4.3557  -11.8998   21.3837 C   0  0  2  0  0  0  0  0  0  0  0  0
   -2.1311   -7.9075   15.5443 O   0  0  0  0  0  0  0  0  0  0  0  0
   -4.0294   -6.5929   21.3063 N   0  0  0  0  0  0  0  0  0  0  0  0
   -3.0765   -7.5022   21.6250 C   0  0  0  0  0  0  0  0  0  0  0  0
   -3.3008   -8.8268   21.6091 N   0  0  0  0  0  0  0  0  0  0  0  0
   -4.4846   -9.3385   21.2537 C   0  0  0  0  0  0  0  0  0  0  0  0
   -5.5429   -8.4131   20.8784 C   0  0  0  0  0  0  0  0  0  0  0  0
   -5.2921   -6.9537   20.9162 C   0  0  0  0  0  0  0  0  0  0  0  0
   -6.2573   -6.0284   20.5769 N   0  0  0  0  0  0  0  0  0  0  0  0
   -6.5767   -9.1611   20.5660 N   0  0  0  0  0  0  0  0  0  0  0  0
   -6.2481  -10.4491   20.7361 C   0  0  0  0  0  0  0  0  0  0  0  0
   -4.9855  -10.5649   21.1459 N   0  0  0  0  0  0  0  0  0  0  0  0
  2  1  1  6  0  0  0
  2  3  1  0  0  0  0
  2  5  1  0  0  0  0
  3  4  1  0  0  0  0
  3 17  1  0  0  0  0
  5  6  1  0  0  0  0
  7  6  1  6  0  0  0
  7  8  1  0  0  0  0
  7  9  1  0  0  0  0
 10  9  1  6  0  0  0
 10 11  1  0  0  0  0
 10 12  1  0  0  0  0
 11 16  1  0  0  0  0
 12 13  1  1  0  0  0
 12 14  1  0  0  0  0
 14 15  1  1  0  0  0
 14 16  1  0  0  0  0
 16 27  1  6  0  0  0
 18 19  2  0  0  0  0
 18 23  1  0  0  0  0
 19 20  1  0  0  0  0
 20 21  2  0  0  0  0
 21 22  1  0  0  0  0
 21 27  1  0  0  0  0
 22 23  2  0  0  0  0
 22 25  1  0  0  0  0
 23 24  1  0  0  0  0
 25 26  2  0  0  0  0
 26 27  1  0  0  0  0
M  END
>  <CHROM.1>
-168.30796849,-161.76915858,-173.20434442,76.44732109,-71.76292202,50.77338644
-82.58576060,-3.96253817,-10.73182711,19.32251166,-1.89850001,-0.99056675
-3.08280718

>  <Name>
ligand

>  <RI>
0

>  <Rbt.Current_Directory>
/home/itssahil/PROJECTS/Mol_Feturizer/Test_systems_manuscript/rnas/4kqy

>  <Rbt.Executable>
rbdock ($Id: //depot/dev/client3/rdock/2013.1/src/exe/rbdock.cxx#4 $)

>  <Rbt.Library>
libRbt.so (2013.1, Build901 2013/11/27)

>  <Rbt.Parameter_File>
/export/apps/rDock/src/rDock_2013.1_src/data/scripts/dock_solv.prm

>  <Rbt.Receptor>
prm/pocket_docking_3.prm

>  <SCORE>
-16.5224

>  <SCORE.INTER>
-14.6289

>  <SCORE.INTER.CONST>
1

>  <SCORE.INTER.POLAR>
0

>  <SCORE.INTER.ROT>
7

>  <SCORE.INTER.SOLV>
19.7122

>  <SCORE.INTER.VDW>
-24.59

>  <SCORE.INTER.norm>
-0.54181

>  <SCORE.INTRA>
-1.89947

>  <SCORE.INTRA.DIHEDRAL>
-4.77752

>  <SCORE.INTRA.DIHEDRAL.0>
10.4103

>  <SCORE.INTRA.POLAR>
0

>  <SCORE.INTRA.POLAR.0>
0

>  <SCORE.INTRA.REPUL>
0

>  <SCORE.INTRA.REPUL.0>
0

>  <SCORE.INTRA.SOLV>
-0.35793

>  <SCORE.INTRA.SOLV.lig_0>
-49.5008

>  <SCORE.INTRA.VDW>
0.66826

>  <SCORE.INTRA.VDW.0>
-2.6946

>  <SCORE.INTRA.norm>
-0.0703506

>  <SCORE.RESTR>
0.00589814

>  <SCORE.RESTR.CAVITY>
0.00589814

>  <SCORE.RESTR.norm>
0.00021845

>  <SCORE.SYSTEM>
0

>  <SCORE.SYSTEM.CONST>
0

>  <SCORE.SYSTEM.DIHEDRAL>
0

>  <SCORE.SYSTEM.SOLV>
0

>  <SCORE.SYSTEM.norm>
0

>  <SCORE.heavy>
27

>  <SCORE.norm>
-0.611943

>  <RMSD>
1.882

$$$$
ligand
 OpenBabel02271912153D
libRbt.so/2013.1/901 2013/11/27
 27 29  0  0  0  0  0  0  0  0999 V2000
   -4.4393   -8.8201   17.5186 N   0  0  0  0  0  0  0  0  0  0  0  0
   -3.0543   -8.8274   17.9496 C   0  0  2  0  0  0  0  0  0  0  0  0
   -2.2294   -8.3225   16.8059 C   0  0  0  0  0  0  0  0  0  0  0  0
   -2.3817   -7.1444   16.4174 O   0  0  0  0  0  0  0  0  0  0  0  0
   -2.6204  -10.2448   18.3327 C   0  0  0  0  0  0  0  0  0  0  0  0
   -2.8156  -11.2320   17.1606 C   0  0  0  0  0  0  0  0  0  0  0  0
   -2.5337  -12.8466   17.5199 S   0  0  2  0  0  0  0  0  0  0  0  0
   -2.0072  -13.6313   16.1540 C   0  0  0  0  0  0  0  0  0  0  0  0
   -3.9482  -13.5551   18.1079 C   0  0  0  0  0  0  0  0  0  0  0  0
   -4.0729  -13.5277   19.6459 C   0  0  1  0  0  0  0  0  0  0  0  0
   -3.4901  -12.3561   20.2405 O   0  0  0  0  0  0  0  0  0  0  0  0
   -5.5090  -13.4502   20.1383 C   0  0  1  0  0  0  0  0  0  0  0  0
   -6.3031  -14.6509   20.0584 O   0  0  0  0  0  0  0  0  0  0  0  0
   -5.2912  -12.9552   21.5467 C   0  0  1  0  0  0  0  0  0  0  0  0
   -4.7429  -13.9950   22.3512 O   0  0  0  0  0  0  0  0  0  0  0  0
   -4.2529  -11.8895   21.3559 C   0  0  2  0  0  0  0  0  0  0  0  0
   -1.3792   -9.0795   16.2794 O   0  0  0  0  0  0  0  0  0  0  0  0
   -3.8812   -6.5857   21.4392 N   0  0  0  0  0  0  0  0  0  0  0  0
   -2.9456   -7.5121   21.7601 C   0  0  0  0  0  0  0  0  0  0  0  0
   -3.1802   -8.8337   21.6998 N   0  0  0  0  0  0  0  0  0  0  0  0
   -4.3569   -9.3246   21.2950 C   0  0  0  0  0  0  0  0  0  0  0  0
   -5.3960   -8.3794   20.9150 C   0  0  0  0  0  0  0  0  0  0  0  0
   -5.1346   -6.9240   21.0017 C   0  0  0  0  0  0  0  0  0  0  0  0
   -6.0815   -5.9808   20.6603 N   0  0  0  0  0  0  0  0  0  0  0  0
   -6.4260   -9.1090   20.5508 N   0  0  0  0  0  0  0  0  0  0  0  0
   -6.1131  -10.4042   20.6939 C   0  0  0  0  0  0  0  0  0  0  0  0
   -4.8643  -10.5428   21.1376 N   0  0  0  0  0  0  0  0  0  0  0  0
  2  1  1  6  0  0  0
  2  3  1  0  0  0  0
  2  5  1  0  0  0  0
  3  4  1  0  0  0  0
  3 17  1  0  0  0  0
  5  6  1  0  0  0  0
  7  6  1  6  0  0  0
  7  8  1  0  0  0  0
  7  9  1  0  0  0  0
 10  9  1  6  0  0  0
 10 11  1  0  0  0  0
 10 12  1  0  0  0  0
 11 16  1  0  0  0  0
 12 13  1  1  0  0  0
 12 14  1  0  0  0  0
 14 15  1  1  0  0  0
 14 16  1  0  0  0  0
 16 27  1  6  0  0  0
 18 19  2  0  0  0  0
 18 23  1  0  0  0  0
 19 20  1  0  0  0  0
 20 21  2  0  0  0  0
 21 22  1  0  0  0  0
 21 27  1  0  0  0  0
 22 23  2  0  0  0  0
 22 25  1  0  0  0  0
 23 24  1  0  0  0  0
 25 26  2  0  0  0  0
 26 27  1  0  0  0  0
M  END
>  <CHROM.1>
64.51927161,57.31945739,-173.47560481,-150.77153251,-93.01022987,33.68580869
-84.06470887,-3.95351992,-10.56138004,19.43269654,-1.57819324,-1.00485113
-3.04559874

>  <Name>
ligand

>  <RI>
0

>  <Rbt.Current_Directory>
/home/itssahil/PROJECTS/Mol_Feturizer/Test_systems_manuscript/rnas/4kqy

>  <Rbt.Executable>
rbdock ($Id: //depot/dev/client3/rdock/2013.1/src/exe/rbdock.cxx#4 $)

>  <Rbt.Library>
libRbt.so (2013.1, Build901 2013/11/27)

>  <Rbt.Parameter_File>
/export/apps/rDock/src/rDock_2013.1_src/data/scripts/dock_solv.prm

>  <Rbt.Receptor>
prm/pocket_docking_2.prm

>  <SCORE>
-13.2074

>  <SCORE.INTER>
-14.4712

>  <SCORE.INTER.CONST>
1

>  <SCORE.INTER.POLAR>
0

>  <SCORE.INTER.ROT>
7

>  <SCORE.INTER.SOLV>
18.4248

>  <SCORE.INTER.VDW>
-24.0557

>  <SCORE.INTER.norm>
-0.53597

>  <SCORE.INTRA>
1.26374

>  <SCORE.INTRA.DIHEDRAL>
-0.455311

>  <SCORE.INTRA.DIHEDRAL.0>
10.4103

>  <SCORE.INTRA.POLAR>
0

>  <SCORE.INTRA.POLAR.0>
0

>  <SCORE.INTRA.REPUL>
0

>  <SCORE.INTRA.REPUL.0>
0

>  <SCORE.INTRA.SOLV>
0.999157

>  <SCORE.INTRA.SOLV.lig_0>
-49.5008

>  <SCORE.INTRA.VDW>
0.991818

>  <SCORE.INTRA.VDW.0>
-2.6946

>  <SCORE.INTRA.norm>
0.0468052

>  <SCORE.RESTR>
0

>  <SCORE.RESTR.CAVITY>
0

>  <SCORE.RESTR.norm>
0

>  <SCORE.SYSTEM>
0

>  <SCORE.SYSTEM.CONST>
0

>  <SCORE.SYSTEM.DIHEDRAL>
0

>  <SCORE.SYSTEM.SOLV>
0

>  <SCORE.SYSTEM.norm>
0

>  <SCORE.heavy>
27

>  <SCORE.norm>
-0.489164

>  <RMSD>
1.910

$$$$
ligand
 OpenBabel02271912153D
libRbt.so/2013.1/901 2013/11/27
 27 29  0  0  0  0  0  0  0  0999 V2000
   -4.3498  -10.3953   14.9350 N   0  0  0  0  0  0  0  0  0  0  0  0
   -4.1548  -10.4035   16.3724 C   0  0  2  0  0  0  0  0  0  0  0  0
   -5.3920   -9.8311   16.9929 C   0  0  0  0  0  0  0  0  0  0  0  0
   -6.0699  -10.5400   17.7675 O   0  0  0  0  0  0  0  0  0  0  0  0
   -2.9326   -9.5629   16.7515 C   0  0  0  0  0  0  0  0  0  0  0  0
   -2.4483   -9.8830   18.1831 C   0  0  0  0  0  0  0  0  0  0  0  0
   -1.6548  -11.3498   18.3676 S   0  0  2  0  0  0  0  0  0  0  0  0
   -0.4890  -11.4971   17.1937 C   0  0  0  0  0  0  0  0  0  0  0  0
   -2.7664  -12.6158   18.2674 C   0  0  0  0  0  0  0  0  0  0  0  0
   -3.4404  -12.9686   19.6102 C   0  0  1  0  0  0  0  0  0  0  0  0
   -2.8358  -12.3121   20.7369 O   0  0  0  0  0  0  0  0  0  0  0  0
   -4.8830  -12.4993   19.7083 C   0  0  1  0  0  0  0  0  0  0  0  0
   -5.8742  -13.2445   18.9729 O   0  0  0  0  0  0  0  0  0  0  0  0
   -5.0817  -12.5301   21.2036 C   0  0  1  0  0  0  0  0  0  0  0  0
   -5.1619  -13.8775   21.6586 O   0  0  0  0  0  0  0  0  0  0  0  0
   -3.8076  -11.9212   21.7097 C   0  0  2  0  0  0  0  0  0  0  0  0
   -5.7086   -8.6421   16.7496 O   0  0  0  0  0  0  0  0  0  0  0  0
   -6.1352   -7.3039   20.4694 N   0  0  0  0  0  0  0  0  0  0  0  0
   -6.4074   -8.5484   20.0071 C   0  0  0  0  0  0  0  0  0  0  0  0
   -5.7278   -9.6369   20.4052 N   0  0  0  0  0  0  0  0  0  0  0  0
   -4.7432   -9.5639   21.3079 C   0  0  0  0  0  0  0  0  0  0  0  0
   -4.4183   -8.2570   21.8589 C   0  0  0  0  0  0  0  0  0  0  0  0
   -5.1608   -7.0598   21.4009 C   0  0  0  0  0  0  0  0  0  0  0  0
   -4.8943   -5.7951   21.8828 N   0  0  0  0  0  0  0  0  0  0  0  0
   -3.4443   -8.4633   22.7160 N   0  0  0  0  0  0  0  0  0  0  0  0
   -3.1379   -9.7679   22.7195 C   0  0  0  0  0  0  0  0  0  0  0  0
   -3.9209  -10.4398   21.8763 N   0  0  0  0  0  0  0  0  0  0  0  0
  2  1  1  6  0  0  0
  2  3  1  0  0  0  0
  2  5  1  0  0  0  0
  3  4  1  0  0  0  0
  3 17  1  0  0  0  0
  5  6  1  0  0  0  0
  7  6  1  6  0  0  0
  7  8  1  0  0  0  0
  7  9  1  0  0  0  0
 10  9  1  6  0  0  0
 10 11  1  0  0  0  0
 10 12  1  0  0  0  0
 11 16  1  0  0  0  0
 12 13  1  6  0  0  0
 12 14  1  0  0  0  0
 14 15  1  1  0  0  0
 14 16  1  0  0  0  0
 16 27  1  6  0  0  0
 18 19  2  0  0  0  0
 18 23  1  0  0  0  0
 19 20  1  0  0  0  0
 20 21  2  0  0  0  0
 21 22  1  0  0  0  0
 21 27  1  0  0  0  0
 22 23  2  0  0  0  0
 22 25  1  0  0  0  0
 23 24  1  0  0  0  0
 25 26  2  0  0  0  0
 26 27  1  0  0  0  0
M  END
>  <CHROM.1>
118.63352996,-162.96651135,73.89123153,48.88684263,-86.75520683,-9.97493132
94.12130959,-4.13322943,-10.43967333,19.51229130,0.58187537,1.18816462,-1.26592886

>  <Name>
ligand

>  <RI>
0

>  <Rbt.Current_Directory>
/home/itssahil/PROJECTS/Mol_Feturizer/Test_systems_manuscript/rnas/4kqy

>  <Rbt.Executable>
rbdock ($Id: //depot/dev/client3/rdock/2013.1/src/exe/rbdock.cxx#4 $)

>  <Rbt.Library>
libRbt.so (2013.1, Build901 2013/11/27)

>  <Rbt.Parameter_File>
/export/apps/rDock/src/rDock_2013.1_src/data/scripts/dock_solv.prm

>  <Rbt.Receptor>
prm/pocket_docking_4.prm

>  <SCORE>
-15.0893

>  <SCORE.INTER>
-14.0398

>  <SCORE.INTER.CONST>
1

>  <SCORE.INTER.POLAR>
0

>  <SCORE.INTER.ROT>
7

>  <SCORE.INTER.SOLV>
16.6233

>  <SCORE.INTER.VDW>
-23.1676

>  <SCORE.INTER.norm>
-0.519992

>  <SCORE.INTRA>
-1.04954

>  <SCORE.INTRA.DIHEDRAL>
1.48428

>  <SCORE.INTRA.DIHEDRAL.0>
10.4103

>  <SCORE.INTRA.POLAR>
0

>  <SCORE.INTRA.POLAR.0>
0

>  <SCORE.INTRA.REPUL>
0

>  <SCORE.INTRA.REPUL.0>
0

>  <SCORE.INTRA.SOLV>
0.346855

>  <SCORE.INTRA.SOLV.lig_0>
-49.5008

>  <SCORE.INTRA.VDW>
-1.96511

>  <SCORE.INTRA.VDW.0>
-2.6946

>  <SCORE.INTRA.norm>
-0.0388718

>  <SCORE.RESTR>
0

>  <SCORE.RESTR.CAVITY>
0

>  <SCORE.RESTR.norm>
0

>  <SCORE.SYSTEM>
0

>  <SCORE.SYSTEM.CONST>
0

>  <SCORE.SYSTEM.DIHEDRAL>
0

>  <SCORE.SYSTEM.SOLV>
0

>  <SCORE.SYSTEM.norm>
0

>  <SCORE.heavy>
27

>  <SCORE.norm>
-0.558864

>  <RMSD>
1.919

$$$$
ligand
 OpenBabel02271912153D
libRbt.so/2013.1/901 2013/11/27
 27 29  0  0  0  0  0  0  0  0999 V2000
    0.8450  -11.4976   17.7171 N   0  0  0  0  0  0  0  0  0  0  0  0
    0.4674  -12.0604   16.4345 C   0  0  2  0  0  0  0  0  0  0  0  0
   -0.1663  -10.9632   15.6360 C   0  0  0  0  0  0  0  0  0  0  0  0
   -0.8672  -10.1096   16.2211 O   0  0  0  0  0  0  0  0  0  0  0  0
   -0.5188  -13.2157   16.6265 C   0  0  0  0  0  0  0  0  0  0  0  0
   -1.7817  -12.7599   17.3905 C   0  0  0  0  0  0  0  0  0  0  0  0
   -3.1464  -13.7095   17.1644 S   0  0  2  0  0  0  0  0  0  0  0  0
   -3.5610  -13.7044   15.5560 C   0  0  0  0  0  0  0  0  0  0  0  0
   -4.4141  -13.1200   18.1097 C   0  0  0  0  0  0  0  0  0  0  0  0
   -4.2605  -13.4078   19.6181 C   0  0  1  0  0  0  0  0  0  0  0  0
   -3.2081  -12.6478   20.2352 O   0  0  0  0  0  0  0  0  0  0  0  0
   -5.4705  -12.9977   20.4418 C   0  0  1  0  0  0  0  0  0  0  0  0
   -6.6409  -13.8360   20.3636 O   0  0  0  0  0  0  0  0  0  0  0  0
   -4.8574  -12.9327   21.8188 C   0  0  1  0  0  0  0  0  0  0  0  0
   -4.5876  -14.2472   22.2966 O   0  0  0  0  0  0  0  0  0  0  0  0
   -3.5560  -12.2336   21.5585 C   0  0  2  0  0  0  0  0  0  0  0  0
    0.0426  -10.9018   14.4008 O   0  0  0  0  0  0  0  0  0  0  0  0
   -6.2015   -7.7078   20.6668 N   0  0  0  0  0  0  0  0  0  0  0  0
   -6.5223   -8.9714   20.2964 C   0  0  0  0  0  0  0  0  0  0  0  0
   -5.7501  -10.0322   20.5854 N   0  0  0  0  0  0  0  0  0  0  0  0
   -4.6148   -9.9106   21.2823 C   0  0  0  0  0  0  0  0  0  0  0  0
   -4.2272   -8.5808   21.7283 C   0  0  0  0  0  0  0  0  0  0  0  0
   -5.0754   -7.4146   21.3897 C   0  0  0  0  0  0  0  0  0  0  0  0
   -4.7571   -6.1304   21.7800 N   0  0  0  0  0  0  0  0  0  0  0  0
   -3.1032   -8.7399   22.3896 N   0  0  0  0  0  0  0  0  0  0  0  0
   -2.7662  -10.0367   22.3678 C   0  0  0  0  0  0  0  0  0  0  0  0
   -3.6761  -10.7507   21.7060 N   0  0  0  0  0  0  0  0  0  0  0  0
  2  1  1  1  0  0  0
  2  3  1  0  0  0  0
  2  5  1  0  0  0  0
  3  4  1  0  0  0  0
  3 17  1  0  0  0  0
  5  6  1  0  0  0  0
  7  6  1  6  0  0  0
  7  8  1  0  0  0  0
  7  9  1  0  0  0  0
 10  9  1  6  0  0  0
 10 11  1  0  0  0  0
 10 12  1  0  0  0  0
 11 16  1  0  0  0  0
 12 13  1  1  0  0  0
 12 14  1  0  0  0  0
 14 15  1  6  0  0  0
 14 16  1  0  0  0  0
 16 27  1  6  0  0  0
 18 19  2  0  0  0  0
 18 23  1  0  0  0  0
 19 20  1  0  0  0  0
 20 21  2  0  0  0  0
 21 22  1  0  0  0  0
 21 27  1  0  0  0  0
 22 23  2  0  0  0  0
 22 25  1  0  0  0  0
 23 24  1  0  0  0  0
 25 26  2  0  0  0  0
 26 27  1  0  0  0  0
M  END
>  <CHROM.1>
-35.55184370,57.62226526,157.59230087,-60.66072944,-73.45165243,70.12787615
73.29476132,-3.38336666,-11.39871188,19.30002119,-0.63769986,0.81475827,0.32893846

>  <Name>
ligand

>  <RI>
0

>  <Rbt.Current_Directory>
/home/itssahil/PROJECTS/Mol_Feturizer/Test_systems_manuscript/rnas/4kqy

>  <Rbt.Executable>
rbdock ($Id: //depot/dev/client3/rdock/2013.1/src/exe/rbdock.cxx#4 $)

>  <Rbt.Library>
libRbt.so (2013.1, Build901 2013/11/27)

>  <Rbt.Parameter_File>
/export/apps/rDock/src/rDock_2013.1_src/data/scripts/dock_solv.prm

>  <Rbt.Receptor>
prm/pocket_docking_4.prm

>  <SCORE>
-18.5154

>  <SCORE.INTER>
-16.4137

>  <SCORE.INTER.CONST>
1

>  <SCORE.INTER.POLAR>
0

>  <SCORE.INTER.ROT>
7

>  <SCORE.INTER.SOLV>
22.3889

>  <SCORE.INTER.VDW>
-26.6721

>  <SCORE.INTER.norm>
-0.607916

>  <SCORE.INTRA>
-2.10216

>  <SCORE.INTRA.DIHEDRAL>
-4.93802

>  <SCORE.INTRA.DIHEDRAL.0>
10.4103

>  <SCORE.INTRA.POLAR>
0

>  <SCORE.INTRA.POLAR.0>
0

>  <SCORE.INTRA.REPUL>
0

>  <SCORE.INTRA.REPUL.0>
0

>  <SCORE.INTRA.SOLV>
0.113968

>  <SCORE.INTRA.SOLV.lig_0>
-49.5008

>  <SCORE.INTRA.VDW>
0.309862

>  <SCORE.INTRA.VDW.0>
-2.6946

>  <SCORE.INTRA.norm>
-0.0778579

>  <SCORE.RESTR>
0.000539416

>  <SCORE.RESTR.CAVITY>
0.000539416

>  <SCORE.RESTR.norm>
1.99784e-05

>  <SCORE.SYSTEM>
0

>  <SCORE.SYSTEM.CONST>
0

>  <SCORE.SYSTEM.DIHEDRAL>
0

>  <SCORE.SYSTEM.SOLV>
0

>  <SCORE.SYSTEM.norm>
0

>  <SCORE.heavy>
27

>  <SCORE.norm>
-0.685754

>  <RMSD>
1.931

$$$$
ligand
 OpenBabel02271912153D
libRbt.so/2013.1/901 2013/11/27
 27 29  0  0  0  0  0  0  0  0999 V2000
   -2.4401  -11.1725   13.2197 N   0  0  0  0  0  0  0  0  0  0  0  0
   -3.2849  -11.5366   14.3413 C   0  0  2  0  0  0  0  0  0  0  0  0
   -3.2237  -10.4120   15.3285 C   0  0  0  0  0  0  0  0  0  0  0  0
   -4.1907   -9.6250   15.4173 O   0  0  0  0  0  0  0  0  0  0  0  0
   -2.7908  -12.8354   14.9841 C   0  0  0  0  0  0  0  0  0  0  0  0
   -3.9690  -13.7229   15.4432 C   0  0  0  0  0  0  0  0  0  0  0  0
   -4.7151  -13.2534   16.8708 S   0  0  2  0  0  0  0  0  0  0  0  0
   -5.7774  -12.0159   16.5563 C   0  0  0  0  0  0  0  0  0  0  0  0
   -3.5491  -12.7692   17.9909 C   0  0  0  0  0  0  0  0  0  0  0  0
   -3.8890  -13.1361   19.4509 C   0  0  1  0  0  0  0  0  0  0  0  0
   -3.0377  -12.4878   20.4105 O   0  0  0  0  0  0  0  0  0  0  0  0
   -5.2688  -12.6722   19.8891 C   0  0  1  0  0  0  0  0  0  0  0  0
   -6.4041  -13.4139   19.3997 O   0  0  0  0  0  0  0  0  0  0  0  0
   -5.1111  -12.7170   21.3888 C   0  0  1  0  0  0  0  0  0  0  0  0
   -5.0811  -14.0686   21.8374 O   0  0  0  0  0  0  0  0  0  0  0  0
   -3.7545  -12.1085   21.5877 C   0  0  2  0  0  0  0  0  0  0  0  0
   -2.2184  -10.2982   16.0698 O   0  0  0  0  0  0  0  0  0  0  0  0
   -6.1112   -7.4343   20.6532 N   0  0  0  0  0  0  0  0  0  0  0  0
   -6.4464   -8.6656   20.1970 C   0  0  0  0  0  0  0  0  0  0  0  0
   -5.7505   -9.7715   20.5102 N   0  0  0  0  0  0  0  0  0  0  0  0
   -4.6844   -9.7304   21.3171 C   0  0  0  0  0  0  0  0  0  0  0  0
   -4.2874   -8.4391   21.8578 C   0  0  0  0  0  0  0  0  0  0  0  0
   -5.0497   -7.2226   21.4929 C   0  0  0  0  0  0  0  0  0  0  0  0
   -4.7181   -5.9713   21.9695 N   0  0  0  0  0  0  0  0  0  0  0  0
   -3.2407   -8.6762   22.6155 N   0  0  0  0  0  0  0  0  0  0  0  0
   -2.9571   -9.9850   22.5673 C   0  0  0  0  0  0  0  0  0  0  0  0
   -3.8270  -10.6291   21.7901 N   0  0  0  0  0  0  0  0  0  0  0  0
  2  1  1  6  0  0  0
  2  3  1  0  0  0  0
  2  5  1  0  0  0  0
  3  4  1  0  0  0  0
  3 17  1  0  0  0  0
  5  6  1  0  0  0  0
  7  6  1  6  0  0  0
  7  8  1  0  0  0  0
  7  9  1  0  0  0  0
 10  9  1  6  0  0  0
 10 11  1  0  0  0  0
 10 12  1  0  0  0  0
 11 16  1  0  0  0  0
 12 13  1  1  0  0  0
 12 14  1  0  0  0  0
 14 15  1  6  0  0  0
 14 16  1  0  0  0  0
 16 27  1  6  0  0  0
 18 19  2  0  0  0  0
 18 23  1  0  0  0  0
 19 20  1  0  0  0  0
 20 21  2  0  0  0  0
 21 22  1  0  0  0  0
 21 27  1  0  0  0  0
 22 23  2  0  0  0  0
 22 25  1  0  0  0  0
 23 24  1  0  0  0  0
 25 26  2  0  0  0  0
 26 27  1  0  0  0  0
M  END
>  <CHROM.1>
104.05605156,-142.33829790,-77.51575493,80.55970421,-144.37947556,-168.03369408
85.87719051,-4.30465095,-11.09307279,18.91352696,-0.71049247,1.37981813,0.28192526

>  <Name>
ligand

>  <RI>
0

>  <Rbt.Current_Directory>
/home/itssahil/PROJECTS/Mol_Feturizer/Test_systems_manuscript/rnas/4kqy

>  <Rbt.Executable>
rbdock ($Id: //depot/dev/client3/rdock/2013.1/src/exe/rbdock.cxx#4 $)

>  <Rbt.Library>
libRbt.so (2013.1, Build901 2013/11/27)

>  <Rbt.Parameter_File>
/export/apps/rDock/src/rDock_2013.1_src/data/scripts/dock_solv.prm

>  <Rbt.Receptor>
prm/pocket_docking_5.prm

>  <SCORE>
-12.1526

>  <SCORE.INTER>
-13.1459

>  <SCORE.INTER.CONST>
1

>  <SCORE.INTER.POLAR>
0

>  <SCORE.INTER.ROT>
7

>  <SCORE.INTER.SOLV>
15.4327

>  <SCORE.INTER.VDW>
-22.1748

>  <SCORE.INTER.norm>
-0.486885

>  <SCORE.INTRA>
0.99324

>  <SCORE.INTRA.DIHEDRAL>
2.26605

>  <SCORE.INTRA.DIHEDRAL.0>
10.4103

>  <SCORE.INTRA.POLAR>
0

>  <SCORE.INTRA.POLAR.0>
0

>  <SCORE.INTRA.REPUL>
0

>  <SCORE.INTRA.REPUL.0>
0

>  <SCORE.INTRA.SOLV>
-0.12136

>  <SCORE.INTRA.SOLV.lig_0>
-49.5008

>  <SCORE.INTRA.VDW>
-0.0791051

>  <SCORE.INTRA.VDW.0>
-2.6946

>  <SCORE.INTRA.norm>
0.0367867

>  <SCORE.RESTR>
0

>  <SCORE.RESTR.CAVITY>
0

>  <SCORE.RESTR.norm>
0

>  <SCORE.SYSTEM>
0

>  <SCORE.SYSTEM.CONST>
0

>  <SCORE.SYSTEM.DIHEDRAL>
0

>  <SCORE.SYSTEM.SOLV>
0

>  <SCORE.SYSTEM.norm>
0

>  <SCORE.heavy>
27

>  <SCORE.norm>
-0.450098

>  <RMSD>
1.958

$$$$
ligand
 OpenBabel02271912153D
libRbt.so/2013.1/901 2013/11/27
 27 29  0  0  0  0  0  0  0  0999 V2000
   -4.0314   -9.6044   15.4502 N   0  0  0  0  0  0  0  0  0  0  0  0
   -3.1972   -9.0550   16.5021 C   0  0  2  0  0  0  0  0  0  0  0  0
   -2.2614   -8.0760   15.8628 C   0  0  0  0  0  0  0  0  0  0  0  0
   -1.4954   -8.4673   14.9559 O   0  0  0  0  0  0  0  0  0  0  0  0
   -2.4084  -10.1687   17.1962 C   0  0  0  0  0  0  0  0  0  0  0  0
   -3.3443  -11.2748   17.7321 C   0  0  0  0  0  0  0  0  0  0  0  0
   -2.5839  -12.6789   18.2474 S   0  0  2  0  0  0  0  0  0  0  0  0
   -1.4384  -13.1268   17.1313 C   0  0  0  0  0  0  0  0  0  0  0  0
   -3.7271  -13.9033   18.4540 C   0  0  0  0  0  0  0  0  0  0  0  0
   -4.4202  -13.8905   19.8329 C   0  0  1  0  0  0  0  0  0  0  0  0
   -3.9315  -12.8558   20.7026 O   0  0  0  0  0  0  0  0  0  0  0  0
   -5.9046  -13.5701   19.7644 C   0  0  1  0  0  0  0  0  0  0  0  0
   -6.7858  -14.6081   19.2901 O   0  0  0  0  0  0  0  0  0  0  0  0
   -6.1631  -13.1553   21.1917 C   0  0  1  0  0  0  0  0  0  0  0  0
   -6.1305  -14.2948   22.0458 O   0  0  0  0  0  0  0  0  0  0  0  0
   -4.9776  -12.2873   21.4939 C   0  0  2  0  0  0  0  0  0  0  0  0
   -2.2846   -6.8756   16.2258 O   0  0  0  0  0  0  0  0  0  0  0  0
   -3.4512   -7.1943   21.5804 N   0  0  0  0  0  0  0  0  0  0  0  0
   -2.7927   -8.2906   22.0289 C   0  0  0  0  0  0  0  0  0  0  0  0
   -3.3053   -9.5300   21.9495 N   0  0  0  0  0  0  0  0  0  0  0  0
   -4.5011   -9.7659   21.3983 C   0  0  0  0  0  0  0  0  0  0  0  0
   -5.2481   -8.6310   20.8775 C   0  0  0  0  0  0  0  0  0  0  0  0
   -4.6831   -7.2660   20.9854 C   0  0  0  0  0  0  0  0  0  0  0  0
   -5.3463   -6.1517   20.5150 N   0  0  0  0  0  0  0  0  0  0  0  0
   -6.3602   -9.1303   20.3877 N   0  0  0  0  0  0  0  0  0  0  0  0
   -6.3632  -10.4564   20.5815 C   0  0  0  0  0  0  0  0  0  0  0  0
   -5.2423  -10.8485   21.1860 N   0  0  0  0  0  0  0  0  0  0  0  0
  2  1  1  6  0  0  0
  2  3  1  0  0  0  0
  2  5  1  0  0  0  0
  3  4  1  0  0  0  0
  3 17  1  0  0  0  0
  5  6  1  0  0  0  0
  7  6  1  6  0  0  0
  7  8  1  0  0  0  0
  7  9  1  0  0  0  0
 10  9  1  6  0  0  0
 10 11  1  0  0  0  0
 10 12  1  0  0  0  0
 11 16  1  0  0  0  0
 12 13  1  1  0  0  0
 12 14  1  0  0  0  0
 14 15  1  1  0  0  0
 14 16  1  0  0  0  0
 16 27  1  6  0  0  0
 18 19  2  0  0  0  0
 18 23  1  0  0  0  0
 19 20  1  0  0  0  0
 20 21  2  0  0  0  0
 21 22  1  0  0  0  0
 21 27  1  0  0  0  0
 22 23  2  0  0  0  0
 22 25  1  0  0  0  0
 23 24  1  0  0  0  0
 25 26  2  0  0  0  0
 26 27  1  0  0  0  0
M  END
>  <CHROM.1>
-58.34271908,-55.33797096,168.77232494,-45.08432993,-85.08653548,-1.71467603
-68.43138269,-4.06670738,-10.72067071,19.28111214,-0.66799135,-1.04846714
-2.91669597

>  <Name>
ligand

>  <RI>
0

>  <Rbt.Current_Directory>
/home/itssahil/PROJECTS/Mol_Feturizer/Test_systems_manuscript/rnas/4kqy

>  <Rbt.Executable>
rbdock ($Id: //depot/dev/client3/rdock/2013.1/src/exe/rbdock.cxx#4 $)

>  <Rbt.Library>
libRbt.so (2013.1, Build901 2013/11/27)

>  <Rbt.Parameter_File>
/export/apps/rDock/src/rDock_2013.1_src/data/scripts/dock_solv.prm

>  <Rbt.Receptor>
prm/pocket_docking_2.prm

>  <SCORE>
-13.1897

>  <SCORE.INTER>
-14.8105

>  <SCORE.INTER.CONST>
1

>  <SCORE.INTER.POLAR>
0

>  <SCORE.INTER.ROT>
7

>  <SCORE.INTER.SOLV>
16.8373

>  <SCORE.INTER.VDW>
-23.7528

>  <SCORE.INTER.norm>
-0.548538

>  <SCORE.INTRA>
1.62086

>  <SCORE.INTRA.DIHEDRAL>
0.469226

>  <SCORE.INTRA.DIHEDRAL.0>
10.4103

>  <SCORE.INTRA.POLAR>
0

>  <SCORE.INTRA.POLAR.0>
0

>  <SCORE.INTRA.REPUL>
0

>  <SCORE.INTRA.REPUL.0>
0

>  <SCORE.INTRA.SOLV>
0.42533

>  <SCORE.INTRA.SOLV.lig_0>
-49.5008

>  <SCORE.INTRA.VDW>
1.17358

>  <SCORE.INTRA.VDW.0>
-2.6946

>  <SCORE.INTRA.norm>
0.0600318

>  <SCORE.RESTR>
0

>  <SCORE.RESTR.CAVITY>
0

>  <SCORE.RESTR.norm>
0

>  <SCORE.SYSTEM>
0

>  <SCORE.SYSTEM.CONST>
0

>  <SCORE.SYSTEM.DIHEDRAL>
0

>  <SCORE.SYSTEM.SOLV>
0

>  <SCORE.SYSTEM.norm>
0

>  <SCORE.heavy>
27

>  <SCORE.norm>
-0.488507

>  <RMSD>
2.043

$$$$
ligand
 OpenBabel02271912153D
libRbt.so/2013.1/901 2013/11/27
 27 29  0  0  0  0  0  0  0  0999 V2000
   -5.5546  -11.8066   13.9707 N   0  0  0  0  0  0  0  0  0  0  0  0
   -4.6422  -11.4187   15.0296 C   0  0  2  0  0  0  0  0  0  0  0  0
   -3.9940  -10.1351   14.6109 C   0  0  0  0  0  0  0  0  0  0  0  0
   -3.9404   -9.1858   15.4222 O   0  0  0  0  0  0  0  0  0  0  0  0
   -3.5830  -12.5026   15.2472 C   0  0  0  0  0  0  0  0  0  0  0  0
   -2.6317  -12.1384   16.4086 C   0  0  0  0  0  0  0  0  0  0  0  0
   -3.3241  -12.1348   17.9370 S   0  0  2  0  0  0  0  0  0  0  0  0
   -2.2632  -11.4580   19.0210 C   0  0  0  0  0  0  0  0  0  0  0  0
   -3.7144  -13.7132   18.3896 C   0  0  0  0  0  0  0  0  0  0  0  0
   -4.5785  -13.8063   19.6650 C   0  0  1  0  0  0  0  0  0  0  0  0
   -3.9264  -13.2757   20.8307 O   0  0  0  0  0  0  0  0  0  0  0  0
   -5.8455  -12.9685   19.6035 C   0  0  1  0  0  0  0  0  0  0  0  0
   -6.9282  -13.4623   18.7895 O   0  0  0  0  0  0  0  0  0  0  0  0
   -6.1816  -12.8690   21.0709 C   0  0  1  0  0  0  0  0  0  0  0  0
   -6.6610  -14.1222   21.5489 O   0  0  0  0  0  0  0  0  0  0  0  0
   -4.8430  -12.5927   21.6892 C   0  0  2  0  0  0  0  0  0  0  0  0
   -3.4890  -10.0457   13.4662 O   0  0  0  0  0  0  0  0  0  0  0  0
   -6.0005   -7.5669   20.3942 N   0  0  0  0  0  0  0  0  0  0  0  0
   -6.6028   -8.7124   19.9922 C   0  0  0  0  0  0  0  0  0  0  0  0
   -6.1974   -9.9279   20.3965 N   0  0  0  0  0  0  0  0  0  0  0  0
   -5.1767  -10.0855   21.2467 C   0  0  0  0  0  0  0  0  0  0  0  0
   -4.5028   -8.8908   21.7325 C   0  0  0  0  0  0  0  0  0  0  0  0
   -4.9450   -7.5558   21.2674 C   0  0  0  0  0  0  0  0  0  0  0  0
   -4.3420   -6.3888   21.6886 N   0  0  0  0  0  0  0  0  0  0  0  0
   -3.5651   -9.3169   22.5480 N   0  0  0  0  0  0  0  0  0  0  0  0
   -3.5971  -10.6562   22.5847 C   0  0  0  0  0  0  0  0  0  0  0  0
   -4.5704  -11.1275   21.8062 N   0  0  0  0  0  0  0  0  0  0  0  0
  2  1  1  6  0  0  0
  2  3  1  0  0  0  0
  2  5  1  0  0  0  0
  3  4  1  0  0  0  0
  3 17  1  0  0  0  0
  5  6  1  0  0  0  0
  7  6  1  6  0  0  0
  7  8  1  0  0  0  0
  7  9  1  0  0  0  0
 10  9  1  6  0  0  0
 10 11  1  0  0  0  0
 10 12  1  0  0  0  0
 11 16  1  0  0  0  0
 12 13  1  6  0  0  0
 12 14  1  0  0  0  0
 14 15  1  1  0  0  0
 14 16  1  0  0  0  0
 16 27  1  6  0  0  0
 18 19  2  0  0  0  0
 18 23  1  0  0  0  0
 19 20  1  0  0  0  0
 20 21  2  0  0  0  0
 21 22  1  0  0  0  0
 21 27  1  0  0  0  0
 22 23  2  0  0  0  0
 22 25  1  0  0  0  0
 23 24  1  0  0  0  0
 25 26  2  0  0  0  0
 26 27  1  0  0  0  0
M  END
>  <CHROM.1>
132.11128843,-177.74996689,67.94232958,-169.54055365,-169.81486328,-62.06955128
102.83682896,-4.58078080,-11.14000495,19.00256636,-0.56346205,1.38927768
0.39122532

>  <Name>
ligand

>  <RI>
0

>  <Rbt.Current_Directory>
/home/itssahil/PROJECTS/Mol_Feturizer/Test_systems_manuscript/rnas/4kqy

>  <Rbt.Executable>
rbdock ($Id: //depot/dev/client3/rdock/2013.1/src/exe/rbdock.cxx#4 $)

>  <Rbt.Library>
libRbt.so (2013.1, Build901 2013/11/27)

>  <Rbt.Parameter_File>
/export/apps/rDock/src/rDock_2013.1_src/data/scripts/dock_solv.prm

>  <Rbt.Receptor>
prm/pocket_docking_5.prm

>  <SCORE>
-15.8286

>  <SCORE.INTER>
-11.1755

>  <SCORE.INTER.CONST>
1

>  <SCORE.INTER.POLAR>
0

>  <SCORE.INTER.ROT>
7

>  <SCORE.INTER.SOLV>
17.2675

>  <SCORE.INTER.VDW>
-21.4729

>  <SCORE.INTER.norm>
-0.413908

>  <SCORE.INTRA>
-4.6531

>  <SCORE.INTRA.DIHEDRAL>
-6.8454

>  <SCORE.INTRA.DIHEDRAL.0>
10.4103

>  <SCORE.INTRA.POLAR>
0

>  <SCORE.INTRA.POLAR.0>
0

>  <SCORE.INTRA.REPUL>
0

>  <SCORE.INTRA.REPUL.0>
0

>  <SCORE.INTRA.SOLV>
-0.29199

>  <SCORE.INTRA.SOLV.lig_0>
-49.5008

>  <SCORE.INTRA.VDW>
-1.08441

>  <SCORE.INTRA.VDW.0>
-2.6946

>  <SCORE.INTRA.norm>
-0.172337

>  <SCORE.RESTR>
0

>  <SCORE.RESTR.CAVITY>
0

>  <SCORE.RESTR.norm>
0

>  <SCORE.SYSTEM>
0

>  <SCORE.SYSTEM.CONST>
0

>  <SCORE.SYSTEM.DIHEDRAL>
0

>  <SCORE.SYSTEM.SOLV>
0

>  <SCORE.SYSTEM.norm>
0

>  <SCORE.heavy>
27

>  <SCORE.norm>
-0.586245

>  <RMSD>
2.136

$$$$
ligand
 OpenBabel02271912153D
libRbt.so/2013.1/901 2013/11/27
 27 29  0  0  0  0  0  0  0  0999 V2000
   -3.7408   -9.2258   16.6647 N   0  0  0  0  0  0  0  0  0  0  0  0
   -3.1547  -10.0918   17.6701 C   0  0  2  0  0  0  0  0  0  0  0  0
   -2.8540   -9.2439   18.8675 C   0  0  0  0  0  0  0  0  0  0  0  0
   -3.1851   -8.0387   18.8602 O   0  0  0  0  0  0  0  0  0  0  0  0
   -1.8711  -10.7358   17.1392 C   0  0  0  0  0  0  0  0  0  0  0  0
   -1.4294  -11.9256   18.0199 C   0  0  0  0  0  0  0  0  0  0  0  0
   -2.1913  -13.3856   17.6988 S   0  0  2  0  0  0  0  0  0  0  0  0
   -1.9573  -13.7906   16.1051 C   0  0  0  0  0  0  0  0  0  0  0  0
   -3.8379  -13.2579   18.0469 C   0  0  0  0  0  0  0  0  0  0  0  0
   -4.1683  -13.3124   19.5534 C   0  0  1  0  0  0  0  0  0  0  0  0
   -3.6829  -12.1719   20.2811 O   0  0  0  0  0  0  0  0  0  0  0  0
   -5.6583  -13.2659   19.8512 C   0  0  1  0  0  0  0  0  0  0  0  0
   -6.4218  -14.4635   19.6029 O   0  0  0  0  0  0  0  0  0  0  0  0
   -5.6367  -12.8454   21.3000 C   0  0  1  0  0  0  0  0  0  0  0  0
   -5.1906  -13.9245   22.1159 O   0  0  0  0  0  0  0  0  0  0  0  0
   -4.5935  -11.7676   21.3064 C   0  0  2  0  0  0  0  0  0  0  0  0
   -2.3046   -9.7646   19.8677 O   0  0  0  0  0  0  0  0  0  0  0  0
   -4.2429   -6.4704   21.6109 N   0  0  0  0  0  0  0  0  0  0  0  0
   -3.3403   -7.4087   21.9870 C   0  0  0  0  0  0  0  0  0  0  0  0
   -3.5652   -8.7271   21.8582 N   0  0  0  0  0  0  0  0  0  0  0  0
   -4.6967   -9.2020   21.3259 C   0  0  0  0  0  0  0  0  0  0  0  0
   -5.6967   -8.2428   20.8816 C   0  0  0  0  0  0  0  0  0  0  0  0
   -5.4480   -6.7916   21.0440 C   0  0  0  0  0  0  0  0  0  0  0  0
   -6.3600   -5.8359   20.6469 N   0  0  0  0  0  0  0  0  0  0  0  0
   -6.6857   -8.9579   20.3953 N   0  0  0  0  0  0  0  0  0  0  0  0
   -6.3851  -10.2577   20.5221 C   0  0  0  0  0  0  0  0  0  0  0  0
   -5.1841  -10.4133   21.0780 N   0  0  0  0  0  0  0  0  0  0  0  0
  2  1  1  6  0  0  0
  2  3  1  0  0  0  0
  2  5  1  0  0  0  0
  3  4  1  0  0  0  0
  3 17  1  0  0  0  0
  5  6  1  0  0  0  0
  7  6  1  6  0  0  0
  7  8  1  0  0  0  0
  7  9  1  0  0  0  0
 10  9  1  6  0  0  0
 10 11  1  0  0  0  0
 10 12  1  0  0  0  0
 11 16  1  0  0  0  0
 12 13  1  1  0  0  0
 12 14  1  0  0  0  0
 14 15  1  1  0  0  0
 14 16  1  0  0  0  0
 16 27  1  6  0  0  0
 18 19  2  0  0  0  0
 18 23  1  0  0  0  0
 19 20  1  0  0  0  0
 20 21  2  0  0  0  0
 21 22  1  0  0  0  0
 21 27  1  0  0  0  0
 22 23  2  0  0  0  0
 22 25  1  0  0  0  0
 23 24  1  0  0  0  0
 25 26  2  0  0  0  0
 26 27  1  0  0  0  0
M  END
>  <CHROM.1>
3.50267495,-165.07883960,82.73592102,57.11886439,-76.78426744,67.17979870
-81.57986786,-4.08073898,-10.71132615,19.65934873,-1.18085083,0.81818856
0.15257611

>  <Name>
ligand

>  <RI>
0

>  <Rbt.Current_Directory>
/home/itssahil/PROJECTS/Mol_Feturizer/Test_systems_manuscript/rnas/4kqy

>  <Rbt.Executable>
rbdock ($Id: //depot/dev/client3/rdock/2013.1/src/exe/rbdock.cxx#4 $)

>  <Rbt.Library>
libRbt.so (2013.1, Build901 2013/11/27)

>  <Rbt.Parameter_File>
/export/apps/rDock/src/rDock_2013.1_src/data/scripts/dock_solv.prm

>  <Rbt.Receptor>
prm/pocket_docking_3.prm

>  <SCORE>
-18.2952

>  <SCORE.INTER>
-14.902

>  <SCORE.INTER.CONST>
1

>  <SCORE.INTER.POLAR>
0

>  <SCORE.INTER.ROT>
7

>  <SCORE.INTER.SOLV>
19.174

>  <SCORE.INTER.VDW>
-24.5927

>  <SCORE.INTER.norm>
-0.551928

>  <SCORE.INTRA>
-3.44953

>  <SCORE.INTRA.DIHEDRAL>
-4.01495

>  <SCORE.INTRA.DIHEDRAL.0>
10.4103

>  <SCORE.INTRA.POLAR>
0

>  <SCORE.INTRA.POLAR.0>
0

>  <SCORE.INTRA.REPUL>
0

>  <SCORE.INTRA.REPUL.0>
0

>  <SCORE.INTRA.SOLV>
0.119448

>  <SCORE.INTRA.SOLV.lig_0>
-49.5008

>  <SCORE.INTRA.VDW>
-1.50178

>  <SCORE.INTRA.VDW.0>
-2.6946

>  <SCORE.INTRA.norm>
-0.12776

>  <SCORE.RESTR>
0.0563261

>  <SCORE.RESTR.CAVITY>
0.0563261

>  <SCORE.RESTR.norm>
0.00208615

>  <SCORE.SYSTEM>
0

>  <SCORE.SYSTEM.CONST>
0

>  <SCORE.SYSTEM.DIHEDRAL>
0

>  <SCORE.SYSTEM.SOLV>
0

>  <SCORE.SYSTEM.norm>
0

>  <SCORE.heavy>
27

>  <SCORE.norm>
-0.677602

>  <RMSD>
2.204

$$$$
ligand
 OpenBabel02271912153D
libRbt.so/2013.1/901 2013/11/27
 27 29  0  0  0  0  0  0  0  0999 V2000
   -3.0173   -9.8372   14.8119 N   0  0  0  0  0  0  0  0  0  0  0  0
   -3.3225  -11.1805   15.2662 C   0  0  2  0  0  0  0  0  0  0  0  0
   -3.9893  -11.8939   14.1306 C   0  0  0  0  0  0  0  0  0  0  0  0
   -4.9008  -11.3172   13.4992 O   0  0  0  0  0  0  0  0  0  0  0  0
   -4.2498  -11.1360   16.4836 C   0  0  0  0  0  0  0  0  0  0  0  0
   -3.5090  -10.6275   17.7403 C   0  0  0  0  0  0  0  0  0  0  0  0
   -2.3566  -11.6703   18.3725 S   0  0  2  0  0  0  0  0  0  0  0  0
   -1.0240  -11.6853   17.3813 C   0  0  0  0  0  0  0  0  0  0  0  0
   -3.0093  -13.2199   18.5189 C   0  0  0  0  0  0  0  0  0  0  0  0
   -3.9855  -13.3818   19.7032 C   0  0  1  0  0  0  0  0  0  0  0  0
   -3.4880  -12.8182   20.9282 O   0  0  0  0  0  0  0  0  0  0  0  0
   -5.2945  -12.6310   19.5193 C   0  0  1  0  0  0  0  0  0  0  0  0
   -6.2564  -13.1900   18.6022 O   0  0  0  0  0  0  0  0  0  0  0  0
   -5.7783  -12.5667   20.9469 C   0  0  1  0  0  0  0  0  0  0  0  0
   -6.2157  -13.8535   21.3734 O   0  0  0  0  0  0  0  0  0  0  0  0
   -4.5285  -12.2060   21.6939 C   0  0  2  0  0  0  0  0  0  0  0  0
   -3.6008  -13.0435   13.8133 O   0  0  0  0  0  0  0  0  0  0  0  0
   -5.9856   -7.2587   20.3987 N   0  0  0  0  0  0  0  0  0  0  0  0
   -6.4834   -8.4388   19.9558 C   0  0  0  0  0  0  0  0  0  0  0  0
   -6.0103   -9.6276   20.3661 N   0  0  0  0  0  0  0  0  0  0  0  0
   -5.0222   -9.7232   21.2627 C   0  0  0  0  0  0  0  0  0  0  0  0
   -4.4606   -8.4901   21.7932 C   0  0  0  0  0  0  0  0  0  0  0  0
   -4.9761   -7.1840   21.3217 C   0  0  0  0  0  0  0  0  0  0  0  0
   -4.4802   -5.9826   21.7840 N   0  0  0  0  0  0  0  0  0  0  0  0
   -3.5340   -8.8591   22.6483 N   0  0  0  0  0  0  0  0  0  0  0  0
   -3.4703  -10.1975   22.6691 C   0  0  0  0  0  0  0  0  0  0  0  0
   -4.3689  -10.7266   21.8396 N   0  0  0  0  0  0  0  0  0  0  0  0
  2  1  1  6  0  0  0
  2  3  1  0  0  0  0
  2  5  1  0  0  0  0
  3  4  1  0  0  0  0
  3 17  1  0  0  0  0
  5  6  1  0  0  0  0
  7  6  1  6  0  0  0
  7  8  1  0  0  0  0
  7  9  1  0  0  0  0
 10  9  1  6  0  0  0
 10 11  1  0  0  0  0
 10 12  1  0  0  0  0
 11 16  1  0  0  0  0
 12 13  1  6  0  0  0
 12 14  1  0  0  0  0
 14 15  1  1  0  0  0
 14 16  1  0  0  0  0
 16 27  1  6  0  0  0
 18 19  2  0  0  0  0
 18 23  1  0  0  0  0
 19 20  1  0  0  0  0
 20 21  2  0  0  0  0
 21 22  1  0  0  0  0
 21 27  1  0  0  0  0
 22 23  2  0  0  0  0
 22 25  1  0  0  0  0
 23 24  1  0  0  0  0
 25 26  2  0  0  0  0
 26 27  1  0  0  0  0
M  END
>  <CHROM.1>
-46.16218272,-71.34616220,-69.62829083,73.14632294,-75.32318593,-46.24992472
105.76283904,-4.24333628,-10.96125426,19.02721052,-0.18706367,1.38968681
-0.20041093

>  <Name>
ligand

>  <RI>
0

>  <Rbt.Current_Directory>
/home/itssahil/PROJECTS/Mol_Feturizer/Test_systems_manuscript/rnas/4kqy

>  <Rbt.Executable>
rbdock ($Id: //depot/dev/client3/rdock/2013.1/src/exe/rbdock.cxx#4 $)

>  <Rbt.Library>
libRbt.so (2013.1, Build901 2013/11/27)

>  <Rbt.Parameter_File>
/export/apps/rDock/src/rDock_2013.1_src/data/scripts/dock_solv.prm

>  <Rbt.Receptor>
prm/pocket_docking_8.prm

>  <SCORE>
-14.4701

>  <SCORE.INTER>
-11.9554

>  <SCORE.INTER.CONST>
1

>  <SCORE.INTER.POLAR>
0

>  <SCORE.INTER.ROT>
7

>  <SCORE.INTER.SOLV>
16.2844

>  <SCORE.INTER.VDW>
-21.665

>  <SCORE.INTER.norm>
-0.442791

>  <SCORE.INTRA>
-2.5147

>  <SCORE.INTRA.DIHEDRAL>
-4.89859

>  <SCORE.INTRA.DIHEDRAL.0>
10.4103

>  <SCORE.INTRA.POLAR>
0

>  <SCORE.INTRA.POLAR.0>
0

>  <SCORE.INTRA.REPUL>
0

>  <SCORE.INTRA.REPUL.0>
0

>  <SCORE.INTRA.SOLV>
1.63435

>  <SCORE.INTRA.SOLV.lig_0>
-49.5008

>  <SCORE.INTRA.VDW>
-0.882581

>  <SCORE.INTRA.VDW.0>
-2.6946

>  <SCORE.INTRA.norm>
-0.0931371

>  <SCORE.RESTR>
0

>  <SCORE.RESTR.CAVITY>
0

>  <SCORE.RESTR.norm>
0

>  <SCORE.SYSTEM>
0

>  <SCORE.SYSTEM.CONST>
0

>  <SCORE.SYSTEM.DIHEDRAL>
0

>  <SCORE.SYSTEM.SOLV>
0

>  <SCORE.SYSTEM.norm>
0

>  <SCORE.heavy>
27

>  <SCORE.norm>
-0.535928

>  <RMSD>
2.212

$$$$
ligand
 OpenBabel02271912153D
libRbt.so/2013.1/901 2013/11/27
 27 29  0  0  0  0  0  0  0  0999 V2000
   -0.3369  -13.8821   17.2847 N   0  0  0  0  0  0  0  0  0  0  0  0
   -0.7521  -13.0247   16.1909 C   0  0  2  0  0  0  0  0  0  0  0  0
   -0.5504  -11.6083   16.6340 C   0  0  0  0  0  0  0  0  0  0  0  0
   -0.5756  -11.3418   17.8549 O   0  0  0  0  0  0  0  0  0  0  0  0
   -2.2241  -13.2696   15.8479 C   0  0  0  0  0  0  0  0  0  0  0  0
   -3.1499  -12.8861   17.0236 C   0  0  0  0  0  0  0  0  0  0  0  0
   -4.7549  -13.3471   16.8608 S   0  0  2  0  0  0  0  0  0  0  0  0
   -5.3763  -12.6966   15.4646 C   0  0  0  0  0  0  0  0  0  0  0  0
   -5.6357  -12.8296   18.2043 C   0  0  0  0  0  0  0  0  0  0  0  0
   -5.0058  -13.2203   19.5579 C   0  0  1  0  0  0  0  0  0  0  0  0
   -3.8148  -12.4762   19.8639 O   0  0  0  0  0  0  0  0  0  0  0  0
   -5.8903  -12.9058   20.7536 C   0  0  1  0  0  0  0  0  0  0  0  0
   -7.0202  -13.7700   20.9882 O   0  0  0  0  0  0  0  0  0  0  0  0
   -4.8688  -12.9220   21.8638 C   0  0  1  0  0  0  0  0  0  0  0  0
   -4.4543  -14.2590   22.1275 O   0  0  0  0  0  0  0  0  0  0  0  0
   -3.7225  -12.1684   21.2569 C   0  0  2  0  0  0  0  0  0  0  0  0
   -0.3288  -10.7208   15.7759 O   0  0  0  0  0  0  0  0  0  0  0  0
   -6.1097   -7.4561   20.6473 N   0  0  0  0  0  0  0  0  0  0  0  0
   -6.4492   -8.6591   20.1238 C   0  0  0  0  0  0  0  0  0  0  0  0
   -5.7445   -9.7790   20.3574 N   0  0  0  0  0  0  0  0  0  0  0  0
   -4.6643   -9.7821   21.1465 C   0  0  0  0  0  0  0  0  0  0  0  0
   -4.2617   -8.5240   21.7568 C   0  0  0  0  0  0  0  0  0  0  0  0
   -5.0340   -7.2909   21.4793 C   0  0  0  0  0  0  0  0  0  0  0  0
   -4.6978   -6.0692   22.0245 N   0  0  0  0  0  0  0  0  0  0  0  0
   -3.2009   -8.8019   22.4803 N   0  0  0  0  0  0  0  0  0  0  0  0
   -2.9142  -10.1044   22.3484 C   0  0  0  0  0  0  0  0  0  0  0  0
   -3.7959  -10.7040   21.5492 N   0  0  0  0  0  0  0  0  0  0  0  0
  2  1  1  1  0  0  0
  2  3  1  0  0  0  0
  2  5  1  0  0  0  0
  3  4  1  0  0  0  0
  3 17  1  0  0  0  0
  5  6  1  0  0  0  0
  7  6  1  1  0  0  0
  7  8  1  0  0  0  0
  7  9  1  0  0  0  0
 10  9  1  6  0  0  0
 10 11  1  0  0  0  0
 10 12  1  0  0  0  0
 11 16  1  0  0  0  0
 12 13  1  1  0  0  0
 12 14  1  0  0  0  0
 14 15  1  6  0  0  0
 14 16  1  0  0  0  0
 16 27  1  6  0  0  0
 18 19  2  0  0  0  0
 18 23  1  0  0  0  0
 19 20  1  0  0  0  0
 20 21  2  0  0  0  0
 21 22  1  0  0  0  0
 21 27  1  0  0  0  0
 22 23  2  0  0  0  0
 22 25  1  0  0  0  0
 23 24  1  0  0  0  0
 25 26  2  0  0  0  0
 26 27  1  0  0  0  0
M  END
>  <CHROM.1>
-25.87232535,63.91075177,-170.25193522,-57.17352603,-50.76934393,71.61511987
49.89933642,-3.92342188,-11.44892257,19.35853898,-1.02228409,0.71287283,0.54080310

>  <Name>
ligand

>  <RI>
0

>  <Rbt.Current_Directory>
/home/itssahil/PROJECTS/Mol_Feturizer/Test_systems_manuscript/rnas/4kqy

>  <Rbt.Executable>
rbdock ($Id: //depot/dev/client3/rdock/2013.1/src/exe/rbdock.cxx#4 $)

>  <Rbt.Library>
libRbt.so (2013.1, Build901 2013/11/27)

>  <Rbt.Parameter_File>
/export/apps/rDock/src/rDock_2013.1_src/data/scripts/dock_solv.prm

>  <Rbt.Receptor>
prm/pocket_docking_6.prm

>  <SCORE>
-15.74

>  <SCORE.INTER>
-13.2423

>  <SCORE.INTER.CONST>
1

>  <SCORE.INTER.POLAR>
0

>  <SCORE.INTER.ROT>
7

>  <SCORE.INTER.SOLV>
21.8801

>  <SCORE.INTER.VDW>
-24.3882

>  <SCORE.INTER.norm>
-0.490455

>  <SCORE.INTRA>
-2.49772

>  <SCORE.INTRA.DIHEDRAL>
-6.51143

>  <SCORE.INTRA.DIHEDRAL.0>
10.4103

>  <SCORE.INTRA.POLAR>
0

>  <SCORE.INTRA.POLAR.0>
0

>  <SCORE.INTRA.REPUL>
0

>  <SCORE.INTRA.REPUL.0>
0

>  <SCORE.INTRA.SOLV>
0.191184

>  <SCORE.INTRA.SOLV.lig_0>
-49.5008

>  <SCORE.INTRA.VDW>
0.662406

>  <SCORE.INTRA.VDW.0>
-2.6946

>  <SCORE.INTRA.norm>
-0.0925081

>  <SCORE.RESTR>
0

>  <SCORE.RESTR.CAVITY>
0

>  <SCORE.RESTR.norm>
0

>  <SCORE.SYSTEM>
0

>  <SCORE.SYSTEM.CONST>
0

>  <SCORE.SYSTEM.DIHEDRAL>
0

>  <SCORE.SYSTEM.SOLV>
0

>  <SCORE.SYSTEM.norm>
0

>  <SCORE.heavy>
27

>  <SCORE.norm>
-0.582963

>  <RMSD>
2.283

$$$$
ligand
 OpenBabel02271912153D
libRbt.so/2013.1/901 2013/11/27
 27 29  0  0  0  0  0  0  0  0999 V2000
   -3.1142   -8.2097   17.5908 N   0  0  0  0  0  0  0  0  0  0  0  0
   -2.5229   -9.5185   17.3867 C   0  0  2  0  0  0  0  0  0  0  0  0
   -2.2165   -9.6459   15.9263 C   0  0  0  0  0  0  0  0  0  0  0  0
   -2.6665   -8.7923   15.1319 O   0  0  0  0  0  0  0  0  0  0  0  0
   -3.4940  -10.6186   17.8239 C   0  0  0  0  0  0  0  0  0  0  0  0
   -2.7418  -11.8521   18.3709 C   0  0  0  0  0  0  0  0  0  0  0  0
   -3.4208  -13.3394   17.9941 S   0  0  2  0  0  0  0  0  0  0  0  0
   -2.7263  -13.9260   16.6040 C   0  0  0  0  0  0  0  0  0  0  0  0
   -5.0894  -13.1724   17.8035 C   0  0  0  0  0  0  0  0  0  0  0  0
   -5.8775  -13.1760   19.1304 C   0  0  1  0  0  0  0  0  0  0  0  0
   -5.1740  -12.5368   20.2085 O   0  0  0  0  0  0  0  0  0  0  0  0
   -7.1664  -12.3720   19.0742 C   0  0  1  0  0  0  0  0  0  0  0  0
   -8.2808  -12.9539   18.3682 O   0  0  0  0  0  0  0  0  0  0  0  0
   -7.4214  -12.1570   20.5456 C   0  0  1  0  0  0  0  0  0  0  0  0
   -7.8417  -13.3753   21.1523 O   0  0  0  0  0  0  0  0  0  0  0  0
   -6.0574  -11.8031   21.0598 C   0  0  2  0  0  0  0  0  0  0  0  0
   -1.4887  -10.5876   15.5303 O   0  0  0  0  0  0  0  0  0  0  0  0
   -2.7835   -7.6567   21.6638 N   0  0  0  0  0  0  0  0  0  0  0  0
   -2.5203   -8.9791   21.8001 C   0  0  0  0  0  0  0  0  0  0  0  0
   -3.4545   -9.9285   21.6233 N   0  0  0  0  0  0  0  0  0  0  0  0
   -4.7111   -9.6274   21.2774 C   0  0  0  0  0  0  0  0  0  0  0  0
   -5.0506   -8.2244   21.0937 C   0  0  0  0  0  0  0  0  0  0  0  0
   -4.0189   -7.1833   21.3083 C   0  0  0  0  0  0  0  0  0  0  0  0
   -4.2825   -5.8381   21.1544 N   0  0  0  0  0  0  0  0  0  0  0  0
   -6.3184   -8.2062   20.7498 N   0  0  0  0  0  0  0  0  0  0  0  0
   -6.7805   -9.4640   20.7277 C   0  0  0  0  0  0  0  0  0  0  0  0
   -5.8153  -10.3279   21.0398 N   0  0  0  0  0  0  0  0  0  0  0  0
  2  1  1  6  0  0  0
  2  3  1  0  0  0  0
  2  5  1  0  0  0  0
  3  4  1  0  0  0  0
  3 17  1  0  0  0  0
  5  6  1  0  0  0  0
  7  6  1  6  0  0  0
  7  8  1  0  0  0  0
  7  9  1  0  0  0  0
 10  9  1  6  0  0  0
 10 11  1  0  0  0  0
 10 12  1  0  0  0  0
 11 16  1  0  0  0  0
 12 13  1  1  0  0  0
 12 14  1  0  0  0  0
 14 15  1  1  0  0  0
 14 16  1  0  0  0  0
 16 27  1  6  0  0  0
 18 19  2  0  0  0  0
 18 23  1  0  0  0  0
 19 20  1  0  0  0  0
 20 21  2  0  0  0  0
 21 22  1  0  0  0  0
 21 27  1  0  0  0  0
 22 23  2  0  0  0  0
 22 25  1  0  0  0  0
 23 24  1  0  0  0  0
 25 26  2  0  0  0  0
 26 27  1  0  0  0  0
M  END
>  <CHROM.1>
-10.78390320,-148.21195215,-143.11929194,93.10584722,-81.83724105,35.28014082
-55.25736260,-4.50761650,-10.70285631,19.20427677,-1.74516600,-0.74541857
-2.51695789

>  <Name>
ligand

>  <RI>
0

>  <Rbt.Current_Directory>
/home/itssahil/PROJECTS/Mol_Feturizer/Test_systems_manuscript/rnas/4kqy

>  <Rbt.Executable>
rbdock ($Id: //depot/dev/client3/rdock/2013.1/src/exe/rbdock.cxx#4 $)

>  <Rbt.Library>
libRbt.so (2013.1, Build901 2013/11/27)

>  <Rbt.Parameter_File>
/export/apps/rDock/src/rDock_2013.1_src/data/scripts/dock_solv.prm

>  <Rbt.Receptor>
prm/pocket_docking_3.prm

>  <SCORE>
-8.14322

>  <SCORE.INTER>
-10.6379

>  <SCORE.INTER.CONST>
1

>  <SCORE.INTER.POLAR>
0

>  <SCORE.INTER.ROT>
7

>  <SCORE.INTER.SOLV>
18.6078

>  <SCORE.INTER.VDW>
-21.5612

>  <SCORE.INTER.norm>
-0.393994

>  <SCORE.INTRA>
2.39908

>  <SCORE.INTRA.DIHEDRAL>
5.28096

>  <SCORE.INTRA.DIHEDRAL.0>
10.4103

>  <SCORE.INTRA.POLAR>
0

>  <SCORE.INTRA.POLAR.0>
0

>  <SCORE.INTRA.REPUL>
0

>  <SCORE.INTRA.REPUL.0>
0

>  <SCORE.INTRA.SOLV>
-0.3649

>  <SCORE.INTRA.SOLV.lig_0>
-49.5008

>  <SCORE.INTRA.VDW>
-0.0589529

>  <SCORE.INTRA.VDW.0>
-2.6946

>  <SCORE.INTRA.norm>
0.0888547

>  <SCORE.RESTR>
0.0955513

>  <SCORE.RESTR.CAVITY>
0.0955513

>  <SCORE.RESTR.norm>
0.00353894

>  <SCORE.SYSTEM>
0

>  <SCORE.SYSTEM.CONST>
0

>  <SCORE.SYSTEM.DIHEDRAL>
0

>  <SCORE.SYSTEM.SOLV>
0

>  <SCORE.SYSTEM.norm>
0

>  <SCORE.heavy>
27

>  <SCORE.norm>
-0.301601

>  <RMSD>
2.301

$$$$
ligand
 OpenBabel02271912153D
libRbt.so/2013.1/901 2013/11/27
 27 29  0  0  0  0  0  0  0  0999 V2000
   -7.5062  -11.4483   15.7596 N   0  0  0  0  0  0  0  0  0  0  0  0
   -6.3657  -10.6729   16.2093 C   0  0  2  0  0  0  0  0  0  0  0  0
   -6.7466   -9.2272   16.1189 C   0  0  0  0  0  0  0  0  0  0  0  0
   -7.9052   -8.9229   15.7624 O   0  0  0  0  0  0  0  0  0  0  0  0
   -5.1451  -10.9569   15.3298 C   0  0  0  0  0  0  0  0  0  0  0  0
   -4.6180  -12.3935   15.5410 C   0  0  0  0  0  0  0  0  0  0  0  0
   -3.9787  -12.7139   17.0589 S   0  0  2  0  0  0  0  0  0  0  0  0
   -2.8840  -13.9578   16.9445 C   0  0  0  0  0  0  0  0  0  0  0  0
   -5.2223  -13.1094   18.1293 C   0  0  0  0  0  0  0  0  0  0  0  0
   -4.7392  -13.4616   19.5521 C   0  0  1  0  0  0  0  0  0  0  0  0
   -3.5843  -12.7095   19.9602 O   0  0  0  0  0  0  0  0  0  0  0  0
   -5.7431  -13.1126   20.6389 C   0  0  1  0  0  0  0  0  0  0  0  0
   -6.8944  -13.9693   20.7780 O   0  0  0  0  0  0  0  0  0  0  0  0
   -4.8438  -13.0975   21.8502 C   0  0  1  0  0  0  0  0  0  0  0  0
   -4.4638  -14.4266   22.1938 O   0  0  0  0  0  0  0  0  0  0  0  0
   -3.6376  -12.3620   21.3459 C   0  0  2  0  0  0  0  0  0  0  0  0
   -5.9074   -8.3492   16.4323 O   0  0  0  0  0  0  0  0  0  0  0  0
   -6.0965   -7.7129   20.5614 N   0  0  0  0  0  0  0  0  0  0  0  0
   -6.4135   -8.9385   20.0778 C   0  0  0  0  0  0  0  0  0  0  0  0
   -5.6923  -10.0381   20.3537 N   0  0  0  0  0  0  0  0  0  0  0  0
   -4.6169   -9.9966   21.1482 C   0  0  0  0  0  0  0  0  0  0  0  0
   -4.2382   -8.7119   21.7171 C   0  0  0  0  0  0  0  0  0  0  0  0
   -5.0285   -7.5017   21.3931 C   0  0  0  0  0  0  0  0  0  0  0  0
   -4.7152   -6.2567   21.8977 N   0  0  0  0  0  0  0  0  0  0  0  0
   -3.1774   -8.9475   22.4554 N   0  0  0  0  0  0  0  0  0  0  0  0
   -2.8691  -10.2489   22.3699 C   0  0  0  0  0  0  0  0  0  0  0  0
   -3.7362  -10.8899   21.5872 N   0  0  0  0  0  0  0  0  0  0  0  0
  2  1  1  6  0  0  0
  2  3  1  0  0  0  0
  2  5  1  0  0  0  0
  3  4  1  0  0  0  0
  3 17  1  0  0  0  0
  5  6  1  0  0  0  0
  7  6  1  6  0  0  0
  7  8  1  0  0  0  0
  7  9  1  0  0  0  0
 10  9  1  6  0  0  0
 10 11  1  0  0  0  0
 10 12  1  0  0  0  0
 11 16  1  0  0  0  0
 12 13  1  1  0  0  0
 12 14  1  0  0  0  0
 14 15  1  6  0  0  0
 14 16  1  0  0  0  0
 16 27  1  6  0  0  0
 18 19  2  0  0  0  0
 18 23  1  0  0  0  0
 19 20  1  0  0  0  0
 20 21  2  0  0  0  0
 21 22  1  0  0  0  0
 21 27  1  0  0  0  0
 22 23  2  0  0  0  0
 22 25  1  0  0  0  0
 23 24  1  0  0  0  0
 25 26  2  0  0  0  0
 26 27  1  0  0  0  0
M  END
>  <CHROM.1>
3.06070016,-68.86290767,-66.23816878,-154.60042313,178.42062402,34.09593769
55.70041975,-5.02947203,-11.04027870,19.21307628,2.29257187,1.21014194,-2.46545505

>  <Name>
ligand

>  <RI>
0

>  <Rbt.Current_Directory>
/home/itssahil/PROJECTS/Mol_Feturizer/Test_systems_manuscript/rnas/4kqy

>  <Rbt.Executable>
rbdock ($Id: //depot/dev/client3/rdock/2013.1/src/exe/rbdock.cxx#4 $)

>  <Rbt.Library>
libRbt.so (2013.1, Build901 2013/11/27)

>  <Rbt.Parameter_File>
/export/apps/rDock/src/rDock_2013.1_src/data/scripts/dock_solv.prm

>  <Rbt.Receptor>
prm/pocket_docking_7.prm

>  <SCORE>
-15.9561

>  <SCORE.INTER>
-14.3885

>  <SCORE.INTER.CONST>
1

>  <SCORE.INTER.POLAR>
0

>  <SCORE.INTER.ROT>
7

>  <SCORE.INTER.SOLV>
16.1673

>  <SCORE.INTER.VDW>
-23.2481

>  <SCORE.INTER.norm>
-0.532906

>  <SCORE.INTRA>
-1.5676

>  <SCORE.INTRA.DIHEDRAL>
-3.5265

>  <SCORE.INTRA.DIHEDRAL.0>
10.4103

>  <SCORE.INTRA.POLAR>
0

>  <SCORE.INTRA.POLAR.0>
0

>  <SCORE.INTRA.REPUL>
0

>  <SCORE.INTRA.REPUL.0>
0

>  <SCORE.INTRA.SOLV>
1.31822

>  <SCORE.INTRA.SOLV.lig_0>
-49.5008

>  <SCORE.INTRA.VDW>
-0.463467

>  <SCORE.INTRA.VDW.0>
-2.6946

>  <SCORE.INTRA.norm>
-0.0580594

>  <SCORE.RESTR>
0

>  <SCORE.RESTR.CAVITY>
0

>  <SCORE.RESTR.norm>
0

>  <SCORE.SYSTEM>
0

>  <SCORE.SYSTEM.CONST>
0

>  <SCORE.SYSTEM.DIHEDRAL>
0

>  <SCORE.SYSTEM.SOLV>
0

>  <SCORE.SYSTEM.norm>
0

>  <SCORE.heavy>
27

>  <SCORE.norm>
-0.590966

>  <RMSD>
2.309

$$$$
ligand
 OpenBabel02271912153D
libRbt.so/2013.1/901 2013/11/27
 27 29  0  0  0  0  0  0  0  0999 V2000
   -0.4240  -10.5216   17.1871 N   0  0  0  0  0  0  0  0  0  0  0  0
   -0.9726  -11.8500   17.3829 C   0  0  2  0  0  0  0  0  0  0  0  0
   -0.2039  -12.7839   16.4997 C   0  0  0  0  0  0  0  0  0  0  0  0
    0.2015  -13.8701   16.9667 O   0  0  0  0  0  0  0  0  0  0  0  0
   -2.4590  -11.8746   17.0163 C   0  0  0  0  0  0  0  0  0  0  0  0
   -3.0406  -13.3027   17.1087 C   0  0  0  0  0  0  0  0  0  0  0  0
   -4.6985  -13.4250   16.8815 S   0  0  2  0  0  0  0  0  0  0  0  0
   -5.1153  -12.6843   15.4545 C   0  0  0  0  0  0  0  0  0  0  0  0
   -5.5059  -12.7135   18.1817 C   0  0  0  0  0  0  0  0  0  0  0  0
   -4.9447  -13.1100   19.5636 C   0  0  1  0  0  0  0  0  0  0  0  0
   -3.7488  -12.3945   19.9154 O   0  0  0  0  0  0  0  0  0  0  0  0
   -5.8708  -12.7635   20.7182 C   0  0  1  0  0  0  0  0  0  0  0  0
   -7.0319  -13.5965   20.9099 O   0  0  0  0  0  0  0  0  0  0  0  0
   -4.8984  -12.7975   21.8712 C   0  0  1  0  0  0  0  0  0  0  0  0
   -4.5305  -14.1427   22.1612 O   0  0  0  0  0  0  0  0  0  0  0  0
   -3.7080  -12.0784   21.3090 C   0  0  2  0  0  0  0  0  0  0  0  0
   -0.0079  -12.4746   15.3001 O   0  0  0  0  0  0  0  0  0  0  0  0
   -6.0337   -7.3369   20.6879 N   0  0  0  0  0  0  0  0  0  0  0  0
   -6.3984   -8.5396   20.1809 C   0  0  0  0  0  0  0  0  0  0  0  0
   -5.7071   -9.6676   20.4153 N   0  0  0  0  0  0  0  0  0  0  0  0
   -4.6159   -9.6795   21.1890 C   0  0  0  0  0  0  0  0  0  0  0  0
   -4.1860   -8.4219   21.7815 C   0  0  0  0  0  0  0  0  0  0  0  0
   -4.9439   -7.1800   21.5031 C   0  0  0  0  0  0  0  0  0  0  0  0
   -4.5819   -5.9584   22.0317 N   0  0  0  0  0  0  0  0  0  0  0  0
   -3.1192   -8.7088   22.4925 N   0  0  0  0  0  0  0  0  0  0  0  0
   -2.8538  -10.0165   22.3690 C   0  0  0  0  0  0  0  0  0  0  0  0
   -3.7555  -10.6105   21.5882 N   0  0  0  0  0  0  0  0  0  0  0  0
  2  1  1  6  0  0  0
  2  3  1  0  0  0  0
  2  5  1  0  0  0  0
  3  4  1  0  0  0  0
  3 17  1  0  0  0  0
  5  6  1  0  0  0  0
  7  6  1  1  0  0  0
  7  8  1  0  0  0  0
  7  9  1  0  0  0  0
 10  9  1  6  0  0  0
 10 11  1  0  0  0  0
 10 12  1  0  0  0  0
 11 16  1  0  0  0  0
 12 13  1  1  0  0  0
 12 14  1  0  0  0  0
 14 15  1  6  0  0  0
 14 16  1  0  0  0  0
 16 27  1  6  0  0  0
 18 19  2  0  0  0  0
 18 23  1  0  0  0  0
 19 20  1  0  0  0  0
 20 21  2  0  0  0  0
 21 22  1  0  0  0  0
 21 27  1  0  0  0  0
 22 23  2  0  0  0  0
 22 25  1  0  0  0  0
 23 24  1  0  0  0  0
 25 26  2  0  0  0  0
 26 27  1  0  0  0  0
M  END
>  <CHROM.1>
133.95994335,175.48238191,173.96939026,52.99627442,-45.77882636,78.99749913
53.22632135,-3.83948740,-11.40159952,19.39238445,-1.01576822,0.64028131,0.53976644

>  <Name>
ligand

>  <RI>
0

>  <Rbt.Current_Directory>
/home/itssahil/PROJECTS/Mol_Feturizer/Test_systems_manuscript/rnas/4kqy

>  <Rbt.Executable>
rbdock ($Id: //depot/dev/client3/rdock/2013.1/src/exe/rbdock.cxx#4 $)

>  <Rbt.Library>
libRbt.so (2013.1, Build901 2013/11/27)

>  <Rbt.Parameter_File>
/export/apps/rDock/src/rDock_2013.1_src/data/scripts/dock_solv.prm

>  <Rbt.Receptor>
prm/pocket_docking_5.prm

>  <SCORE>
-16.7562

>  <SCORE.INTER>
-13.978

>  <SCORE.INTER.CONST>
1

>  <SCORE.INTER.POLAR>
0

>  <SCORE.INTER.ROT>
7

>  <SCORE.INTER.SOLV>
20.2848

>  <SCORE.INTER.VDW>
-24.3469

>  <SCORE.INTER.norm>
-0.517703

>  <SCORE.INTRA>
-2.77823

>  <SCORE.INTRA.DIHEDRAL>
-5.55161

>  <SCORE.INTRA.DIHEDRAL.0>
10.4103

>  <SCORE.INTRA.POLAR>
0

>  <SCORE.INTRA.POLAR.0>
0

>  <SCORE.INTRA.REPUL>
0

>  <SCORE.INTRA.REPUL.0>
0

>  <SCORE.INTRA.SOLV>
-0.444931

>  <SCORE.INTRA.SOLV.lig_0>
-49.5008

>  <SCORE.INTRA.VDW>
0.220043

>  <SCORE.INTRA.VDW.0>
-2.6946

>  <SCORE.INTRA.norm>
-0.102897

>  <SCORE.RESTR>
0

>  <SCORE.RESTR.CAVITY>
0

>  <SCORE.RESTR.norm>
0

>  <SCORE.SYSTEM>
0

>  <SCORE.SYSTEM.CONST>
0

>  <SCORE.SYSTEM.DIHEDRAL>
0

>  <SCORE.SYSTEM.SOLV>
0

>  <SCORE.SYSTEM.norm>
0

>  <SCORE.heavy>
27

>  <SCORE.norm>
-0.6206

>  <RMSD>
2.410

$$$$
ligand
 OpenBabel02271912153D
libRbt.so/2013.1/901 2013/11/27
 27 29  0  0  0  0  0  0  0  0999 V2000
   -5.3824   -8.6960   16.9306 N   0  0  0  0  0  0  0  0  0  0  0  0
   -4.1579   -9.4735   16.9461 C   0  0  2  0  0  0  0  0  0  0  0  0
   -3.0795   -8.6178   16.3561 C   0  0  0  0  0  0  0  0  0  0  0  0
   -1.8891   -8.8347   16.6691 O   0  0  0  0  0  0  0  0  0  0  0  0
   -4.3274  -10.7553   16.1261 C   0  0  0  0  0  0  0  0  0  0  0  0
   -3.0603  -11.6370   16.1869 C   0  0  0  0  0  0  0  0  0  0  0  0
   -2.4459  -11.9159   17.7231 S   0  0  2  0  0  0  0  0  0  0  0  0
   -0.8112  -11.6218   17.7247 C   0  0  0  0  0  0  0  0  0  0  0  0
   -2.7668  -13.5072   18.1851 C   0  0  0  0  0  0  0  0  0  0  0  0
   -4.1569  -13.7083   18.8246 C   0  0  1  0  0  0  0  0  0  0  0  0
   -4.2334  -13.2259   20.1764 O   0  0  0  0  0  0  0  0  0  0  0  0
   -5.2601  -12.9147   18.1434 C   0  0  1  0  0  0  0  0  0  0  0  0
   -5.7351  -13.3973   16.8706 O   0  0  0  0  0  0  0  0  0  0  0  0
   -6.3099  -12.9163   19.2270 C   0  0  1  0  0  0  0  0  0  0  0  0
   -6.8881  -14.2126   19.3459 O   0  0  0  0  0  0  0  0  0  0  0  0
   -5.5018  -12.6297   20.4579 C   0  0  2  0  0  0  0  0  0  0  0  0
   -3.3863   -7.7203   15.5354 O   0  0  0  0  0  0  0  0  0  0  0  0
   -2.7543   -8.4116   22.1709 N   0  0  0  0  0  0  0  0  0  0  0  0
   -2.3607   -9.7047   22.0740 C   0  0  0  0  0  0  0  0  0  0  0  0
   -3.1697  -10.6795   21.6260 N   0  0  0  0  0  0  0  0  0  0  0  0
   -4.4206  -10.4300   21.2233 C   0  0  0  0  0  0  0  0  0  0  0  0
   -4.8949   -9.0556   21.2821 C   0  0  0  0  0  0  0  0  0  0  0  0
   -4.0022   -7.9902   21.7942 C   0  0  0  0  0  0  0  0  0  0  0  0
   -4.3974   -6.6713   21.8784 N   0  0  0  0  0  0  0  0  0  0  0  0
   -6.1264   -9.0833   20.8254 N   0  0  0  0  0  0  0  0  0  0  0  0
   -6.4462  -10.3472   20.5152 C   0  0  0  0  0  0  0  0  0  0  0  0
   -5.4203  -11.1652   20.7474 N   0  0  0  0  0  0  0  0  0  0  0  0
  2  1  1  6  0  0  0
  2  3  1  0  0  0  0
  2  5  1  0  0  0  0
  3  4  1  0  0  0  0
  3 17  1  0  0  0  0
  5  6  1  0  0  0  0
  7  6  1  6  0  0  0
  7  8  1  0  0  0  0
  7  9  1  0  0  0  0
 10  9  1  6  0  0  0
 10 11  1  0  0  0  0
 10 12  1  0  0  0  0
 11 16  1  0  0  0  0
 12 13  1  6  0  0  0
 12 14  1  0  0  0  0
 14 15  1  1  0  0  0
 14 16  1  0  0  0  0
 16 27  1  6  0  0  0
 18 19  2  0  0  0  0
 18 23  1  0  0  0  0
 19 20  1  0  0  0  0
 20 21  2  0  0  0  0
 21 22  1  0  0  0  0
 21 27  1  0  0  0  0
 22 23  2  0  0  0  0
 22 25  1  0  0  0  0
 23 24  1  0  0  0  0
 25 26  2  0  0  0  0
 26 27  1  0  0  0  0
M  END
>  <CHROM.1>
154.89293247,-177.06124352,49.11955144,-131.42239849,-85.56577195,-75.55275330
-25.80223318,-4.10395224,-10.81445933,18.95292238,-1.48986418,1.09233757
0.78067906

>  <Name>
ligand

>  <RI>
0

>  <Rbt.Current_Directory>
/home/itssahil/PROJECTS/Mol_Feturizer/Test_systems_manuscript/rnas/4kqy

>  <Rbt.Executable>
rbdock ($Id: //depot/dev/client3/rdock/2013.1/src/exe/rbdock.cxx#4 $)

>  <Rbt.Library>
libRbt.so (2013.1, Build901 2013/11/27)

>  <Rbt.Parameter_File>
/export/apps/rDock/src/rDock_2013.1_src/data/scripts/dock_solv.prm

>  <Rbt.Receptor>
prm/pocket_docking_3.prm

>  <SCORE>
-10.1845

>  <SCORE.INTER>
-9.67998

>  <SCORE.INTER.CONST>
1

>  <SCORE.INTER.POLAR>
0

>  <SCORE.INTER.ROT>
7

>  <SCORE.INTER.SOLV>
14.9908

>  <SCORE.INTER.VDW>
-19.7169

>  <SCORE.INTER.norm>
-0.358518

>  <SCORE.INTRA>
-0.504566

>  <SCORE.INTRA.DIHEDRAL>
-0.255759

>  <SCORE.INTRA.DIHEDRAL.0>
10.4103

>  <SCORE.INTRA.POLAR>
0

>  <SCORE.INTRA.POLAR.0>
0

>  <SCORE.INTRA.REPUL>
0

>  <SCORE.INTRA.REPUL.0>
0

>  <SCORE.INTRA.SOLV>
0.475509

>  <SCORE.INTRA.SOLV.lig_0>
-49.5008

>  <SCORE.INTRA.VDW>
-0.614441

>  <SCORE.INTRA.VDW.0>
-2.6946

>  <SCORE.INTRA.norm>
-0.0186876

>  <SCORE.RESTR>
0

>  <SCORE.RESTR.CAVITY>
0

>  <SCORE.RESTR.norm>
0

>  <SCORE.SYSTEM>
0

>  <SCORE.SYSTEM.CONST>
0

>  <SCORE.SYSTEM.DIHEDRAL>
0

>  <SCORE.SYSTEM.SOLV>
0

>  <SCORE.SYSTEM.norm>
0

>  <SCORE.heavy>
27

>  <SCORE.norm>
-0.377205

>  <RMSD>
2.450

$$$$
ligand
 OpenBabel02271912153D
libRbt.so/2013.1/901 2013/11/27
 27 29  0  0  0  0  0  0  0  0999 V2000
    0.7959  -13.9055   14.7089 N   0  0  0  0  0  0  0  0  0  0  0  0
   -0.2073  -13.1273   15.4104 C   0  0  2  0  0  0  0  0  0  0  0  0
    0.2105  -11.6910   15.3353 C   0  0  0  0  0  0  0  0  0  0  0  0
   -0.6269  -10.7982   15.5880 O   0  0  0  0  0  0  0  0  0  0  0  0
   -0.3078  -13.5758   16.8708 C   0  0  0  0  0  0  0  0  0  0  0  0
   -1.5696  -13.0019   17.5529 C   0  0  0  0  0  0  0  0  0  0  0  0
   -3.0105  -13.7748   17.1764 S   0  0  2  0  0  0  0  0  0  0  0  0
   -3.3095  -13.6213   15.5498 C   0  0  0  0  0  0  0  0  0  0  0  0
   -4.2690  -13.1062   18.0806 C   0  0  0  0  0  0  0  0  0  0  0  0
   -4.1853  -13.4054   19.5923 C   0  0  1  0  0  0  0  0  0  0  0  0
   -3.1321  -12.6855   20.2544 O   0  0  0  0  0  0  0  0  0  0  0  0
   -5.4118  -12.9561   20.3699 C   0  0  1  0  0  0  0  0  0  0  0  0
   -6.6069  -13.7523   20.2412 O   0  0  0  0  0  0  0  0  0  0  0  0
   -4.8516  -12.9184   21.7703 C   0  0  1  0  0  0  0  0  0  0  0  0
   -4.6474  -14.2436   22.2512 O   0  0  0  0  0  0  0  0  0  0  0  0
   -3.5172  -12.2647   21.5652 C   0  0  2  0  0  0  0  0  0  0  0  0
    1.3996  -11.4102   15.0514 O   0  0  0  0  0  0  0  0  0  0  0  0
   -6.1028   -7.6759   20.8343 N   0  0  0  0  0  0  0  0  0  0  0  0
   -6.4780   -8.9315   20.4892 C   0  0  0  0  0  0  0  0  0  0  0  0
   -5.7150  -10.0108   20.7305 N   0  0  0  0  0  0  0  0  0  0  0  0
   -4.5341   -9.9165   21.3518 C   0  0  0  0  0  0  0  0  0  0  0  0
   -4.0857   -8.5962   21.7678 C   0  0  0  0  0  0  0  0  0  0  0  0
   -4.9251   -7.4097   21.4817 C   0  0  0  0  0  0  0  0  0  0  0  0
   -4.5505   -6.1333   21.8467 N   0  0  0  0  0  0  0  0  0  0  0  0
   -2.9253   -8.7822   22.3550 N   0  0  0  0  0  0  0  0  0  0  0  0
   -2.6225  -10.0871   22.3151 C   0  0  0  0  0  0  0  0  0  0  0  0
   -3.5909  -10.7791   21.7160 N   0  0  0  0  0  0  0  0  0  0  0  0
  2  1  1  6  0  0  0
  2  3  1  0  0  0  0
  2  5  1  0  0  0  0
  3  4  1  0  0  0  0
  3 17  1  0  0  0  0
  5  6  1  0  0  0  0
  7  6  1  6  0  0  0
  7  8  1  0  0  0  0
  7  9  1  0  0  0  0
 10  9  1  6  0  0  0
 10 11  1  0  0  0  0
 10 12  1  0  0  0  0
 11 16  1  0  0  0  0
 12 13  1  1  0  0  0
 12 14  1  0  0  0  0
 14 15  1  6  0  0  0
 14 16  1  0  0  0  0
 16 27  1  6  0  0  0
 18 19  2  0  0  0  0
 18 23  1  0  0  0  0
 19 20  1  0  0  0  0
 20 21  2  0  0  0  0
 21 22  1  0  0  0  0
 21 27  1  0  0  0  0
 22 23  2  0  0  0  0
 22 25  1  0  0  0  0
 23 24  1  0  0  0  0
 25 26  2  0  0  0  0
 26 27  1  0  0  0  0
M  END
>  <CHROM.1>
163.55146725,-167.04554196,77.58053766,-62.41672641,-68.51833397,71.82757588
79.32663342,-3.24240088,-11.61406277,19.17617975,-0.68908344,0.80083244,0.32924531

>  <Name>
ligand

>  <RI>
0

>  <Rbt.Current_Directory>
/home/itssahil/PROJECTS/Mol_Feturizer/Test_systems_manuscript/rnas/4kqy

>  <Rbt.Executable>
rbdock ($Id: //depot/dev/client3/rdock/2013.1/src/exe/rbdock.cxx#4 $)

>  <Rbt.Library>
libRbt.so (2013.1, Build901 2013/11/27)

>  <Rbt.Parameter_File>
/export/apps/rDock/src/rDock_2013.1_src/data/scripts/dock_solv.prm

>  <Rbt.Receptor>
prm/pocket_docking_6.prm

>  <SCORE>
-19.7658

>  <SCORE.INTER>
-17.4255

>  <SCORE.INTER.CONST>
1

>  <SCORE.INTER.POLAR>
0

>  <SCORE.INTER.ROT>
7

>  <SCORE.INTER.SOLV>
18.726

>  <SCORE.INTER.VDW>
-26.1256

>  <SCORE.INTER.norm>
-0.645388

>  <SCORE.INTRA>
-2.34032

>  <SCORE.INTRA.DIHEDRAL>
-5.19704

>  <SCORE.INTRA.DIHEDRAL.0>
10.4103

>  <SCORE.INTRA.POLAR>
0

>  <SCORE.INTRA.POLAR.0>
0

>  <SCORE.INTRA.REPUL>
0

>  <SCORE.INTRA.REPUL.0>
0

>  <SCORE.INTRA.SOLV>
-0.0232775

>  <SCORE.INTRA.SOLV.lig_0>
-49.5008

>  <SCORE.INTRA.VDW>
0.269839

>  <SCORE.INTRA.VDW.0>
-2.6946

>  <SCORE.INTRA.norm>
-0.0866785

>  <SCORE.RESTR>
0

>  <SCORE.RESTR.CAVITY>
0

>  <SCORE.RESTR.norm>
0

>  <SCORE.SYSTEM>
0

>  <SCORE.SYSTEM.CONST>
0

>  <SCORE.SYSTEM.DIHEDRAL>
0

>  <SCORE.SYSTEM.SOLV>
0

>  <SCORE.SYSTEM.norm>
0

>  <SCORE.heavy>
27

>  <SCORE.norm>
-0.732066

>  <RMSD>
2.455

$$$$
ligand
 OpenBabel02271912153D
libRbt.so/2013.1/901 2013/11/27
 27 29  0  0  0  0  0  0  0  0999 V2000
   -2.2670   -7.7923   14.8171 N   0  0  0  0  0  0  0  0  0  0  0  0
   -3.0740   -8.8193   15.4481 C   0  0  2  0  0  0  0  0  0  0  0  0
   -4.2781   -8.1449   16.0297 C   0  0  0  0  0  0  0  0  0  0  0  0
   -5.4018   -8.3640   15.5282 O   0  0  0  0  0  0  0  0  0  0  0  0
   -2.2771   -9.5255   16.5483 C   0  0  0  0  0  0  0  0  0  0  0  0
   -2.9120  -10.8828   16.9238 C   0  0  0  0  0  0  0  0  0  0  0  0
   -1.9952  -11.8544   17.9389 S   0  0  2  0  0  0  0  0  0  0  0  0
   -0.3934  -11.7372   17.5153 C   0  0  0  0  0  0  0  0  0  0  0  0
   -2.5260  -13.4528   17.8307 C   0  0  0  0  0  0  0  0  0  0  0  0
   -3.8925  -13.7085   18.5010 C   0  0  1  0  0  0  0  0  0  0  0  0
   -3.9760  -13.1810   19.8354 O   0  0  0  0  0  0  0  0  0  0  0  0
   -5.0496  -13.0048   17.8106 C   0  0  1  0  0  0  0  0  0  0  0  0
   -5.5155  -13.5608   16.5646 O   0  0  0  0  0  0  0  0  0  0  0  0
   -6.0810  -13.0254   18.9115 C   0  0  1  0  0  0  0  0  0  0  0  0
   -6.5820  -14.3471   19.0876 O   0  0  0  0  0  0  0  0  0  0  0  0
   -5.2721  -12.6476   20.1169 C   0  0  2  0  0  0  0  0  0  0  0  0
   -4.1426   -7.3978   17.0281 O   0  0  0  0  0  0  0  0  0  0  0  0
   -3.4624   -8.3967   22.7496 N   0  0  0  0  0  0  0  0  0  0  0  0
   -3.1278   -9.7011   22.9016 C   0  0  0  0  0  0  0  0  0  0  0  0
   -3.6750  -10.6829   22.1654 N   0  0  0  0  0  0  0  0  0  0  0  0
   -4.5785  -10.4308   21.2117 C   0  0  0  0  0  0  0  0  0  0  0  0
   -4.9629   -9.0458   20.9849 C   0  0  0  0  0  0  0  0  0  0  0  0
   -4.3678   -7.9718   21.8134 C   0  0  0  0  0  0  0  0  0  0  0  0
   -4.6967   -6.6423   21.6485 N   0  0  0  0  0  0  0  0  0  0  0  0
   -5.8364   -9.0740   20.0040 N   0  0  0  0  0  0  0  0  0  0  0  0
   -6.0297  -10.3466   19.6311 C   0  0  0  0  0  0  0  0  0  0  0  0
   -5.2703  -11.1711   20.3515 N   0  0  0  0  0  0  0  0  0  0  0  0
  2  1  1  1  0  0  0
  2  3  1  0  0  0  0
  2  5  1  0  0  0  0
  3  4  1  0  0  0  0
  3 17  1  0  0  0  0
  5  6  1  0  0  0  0
  7  6  1  6  0  0  0
  7  8  1  0  0  0  0
  7  9  1  0  0  0  0
 10  9  1  6  0  0  0
 10 11  1  0  0  0  0
 10 12  1  0  0  0  0
 11 16  1  0  0  0  0
 12 13  1  6  0  0  0
 12 14  1  0  0  0  0
 14 15  1  1  0  0  0
 14 16  1  0  0  0  0
 16 27  1  6  0  0  0
 18 19  2  0  0  0  0
 18 23  1  0  0  0  0
 19 20  1  0  0  0  0
 20 21  2  0  0  0  0
 21 22  1  0  0  0  0
 21 27  1  0  0  0  0
 22 23  2  0  0  0  0
 22 25  1  0  0  0  0
 23 24  1  0  0  0  0
 25 26  2  0  0  0  0
 26 27  1  0  0  0  0
M  END
>  <CHROM.1>
111.44365623,-161.85325971,170.63093109,-38.78751092,-72.20029161,-49.11951030
-55.23964279,-4.03135711,-10.65439220,18.76673453,-0.64561116,1.27847675
0.41765361

>  <Name>
ligand

>  <RI>
0

>  <Rbt.Current_Directory>
/home/itssahil/PROJECTS/Mol_Feturizer/Test_systems_manuscript/rnas/4kqy

>  <Rbt.Executable>
rbdock ($Id: //depot/dev/client3/rdock/2013.1/src/exe/rbdock.cxx#4 $)

>  <Rbt.Library>
libRbt.so (2013.1, Build901 2013/11/27)

>  <Rbt.Parameter_File>
/export/apps/rDock/src/rDock_2013.1_src/data/scripts/dock_solv.prm

>  <Rbt.Receptor>
prm/pocket_docking_2.prm

>  <SCORE>
-10.8271

>  <SCORE.INTER>
-9.69798

>  <SCORE.INTER.CONST>
1

>  <SCORE.INTER.POLAR>
0

>  <SCORE.INTER.ROT>
7

>  <SCORE.INTER.SOLV>
21.2113

>  <SCORE.INTER.VDW>
-21.8024

>  <SCORE.INTER.norm>
-0.359184

>  <SCORE.INTRA>
-1.1379

>  <SCORE.INTRA.DIHEDRAL>
-3.9416

>  <SCORE.INTRA.DIHEDRAL.0>
10.4103

>  <SCORE.INTRA.POLAR>
0

>  <SCORE.INTRA.POLAR.0>
0

>  <SCORE.INTRA.REPUL>
0

>  <SCORE.INTRA.REPUL.0>
0

>  <SCORE.INTRA.SOLV>
-0.330074

>  <SCORE.INTRA.SOLV.lig_0>
-49.5008

>  <SCORE.INTRA.VDW>
0.997931

>  <SCORE.INTRA.VDW.0>
-2.6946

>  <SCORE.INTRA.norm>
-0.0421446

>  <SCORE.RESTR>
0.00876576

>  <SCORE.RESTR.CAVITY>
0.00876576

>  <SCORE.RESTR.norm>
0.000324658

>  <SCORE.SYSTEM>
0

>  <SCORE.SYSTEM.CONST>
0

>  <SCORE.SYSTEM.DIHEDRAL>
0

>  <SCORE.SYSTEM.SOLV>
0

>  <SCORE.SYSTEM.norm>
0

>  <SCORE.heavy>
27

>  <SCORE.norm>
-0.401004

>  <RMSD>
2.470

$$$$
ligand
 OpenBabel02271912153D
libRbt.so/2013.1/901 2013/11/27
 27 29  0  0  0  0  0  0  0  0999 V2000
   -4.1431  -11.3517   13.6147 N   0  0  0  0  0  0  0  0  0  0  0  0
   -3.6036  -10.9889   14.9115 C   0  0  2  0  0  0  0  0  0  0  0  0
   -3.0039   -9.6230   14.7780 C   0  0  0  0  0  0  0  0  0  0  0  0
   -3.3398   -8.7281   15.5833 O   0  0  0  0  0  0  0  0  0  0  0  0
   -2.5373  -11.9970   15.3485 C   0  0  0  0  0  0  0  0  0  0  0  0
   -1.9383  -11.6259   16.7233 C   0  0  0  0  0  0  0  0  0  0  0  0
   -2.9989  -11.7084   18.0208 S   0  0  2  0  0  0  0  0  0  0  0  0
   -2.4326  -10.7545   19.2570 C   0  0  0  0  0  0  0  0  0  0  0  0
   -3.1568  -13.3106   18.5271 C   0  0  0  0  0  0  0  0  0  0  0  0
   -4.2368  -13.5250   19.6085 C   0  0  1  0  0  0  0  0  0  0  0  0
   -4.0687  -12.6725   20.7534 O   0  0  0  0  0  0  0  0  0  0  0  0
   -5.6391  -13.1617   19.1478 C   0  0  1  0  0  0  0  0  0  0  0  0
   -6.3012  -14.0778   18.2527 O   0  0  0  0  0  0  0  0  0  0  0  0
   -6.3328  -12.9995   20.4777 C   0  0  1  0  0  0  0  0  0  0  0  0
   -6.5261  -14.2725   21.0869 O   0  0  0  0  0  0  0  0  0  0  0  0
   -5.3232  -12.2276   21.2747 C   0  0  2  0  0  0  0  0  0  0  0  0
   -2.1529   -9.4097   13.8816 O   0  0  0  0  0  0  0  0  0  0  0  0
   -3.5067   -7.2620   21.8396 N   0  0  0  0  0  0  0  0  0  0  0  0
   -2.8818   -8.4350   22.1049 C   0  0  0  0  0  0  0  0  0  0  0  0
   -3.4686   -9.6295   21.9205 N   0  0  0  0  0  0  0  0  0  0  0  0
   -4.7116   -9.7391   21.4387 C   0  0  0  0  0  0  0  0  0  0  0  0
   -5.4275   -8.5148   21.1130 C   0  0  0  0  0  0  0  0  0  0  0  0
   -4.7794   -7.2017   21.3363 C   0  0  0  0  0  0  0  0  0  0  0  0
   -5.4095   -6.0080   21.0517 N   0  0  0  0  0  0  0  0  0  0  0  0
   -6.5979   -8.8971   20.6547 N   0  0  0  0  0  0  0  0  0  0  0  0
   -6.6628  -10.2351   20.6917 C   0  0  0  0  0  0  0  0  0  0  0  0
   -5.5265  -10.7510   21.1585 N   0  0  0  0  0  0  0  0  0  0  0  0
  2  1  1  6  0  0  0
  2  3  1  0  0  0  0
  2  5  1  0  0  0  0
  3  4  1  0  0  0  0
  3 17  1  0  0  0  0
  5  6  1  0  0  0  0
  7  6  1  6  0  0  0
  7  8  1  0  0  0  0
  7  9  1  0  0  0  0
 10  9  1  6  0  0  0
 10 11  1  0  0  0  0
 10 12  1  0  0  0  0
 11 16  1  0  0  0  0
 12 13  1  6  0  0  0
 12 14  1  0  0  0  0
 14 15  1  1  0  0  0
 14 16  1  0  0  0  0
 16 27  1  6  0  0  0
 18 19  2  0  0  0  0
 18 23  1  0  0  0  0
 19 20  1  0  0  0  0
 20 21  2  0  0  0  0
 21 22  1  0  0  0  0
 21 27  1  0  0  0  0
 22 23  2  0  0  0  0
 22 25  1  0  0  0  0
 23 24  1  0  0  0  0
 25 26  2  0  0  0  0
 26 27  1  0  0  0  0
M  END
>  <CHROM.1>
127.73297699,179.53609308,65.74365994,-158.04800657,-173.15441933,-53.80885326
-45.87798593,-4.24324657,-10.81302289,18.94393533,-0.70910021,1.14932995
0.54478661

>  <Name>
ligand

>  <RI>
0

>  <Rbt.Current_Directory>
/home/itssahil/PROJECTS/Mol_Feturizer/Test_systems_manuscript/rnas/4kqy

>  <Rbt.Executable>
rbdock ($Id: //depot/dev/client3/rdock/2013.1/src/exe/rbdock.cxx#4 $)

>  <Rbt.Library>
libRbt.so (2013.1, Build901 2013/11/27)

>  <Rbt.Parameter_File>
/export/apps/rDock/src/rDock_2013.1_src/data/scripts/dock_solv.prm

>  <Rbt.Receptor>
prm/pocket_docking_4.prm

>  <SCORE>
-13.2486

>  <SCORE.INTER>
-10.1364

>  <SCORE.INTER.CONST>
1

>  <SCORE.INTER.POLAR>
0

>  <SCORE.INTER.ROT>
7

>  <SCORE.INTER.SOLV>
16.5607

>  <SCORE.INTER.VDW>
-20.5445

>  <SCORE.INTER.norm>
-0.375423

>  <SCORE.INTRA>
-3.1122

>  <SCORE.INTRA.DIHEDRAL>
-5.98702

>  <SCORE.INTRA.DIHEDRAL.0>
10.4103

>  <SCORE.INTRA.POLAR>
0

>  <SCORE.INTRA.POLAR.0>
0

>  <SCORE.INTRA.REPUL>
0

>  <SCORE.INTRA.REPUL.0>
0

>  <SCORE.INTRA.SOLV>
-0.321172

>  <SCORE.INTRA.SOLV.lig_0>
-49.5008

>  <SCORE.INTRA.VDW>
0.0418998

>  <SCORE.INTRA.VDW.0>
-2.6946

>  <SCORE.INTRA.norm>
-0.115267

>  <SCORE.RESTR>
0

>  <SCORE.RESTR.CAVITY>
0

>  <SCORE.RESTR.norm>
0

>  <SCORE.SYSTEM>
0

>  <SCORE.SYSTEM.CONST>
0

>  <SCORE.SYSTEM.DIHEDRAL>
0

>  <SCORE.SYSTEM.SOLV>
0

>  <SCORE.SYSTEM.norm>
0

>  <SCORE.heavy>
27

>  <SCORE.norm>
-0.49069

>  <RMSD>
2.524

$$$$
ligand
 OpenBabel02271912153D
libRbt.so/2013.1/901 2013/11/27
 27 29  0  0  0  0  0  0  0  0999 V2000
   -4.6156   -9.1888   15.4466 N   0  0  0  0  0  0  0  0  0  0  0  0
   -3.4302   -9.5013   16.2221 C   0  0  2  0  0  0  0  0  0  0  0  0
   -2.4578   -8.3803   16.0204 C   0  0  0  0  0  0  0  0  0  0  0  0
   -2.0334   -7.7544   17.0156 O   0  0  0  0  0  0  0  0  0  0  0  0
   -2.8191  -10.8253   15.7555 C   0  0  0  0  0  0  0  0  0  0  0  0
   -3.7850  -12.0078   15.9906 C   0  0  0  0  0  0  0  0  0  0  0  0
   -4.2942  -12.2222   17.5749 S   0  0  2  0  0  0  0  0  0  0  0  0
   -3.0079  -12.7090   18.5061 C   0  0  0  0  0  0  0  0  0  0  0  0
   -5.5344  -13.3658   17.6252 C   0  0  0  0  0  0  0  0  0  0  0  0
   -6.3176  -13.3863   18.9548 C   0  0  1  0  0  0  0  0  0  0  0  0
   -5.5725  -12.8464   20.0591 O   0  0  0  0  0  0  0  0  0  0  0  0
   -7.5539  -12.5018   18.9460 C   0  0  1  0  0  0  0  0  0  0  0  0
   -8.7043  -12.9774   18.2186 O   0  0  0  0  0  0  0  0  0  0  0  0
   -7.7909  -12.3447   20.4277 C   0  0  1  0  0  0  0  0  0  0  0  0
   -8.2848  -13.5632   20.9758 O   0  0  0  0  0  0  0  0  0  0  0  0
   -6.4061  -12.1024   20.9508 C   0  0  2  0  0  0  0  0  0  0  0  0
   -2.0625   -8.1099   14.8612 O   0  0  0  0  0  0  0  0  0  0  0  0
   -3.0660   -8.1783   22.2628 N   0  0  0  0  0  0  0  0  0  0  0  0
   -2.9196   -9.5153   22.4291 C   0  0  0  0  0  0  0  0  0  0  0  0
   -3.8570  -10.4018   22.0539 N   0  0  0  0  0  0  0  0  0  0  0  0
   -4.9967  -10.0191   21.4673 C   0  0  0  0  0  0  0  0  0  0  0  0
   -5.2031   -8.5966   21.2407 C   0  0  0  0  0  0  0  0  0  0  0  0
   -4.1722   -7.6251   21.6738 C   0  0  0  0  0  0  0  0  0  0  0  0
   -4.3141   -6.2653   21.4907 N   0  0  0  0  0  0  0  0  0  0  0  0
   -6.3720   -8.4955   20.6496 N   0  0  0  0  0  0  0  0  0  0  0  0
   -6.8985   -9.7206   20.5160 C   0  0  0  0  0  0  0  0  0  0  0  0
   -6.0723  -10.6460   21.0023 N   0  0  0  0  0  0  0  0  0  0  0  0
  2  1  1  6  0  0  0
  2  3  1  0  0  0  0
  2  5  1  0  0  0  0
  3  4  1  0  0  0  0
  3 17  1  0  0  0  0
  5  6  1  0  0  0  0
  7  6  1  6  0  0  0
  7  8  1  0  0  0  0
  7  9  1  0  0  0  0
 10  9  1  6  0  0  0
 10 11  1  0  0  0  0
 10 12  1  0  0  0  0
 11 16  1  0  0  0  0
 12 13  1  6  0  0  0
 12 14  1  0  0  0  0
 14 15  1  1  0  0  0
 14 16  1  0  0  0  0
 16 27  1  6  0  0  0
 18 19  2  0  0  0  0
 18 23  1  0  0  0  0
 19 20  1  0  0  0  0
 20 21  2  0  0  0  0
 21 22  1  0  0  0  0
 21 27  1  0  0  0  0
 22 23  2  0  0  0  0
 22 25  1  0  0  0  0
 23 24  1  0  0  0  0
 25 26  2  0  0  0  0
 26 27  1  0  0  0  0
M  END
>  <CHROM.1>
122.69681286,-63.23647332,-57.08923892,-68.08320251,-165.34805575,-22.93023842
-67.33395824,-4.88293101,-10.61898713,19.05509623,0.23986941,-0.85574083
-2.11881816

>  <Name>
ligand

>  <RI>
0

>  <Rbt.Current_Directory>
/home/itssahil/PROJECTS/Mol_Feturizer/Test_systems_manuscript/rnas/4kqy

>  <Rbt.Executable>
rbdock ($Id: //depot/dev/client3/rdock/2013.1/src/exe/rbdock.cxx#4 $)

>  <Rbt.Library>
libRbt.so (2013.1, Build901 2013/11/27)

>  <Rbt.Parameter_File>
/export/apps/rDock/src/rDock_2013.1_src/data/scripts/dock_solv.prm

>  <Rbt.Receptor>
prm/pocket_docking_4.prm

>  <SCORE>
-12.6053

>  <SCORE.INTER>
-12.4929

>  <SCORE.INTER.CONST>
1

>  <SCORE.INTER.POLAR>
0

>  <SCORE.INTER.ROT>
7

>  <SCORE.INTER.SOLV>
17.7617

>  <SCORE.INTER.VDW>
-22.5158

>  <SCORE.INTER.norm>
-0.462699

>  <SCORE.INTRA>
-0.11238

>  <SCORE.INTRA.DIHEDRAL>
-3.21394

>  <SCORE.INTRA.DIHEDRAL.0>
10.4103

>  <SCORE.INTRA.POLAR>
0

>  <SCORE.INTRA.POLAR.0>
0

>  <SCORE.INTRA.REPUL>
0

>  <SCORE.INTRA.REPUL.0>
0

>  <SCORE.INTRA.SOLV>
0.860343

>  <SCORE.INTRA.SOLV.lig_0>
-49.5008

>  <SCORE.INTRA.VDW>
1.06442

>  <SCORE.INTRA.VDW.0>
-2.6946

>  <SCORE.INTRA.norm>
-0.00416222

>  <SCORE.RESTR>
0

>  <SCORE.RESTR.CAVITY>
0

>  <SCORE.RESTR.norm>
0

>  <SCORE.SYSTEM>
0

>  <SCORE.SYSTEM.CONST>
0

>  <SCORE.SYSTEM.DIHEDRAL>
0

>  <SCORE.SYSTEM.SOLV>
0

>  <SCORE.SYSTEM.norm>
0

>  <SCORE.heavy>
27

>  <SCORE.norm>
-0.466861

>  <RMSD>
2.580

$$$$
ligand
 OpenBabel02271912153D
libRbt.so/2013.1/901 2013/11/27
 27 29  0  0  0  0  0  0  0  0999 V2000
   -6.1780  -12.3977   15.2612 N   0  0  0  0  0  0  0  0  0  0  0  0
   -5.5129  -11.3445   16.0046 C   0  0  2  0  0  0  0  0  0  0  0  0
   -6.3173  -10.0944   15.8222 C   0  0  0  0  0  0  0  0  0  0  0  0
   -7.4449  -10.1671   15.2880 O   0  0  0  0  0  0  0  0  0  0  0  0
   -4.0877  -11.1400   15.4841 C   0  0  0  0  0  0  0  0  0  0  0  0
   -3.2124  -12.3896   15.7270 C   0  0  0  0  0  0  0  0  0  0  0  0
   -2.9043  -12.7559   17.3351 S   0  0  2  0  0  0  0  0  0  0  0  0
   -1.6635  -13.8566   17.4217 C   0  0  0  0  0  0  0  0  0  0  0  0
   -4.3001  -13.3714   18.0571 C   0  0  0  0  0  0  0  0  0  0  0  0
   -4.2796  -13.3329   19.5998 C   0  0  1  0  0  0  0  0  0  0  0  0
   -3.6527  -12.1524   20.1284 O   0  0  0  0  0  0  0  0  0  0  0  0
   -5.6635  -13.2618   20.2248 C   0  0  1  0  0  0  0  0  0  0  0  0
   -6.4521  -14.4689   20.2287 O   0  0  0  0  0  0  0  0  0  0  0  0
   -5.3179  -12.7542   21.6028 C   0  0  1  0  0  0  0  0  0  0  0  0
   -4.6880  -13.7837   22.3595 O   0  0  0  0  0  0  0  0  0  0  0  0
   -4.3107  -11.6826   21.3073 C   0  0  2  0  0  0  0  0  0  0  0  0
   -5.8597   -9.0025   16.2365 O   0  0  0  0  0  0  0  0  0  0  0  0
   -4.0097   -6.3756   21.4508 N   0  0  0  0  0  0  0  0  0  0  0  0
   -3.0471   -7.2926   21.7134 C   0  0  0  0  0  0  0  0  0  0  0  0
   -3.2657   -8.6165   21.6449 N   0  0  0  0  0  0  0  0  0  0  0  0
   -4.4534   -9.1189   21.2891 C   0  0  0  0  0  0  0  0  0  0  0  0
   -5.5225   -8.1839   20.9726 C   0  0  0  0  0  0  0  0  0  0  0  0
   -5.2776   -6.7261   21.0682 C   0  0  0  0  0  0  0  0  0  0  0  0
   -6.2529   -5.7923   20.7860 N   0  0  0  0  0  0  0  0  0  0  0  0
   -6.5584   -8.9234   20.6470 N   0  0  0  0  0  0  0  0  0  0  0  0
   -6.2209  -10.2157   20.7561 C   0  0  0  0  0  0  0  0  0  0  0  0
   -4.9506  -10.3421   21.1380 N   0  0  0  0  0  0  0  0  0  0  0  0
  2  1  1  6  0  0  0
  2  3  1  0  0  0  0
  2  5  1  0  0  0  0
  3  4  1  0  0  0  0
  3 17  1  0  0  0  0
  5  6  1  0  0  0  0
  7  6  1  6  0  0  0
  7  8  1  0  0  0  0
  7  9  1  0  0  0  0
 10  9  1  6  0  0  0
 10 11  1  0  0  0  0
 10 12  1  0  0  0  0
 11 16  1  0  0  0  0
 12 13  1  1  0  0  0
 12 14  1  0  0  0  0
 14 15  1  1  0  0  0
 14 16  1  0  0  0  0
 16 27  1  6  0  0  0
 18 19  2  0  0  0  0
 18 23  1  0  0  0  0
 19 20  1  0  0  0  0
 20 21  2  0  0  0  0
 21 22  1  0  0  0  0
 21 27  1  0  0  0  0
 22 23  2  0  0  0  0
 22 25  1  0  0  0  0
 23 24  1  0  0  0  0
 25 26  2  0  0  0  0
 26 27  1  0  0  0  0
M  END
>  <CHROM.1>
10.24946992,-64.53796890,-65.97513051,-165.61364257,-161.99198011,37.77237682
-87.05492578,-4.77640963,-10.89951959,19.10134189,1.24682064,1.31073714,-2.08243109

>  <Name>
ligand

>  <RI>
0

>  <Rbt.Current_Directory>
/home/itssahil/PROJECTS/Mol_Feturizer/Test_systems_manuscript/rnas/4kqy

>  <Rbt.Executable>
rbdock ($Id: //depot/dev/client3/rdock/2013.1/src/exe/rbdock.cxx#4 $)

>  <Rbt.Library>
libRbt.so (2013.1, Build901 2013/11/27)

>  <Rbt.Parameter_File>
/export/apps/rDock/src/rDock_2013.1_src/data/scripts/dock_solv.prm

>  <Rbt.Receptor>
prm/pocket_docking_6.prm

>  <SCORE>
-11.3761

>  <SCORE.INTER>
-11.0373

>  <SCORE.INTER.CONST>
1

>  <SCORE.INTER.POLAR>
0

>  <SCORE.INTER.ROT>
7

>  <SCORE.INTER.SOLV>
21.2243

>  <SCORE.INTER.VDW>
-22.6996

>  <SCORE.INTER.norm>
-0.408788

>  <SCORE.INTRA>
-0.338798

>  <SCORE.INTRA.DIHEDRAL>
-4.49746

>  <SCORE.INTRA.DIHEDRAL.0>
10.4103

>  <SCORE.INTRA.POLAR>
0

>  <SCORE.INTRA.POLAR.0>
0

>  <SCORE.INTRA.REPUL>
0

>  <SCORE.INTRA.REPUL.0>
0

>  <SCORE.INTRA.SOLV>
1.47582

>  <SCORE.INTRA.SOLV.lig_0>
-49.5008

>  <SCORE.INTRA.VDW>
1.17202

>  <SCORE.INTRA.VDW.0>
-2.6946

>  <SCORE.INTRA.norm>
-0.0125481

>  <SCORE.RESTR>
0

>  <SCORE.RESTR.CAVITY>
0

>  <SCORE.RESTR.norm>
0

>  <SCORE.SYSTEM>
0

>  <SCORE.SYSTEM.CONST>
0

>  <SCORE.SYSTEM.DIHEDRAL>
0

>  <SCORE.SYSTEM.SOLV>
0

>  <SCORE.SYSTEM.norm>
0

>  <SCORE.heavy>
27

>  <SCORE.norm>
-0.421336

>  <RMSD>
2.656

$$$$
ligand
 OpenBabel02271912153D
libRbt.so/2013.1/901 2013/11/27
 27 29  0  0  0  0  0  0  0  0999 V2000
   -1.4701  -11.3720   13.5207 N   0  0  0  0  0  0  0  0  0  0  0  0
   -1.5942  -10.9206   14.8937 C   0  0  2  0  0  0  0  0  0  0  0  0
   -1.3125   -9.4497   14.9061 C   0  0  0  0  0  0  0  0  0  0  0  0
   -0.6024   -8.9571   14.0032 O   0  0  0  0  0  0  0  0  0  0  0  0
   -0.5989  -11.6599   15.7921 C   0  0  0  0  0  0  0  0  0  0  0  0
   -0.7238  -11.2094   17.2646 C   0  0  0  0  0  0  0  0  0  0  0  0
   -2.2371  -11.4171   17.9589 S   0  0  2  0  0  0  0  0  0  0  0  0
   -2.3266  -10.5307   19.3607 C   0  0  0  0  0  0  0  0  0  0  0  0
   -2.5017  -13.0547   18.2699 C   0  0  0  0  0  0  0  0  0  0  0  0
   -3.8995  -13.3680   18.8443 C   0  0  1  0  0  0  0  0  0  0  0  0
   -4.1121  -12.8110   20.1521 O   0  0  0  0  0  0  0  0  0  0  0  0
   -5.0368  -12.7479   18.0486 C   0  0  1  0  0  0  0  0  0  0  0  0
   -5.3764  -13.3616   16.7889 O   0  0  0  0  0  0  0  0  0  0  0  0
   -6.1462  -12.7967   19.0699 C   0  0  1  0  0  0  0  0  0  0  0  0
   -6.5880  -14.1391   19.2483 O   0  0  0  0  0  0  0  0  0  0  0  0
   -5.4524  -12.3430   20.3201 C   0  0  2  0  0  0  0  0  0  0  0  0
   -1.8191   -8.7339   15.8028 O   0  0  0  0  0  0  0  0  0  0  0  0
   -3.6108   -7.8386   22.4636 N   0  0  0  0  0  0  0  0  0  0  0  0
   -3.1341   -9.1010   22.5891 C   0  0  0  0  0  0  0  0  0  0  0  0
   -3.7088  -10.1582   21.9914 N   0  0  0  0  0  0  0  0  0  0  0  0
   -4.7864  -10.0281   21.2094 C   0  0  0  0  0  0  0  0  0  0  0  0
   -5.3325   -8.6931   21.0170 C   0  0  0  0  0  0  0  0  0  0  0  0
   -4.7032   -7.5358   21.6943 C   0  0  0  0  0  0  0  0  0  0  0  0
   -5.1789   -6.2486   21.5543 N   0  0  0  0  0  0  0  0  0  0  0  0
   -6.3593   -8.8405   20.2108 N   0  0  0  0  0  0  0  0  0  0  0  0
   -6.4957  -10.1404   19.9145 C   0  0  0  0  0  0  0  0  0  0  0  0
   -5.5471  -10.8630   20.5090 N   0  0  0  0  0  0  0  0  0  0  0  0
  2  1  1  6  0  0  0
  2  3  1  0  0  0  0
  2  5  1  0  0  0  0
  3  4  1  0  0  0  0
  3 17  1  0  0  0  0
  5  6  1  0  0  0  0
  7  6  1  1  0  0  0
  7  8  1  0  0  0  0
  7  9  1  0  0  0  0
 10  9  1  6  0  0  0
 10 11  1  0  0  0  0
 10 12  1  0  0  0  0
 11 16  1  0  0  0  0
 12 13  1  6  0  0  0
 12 14  1  0  0  0  0
 14 15  1  1  0  0  0
 14 16  1  0  0  0  0
 16 27  1  6  0  0  0
 18 19  2  0  0  0  0
 18 23  1  0  0  0  0
 19 20  1  0  0  0  0
 20 21  2  0  0  0  0
 21 22  1  0  0  0  0
 21 27  1  0  0  0  0
 22 23  2  0  0  0  0
 22 25  1  0  0  0  0
 23 24  1  0  0  0  0
 25 26  2  0  0  0  0
 26 27  1  0  0  0  0
M  END
>  <CHROM.1>
-25.07984157,-179.26998295,58.27466681,-164.78610490,-176.99003507,-65.68120600
-40.47317564,-3.62801529,-10.76042223,18.67774821,-0.67933146,0.85139204
0.61298782

>  <Name>
ligand

>  <RI>
0

>  <Rbt.Current_Directory>
/home/itssahil/PROJECTS/Mol_Feturizer/Test_systems_manuscript/rnas/4kqy

>  <Rbt.Executable>
rbdock ($Id: //depot/dev/client3/rdock/2013.1/src/exe/rbdock.cxx#4 $)

>  <Rbt.Library>
libRbt.so (2013.1, Build901 2013/11/27)

>  <Rbt.Parameter_File>
/export/apps/rDock/src/rDock_2013.1_src/data/scripts/dock_solv.prm

>  <Rbt.Receptor>
prm/pocket_docking_4.prm

>  <SCORE>
-15.7175

>  <SCORE.INTER>
-12.6874

>  <SCORE.INTER.CONST>
1

>  <SCORE.INTER.POLAR>
0

>  <SCORE.INTER.ROT>
7

>  <SCORE.INTER.SOLV>
13.6611

>  <SCORE.INTER.VDW>
-21.2786

>  <SCORE.INTER.norm>
-0.469904

>  <SCORE.INTRA>
-3.03014

>  <SCORE.INTRA.DIHEDRAL>
-6.83184

>  <SCORE.INTRA.DIHEDRAL.0>
10.4103

>  <SCORE.INTRA.POLAR>
0

>  <SCORE.INTRA.POLAR.0>
0

>  <SCORE.INTRA.REPUL>
0

>  <SCORE.INTRA.REPUL.0>
0

>  <SCORE.INTRA.SOLV>
-0.206045

>  <SCORE.INTRA.SOLV.lig_0>
-49.5008

>  <SCORE.INTRA.VDW>
0.488802

>  <SCORE.INTRA.VDW.0>
-2.6946

>  <SCORE.INTRA.norm>
-0.112227

>  <SCORE.RESTR>
0

>  <SCORE.RESTR.CAVITY>
0

>  <SCORE.RESTR.norm>
0

>  <SCORE.SYSTEM>
0

>  <SCORE.SYSTEM.CONST>
0

>  <SCORE.SYSTEM.DIHEDRAL>
0

>  <SCORE.SYSTEM.SOLV>
0

>  <SCORE.SYSTEM.norm>
0

>  <SCORE.heavy>
27

>  <SCORE.norm>
-0.582131

>  <RMSD>
2.766

$$$$
ligand
 OpenBabel02271912153D
libRbt.so/2013.1/901 2013/11/27
 27 29  0  0  0  0  0  0  0  0999 V2000
   -6.2509  -12.0421   13.3666 N   0  0  0  0  0  0  0  0  0  0  0  0
   -5.0308  -11.3636   13.7604 C   0  0  2  0  0  0  0  0  0  0  0  0
   -3.9912  -11.6834   12.7307 C   0  0  0  0  0  0  0  0  0  0  0  0
   -3.4993  -12.8319   12.6968 O   0  0  0  0  0  0  0  0  0  0  0  0
   -4.5749  -11.8411   15.1418 C   0  0  0  0  0  0  0  0  0  0  0  0
   -5.5926  -11.4546   16.2378 C   0  0  0  0  0  0  0  0  0  0  0  0
   -5.0605  -11.6425   17.8180 S   0  0  2  0  0  0  0  0  0  0  0  0
   -3.6701  -10.7614   18.0398 C   0  0  0  0  0  0  0  0  0  0  0  0
   -4.7888  -13.2773   18.1373 C   0  0  0  0  0  0  0  0  0  0  0  0
   -4.5073  -13.5898   19.6222 C   0  0  1  0  0  0  0  0  0  0  0  0
   -3.3836  -12.8656   20.1501 O   0  0  0  0  0  0  0  0  0  0  0  0
   -5.6267  -13.1602   20.5568 C   0  0  1  0  0  0  0  0  0  0  0  0
   -6.8214  -13.9671   20.5754 O   0  0  0  0  0  0  0  0  0  0  0  0
   -4.8902  -13.1300   21.8732 C   0  0  1  0  0  0  0  0  0  0  0  0
   -4.6138  -14.4574   22.3095 O   0  0  0  0  0  0  0  0  0  0  0  0
   -3.5994  -12.4609   21.5041 C   0  0  2  0  0  0  0  0  0  0  0  0
   -3.6558  -10.8041   11.9015 O   0  0  0  0  0  0  0  0  0  0  0  0
   -6.1363   -7.8414   20.7965 N   0  0  0  0  0  0  0  0  0  0  0  0
   -6.5127   -9.0882   20.4217 C   0  0  0  0  0  0  0  0  0  0  0  0
   -5.7627  -10.1770   20.6608 N   0  0  0  0  0  0  0  0  0  0  0  0
   -4.5950  -10.1020   21.3091 C   0  0  0  0  0  0  0  0  0  0  0  0
   -4.1466   -8.7923   21.7576 C   0  0  0  0  0  0  0  0  0  0  0  0
   -4.9712   -7.5950   21.4738 C   0  0  0  0  0  0  0  0  0  0  0  0
   -4.5958   -6.3278   21.8689 N   0  0  0  0  0  0  0  0  0  0  0  0
   -3.0006   -8.9969   22.3666 N   0  0  0  0  0  0  0  0  0  0  0  0
   -2.7062  -10.3031   22.3107 C   0  0  0  0  0  0  0  0  0  0  0  0
   -3.6660  -10.9776   21.6788 N   0  0  0  0  0  0  0  0  0  0  0  0
  2  1  1  6  0  0  0
  2  3  1  0  0  0  0
  2  5  1  0  0  0  0
  3  4  1  0  0  0  0
  3 17  1  0  0  0  0
  5  6  1  0  0  0  0
  7  6  1  6  0  0  0
  7  8  1  0  0  0  0
  7  9  1  0  0  0  0
 10  9  1  6  0  0  0
 10 11  1  0  0  0  0
 10 12  1  0  0  0  0
 11 16  1  0  0  0  0
 12 13  1  1  0  0  0
 12 14  1  0  0  0  0
 14 15  1  6  0  0  0
 14 16  1  0  0  0  0
 16 27  1  6  0  0  0
 18 19  2  0  0  0  0
 18 23  1  0  0  0  0
 19 20  1  0  0  0  0
 20 21  2  0  0  0  0
 21 22  1  0  0  0  0
 21 27  1  0  0  0  0
 22 23  2  0  0  0  0
 22 25  1  0  0  0  0
 23 24  1  0  0  0  0
 25 26  2  0  0  0  0
 26 27  1  0  0  0  0
M  END
>  <CHROM.1>
-72.45945392,-64.71278640,-167.98271230,56.71513341,-171.01523756,-57.31728425
70.57770334,-4.66751907,-11.26373006,18.79887771,-1.55371715,1.54255332,1.36380034

>  <Name>
ligand

>  <RI>
0

>  <Rbt.Current_Directory>
/home/itssahil/PROJECTS/Mol_Feturizer/Test_systems_manuscript/rnas/4kqy

>  <Rbt.Executable>
rbdock ($Id: //depot/dev/client3/rdock/2013.1/src/exe/rbdock.cxx#4 $)

>  <Rbt.Library>
libRbt.so (2013.1, Build901 2013/11/27)

>  <Rbt.Parameter_File>
/export/apps/rDock/src/rDock_2013.1_src/data/scripts/dock_solv.prm

>  <Rbt.Receptor>
prm/pocket_docking_6.prm

>  <SCORE>
-16.571

>  <SCORE.INTER>
-12.6514

>  <SCORE.INTER.CONST>
1

>  <SCORE.INTER.POLAR>
0

>  <SCORE.INTER.ROT>
7

>  <SCORE.INTER.SOLV>
19.0256

>  <SCORE.INTER.VDW>
-23.0428

>  <SCORE.INTER.norm>
-0.468571

>  <SCORE.INTRA>
-3.91956

>  <SCORE.INTRA.DIHEDRAL>
-6.80149

>  <SCORE.INTRA.DIHEDRAL.0>
10.4103

>  <SCORE.INTRA.POLAR>
0

>  <SCORE.INTRA.POLAR.0>
0

>  <SCORE.INTRA.REPUL>
0

>  <SCORE.INTRA.REPUL.0>
0

>  <SCORE.INTRA.SOLV>
0.297228

>  <SCORE.INTRA.SOLV.lig_0>
-49.5008

>  <SCORE.INTRA.VDW>
-0.66743

>  <SCORE.INTRA.VDW.0>
-2.6946

>  <SCORE.INTRA.norm>
-0.145169

>  <SCORE.RESTR>
0

>  <SCORE.RESTR.CAVITY>
0

>  <SCORE.RESTR.norm>
0

>  <SCORE.SYSTEM>
0

>  <SCORE.SYSTEM.CONST>
0

>  <SCORE.SYSTEM.DIHEDRAL>
0

>  <SCORE.SYSTEM.SOLV>
0

>  <SCORE.SYSTEM.norm>
0

>  <SCORE.heavy>
27

>  <SCORE.norm>
-0.61374

>  <RMSD>
2.856

$$$$
ligand
 OpenBabel02271912153D
libRbt.so/2013.1/901 2013/11/27
 27 29  0  0  0  0  0  0  0  0999 V2000
   -1.4839  -13.2595   14.0003 N   0  0  0  0  0  0  0  0  0  0  0  0
   -0.6795  -12.3886   14.8362 C   0  0  2  0  0  0  0  0  0  0  0  0
    0.7289  -12.8952   14.7814 C   0  0  0  0  0  0  0  0  0  0  0  0
    0.9347  -14.1279   14.7986 O   0  0  0  0  0  0  0  0  0  0  0  0
   -1.1945  -12.4051   16.2779 C   0  0  0  0  0  0  0  0  0  0  0  0
   -2.5713  -11.7142   16.3944 C   0  0  0  0  0  0  0  0  0  0  0  0
   -3.2776  -11.7603   17.9157 S   0  0  2  0  0  0  0  0  0  0  0  0
   -2.3524  -10.8825   18.9797 C   0  0  0  0  0  0  0  0  0  0  0  0
   -3.4210  -13.3616   18.4293 C   0  0  0  0  0  0  0  0  0  0  0  0
   -4.1827  -13.5292   19.7610 C   0  0  1  0  0  0  0  0  0  0  0  0
   -3.5007  -12.9409   20.8812 O   0  0  0  0  0  0  0  0  0  0  0  0
   -5.5202  -12.8074   19.7914 C   0  0  1  0  0  0  0  0  0  0  0  0
   -6.6088  -13.3969   19.0522 O   0  0  0  0  0  0  0  0  0  0  0  0
   -5.7610  -12.7360   21.2791 C   0  0  1  0  0  0  0  0  0  0  0  0
   -6.0929  -14.0262   21.7834 O   0  0  0  0  0  0  0  0  0  0  0  0
   -4.4126  -12.3409   21.8043 C   0  0  2  0  0  0  0  0  0  0  0  0
    1.6741  -12.0760   14.6877 O   0  0  0  0  0  0  0  0  0  0  0  0
   -6.0103   -7.4403   20.4974 N   0  0  0  0  0  0  0  0  0  0  0  0
   -6.5187   -8.6356   20.1106 C   0  0  0  0  0  0  0  0  0  0  0  0
   -6.0060   -9.8095   20.5161 N   0  0  0  0  0  0  0  0  0  0  0  0
   -4.9639   -9.8741   21.3523 C   0  0  0  0  0  0  0  0  0  0  0  0
   -4.3871   -8.6232   21.8214 C   0  0  0  0  0  0  0  0  0  0  0  0
   -4.9474   -7.3337   21.3551 C   0  0  0  0  0  0  0  0  0  0  0  0
   -4.4399   -6.1169   21.7608 N   0  0  0  0  0  0  0  0  0  0  0  0
   -3.4054   -8.9626   22.6257 N   0  0  0  0  0  0  0  0  0  0  0  0
   -3.3231  -10.2995   22.6706 C   0  0  0  0  0  0  0  0  0  0  0  0
   -4.2637  -10.8570   21.9090 N   0  0  0  0  0  0  0  0  0  0  0  0
  2  1  1  6  0  0  0
  2  3  1  0  0  0  0
  2  5  1  0  0  0  0
  3  4  1  0  0  0  0
  3 17  1  0  0  0  0
  5  6  1  0  0  0  0
  7  6  1  6  0  0  0
  7  8  1  0  0  0  0
  7  9  1  0  0  0  0
 10  9  1  6  0  0  0
 10 11  1  0  0  0  0
 10 12  1  0  0  0  0
 11 16  1  0  0  0  0
 12 13  1  6  0  0  0
 12 14  1  0  0  0  0
 14 15  1  1  0  0  0
 14 16  1  0  0  0  0
 16 27  1  6  0  0  0
 18 19  2  0  0  0  0
 18 23  1  0  0  0  0
 19 20  1  0  0  0  0
 20 21  2  0  0  0  0
 21 22  1  0  0  0  0
 21 27  1  0  0  0  0
 22 23  2  0  0  0  0
 22 25  1  0  0  0  0
 23 24  1  0  0  0  0
 25 26  2  0  0  0  0
 26 27  1  0  0  0  0
M  END
>  <CHROM.1>
-40.04441891,-69.16183077,176.25445816,65.35954771,-174.43442471,-65.20786452
99.62384209,-3.49986030,-11.38721567,19.13626224,0.62372174,-0.80510771,-2.83359987

>  <Name>
ligand

>  <RI>
0

>  <Rbt.Current_Directory>
/home/itssahil/PROJECTS/Mol_Feturizer/Test_systems_manuscript/rnas/4kqy

>  <Rbt.Executable>
rbdock ($Id: //depot/dev/client3/rdock/2013.1/src/exe/rbdock.cxx#4 $)

>  <Rbt.Library>
libRbt.so (2013.1, Build901 2013/11/27)

>  <Rbt.Parameter_File>
/export/apps/rDock/src/rDock_2013.1_src/data/scripts/dock_solv.prm

>  <Rbt.Receptor>
prm/pocket_docking_5.prm

>  <SCORE>
-16.3343

>  <SCORE.INTER>
-12.6531

>  <SCORE.INTER.CONST>
1

>  <SCORE.INTER.POLAR>
0

>  <SCORE.INTER.ROT>
7

>  <SCORE.INTER.SOLV>
15.2152

>  <SCORE.INTER.VDW>
-21.7738

>  <SCORE.INTER.norm>
-0.468633

>  <SCORE.INTRA>
-3.68124

>  <SCORE.INTRA.DIHEDRAL>
-7.00994

>  <SCORE.INTRA.DIHEDRAL.0>
10.4103

>  <SCORE.INTRA.POLAR>
0

>  <SCORE.INTRA.POLAR.0>
0

>  <SCORE.INTRA.REPUL>
0

>  <SCORE.INTRA.REPUL.0>
0

>  <SCORE.INTRA.SOLV>
0.262657

>  <SCORE.INTRA.SOLV.lig_0>
-49.5008

>  <SCORE.INTRA.VDW>
-0.307602

>  <SCORE.INTRA.VDW.0>
-2.6946

>  <SCORE.INTRA.norm>
-0.136342

>  <SCORE.RESTR>
0

>  <SCORE.RESTR.CAVITY>
0

>  <SCORE.RESTR.norm>
0

>  <SCORE.SYSTEM>
0

>  <SCORE.SYSTEM.CONST>
0

>  <SCORE.SYSTEM.DIHEDRAL>
0

>  <SCORE.SYSTEM.SOLV>
0

>  <SCORE.SYSTEM.norm>
0

>  <SCORE.heavy>
27

>  <SCORE.norm>
-0.604975

>  <RMSD>
2.952

$$$$
ligand
 OpenBabel02271912153D
libRbt.so/2013.1/901 2013/11/27
 27 29  0  0  0  0  0  0  0  0999 V2000
    0.4776  -13.0141   13.5598 N   0  0  0  0  0  0  0  0  0  0  0  0
   -0.9122  -12.9449   13.9694 C   0  0  2  0  0  0  0  0  0  0  0  0
   -1.7476  -13.2389   12.7615 C   0  0  0  0  0  0  0  0  0  0  0  0
   -1.2315  -13.8396   11.7946 O   0  0  0  0  0  0  0  0  0  0  0  0
   -1.2403  -11.5529   14.5163 C   0  0  0  0  0  0  0  0  0  0  0  0
   -0.4362  -11.2456   15.7991 C   0  0  0  0  0  0  0  0  0  0  0  0
   -0.8557  -12.1483   17.1497 S   0  0  2  0  0  0  0  0  0  0  0  0
   -0.2720  -13.6943   16.9824 C   0  0  0  0  0  0  0  0  0  0  0  0
   -2.5339  -12.1598   17.3290 C   0  0  0  0  0  0  0  0  0  0  0  0
   -3.0167  -12.6853   18.6974 C   0  0  1  0  0  0  0  0  0  0  0  0
   -2.3151  -12.1015   19.8077 O   0  0  0  0  0  0  0  0  0  0  0  0
   -4.4599  -12.3261   19.0120 C   0  0  1  0  0  0  0  0  0  0  0  0
   -5.4914  -13.0619   18.3241 O   0  0  0  0  0  0  0  0  0  0  0  0
   -4.4707  -12.5145   20.5089 C   0  0  1  0  0  0  0  0  0  0  0  0
   -4.4196  -13.9019   20.8275 O   0  0  0  0  0  0  0  0  0  0  0  0
   -3.1796  -11.8728   20.9230 C   0  0  2  0  0  0  0  0  0  0  0  0
   -2.9568  -12.9059   12.7540 O   0  0  0  0  0  0  0  0  0  0  0  0
   -6.1424   -7.4572   20.8984 N   0  0  0  0  0  0  0  0  0  0  0  0
   -6.4455   -8.6913   20.4273 C   0  0  0  0  0  0  0  0  0  0  0  0
   -5.5899   -9.7251   20.4930 N   0  0  0  0  0  0  0  0  0  0  0  0
   -4.3804   -9.6067   21.0518 C   0  0  0  0  0  0  0  0  0  0  0  0
   -4.0045   -8.3108   21.5966 C   0  0  0  0  0  0  0  0  0  0  0  0
   -4.9471   -7.1719   21.5038 C   0  0  0  0  0  0  0  0  0  0  0  0
   -4.6449   -5.9197   21.9971 N   0  0  0  0  0  0  0  0  0  0  0  0
   -2.7967   -8.4677   22.0893 N   0  0  0  0  0  0  0  0  0  0  0  0
   -2.4012   -9.7302   21.8757 C   0  0  0  0  0  0  0  0  0  0  0  0
   -3.3533  -10.4255   21.2548 N   0  0  0  0  0  0  0  0  0  0  0  0
  2  1  1  6  0  0  0
  2  3  1  0  0  0  0
  2  5  1  0  0  0  0
  3  4  1  0  0  0  0
  3 17  1  0  0  0  0
  5  6  1  0  0  0  0
  7  6  1  6  0  0  0
  7  8  1  0  0  0  0
  7  9  1  0  0  0  0
 10  9  1  6  0  0  0
 10 11  1  0  0  0  0
 10 12  1  0  0  0  0
 11 16  1  0  0  0  0
 12 13  1  6  0  0  0
 12 14  1  0  0  0  0
 14 15  1  6  0  0  0
 14 16  1  0  0  0  0
 16 27  1  6  0  0  0
 18 19  2  0  0  0  0
 18 23  1  0  0  0  0
 19 20  1  0  0  0  0
 20 21  2  0  0  0  0
 21 22  1  0  0  0  0
 21 27  1  0  0  0  0
 22 23  2  0  0  0  0
 22 25  1  0  0  0  0
 23 24  1  0  0  0  0
 25 26  2  0  0  0  0
 26 27  1  0  0  0  0
M  END
>  <CHROM.1>
20.21215465,-63.96449396,-68.64065361,74.38917799,-167.01490390,47.54327218
105.59681697,-2.96700196,-11.27748062,18.28643328,-0.36409275,1.15477542
-0.11471130

>  <Name>
ligand

>  <RI>
0

>  <Rbt.Current_Directory>
/home/itssahil/PROJECTS/Mol_Feturizer/Test_systems_manuscript/rnas/4kqy

>  <Rbt.Executable>
rbdock ($Id: //depot/dev/client3/rdock/2013.1/src/exe/rbdock.cxx#4 $)

>  <Rbt.Library>
libRbt.so (2013.1, Build901 2013/11/27)

>  <Rbt.Parameter_File>
/export/apps/rDock/src/rDock_2013.1_src/data/scripts/dock_solv.prm

>  <Rbt.Receptor>
prm/pocket_docking_7.prm

>  <SCORE>
-13.8624

>  <SCORE.INTER>
-13.0124

>  <SCORE.INTER.CONST>
1

>  <SCORE.INTER.POLAR>
0

>  <SCORE.INTER.ROT>
7

>  <SCORE.INTER.SOLV>
14.9706

>  <SCORE.INTER.VDW>
-21.9318

>  <SCORE.INTER.norm>
-0.481942

>  <SCORE.INTRA>
-0.851022

>  <SCORE.INTRA.DIHEDRAL>
-5.80798

>  <SCORE.INTRA.DIHEDRAL.0>
10.4103

>  <SCORE.INTRA.POLAR>
0

>  <SCORE.INTRA.POLAR.0>
0

>  <SCORE.INTRA.REPUL>
0

>  <SCORE.INTRA.REPUL.0>
0

>  <SCORE.INTRA.SOLV>
1.46756

>  <SCORE.INTRA.SOLV.lig_0>
-49.5008

>  <SCORE.INTRA.VDW>
1.31919

>  <SCORE.INTRA.VDW.0>
-2.6946

>  <SCORE.INTRA.norm>
-0.0315194

>  <SCORE.RESTR>
0.00102404

>  <SCORE.RESTR.CAVITY>
0.00102404

>  <SCORE.RESTR.norm>
3.79275e-05

>  <SCORE.SYSTEM>
0

>  <SCORE.SYSTEM.CONST>
0

>  <SCORE.SYSTEM.DIHEDRAL>
0

>  <SCORE.SYSTEM.SOLV>
0

>  <SCORE.SYSTEM.norm>
0

>  <SCORE.heavy>
27

>  <SCORE.norm>
-0.513423

>  <RMSD>
2.982

$$$$
ligand
 OpenBabel02271912153D
libRbt.so/2013.1/901 2013/11/27
 27 29  0  0  0  0  0  0  0  0999 V2000
   -1.8711  -10.3953   10.7233 N   0  0  0  0  0  0  0  0  0  0  0  0
   -2.8126  -11.3199   11.3258 C   0  0  2  0  0  0  0  0  0  0  0  0
   -4.1876  -10.8742   10.9336 C   0  0  0  0  0  0  0  0  0  0  0  0
   -4.3194  -10.0508   10.0025 O   0  0  0  0  0  0  0  0  0  0  0  0
   -2.6669  -11.3146   12.8500 C   0  0  0  0  0  0  0  0  0  0  0  0
   -3.3006  -12.5733   13.4828 C   0  0  0  0  0  0  0  0  0  0  0  0
   -2.8454  -12.8948   15.0655 S   0  0  2  0  0  0  0  0  0  0  0  0
   -2.6440  -14.5320   15.2592 C   0  0  0  0  0  0  0  0  0  0  0  0
   -4.0193  -12.3078   16.1266 C   0  0  0  0  0  0  0  0  0  0  0  0
   -3.9490  -12.9184   17.5423 C   0  0  1  0  0  0  0  0  0  0  0  0
   -2.9230  -12.3329   18.3611 O   0  0  0  0  0  0  0  0  0  0  0  0
   -5.1968  -12.6698   18.3743 C   0  0  1  0  0  0  0  0  0  0  0  0
   -6.3701  -13.4456   18.0581 O   0  0  0  0  0  0  0  0  0  0  0  0
   -4.6570  -12.9175   19.7612 C   0  0  1  0  0  0  0  0  0  0  0  0
   -4.4270  -14.3098   19.9550 O   0  0  0  0  0  0  0  0  0  0  0  0
   -3.3363  -12.2072   19.7238 C   0  0  2  0  0  0  0  0  0  0  0  0
   -5.1829  -11.3579   11.5240 O   0  0  0  0  0  0  0  0  0  0  0  0
   -6.3025   -7.9272   20.8006 N   0  0  0  0  0  0  0  0  0  0  0  0
   -6.6924   -9.1452   20.3522 C   0  0  0  0  0  0  0  0  0  0  0  0
   -5.8258  -10.1438   20.1130 N   0  0  0  0  0  0  0  0  0  0  0  0
   -4.5122  -10.0049   20.3242 C   0  0  0  0  0  0  0  0  0  0  0  0
   -4.0336   -8.7262   20.8274 C   0  0  0  0  0  0  0  0  0  0  0  0
   -4.9940   -7.6251   21.0713 C   0  0  0  0  0  0  0  0  0  0  0  0
   -4.5992   -6.3902   21.5425 N   0  0  0  0  0  0  0  0  0  0  0  0
   -2.7330   -8.8584   20.9579 N   0  0  0  0  0  0  0  0  0  0  0  0
   -2.3798  -10.0891   20.5625 C   0  0  0  0  0  0  0  0  0  0  0  0
   -3.4484  -10.7891   20.1836 N   0  0  0  0  0  0  0  0  0  0  0  0
  2  1  1  6  0  0  0
  2  3  1  0  0  0  0
  2  5  1  0  0  0  0
  3  4  1  0  0  0  0
  3 17  1  0  0  0  0
  5  6  1  0  0  0  0
  7  6  1  6  0  0  0
  7  8  1  0  0  0  0
  7  9  1  0  0  0  0
 10  9  1  6  0  0  0
 10 11  1  0  0  0  0
 10 12  1  0  0  0  0
 11 16  1  0  0  0  0
 12 13  1  6  0  0  0
 12 14  1  0  0  0  0
 14 15  1  6  0  0  0
 14 16  1  0  0  0  0
 16 27  1  6  0  0  0
 18 19  2  0  0  0  0
 18 23  1  0  0  0  0
 19 20  1  0  0  0  0
 20 21  2  0  0  0  0
 21 22  1  0  0  0  0
 21 27  1  0  0  0  0
 22 23  2  0  0  0  0
 22 25  1  0  0  0  0
 23 24  1  0  0  0  0
 25 26  2  0  0  0  0
 26 27  1  0  0  0  0
M  END
>  <CHROM.1>
14.73540999,-161.69888274,163.79252455,-140.64562955,161.63009105,79.20427715
100.30524287,-4.02520184,-11.20143116,17.04732887,0.66850883,1.39960453,-0.89078150

>  <Name>
ligand

>  <RI>
0

>  <Rbt.Current_Directory>
/home/itssahil/PROJECTS/Mol_Feturizer/Test_systems_manuscript/rnas/4kqy

>  <Rbt.Executable>
rbdock ($Id: //depot/dev/client3/rdock/2013.1/src/exe/rbdock.cxx#4 $)

>  <Rbt.Library>
libRbt.so (2013.1, Build901 2013/11/27)

>  <Rbt.Parameter_File>
/export/apps/rDock/src/rDock_2013.1_src/data/scripts/dock_solv.prm

>  <Rbt.Receptor>
prm/pocket_docking_7.prm

>  <SCORE>
-8.36615

>  <SCORE.INTER>
-9.2479

>  <SCORE.INTER.CONST>
1

>  <SCORE.INTER.POLAR>
0

>  <SCORE.INTER.ROT>
7

>  <SCORE.INTER.SOLV>
17.5985

>  <SCORE.INTER.VDW>
-20.2981

>  <SCORE.INTER.norm>
-0.342515

>  <SCORE.INTRA>
0.881744

>  <SCORE.INTRA.DIHEDRAL>
0.200785

>  <SCORE.INTRA.DIHEDRAL.0>
10.4103

>  <SCORE.INTRA.POLAR>
0

>  <SCORE.INTRA.POLAR.0>
0

>  <SCORE.INTRA.REPUL>
0

>  <SCORE.INTRA.REPUL.0>
0

>  <SCORE.INTRA.SOLV>
-0.654904

>  <SCORE.INTRA.SOLV.lig_0>
-49.5008

>  <SCORE.INTRA.VDW>
1.1088

>  <SCORE.INTRA.VDW.0>
-2.6946

>  <SCORE.INTRA.norm>
0.0326572

>  <SCORE.RESTR>
0

>  <SCORE.RESTR.CAVITY>
0

>  <SCORE.RESTR.norm>
0

>  <SCORE.SYSTEM>
0

>  <SCORE.SYSTEM.CONST>
0

>  <SCORE.SYSTEM.DIHEDRAL>
0

>  <SCORE.SYSTEM.SOLV>
0

>  <SCORE.SYSTEM.norm>
0

>  <SCORE.heavy>
27

>  <SCORE.norm>
-0.309857

>  <RMSD>
3.124

$$$$
ligand
 OpenBabel02271912153D
libRbt.so/2013.1/901 2013/11/27
 27 29  0  0  0  0  0  0  0  0999 V2000
   -1.0343  -13.5129   13.4906 N   0  0  0  0  0  0  0  0  0  0  0  0
   -0.7055  -12.9523   14.7875 C   0  0  2  0  0  0  0  0  0  0  0  0
    0.3641  -13.8127   15.3864 C   0  0  0  0  0  0  0  0  0  0  0  0
    1.0386  -14.5551   14.6406 O   0  0  0  0  0  0  0  0  0  0  0  0
   -1.9411  -12.9340   15.6914 C   0  0  0  0  0  0  0  0  0  0  0  0
   -1.6893  -12.1146   16.9766 C   0  0  0  0  0  0  0  0  0  0  0  0
   -2.9746  -12.0435   18.0528 S   0  0  2  0  0  0  0  0  0  0  0  0
   -2.5373  -11.1375   19.3744 C   0  0  0  0  0  0  0  0  0  0  0  0
   -3.4152  -13.6048   18.5185 C   0  0  0  0  0  0  0  0  0  0  0  0
   -4.4524  -13.6514   19.6603 C   0  0  1  0  0  0  0  0  0  0  0  0
   -3.9538  -13.1220   20.9001 O   0  0  0  0  0  0  0  0  0  0  0  0
   -5.6708  -12.7771   19.4112 C   0  0  1  0  0  0  0  0  0  0  0  0
   -6.6436  -13.2513   18.4586 O   0  0  0  0  0  0  0  0  0  0  0  0
   -6.2063  -12.6440   20.8154 C   0  0  1  0  0  0  0  0  0  0  0  0
   -6.7879  -13.8745   21.2357 O   0  0  0  0  0  0  0  0  0  0  0  0
   -4.9597  -12.3982   21.6128 C   0  0  2  0  0  0  0  0  0  0  0  0
    0.5853  -13.7502   16.6194 O   0  0  0  0  0  0  0  0  0  0  0  0
   -5.9202   -7.3439   20.2684 N   0  0  0  0  0  0  0  0  0  0  0  0
   -6.5253   -8.4739   19.8285 C   0  0  0  0  0  0  0  0  0  0  0  0
   -6.1730   -9.6995   20.2520 N   0  0  0  0  0  0  0  0  0  0  0  0
   -5.2074   -9.8829   21.1594 C   0  0  0  0  0  0  0  0  0  0  0  0
   -4.5346   -8.7055   21.6871 C   0  0  0  0  0  0  0  0  0  0  0  0
   -4.9172   -7.3595   21.2013 C   0  0  0  0  0  0  0  0  0  0  0  0
   -4.3121   -6.2080   21.6603 N   0  0  0  0  0  0  0  0  0  0  0  0
   -3.6562   -9.1553   22.5543 N   0  0  0  0  0  0  0  0  0  0  0  0
   -3.7221  -10.4935   22.5850 C   0  0  0  0  0  0  0  0  0  0  0  0
   -4.6596  -10.9400   21.7499 N   0  0  0  0  0  0  0  0  0  0  0  0
  2  1  1  6  0  0  0
  2  3  1  0  0  0  0
  2  5  1  0  0  0  0
  3  4  1  0  0  0  0
  3 17  1  0  0  0  0
  5  6  1  0  0  0  0
  7  6  1  6  0  0  0
  7  8  1  0  0  0  0
  7  9  1  0  0  0  0
 10  9  1  6  0  0  0
 10 11  1  0  0  0  0
 10 12  1  0  0  0  0
 11 16  1  0  0  0  0
 12 13  1  6  0  0  0
 12 14  1  0  0  0  0
 14 15  1  1  0  0  0
 14 16  1  0  0  0  0
 16 27  1  6  0  0  0
 18 19  2  0  0  0  0
 18 23  1  0  0  0  0
 19 20  1  0  0  0  0
 20 21  2  0  0  0  0
 21 22  1  0  0  0  0
 21 27  1  0  0  0  0
 22 23  2  0  0  0  0
 22 25  1  0  0  0  0
 23 24  1  0  0  0  0
 25 26  2  0  0  0  0
 26 27  1  0  0  0  0
M  END
>  <CHROM.1>
19.45760870,-169.66048962,-179.25109260,179.70113431,171.67206132,-65.06682523
107.70820489,-3.65392196,-11.61216457,19.09760841,-0.74763814,0.72246495
0.33526025

>  <Name>
ligand

>  <RI>
0

>  <Rbt.Current_Directory>
/home/itssahil/PROJECTS/Mol_Feturizer/Test_systems_manuscript/rnas/4kqy

>  <Rbt.Executable>
rbdock ($Id: //depot/dev/client3/rdock/2013.1/src/exe/rbdock.cxx#4 $)

>  <Rbt.Library>
libRbt.so (2013.1, Build901 2013/11/27)

>  <Rbt.Parameter_File>
/export/apps/rDock/src/rDock_2013.1_src/data/scripts/dock_solv.prm

>  <Rbt.Receptor>
prm/pocket_docking_7.prm

>  <SCORE>
-16.2789

>  <SCORE.INTER>
-13.9195

>  <SCORE.INTER.CONST>
1

>  <SCORE.INTER.POLAR>
0

>  <SCORE.INTER.ROT>
7

>  <SCORE.INTER.SOLV>
15.9635

>  <SCORE.INTER.VDW>
-22.8675

>  <SCORE.INTER.norm>
-0.515536

>  <SCORE.INTRA>
-2.35948

>  <SCORE.INTRA.DIHEDRAL>
-6.97994

>  <SCORE.INTRA.DIHEDRAL.0>
10.4103

>  <SCORE.INTRA.POLAR>
0

>  <SCORE.INTRA.POLAR.0>
0

>  <SCORE.INTRA.REPUL>
0

>  <SCORE.INTRA.REPUL.0>
0

>  <SCORE.INTRA.SOLV>
-0.359584

>  <SCORE.INTRA.SOLV.lig_0>
-49.5008

>  <SCORE.INTRA.VDW>
1.31029

>  <SCORE.INTRA.VDW.0>
-2.6946

>  <SCORE.INTRA.norm>
-0.087388

>  <SCORE.RESTR>
0

>  <SCORE.RESTR.CAVITY>
0

>  <SCORE.RESTR.norm>
0

>  <SCORE.SYSTEM>
0

>  <SCORE.SYSTEM.CONST>
0

>  <SCORE.SYSTEM.DIHEDRAL>
0

>  <SCORE.SYSTEM.SOLV>
0

>  <SCORE.SYSTEM.norm>
0

>  <SCORE.heavy>
27

>  <SCORE.norm>
-0.602924

>  <RMSD>
3.195

$$$$
ligand
 OpenBabel02271912153D
libRbt.so/2013.1/901 2013/11/27
 27 29  0  0  0  0  0  0  0  0999 V2000
    0.2869  -12.1575   14.3480 N   0  0  0  0  0  0  0  0  0  0  0  0
    0.5381  -13.4229   15.0112 C   0  0  2  0  0  0  0  0  0  0  0  0
    0.4122  -14.4999   13.9781 C   0  0  0  0  0  0  0  0  0  0  0  0
   -0.5130  -14.4360   13.1401 O   0  0  0  0  0  0  0  0  0  0  0  0
   -0.4739  -13.6467   16.1382 C   0  0  0  0  0  0  0  0  0  0  0  0
   -1.9260  -13.5050   15.6305 C   0  0  0  0  0  0  0  0  0  0  0  0
   -3.1180  -13.6223   16.8054 S   0  0  2  0  0  0  0  0  0  0  0  0
   -4.5977  -13.2998   16.1234 C   0  0  0  0  0  0  0  0  0  0  0  0
   -2.7904  -12.5416   18.0597 C   0  0  0  0  0  0  0  0  0  0  0  0
   -3.4003  -12.9502   19.4173 C   0  0  1  0  0  0  0  0  0  0  0  0
   -2.7573  -12.3220   20.5388 O   0  0  0  0  0  0  0  0  0  0  0  0
   -4.8441  -12.5080   19.5930 C   0  0  1  0  0  0  0  0  0  0  0  0
   -5.8550  -13.2442   18.8756 O   0  0  0  0  0  0  0  0  0  0  0  0
   -4.9773  -12.5921   21.0934 C   0  0  1  0  0  0  0  0  0  0  0  0
   -5.0178  -13.9551   21.5052 O   0  0  0  0  0  0  0  0  0  0  0  0
   -3.6917  -11.9797   21.5651 C   0  0  2  0  0  0  0  0  0  0  0  0
    1.2545  -15.4289   13.9520 O   0  0  0  0  0  0  0  0  0  0  0  0
   -6.1157   -7.3557   20.5557 N   0  0  0  0  0  0  0  0  0  0  0  0
   -6.3849   -8.5872   20.0581 C   0  0  0  0  0  0  0  0  0  0  0  0
   -5.6795   -9.6791   20.3979 N   0  0  0  0  0  0  0  0  0  0  0  0
   -4.6699   -9.6235   21.2736 C   0  0  0  0  0  0  0  0  0  0  0  0
   -4.3462   -8.3320   21.8606 C   0  0  0  0  0  0  0  0  0  0  0  0
   -5.1176   -7.1304   21.4667 C   0  0  0  0  0  0  0  0  0  0  0  0
   -4.8538   -5.8794   21.9848 N   0  0  0  0  0  0  0  0  0  0  0  0
   -3.3447   -8.5541   22.6814 N   0  0  0  0  0  0  0  0  0  0  0  0
   -3.0212   -9.8535   22.6301 C   0  0  0  0  0  0  0  0  0  0  0  0
   -3.8197  -10.5068   21.7869 N   0  0  0  0  0  0  0  0  0  0  0  0
  2  1  1  6  0  0  0
  2  3  1  0  0  0  0
  2  5  1  0  0  0  0
  3  4  1  0  0  0  0
  3 17  1  0  0  0  0
  5  6  1  0  0  0  0
  7  6  1  6  0  0  0
  7  8  1  0  0  0  0
  7  9  1  0  0  0  0
 10  9  1  6  0  0  0
 10 11  1  0  0  0  0
 10 12  1  0  0  0  0
 11 16  1  0  0  0  0
 12 13  1  6  0  0  0
 12 14  1  0  0  0  0
 14 15  1  6  0  0  0
 14 16  1  0  0  0  0
 16 27  1  6  0  0  0
 18 19  2  0  0  0  0
 18 23  1  0  0  0  0
 19 20  1  0  0  0  0
 20 21  2  0  0  0  0
 21 22  1  0  0  0  0
 21 27  1  0  0  0  0
 22 23  2  0  0  0  0
 22 25  1  0  0  0  0
 23 24  1  0  0  0  0
 25 26  2  0  0  0  0
 26 27  1  0  0  0  0
M  END
>  <CHROM.1>
-41.47406580,53.30444817,-175.81699437,174.43079990,-154.78125503,159.47227695
93.31604759,-3.24972004,-11.74483124,18.72273456,-0.82269134,0.84515237,0.31779661

>  <Name>
ligand

>  <RI>
0

>  <Rbt.Current_Directory>
/home/itssahil/PROJECTS/Mol_Feturizer/Test_systems_manuscript/rnas/4kqy

>  <Rbt.Executable>
rbdock ($Id: //depot/dev/client3/rdock/2013.1/src/exe/rbdock.cxx#4 $)

>  <Rbt.Library>
libRbt.so (2013.1, Build901 2013/11/27)

>  <Rbt.Parameter_File>
/export/apps/rDock/src/rDock_2013.1_src/data/scripts/dock_solv.prm

>  <Rbt.Receptor>
prm/pocket_docking_8.prm

>  <SCORE>
-17.5031

>  <SCORE.INTER>
-16.3353

>  <SCORE.INTER.CONST>
1

>  <SCORE.INTER.POLAR>
0

>  <SCORE.INTER.ROT>
7

>  <SCORE.INTER.SOLV>
16.662

>  <SCORE.INTER.VDW>
-24.7109

>  <SCORE.INTER.norm>
-0.605012

>  <SCORE.INTRA>
-1.16779

>  <SCORE.INTRA.DIHEDRAL>
-4.16631

>  <SCORE.INTRA.DIHEDRAL.0>
10.4103

>  <SCORE.INTRA.POLAR>
0

>  <SCORE.INTRA.POLAR.0>
0

>  <SCORE.INTRA.REPUL>
0

>  <SCORE.INTRA.REPUL.0>
0

>  <SCORE.INTRA.SOLV>
0.496761

>  <SCORE.INTRA.SOLV.lig_0>
-49.5008

>  <SCORE.INTRA.VDW>
0.666986

>  <SCORE.INTRA.VDW.0>
-2.6946

>  <SCORE.INTRA.norm>
-0.0432515

>  <SCORE.RESTR>
0

>  <SCORE.RESTR.CAVITY>
0

>  <SCORE.RESTR.norm>
0

>  <SCORE.SYSTEM>
0

>  <SCORE.SYSTEM.CONST>
0

>  <SCORE.SYSTEM.DIHEDRAL>
0

>  <SCORE.SYSTEM.SOLV>
0

>  <SCORE.SYSTEM.norm>
0

>  <SCORE.heavy>
27

>  <SCORE.norm>
-0.648263

>  <RMSD>
3.285

$$$$
ligand
 OpenBabel02271912153D
libRbt.so/2013.1/901 2013/11/27
 27 29  0  0  0  0  0  0  0  0999 V2000
   -1.5342  -11.2180   17.2639 N   0  0  0  0  0  0  0  0  0  0  0  0
   -2.4643  -10.1314   17.5054 C   0  0  2  0  0  0  0  0  0  0  0  0
   -1.9585   -8.9373   16.7561 C   0  0  0  0  0  0  0  0  0  0  0  0
   -1.4244   -9.1003   15.6379 O   0  0  0  0  0  0  0  0  0  0  0  0
   -2.5492   -9.8224   19.0026 C   0  0  0  0  0  0  0  0  0  0  0  0
   -3.0101  -11.0566   19.8093 C   0  0  0  0  0  0  0  0  0  0  0  0
   -3.7409  -10.7260   21.2831 S   0  0  2  0  0  0  0  0  0  0  0  0
   -2.6840   -9.8794   22.2448 C   0  0  0  0  0  0  0  0  0  0  0  0
   -4.2009  -12.1691   22.0276 C   0  0  0  0  0  0  0  0  0  0  0  0
   -5.5023  -12.7796   21.4661 C   0  0  1  0  0  0  0  0  0  0  0  0
   -6.5476  -11.8108   21.2796 O   0  0  0  0  0  0  0  0  0  0  0  0
   -5.3505  -13.3533   20.0666 C   0  0  1  0  0  0  0  0  0  0  0  0
   -4.6606  -14.6127   19.9375 O   0  0  0  0  0  0  0  0  0  0  0  0
   -6.7939  -13.4007   19.6300 C   0  0  1  0  0  0  0  0  0  0  0  0
   -7.4794  -14.4416   20.3196 O   0  0  0  0  0  0  0  0  0  0  0  0
   -7.3167  -12.0770   20.1042 C   0  0  2  0  0  0  0  0  0  0  0  0
   -2.1077   -7.7935   17.2485 O   0  0  0  0  0  0  0  0  0  0  0  0
   -9.3947   -9.3148   16.0635 N   0  0  0  0  0  0  0  0  0  0  0  0
   -9.9573  -10.3031   16.8005 C   0  0  0  0  0  0  0  0  0  0  0  0
   -9.3077  -10.9261   17.7982 N   0  0  0  0  0  0  0  0  0  0  0  0
   -8.0594  -10.5929   18.1448 C   0  0  0  0  0  0  0  0  0  0  0  0
   -7.4085   -9.5224   17.4047 C   0  0  0  0  0  0  0  0  0  0  0  0
   -8.1257   -8.8534   16.2947 C   0  0  0  0  0  0  0  0  0  0  0  0
   -7.5589   -7.8368   15.5544 N   0  0  0  0  0  0  0  0  0  0  0  0
   -6.2184   -9.3879   17.9446 N   0  0  0  0  0  0  0  0  0  0  0  0
   -6.0829  -10.2890   18.9272 C   0  0  0  0  0  0  0  0  0  0  0  0
   -7.1915  -11.0166   19.0579 N   0  0  0  0  0  0  0  0  0  0  0  0
  2  1  1  1  0  0  0
  2  3  1  0  0  0  0
  2  5  1  0  0  0  0
  3  4  1  0  0  0  0
  3 17  1  0  0  0  0
  5  6  1  0  0  0  0
  7  6  1  6  0  0  0
  7  8  1  0  0  0  0
  7  9  1  0  0  0  0
 10  9  1  6  0  0  0
 10 11  1  0  0  0  0
 10 12  1  0  0  0  0
 11 16  1  0  0  0  0
 12 13  1  1  0  0  0
 12 14  1  0  0  0  0
 14 15  1  1  0  0  0
 14 16  1  0  0  0  0
 16 27  1  6  0  0  0
 18 19  2  0  0  0  0
 18 23  1  0  0  0  0
 19 20  1  0  0  0  0
 20 21  2  0  0  0  0
 21 22  1  0  0  0  0
 21 27  1  0  0  0  0
 22 23  2  0  0  0  0
 22 25  1  0  0  0  0
 23 24  1  0  0  0  0
 25 26  2  0  0  0  0
 26 27  1  0  0  0  0
M  END
>  <CHROM.1>
36.97967851,-59.07640588,-155.65260325,-59.04266290,-78.73793310,-44.77246154
-149.15998453,-5.34485681,-10.81712108,18.88480382,-0.17897200,-0.18517105
-0.86841726

>  <Name>
ligand

>  <RI>
0

>  <Rbt.Current_Directory>
/home/itssahil/PROJECTS/Mol_Feturizer/Test_systems_manuscript/rnas/4kqy

>  <Rbt.Executable>
rbdock ($Id: //depot/dev/client3/rdock/2013.1/src/exe/rbdock.cxx#4 $)

>  <Rbt.Library>
libRbt.so (2013.1, Build901 2013/11/27)

>  <Rbt.Parameter_File>
/export/apps/rDock/src/rDock_2013.1_src/data/scripts/dock_solv.prm

>  <Rbt.Receptor>
prm/pocket_docking_6.prm

>  <SCORE>
-14.1537

>  <SCORE.INTER>
-12.5641

>  <SCORE.INTER.CONST>
1

>  <SCORE.INTER.POLAR>
0

>  <SCORE.INTER.ROT>
7

>  <SCORE.INTER.SOLV>
18.7384

>  <SCORE.INTER.VDW>
-22.8889

>  <SCORE.INTER.norm>
-0.465338

>  <SCORE.INTRA>
-1.58955

>  <SCORE.INTRA.DIHEDRAL>
-3.86884

>  <SCORE.INTRA.DIHEDRAL.0>
10.4103

>  <SCORE.INTRA.POLAR>
0

>  <SCORE.INTRA.POLAR.0>
0

>  <SCORE.INTRA.REPUL>
0

>  <SCORE.INTRA.REPUL.0>
0

>  <SCORE.INTRA.SOLV>
0.349634

>  <SCORE.INTRA.SOLV.lig_0>
-49.5008

>  <SCORE.INTRA.VDW>
0.170049

>  <SCORE.INTRA.VDW.0>
-2.6946

>  <SCORE.INTRA.norm>
-0.0588724

>  <SCORE.RESTR>
0

>  <SCORE.RESTR.CAVITY>
0

>  <SCORE.RESTR.norm>
0

>  <SCORE.SYSTEM>
0

>  <SCORE.SYSTEM.CONST>
0

>  <SCORE.SYSTEM.DIHEDRAL>
0

>  <SCORE.SYSTEM.SOLV>
0

>  <SCORE.SYSTEM.norm>
0

>  <SCORE.heavy>
27

>  <SCORE.norm>
-0.524211

>  <RMSD>
4.166

$$$$
ligand
 OpenBabel02271912153D
libRbt.so/2013.1/901 2013/11/27
 27 29  0  0  0  0  0  0  0  0999 V2000
   -3.8679  -11.1073   15.1400 N   0  0  0  0  0  0  0  0  0  0  0  0
   -4.2409  -12.4111   15.6549 C   0  0  2  0  0  0  0  0  0  0  0  0
   -3.5679  -13.4379   14.7970 C   0  0  0  0  0  0  0  0  0  0  0  0
   -3.3900  -14.5892   15.2498 O   0  0  0  0  0  0  0  0  0  0  0  0
   -5.7606  -12.5911   15.6059 C   0  0  0  0  0  0  0  0  0  0  0  0
   -6.4770  -11.6119   16.5621 C   0  0  0  0  0  0  0  0  0  0  0  0
   -8.1513  -11.7191   16.5865 S   0  0  2  0  0  0  0  0  0  0  0  0
   -8.8009  -10.3573   15.8921 C   0  0  0  0  0  0  0  0  0  0  0  0
   -8.6883  -11.8924   18.1771 C   0  0  0  0  0  0  0  0  0  0  0  0
   -8.2793  -13.2261   18.8372 C   0  0  1  0  0  0  0  0  0  0  0  0
   -6.8589  -13.4461   18.8364 O   0  0  0  0  0  0  0  0  0  0  0  0
   -8.6086  -13.2972   20.3195 C   0  0  1  0  0  0  0  0  0  0  0  0
   -9.9892  -13.4982   20.6831 O   0  0  0  0  0  0  0  0  0  0  0  0
   -7.6945  -14.4169   20.7516 C   0  0  1  0  0  0  0  0  0  0  0  0
   -8.1837  -15.6630   20.2648 O   0  0  0  0  0  0  0  0  0  0  0  0
   -6.4181  -14.0835   20.0376 C   0  0  2  0  0  0  0  0  0  0  0  0
   -3.2236  -13.1343   13.6298 O   0  0  0  0  0  0  0  0  0  0  0  0
   -4.8071   -9.2772   21.6438 N   0  0  0  0  0  0  0  0  0  0  0  0
   -5.7881   -9.5995   20.7661 C   0  0  0  0  0  0  0  0  0  0  0  0
   -6.0869  -10.8691   20.4435 N   0  0  0  0  0  0  0  0  0  0  0  0
   -5.4430  -11.9069   20.9891 C   0  0  0  0  0  0  0  0  0  0  0  0
   -4.3931  -11.6261   21.9566 C   0  0  0  0  0  0  0  0  0  0  0  0
   -4.0582  -10.2229   22.2930 C   0  0  0  0  0  0  0  0  0  0  0  0
   -3.0702   -9.8949   23.1979 N   0  0  0  0  0  0  0  0  0  0  0  0
   -3.9403  -12.7977   22.3418 N   0  0  0  0  0  0  0  0  0  0  0  0
   -4.6044  -13.7577   21.6835 C   0  0  0  0  0  0  0  0  0  0  0  0
   -5.5167  -13.2285   20.8692 N   0  0  0  0  0  0  0  0  0  0  0  0
  2  1  1  6  0  0  0
  2  3  1  0  0  0  0
  2  5  1  0  0  0  0
  3  4  1  0  0  0  0
  3 17  1  0  0  0  0
  5  6  1  0  0  0  0
  7  6  1  1  0  0  0
  7  8  1  0  0  0  0
  7  9  1  0  0  0  0
 10  9  1  1  0  0  0
 10 11  1  0  0  0  0
 10 12  1  0  0  0  0
 11 16  1  0  0  0  0
 12 13  1  6  0  0  0
 12 14  1  0  0  0  0
 14 15  1  6  0  0  0
 14 16  1  0  0  0  0
 16 27  1  1  0  0  0
 18 19  2  0  0  0  0
 18 23  1  0  0  0  0
 19 20  1  0  0  0  0
 20 21  2  0  0  0  0
 21 22  1  0  0  0  0
 21 27  1  0  0  0  0
 22 23  2  0  0  0  0
 22 25  1  0  0  0  0
 23 24  1  0  0  0  0
 25 26  2  0  0  0  0
 26 27  1  0  0  0  0
M  END
>  <CHROM.1>
158.39275336,-65.70820908,179.84670017,-110.58182794,-66.64866941,56.78538209
28.62544877,-6.06875299,-12.37074904,18.81014782,-1.51673465,0.30496392,1.44765242

>  <Name>
ligand

>  <RI>
0

>  <Rbt.Current_Directory>
/home/itssahil/PROJECTS/Mol_Feturizer/Test_systems_manuscript/rnas/4kqy

>  <Rbt.Executable>
rbdock ($Id: //depot/dev/client3/rdock/2013.1/src/exe/rbdock.cxx#4 $)

>  <Rbt.Library>
libRbt.so (2013.1, Build901 2013/11/27)

>  <Rbt.Parameter_File>
/export/apps/rDock/src/rDock_2013.1_src/data/scripts/dock_solv.prm

>  <Rbt.Receptor>
prm/pocket_docking_6.prm

>  <SCORE>
-13.8081

>  <SCORE.INTER>
-11.6356

>  <SCORE.INTER.CONST>
1

>  <SCORE.INTER.POLAR>
0

>  <SCORE.INTER.ROT>
7

>  <SCORE.INTER.SOLV>
19.4786

>  <SCORE.INTER.VDW>
-22.5166

>  <SCORE.INTER.norm>
-0.43095

>  <SCORE.INTRA>
-2.1724

>  <SCORE.INTRA.DIHEDRAL>
-2.93168

>  <SCORE.INTRA.DIHEDRAL.0>
10.4103

>  <SCORE.INTRA.POLAR>
0

>  <SCORE.INTRA.POLAR.0>
0

>  <SCORE.INTRA.REPUL>
0

>  <SCORE.INTRA.REPUL.0>
0

>  <SCORE.INTRA.SOLV>
0.20894

>  <SCORE.INTRA.SOLV.lig_0>
-49.5008

>  <SCORE.INTRA.VDW>
-0.81103

>  <SCORE.INTRA.VDW.0>
-2.6946

>  <SCORE.INTRA.norm>
-0.0804593

>  <SCORE.RESTR>
0

>  <SCORE.RESTR.CAVITY>
0

>  <SCORE.RESTR.norm>
0

>  <SCORE.SYSTEM>
0

>  <SCORE.SYSTEM.CONST>
0

>  <SCORE.SYSTEM.DIHEDRAL>
0

>  <SCORE.SYSTEM.SOLV>
0

>  <SCORE.SYSTEM.norm>
0

>  <SCORE.heavy>
27

>  <SCORE.norm>
-0.511409

>  <RMSD>
4.220

$$$$
ligand
 OpenBabel02271912153D
libRbt.so/2013.1/901 2013/11/27
 27 29  0  0  0  0  0  0  0  0999 V2000
   -2.0477   -9.5553   13.9159 N   0  0  0  0  0  0  0  0  0  0  0  0
   -2.9397   -9.6690   15.0541 C   0  0  2  0  0  0  0  0  0  0  0  0
   -2.9502   -8.3407   15.7461 C   0  0  0  0  0  0  0  0  0  0  0  0
   -1.9016   -7.9254   16.2849 O   0  0  0  0  0  0  0  0  0  0  0  0
   -2.4522  -10.7619   16.0091 C   0  0  0  0  0  0  0  0  0  0  0  0
   -3.3775  -10.8915   17.2394 C   0  0  0  0  0  0  0  0  0  0  0  0
   -4.9943  -11.1858   16.9010 S   0  0  2  0  0  0  0  0  0  0  0  0
   -5.1098  -12.1202   15.5327 C   0  0  0  0  0  0  0  0  0  0  0  0
   -5.8091   -9.7221   16.6951 C   0  0  0  0  0  0  0  0  0  0  0  0
   -6.1339   -8.9919   18.0154 C   0  0  1  0  0  0  0  0  0  0  0  0
   -6.9487   -9.7706   18.9074 O   0  0  0  0  0  0  0  0  0  0  0  0
   -4.9096   -8.7100   18.8714 C   0  0  1  0  0  0  0  0  0  0  0  0
   -4.0388   -7.6405   18.4513 O   0  0  0  0  0  0  0  0  0  0  0  0
   -5.5592   -8.4767   20.2130 C   0  0  1  0  0  0  0  0  0  0  0  0
   -6.2363   -7.2235   20.2172 O   0  0  0  0  0  0  0  0  0  0  0  0
   -6.5755   -9.5784   20.2740 C   0  0  2  0  0  0  0  0  0  0  0  0
   -4.0005   -7.6551   15.7458 O   0  0  0  0  0  0  0  0  0  0  0  0
   -6.9616  -14.7645   21.3836 N   0  0  0  0  0  0  0  0  0  0  0  0
   -7.8042  -13.9793   20.6694 C   0  0  0  0  0  0  0  0  0  0  0  0
   -7.5849  -12.6685   20.4718 N   0  0  0  0  0  0  0  0  0  0  0  0
   -6.4996  -12.0533   20.9544 C   0  0  0  0  0  0  0  0  0  0  0  0
   -5.5447  -12.8484   21.7116 C   0  0  0  0  0  0  0  0  0  0  0  0
   -5.8035  -14.2889   21.9398 C   0  0  0  0  0  0  0  0  0  0  0  0
   -4.9383  -15.0918   22.6536 N   0  0  0  0  0  0  0  0  0  0  0  0
   -4.5827  -12.0212   22.0527 N   0  0  0  0  0  0  0  0  0  0  0  0
   -4.8768  -10.7985   21.5895 C   0  0  0  0  0  0  0  0  0  0  0  0
   -6.0294  -10.8106   20.9210 N   0  0  0  0  0  0  0  0  0  0  0  0
  2  1  1  6  0  0  0
  2  3  1  0  0  0  0
  2  5  1  0  0  0  0
  3  4  1  0  0  0  0
  3 17  1  0  0  0  0
  5  6  1  0  0  0  0
  7  6  1  6  0  0  0
  7  8  1  0  0  0  0
  7  9  1  0  0  0  0
 10  9  1  6  0  0  0
 10 11  1  0  0  0  0
 10 12  1  0  0  0  0
 11 16  1  0  0  0  0
 12 13  1  6  0  0  0
 12 14  1  0  0  0  0
 14 15  1  6  0  0  0
 14 16  1  0  0  0  0
 16 27  1  6  0  0  0
 18 19  2  0  0  0  0
 18 23  1  0  0  0  0
 19 20  1  0  0  0  0
 20 21  2  0  0  0  0
 21 22  1  0  0  0  0
 21 27  1  0  0  0  0
 22 23  2  0  0  0  0
 22 25  1  0  0  0  0
 23 24  1  0  0  0  0
 25 26  2  0  0  0  0
 26 27  1  0  0  0  0
M  END
>  <CHROM.1>
-65.25680492,179.33586947,56.34914401,33.43012977,-77.20285288,-58.99679468
-49.25126473,-5.02745591,-10.58865147,18.66410152,-0.62496737,-1.08137722
3.09450624

>  <Name>
ligand

>  <RI>
0

>  <Rbt.Current_Directory>
/home/itssahil/PROJECTS/Mol_Feturizer/Test_systems_manuscript/rnas/4kqy

>  <Rbt.Executable>
rbdock ($Id: //depot/dev/client3/rdock/2013.1/src/exe/rbdock.cxx#4 $)

>  <Rbt.Library>
libRbt.so (2013.1, Build901 2013/11/27)

>  <Rbt.Parameter_File>
/export/apps/rDock/src/rDock_2013.1_src/data/scripts/dock_solv.prm

>  <Rbt.Receptor>
prm/pocket_docking_3.prm

>  <SCORE>
-7.51201

>  <SCORE.INTER>
-6.57193

>  <SCORE.INTER.CONST>
1

>  <SCORE.INTER.POLAR>
0

>  <SCORE.INTER.ROT>
7

>  <SCORE.INTER.SOLV>
19.3905

>  <SCORE.INTER.VDW>
-19.1114

>  <SCORE.INTER.norm>
-0.243405

>  <SCORE.INTRA>
-0.942729

>  <SCORE.INTRA.DIHEDRAL>
-4.63733

>  <SCORE.INTRA.DIHEDRAL.0>
10.4103

>  <SCORE.INTRA.POLAR>
0

>  <SCORE.INTRA.POLAR.0>
0

>  <SCORE.INTRA.REPUL>
0

>  <SCORE.INTRA.REPUL.0>
0

>  <SCORE.INTRA.SOLV>
0.730095

>  <SCORE.INTRA.SOLV.lig_0>
-49.5008

>  <SCORE.INTRA.VDW>
1.01089

>  <SCORE.INTRA.VDW.0>
-2.6946

>  <SCORE.INTRA.norm>
-0.0349159

>  <SCORE.RESTR>
0.00265181

>  <SCORE.RESTR.CAVITY>
0.00265181

>  <SCORE.RESTR.norm>
9.82152e-05

>  <SCORE.SYSTEM>
0

>  <SCORE.SYSTEM.CONST>
0

>  <SCORE.SYSTEM.DIHEDRAL>
0

>  <SCORE.SYSTEM.SOLV>
0

>  <SCORE.SYSTEM.norm>
0

>  <SCORE.heavy>
27

>  <SCORE.norm>
-0.278222

>  <RMSD>
4.518

$$$$
ligand
 OpenBabel02271912153D
libRbt.so/2013.1/901 2013/11/27
 27 29  0  0  0  0  0  0  0  0999 V2000
   -2.5831  -12.8640   13.7772 N   0  0  0  0  0  0  0  0  0  0  0  0
   -3.5351  -13.0613   14.8537 C   0  0  2  0  0  0  0  0  0  0  0  0
   -3.8608  -11.7108   15.4132 C   0  0  0  0  0  0  0  0  0  0  0  0
   -3.3206  -10.6986   14.9172 O   0  0  0  0  0  0  0  0  0  0  0  0
   -2.9352  -13.9565   15.9413 C   0  0  0  0  0  0  0  0  0  0  0  0
   -1.4854  -13.5428   16.2780 C   0  0  0  0  0  0  0  0  0  0  0  0
   -1.3045  -12.0096   16.9350 S   0  0  2  0  0  0  0  0  0  0  0  0
    0.3100  -11.6973   17.1691 C   0  0  0  0  0  0  0  0  0  0  0  0
   -2.1493  -11.9109   18.3928 C   0  0  0  0  0  0  0  0  0  0  0  0
   -2.4157  -10.4672   18.8688 C   0  0  1  0  0  0  0  0  0  0  0  0
   -2.7915   -9.5797   17.8025 O   0  0  0  0  0  0  0  0  0  0  0  0
   -3.6017  -10.3470   19.8121 C   0  0  1  0  0  0  0  0  0  0  0  0
   -3.4186  -10.7996   21.1687 O   0  0  0  0  0  0  0  0  0  0  0  0
   -3.8981   -8.8723   19.6956 C   0  0  1  0  0  0  0  0  0  0  0  0
   -2.8922   -8.1170   20.3639 O   0  0  0  0  0  0  0  0  0  0  0  0
   -3.7821   -8.6368   18.2187 C   0  0  2  0  0  0  0  0  0  0  0  0
   -4.6925  -11.6161   16.3473 O   0  0  0  0  0  0  0  0  0  0  0  0
   -8.7291  -10.5827   18.0897 N   0  0  0  0  0  0  0  0  0  0  0  0
   -7.7887  -10.7048   19.0578 C   0  0  0  0  0  0  0  0  0  0  0  0
   -6.5640  -10.1618   18.9548 N   0  0  0  0  0  0  0  0  0  0  0  0
   -6.1982   -9.4412   17.8888 C   0  0  0  0  0  0  0  0  0  0  0  0
   -7.1725   -9.2550   16.8243 C   0  0  0  0  0  0  0  0  0  0  0  0
   -8.5142   -9.8722   16.9382 C   0  0  0  0  0  0  0  0  0  0  0  0
   -9.4769   -9.7351   15.9599 N   0  0  0  0  0  0  0  0  0  0  0  0
   -6.5752   -8.5125   15.9199 N   0  0  0  0  0  0  0  0  0  0  0  0
   -5.3265   -8.2498   16.3294 C   0  0  0  0  0  0  0  0  0  0  0  0
   -5.0929   -8.8023   17.5192 N   0  0  0  0  0  0  0  0  0  0  0  0
  2  1  1  6  0  0  0
  2  3  1  0  0  0  0
  2  5  1  0  0  0  0
  3  4  1  0  0  0  0
  3 17  1  0  0  0  0
  5  6  1  0  0  0  0
  7  6  1  1  0  0  0
  7  8  1  0  0  0  0
  7  9  1  0  0  0  0
 10  9  1  6  0  0  0
 10 11  1  0  0  0  0
 10 12  1  0  0  0  0
 11 16  1  0  0  0  0
 12 13  1  1  0  0  0
 12 14  1  0  0  0  0
 14 15  1  1  0  0  0
 14 16  1  0  0  0  0
 16 27  1  6  0  0  0
 18 19  2  0  0  0  0
 18 23  1  0  0  0  0
 19 20  1  0  0  0  0
 20 21  2  0  0  0  0
 21 22  1  0  0  0  0
 21 27  1  0  0  0  0
 22 23  2  0  0  0  0
 22 25  1  0  0  0  0
 23 24  1  0  0  0  0
 25 26  2  0  0  0  0
 26 27  1  0  0  0  0
M  END
>  <CHROM.1>
0.22483654,44.81341484,63.72689653,-177.33933566,-162.40988801,40.91306074
96.63284169,-4.20320664,-10.64800290,17.38186348,0.35439049,0.30336617,-2.12358605

>  <Name>
ligand

>  <RI>
0

>  <Rbt.Current_Directory>
/home/itssahil/PROJECTS/Mol_Feturizer/Test_systems_manuscript/rnas/4kqy

>  <Rbt.Executable>
rbdock ($Id: //depot/dev/client3/rdock/2013.1/src/exe/rbdock.cxx#4 $)

>  <Rbt.Library>
libRbt.so (2013.1, Build901 2013/11/27)

>  <Rbt.Parameter_File>
/export/apps/rDock/src/rDock_2013.1_src/data/scripts/dock_solv.prm

>  <Rbt.Receptor>
prm/pocket_docking_7.prm

>  <SCORE>
-11.702

>  <SCORE.INTER>
-8.34155

>  <SCORE.INTER.CONST>
1

>  <SCORE.INTER.POLAR>
0

>  <SCORE.INTER.ROT>
7

>  <SCORE.INTER.SOLV>
9.33051

>  <SCORE.INTER.VDW>
-16.9379

>  <SCORE.INTER.norm>
-0.308946

>  <SCORE.INTRA>
-3.36048

>  <SCORE.INTRA.DIHEDRAL>
-4.67093

>  <SCORE.INTRA.DIHEDRAL.0>
10.4103

>  <SCORE.INTRA.POLAR>
0

>  <SCORE.INTRA.POLAR.0>
0

>  <SCORE.INTRA.REPUL>
0

>  <SCORE.INTRA.REPUL.0>
0

>  <SCORE.INTRA.SOLV>
1.38706

>  <SCORE.INTRA.SOLV.lig_0>
-49.5008

>  <SCORE.INTRA.VDW>
-1.71854

>  <SCORE.INTRA.VDW.0>
-2.6946

>  <SCORE.INTRA.norm>
-0.124462

>  <SCORE.RESTR>
0

>  <SCORE.RESTR.CAVITY>
0

>  <SCORE.RESTR.norm>
0

>  <SCORE.SYSTEM>
0

>  <SCORE.SYSTEM.CONST>
0

>  <SCORE.SYSTEM.DIHEDRAL>
0

>  <SCORE.SYSTEM.SOLV>
0

>  <SCORE.SYSTEM.norm>
0

>  <SCORE.heavy>
27

>  <SCORE.norm>
-0.433408

>  <RMSD>
4.576

$$$$
ligand
 OpenBabel02271912153D
libRbt.so/2013.1/901 2013/11/27
 27 29  0  0  0  0  0  0  0  0999 V2000
   -2.0359  -11.5431   14.6823 N   0  0  0  0  0  0  0  0  0  0  0  0
   -1.7652  -10.4238   15.5643 C   0  0  2  0  0  0  0  0  0  0  0  0
   -1.2528   -9.3014   14.7152 C   0  0  0  0  0  0  0  0  0  0  0  0
   -1.7091   -8.1503   14.8855 O   0  0  0  0  0  0  0  0  0  0  0  0
   -0.7236  -10.8118   16.6173 C   0  0  0  0  0  0  0  0  0  0  0  0
   -1.3257  -11.7451   17.6910 C   0  0  0  0  0  0  0  0  0  0  0  0
   -2.5487  -11.0780   18.6262 S   0  0  2  0  0  0  0  0  0  0  0  0
   -4.0057  -11.2822   17.8553 C   0  0  0  0  0  0  0  0  0  0  0  0
   -2.2365   -9.4403   18.8889 C   0  0  0  0  0  0  0  0  0  0  0  0
   -3.1189   -8.7990   19.9806 C   0  0  1  0  0  0  0  0  0  0  0  0
   -4.5084   -8.7331   19.6191 O   0  0  0  0  0  0  0  0  0  0  0  0
   -3.1665   -9.5996   21.2720 C   0  0  1  0  0  0  0  0  0  0  0  0
   -2.0069   -9.5481   22.1272 O   0  0  0  0  0  0  0  0  0  0  0  0
   -4.4148   -9.0328   21.9018 C   0  0  1  0  0  0  0  0  0  0  0  0
   -4.1703   -7.7086   22.3663 O   0  0  0  0  0  0  0  0  0  0  0  0
   -5.3622   -8.9734   20.7403 C   0  0  2  0  0  0  0  0  0  0  0  0
   -0.3536   -9.5297   13.8711 O   0  0  0  0  0  0  0  0  0  0  0  0
   -5.9574  -14.1926   21.5658 N   0  0  0  0  0  0  0  0  0  0  0  0
   -4.9196  -13.3882   21.9010 C   0  0  0  0  0  0  0  0  0  0  0  0
   -4.8982  -12.0741   21.6217 N   0  0  0  0  0  0  0  0  0  0  0  0
   -5.9191  -11.4657   21.0077 C   0  0  0  0  0  0  0  0  0  0  0  0
   -7.0737  -12.2723   20.6420 C   0  0  0  0  0  0  0  0  0  0  0  0
   -7.0810  -13.7237   20.9377 C   0  0  0  0  0  0  0  0  0  0  0  0
   -8.1439  -14.5398   20.6106 N   0  0  0  0  0  0  0  0  0  0  0  0
   -7.9225  -11.4443   20.0764 N   0  0  0  0  0  0  0  0  0  0  0  0
   -7.3809  -10.2188   20.0487 C   0  0  0  0  0  0  0  0  0  0  0  0
   -6.1741  -10.2223   20.6137 N   0  0  0  0  0  0  0  0  0  0  0  0
  2  1  1  6  0  0  0
  2  3  1  0  0  0  0
  2  5  1  0  0  0  0
  3  4  1  0  0  0  0
  3 17  1  0  0  0  0
  5  6  1  0  0  0  0
  7  6  1  6  0  0  0
  7  8  1  0  0  0  0
  7  9  1  0  0  0  0
 10  9  1  6  0  0  0
 10 11  1  0  0  0  0
 10 12  1  0  0  0  0
 11 16  1  0  0  0  0
 12 13  1  1  0  0  0
 12 14  1  0  0  0  0
 14 15  1  6  0  0  0
 14 16  1  0  0  0  0
 16 27  1  6  0  0  0
 18 19  2  0  0  0  0
 18 23  1  0  0  0  0
 19 20  1  0  0  0  0
 20 21  2  0  0  0  0
 21 22  1  0  0  0  0
 21 27  1  0  0  0  0
 22 23  2  0  0  0  0
 22 25  1  0  0  0  0
 23 24  1  0  0  0  0
 25 26  2  0  0  0  0
 26 27  1  0  0  0  0
M  END
>  <CHROM.1>
134.13134768,-73.73510133,-63.76736989,86.66680340,-167.32983777,-66.55140285
91.26443045,-3.92980516,-10.66643830,19.19707122,0.41059706,-0.79946439,-2.25161528

>  <Name>
ligand

>  <RI>
0

>  <Rbt.Current_Directory>
/home/itssahil/PROJECTS/Mol_Feturizer/Test_systems_manuscript/rnas/4kqy

>  <Rbt.Executable>
rbdock ($Id: //depot/dev/client3/rdock/2013.1/src/exe/rbdock.cxx#4 $)

>  <Rbt.Library>
libRbt.so (2013.1, Build901 2013/11/27)

>  <Rbt.Parameter_File>
/export/apps/rDock/src/rDock_2013.1_src/data/scripts/dock_solv.prm

>  <Rbt.Receptor>
prm/pocket_docking_7.prm

>  <SCORE>
-18.4331

>  <SCORE.INTER>
-16.3036

>  <SCORE.INTER.CONST>
1

>  <SCORE.INTER.POLAR>
0

>  <SCORE.INTER.ROT>
7

>  <SCORE.INTER.SOLV>
11.3231

>  <SCORE.INTER.VDW>
-22.9101

>  <SCORE.INTER.norm>
-0.603837

>  <SCORE.INTRA>
-2.17021

>  <SCORE.INTRA.DIHEDRAL>
-4.44943

>  <SCORE.INTRA.DIHEDRAL.0>
10.4103

>  <SCORE.INTRA.POLAR>
0

>  <SCORE.INTRA.POLAR.0>
0

>  <SCORE.INTRA.REPUL>
0

>  <SCORE.INTRA.REPUL.0>
0

>  <SCORE.INTRA.SOLV>
1.46714

>  <SCORE.INTRA.SOLV.lig_0>
-49.5008

>  <SCORE.INTRA.VDW>
-0.679062

>  <SCORE.INTRA.VDW.0>
-2.6946

>  <SCORE.INTRA.norm>
-0.080378

>  <SCORE.RESTR>
0.0407334

>  <SCORE.RESTR.CAVITY>
0.0407334

>  <SCORE.RESTR.norm>
0.00150864

>  <SCORE.SYSTEM>
0

>  <SCORE.SYSTEM.CONST>
0

>  <SCORE.SYSTEM.DIHEDRAL>
0

>  <SCORE.SYSTEM.SOLV>
0

>  <SCORE.SYSTEM.norm>
0

>  <SCORE.heavy>
27

>  <SCORE.norm>
-0.682707

>  <RMSD>
4.637

$$$$
ligand
 OpenBabel02271912153D
libRbt.so/2013.1/901 2013/11/27
 27 29  0  0  0  0  0  0  0  0999 V2000
   -3.9452  -10.2719   17.0167 N   0  0  0  0  0  0  0  0  0  0  0  0
   -4.3741   -8.9064   17.2531 C   0  0  2  0  0  0  0  0  0  0  0  0
   -4.7978   -8.3380   15.9339 C   0  0  0  0  0  0  0  0  0  0  0  0
   -4.1387   -8.6175   14.9093 O   0  0  0  0  0  0  0  0  0  0  0  0
   -3.2285   -8.0804   17.8444 C   0  0  0  0  0  0  0  0  0  0  0  0
   -2.6926   -8.7099   19.1494 C   0  0  0  0  0  0  0  0  0  0  0  0
   -3.7484   -8.6816   20.4531 S   0  0  2  0  0  0  0  0  0  0  0  0
   -3.9526   -7.1141   20.9630 C   0  0  0  0  0  0  0  0  0  0  0  0
   -3.1390   -9.6408   21.7010 C   0  0  0  0  0  0  0  0  0  0  0  0
   -3.7724  -11.0458   21.7810 C   0  0  1  0  0  0  0  0  0  0  0  0
   -5.1916  -11.0151   22.0064 O   0  0  0  0  0  0  0  0  0  0  0  0
   -3.6761  -11.8310   20.4829 C   0  0  1  0  0  0  0  0  0  0  0  0
   -2.3920  -12.3893   20.1392 O   0  0  0  0  0  0  0  0  0  0  0  0
   -4.7512  -12.8656   20.7062 C   0  0  1  0  0  0  0  0  0  0  0  0
   -4.3215  -13.8159   21.6765 O   0  0  0  0  0  0  0  0  0  0  0  0
   -5.8675  -12.0490   21.2869 C   0  0  2  0  0  0  0  0  0  0  0  0
   -5.8233   -7.6182   15.8750 O   0  0  0  0  0  0  0  0  0  0  0  0
  -10.0722  -12.7309   18.1038 N   0  0  0  0  0  0  0  0  0  0  0  0
   -9.5411  -13.5857   19.0115 C   0  0  0  0  0  0  0  0  0  0  0  0
   -8.4604  -13.2829   19.7502 N   0  0  0  0  0  0  0  0  0  0  0  0
   -7.8463  -12.0986   19.6512 C   0  0  0  0  0  0  0  0  0  0  0  0
   -8.3833  -11.1283   18.7091 C   0  0  0  0  0  0  0  0  0  0  0  0
   -9.5642  -11.4774   17.8858 C   0  0  0  0  0  0  0  0  0  0  0  0
  -10.1144  -10.6017   16.9730 N   0  0  0  0  0  0  0  0  0  0  0  0
   -7.6184  -10.0656   18.8166 N   0  0  0  0  0  0  0  0  0  0  0  0
   -6.6593  -10.3104   19.7201 C   0  0  0  0  0  0  0  0  0  0  0  0
   -6.7931  -11.5333   20.2322 N   0  0  0  0  0  0  0  0  0  0  0  0
  2  1  1  6  0  0  0
  2  3  1  0  0  0  0
  2  5  1  0  0  0  0
  3  4  1  0  0  0  0
  3 17  1  0  0  0  0
  5  6  1  0  0  0  0
  7  6  1  6  0  0  0
  7  8  1  0  0  0  0
  7  9  1  0  0  0  0
 10  9  1  6  0  0  0
 10 11  1  0  0  0  0
 10 12  1  0  0  0  0
 11 16  1  0  0  0  0
 12 13  1  1  0  0  0
 12 14  1  0  0  0  0
 14 15  1  1  0  0  0
 14 16  1  0  0  0  0
 16 27  1  6  0  0  0
 18 19  2  0  0  0  0
 18 23  1  0  0  0  0
 19 20  1  0  0  0  0
 20 21  2  0  0  0  0
 21 22  1  0  0  0  0
 21 27  1  0  0  0  0
 22 23  2  0  0  0  0
 22 25  1  0  0  0  0
 23 24  1  0  0  0  0
 25 26  2  0  0  0  0
 26 27  1  0  0  0  0
M  END
>  <CHROM.1>
-39.27855775,-56.88615302,-67.63564633,-68.56933830,-99.74830403,-60.50827804
-157.54994461,-5.55645785,-10.53532244,19.25030189,0.26813853,-0.47050892
-0.88303686

>  <Name>
ligand

>  <RI>
0

>  <Rbt.Current_Directory>
/home/itssahil/PROJECTS/Mol_Feturizer/Test_systems_manuscript/rnas/4kqy

>  <Rbt.Executable>
rbdock ($Id: //depot/dev/client3/rdock/2013.1/src/exe/rbdock.cxx#4 $)

>  <Rbt.Library>
libRbt.so (2013.1, Build901 2013/11/27)

>  <Rbt.Parameter_File>
/export/apps/rDock/src/rDock_2013.1_src/data/scripts/dock_solv.prm

>  <Rbt.Receptor>
prm/pocket_docking_7.prm

>  <SCORE>
-18.4609

>  <SCORE.INTER>
-16.2728

>  <SCORE.INTER.CONST>
1

>  <SCORE.INTER.POLAR>
0

>  <SCORE.INTER.ROT>
7

>  <SCORE.INTER.SOLV>
10.8539

>  <SCORE.INTER.VDW>
-22.7332

>  <SCORE.INTER.norm>
-0.602698

>  <SCORE.INTRA>
-2.18801

>  <SCORE.INTRA.DIHEDRAL>
-3.46696

>  <SCORE.INTRA.DIHEDRAL.0>
10.4103

>  <SCORE.INTRA.POLAR>
0

>  <SCORE.INTRA.POLAR.0>
0

>  <SCORE.INTRA.REPUL>
0

>  <SCORE.INTRA.REPUL.0>
0

>  <SCORE.INTRA.SOLV>
1.85247

>  <SCORE.INTRA.SOLV.lig_0>
-49.5008

>  <SCORE.INTRA.VDW>
-1.38076

>  <SCORE.INTRA.VDW.0>
-2.6946

>  <SCORE.INTRA.norm>
-0.0810374

>  <SCORE.RESTR>
0

>  <SCORE.RESTR.CAVITY>
0

>  <SCORE.RESTR.norm>
0

>  <SCORE.SYSTEM>
0

>  <SCORE.SYSTEM.CONST>
0

>  <SCORE.SYSTEM.DIHEDRAL>
0

>  <SCORE.SYSTEM.SOLV>
0

>  <SCORE.SYSTEM.norm>
0

>  <SCORE.heavy>
27

>  <SCORE.norm>
-0.683735

>  <RMSD>
4.664

$$$$
ligand
 OpenBabel02271912153D
libRbt.so/2013.1/901 2013/11/27
 27 29  0  0  0  0  0  0  0  0999 V2000
   -1.4678  -10.8407   14.8762 N   0  0  0  0  0  0  0  0  0  0  0  0
   -1.4448  -10.1388   16.1455 C   0  0  2  0  0  0  0  0  0  0  0  0
   -1.9611  -11.0838   17.1864 C   0  0  0  0  0  0  0  0  0  0  0  0
   -1.2462  -11.3504   18.1764 O   0  0  0  0  0  0  0  0  0  0  0  0
   -2.3244   -8.8872   16.0809 C   0  0  0  0  0  0  0  0  0  0  0  0
   -2.3358   -8.1340   17.4296 C   0  0  0  0  0  0  0  0  0  0  0  0
   -3.4220   -8.7104   18.5711 S   0  0  2  0  0  0  0  0  0  0  0  0
   -4.5649   -7.5459   18.8816 C   0  0  0  0  0  0  0  0  0  0  0  0
   -2.5970   -9.1287   19.9828 C   0  0  0  0  0  0  0  0  0  0  0  0
   -3.3967  -10.0485   20.9296 C   0  0  1  0  0  0  0  0  0  0  0  0
   -4.7379   -9.5888   21.1662 O   0  0  0  0  0  0  0  0  0  0  0  0
   -3.6349  -11.4405   20.3672 C   0  0  1  0  0  0  0  0  0  0  0  0
   -2.5192  -12.3537   20.3627 O   0  0  0  0  0  0  0  0  0  0  0  0
   -4.7892  -11.8916   21.2276 C   0  0  1  0  0  0  0  0  0  0  0  0
   -4.3359  -12.1644   22.5502 O   0  0  0  0  0  0  0  0  0  0  0  0
   -5.6645  -10.6737   21.2554 C   0  0  2  0  0  0  0  0  0  0  0  0
   -3.1124  -11.5658   17.0629 O   0  0  0  0  0  0  0  0  0  0  0  0
   -9.7266  -13.0143   18.7460 N   0  0  0  0  0  0  0  0  0  0  0  0
   -9.0471  -13.4297   19.8425 C   0  0  0  0  0  0  0  0  0  0  0  0
   -8.0258  -12.7353   20.3716 N   0  0  0  0  0  0  0  0  0  0  0  0
   -7.6240  -11.5676   19.8573 C   0  0  0  0  0  0  0  0  0  0  0  0
   -8.3294  -11.0568   18.6915 C   0  0  0  0  0  0  0  0  0  0  0  0
   -9.4426  -11.8379   18.1041 C   0  0  0  0  0  0  0  0  0  0  0  0
  -10.1444  -11.4077   16.9972 N   0  0  0  0  0  0  0  0  0  0  0  0
   -7.7560   -9.9110   18.4014 N   0  0  0  0  0  0  0  0  0  0  0  0
   -6.7591   -9.6920   19.2698 C   0  0  0  0  0  0  0  0  0  0  0  0
   -6.6764  -10.6846   20.1549 N   0  0  0  0  0  0  0  0  0  0  0  0
  2  1  1  6  0  0  0
  2  3  1  0  0  0  0
  2  5  1  0  0  0  0
  3  4  1  0  0  0  0
  3 17  1  0  0  0  0
  5  6  1  0  0  0  0
  7  6  1  6  0  0  0
  7  8  1  0  0  0  0
  7  9  1  0  0  0  0
 10  9  1  6  0  0  0
 10 11  1  0  0  0  0
 10 12  1  0  0  0  0
 11 16  1  0  0  0  0
 12 13  1  1  0  0  0
 12 14  1  0  0  0  0
 14 15  1  1  0  0  0
 14 16  1  0  0  0  0
 16 27  1  6  0  0  0
 18 19  2  0  0  0  0
 18 23  1  0  0  0  0
 19 20  1  0  0  0  0
 20 21  2  0  0  0  0
 21 22  1  0  0  0  0
 21 27  1  0  0  0  0
 22 23  2  0  0  0  0
 22 25  1  0  0  0  0
 23 24  1  0  0  0  0
 25 26  2  0  0  0  0
 26 27  1  0  0  0  0
M  END
>  <CHROM.1>
122.99229940,179.03541832,-83.47783513,-115.54240687,-162.53282943,-48.31740625
175.01438112,-4.90220539,-10.66395203,18.98344187,0.30836756,-0.23902317
-1.33331292

>  <Name>
ligand

>  <RI>
0

>  <Rbt.Current_Directory>
/home/itssahil/PROJECTS/Mol_Feturizer/Test_systems_manuscript/rnas/4kqy

>  <Rbt.Executable>
rbdock ($Id: //depot/dev/client3/rdock/2013.1/src/exe/rbdock.cxx#4 $)

>  <Rbt.Library>
libRbt.so (2013.1, Build901 2013/11/27)

>  <Rbt.Parameter_File>
/export/apps/rDock/src/rDock_2013.1_src/data/scripts/dock_solv.prm

>  <Rbt.Receptor>
prm/pocket_docking_7.prm

>  <SCORE>
-14.8412

>  <SCORE.INTER>
-13.3006

>  <SCORE.INTER.CONST>
1

>  <SCORE.INTER.POLAR>
0

>  <SCORE.INTER.ROT>
7

>  <SCORE.INTER.SOLV>
8.86967

>  <SCORE.INTER.VDW>
-20.0903

>  <SCORE.INTER.norm>
-0.492616

>  <SCORE.INTRA>
-1.54061

>  <SCORE.INTRA.DIHEDRAL>
0.23874

>  <SCORE.INTRA.DIHEDRAL.0>
10.4103

>  <SCORE.INTRA.POLAR>
0

>  <SCORE.INTRA.POLAR.0>
0

>  <SCORE.INTRA.REPUL>
0

>  <SCORE.INTRA.REPUL.0>
0

>  <SCORE.INTRA.SOLV>
-0.0678459

>  <SCORE.INTRA.SOLV.lig_0>
-49.5008

>  <SCORE.INTRA.VDW>
-1.62606

>  <SCORE.INTRA.VDW.0>
-2.6946

>  <SCORE.INTRA.norm>
-0.0570596

>  <SCORE.RESTR>
0

>  <SCORE.RESTR.CAVITY>
0

>  <SCORE.RESTR.norm>
0

>  <SCORE.SYSTEM>
0

>  <SCORE.SYSTEM.CONST>
0

>  <SCORE.SYSTEM.DIHEDRAL>
0

>  <SCORE.SYSTEM.SOLV>
0

>  <SCORE.SYSTEM.norm>
0

>  <SCORE.heavy>
27

>  <SCORE.norm>
-0.549675

>  <RMSD>
4.677

$$$$
ligand
 OpenBabel02271912153D
libRbt.so/2013.1/901 2013/11/27
 27 29  0  0  0  0  0  0  0  0999 V2000
   -4.1995  -12.7199   16.6115 N   0  0  0  0  0  0  0  0  0  0  0  0
   -3.8545  -11.5316   15.8543 C   0  0  2  0  0  0  0  0  0  0  0  0
   -4.0503  -11.8546   14.4050 C   0  0  0  0  0  0  0  0  0  0  0  0
   -3.7587  -12.9969   13.9899 O   0  0  0  0  0  0  0  0  0  0  0  0
   -2.4001  -11.1325   16.1181 C   0  0  0  0  0  0  0  0  0  0  0  0
   -2.1769  -10.7562   17.5997 C   0  0  0  0  0  0  0  0  0  0  0  0
   -3.0036   -9.3973   18.1335 S   0  0  2  0  0  0  0  0  0  0  0  0
   -2.6101   -8.1003   17.1735 C   0  0  0  0  0  0  0  0  0  0  0  0
   -2.6109   -9.0879   19.7456 C   0  0  0  0  0  0  0  0  0  0  0  0
   -3.4078   -9.9342   20.7606 C   0  0  1  0  0  0  0  0  0  0  0  0
   -4.7453   -9.4525   20.9730 O   0  0  0  0  0  0  0  0  0  0  0  0
   -3.6560  -11.3616   20.3002 C   0  0  1  0  0  0  0  0  0  0  0  0
   -2.5443  -12.2781   20.3531 O   0  0  0  0  0  0  0  0  0  0  0  0
   -4.8061  -11.7448   21.1984 C   0  0  1  0  0  0  0  0  0  0  0  0
   -4.3446  -11.9252   22.5338 O   0  0  0  0  0  0  0  0  0  0  0  0
   -5.6759  -10.5238   21.1454 C   0  0  2  0  0  0  0  0  0  0  0  0
   -4.5321  -10.9848   13.6405 O   0  0  0  0  0  0  0  0  0  0  0  0
   -9.7630  -13.0194   18.8338 N   0  0  0  0  0  0  0  0  0  0  0  0
   -9.0772  -13.3596   19.9520 C   0  0  0  0  0  0  0  0  0  0  0  0
   -8.0499  -12.6335   20.4242 N   0  0  0  0  0  0  0  0  0  0  0  0
   -7.6481  -11.5062   19.8267 C   0  0  0  0  0  0  0  0  0  0  0  0
   -8.3601  -11.0756   18.6329 C   0  0  0  0  0  0  0  0  0  0  0  0
   -9.4799  -11.8918   18.1092 C   0  0  0  0  0  0  0  0  0  0  0  0
  -10.1882  -11.5376   16.9798 N   0  0  0  0  0  0  0  0  0  0  0  0
   -7.7852   -9.9550   18.2593 N   0  0  0  0  0  0  0  0  0  0  0  0
   -6.7815   -9.6794   19.1035 C   0  0  0  0  0  0  0  0  0  0  0  0
   -6.6956  -10.6079   20.0553 N   0  0  0  0  0  0  0  0  0  0  0  0
  2  1  1  1  0  0  0
  2  3  1  0  0  0  0
  2  5  1  0  0  0  0
  3  4  1  0  0  0  0
  3 17  1  0  0  0  0
  5  6  1  0  0  0  0
  7  6  1  6  0  0  0
  7  8  1  0  0  0  0
  7  9  1  0  0  0  0
 10  9  1  6  0  0  0
 10 11  1  0  0  0  0
 10 12  1  0  0  0  0
 11 16  1  0  0  0  0
 12 13  1  1  0  0  0
 12 14  1  0  0  0  0
 14 15  1  1  0  0  0
 14 16  1  0  0  0  0
 16 27  1  6  0  0  0
 18 19  2  0  0  0  0
 18 23  1  0  0  0  0
 19 20  1  0  0  0  0
 20 21  2  0  0  0  0
 21 22  1  0  0  0  0
 21 27  1  0  0  0  0
 22 23  2  0  0  0  0
 22 25  1  0  0  0  0
 23 24  1  0  0  0  0
 25 26  2  0  0  0  0
 26 27  1  0  0  0  0
M  END
>  <CHROM.1>
-37.07013314,-63.09236162,-64.61708939,-56.23765371,-82.10253194,-78.00517058
174.92232175,-5.20752142,-11.05939885,18.50567974,0.42785888,-0.28292646
-1.70560164

>  <Name>
ligand

>  <RI>
0

>  <Rbt.Current_Directory>
/home/itssahil/PROJECTS/Mol_Feturizer/Test_systems_manuscript/rnas/4kqy

>  <Rbt.Executable>
rbdock ($Id: //depot/dev/client3/rdock/2013.1/src/exe/rbdock.cxx#4 $)

>  <Rbt.Library>
libRbt.so (2013.1, Build901 2013/11/27)

>  <Rbt.Parameter_File>
/export/apps/rDock/src/rDock_2013.1_src/data/scripts/dock_solv.prm

>  <Rbt.Receptor>
prm/pocket_docking_6.prm

>  <SCORE>
-11.9916

>  <SCORE.INTER>
-10.6221

>  <SCORE.INTER.CONST>
1

>  <SCORE.INTER.POLAR>
0

>  <SCORE.INTER.ROT>
7

>  <SCORE.INTER.SOLV>
8.0846

>  <SCORE.INTER.VDW>
-18.0429

>  <SCORE.INTER.norm>
-0.393411

>  <SCORE.INTRA>
-1.36951

>  <SCORE.INTRA.DIHEDRAL>
-4.99124

>  <SCORE.INTRA.DIHEDRAL.0>
10.4103

>  <SCORE.INTRA.POLAR>
0

>  <SCORE.INTRA.POLAR.0>
0

>  <SCORE.INTRA.REPUL>
0

>  <SCORE.INTRA.REPUL.0>
0

>  <SCORE.INTRA.SOLV>
1.65038

>  <SCORE.INTRA.SOLV.lig_0>
-49.5008

>  <SCORE.INTRA.VDW>
0.300921

>  <SCORE.INTRA.VDW.0>
-2.6946

>  <SCORE.INTRA.norm>
-0.0507225

>  <SCORE.RESTR>
0

>  <SCORE.RESTR.CAVITY>
0

>  <SCORE.RESTR.norm>
0

>  <SCORE.SYSTEM>
0

>  <SCORE.SYSTEM.CONST>
0

>  <SCORE.SYSTEM.DIHEDRAL>
0

>  <SCORE.SYSTEM.SOLV>
0

>  <SCORE.SYSTEM.norm>
0

>  <SCORE.heavy>
27

>  <SCORE.norm>
-0.444133

>  <RMSD>
4.690

$$$$
ligand
 OpenBabel02271912153D
libRbt.so/2013.1/901 2013/11/27
 27 29  0  0  0  0  0  0  0  0999 V2000
   -2.8079   -7.2854   16.1084 N   0  0  0  0  0  0  0  0  0  0  0  0
   -2.3146   -8.0570   17.2333 C   0  0  2  0  0  0  0  0  0  0  0  0
   -1.9321   -9.4083   16.7130 C   0  0  0  0  0  0  0  0  0  0  0  0
   -2.6048   -9.9203   15.7924 O   0  0  0  0  0  0  0  0  0  0  0  0
   -3.3972   -8.1883   18.3080 C   0  0  0  0  0  0  0  0  0  0  0  0
   -2.8578   -8.8971   19.5702 C   0  0  0  0  0  0  0  0  0  0  0  0
   -3.8868   -8.8974   20.8954 S   0  0  2  0  0  0  0  0  0  0  0  0
   -3.9564   -7.3681   21.5396 C   0  0  0  0  0  0  0  0  0  0  0  0
   -3.3365  -10.0047   22.0442 C   0  0  0  0  0  0  0  0  0  0  0  0
   -3.9366  -11.4185   21.8929 C   0  0  1  0  0  0  0  0  0  0  0  0
   -5.3633  -11.4493   22.0644 O   0  0  0  0  0  0  0  0  0  0  0  0
   -3.7738  -12.0023   20.4988 C   0  0  1  0  0  0  0  0  0  0  0  0
   -2.4644  -12.4784   20.1281 O   0  0  0  0  0  0  0  0  0  0  0  0
   -4.8297  -13.0796   20.5261 C   0  0  1  0  0  0  0  0  0  0  0  0
   -4.4112  -14.1535   21.3631 O   0  0  0  0  0  0  0  0  0  0  0  0
   -5.9865  -12.3794   21.1755 C   0  0  2  0  0  0  0  0  0  0  0  0
   -0.9261   -9.9880   17.1875 O   0  0  0  0  0  0  0  0  0  0  0  0
  -10.0585  -12.6676   17.7679 N   0  0  0  0  0  0  0  0  0  0  0  0
   -9.5396  -13.6356   18.5618 C   0  0  0  0  0  0  0  0  0  0  0  0
   -8.4933  -13.4238   19.3776 N   0  0  0  0  0  0  0  0  0  0  0  0
   -7.9044  -12.2266   19.4750 C   0  0  0  0  0  0  0  0  0  0  0  0
   -8.4308  -11.1394   18.6636 C   0  0  0  0  0  0  0  0  0  0  0  0
   -9.5732  -11.3866   17.7536 C   0  0  0  0  0  0  0  0  0  0  0  0
  -10.1115  -10.3975   16.9569 N   0  0  0  0  0  0  0  0  0  0  0  0
   -7.6958  -10.0898   18.9533 N   0  0  0  0  0  0  0  0  0  0  0  0
   -6.7637  -10.4459   19.8480 C   0  0  0  0  0  0  0  0  0  0  0  0
   -6.8863  -11.7326   20.1719 N   0  0  0  0  0  0  0  0  0  0  0  0
  2  1  1  6  0  0  0
  2  3  1  0  0  0  0
  2  5  1  0  0  0  0
  3  4  1  0  0  0  0
  3 17  1  0  0  0  0
  5  6  1  0  0  0  0
  7  6  1  6  0  0  0
  7  8  1  0  0  0  0
  7  9  1  0  0  0  0
 10  9  1  6  0  0  0
 10 11  1  0  0  0  0
 10 12  1  0  0  0  0
 11 16  1  0  0  0  0
 12 13  1  1  0  0  0
 12 14  1  0  0  0  0
 14 15  1  1  0  0  0
 14 16  1  0  0  0  0
 16 27  1  6  0  0  0
 18 19  2  0  0  0  0
 18 23  1  0  0  0  0
 19 20  1  0  0  0  0
 20 21  2  0  0  0  0
 21 22  1  0  0  0  0
 21 27  1  0  0  0  0
 22 23  2  0  0  0  0
 22 25  1  0  0  0  0
 23 24  1  0  0  0  0
 25 26  2  0  0  0  0
 26 27  1  0  0  0  0
M  END
>  <CHROM.1>
-35.14182685,-174.92595186,171.42424332,-71.97535834,-91.57386604,-62.39815483
-157.43239098,-5.16822092,-10.71673431,19.37322052,0.29501895,-0.39138711
-1.01265614

>  <Name>
ligand

>  <RI>
0

>  <Rbt.Current_Directory>
/home/itssahil/PROJECTS/Mol_Feturizer/Test_systems_manuscript/rnas/4kqy

>  <Rbt.Executable>
rbdock ($Id: //depot/dev/client3/rdock/2013.1/src/exe/rbdock.cxx#4 $)

>  <Rbt.Library>
libRbt.so (2013.1, Build901 2013/11/27)

>  <Rbt.Parameter_File>
/export/apps/rDock/src/rDock_2013.1_src/data/scripts/dock_solv.prm

>  <Rbt.Receptor>
prm/pocket_docking_6.prm

>  <SCORE>
-18.2672

>  <SCORE.INTER>
-15.4753

>  <SCORE.INTER.CONST>
1

>  <SCORE.INTER.POLAR>
0

>  <SCORE.INTER.ROT>
7

>  <SCORE.INTER.SOLV>
16.5649

>  <SCORE.INTER.VDW>
-24.1052

>  <SCORE.INTER.norm>
-0.573161

>  <SCORE.INTRA>
-2.79187

>  <SCORE.INTRA.DIHEDRAL>
-4.05657

>  <SCORE.INTRA.DIHEDRAL.0>
10.4103

>  <SCORE.INTRA.POLAR>
0

>  <SCORE.INTRA.POLAR.0>
0

>  <SCORE.INTRA.REPUL>
0

>  <SCORE.INTRA.REPUL.0>
0

>  <SCORE.INTRA.SOLV>
-0.309857

>  <SCORE.INTRA.SOLV.lig_0>
-49.5008

>  <SCORE.INTRA.VDW>
-0.608653

>  <SCORE.INTRA.VDW.0>
-2.6946

>  <SCORE.INTRA.norm>
-0.103402

>  <SCORE.RESTR>
0

>  <SCORE.RESTR.CAVITY>
0

>  <SCORE.RESTR.norm>
0

>  <SCORE.SYSTEM>
0

>  <SCORE.SYSTEM.CONST>
0

>  <SCORE.SYSTEM.DIHEDRAL>
0

>  <SCORE.SYSTEM.SOLV>
0

>  <SCORE.SYSTEM.norm>
0

>  <SCORE.heavy>
27

>  <SCORE.norm>
-0.676563

>  <RMSD>
4.716

$$$$
ligand
 OpenBabel02271912153D
libRbt.so/2013.1/901 2013/11/27
 27 29  0  0  0  0  0  0  0  0999 V2000
   -2.8712   -9.2361   14.7799 N   0  0  0  0  0  0  0  0  0  0  0  0
   -2.3348   -9.0378   16.1130 C   0  0  2  0  0  0  0  0  0  0  0  0
   -2.5220  -10.3202   16.8637 C   0  0  0  0  0  0  0  0  0  0  0  0
   -3.5614  -10.9891   16.6786 O   0  0  0  0  0  0  0  0  0  0  0  0
   -3.0689   -7.8957   16.8208 C   0  0  0  0  0  0  0  0  0  0  0  0
   -4.5916   -8.1506   16.8756 C   0  0  0  0  0  0  0  0  0  0  0  0
   -5.1547   -8.8691   18.2834 S   0  0  2  0  0  0  0  0  0  0  0  0
   -6.7477   -9.2956   18.0854 C   0  0  0  0  0  0  0  0  0  0  0  0
   -4.9790   -7.8009   19.5783 C   0  0  0  0  0  0  0  0  0  0  0  0
   -4.1074   -8.3459   20.7294 C   0  0  1  0  0  0  0  0  0  0  0  0
   -4.8628   -9.0584   21.7231 O   0  0  0  0  0  0  0  0  0  0  0  0
   -3.1009   -9.3952   20.2858 C   0  0  1  0  0  0  0  0  0  0  0  0
   -1.9356   -8.9361   19.5716 O   0  0  0  0  0  0  0  0  0  0  0  0
   -2.7872  -10.0522   21.6072 C   0  0  1  0  0  0  0  0  0  0  0  0
   -1.9952   -9.1821   22.4101 O   0  0  0  0  0  0  0  0  0  0  0  0
   -4.1453  -10.1863   22.2299 C   0  0  2  0  0  0  0  0  0  0  0  0
   -1.6198  -10.7158   17.6400 O   0  0  0  0  0  0  0  0  0  0  0  0
   -8.1804  -12.9552   20.1497 N   0  0  0  0  0  0  0  0  0  0  0  0
   -8.0167  -11.6121   20.2266 C   0  0  0  0  0  0  0  0  0  0  0  0
   -6.9393  -11.0419   20.7917 N   0  0  0  0  0  0  0  0  0  0  0  0
   -5.9397  -11.7707   21.3006 C   0  0  0  0  0  0  0  0  0  0  0  0
   -6.0464  -13.2201   21.2280 C   0  0  0  0  0  0  0  0  0  0  0  0
   -7.2461  -13.8401   20.6194 C   0  0  0  0  0  0  0  0  0  0  0  0
   -7.4059  -15.2072   20.5271 N   0  0  0  0  0  0  0  0  0  0  0  0
   -4.9473  -13.6866   21.7759 N   0  0  0  0  0  0  0  0  0  0  0  0
   -4.1970  -12.6561   22.1896 C   0  0  0  0  0  0  0  0  0  0  0  0
   -4.7864  -11.4963   21.9017 N   0  0  0  0  0  0  0  0  0  0  0  0
  2  1  1  6  0  0  0
  2  3  1  0  0  0  0
  2  5  1  0  0  0  0
  3  4  1  0  0  0  0
  3 17  1  0  0  0  0
  5  6  1  0  0  0  0
  7  6  1  6  0  0  0
  7  8  1  0  0  0  0
  7  9  1  0  0  0  0
 10  9  1  6  0  0  0
 10 11  1  0  0  0  0
 10 12  1  0  0  0  0
 11 16  1  0  0  0  0
 12 13  1  1  0  0  0
 12 14  1  0  0  0  0
 14 15  1  1  0  0  0
 14 16  1  0  0  0  0
 16 27  1  6  0  0  0
 18 19  2  0  0  0  0
 18 23  1  0  0  0  0
 19 20  1  0  0  0  0
 20 21  2  0  0  0  0
 21 22  1  0  0  0  0
 21 27  1  0  0  0  0
 22 23  2  0  0  0  0
 22 25  1  0  0  0  0
 23 24  1  0  0  0  0
 25 26  2  0  0  0  0
 26 27  1  0  0  0  0
M  END
>  <CHROM.1>
-37.41741603,56.41788537,94.88619872,-170.88395019,-121.55883375,-90.09746091
-4.89221161,-4.56521141,-10.41529363,19.56686666,0.82169511,-0.72114914,-1.34755867

>  <Name>
ligand

>  <RI>
0

>  <Rbt.Current_Directory>
/home/itssahil/PROJECTS/Mol_Feturizer/Test_systems_manuscript/rnas/4kqy

>  <Rbt.Executable>
rbdock ($Id: //depot/dev/client3/rdock/2013.1/src/exe/rbdock.cxx#4 $)

>  <Rbt.Library>
libRbt.so (2013.1, Build901 2013/11/27)

>  <Rbt.Parameter_File>
/export/apps/rDock/src/rDock_2013.1_src/data/scripts/dock_solv.prm

>  <Rbt.Receptor>
prm/pocket_docking_5.prm

>  <SCORE>
-14.1775

>  <SCORE.INTER>
-15.4718

>  <SCORE.INTER.CONST>
1

>  <SCORE.INTER.POLAR>
0

>  <SCORE.INTER.ROT>
7

>  <SCORE.INTER.SOLV>
16.9

>  <SCORE.INTER.VDW>
-24.2145

>  <SCORE.INTER.norm>
-0.57303

>  <SCORE.INTRA>
1.29428

>  <SCORE.INTRA.DIHEDRAL>
3.44872

>  <SCORE.INTRA.DIHEDRAL.0>
10.4103

>  <SCORE.INTRA.POLAR>
0

>  <SCORE.INTRA.POLAR.0>
0

>  <SCORE.INTRA.REPUL>
0

>  <SCORE.INTRA.REPUL.0>
0

>  <SCORE.INTRA.SOLV>
1.37182

>  <SCORE.INTRA.SOLV.lig_0>
-49.5008

>  <SCORE.INTRA.VDW>
-1.11599

>  <SCORE.INTRA.VDW.0>
-2.6946

>  <SCORE.INTRA.norm>
0.0479363

>  <SCORE.RESTR>
0

>  <SCORE.RESTR.CAVITY>
0

>  <SCORE.RESTR.norm>
0

>  <SCORE.SYSTEM>
0

>  <SCORE.SYSTEM.CONST>
0

>  <SCORE.SYSTEM.DIHEDRAL>
0

>  <SCORE.SYSTEM.SOLV>
0

>  <SCORE.SYSTEM.norm>
0

>  <SCORE.heavy>
27

>  <SCORE.norm>
-0.525093

>  <RMSD>
4.730

$$$$
ligand
 OpenBabel02271912153D
libRbt.so/2013.1/901 2013/11/27
 27 29  0  0  0  0  0  0  0  0999 V2000
   -3.2313  -12.3026   15.2631 N   0  0  0  0  0  0  0  0  0  0  0  0
   -1.9235  -12.9271   15.3248 C   0  0  2  0  0  0  0  0  0  0  0  0
   -2.0992  -14.3664   14.9497 C   0  0  0  0  0  0  0  0  0  0  0  0
   -1.1674  -14.9634   14.3686 O   0  0  0  0  0  0  0  0  0  0  0  0
   -1.3422  -12.8131   16.7367 C   0  0  0  0  0  0  0  0  0  0  0  0
   -2.2713  -13.4644   17.7850 C   0  0  0  0  0  0  0  0  0  0  0  0
   -3.1572  -12.3972   18.7291 S   0  0  2  0  0  0  0  0  0  0  0  0
   -4.4760  -11.8659   17.8705 C   0  0  0  0  0  0  0  0  0  0  0  0
   -2.1820  -11.0990   19.1897 C   0  0  0  0  0  0  0  0  0  0  0  0
   -2.8837  -10.0825   20.1150 C   0  0  1  0  0  0  0  0  0  0  0  0
   -3.9318   -9.3495   19.4593 O   0  0  0  0  0  0  0  0  0  0  0  0
   -3.6270  -10.7273   21.2738 C   0  0  1  0  0  0  0  0  0  0  0  0
   -2.8372  -11.2340   22.3684 O   0  0  0  0  0  0  0  0  0  0  0  0
   -4.5588   -9.6058   21.6616 C   0  0  1  0  0  0  0  0  0  0  0  0
   -3.8294   -8.5634   22.3022 O   0  0  0  0  0  0  0  0  0  0  0  0
   -5.0414   -9.1137   20.3293 C   0  0  2  0  0  0  0  0  0  0  0  0
   -3.1642  -14.9556   15.2527 O   0  0  0  0  0  0  0  0  0  0  0  0
   -8.8070   -9.9759   16.6752 N   0  0  0  0  0  0  0  0  0  0  0  0
   -7.7262   -9.1608   16.6113 C   0  0  0  0  0  0  0  0  0  0  0  0
   -6.8510   -9.0329   17.6227 N   0  0  0  0  0  0  0  0  0  0  0  0
   -6.9801   -9.7246   18.7604 C   0  0  0  0  0  0  0  0  0  0  0  0
   -8.1092  -10.6345   18.8811 C   0  0  0  0  0  0  0  0  0  0  0  0
   -9.0791  -10.7558   17.7681 C   0  0  0  0  0  0  0  0  0  0  0  0
  -10.1707  -11.5970   17.8267 N   0  0  0  0  0  0  0  0  0  0  0  0
   -7.9957  -11.1884   20.0670 N   0  0  0  0  0  0  0  0  0  0  0  0
   -6.9162  -10.6841   20.6804 C   0  0  0  0  0  0  0  0  0  0  0  0
   -6.2948   -9.8040   19.8964 N   0  0  0  0  0  0  0  0  0  0  0  0
  2  1  1  1  0  0  0
  2  3  1  0  0  0  0
  2  5  1  0  0  0  0
  3  4  1  0  0  0  0
  3 17  1  0  0  0  0
  5  6  1  0  0  0  0
  7  6  1  6  0  0  0
  7  8  1  0  0  0  0
  7  9  1  0  0  0  0
 10  9  1  6  0  0  0
 10 11  1  0  0  0  0
 10 12  1  0  0  0  0
 11 16  1  0  0  0  0
 12 13  1  1  0  0  0
 12 14  1  0  0  0  0
 14 15  1  6  0  0  0
 14 16  1  0  0  0  0
 16 27  1  6  0  0  0
 18 19  2  0  0  0  0
 18 23  1  0  0  0  0
 19 20  1  0  0  0  0
 20 21  2  0  0  0  0
 21 22  1  0  0  0  0
 21 27  1  0  0  0  0
 22 23  2  0  0  0  0
 22 25  1  0  0  0  0
 23 24  1  0  0  0  0
 25 26  2  0  0  0  0
 26 27  1  0  0  0  0
M  END
>  <CHROM.1>
148.79989185,58.17838265,-104.33926529,79.76772209,-177.53818085,-68.02460862
-57.85362456,-4.66741628,-11.29111917,18.45453761,0.78594044,0.28888637,-2.09464360

>  <Name>
ligand

>  <RI>
0

>  <Rbt.Current_Directory>
/home/itssahil/PROJECTS/Mol_Feturizer/Test_systems_manuscript/rnas/4kqy

>  <Rbt.Executable>
rbdock ($Id: //depot/dev/client3/rdock/2013.1/src/exe/rbdock.cxx#4 $)

>  <Rbt.Library>
libRbt.so (2013.1, Build901 2013/11/27)

>  <Rbt.Parameter_File>
/export/apps/rDock/src/rDock_2013.1_src/data/scripts/dock_solv.prm

>  <Rbt.Receptor>
prm/pocket_docking_5.prm

>  <SCORE>
-11.8291

>  <SCORE.INTER>
-13.7106

>  <SCORE.INTER.CONST>
1

>  <SCORE.INTER.POLAR>
0

>  <SCORE.INTER.ROT>
7

>  <SCORE.INTER.SOLV>
8.97449

>  <SCORE.INTER.VDW>
-20.3986

>  <SCORE.INTER.norm>
-0.5078

>  <SCORE.INTRA>
1.88151

>  <SCORE.INTRA.DIHEDRAL>
-1.80508

>  <SCORE.INTRA.DIHEDRAL.0>
10.4103

>  <SCORE.INTRA.POLAR>
0

>  <SCORE.INTRA.POLAR.0>
0

>  <SCORE.INTRA.REPUL>
0

>  <SCORE.INTRA.REPUL.0>
0

>  <SCORE.INTRA.SOLV>
2.753

>  <SCORE.INTRA.SOLV.lig_0>
-49.5008

>  <SCORE.INTRA.VDW>
1.40755

>  <SCORE.INTRA.VDW.0>
-2.6946

>  <SCORE.INTRA.norm>
0.0696855

>  <SCORE.RESTR>
0

>  <SCORE.RESTR.CAVITY>
0

>  <SCORE.RESTR.norm>
0

>  <SCORE.SYSTEM>
0

>  <SCORE.SYSTEM.CONST>
0

>  <SCORE.SYSTEM.DIHEDRAL>
0

>  <SCORE.SYSTEM.SOLV>
0

>  <SCORE.SYSTEM.norm>
0

>  <SCORE.heavy>
27

>  <SCORE.norm>
-0.438114

>  <RMSD>
4.733

$$$$
ligand
 OpenBabel02271912153D
libRbt.so/2013.1/901 2013/11/27
 27 29  0  0  0  0  0  0  0  0999 V2000
   -1.4199  -10.7102   12.9421 N   0  0  0  0  0  0  0  0  0  0  0  0
   -2.6935  -11.2583   13.3685 C   0  0  2  0  0  0  0  0  0  0  0  0
   -3.5557  -11.3813   12.1500 C   0  0  0  0  0  0  0  0  0  0  0  0
   -4.5462  -12.1430   12.1781 O   0  0  0  0  0  0  0  0  0  0  0  0
   -3.3552  -10.3370   14.3969 C   0  0  0  0  0  0  0  0  0  0  0  0
   -2.5332  -10.2650   15.7029 C   0  0  0  0  0  0  0  0  0  0  0  0
   -3.2412   -9.4039   16.9569 S   0  0  2  0  0  0  0  0  0  0  0  0
   -3.3262   -7.7975   16.5432 C   0  0  0  0  0  0  0  0  0  0  0  0
   -2.3408   -9.6099   18.3694 C   0  0  0  0  0  0  0  0  0  0  0  0
   -3.1654   -9.4721   19.6667 C   0  0  1  0  0  0  0  0  0  0  0  0
   -4.3400   -8.6592   19.5072 O   0  0  0  0  0  0  0  0  0  0  0  0
   -3.7547  -10.7856   20.1550 C   0  0  1  0  0  0  0  0  0  0  0  0
   -2.8565  -11.7229   20.7820 O   0  0  0  0  0  0  0  0  0  0  0  0
   -4.8416  -10.2769   21.0694 C   0  0  1  0  0  0  0  0  0  0  0  0
   -4.2687   -9.7338   22.2551 O   0  0  0  0  0  0  0  0  0  0  0  0
   -5.4426   -9.1623   20.2653 C   0  0  2  0  0  0  0  0  0  0  0  0
   -3.2876  -10.6950   11.1349 O   0  0  0  0  0  0  0  0  0  0  0  0
   -7.9892   -9.2603   15.5982 N   0  0  0  0  0  0  0  0  0  0  0  0
   -6.8444   -8.6167   15.9327 C   0  0  0  0  0  0  0  0  0  0  0  0
   -6.3115   -8.6735   17.1648 N   0  0  0  0  0  0  0  0  0  0  0  0
   -6.8709   -9.3931   18.1439 C   0  0  0  0  0  0  0  0  0  0  0  0
   -8.0910  -10.1257   17.8405 C   0  0  0  0  0  0  0  0  0  0  0  0
   -8.6812  -10.0430   16.4844 C   0  0  0  0  0  0  0  0  0  0  0  0
   -9.8380  -10.7104   16.1393 N   0  0  0  0  0  0  0  0  0  0  0  0
   -8.4184  -10.7485   18.9499 N   0  0  0  0  0  0  0  0  0  0  0  0
   -7.5223  -10.4451   19.8990 C   0  0  0  0  0  0  0  0  0  0  0  0
   -6.5822   -9.6318   19.4191 N   0  0  0  0  0  0  0  0  0  0  0  0
  2  1  1  6  0  0  0
  2  3  1  0  0  0  0
  2  5  1  0  0  0  0
  3  4  1  0  0  0  0
  3 17  1  0  0  0  0
  5  6  1  0  0  0  0
  7  6  1  6  0  0  0
  7  8  1  0  0  0  0
  7  9  1  0  0  0  0
 10  9  1  6  0  0  0
 10 11  1  0  0  0  0
 10 12  1  0  0  0  0
 11 16  1  0  0  0  0
 12 13  1  1  0  0  0
 12 14  1  0  0  0  0
 14 15  1  1  0  0  0
 14 16  1  0  0  0  0
 16 27  1  6  0  0  0
 18 19  2  0  0  0  0
 18 23  1  0  0  0  0
 19 20  1  0  0  0  0
 20 21  2  0  0  0  0
 21 22  1  0  0  0  0
 21 27  1  0  0  0  0
 22 23  2  0  0  0  0
 22 25  1  0  0  0  0
 23 24  1  0  0  0  0
 25 26  2  0  0  0  0
 26 27  1  0  0  0  0
M  END
>  <CHROM.1>
160.91695948,-65.31362759,-174.20376394,-66.76121615,-152.41616555,-25.37714851
-17.19381191,-4.87870226,-10.01738802,17.12894444,-1.28506794,-0.02558385
1.45670177

>  <Name>
ligand

>  <RI>
0

>  <Rbt.Current_Directory>
/home/itssahil/PROJECTS/Mol_Feturizer/Test_systems_manuscript/rnas/4kqy

>  <Rbt.Executable>
rbdock ($Id: //depot/dev/client3/rdock/2013.1/src/exe/rbdock.cxx#4 $)

>  <Rbt.Library>
libRbt.so (2013.1, Build901 2013/11/27)

>  <Rbt.Parameter_File>
/export/apps/rDock/src/rDock_2013.1_src/data/scripts/dock_solv.prm

>  <Rbt.Receptor>
prm/pocket_docking_7.prm

>  <SCORE>
-12.1696

>  <SCORE.INTER>
-10.8302

>  <SCORE.INTER.CONST>
1

>  <SCORE.INTER.POLAR>
0

>  <SCORE.INTER.ROT>
7

>  <SCORE.INTER.SOLV>
7.72255

>  <SCORE.INTER.VDW>
-18.061

>  <SCORE.INTER.norm>
-0.401119

>  <SCORE.INTRA>
-1.33939

>  <SCORE.INTRA.DIHEDRAL>
-2.03211

>  <SCORE.INTRA.DIHEDRAL.0>
10.4103

>  <SCORE.INTRA.POLAR>
0

>  <SCORE.INTRA.POLAR.0>
0

>  <SCORE.INTRA.REPUL>
0

>  <SCORE.INTRA.REPUL.0>
0

>  <SCORE.INTRA.SOLV>
0.197696

>  <SCORE.INTRA.SOLV.lig_0>
-49.5008

>  <SCORE.INTRA.VDW>
-0.422179

>  <SCORE.INTRA.VDW.0>
-2.6946

>  <SCORE.INTRA.norm>
-0.0496069

>  <SCORE.RESTR>
0

>  <SCORE.RESTR.CAVITY>
0

>  <SCORE.RESTR.norm>
0

>  <SCORE.SYSTEM>
0

>  <SCORE.SYSTEM.CONST>
0

>  <SCORE.SYSTEM.DIHEDRAL>
0

>  <SCORE.SYSTEM.SOLV>
0

>  <SCORE.SYSTEM.norm>
0

>  <SCORE.heavy>
27

>  <SCORE.norm>
-0.450726

>  <RMSD>
4.744

$$$$
ligand
 OpenBabel02271912153D
libRbt.so/2013.1/901 2013/11/27
 27 29  0  0  0  0  0  0  0  0999 V2000
   -2.2625   -8.8441   16.3429 N   0  0  0  0  0  0  0  0  0  0  0  0
   -1.5399   -9.4968   17.4182 C   0  0  2  0  0  0  0  0  0  0  0  0
   -1.0026  -10.7853   16.8758 C   0  0  0  0  0  0  0  0  0  0  0  0
   -1.6407  -11.3848   15.9838 O   0  0  0  0  0  0  0  0  0  0  0  0
   -2.4718   -9.7664   18.6027 C   0  0  0  0  0  0  0  0  0  0  0  0
   -2.8666   -8.4568   19.3209 C   0  0  0  0  0  0  0  0  0  0  0  0
   -3.8190   -8.6411   20.6899 S   0  0  2  0  0  0  0  0  0  0  0  0
   -4.0443   -7.1605   21.4080 C   0  0  0  0  0  0  0  0  0  0  0  0
   -3.0782   -9.7167   21.7590 C   0  0  0  0  0  0  0  0  0  0  0  0
   -3.7534  -11.1029   21.8252 C   0  0  1  0  0  0  0  0  0  0  0  0
   -5.1721  -11.0318   22.0447 O   0  0  0  0  0  0  0  0  0  0  0  0
   -3.6745  -11.8805   20.5214 C   0  0  1  0  0  0  0  0  0  0  0  0
   -2.4059  -12.4740   20.1790 O   0  0  0  0  0  0  0  0  0  0  0  0
   -4.7808  -12.8845   20.7319 C   0  0  1  0  0  0  0  0  0  0  0  0
   -4.3839  -13.8546   21.6965 O   0  0  0  0  0  0  0  0  0  0  0  0
   -5.8750  -12.0396   21.3141 C   0  0  2  0  0  0  0  0  0  0  0  0
    0.0922  -11.2236   17.3028 O   0  0  0  0  0  0  0  0  0  0  0  0
  -10.0662  -12.5828   18.0869 N   0  0  0  0  0  0  0  0  0  0  0  0
   -9.5618  -13.4621   18.9863 C   0  0  0  0  0  0  0  0  0  0  0  0
   -8.4811  -13.1938   19.7383 N   0  0  0  0  0  0  0  0  0  0  0  0
   -7.8403  -12.0221   19.6616 C   0  0  0  0  0  0  0  0  0  0  0  0
   -8.3479  -11.0267   18.7293 C   0  0  0  0  0  0  0  0  0  0  0  0
   -9.5291  -11.3378   17.8914 C   0  0  0  0  0  0  0  0  0  0  0  0
  -10.0522  -10.4372   16.9869 N   0  0  0  0  0  0  0  0  0  0  0  0
   -7.5609   -9.9828   18.8586 N   0  0  0  0  0  0  0  0  0  0  0  0
   -6.6152  -10.2616   19.7663 C   0  0  0  0  0  0  0  0  0  0  0  0
   -6.7800  -11.4884   20.2594 N   0  0  0  0  0  0  0  0  0  0  0  0
  2  1  1  6  0  0  0
  2  3  1  0  0  0  0
  2  5  1  0  0  0  0
  3  4  1  0  0  0  0
  3 17  1  0  0  0  0
  5  6  1  0  0  0  0
  7  6  1  6  0  0  0
  7  8  1  0  0  0  0
  7  9  1  0  0  0  0
 10  9  1  6  0  0  0
 10 11  1  0  0  0  0
 10 12  1  0  0  0  0
 11 16  1  0  0  0  0
 12 13  1  1  0  0  0
 12 14  1  0  0  0  0
 14 15  1  1  0  0  0
 14 16  1  0  0  0  0
 16 27  1  6  0  0  0
 18 19  2  0  0  0  0
 18 23  1  0  0  0  0
 19 20  1  0  0  0  0
 20 21  2  0  0  0  0
 21 22  1  0  0  0  0
 21 27  1  0  0  0  0
 22 23  2  0  0  0  0
 22 25  1  0  0  0  0
 23 24  1  0  0  0  0
 25 26  2  0  0  0  0
 26 27  1  0  0  0  0
M  END
>  <CHROM.1>
-31.23605488,-70.43072658,-176.70047756,175.27806925,-106.51392566,-50.97147095
-158.17607689,-4.92172014,-10.86848995,19.44749103,0.08750036,-0.26171047
-1.47377625

>  <Name>
ligand

>  <RI>
0

>  <Rbt.Current_Directory>
/home/itssahil/PROJECTS/Mol_Feturizer/Test_systems_manuscript/rnas/4kqy

>  <Rbt.Executable>
rbdock ($Id: //depot/dev/client3/rdock/2013.1/src/exe/rbdock.cxx#4 $)

>  <Rbt.Library>
libRbt.so (2013.1, Build901 2013/11/27)

>  <Rbt.Parameter_File>
/export/apps/rDock/src/rDock_2013.1_src/data/scripts/dock_solv.prm

>  <Rbt.Receptor>
prm/pocket_docking_8.prm

>  <SCORE>
-18.2328

>  <SCORE.INTER>
-16.4613

>  <SCORE.INTER.CONST>
1

>  <SCORE.INTER.POLAR>
0

>  <SCORE.INTER.ROT>
7

>  <SCORE.INTER.SOLV>
12.3049

>  <SCORE.INTER.VDW>
-23.3425

>  <SCORE.INTER.norm>
-0.609678

>  <SCORE.INTRA>
-1.7715

>  <SCORE.INTRA.DIHEDRAL>
-2.50361

>  <SCORE.INTRA.DIHEDRAL.0>
10.4103

>  <SCORE.INTRA.POLAR>
0

>  <SCORE.INTRA.POLAR.0>
0

>  <SCORE.INTRA.REPUL>
0

>  <SCORE.INTRA.REPUL.0>
0

>  <SCORE.INTRA.SOLV>
0.520786

>  <SCORE.INTRA.SOLV.lig_0>
-49.5008

>  <SCORE.INTRA.VDW>
-0.780087

>  <SCORE.INTRA.VDW.0>
-2.6946

>  <SCORE.INTRA.norm>
-0.065611

>  <SCORE.RESTR>
0

>  <SCORE.RESTR.CAVITY>
0

>  <SCORE.RESTR.norm>
0

>  <SCORE.SYSTEM>
0

>  <SCORE.SYSTEM.CONST>
0

>  <SCORE.SYSTEM.DIHEDRAL>
0

>  <SCORE.SYSTEM.SOLV>
0

>  <SCORE.SYSTEM.norm>
0

>  <SCORE.heavy>
27

>  <SCORE.norm>
-0.675289

>  <RMSD>
4.769

$$$$
ligand
 OpenBabel02271912153D
libRbt.so/2013.1/901 2013/11/27
 27 29  0  0  0  0  0  0  0  0999 V2000
   -3.1222  -13.3927   16.7091 N   0  0  0  0  0  0  0  0  0  0  0  0
   -4.5526  -13.2400   16.8957 C   0  0  2  0  0  0  0  0  0  0  0  0
   -4.9914  -12.0854   16.0486 C   0  0  0  0  0  0  0  0  0  0  0  0
   -4.4812  -10.9604   16.2393 O   0  0  0  0  0  0  0  0  0  0  0  0
   -4.8747  -12.9715   18.3682 C   0  0  0  0  0  0  0  0  0  0  0  0
   -6.3875  -13.1070   18.6499 C   0  0  0  0  0  0  0  0  0  0  0  0
   -6.8850  -12.6254   20.1782 S   0  0  2  0  0  0  0  0  0  0  0  0
   -8.4504  -13.1203   20.4296 C   0  0  0  0  0  0  0  0  0  0  0  0
   -6.7595  -10.9480   20.3164 C   0  0  0  0  0  0  0  0  0  0  0  0
   -5.4810  -10.4702   21.0368 C   0  0  1  0  0  0  0  0  0  0  0  0
   -4.3465  -11.3204   20.8002 O   0  0  0  0  0  0  0  0  0  0  0  0
   -4.9739   -9.1236   20.5464 C   0  0  1  0  0  0  0  0  0  0  0  0
   -5.6954   -7.9493   20.9695 O   0  0  0  0  0  0  0  0  0  0  0  0
   -3.5472   -9.1721   21.0346 C   0  0  1  0  0  0  0  0  0  0  0  0
   -3.5094   -9.0211   22.4505 O   0  0  0  0  0  0  0  0  0  0  0  0
   -3.1347  -10.5709   20.6837 C   0  0  2  0  0  0  0  0  0  0  0  0
   -5.8388  -12.2737   15.1432 O   0  0  0  0  0  0  0  0  0  0  0  0
   -1.9221   -8.3061   16.0279 N   0  0  0  0  0  0  0  0  0  0  0  0
   -2.5729   -7.7754   17.0916 C   0  0  0  0  0  0  0  0  0  0  0  0
   -2.8205   -8.4713   18.2139 N   0  0  0  0  0  0  0  0  0  0  0  0
   -2.4180   -9.7383   18.3628 C   0  0  0  0  0  0  0  0  0  0  0  0
   -1.6935  -10.3576   17.2633 C   0  0  0  0  0  0  0  0  0  0  0  0
   -1.4407   -9.5887   16.0227 C   0  0  0  0  0  0  0  0  0  0  0  0
   -0.7646  -10.1236   14.9458 N   0  0  0  0  0  0  0  0  0  0  0  0
   -1.4072  -11.5750   17.6655 N   0  0  0  0  0  0  0  0  0  0  0  0
   -1.9075  -11.7549   18.8957 C   0  0  0  0  0  0  0  0  0  0  0  0
   -2.5144  -10.6493   19.3257 N   0  0  0  0  0  0  0  0  0  0  0  0
  2  1  1  1  0  0  0
  2  3  1  0  0  0  0
  2  5  1  0  0  0  0
  3  4  1  0  0  0  0
  3 17  1  0  0  0  0
  5  6  1  0  0  0  0
  7  6  1  6  0  0  0
  7  8  1  0  0  0  0
  7  9  1  0  0  0  0
 10  9  1  6  0  0  0
 10 11  1  0  0  0  0
 10 12  1  0  0  0  0
 11 16  1  0  0  0  0
 12 13  1  1  0  0  0
 12 14  1  0  0  0  0
 14 15  1  1  0  0  0
 14 16  1  0  0  0  0
 16 27  1  6  0  0  0
 18 19  2  0  0  0  0
 18 23  1  0  0  0  0
 19 20  1  0  0  0  0
 20 21  2  0  0  0  0
 21 22  1  0  0  0  0
 21 27  1  0  0  0  0
 22 23  2  0  0  0  0
 22 25  1  0  0  0  0
 23 24  1  0  0  0  0
 25 26  2  0  0  0  0
 26 27  1  0  0  0  0
M  END
>  <CHROM.1>
-58.67231292,-167.72671923,-171.74759168,-168.37399297,-98.75610301,33.09882674
108.45286469,-4.15275308,-10.86704625,18.64578604,0.41665093,-0.67639766
-2.14543411

>  <Name>
ligand

>  <RI>
0

>  <Rbt.Current_Directory>
/home/itssahil/PROJECTS/Mol_Feturizer/Test_systems_manuscript/rnas/4kqy

>  <Rbt.Executable>
rbdock ($Id: //depot/dev/client3/rdock/2013.1/src/exe/rbdock.cxx#4 $)

>  <Rbt.Library>
libRbt.so (2013.1, Build901 2013/11/27)

>  <Rbt.Parameter_File>
/export/apps/rDock/src/rDock_2013.1_src/data/scripts/dock_solv.prm

>  <Rbt.Receptor>
prm/pocket_docking_6.prm

>  <SCORE>
-13.7887

>  <SCORE.INTER>
-11.4397

>  <SCORE.INTER.CONST>
1

>  <SCORE.INTER.POLAR>
0

>  <SCORE.INTER.ROT>
7

>  <SCORE.INTER.SOLV>
11.564

>  <SCORE.INTER.VDW>
-19.7478

>  <SCORE.INTER.norm>
-0.423693

>  <SCORE.INTRA>
-2.34899

>  <SCORE.INTRA.DIHEDRAL>
-0.81397

>  <SCORE.INTRA.DIHEDRAL.0>
10.4103

>  <SCORE.INTRA.POLAR>
0

>  <SCORE.INTRA.POLAR.0>
0

>  <SCORE.INTRA.REPUL>
0

>  <SCORE.INTRA.REPUL.0>
0

>  <SCORE.INTRA.SOLV>
1.34928

>  <SCORE.INTRA.SOLV.lig_0>
-49.5008

>  <SCORE.INTRA.VDW>
-2.61665

>  <SCORE.INTRA.VDW.0>
-2.6946

>  <SCORE.INTRA.norm>
-0.0869998

>  <SCORE.RESTR>
0

>  <SCORE.RESTR.CAVITY>
0

>  <SCORE.RESTR.norm>
0

>  <SCORE.SYSTEM>
0

>  <SCORE.SYSTEM.CONST>
0

>  <SCORE.SYSTEM.DIHEDRAL>
0

>  <SCORE.SYSTEM.SOLV>
0

>  <SCORE.SYSTEM.norm>
0

>  <SCORE.heavy>
27

>  <SCORE.norm>
-0.510693

>  <RMSD>
4.774

$$$$
ligand
 OpenBabel02271912153D
libRbt.so/2013.1/901 2013/11/27
 27 29  0  0  0  0  0  0  0  0999 V2000
   -8.9250  -10.4270   15.9286 N   0  0  0  0  0  0  0  0  0  0  0  0
   -8.3452  -11.6215   16.5126 C   0  0  2  0  0  0  0  0  0  0  0  0
   -8.7592  -11.6598   17.9514 C   0  0  0  0  0  0  0  0  0  0  0  0
   -8.5644  -10.6552   18.6691 O   0  0  0  0  0  0  0  0  0  0  0  0
   -6.8187  -11.5857   16.3997 C   0  0  0  0  0  0  0  0  0  0  0  0
   -6.3557  -11.7629   14.9365 C   0  0  0  0  0  0  0  0  0  0  0  0
   -4.7027  -11.6326   14.6798 S   0  0  2  0  0  0  0  0  0  0  0  0
   -4.3637  -11.9705   13.0894 C   0  0  0  0  0  0  0  0  0  0  0  0
   -3.8815  -12.6936   15.7038 C   0  0  0  0  0  0  0  0  0  0  0  0
   -2.4910  -12.1909   16.1460 C   0  0  1  0  0  0  0  0  0  0  0  0
   -2.3420  -10.7657   16.0337 O   0  0  0  0  0  0  0  0  0  0  0  0
   -2.2009  -12.4232   17.6201 C   0  0  1  0  0  0  0  0  0  0  0  0
   -1.8853  -13.7690   18.0298 O   0  0  0  0  0  0  0  0  0  0  0  0
   -1.0777  -11.4397   17.8382 C   0  0  1  0  0  0  0  0  0  0  0  0
    0.1117  -11.9085   17.2101 O   0  0  0  0  0  0  0  0  0  0  0  0
   -1.5674  -10.2251   17.1067 C   0  0  2  0  0  0  0  0  0  0  0  0
   -9.3220  -12.6860   18.4025 O   0  0  0  0  0  0  0  0  0  0  0  0
   -3.3627   -8.9124   21.9367 N   0  0  0  0  0  0  0  0  0  0  0  0
   -2.5942   -9.9664   21.5690 C   0  0  0  0  0  0  0  0  0  0  0  0
   -2.2166  -10.1826   20.2978 N   0  0  0  0  0  0  0  0  0  0  0  0
   -2.5608   -9.3518   19.3076 C   0  0  0  0  0  0  0  0  0  0  0  0
   -3.3677   -8.1882   19.6428 C   0  0  0  0  0  0  0  0  0  0  0  0
   -3.7946   -7.9674   21.0439 C   0  0  0  0  0  0  0  0  0  0  0  0
   -4.5638   -6.8863   21.4210 N   0  0  0  0  0  0  0  0  0  0  0  0
   -3.5501   -7.5432   18.5129 N   0  0  0  0  0  0  0  0  0  0  0  0
   -2.9462   -8.2180   17.5251 C   0  0  0  0  0  0  0  0  0  0  0  0
   -2.3423   -9.3079   17.9973 N   0  0  0  0  0  0  0  0  0  0  0  0
  2  1  1  1  0  0  0
  2  3  1  0  0  0  0
  2  5  1  0  0  0  0
  3  4  1  0  0  0  0
  3 17  1  0  0  0  0
  5  6  1  0  0  0  0
  7  6  1  6  0  0  0
  7  8  1  0  0  0  0
  7  9  1  0  0  0  0
 10  9  1  1  0  0  0
 10 11  1  0  0  0  0
 10 12  1  0  0  0  0
 11 16  1  0  0  0  0
 12 13  1  6  0  0  0
 12 14  1  0  0  0  0
 14 15  1  6  0  0  0
 14 16  1  0  0  0  0
 16 27  1  1  0  0  0
 18 19  2  0  0  0  0
 18 23  1  0  0  0  0
 19 20  1  0  0  0  0
 20 21  2  0  0  0  0
 21 22  1  0  0  0  0
 21 27  1  0  0  0  0
 22 23  2  0  0  0  0
 22 25  1  0  0  0  0
 23 24  1  0  0  0  0
 25 26  2  0  0  0  0
 26 27  1  0  0  0  0
M  END
>  <CHROM.1>
-51.96431174,-70.22828688,175.90315541,175.38133279,-148.32097251,21.52631327
122.99351558,-4.22660132,-10.70670740,17.62956113,2.44073393,0.00563984,-2.15682718

>  <Name>
ligand

>  <RI>
0

>  <Rbt.Current_Directory>
/home/itssahil/PROJECTS/Mol_Feturizer/Test_systems_manuscript/rnas/4kqy

>  <Rbt.Executable>
rbdock ($Id: //depot/dev/client3/rdock/2013.1/src/exe/rbdock.cxx#4 $)

>  <Rbt.Library>
libRbt.so (2013.1, Build901 2013/11/27)

>  <Rbt.Parameter_File>
/export/apps/rDock/src/rDock_2013.1_src/data/scripts/dock_solv.prm

>  <Rbt.Receptor>
prm/pocket_docking_5.prm

>  <SCORE>
-9.90374

>  <SCORE.INTER>
-9.89877

>  <SCORE.INTER.CONST>
1

>  <SCORE.INTER.POLAR>
0

>  <SCORE.INTER.ROT>
7

>  <SCORE.INTER.SOLV>
13.4219

>  <SCORE.INTER.VDW>
-19.3398

>  <SCORE.INTER.norm>
-0.366621

>  <SCORE.INTRA>
-0.0121155

>  <SCORE.INTRA.DIHEDRAL>
-0.892143

>  <SCORE.INTRA.DIHEDRAL.0>
10.4103

>  <SCORE.INTRA.POLAR>
0

>  <SCORE.INTRA.POLAR.0>
0

>  <SCORE.INTRA.REPUL>
0

>  <SCORE.INTRA.REPUL.0>
0

>  <SCORE.INTRA.SOLV>
0.0507298

>  <SCORE.INTRA.SOLV.lig_0>
-49.5008

>  <SCORE.INTRA.VDW>
0.408591

>  <SCORE.INTRA.VDW.0>
-2.6946

>  <SCORE.INTRA.norm>
-0.000448722

>  <SCORE.RESTR>
0.00715072

>  <SCORE.RESTR.CAVITY>
0.00715072

>  <SCORE.RESTR.norm>
0.000264842

>  <SCORE.SYSTEM>
0

>  <SCORE.SYSTEM.CONST>
0

>  <SCORE.SYSTEM.DIHEDRAL>
0

>  <SCORE.SYSTEM.SOLV>
0

>  <SCORE.SYSTEM.norm>
0

>  <SCORE.heavy>
27

>  <SCORE.norm>
-0.366805

>  <RMSD>
4.809

$$$$
ligand
 OpenBabel02271912153D
libRbt.so/2013.1/901 2013/11/27
 27 29  0  0  0  0  0  0  0  0999 V2000
   -2.3196  -14.0547   16.2931 N   0  0  0  0  0  0  0  0  0  0  0  0
   -2.6654  -12.6461   16.2712 C   0  0  2  0  0  0  0  0  0  0  0  0
   -1.5541  -11.9041   16.9477 C   0  0  0  0  0  0  0  0  0  0  0  0
   -1.3057  -12.1408   18.1495 O   0  0  0  0  0  0  0  0  0  0  0  0
   -3.9876  -12.4081   17.0057 C   0  0  0  0  0  0  0  0  0  0  0  0
   -4.3818  -10.9145   16.9907 C   0  0  0  0  0  0  0  0  0  0  0  0
   -5.8756  -10.5536   17.6641 S   0  0  2  0  0  0  0  0  0  0  0  0
   -7.0758  -11.2345   16.7396 C   0  0  0  0  0  0  0  0  0  0  0  0
   -6.0699   -8.8796   17.7562 C   0  0  0  0  0  0  0  0  0  0  0  0
   -5.4145   -8.2377   18.9973 C   0  0  1  0  0  0  0  0  0  0  0  0
   -5.9652   -8.7118   20.2374 O   0  0  0  0  0  0  0  0  0  0  0  0
   -3.9421   -8.5820   19.1539 C   0  0  1  0  0  0  0  0  0  0  0  0
   -3.0096   -7.9218   18.2745 O   0  0  0  0  0  0  0  0  0  0  0  0
   -3.7374   -8.2594   20.6135 C   0  0  1  0  0  0  0  0  0  0  0  0
   -3.7489   -6.8485   20.8088 O   0  0  0  0  0  0  0  0  0  0  0  0
   -4.9629   -8.8479   21.2476 C   0  0  2  0  0  0  0  0  0  0  0  0
   -0.8727  -11.0824   16.2891 O   0  0  0  0  0  0  0  0  0  0  0  0
   -6.3483  -13.9802   21.1224 N   0  0  0  0  0  0  0  0  0  0  0  0
   -6.9099  -12.9285   20.4782 C   0  0  0  0  0  0  0  0  0  0  0  0
   -6.4573  -11.6701   20.6082 N   0  0  0  0  0  0  0  0  0  0  0  0
   -5.4000  -11.3751   21.3728 C   0  0  0  0  0  0  0  0  0  0  0  0
   -4.7391  -12.4659   22.0734 C   0  0  0  0  0  0  0  0  0  0  0  0
   -5.2559  -13.8475   21.9384 C   0  0  0  0  0  0  0  0  0  0  0  0
   -4.6749  -14.9205   22.5818 N   0  0  0  0  0  0  0  0  0  0  0  0
   -3.7421  -11.9165   22.7292 N   0  0  0  0  0  0  0  0  0  0  0  0
   -3.7512  -10.5951   22.5060 C   0  0  0  0  0  0  0  0  0  0  0  0
   -4.7454  -10.2611   21.6842 N   0  0  0  0  0  0  0  0  0  0  0  0
  2  1  1  1  0  0  0
  2  3  1  0  0  0  0
  2  5  1  0  0  0  0
  3  4  1  0  0  0  0
  3 17  1  0  0  0  0
  5  6  1  0  0  0  0
  7  6  1  6  0  0  0
  7  8  1  0  0  0  0
  7  9  1  0  0  0  0
 10  9  1  6  0  0  0
 10 11  1  0  0  0  0
 10 12  1  0  0  0  0
 11 16  1  0  0  0  0
 12 13  1  6  0  0  0
 12 14  1  0  0  0  0
 14 15  1  6  0  0  0
 14 16  1  0  0  0  0
 16 27  1  6  0  0  0
 18 19  2  0  0  0  0
 18 23  1  0  0  0  0
 19 20  1  0  0  0  0
 20 21  2  0  0  0  0
 21 22  1  0  0  0  0
 21 27  1  0  0  0  0
 22 23  2  0  0  0  0
 22 25  1  0  0  0  0
 23 24  1  0  0  0  0
 25 26  2  0  0  0  0
 26 27  1  0  0  0  0
M  END
>  <CHROM.1>
-62.02552673,-179.73249260,175.42061245,-65.74477678,-83.07997476,-61.81267475
-6.42446230,-4.44021288,-10.92927210,19.35019640,-0.24236374,-1.11924660
2.96710416

>  <Name>
ligand

>  <RI>
0

>  <Rbt.Current_Directory>
/home/itssahil/PROJECTS/Mol_Feturizer/Test_systems_manuscript/rnas/4kqy

>  <Rbt.Executable>
rbdock ($Id: //depot/dev/client3/rdock/2013.1/src/exe/rbdock.cxx#4 $)

>  <Rbt.Library>
libRbt.so (2013.1, Build901 2013/11/27)

>  <Rbt.Parameter_File>
/export/apps/rDock/src/rDock_2013.1_src/data/scripts/dock_solv.prm

>  <Rbt.Receptor>
prm/pocket_docking_6.prm

>  <SCORE>
-11.7982

>  <SCORE.INTER>
-7.65809

>  <SCORE.INTER.CONST>
1

>  <SCORE.INTER.POLAR>
0

>  <SCORE.INTER.ROT>
7

>  <SCORE.INTER.SOLV>
19.5

>  <SCORE.INTER.VDW>
-19.8721

>  <SCORE.INTER.norm>
-0.283633

>  <SCORE.INTRA>
-4.1401

>  <SCORE.INTRA.DIHEDRAL>
-5.88398

>  <SCORE.INTRA.DIHEDRAL.0>
10.4103

>  <SCORE.INTRA.POLAR>
0

>  <SCORE.INTRA.POLAR.0>
0

>  <SCORE.INTRA.REPUL>
0

>  <SCORE.INTRA.REPUL.0>
0

>  <SCORE.INTRA.SOLV>
-0.247128

>  <SCORE.INTRA.SOLV.lig_0>
-49.5008

>  <SCORE.INTRA.VDW>
-1.07454

>  <SCORE.INTRA.VDW.0>
-2.6946

>  <SCORE.INTRA.norm>
-0.153337

>  <SCORE.RESTR>
0

>  <SCORE.RESTR.CAVITY>
0

>  <SCORE.RESTR.norm>
0

>  <SCORE.SYSTEM>
0

>  <SCORE.SYSTEM.CONST>
0

>  <SCORE.SYSTEM.DIHEDRAL>
0

>  <SCORE.SYSTEM.SOLV>
0

>  <SCORE.SYSTEM.norm>
0

>  <SCORE.heavy>
27

>  <SCORE.norm>
-0.43697

>  <RMSD>
4.810

$$$$
ligand
 OpenBabel02271912153D
libRbt.so/2013.1/901 2013/11/27
 27 29  0  0  0  0  0  0  0  0999 V2000
   -0.0116  -10.9324   15.4890 N   0  0  0  0  0  0  0  0  0  0  0  0
   -1.3928  -10.7606   15.0803 C   0  0  2  0  0  0  0  0  0  0  0  0
   -1.3939   -9.8643   13.8804 C   0  0  0  0  0  0  0  0  0  0  0  0
   -0.5267   -8.9690   13.7871 O   0  0  0  0  0  0  0  0  0  0  0  0
   -2.2119  -10.1344   16.2121 C   0  0  0  0  0  0  0  0  0  0  0  0
   -3.6812   -9.9117   15.7903 C   0  0  0  0  0  0  0  0  0  0  0  0
   -4.7126   -9.3916   17.0073 S   0  0  2  0  0  0  0  0  0  0  0  0
   -6.1023   -8.7845   16.3300 C   0  0  0  0  0  0  0  0  0  0  0  0
   -3.9426   -8.2176   17.9440 C   0  0  0  0  0  0  0  0  0  0  0  0
   -3.7478   -8.6198   19.4212 C   0  0  1  0  0  0  0  0  0  0  0  0
   -4.9702   -8.6078   20.1771 O   0  0  0  0  0  0  0  0  0  0  0  0
   -3.2778  -10.0539   19.6041 C   0  0  1  0  0  0  0  0  0  0  0  0
   -1.8972  -10.3424   19.3052 O   0  0  0  0  0  0  0  0  0  0  0  0
   -3.6506  -10.2840   21.0478 C   0  0  1  0  0  0  0  0  0  0  0  0
   -2.7716   -9.5580   21.9016 O   0  0  0  0  0  0  0  0  0  0  0  0
   -5.0190   -9.6747   21.1274 C   0  0  2  0  0  0  0  0  0  0  0  0
   -2.2440  -10.0474   12.9765 O   0  0  0  0  0  0  0  0  0  0  0  0
   -6.8790  -14.6494   21.3893 N   0  0  0  0  0  0  0  0  0  0  0  0
   -5.7003  -14.1540   21.8386 C   0  0  0  0  0  0  0  0  0  0  0  0
   -5.3527  -12.8638   21.6975 N   0  0  0  0  0  0  0  0  0  0  0  0
   -6.1646  -11.9727   21.1178 C   0  0  0  0  0  0  0  0  0  0  0  0
   -7.4553  -12.4393   20.6343 C   0  0  0  0  0  0  0  0  0  0  0  0
   -7.8228  -13.8671   20.7779 C   0  0  0  0  0  0  0  0  0  0  0  0
   -9.0290  -14.3685   20.3346 N   0  0  0  0  0  0  0  0  0  0  0  0
   -8.0510  -11.3821   20.1308 N   0  0  0  0  0  0  0  0  0  0  0  0
   -7.2338  -10.3265   20.2472 C   0  0  0  0  0  0  0  0  0  0  0  0
   -6.0955  -10.6735   20.8466 N   0  0  0  0  0  0  0  0  0  0  0  0
  2  1  1  1  0  0  0
  2  3  1  0  0  0  0
  2  5  1  0  0  0  0
  3  4  1  0  0  0  0
  3 17  1  0  0  0  0
  5  6  1  0  0  0  0
  7  6  1  6  0  0  0
  7  8  1  0  0  0  0
  7  9  1  0  0  0  0
 10  9  1  6  0  0  0
 10 11  1  0  0  0  0
 10 12  1  0  0  0  0
 11 16  1  0  0  0  0
 12 13  1  1  0  0  0
 12 14  1  0  0  0  0
 14 15  1  1  0  0  0
 14 16  1  0  0  0  0
 16 27  1  6  0  0  0
 18 19  2  0  0  0  0
 18 23  1  0  0  0  0
 19 20  1  0  0  0  0
 20 21  2  0  0  0  0
 21 22  1  0  0  0  0
 21 27  1  0  0  0  0
 22 23  2  0  0  0  0
 22 25  1  0  0  0  0
 23 24  1  0  0  0  0
 25 26  2  0  0  0  0
 26 27  1  0  0  0  0
M  END
>  <CHROM.1>
-32.88818680,178.72731028,173.35527109,163.67183177,-117.60507766,-72.60994041
150.83907387,-4.42538323,-10.64106837,18.59152207,-0.71116130,0.67634833
1.37861395

>  <Name>
ligand

>  <RI>
0

>  <Rbt.Current_Directory>
/home/itssahil/PROJECTS/Mol_Feturizer/Test_systems_manuscript/rnas/4kqy

>  <Rbt.Executable>
rbdock ($Id: //depot/dev/client3/rdock/2013.1/src/exe/rbdock.cxx#4 $)

>  <Rbt.Library>
libRbt.so (2013.1, Build901 2013/11/27)

>  <Rbt.Parameter_File>
/export/apps/rDock/src/rDock_2013.1_src/data/scripts/dock_solv.prm

>  <Rbt.Receptor>
prm/pocket_docking_5.prm

>  <SCORE>
-11.1671

>  <SCORE.INTER>
-10.6886

>  <SCORE.INTER.CONST>
1

>  <SCORE.INTER.POLAR>
0

>  <SCORE.INTER.ROT>
7

>  <SCORE.INTER.SOLV>
12.8094

>  <SCORE.INTER.VDW>
-19.6622

>  <SCORE.INTER.norm>
-0.395874

>  <SCORE.INTRA>
-0.479855

>  <SCORE.INTRA.DIHEDRAL>
-1.30004

>  <SCORE.INTRA.DIHEDRAL.0>
10.4103

>  <SCORE.INTRA.POLAR>
0

>  <SCORE.INTRA.POLAR.0>
0

>  <SCORE.INTRA.REPUL>
0

>  <SCORE.INTRA.REPUL.0>
0

>  <SCORE.INTRA.SOLV>
-0.0846899

>  <SCORE.INTRA.SOLV.lig_0>
-49.5008

>  <SCORE.INTRA.VDW>
0.21251

>  <SCORE.INTRA.VDW.0>
-2.6946

>  <SCORE.INTRA.norm>
-0.0177724

>  <SCORE.RESTR>
0.00138765

>  <SCORE.RESTR.CAVITY>
0.00138765

>  <SCORE.RESTR.norm>
5.13946e-05

>  <SCORE.SYSTEM>
0

>  <SCORE.SYSTEM.CONST>
0

>  <SCORE.SYSTEM.DIHEDRAL>
0

>  <SCORE.SYSTEM.SOLV>
0

>  <SCORE.SYSTEM.norm>
0

>  <SCORE.heavy>
27

>  <SCORE.norm>
-0.413596

>  <RMSD>
4.811

$$$$
ligand
 OpenBabel02271912153D
libRbt.so/2013.1/901 2013/11/27
 27 29  0  0  0  0  0  0  0  0999 V2000
   -0.4558  -11.5111   13.8694 N   0  0  0  0  0  0  0  0  0  0  0  0
    0.4746  -11.1694   14.9285 C   0  0  2  0  0  0  0  0  0  0  0  0
    1.6039  -12.1510   14.8631 C   0  0  0  0  0  0  0  0  0  0  0  0
    2.7641  -11.7642   15.1211 O   0  0  0  0  0  0  0  0  0  0  0  0
   -0.2163  -11.2443   16.2928 C   0  0  0  0  0  0  0  0  0  0  0  0
   -0.9073  -12.6101   16.5022 C   0  0  0  0  0  0  0  0  0  0  0  0
   -1.9853  -12.6862   17.7857 S   0  0  2  0  0  0  0  0  0  0  0  0
   -2.6522  -14.2058   17.8558 C   0  0  0  0  0  0  0  0  0  0  0  0
   -3.1857  -11.5157   17.5920 C   0  0  0  0  0  0  0  0  0  0  0  0
   -3.8848  -11.1084   18.9062 C   0  0  1  0  0  0  0  0  0  0  0  0
   -4.8012  -10.0130   18.7442 O   0  0  0  0  0  0  0  0  0  0  0  0
   -4.7859  -12.1918   19.4767 C   0  0  1  0  0  0  0  0  0  0  0  0
   -4.1485  -13.3134   20.1204 O   0  0  0  0  0  0  0  0  0  0  0  0
   -5.6535  -11.3713   20.3988 C   0  0  1  0  0  0  0  0  0  0  0  0
   -4.9038  -10.9594   21.5378 O   0  0  0  0  0  0  0  0  0  0  0  0
   -5.9647  -10.1670   19.5603 C   0  0  2  0  0  0  0  0  0  0  0  0
    1.3619  -13.3492   14.5819 O   0  0  0  0  0  0  0  0  0  0  0  0
   -9.0182   -8.8927   15.3976 N   0  0  0  0  0  0  0  0  0  0  0  0
   -7.7971   -8.4141   15.7389 C   0  0  0  0  0  0  0  0  0  0  0  0
   -7.1354   -8.8239   16.8341 N   0  0  0  0  0  0  0  0  0  0  0  0
   -7.6352   -9.7550   17.6543 C   0  0  0  0  0  0  0  0  0  0  0  0
   -8.9343  -10.3243   17.3290 C   0  0  0  0  0  0  0  0  0  0  0  0
   -9.6647   -9.8536   16.1294 C   0  0  0  0  0  0  0  0  0  0  0  0
  -10.9007  -10.3518   15.7732 N   0  0  0  0  0  0  0  0  0  0  0  0
   -9.1822  -11.2076   18.2694 N   0  0  0  0  0  0  0  0  0  0  0  0
   -8.1647  -11.2107   19.1415 C   0  0  0  0  0  0  0  0  0  0  0  0
   -7.2246  -10.3406   18.7744 N   0  0  0  0  0  0  0  0  0  0  0  0
  2  1  1  6  0  0  0
  2  3  1  0  0  0  0
  2  5  1  0  0  0  0
  3  4  1  0  0  0  0
  3 17  1  0  0  0  0
  5  6  1  0  0  0  0
  7  6  1  6  0  0  0
  7  8  1  0  0  0  0
  7  9  1  0  0  0  0
 10  9  1  6  0  0  0
 10 11  1  0  0  0  0
 10 12  1  0  0  0  0
 11 16  1  0  0  0  0
 12 13  1  1  0  0  0
 12 14  1  0  0  0  0
 14 15  1  1  0  0  0
 14 16  1  0  0  0  0
 16 27  1  6  0  0  0
 18 19  2  0  0  0  0
 18 23  1  0  0  0  0
 19 20  1  0  0  0  0
 20 21  2  0  0  0  0
 21 22  1  0  0  0  0
 21 27  1  0  0  0  0
 22 23  2  0  0  0  0
 22 25  1  0  0  0  0
 23 24  1  0  0  0  0
 25 26  2  0  0  0  0
 26 27  1  0  0  0  0
M  END
>  <CHROM.1>
143.96874625,53.05296254,-166.35036270,179.15184899,-157.27706371,173.76922762
-39.43925693,-4.30420541,-11.25418296,17.41475534,0.12032600,0.29206714,-1.24616540

>  <Name>
ligand

>  <RI>
0

>  <Rbt.Current_Directory>
/home/itssahil/PROJECTS/Mol_Feturizer/Test_systems_manuscript/rnas/4kqy

>  <Rbt.Executable>
rbdock ($Id: //depot/dev/client3/rdock/2013.1/src/exe/rbdock.cxx#4 $)

>  <Rbt.Library>
libRbt.so (2013.1, Build901 2013/11/27)

>  <Rbt.Parameter_File>
/export/apps/rDock/src/rDock_2013.1_src/data/scripts/dock_solv.prm

>  <Rbt.Receptor>
prm/pocket_docking_7.prm

>  <SCORE>
-9.06866

>  <SCORE.INTER>
-8.62268

>  <SCORE.INTER.CONST>
1

>  <SCORE.INTER.POLAR>
0

>  <SCORE.INTER.ROT>
7

>  <SCORE.INTER.SOLV>
5.92506

>  <SCORE.INTER.VDW>
-15.9901

>  <SCORE.INTER.norm>
-0.319359

>  <SCORE.INTRA>
-0.445979

>  <SCORE.INTRA.DIHEDRAL>
-5.28437

>  <SCORE.INTRA.DIHEDRAL.0>
10.4103

>  <SCORE.INTRA.POLAR>
0

>  <SCORE.INTRA.POLAR.0>
0

>  <SCORE.INTRA.REPUL>
0

>  <SCORE.INTRA.REPUL.0>
0

>  <SCORE.INTRA.SOLV>
0.676785

>  <SCORE.INTRA.SOLV.lig_0>
-49.5008

>  <SCORE.INTRA.VDW>
1.85782

>  <SCORE.INTRA.VDW.0>
-2.6946

>  <SCORE.INTRA.norm>
-0.0165177

>  <SCORE.RESTR>
0

>  <SCORE.RESTR.CAVITY>
0

>  <SCORE.RESTR.norm>
0

>  <SCORE.SYSTEM>
0

>  <SCORE.SYSTEM.CONST>
0

>  <SCORE.SYSTEM.DIHEDRAL>
0

>  <SCORE.SYSTEM.SOLV>
0

>  <SCORE.SYSTEM.norm>
0

>  <SCORE.heavy>
27

>  <SCORE.norm>
-0.335876

>  <RMSD>
4.847

$$$$
ligand
 OpenBabel02271912153D
libRbt.so/2013.1/901 2013/11/27
 27 29  0  0  0  0  0  0  0  0999 V2000
   -2.2975   -8.2924   17.1988 N   0  0  0  0  0  0  0  0  0  0  0  0
   -3.5920   -8.9460   17.1616 C   0  0  2  0  0  0  0  0  0  0  0  0
   -4.3544   -8.3590   16.0139 C   0  0  0  0  0  0  0  0  0  0  0  0
   -5.2251   -7.4913   16.2401 O   0  0  0  0  0  0  0  0  0  0  0  0
   -4.3460   -8.7150   18.4740 C   0  0  0  0  0  0  0  0  0  0  0  0
   -3.6332   -9.3966   19.6631 C   0  0  0  0  0  0  0  0  0  0  0  0
   -4.3860   -9.2251   21.1527 S   0  0  2  0  0  0  0  0  0  0  0  0
   -3.6083   -8.0494   22.0311 C   0  0  0  0  0  0  0  0  0  0  0  0
   -4.3635  -10.6985   21.9757 C   0  0  0  0  0  0  0  0  0  0  0  0
   -5.3860  -11.7281   21.4502 C   0  0  1  0  0  0  0  0  0  0  0  0
   -5.8611  -11.4295   20.1270 O   0  0  0  0  0  0  0  0  0  0  0  0
   -4.8075  -13.1223   21.2705 C   0  0  1  0  0  0  0  0  0  0  0  0
   -4.5775  -13.9032   22.4605 O   0  0  0  0  0  0  0  0  0  0  0  0
   -5.8249  -13.7241   20.3330 C   0  0  1  0  0  0  0  0  0  0  0  0
   -7.0408  -13.9799   21.0295 O   0  0  0  0  0  0  0  0  0  0  0  0
   -6.0521  -12.6141   19.3499 C   0  0  2  0  0  0  0  0  0  0  0  0
   -4.0844   -8.7245   14.8449 O   0  0  0  0  0  0  0  0  0  0  0  0
   -1.1872  -12.1786   17.2477 N   0  0  0  0  0  0  0  0  0  0  0  0
   -1.5872  -11.9670   18.5251 C   0  0  0  0  0  0  0  0  0  0  0  0
   -2.8636  -12.1084   18.9204 N   0  0  0  0  0  0  0  0  0  0  0  0
   -3.8268  -12.4910   18.0747 C   0  0  0  0  0  0  0  0  0  0  0  0
   -3.4557  -12.7554   16.6927 C   0  0  0  0  0  0  0  0  0  0  0  0
   -2.0495  -12.5797   16.2616 C   0  0  0  0  0  0  0  0  0  0  0  0
   -1.6391  -12.8099   14.9649 N   0  0  0  0  0  0  0  0  0  0  0  0
   -4.5640  -13.1211   16.0895 N   0  0  0  0  0  0  0  0  0  0  0  0
   -5.5717  -13.0834   16.9722 C   0  0  0  0  0  0  0  0  0  0  0  0
   -5.1340  -12.7092   18.1738 N   0  0  0  0  0  0  0  0  0  0  0  0
  2  1  1  1  0  0  0
  2  3  1  0  0  0  0
  2  5  1  0  0  0  0
  3  4  1  0  0  0  0
  3 17  1  0  0  0  0
  5  6  1  0  0  0  0
  7  6  1  6  0  0  0
  7  8  1  0  0  0  0
  7  9  1  0  0  0  0
 10  9  1  6  0  0  0
 10 11  1  0  0  0  0
 10 12  1  0  0  0  0
 11 16  1  0  0  0  0
 12 13  1  1  0  0  0
 12 14  1  0  0  0  0
 14 15  1  1  0  0  0
 14 16  1  0  0  0  0
 16 27  1  6  0  0  0
 18 19  2  0  0  0  0
 18 23  1  0  0  0  0
 19 20  1  0  0  0  0
 20 21  2  0  0  0  0
 21 22  1  0  0  0  0
 21 27  1  0  0  0  0
 22 23  2  0  0  0  0
 22 25  1  0  0  0  0
 23 24  1  0  0  0  0
 25 26  2  0  0  0  0
 26 27  1  0  0  0  0
M  END
>  <CHROM.1>
-101.01412055,-65.56899689,-179.21605654,-101.36250986,-75.79689935,18.66733162
45.57386395,-4.17238298,-11.13131516,18.78361982,0.16339071,1.23775267,0.26333782

>  <Name>
ligand

>  <RI>
0

>  <Rbt.Current_Directory>
/home/itssahil/PROJECTS/Mol_Feturizer/Test_systems_manuscript/rnas/4kqy

>  <Rbt.Executable>
rbdock ($Id: //depot/dev/client3/rdock/2013.1/src/exe/rbdock.cxx#4 $)

>  <Rbt.Library>
libRbt.so (2013.1, Build901 2013/11/27)

>  <Rbt.Parameter_File>
/export/apps/rDock/src/rDock_2013.1_src/data/scripts/dock_solv.prm

>  <Rbt.Receptor>
prm/pocket_docking_2.prm

>  <SCORE>
-10.566

>  <SCORE.INTER>
-10.5262

>  <SCORE.INTER.CONST>
1

>  <SCORE.INTER.POLAR>
0

>  <SCORE.INTER.ROT>
7

>  <SCORE.INTER.SOLV>
9.99571

>  <SCORE.INTER.VDW>
-18.616

>  <SCORE.INTER.norm>
-0.389859

>  <SCORE.INTRA>
-1.03787

>  <SCORE.INTRA.DIHEDRAL>
0.993162

>  <SCORE.INTRA.DIHEDRAL.0>
10.4103

>  <SCORE.INTRA.POLAR>
0

>  <SCORE.INTRA.POLAR.0>
0

>  <SCORE.INTRA.REPUL>
0

>  <SCORE.INTRA.REPUL.0>
0

>  <SCORE.INTRA.SOLV>
0.304903

>  <SCORE.INTRA.SOLV.lig_0>
-49.5008

>  <SCORE.INTRA.VDW>
-1.6869

>  <SCORE.INTRA.VDW.0>
-2.6946

>  <SCORE.INTRA.norm>
-0.0384397

>  <SCORE.RESTR>
0.998009

>  <SCORE.RESTR.CAVITY>
0.998009

>  <SCORE.RESTR.norm>
0.0369633

>  <SCORE.SYSTEM>
0

>  <SCORE.SYSTEM.CONST>
0

>  <SCORE.SYSTEM.DIHEDRAL>
0

>  <SCORE.SYSTEM.SOLV>
0

>  <SCORE.SYSTEM.norm>
0

>  <SCORE.heavy>
27

>  <SCORE.norm>
-0.391335

>  <RMSD>
4.850

$$$$
ligand
 OpenBabel02271912153D
libRbt.so/2013.1/901 2013/11/27
 27 29  0  0  0  0  0  0  0  0999 V2000
   -1.1775  -13.8447   16.3665 N   0  0  0  0  0  0  0  0  0  0  0  0
   -2.4694  -13.2302   16.6066 C   0  0  2  0  0  0  0  0  0  0  0  0
   -3.2739  -13.3804   15.3523 C   0  0  0  0  0  0  0  0  0  0  0  0
   -4.4739  -13.7202   15.4344 O   0  0  0  0  0  0  0  0  0  0  0  0
   -2.3009  -11.7490   16.9557 C   0  0  0  0  0  0  0  0  0  0  0  0
   -3.6566  -11.0900   17.2936 C   0  0  0  0  0  0  0  0  0  0  0  0
   -3.5765   -9.4990   17.8203 S   0  0  2  0  0  0  0  0  0  0  0  0
   -2.9073   -8.5566   16.6274 C   0  0  0  0  0  0  0  0  0  0  0  0
   -2.6596   -9.4122   19.2347 C   0  0  0  0  0  0  0  0  0  0  0  0
   -3.3546  -10.0172   20.4727 C   0  0  1  0  0  0  0  0  0  0  0  0
   -4.6703   -9.4850   20.7000 O   0  0  0  0  0  0  0  0  0  0  0  0
   -3.6339  -11.5061   20.3464 C   0  0  1  0  0  0  0  0  0  0  0  0
   -2.5158  -12.4050   20.4891 O   0  0  0  0  0  0  0  0  0  0  0  0
   -4.6944  -11.6783   21.4056 C   0  0  1  0  0  0  0  0  0  0  0  0
   -4.1115  -11.5807   22.7016 O   0  0  0  0  0  0  0  0  0  0  0  0
   -5.5739  -10.4848   21.1770 C   0  0  2  0  0  0  0  0  0  0  0  0
   -2.7393  -13.1323   14.2451 O   0  0  0  0  0  0  0  0  0  0  0  0
   -9.4450  -13.7059   19.4698 N   0  0  0  0  0  0  0  0  0  0  0  0
   -8.5851  -13.8778   20.5030 C   0  0  0  0  0  0  0  0  0  0  0  0
   -7.6411  -12.9762   20.8212 N   0  0  0  0  0  0  0  0  0  0  0  0
   -7.5021  -11.8303   20.1451 C   0  0  0  0  0  0  0  0  0  0  0  0
   -8.4114  -11.5771   19.0376 C   0  0  0  0  0  0  0  0  0  0  0  0
   -9.4374  -12.5848   18.6825 C   0  0  0  0  0  0  0  0  0  0  0  0
  -10.3230  -12.4032   17.6406 N   0  0  0  0  0  0  0  0  0  0  0  0
   -8.0752  -10.3995   18.5621 N   0  0  0  0  0  0  0  0  0  0  0  0
   -7.0367   -9.9275   19.2655 C   0  0  0  0  0  0  0  0  0  0  0  0
   -6.6883  -10.7827   20.2261 N   0  0  0  0  0  0  0  0  0  0  0  0
  2  1  1  6  0  0  0
  2  3  1  0  0  0  0
  2  5  1  0  0  0  0
  3  4  1  0  0  0  0
  3 17  1  0  0  0  0
  5  6  1  0  0  0  0
  7  6  1  6  0  0  0
  7  8  1  0  0  0  0
  7  9  1  0  0  0  0
 10  9  1  6  0  0  0
 10 11  1  0  0  0  0
 10 12  1  0  0  0  0
 11 16  1  0  0  0  0
 12 13  1  1  0  0  0
 12 14  1  0  0  0  0
 14 15  1  1  0  0  0
 14 16  1  0  0  0  0
 16 27  1  6  0  0  0
 18 19  2  0  0  0  0
 18 23  1  0  0  0  0
 19 20  1  0  0  0  0
 20 21  2  0  0  0  0
 21 22  1  0  0  0  0
 21 27  1  0  0  0  0
 22 23  2  0  0  0  0
 22 25  1  0  0  0  0
 23 24  1  0  0  0  0
 25 26  2  0  0  0  0
 26 27  1  0  0  0  0
M  END
>  <CHROM.1>
136.60972822,-176.80776748,174.93581783,61.06442844,-71.05514559,-52.90686804
161.20635491,-5.04863988,-11.54973414,18.72985077,0.41486098,-0.29605587
-2.05234641

>  <Name>
ligand

>  <RI>
0

>  <Rbt.Current_Directory>
/home/itssahil/PROJECTS/Mol_Feturizer/Test_systems_manuscript/rnas/4kqy

>  <Rbt.Executable>
rbdock ($Id: //depot/dev/client3/rdock/2013.1/src/exe/rbdock.cxx#4 $)

>  <Rbt.Library>
libRbt.so (2013.1, Build901 2013/11/27)

>  <Rbt.Parameter_File>
/export/apps/rDock/src/rDock_2013.1_src/data/scripts/dock_solv.prm

>  <Rbt.Receptor>
prm/pocket_docking_5.prm

>  <SCORE>
-14.1833

>  <SCORE.INTER>
-10.3947

>  <SCORE.INTER.CONST>
1

>  <SCORE.INTER.POLAR>
0

>  <SCORE.INTER.ROT>
7

>  <SCORE.INTER.SOLV>
10.0192

>  <SCORE.INTER.VDW>
-18.5362

>  <SCORE.INTER.norm>
-0.384989

>  <SCORE.INTRA>
-3.78856

>  <SCORE.INTRA.DIHEDRAL>
-7.04487

>  <SCORE.INTRA.DIHEDRAL.0>
10.4103

>  <SCORE.INTRA.POLAR>
0

>  <SCORE.INTRA.POLAR.0>
0

>  <SCORE.INTRA.REPUL>
0

>  <SCORE.INTRA.REPUL.0>
0

>  <SCORE.INTRA.SOLV>
-0.0621733

>  <SCORE.INTRA.SOLV.lig_0>
-49.5008

>  <SCORE.INTRA.VDW>
-0.235041

>  <SCORE.INTRA.VDW.0>
-2.6946

>  <SCORE.INTRA.norm>
-0.140317

>  <SCORE.RESTR>
0

>  <SCORE.RESTR.CAVITY>
0

>  <SCORE.RESTR.norm>
0

>  <SCORE.SYSTEM>
0

>  <SCORE.SYSTEM.CONST>
0

>  <SCORE.SYSTEM.DIHEDRAL>
0

>  <SCORE.SYSTEM.SOLV>
0

>  <SCORE.SYSTEM.norm>
0

>  <SCORE.heavy>
27

>  <SCORE.norm>
-0.525306

>  <RMSD>
4.891

$$$$
ligand
 OpenBabel02271912153D
libRbt.so/2013.1/901 2013/11/27
 27 29  0  0  0  0  0  0  0  0999 V2000
   -4.3882   -7.9586   16.7054 N   0  0  0  0  0  0  0  0  0  0  0  0
   -2.9828   -8.1801   16.9878 C   0  0  2  0  0  0  0  0  0  0  0  0
   -2.2843   -8.3413   15.6728 C   0  0  0  0  0  0  0  0  0  0  0  0
   -1.9184   -7.3228   15.0476 O   0  0  0  0  0  0  0  0  0  0  0  0
   -2.8004   -9.4364   17.8438 C   0  0  0  0  0  0  0  0  0  0  0  0
   -3.1009   -9.1545   19.3327 C   0  0  0  0  0  0  0  0  0  0  0  0
   -4.6928   -8.7609   19.6877 S   0  0  2  0  0  0  0  0  0  0  0  0
   -4.9163   -7.1282   19.4801 C   0  0  0  0  0  0  0  0  0  0  0  0
   -5.0527   -9.2160   21.2726 C   0  0  0  0  0  0  0  0  0  0  0  0
   -5.0772  -10.7425   21.4984 C   0  0  1  0  0  0  0  0  0  0  0  0
   -5.8882  -11.4436   20.5410 O   0  0  0  0  0  0  0  0  0  0  0  0
   -3.7227  -11.4068   21.3110 C   0  0  1  0  0  0  0  0  0  0  0  0
   -2.7472  -11.2305   22.3579 O   0  0  0  0  0  0  0  0  0  0  0  0
   -4.1450  -12.8405   21.1055 C   0  0  1  0  0  0  0  0  0  0  0  0
   -4.5967  -13.3984   22.3358 O   0  0  0  0  0  0  0  0  0  0  0  0
   -5.3144  -12.7012   20.1765 C   0  0  2  0  0  0  0  0  0  0  0  0
   -2.0509   -9.4943   15.2374 O   0  0  0  0  0  0  0  0  0  0  0  0
   -1.5098  -12.6873   16.4616 N   0  0  0  0  0  0  0  0  0  0  0  0
   -1.3891  -12.5852   17.8075 C   0  0  0  0  0  0  0  0  0  0  0  0
   -2.4472  -12.5956   18.6355 N   0  0  0  0  0  0  0  0  0  0  0  0
   -3.6982  -12.7300   18.1813 C   0  0  0  0  0  0  0  0  0  0  0  0
   -3.8918  -12.8668   16.7457 C   0  0  0  0  0  0  0  0  0  0  0  0
   -2.7209  -12.8362   15.8389 C   0  0  0  0  0  0  0  0  0  0  0  0
   -2.8422  -12.9557   14.4700 N   0  0  0  0  0  0  0  0  0  0  0  0
   -5.1876  -12.9949   16.5710 N   0  0  0  0  0  0  0  0  0  0  0  0
   -5.7952  -12.9286   17.7636 C   0  0  0  0  0  0  0  0  0  0  0  0
   -4.9029  -12.7742   18.7411 N   0  0  0  0  0  0  0  0  0  0  0  0
  2  1  1  6  0  0  0
  2  3  1  0  0  0  0
  2  5  1  0  0  0  0
  3  4  1  0  0  0  0
  3 17  1  0  0  0  0
  5  6  1  0  0  0  0
  7  6  1  1  0  0  0
  7  8  1  0  0  0  0
  7  9  1  0  0  0  0
 10  9  1  6  0  0  0
 10 11  1  0  0  0  0
 10 12  1  0  0  0  0
 11 16  1  0  0  0  0
 12 13  1  1  0  0  0
 12 14  1  0  0  0  0
 14 15  1  1  0  0  0
 14 16  1  0  0  0  0
 16 27  1  6  0  0  0
 18 19  2  0  0  0  0
 18 23  1  0  0  0  0
 19 20  1  0  0  0  0
 20 21  2  0  0  0  0
 21 22  1  0  0  0  0
 21 27  1  0  0  0  0
 22 23  2  0  0  0  0
 22 25  1  0  0  0  0
 23 24  1  0  0  0  0
 25 26  2  0  0  0  0
 26 27  1  0  0  0  0
M  END
>  <CHROM.1>
84.26260959,-79.65386654,65.73841348,-86.08968368,-67.87786663,-50.47570104
105.18609078,-3.75379612,-10.83049393,18.53670345,0.31846394,1.21313203,0.01657485

>  <Name>
ligand

>  <RI>
0

>  <Rbt.Current_Directory>
/home/itssahil/PROJECTS/Mol_Feturizer/Test_systems_manuscript/rnas/4kqy

>  <Rbt.Executable>
rbdock ($Id: //depot/dev/client3/rdock/2013.1/src/exe/rbdock.cxx#4 $)

>  <Rbt.Library>
libRbt.so (2013.1, Build901 2013/11/27)

>  <Rbt.Parameter_File>
/export/apps/rDock/src/rDock_2013.1_src/data/scripts/dock_solv.prm

>  <Rbt.Receptor>
prm/pocket_docking_2.prm

>  <SCORE>
-11.6204

>  <SCORE.INTER>
-10.5823

>  <SCORE.INTER.CONST>
1

>  <SCORE.INTER.POLAR>
0

>  <SCORE.INTER.ROT>
7

>  <SCORE.INTER.SOLV>
10.7958

>  <SCORE.INTER.VDW>
-18.9201

>  <SCORE.INTER.norm>
-0.391937

>  <SCORE.INTRA>
-1.40726

>  <SCORE.INTRA.DIHEDRAL>
-3.53396

>  <SCORE.INTRA.DIHEDRAL.0>
10.4103

>  <SCORE.INTRA.POLAR>
0

>  <SCORE.INTRA.POLAR.0>
0

>  <SCORE.INTRA.REPUL>
0

>  <SCORE.INTRA.REPUL.0>
0

>  <SCORE.INTRA.SOLV>
2.99365

>  <SCORE.INTRA.SOLV.lig_0>
-49.5008

>  <SCORE.INTRA.VDW>
-1.13711

>  <SCORE.INTRA.VDW.0>
-2.6946

>  <SCORE.INTRA.norm>
-0.0521209

>  <SCORE.RESTR>
0.369126

>  <SCORE.RESTR.CAVITY>
0.369126

>  <SCORE.RESTR.norm>
0.0136714

>  <SCORE.SYSTEM>
0

>  <SCORE.SYSTEM.CONST>
0

>  <SCORE.SYSTEM.DIHEDRAL>
0

>  <SCORE.SYSTEM.SOLV>
0

>  <SCORE.SYSTEM.norm>
0

>  <SCORE.heavy>
27

>  <SCORE.norm>
-0.430387

>  <RMSD>
4.906

$$$$
ligand
 OpenBabel02271912153D
libRbt.so/2013.1/901 2013/11/27
 27 29  0  0  0  0  0  0  0  0999 V2000
   -3.8825   -7.9797   19.4219 N   0  0  0  0  0  0  0  0  0  0  0  0
   -2.9144   -8.6637   18.5858 C   0  0  2  0  0  0  0  0  0  0  0  0
   -3.0448   -8.1029   17.2032 C   0  0  0  0  0  0  0  0  0  0  0  0
   -4.1834   -7.9604   16.7077 O   0  0  0  0  0  0  0  0  0  0  0  0
   -3.1857  -10.1705   18.5758 C   0  0  0  0  0  0  0  0  0  0  0  0
   -2.8090  -10.8218   19.9251 C   0  0  0  0  0  0  0  0  0  0  0  0
   -3.7091  -10.3175   21.2483 S   0  0  2  0  0  0  0  0  0  0  0  0
   -2.8130   -9.2477   22.1490 C   0  0  0  0  0  0  0  0  0  0  0  0
   -4.1542  -11.6541   22.1777 C   0  0  0  0  0  0  0  0  0  0  0  0
   -5.2520  -12.5287   21.5361 C   0  0  1  0  0  0  0  0  0  0  0  0
   -5.8369  -11.9347   20.3652 O   0  0  0  0  0  0  0  0  0  0  0  0
   -4.7360  -13.8520   20.9942 C   0  0  1  0  0  0  0  0  0  0  0  0
   -4.4222  -14.8834   21.9515 O   0  0  0  0  0  0  0  0  0  0  0  0
   -5.8532  -14.2169   20.0482 C   0  0  1  0  0  0  0  0  0  0  0  0
   -7.0075  -14.6115   20.7836 O   0  0  0  0  0  0  0  0  0  0  0  0
   -6.1350  -12.9116   19.3649 C   0  0  2  0  0  0  0  0  0  0  0  0
   -2.0129   -7.7570   16.5798 O   0  0  0  0  0  0  0  0  0  0  0  0
   -1.6528  -13.7222   16.6211 N   0  0  0  0  0  0  0  0  0  0  0  0
   -1.9627  -14.1073   17.8829 C   0  0  0  0  0  0  0  0  0  0  0  0
   -3.1428  -13.8253   18.4602 N   0  0  0  0  0  0  0  0  0  0  0  0
   -4.1044  -13.1581   17.8126 C   0  0  0  0  0  0  0  0  0  0  0  0
   -3.8401  -12.7366   16.4452 C   0  0  0  0  0  0  0  0  0  0  0  0
   -2.5297  -13.0362   15.8229 C   0  0  0  0  0  0  0  0  0  0  0  0
   -2.2196  -12.6578   14.5331 N   0  0  0  0  0  0  0  0  0  0  0  0
   -4.9314  -12.1257   16.0429 N   0  0  0  0  0  0  0  0  0  0  0  0
   -5.8214  -12.1219   17.0448 C   0  0  0  0  0  0  0  0  0  0  0  0
   -5.3319  -12.7476   18.1146 N   0  0  0  0  0  0  0  0  0  0  0  0
  2  1  1  1  0  0  0
  2  3  1  0  0  0  0
  2  5  1  0  0  0  0
  3  4  1  0  0  0  0
  3 17  1  0  0  0  0
  5  6  1  0  0  0  0
  7  6  1  6  0  0  0
  7  8  1  0  0  0  0
  7  9  1  0  0  0  0
 10  9  1  6  0  0  0
 10 11  1  0  0  0  0
 10 12  1  0  0  0  0
 11 16  1  0  0  0  0
 12 13  1  1  0  0  0
 12 14  1  0  0  0  0
 14 15  1  1  0  0  0
 14 16  1  0  0  0  0
 16 27  1  6  0  0  0
 18 19  2  0  0  0  0
 18 23  1  0  0  0  0
 19 20  1  0  0  0  0
 20 21  2  0  0  0  0
 21 22  1  0  0  0  0
 21 27  1  0  0  0  0
 22 23  2  0  0  0  0
 22 25  1  0  0  0  0
 23 24  1  0  0  0  0
 25 26  2  0  0  0  0
 26 27  1  0  0  0  0
M  END
>  <CHROM.1>
-46.05290036,-71.97977553,64.33466588,-102.93855745,-72.79531352,-8.98192093
83.20021492,-3.98406911,-11.66768816,18.92893492,0.08110582,1.18846162,0.73742799

>  <Name>
ligand

>  <RI>
0

>  <Rbt.Current_Directory>
/home/itssahil/PROJECTS/Mol_Feturizer/Test_systems_manuscript/rnas/4kqy

>  <Rbt.Executable>
rbdock ($Id: //depot/dev/client3/rdock/2013.1/src/exe/rbdock.cxx#4 $)

>  <Rbt.Library>
libRbt.so (2013.1, Build901 2013/11/27)

>  <Rbt.Parameter_File>
/export/apps/rDock/src/rDock_2013.1_src/data/scripts/dock_solv.prm

>  <Rbt.Receptor>
prm/pocket_docking_4.prm

>  <SCORE>
-12.9533

>  <SCORE.INTER>
-13.1168

>  <SCORE.INTER.CONST>
1

>  <SCORE.INTER.POLAR>
0

>  <SCORE.INTER.ROT>
7

>  <SCORE.INTER.SOLV>
9.28808

>  <SCORE.INTER.VDW>
-20.1073

>  <SCORE.INTER.norm>
-0.485809

>  <SCORE.INTRA>
0.16351

>  <SCORE.INTRA.DIHEDRAL>
2.42973

>  <SCORE.INTRA.DIHEDRAL.0>
10.4103

>  <SCORE.INTRA.POLAR>
0

>  <SCORE.INTRA.POLAR.0>
0

>  <SCORE.INTRA.REPUL>
0

>  <SCORE.INTRA.REPUL.0>
0

>  <SCORE.INTRA.SOLV>
2.59124

>  <SCORE.INTRA.SOLV.lig_0>
-49.5008

>  <SCORE.INTRA.VDW>
-2.34698

>  <SCORE.INTRA.VDW.0>
-2.6946

>  <SCORE.INTRA.norm>
0.00605593

>  <SCORE.RESTR>
0

>  <SCORE.RESTR.CAVITY>
0

>  <SCORE.RESTR.norm>
0

>  <SCORE.SYSTEM>
0

>  <SCORE.SYSTEM.CONST>
0

>  <SCORE.SYSTEM.DIHEDRAL>
0

>  <SCORE.SYSTEM.SOLV>
0

>  <SCORE.SYSTEM.norm>
0

>  <SCORE.heavy>
27

>  <SCORE.norm>
-0.479753

>  <RMSD>
4.921

$$$$
ligand
 OpenBabel02271912153D
libRbt.so/2013.1/901 2013/11/27
 27 29  0  0  0  0  0  0  0  0999 V2000
   -1.8938  -12.3219   15.2959 N   0  0  0  0  0  0  0  0  0  0  0  0
   -2.4647  -10.9885   15.3042 C   0  0  2  0  0  0  0  0  0  0  0  0
   -2.6712  -10.5835   13.8772 C   0  0  0  0  0  0  0  0  0  0  0  0
   -1.7657  -10.8026   13.0439 O   0  0  0  0  0  0  0  0  0  0  0  0
   -1.5211  -10.0066   16.0040 C   0  0  0  0  0  0  0  0  0  0  0  0
   -1.4081  -10.3102   17.5145 C   0  0  0  0  0  0  0  0  0  0  0  0
   -2.7082   -9.8134   18.4517 S   0  0  2  0  0  0  0  0  0  0  0  0
   -4.0699  -10.6450   17.9901 C   0  0  0  0  0  0  0  0  0  0  0  0
   -2.9356   -8.1504   18.2752 C   0  0  0  0  0  0  0  0  0  0  0  0
   -4.0937   -7.5807   19.1214 C   0  0  1  0  0  0  0  0  0  0  0  0
   -5.3732   -8.1386   18.7786 O   0  0  0  0  0  0  0  0  0  0  0  0
   -3.9889   -7.9169   20.6002 C   0  0  1  0  0  0  0  0  0  0  0  0
   -3.0152   -7.1916   21.3777 O   0  0  0  0  0  0  0  0  0  0  0  0
   -5.4142   -7.6849   21.0373 C   0  0  1  0  0  0  0  0  0  0  0  0
   -5.6991   -6.2893   21.0556 O   0  0  0  0  0  0  0  0  0  0  0  0
   -6.1981   -8.3265   19.9309 C   0  0  2  0  0  0  0  0  0  0  0  0
   -3.7596  -10.0611   13.5372 O   0  0  0  0  0  0  0  0  0  0  0  0
   -9.0215  -12.7271   18.9621 N   0  0  0  0  0  0  0  0  0  0  0  0
   -9.1102  -11.5093   18.3742 C   0  0  0  0  0  0  0  0  0  0  0  0
   -8.3306  -10.4732   18.7264 N   0  0  0  0  0  0  0  0  0  0  0  0
   -7.3936  -10.5845   19.6746 C   0  0  0  0  0  0  0  0  0  0  0  0
   -7.2343  -11.8748   20.3282 C   0  0  0  0  0  0  0  0  0  0  0  0
   -8.1102  -13.0066   19.9460 C   0  0  0  0  0  0  0  0  0  0  0  0
   -8.0098  -14.2506   20.5334 N   0  0  0  0  0  0  0  0  0  0  0  0
   -6.2568  -11.7189   21.1920 N   0  0  0  0  0  0  0  0  0  0  0  0
   -5.8248  -10.4516   21.1349 C   0  0  0  0  0  0  0  0  0  0  0  0
   -6.5023   -9.7619   20.2179 N   0  0  0  0  0  0  0  0  0  0  0  0
  2  1  1  6  0  0  0
  2  3  1  0  0  0  0
  2  5  1  0  0  0  0
  3  4  1  0  0  0  0
  3 17  1  0  0  0  0
  5  6  1  0  0  0  0
  7  6  1  6  0  0  0
  7  8  1  0  0  0  0
  7  9  1  0  0  0  0
 10  9  1  6  0  0  0
 10 11  1  0  0  0  0
 10 12  1  0  0  0  0
 11 16  1  0  0  0  0
 12 13  1  1  0  0  0
 12 14  1  0  0  0  0
 14 15  1  6  0  0  0
 14 16  1  0  0  0  0
 16 27  1  1  0  0  0
 18 19  2  0  0  0  0
 18 23  1  0  0  0  0
 19 20  1  0  0  0  0
 20 21  2  0  0  0  0
 21 22  1  0  0  0  0
 21 27  1  0  0  0  0
 22 23  2  0  0  0  0
 22 25  1  0  0  0  0
 23 24  1  0  0  0  0
 25 26  2  0  0  0  0
 26 27  1  0  0  0  0
M  END
>  <CHROM.1>
-44.42065785,-67.63601236,-76.90693109,63.75396388,-178.78348701,-61.68260774
-79.98536895,-4.80980661,-10.04639738,18.47960015,0.52674955,-0.62676665
-2.30361994

>  <Name>
ligand

>  <RI>
0

>  <Rbt.Current_Directory>
/home/itssahil/PROJECTS/Mol_Feturizer/Test_systems_manuscript/rnas/4kqy

>  <Rbt.Executable>
rbdock ($Id: //depot/dev/client3/rdock/2013.1/src/exe/rbdock.cxx#4 $)

>  <Rbt.Library>
libRbt.so (2013.1, Build901 2013/11/27)

>  <Rbt.Parameter_File>
/export/apps/rDock/src/rDock_2013.1_src/data/scripts/dock_solv.prm

>  <Rbt.Receptor>
prm/pocket_docking_7.prm

>  <SCORE>
-14.0876

>  <SCORE.INTER>
-12.5137

>  <SCORE.INTER.CONST>
1

>  <SCORE.INTER.POLAR>
0

>  <SCORE.INTER.ROT>
7

>  <SCORE.INTER.SOLV>
11.0852

>  <SCORE.INTER.VDW>
-20.3042

>  <SCORE.INTER.norm>
-0.46347

>  <SCORE.INTRA>
-1.57392

>  <SCORE.INTRA.DIHEDRAL>
-6.42665

>  <SCORE.INTRA.DIHEDRAL.0>
10.4103

>  <SCORE.INTRA.POLAR>
0

>  <SCORE.INTRA.POLAR.0>
0

>  <SCORE.INTRA.REPUL>
0

>  <SCORE.INTRA.REPUL.0>
0

>  <SCORE.INTRA.SOLV>
1.32976

>  <SCORE.INTRA.SOLV.lig_0>
-49.5008

>  <SCORE.INTRA.VDW>
0.97453

>  <SCORE.INTRA.VDW.0>
-2.6946

>  <SCORE.INTRA.norm>
-0.0582932

>  <SCORE.RESTR>
0

>  <SCORE.RESTR.CAVITY>
0

>  <SCORE.RESTR.norm>
0

>  <SCORE.SYSTEM>
0

>  <SCORE.SYSTEM.CONST>
0

>  <SCORE.SYSTEM.DIHEDRAL>
0

>  <SCORE.SYSTEM.SOLV>
0

>  <SCORE.SYSTEM.norm>
0

>  <SCORE.heavy>
27

>  <SCORE.norm>
-0.521763

>  <RMSD>
4.921

$$$$
ligand
 OpenBabel02271912153D
libRbt.so/2013.1/901 2013/11/27
 27 29  0  0  0  0  0  0  0  0999 V2000
   -2.9869  -13.4897   15.1151 N   0  0  0  0  0  0  0  0  0  0  0  0
   -3.3092  -12.2758   15.8408 C   0  0  2  0  0  0  0  0  0  0  0  0
   -3.5481  -12.6605   17.2684 C   0  0  0  0  0  0  0  0  0  0  0  0
   -2.7479  -12.2725   18.1467 O   0  0  0  0  0  0  0  0  0  0  0  0
   -4.5590  -11.6160   15.2519 C   0  0  0  0  0  0  0  0  0  0  0  0
   -4.7060  -10.1548   15.7311 C   0  0  0  0  0  0  0  0  0  0  0  0
   -5.0354   -9.9586   17.3646 S   0  0  2  0  0  0  0  0  0  0  0  0
   -6.5671  -10.5132   17.6885 C   0  0  0  0  0  0  0  0  0  0  0  0
   -4.8887   -8.3304   17.7841 C   0  0  0  0  0  0  0  0  0  0  0  0
   -4.3686   -8.0948   19.2179 C   0  0  1  0  0  0  0  0  0  0  0  0
   -5.2707   -8.5674   20.2322 O   0  0  0  0  0  0  0  0  0  0  0  0
   -3.0997   -8.8678   19.5392 C   0  0  1  0  0  0  0  0  0  0  0  0
   -1.8661   -8.3823   18.9725 O   0  0  0  0  0  0  0  0  0  0  0  0
   -3.1324   -8.8365   21.0472 C   0  0  1  0  0  0  0  0  0  0  0  0
   -2.8253   -7.5270   21.5161 O   0  0  0  0  0  0  0  0  0  0  0  0
   -4.5725   -9.1337   21.3437 C   0  0  2  0  0  0  0  0  0  0  0  0
   -4.5624  -13.3375   17.5616 O   0  0  0  0  0  0  0  0  0  0  0  0
   -7.7287  -13.3781   20.7966 N   0  0  0  0  0  0  0  0  0  0  0  0
   -7.9613  -12.0903   20.4446 C   0  0  0  0  0  0  0  0  0  0  0  0
   -7.0685  -11.1075   20.6503 N   0  0  0  0  0  0  0  0  0  0  0  0
   -5.8729  -11.3433   21.2017 C   0  0  0  0  0  0  0  0  0  0  0  0
   -5.5545  -12.7115   21.5811 C   0  0  0  0  0  0  0  0  0  0  0  0
   -6.5518  -13.7857   21.3672 C   0  0  0  0  0  0  0  0  0  0  0  0
   -6.3092  -15.0993   21.7111 N   0  0  0  0  0  0  0  0  0  0  0  0
   -4.3384  -12.6706   22.0766 N   0  0  0  0  0  0  0  0  0  0  0  0
   -3.9010  -11.4041   22.0499 C   0  0  0  0  0  0  0  0  0  0  0  0
   -4.8191  -10.5978   21.5185 N   0  0  0  0  0  0  0  0  0  0  0  0
  2  1  1  6  0  0  0
  2  3  1  0  0  0  0
  2  5  1  0  0  0  0
  3  4  1  0  0  0  0
  3 17  1  0  0  0  0
  5  6  1  0  0  0  0
  7  6  1  6  0  0  0
  7  8  1  0  0  0  0
  7  9  1  0  0  0  0
 10  9  1  6  0  0  0
 10 11  1  0  0  0  0
 10 12  1  0  0  0  0
 11 16  1  0  0  0  0
 12 13  1  6  0  0  0
 12 14  1  0  0  0  0
 14 15  1  6  0  0  0
 14 16  1  0  0  0  0
 16 27  1  6  0  0  0
 18 19  2  0  0  0  0
 18 23  1  0  0  0  0
 19 20  1  0  0  0  0
 20 21  2  0  0  0  0
 21 22  1  0  0  0  0
 21 27  1  0  0  0  0
 22 23  2  0  0  0  0
 22 25  1  0  0  0  0
 23 24  1  0  0  0  0
 25 26  2  0  0  0  0
 26 27  1  0  0  0  0
M  END
>  <CHROM.1>
112.87541237,-164.44905252,-67.47518670,-68.58968168,-146.71715680,-64.84006320
-28.66220694,-4.71970233,-10.94746274,19.23156336,0.63303868,-1.07523574
-2.13545210

>  <Name>
ligand

>  <RI>
0

>  <Rbt.Current_Directory>
/home/itssahil/PROJECTS/Mol_Feturizer/Test_systems_manuscript/rnas/4kqy

>  <Rbt.Executable>
rbdock ($Id: //depot/dev/client3/rdock/2013.1/src/exe/rbdock.cxx#4 $)

>  <Rbt.Library>
libRbt.so (2013.1, Build901 2013/11/27)

>  <Rbt.Parameter_File>
/export/apps/rDock/src/rDock_2013.1_src/data/scripts/dock_solv.prm

>  <Rbt.Receptor>
prm/pocket_docking_3.prm

>  <SCORE>
-13.0372

>  <SCORE.INTER>
-9.60984

>  <SCORE.INTER.CONST>
1

>  <SCORE.INTER.POLAR>
0

>  <SCORE.INTER.ROT>
7

>  <SCORE.INTER.SOLV>
14.5791

>  <SCORE.INTER.VDW>
-19.5329

>  <SCORE.INTER.norm>
-0.35592

>  <SCORE.INTRA>
-3.44041

>  <SCORE.INTRA.DIHEDRAL>
-3.39462

>  <SCORE.INTRA.DIHEDRAL.0>
10.4103

>  <SCORE.INTRA.POLAR>
0

>  <SCORE.INTRA.POLAR.0>
0

>  <SCORE.INTRA.REPUL>
0

>  <SCORE.INTRA.REPUL.0>
0

>  <SCORE.INTRA.SOLV>
-0.302896

>  <SCORE.INTRA.SOLV.lig_0>
-49.5008

>  <SCORE.INTRA.VDW>
-1.59165

>  <SCORE.INTRA.VDW.0>
-2.6946

>  <SCORE.INTRA.norm>
-0.127422

>  <SCORE.RESTR>
0.0129935

>  <SCORE.RESTR.CAVITY>
0.0129935

>  <SCORE.RESTR.norm>
0.000481242

>  <SCORE.SYSTEM>
0

>  <SCORE.SYSTEM.CONST>
0

>  <SCORE.SYSTEM.DIHEDRAL>
0

>  <SCORE.SYSTEM.SOLV>
0

>  <SCORE.SYSTEM.norm>
0

>  <SCORE.heavy>
27

>  <SCORE.norm>
-0.482861

>  <RMSD>
4.925

$$$$
ligand
 OpenBabel02271912153D
libRbt.so/2013.1/901 2013/11/27
 27 29  0  0  0  0  0  0  0  0999 V2000
   -0.9736   -9.5824   14.6268 N   0  0  0  0  0  0  0  0  0  0  0  0
   -2.1362   -8.9754   15.2466 C   0  0  2  0  0  0  0  0  0  0  0  0
   -1.8510   -8.8617   16.7125 C   0  0  0  0  0  0  0  0  0  0  0  0
   -1.6061   -9.8971   17.3683 O   0  0  0  0  0  0  0  0  0  0  0  0
   -3.3792   -9.8382   15.0124 C   0  0  0  0  0  0  0  0  0  0  0  0
   -4.6726   -9.0783   15.3816 C   0  0  0  0  0  0  0  0  0  0  0  0
   -5.0681   -9.0728   17.0122 S   0  0  2  0  0  0  0  0  0  0  0  0
   -6.7065   -9.2864   17.1825 C   0  0  0  0  0  0  0  0  0  0  0  0
   -4.5798   -7.6168   17.7122 C   0  0  0  0  0  0  0  0  0  0  0  0
   -4.5721   -7.6323   19.2554 C   0  0  1  0  0  0  0  0  0  0  0  0
   -5.8505   -7.9601   19.8247 O   0  0  0  0  0  0  0  0  0  0  0  0
   -3.6774   -8.7089   19.8482 C   0  0  1  0  0  0  0  0  0  0  0  0
   -2.2537   -8.4849   19.8067 O   0  0  0  0  0  0  0  0  0  0  0  0
   -4.2407   -8.7971   21.2450 C   0  0  1  0  0  0  0  0  0  0  0  0
   -3.8746   -7.6421   21.9939 O   0  0  0  0  0  0  0  0  0  0  0  0
   -5.7199   -8.7671   20.9975 C   0  0  2  0  0  0  0  0  0  0  0  0
   -1.8319   -7.7283   17.2493 O   0  0  0  0  0  0  0  0  0  0  0  0
   -5.3336  -14.0278   21.6700 N   0  0  0  0  0  0  0  0  0  0  0  0
   -4.4553  -13.0560   22.0175 C   0  0  0  0  0  0  0  0  0  0  0  0
   -4.6801  -11.7531   21.7783 N   0  0  0  0  0  0  0  0  0  0  0  0
   -5.8056  -11.3259   21.1950 C   0  0  0  0  0  0  0  0  0  0  0  0
   -6.7987  -12.3204   20.8183 C   0  0  0  0  0  0  0  0  0  0  0  0
   -6.5346  -13.7562   21.0696 C   0  0  0  0  0  0  0  0  0  0  0  0
   -7.4352  -14.7443   20.7300 N   0  0  0  0  0  0  0  0  0  0  0  0
   -7.7945  -11.6472   20.2882 N   0  0  0  0  0  0  0  0  0  0  0  0
   -7.4874  -10.3427   20.2917 C   0  0  0  0  0  0  0  0  0  0  0  0
   -6.2910  -10.1400   20.8422 N   0  0  0  0  0  0  0  0  0  0  0  0
  2  1  1  6  0  0  0
  2  3  1  0  0  0  0
  2  5  1  0  0  0  0
  3  4  1  0  0  0  0
  3 17  1  0  0  0  0
  5  6  1  0  0  0  0
  7  6  1  6  0  0  0
  7  8  1  0  0  0  0
  7  9  1  0  0  0  0
 10  9  1  6  0  0  0
 10 11  1  0  0  0  0
 10 12  1  0  0  0  0
 11 16  1  0  0  0  0
 12 13  1  1  0  0  0
 12 14  1  0  0  0  0
 14 15  1  1  0  0  0
 14 16  1  0  0  0  0
 16 27  1  6  0  0  0
 18 19  2  0  0  0  0
 18 23  1  0  0  0  0
 19 20  1  0  0  0  0
 20 21  2  0  0  0  0
 21 22  1  0  0  0  0
 21 27  1  0  0  0  0
 22 23  2  0  0  0  0
 22 25  1  0  0  0  0
 23 24  1  0  0  0  0
 25 26  2  0  0  0  0
 26 27  1  0  0  0  0
M  END
>  <CHROM.1>
-59.36886232,-167.42747004,-81.99737164,-139.16687255,-165.69662994,-57.55599028
135.39864953,-4.61845844,-9.91881532,19.01357086,0.28104465,-1.01635678,-2.18467121

>  <Name>
ligand

>  <RI>
0

>  <Rbt.Current_Directory>
/home/itssahil/PROJECTS/Mol_Feturizer/Test_systems_manuscript/rnas/4kqy

>  <Rbt.Executable>
rbdock ($Id: //depot/dev/client3/rdock/2013.1/src/exe/rbdock.cxx#4 $)

>  <Rbt.Library>
libRbt.so (2013.1, Build901 2013/11/27)

>  <Rbt.Parameter_File>
/export/apps/rDock/src/rDock_2013.1_src/data/scripts/dock_solv.prm

>  <Rbt.Receptor>
prm/pocket_docking_4.prm

>  <SCORE>
-15.9836

>  <SCORE.INTER>
-13.7966

>  <SCORE.INTER.CONST>
1

>  <SCORE.INTER.POLAR>
0

>  <SCORE.INTER.ROT>
7

>  <SCORE.INTER.SOLV>
16.8857

>  <SCORE.INTER.VDW>
-23.093

>  <SCORE.INTER.norm>
-0.510985

>  <SCORE.INTRA>
-2.18701

>  <SCORE.INTRA.DIHEDRAL>
-1.2532

>  <SCORE.INTRA.DIHEDRAL.0>
10.4103

>  <SCORE.INTRA.POLAR>
0

>  <SCORE.INTRA.POLAR.0>
0

>  <SCORE.INTRA.REPUL>
0

>  <SCORE.INTRA.REPUL.0>
0

>  <SCORE.INTRA.SOLV>
0.0590443

>  <SCORE.INTRA.SOLV.lig_0>
-49.5008

>  <SCORE.INTRA.VDW>
-1.58993

>  <SCORE.INTRA.VDW.0>
-2.6946

>  <SCORE.INTRA.norm>
-0.0810002

>  <SCORE.RESTR>
0

>  <SCORE.RESTR.CAVITY>
0

>  <SCORE.RESTR.norm>
0

>  <SCORE.SYSTEM>
0

>  <SCORE.SYSTEM.CONST>
0

>  <SCORE.SYSTEM.DIHEDRAL>
0

>  <SCORE.SYSTEM.SOLV>
0

>  <SCORE.SYSTEM.norm>
0

>  <SCORE.heavy>
27

>  <SCORE.norm>
-0.591985

>  <RMSD>
4.931

$$$$
ligand
 OpenBabel02271912153D
libRbt.so/2013.1/901 2013/11/27
 27 29  0  0  0  0  0  0  0  0999 V2000
   -4.8319  -10.0336   16.2546 N   0  0  0  0  0  0  0  0  0  0  0  0
   -4.9469  -11.1810   17.1345 C   0  0  2  0  0  0  0  0  0  0  0  0
   -5.2879  -12.3639   16.2815 C   0  0  0  0  0  0  0  0  0  0  0  0
   -4.4009  -13.2060   16.0239 O   0  0  0  0  0  0  0  0  0  0  0  0
   -6.0410  -10.9464   18.1796 C   0  0  0  0  0  0  0  0  0  0  0  0
   -6.2828  -12.2079   19.0379 C   0  0  0  0  0  0  0  0  0  0  0  0
   -5.0589  -12.5927   20.1193 S   0  0  2  0  0  0  0  0  0  0  0  0
   -5.0042  -14.2398   20.3263 C   0  0  0  0  0  0  0  0  0  0  0  0
   -5.3337  -11.8146   21.5916 C   0  0  0  0  0  0  0  0  0  0  0  0
   -4.6603  -10.4307   21.7068 C   0  0  1  0  0  0  0  0  0  0  0  0
   -3.2467  -10.4657   21.4493 O   0  0  0  0  0  0  0  0  0  0  0  0
   -5.1452   -9.4304   20.6699 C   0  0  1  0  0  0  0  0  0  0  0  0
   -6.4512   -8.8521   20.8663 O   0  0  0  0  0  0  0  0  0  0  0  0
   -4.0206   -8.4254   20.7097 C   0  0  1  0  0  0  0  0  0  0  0  0
   -4.0794   -7.6733   21.9179 O   0  0  0  0  0  0  0  0  0  0  0  0
   -2.8053   -9.3041   20.7427 C   0  0  2  0  0  0  0  0  0  0  0  0
   -6.4633  -12.5054   15.8674 O   0  0  0  0  0  0  0  0  0  0  0  0
   -1.5277  -12.8096   16.9538 N   0  0  0  0  0  0  0  0  0  0  0  0
   -2.0244  -13.0363   18.1942 C   0  0  0  0  0  0  0  0  0  0  0  0
   -2.2976  -12.0461   19.0604 N   0  0  0  0  0  0  0  0  0  0  0  0
   -2.1147  -10.7596   18.7432 C   0  0  0  0  0  0  0  0  0  0  0  0
   -1.6042  -10.4501   17.4161 C   0  0  0  0  0  0  0  0  0  0  0  0
   -1.2889  -11.5488   16.4741 C   0  0  0  0  0  0  0  0  0  0  0  0
   -0.7980  -11.3177   15.2059 N   0  0  0  0  0  0  0  0  0  0  0  0
   -1.5318   -9.1396   17.3584 N   0  0  0  0  0  0  0  0  0  0  0  0
   -1.9318   -8.6305   18.5318 C   0  0  0  0  0  0  0  0  0  0  0  0
   -2.2902   -9.6014   19.3710 N   0  0  0  0  0  0  0  0  0  0  0  0
  2  1  1  6  0  0  0
  2  3  1  0  0  0  0
  2  5  1  0  0  0  0
  3  4  1  0  0  0  0
  3 17  1  0  0  0  0
  5  6  1  0  0  0  0
  7  6  1  6  0  0  0
  7  8  1  0  0  0  0
  7  9  1  0  0  0  0
 10  9  1  6  0  0  0
 10 11  1  0  0  0  0
 10 12  1  0  0  0  0
 11 16  1  0  0  0  0
 12 13  1  1  0  0  0
 12 14  1  0  0  0  0
 14 15  1  1  0  0  0
 14 16  1  0  0  0  0
 16 27  1  6  0  0  0
 18 19  2  0  0  0  0
 18 23  1  0  0  0  0
 19 20  1  0  0  0  0
 20 21  2  0  0  0  0
 21 22  1  0  0  0  0
 21 27  1  0  0  0  0
 22 23  2  0  0  0  0
 22 25  1  0  0  0  0
 23 24  1  0  0  0  0
 25 26  2  0  0  0  0
 26 27  1  0  0  0  0
M  END
>  <CHROM.1>
104.34755020,174.20902141,70.93306179,-149.16084533,-91.53581263,-54.44524452
-4.00810927,-3.88713199,-11.01098378,18.84431649,1.20333277,-0.54961824,-2.21364277

>  <Name>
ligand

>  <RI>
0

>  <Rbt.Current_Directory>
/home/itssahil/PROJECTS/Mol_Feturizer/Test_systems_manuscript/rnas/4kqy

>  <Rbt.Executable>
rbdock ($Id: //depot/dev/client3/rdock/2013.1/src/exe/rbdock.cxx#4 $)

>  <Rbt.Library>
libRbt.so (2013.1, Build901 2013/11/27)

>  <Rbt.Parameter_File>
/export/apps/rDock/src/rDock_2013.1_src/data/scripts/dock_solv.prm

>  <Rbt.Receptor>
prm/pocket_docking_3.prm

>  <SCORE>
-14.1315

>  <SCORE.INTER>
-9.91925

>  <SCORE.INTER.CONST>
1

>  <SCORE.INTER.POLAR>
0

>  <SCORE.INTER.ROT>
7

>  <SCORE.INTER.SOLV>
7.01977

>  <SCORE.INTER.VDW>
-17.2194

>  <SCORE.INTER.norm>
-0.36738

>  <SCORE.INTRA>
-4.24484

>  <SCORE.INTRA.DIHEDRAL>
-1.92762

>  <SCORE.INTRA.DIHEDRAL.0>
10.4103

>  <SCORE.INTRA.POLAR>
0

>  <SCORE.INTRA.POLAR.0>
0

>  <SCORE.INTRA.REPUL>
0

>  <SCORE.INTRA.REPUL.0>
0

>  <SCORE.INTRA.SOLV>
1.13438

>  <SCORE.INTRA.SOLV.lig_0>
-49.5008

>  <SCORE.INTRA.VDW>
-3.84822

>  <SCORE.INTRA.VDW.0>
-2.6946

>  <SCORE.INTRA.norm>
-0.157216

>  <SCORE.RESTR>
0.0326181

>  <SCORE.RESTR.CAVITY>
0.0326181

>  <SCORE.RESTR.norm>
0.00120808

>  <SCORE.SYSTEM>
0

>  <SCORE.SYSTEM.CONST>
0

>  <SCORE.SYSTEM.DIHEDRAL>
0

>  <SCORE.SYSTEM.SOLV>
0

>  <SCORE.SYSTEM.norm>
0

>  <SCORE.heavy>
27

>  <SCORE.norm>
-0.523388

>  <RMSD>
4.943

$$$$
ligand
 OpenBabel02271912153D
libRbt.so/2013.1/901 2013/11/27
 27 29  0  0  0  0  0  0  0  0999 V2000
   -2.4578  -10.1221   16.3229 N   0  0  0  0  0  0  0  0  0  0  0  0
   -3.5617   -9.3039   16.7878 C   0  0  2  0  0  0  0  0  0  0  0  0
   -4.3497   -8.8927   15.5824 C   0  0  0  0  0  0  0  0  0  0  0  0
   -5.5172   -8.4720   15.7313 O   0  0  0  0  0  0  0  0  0  0  0  0
   -3.0387   -8.0695   17.5273 C   0  0  0  0  0  0  0  0  0  0  0  0
   -4.1467   -7.4072   18.3759 C   0  0  0  0  0  0  0  0  0  0  0  0
   -4.6793   -8.2989   19.6937 S   0  0  2  0  0  0  0  0  0  0  0  0
   -5.8122   -7.4201   20.5321 C   0  0  0  0  0  0  0  0  0  0  0  0
   -3.3703   -8.6867   20.6860 C   0  0  0  0  0  0  0  0  0  0  0  0
   -3.3886  -10.1372   21.2128 C   0  0  1  0  0  0  0  0  0  0  0  0
   -4.5888  -10.4627   21.9335 O   0  0  0  0  0  0  0  0  0  0  0  0
   -3.3884  -11.1844   20.1109 C   0  0  1  0  0  0  0  0  0  0  0  0
   -2.1470  -11.4140   19.4145 O   0  0  0  0  0  0  0  0  0  0  0  0
   -3.8922  -12.3856   20.8722 C   0  0  1  0  0  0  0  0  0  0  0  0
   -2.8820  -12.8639   21.7552 O   0  0  0  0  0  0  0  0  0  0  0  0
   -5.0122  -11.8052   21.6839 C   0  0  2  0  0  0  0  0  0  0  0  0
   -3.8144   -8.9475   14.4494 O   0  0  0  0  0  0  0  0  0  0  0  0
   -9.0670  -14.6999   19.8250 N   0  0  0  0  0  0  0  0  0  0  0  0
   -7.9601  -15.1098   20.4908 C   0  0  0  0  0  0  0  0  0  0  0  0
   -7.0016  -14.2616   20.8998 N   0  0  0  0  0  0  0  0  0  0  0  0
   -7.0896  -12.9431   20.6925 C   0  0  0  0  0  0  0  0  0  0  0  0
   -8.2667  -12.4382   20.0018 C   0  0  0  0  0  0  0  0  0  0  0  0
   -9.3098  -13.3824   19.5386 C   0  0  0  0  0  0  0  0  0  0  0  0
  -10.4441  -12.9638   18.8744 N   0  0  0  0  0  0  0  0  0  0  0  0
   -8.1131  -11.1348   19.9413 N   0  0  0  0  0  0  0  0  0  0  0  0
   -6.9458  -10.8081   20.5127 C   0  0  0  0  0  0  0  0  0  0  0  0
   -6.3246  -11.8932   20.9732 N   0  0  0  0  0  0  0  0  0  0  0  0
  2  1  1  6  0  0  0
  2  3  1  0  0  0  0
  2  5  1  0  0  0  0
  3  4  1  0  0  0  0
  3 17  1  0  0  0  0
  5  6  1  0  0  0  0
  7  6  1  6  0  0  0
  7  8  1  0  0  0  0
  7  9  1  0  0  0  0
 10  9  1  6  0  0  0
 10 11  1  0  0  0  0
 10 12  1  0  0  0  0
 11 16  1  0  0  0  0
 12 13  1  1  0  0  0
 12 14  1  0  0  0  0
 14 15  1  1  0  0  0
 14 16  1  0  0  0  0
 16 27  1  6  0  0  0
 18 19  2  0  0  0  0
 18 23  1  0  0  0  0
 19 20  1  0  0  0  0
 20 21  2  0  0  0  0
 21 22  1  0  0  0  0
 21 27  1  0  0  0  0
 22 23  2  0  0  0  0
 22 25  1  0  0  0  0
 23 24  1  0  0  0  0
 25 26  2  0  0  0  0
 26 27  1  0  0  0  0
M  END
>  <CHROM.1>
162.26849532,-163.44573791,67.93639895,177.43509051,-137.49839386,-56.66189965
-172.52705741,-5.31470600,-10.75893124,19.40840718,0.79279026,-0.52493306
-1.01085869

>  <Name>
ligand

>  <RI>
0

>  <Rbt.Current_Directory>
/home/itssahil/PROJECTS/Mol_Feturizer/Test_systems_manuscript/rnas/4kqy

>  <Rbt.Executable>
rbdock ($Id: //depot/dev/client3/rdock/2013.1/src/exe/rbdock.cxx#4 $)

>  <Rbt.Library>
libRbt.so (2013.1, Build901 2013/11/27)

>  <Rbt.Parameter_File>
/export/apps/rDock/src/rDock_2013.1_src/data/scripts/dock_solv.prm

>  <Rbt.Receptor>
prm/pocket_docking_5.prm

>  <SCORE>
-18.2882

>  <SCORE.INTER>
-16.4314

>  <SCORE.INTER.CONST>
1

>  <SCORE.INTER.POLAR>
0

>  <SCORE.INTER.ROT>
7

>  <SCORE.INTER.SOLV>
11.6129

>  <SCORE.INTER.VDW>
-23.0919

>  <SCORE.INTER.norm>
-0.608571

>  <SCORE.INTRA>
-1.85837

>  <SCORE.INTRA.DIHEDRAL>
-2.57367

>  <SCORE.INTRA.DIHEDRAL.0>
10.4103

>  <SCORE.INTRA.POLAR>
0

>  <SCORE.INTRA.POLAR.0>
0

>  <SCORE.INTRA.REPUL>
0

>  <SCORE.INTRA.REPUL.0>
0

>  <SCORE.INTRA.SOLV>
1.2099

>  <SCORE.INTRA.SOLV.lig_0>
-49.5008

>  <SCORE.INTRA.VDW>
-1.17649

>  <SCORE.INTRA.VDW.0>
-2.6946

>  <SCORE.INTRA.norm>
-0.0688286

>  <SCORE.RESTR>
0.00161753

>  <SCORE.RESTR.CAVITY>
0.00161753

>  <SCORE.RESTR.norm>
5.99085e-05

>  <SCORE.SYSTEM>
0

>  <SCORE.SYSTEM.CONST>
0

>  <SCORE.SYSTEM.DIHEDRAL>
0

>  <SCORE.SYSTEM.SOLV>
0

>  <SCORE.SYSTEM.norm>
0

>  <SCORE.heavy>
27

>  <SCORE.norm>
-0.67734

>  <RMSD>
4.943

$$$$
ligand
 OpenBabel02271912153D
libRbt.so/2013.1/901 2013/11/27
 27 29  0  0  0  0  0  0  0  0999 V2000
   -2.5983  -13.5752   16.7524 N   0  0  0  0  0  0  0  0  0  0  0  0
   -1.9308  -12.9796   17.8942 C   0  0  2  0  0  0  0  0  0  0  0  0
   -2.9917  -12.5911   18.8775 C   0  0  0  0  0  0  0  0  0  0  0  0
   -2.6620  -12.3016   20.0478 O   0  0  0  0  0  0  0  0  0  0  0  0
   -1.1292  -11.7483   17.4633 C   0  0  0  0  0  0  0  0  0  0  0  0
   -1.9964  -10.7681   16.6425 C   0  0  0  0  0  0  0  0  0  0  0  0
   -3.1169   -9.8820   17.5226 S   0  0  2  0  0  0  0  0  0  0  0  0
   -4.1430   -9.0982   16.4779 C   0  0  0  0  0  0  0  0  0  0  0  0
   -2.3165   -8.7764   18.5153 C   0  0  0  0  0  0  0  0  0  0  0  0
   -3.1795   -8.2304   19.6724 C   0  0  1  0  0  0  0  0  0  0  0  0
   -4.5140   -7.8819   19.2678 O   0  0  0  0  0  0  0  0  0  0  0  0
   -3.4387   -9.2490   20.7707 C   0  0  1  0  0  0  0  0  0  0  0  0
   -2.3522   -9.5439   21.6714 O   0  0  0  0  0  0  0  0  0  0  0  0
   -4.6382   -8.6291   21.4439 C   0  0  1  0  0  0  0  0  0  0  0  0
   -4.2443   -7.4741   22.1784 O   0  0  0  0  0  0  0  0  0  0  0  0
   -5.4762   -8.2001   20.2760 C   0  0  2  0  0  0  0  0  0  0  0  0
   -4.1869  -12.5326   18.5018 O   0  0  0  0  0  0  0  0  0  0  0  0
   -8.6333  -10.3784   16.5931 N   0  0  0  0  0  0  0  0  0  0  0  0
   -7.8419   -9.2823   16.4989 C   0  0  0  0  0  0  0  0  0  0  0  0
   -7.0944   -8.8349   17.5219 N   0  0  0  0  0  0  0  0  0  0  0  0
   -7.0672   -9.4611   18.7037 C   0  0  0  0  0  0  0  0  0  0  0  0
   -7.8792  -10.6583   18.8602 C   0  0  0  0  0  0  0  0  0  0  0  0
   -8.7140  -11.1341   17.7329 C   0  0  0  0  0  0  0  0  0  0  0  0
   -9.5077  -12.2587   17.8234 N   0  0  0  0  0  0  0  0  0  0  0  0
   -7.6640  -11.0775   20.0866 N   0  0  0  0  0  0  0  0  0  0  0  0
   -6.8143  -10.2354   20.6905 C   0  0  0  0  0  0  0  0  0  0  0  0
   -6.4453   -9.2602   19.8609 N   0  0  0  0  0  0  0  0  0  0  0  0
  2  1  1  6  0  0  0
  2  3  1  0  0  0  0
  2  5  1  0  0  0  0
  3  4  1  0  0  0  0
  3 17  1  0  0  0  0
  5  6  1  0  0  0  0
  7  6  1  6  0  0  0
  7  8  1  0  0  0  0
  7  9  1  0  0  0  0
 10  9  1  6  0  0  0
 10 11  1  0  0  0  0
 10 12  1  0  0  0  0
 11 16  1  0  0  0  0
 12 13  1  1  0  0  0
 12 14  1  0  0  0  0
 14 15  1  6  0  0  0
 14 16  1  0  0  0  0
 16 27  1  6  0  0  0
 18 19  2  0  0  0  0
 18 23  1  0  0  0  0
 19 20  1  0  0  0  0
 20 21  2  0  0  0  0
 21 22  1  0  0  0  0
 21 27  1  0  0  0  0
 22 23  2  0  0  0  0
 22 25  1  0  0  0  0
 23 24  1  0  0  0  0
 25 26  2  0  0  0  0
 26 27  1  0  0  0  0
M  END
>  <CHROM.1>
165.95790440,51.40766152,74.07044945,-169.66657118,-161.66761865,-43.62919673
-40.93201770,-4.74547023,-10.19736649,18.79261888,0.03104117,0.12080792,-2.34632649

>  <Name>
ligand

>  <RI>
0

>  <Rbt.Current_Directory>
/home/itssahil/PROJECTS/Mol_Feturizer/Test_systems_manuscript/rnas/4kqy

>  <Rbt.Executable>
rbdock ($Id: //depot/dev/client3/rdock/2013.1/src/exe/rbdock.cxx#4 $)

>  <Rbt.Library>
libRbt.so (2013.1, Build901 2013/11/27)

>  <Rbt.Parameter_File>
/export/apps/rDock/src/rDock_2013.1_src/data/scripts/dock_solv.prm

>  <Rbt.Receptor>
prm/pocket_docking_7.prm

>  <SCORE>
-15.0739

>  <SCORE.INTER>
-12.3178

>  <SCORE.INTER.CONST>
1

>  <SCORE.INTER.POLAR>
0

>  <SCORE.INTER.ROT>
7

>  <SCORE.INTER.SOLV>
10.7604

>  <SCORE.INTER.VDW>
-20.0654

>  <SCORE.INTER.norm>
-0.456216

>  <SCORE.INTRA>
-2.75604

>  <SCORE.INTRA.DIHEDRAL>
-4.54021

>  <SCORE.INTRA.DIHEDRAL.0>
10.4103

>  <SCORE.INTRA.POLAR>
0

>  <SCORE.INTRA.POLAR.0>
0

>  <SCORE.INTRA.REPUL>
0

>  <SCORE.INTRA.REPUL.0>
0

>  <SCORE.INTRA.SOLV>
1.14295

>  <SCORE.INTRA.SOLV.lig_0>
-49.5008

>  <SCORE.INTRA.VDW>
-1.05741

>  <SCORE.INTRA.VDW.0>
-2.6946

>  <SCORE.INTRA.norm>
-0.102076

>  <SCORE.RESTR>
0

>  <SCORE.RESTR.CAVITY>
0

>  <SCORE.RESTR.norm>
0

>  <SCORE.SYSTEM>
0

>  <SCORE.SYSTEM.CONST>
0

>  <SCORE.SYSTEM.DIHEDRAL>
0

>  <SCORE.SYSTEM.SOLV>
0

>  <SCORE.SYSTEM.norm>
0

>  <SCORE.heavy>
27

>  <SCORE.norm>
-0.558292

>  <RMSD>
4.946

$$$$
ligand
 OpenBabel02271912153D
libRbt.so/2013.1/901 2013/11/27
 27 29  0  0  0  0  0  0  0  0999 V2000
   -1.8094  -10.2905   12.8630 N   0  0  0  0  0  0  0  0  0  0  0  0
   -2.7788  -11.1818   13.4714 C   0  0  2  0  0  0  0  0  0  0  0  0
   -3.8065  -11.5002   12.4295 C   0  0  0  0  0  0  0  0  0  0  0  0
   -4.4166  -12.5895   12.4875 O   0  0  0  0  0  0  0  0  0  0  0  0
   -3.4375  -10.5112   14.6800 C   0  0  0  0  0  0  0  0  0  0  0  0
   -2.3877  -10.0733   15.7254 C   0  0  0  0  0  0  0  0  0  0  0  0
   -3.0035   -9.5766   17.2050 S   0  0  2  0  0  0  0  0  0  0  0  0
   -1.9273   -8.5396   17.9298 C   0  0  0  0  0  0  0  0  0  0  0  0
   -3.2887  -10.9214   18.1841 C   0  0  0  0  0  0  0  0  0  0  0  0
   -3.9143  -10.5812   19.5533 C   0  0  1  0  0  0  0  0  0  0  0  0
   -5.2419  -10.0401   19.4504 O   0  0  0  0  0  0  0  0  0  0  0  0
   -4.1368  -11.7965   20.4390 C   0  0  1  0  0  0  0  0  0  0  0  0
   -2.9784  -12.3771   21.0713 O   0  0  0  0  0  0  0  0  0  0  0  0
   -5.1514  -11.2471   21.4110 C   0  0  1  0  0  0  0  0  0  0  0  0
   -4.5279  -10.3250   22.2999 O   0  0  0  0  0  0  0  0  0  0  0  0
   -6.0865  -10.4966   20.5096 C   0  0  2  0  0  0  0  0  0  0  0  0
   -4.0592  -10.6563   11.5367 O   0  0  0  0  0  0  0  0  0  0  0  0
  -10.1306  -11.3693   17.1690 N   0  0  0  0  0  0  0  0  0  0  0  0
   -9.2701  -10.3233   17.2128 C   0  0  0  0  0  0  0  0  0  0  0  0
   -8.2885  -10.2268   18.1252 N   0  0  0  0  0  0  0  0  0  0  0  0
   -8.0828  -11.1765   19.0445 C   0  0  0  0  0  0  0  0  0  0  0  0
   -8.9607  -12.3368   19.0350 C   0  0  0  0  0  0  0  0  0  0  0  0
  -10.0514  -12.4264   18.0368 C   0  0  0  0  0  0  0  0  0  0  0  0
  -10.9178  -13.4984   17.9821 N   0  0  0  0  0  0  0  0  0  0  0  0
   -8.5421  -13.1089   20.0121 N   0  0  0  0  0  0  0  0  0  0  0  0
   -7.5074  -12.5148   20.6222 C   0  0  0  0  0  0  0  0  0  0  0  0
   -7.2206  -11.3506   20.0409 N   0  0  0  0  0  0  0  0  0  0  0  0
  2  1  1  6  0  0  0
  2  3  1  0  0  0  0
  2  5  1  0  0  0  0
  3  4  1  0  0  0  0
  3 17  1  0  0  0  0
  5  6  1  0  0  0  0
  7  6  1  6  0  0  0
  7  8  1  0  0  0  0
  7  9  1  0  0  0  0
 10  9  1  6  0  0  0
 10 11  1  0  0  0  0
 10 12  1  0  0  0  0
 11 16  1  0  0  0  0
 12 13  1  1  0  0  0
 12 14  1  0  0  0  0
 14 15  1  1  0  0  0
 14 16  1  0  0  0  0
 16 27  1  6  0  0  0
 18 19  2  0  0  0  0
 18 23  1  0  0  0  0
 19 20  1  0  0  0  0
 20 21  2  0  0  0  0
 21 22  1  0  0  0  0
 21 27  1  0  0  0  0
 22 23  2  0  0  0  0
 22 25  1  0  0  0  0
 23 24  1  0  0  0  0
 25 26  2  0  0  0  0
 26 27  1  0  0  0  0
M  END
>  <CHROM.1>
152.02567605,-57.19794598,-169.59292121,-154.69689549,-177.56053266,65.65656252
-47.04346958,-5.40428059,-11.05483277,17.67320055,0.86956451,-0.27463427
-1.60980286

>  <Name>
ligand

>  <RI>
0

>  <Rbt.Current_Directory>
/home/itssahil/PROJECTS/Mol_Feturizer/Test_systems_manuscript/rnas/4kqy

>  <Rbt.Executable>
rbdock ($Id: //depot/dev/client3/rdock/2013.1/src/exe/rbdock.cxx#4 $)

>  <Rbt.Library>
libRbt.so (2013.1, Build901 2013/11/27)

>  <Rbt.Parameter_File>
/export/apps/rDock/src/rDock_2013.1_src/data/scripts/dock_solv.prm

>  <Rbt.Receptor>
prm/pocket_docking_8.prm

>  <SCORE>
-10.3793

>  <SCORE.INTER>
-8.7599

>  <SCORE.INTER.CONST>
1

>  <SCORE.INTER.POLAR>
0

>  <SCORE.INTER.ROT>
7

>  <SCORE.INTER.SOLV>
9.56052

>  <SCORE.INTER.VDW>
-17.2934

>  <SCORE.INTER.norm>
-0.324441

>  <SCORE.INTRA>
-1.61939

>  <SCORE.INTRA.DIHEDRAL>
-5.47382

>  <SCORE.INTRA.DIHEDRAL.0>
10.4103

>  <SCORE.INTRA.POLAR>
0

>  <SCORE.INTRA.POLAR.0>
0

>  <SCORE.INTRA.REPUL>
0

>  <SCORE.INTRA.REPUL.0>
0

>  <SCORE.INTRA.SOLV>
0.0679494

>  <SCORE.INTRA.SOLV.lig_0>
-49.5008

>  <SCORE.INTRA.VDW>
1.08355

>  <SCORE.INTRA.VDW.0>
-2.6946

>  <SCORE.INTRA.norm>
-0.0599773

>  <SCORE.RESTR>
0

>  <SCORE.RESTR.CAVITY>
0

>  <SCORE.RESTR.norm>
0

>  <SCORE.SYSTEM>
0

>  <SCORE.SYSTEM.CONST>
0

>  <SCORE.SYSTEM.DIHEDRAL>
0

>  <SCORE.SYSTEM.SOLV>
0

>  <SCORE.SYSTEM.norm>
0

>  <SCORE.heavy>
27

>  <SCORE.norm>
-0.384418

>  <RMSD>
4.949

$$$$
ligand
 OpenBabel02271912153D
libRbt.so/2013.1/901 2013/11/27
 27 29  0  0  0  0  0  0  0  0999 V2000
   -2.1825  -12.0382   13.7334 N   0  0  0  0  0  0  0  0  0  0  0  0
   -2.4371  -11.3193   14.9673 C   0  0  2  0  0  0  0  0  0  0  0  0
   -3.6943  -10.5292   14.7712 C   0  0  0  0  0  0  0  0  0  0  0  0
   -4.6159  -10.6315   15.6093 O   0  0  0  0  0  0  0  0  0  0  0  0
   -1.2683  -10.3857   15.2936 C   0  0  0  0  0  0  0  0  0  0  0  0
   -1.3121   -9.9180   16.7653 C   0  0  0  0  0  0  0  0  0  0  0  0
   -2.6194   -8.9506   17.1784 S   0  0  2  0  0  0  0  0  0  0  0  0
   -2.6138   -7.5840   16.2346 C   0  0  0  0  0  0  0  0  0  0  0  0
   -2.5348   -8.5465   18.8149 C   0  0  0  0  0  0  0  0  0  0  0  0
   -3.8380   -7.9457   19.3826 C   0  0  1  0  0  0  0  0  0  0  0  0
   -5.0208   -8.6161   18.9160 O   0  0  0  0  0  0  0  0  0  0  0  0
   -3.9678   -8.0897   20.8903 C   0  0  1  0  0  0  0  0  0  0  0  0
   -3.1649   -7.2178   21.7112 O   0  0  0  0  0  0  0  0  0  0  0  0
   -5.4536   -7.8897   21.0594 C   0  0  1  0  0  0  0  0  0  0  0  0
   -5.7901   -6.5218   20.8481 O   0  0  0  0  0  0  0  0  0  0  0  0
   -6.0180   -8.7083   19.9361 C   0  0  2  0  0  0  0  0  0  0  0  0
   -3.7879   -9.7561   13.7880 O   0  0  0  0  0  0  0  0  0  0  0  0
   -4.3651  -13.4065   21.7992 N   0  0  0  0  0  0  0  0  0  0  0  0
   -3.6452  -12.2854   21.5510 C   0  0  0  0  0  0  0  0  0  0  0  0
   -4.1965  -11.1589   21.0688 N   0  0  0  0  0  0  0  0  0  0  0  0
   -5.5075  -11.0643   20.8204 C   0  0  0  0  0  0  0  0  0  0  0  0
   -6.3383  -12.2285   21.0880 C   0  0  0  0  0  0  0  0  0  0  0  0
   -5.7193  -13.4720   21.6026 C   0  0  0  0  0  0  0  0  0  0  0  0
   -6.4542  -14.6083   21.8699 N   0  0  0  0  0  0  0  0  0  0  0  0
   -7.5638  -11.8712   20.7773 N   0  0  0  0  0  0  0  0  0  0  0  0
   -7.5476  -10.6084   20.3292 C   0  0  0  0  0  0  0  0  0  0  0  0
   -6.3111  -10.1125   20.3571 N   0  0  0  0  0  0  0  0  0  0  0  0
  2  1  1  6  0  0  0
  2  3  1  0  0  0  0
  2  5  1  0  0  0  0
  3  4  1  0  0  0  0
  3 17  1  0  0  0  0
  5  6  1  0  0  0  0
  7  6  1  6  0  0  0
  7  8  1  0  0  0  0
  7  9  1  0  0  0  0
 10  9  1  6  0  0  0
 10 11  1  0  0  0  0
 10 12  1  0  0  0  0
 11 16  1  0  0  0  0
 12 13  1  1  0  0  0
 12 14  1  0  0  0  0
 14 15  1  6  0  0  0
 14 16  1  0  0  0  0
 16 27  1  1  0  0  0
 18 19  2  0  0  0  0
 18 23  1  0  0  0  0
 19 20  1  0  0  0  0
 20 21  2  0  0  0  0
 21 22  1  0  0  0  0
 21 27  1  0  0  0  0
 22 23  2  0  0  0  0
 22 25  1  0  0  0  0
 23 24  1  0  0  0  0
 25 26  2  0  0  0  0
 26 27  1  0  0  0  0
M  END
>  <CHROM.1>
128.09298940,-163.83856712,-65.47309377,-59.22977632,-166.36575079,41.54479990
56.21079119,-4.25438936,-10.06727614,18.78655071,0.20278061,-1.08665318,-2.71103502

>  <Name>
ligand

>  <RI>
0

>  <Rbt.Current_Directory>
/home/itssahil/PROJECTS/Mol_Feturizer/Test_systems_manuscript/rnas/4kqy

>  <Rbt.Executable>
rbdock ($Id: //depot/dev/client3/rdock/2013.1/src/exe/rbdock.cxx#4 $)

>  <Rbt.Library>
libRbt.so (2013.1, Build901 2013/11/27)

>  <Rbt.Parameter_File>
/export/apps/rDock/src/rDock_2013.1_src/data/scripts/dock_solv.prm

>  <Rbt.Receptor>
prm/pocket_docking_7.prm

>  <SCORE>
-19.8678

>  <SCORE.INTER>
-16.3538

>  <SCORE.INTER.CONST>
1

>  <SCORE.INTER.POLAR>
0

>  <SCORE.INTER.ROT>
7

>  <SCORE.INTER.SOLV>
14.686

>  <SCORE.INTER.VDW>
-24.0645

>  <SCORE.INTER.norm>
-0.605695

>  <SCORE.INTRA>
-3.51857

>  <SCORE.INTRA.DIHEDRAL>
-4.98422

>  <SCORE.INTRA.DIHEDRAL.0>
10.4103

>  <SCORE.INTRA.POLAR>
0

>  <SCORE.INTRA.POLAR.0>
0

>  <SCORE.INTRA.REPUL>
0

>  <SCORE.INTRA.REPUL.0>
0

>  <SCORE.INTRA.SOLV>
-0.46449

>  <SCORE.INTRA.SOLV.lig_0>
-49.5008

>  <SCORE.INTRA.VDW>
-0.794214

>  <SCORE.INTRA.VDW.0>
-2.6946

>  <SCORE.INTRA.norm>
-0.130317

>  <SCORE.RESTR>
0.00453947

>  <SCORE.RESTR.CAVITY>
0.00453947

>  <SCORE.RESTR.norm>
0.000168128

>  <SCORE.SYSTEM>
0

>  <SCORE.SYSTEM.CONST>
0

>  <SCORE.SYSTEM.DIHEDRAL>
0

>  <SCORE.SYSTEM.SOLV>
0

>  <SCORE.SYSTEM.norm>
0

>  <SCORE.heavy>
27

>  <SCORE.norm>
-0.735845

>  <RMSD>
4.960

$$$$
ligand
 OpenBabel02271912153D
libRbt.so/2013.1/901 2013/11/27
 27 29  0  0  0  0  0  0  0  0999 V2000
   -4.3354  -12.4470   16.3076 N   0  0  0  0  0  0  0  0  0  0  0  0
   -5.0492  -13.0215   17.4322 C   0  0  2  0  0  0  0  0  0  0  0  0
   -6.0253  -11.9922   17.9128 C   0  0  0  0  0  0  0  0  0  0  0  0
   -5.6663  -10.7971   17.9833 O   0  0  0  0  0  0  0  0  0  0  0  0
   -4.0735  -13.3923   18.5524 C   0  0  0  0  0  0  0  0  0  0  0  0
   -4.7903  -14.1290   19.7056 C   0  0  0  0  0  0  0  0  0  0  0  0
   -4.6119  -13.4408   21.2254 S   0  0  2  0  0  0  0  0  0  0  0  0
   -5.2921  -14.4388   22.3656 C   0  0  0  0  0  0  0  0  0  0  0  0
   -5.3423  -11.9194   21.2515 C   0  0  0  0  0  0  0  0  0  0  0  0
   -4.3553  -10.7514   21.4593 C   0  0  1  0  0  0  0  0  0  0  0  0
   -3.0159  -11.0604   21.0392 O   0  0  0  0  0  0  0  0  0  0  0  0
   -4.6757   -9.5272   20.6169 C   0  0  1  0  0  0  0  0  0  0  0  0
   -5.7882   -8.7094   21.0320 O   0  0  0  0  0  0  0  0  0  0  0  0
   -3.3471   -8.8133   20.6517 C   0  0  1  0  0  0  0  0  0  0  0  0
   -3.1267   -8.2528   21.9426 O   0  0  0  0  0  0  0  0  0  0  0  0
   -2.3741   -9.9344   20.4360 C   0  0  2  0  0  0  0  0  0  0  0  0
   -7.1937  -12.3419   18.2057 O   0  0  0  0  0  0  0  0  0  0  0  0
   -2.0214   -8.0237   15.4861 N   0  0  0  0  0  0  0  0  0  0  0  0
   -2.3985   -7.3877   16.6219 C   0  0  0  0  0  0  0  0  0  0  0  0
   -2.4496   -8.0010   17.8162 N   0  0  0  0  0  0  0  0  0  0  0  0
   -2.1081   -9.2857   17.9658 C   0  0  0  0  0  0  0  0  0  0  0  0
   -1.6725  -10.0176   16.7860 C   0  0  0  0  0  0  0  0  0  0  0  0
   -1.6363   -9.3383   15.4701 C   0  0  0  0  0  0  0  0  0  0  0  0
   -1.2377   -9.9812   14.3166 N   0  0  0  0  0  0  0  0  0  0  0  0
   -1.3879  -11.2303   17.2034 N   0  0  0  0  0  0  0  0  0  0  0  0
   -1.6293  -11.3044   18.5195 C   0  0  0  0  0  0  0  0  0  0  0  0
   -2.0591  -10.1335   18.9881 N   0  0  0  0  0  0  0  0  0  0  0  0
  2  1  1  6  0  0  0
  2  3  1  0  0  0  0
  2  5  1  0  0  0  0
  3  4  1  0  0  0  0
  3 17  1  0  0  0  0
  5  6  1  0  0  0  0
  7  6  1  6  0  0  0
  7  8  1  0  0  0  0
  7  9  1  0  0  0  0
 10  9  1  6  0  0  0
 10 11  1  0  0  0  0
 10 12  1  0  0  0  0
 11 16  1  0  0  0  0
 12 13  1  1  0  0  0
 12 14  1  0  0  0  0
 14 15  1  1  0  0  0
 14 16  1  0  0  0  0
 16 27  1  6  0  0  0
 18 19  2  0  0  0  0
 18 23  1  0  0  0  0
 19 20  1  0  0  0  0
 20 21  2  0  0  0  0
 21 22  1  0  0  0  0
 21 27  1  0  0  0  0
 22 23  2  0  0  0  0
 22 25  1  0  0  0  0
 23 24  1  0  0  0  0
 25 26  2  0  0  0  0
 26 27  1  0  0  0  0
M  END
>  <CHROM.1>
-41.79052045,-174.56312232,-124.30441202,-173.67002746,-114.96771410,24.78323524
142.37560649,-3.72951552,-10.88134040,18.97438706,0.34408645,-1.03018379
-2.06462187

>  <Name>
ligand

>  <RI>
0

>  <Rbt.Current_Directory>
/home/itssahil/PROJECTS/Mol_Feturizer/Test_systems_manuscript/rnas/4kqy

>  <Rbt.Executable>
rbdock ($Id: //depot/dev/client3/rdock/2013.1/src/exe/rbdock.cxx#4 $)

>  <Rbt.Library>
libRbt.so (2013.1, Build901 2013/11/27)

>  <Rbt.Parameter_File>
/export/apps/rDock/src/rDock_2013.1_src/data/scripts/dock_solv.prm

>  <Rbt.Receptor>
prm/pocket_docking_4.prm

>  <SCORE>
-15.1468

>  <SCORE.INTER>
-15.5828

>  <SCORE.INTER.CONST>
1

>  <SCORE.INTER.POLAR>
0

>  <SCORE.INTER.ROT>
7

>  <SCORE.INTER.SOLV>
10.0203

>  <SCORE.INTER.VDW>
-21.9953

>  <SCORE.INTER.norm>
-0.57714

>  <SCORE.INTRA>
0.436029

>  <SCORE.INTRA.DIHEDRAL>
5.97052

>  <SCORE.INTRA.DIHEDRAL.0>
10.4103

>  <SCORE.INTRA.POLAR>
0

>  <SCORE.INTRA.POLAR.0>
0

>  <SCORE.INTRA.REPUL>
0

>  <SCORE.INTRA.REPUL.0>
0

>  <SCORE.INTRA.SOLV>
0.41441

>  <SCORE.INTRA.SOLV.lig_0>
-49.5008

>  <SCORE.INTRA.VDW>
-2.75644

>  <SCORE.INTRA.VDW.0>
-2.6946

>  <SCORE.INTRA.norm>
0.0161492

>  <SCORE.RESTR>
0

>  <SCORE.RESTR.CAVITY>
0

>  <SCORE.RESTR.norm>
0

>  <SCORE.SYSTEM>
0

>  <SCORE.SYSTEM.CONST>
0

>  <SCORE.SYSTEM.DIHEDRAL>
0

>  <SCORE.SYSTEM.SOLV>
0

>  <SCORE.SYSTEM.norm>
0

>  <SCORE.heavy>
27

>  <SCORE.norm>
-0.560991

>  <RMSD>
4.966

$$$$
ligand
 OpenBabel02271912153D
libRbt.so/2013.1/901 2013/11/27
 27 29  0  0  0  0  0  0  0  0999 V2000
   -0.4288  -10.9429   14.9412 N   0  0  0  0  0  0  0  0  0  0  0  0
   -1.6902  -10.2907   14.6447 C   0  0  2  0  0  0  0  0  0  0  0  0
   -1.3713   -8.9463   14.0669 C   0  0  0  0  0  0  0  0  0  0  0  0
   -1.7428   -7.9182   14.6730 O   0  0  0  0  0  0  0  0  0  0  0  0
   -2.5256  -10.1371   15.9185 C   0  0  0  0  0  0  0  0  0  0  0  0
   -3.9829   -9.7400   15.5943 C   0  0  0  0  0  0  0  0  0  0  0  0
   -4.9355   -9.3410   16.9167 S   0  0  2  0  0  0  0  0  0  0  0  0
   -6.5261   -9.2596   16.4457 C   0  0  0  0  0  0  0  0  0  0  0  0
   -4.4273   -7.8662   17.5611 C   0  0  0  0  0  0  0  0  0  0  0  0
   -4.7637   -7.6838   19.0562 C   0  0  1  0  0  0  0  0  0  0  0  0
   -6.0971   -8.1023   19.3916 O   0  0  0  0  0  0  0  0  0  0  0  0
   -3.9201   -8.5483   19.9792 C   0  0  1  0  0  0  0  0  0  0  0  0
   -2.5534   -8.1453   20.1997 O   0  0  0  0  0  0  0  0  0  0  0  0
   -4.7699   -8.5314   21.2256 C   0  0  1  0  0  0  0  0  0  0  0  0
   -4.6996   -7.2522   21.8482 O   0  0  0  0  0  0  0  0  0  0  0  0
   -6.1514   -8.7289   20.6754 C   0  0  2  0  0  0  0  0  0  0  0  0
   -0.7109   -8.8749   13.0030 O   0  0  0  0  0  0  0  0  0  0  0  0
   -5.1501  -13.8138   21.8658 N   0  0  0  0  0  0  0  0  0  0  0  0
   -4.4293  -12.7076   22.1714 C   0  0  0  0  0  0  0  0  0  0  0  0
   -4.7998  -11.4717   21.7966 N   0  0  0  0  0  0  0  0  0  0  0  0
   -5.9258  -11.2497   21.1094 C   0  0  0  0  0  0  0  0  0  0  0  0
   -6.7553  -12.3961   20.7702 C   0  0  0  0  0  0  0  0  0  0  0  0
   -6.3299  -13.7569   21.1719 C   0  0  0  0  0  0  0  0  0  0  0  0
   -7.0714  -14.8815   20.8745 N   0  0  0  0  0  0  0  0  0  0  0  0
   -7.7879  -11.9093   20.1201 N   0  0  0  0  0  0  0  0  0  0  0  0
   -7.6498  -10.5802   20.0182 C   0  0  0  0  0  0  0  0  0  0  0  0
   -6.5312  -10.1737   20.6173 N   0  0  0  0  0  0  0  0  0  0  0  0
  2  1  1  1  0  0  0
  2  3  1  0  0  0  0
  2  5  1  0  0  0  0
  3  4  1  0  0  0  0
  3 17  1  0  0  0  0
  5  6  1  0  0  0  0
  7  6  1  6  0  0  0
  7  8  1  0  0  0  0
  7  9  1  0  0  0  0
 10  9  1  6  0  0  0
 10 11  1  0  0  0  0
 10 12  1  0  0  0  0
 11 16  1  0  0  0  0
 12 13  1  1  0  0  0
 12 14  1  0  0  0  0
 14 15  1  6  0  0  0
 14 16  1  0  0  0  0
 16 27  1  6  0  0  0
 18 19  2  0  0  0  0
 18 23  1  0  0  0  0
 19 20  1  0  0  0  0
 20 21  2  0  0  0  0
 21 22  1  0  0  0  0
 21 27  1  0  0  0  0
 22 23  2  0  0  0  0
 22 25  1  0  0  0  0
 23 24  1  0  0  0  0
 25 26  2  0  0  0  0
 26 27  1  0  0  0  0
M  END
>  <CHROM.1>
-117.43380144,-167.36442424,-172.03116952,-167.97682902,-154.80236631,-43.85919876
126.16042554,-4.54618783,-10.00096478,18.61025944,-0.16195029,-1.02020402
-2.94240547

>  <Name>
ligand

>  <RI>
0

>  <Rbt.Current_Directory>
/home/itssahil/PROJECTS/Mol_Feturizer/Test_systems_manuscript/rnas/4kqy

>  <Rbt.Executable>
rbdock ($Id: //depot/dev/client3/rdock/2013.1/src/exe/rbdock.cxx#4 $)

>  <Rbt.Library>
libRbt.so (2013.1, Build901 2013/11/27)

>  <Rbt.Parameter_File>
/export/apps/rDock/src/rDock_2013.1_src/data/scripts/dock_solv.prm

>  <Rbt.Receptor>
prm/pocket_docking_8.prm

>  <SCORE>
-17.6331

>  <SCORE.INTER>
-16.03

>  <SCORE.INTER.CONST>
1

>  <SCORE.INTER.POLAR>
0

>  <SCORE.INTER.ROT>
7

>  <SCORE.INTER.SOLV>
13.8586

>  <SCORE.INTER.VDW>
-23.5728

>  <SCORE.INTER.norm>
-0.593703

>  <SCORE.INTRA>
-1.60315

>  <SCORE.INTRA.DIHEDRAL>
-3.8213

>  <SCORE.INTRA.DIHEDRAL.0>
10.4103

>  <SCORE.INTRA.POLAR>
0

>  <SCORE.INTRA.POLAR.0>
0

>  <SCORE.INTRA.REPUL>
0

>  <SCORE.INTRA.REPUL.0>
0

>  <SCORE.INTRA.SOLV>
-0.442066

>  <SCORE.INTRA.SOLV.lig_0>
-49.5008

>  <SCORE.INTRA.VDW>
0.528535

>  <SCORE.INTRA.VDW.0>
-2.6946

>  <SCORE.INTRA.norm>
-0.0593758

>  <SCORE.RESTR>
0

>  <SCORE.RESTR.CAVITY>
0

>  <SCORE.RESTR.norm>
0

>  <SCORE.SYSTEM>
0

>  <SCORE.SYSTEM.CONST>
0

>  <SCORE.SYSTEM.DIHEDRAL>
0

>  <SCORE.SYSTEM.SOLV>
0

>  <SCORE.SYSTEM.norm>
0

>  <SCORE.heavy>
27

>  <SCORE.norm>
-0.653079

>  <RMSD>
4.970

$$$$
ligand
 OpenBabel02271912153D
libRbt.so/2013.1/901 2013/11/27
 27 29  0  0  0  0  0  0  0  0999 V2000
   -0.8096  -11.4221   14.8943 N   0  0  0  0  0  0  0  0  0  0  0  0
   -1.5422  -10.2861   15.4205 C   0  0  2  0  0  0  0  0  0  0  0  0
   -1.4247  -10.3329   16.9129 C   0  0  0  0  0  0  0  0  0  0  0  0
   -1.2938   -9.2645   17.5482 O   0  0  0  0  0  0  0  0  0  0  0  0
   -3.0130  -10.3569   15.0009 C   0  0  0  0  0  0  0  0  0  0  0  0
   -3.8065   -9.1345   15.5134 C   0  0  0  0  0  0  0  0  0  0  0  0
   -4.2739   -9.1985   17.1236 S   0  0  2  0  0  0  0  0  0  0  0  0
   -5.6614  -10.1014   17.2592 C   0  0  0  0  0  0  0  0  0  0  0  0
   -4.5197   -7.6345   17.7083 C   0  0  0  0  0  0  0  0  0  0  0  0
   -4.7663   -7.5635   19.2302 C   0  0  1  0  0  0  0  0  0  0  0  0
   -6.0859   -7.9878   19.6103 O   0  0  0  0  0  0  0  0  0  0  0  0
   -3.8874   -8.5087   20.0333 C   0  0  1  0  0  0  0  0  0  0  0  0
   -2.5030   -8.1434   20.2034 O   0  0  0  0  0  0  0  0  0  0  0  0
   -4.6638   -8.5762   21.3251 C   0  0  1  0  0  0  0  0  0  0  0  0
   -4.5340   -7.3501   22.0384 O   0  0  0  0  0  0  0  0  0  0  0  0
   -6.0780   -8.7110   20.8434 C   0  0  2  0  0  0  0  0  0  0  0  0
   -1.4912  -11.4388   17.5008 O   0  0  0  0  0  0  0  0  0  0  0  0
   -5.1926  -13.8774   21.7381 N   0  0  0  0  0  0  0  0  0  0  0  0
   -4.4514  -12.8067   22.1134 C   0  0  0  0  0  0  0  0  0  0  0  0
   -4.7930  -11.5433   21.8098 N   0  0  0  0  0  0  0  0  0  0  0  0
   -5.9085  -11.2572   21.1292 C   0  0  0  0  0  0  0  0  0  0  0  0
   -6.7590  -12.3637   20.7172 C   0  0  0  0  0  0  0  0  0  0  0  0
   -6.3653  -13.7546   21.0407 C   0  0  0  0  0  0  0  0  0  0  0  0
   -7.1276  -14.8436   20.6723 N   0  0  0  0  0  0  0  0  0  0  0  0
   -7.7760  -11.8176   20.0900 N   0  0  0  0  0  0  0  0  0  0  0  0
   -7.6093  -10.4881   20.0677 C   0  0  0  0  0  0  0  0  0  0  0  0
   -6.4874  -10.1415   20.6975 N   0  0  0  0  0  0  0  0  0  0  0  0
  2  1  1  6  0  0  0
  2  3  1  0  0  0  0
  2  5  1  0  0  0  0
  3  4  1  0  0  0  0
  3 17  1  0  0  0  0
  5  6  1  0  0  0  0
  7  6  1  6  0  0  0
  7  8  1  0  0  0  0
  7  9  1  0  0  0  0
 10  9  1  6  0  0  0
 10 11  1  0  0  0  0
 10 12  1  0  0  0  0
 11 16  1  0  0  0  0
 12 13  1  1  0  0  0
 12 14  1  0  0  0  0
 14 15  1  6  0  0  0
 14 16  1  0  0  0  0
 16 27  1  6  0  0  0
 18 19  2  0  0  0  0
 18 23  1  0  0  0  0
 19 20  1  0  0  0  0
 20 21  2  0  0  0  0
 21 22  1  0  0  0  0
 21 27  1  0  0  0  0
 22 23  2  0  0  0  0
 22 25  1  0  0  0  0
 23 24  1  0  0  0  0
 25 26  2  0  0  0  0
 26 27  1  0  0  0  0
M  END
>  <CHROM.1>
141.90249592,-178.27036711,-79.60567468,-82.09571393,-172.12152755,-75.59985503
130.06499218,-4.48209191,-10.21269644,19.06049386,-0.20183217,-0.91839783
-2.98777609

>  <Name>
ligand

>  <RI>
0

>  <Rbt.Current_Directory>
/home/itssahil/PROJECTS/Mol_Feturizer/Test_systems_manuscript/rnas/4kqy

>  <Rbt.Executable>
rbdock ($Id: //depot/dev/client3/rdock/2013.1/src/exe/rbdock.cxx#4 $)

>  <Rbt.Library>
libRbt.so (2013.1, Build901 2013/11/27)

>  <Rbt.Parameter_File>
/export/apps/rDock/src/rDock_2013.1_src/data/scripts/dock_solv.prm

>  <Rbt.Receptor>
prm/pocket_docking_4.prm

>  <SCORE>
-16.131

>  <SCORE.INTER>
-13.0975

>  <SCORE.INTER.CONST>
1

>  <SCORE.INTER.POLAR>
0

>  <SCORE.INTER.ROT>
7

>  <SCORE.INTER.SOLV>
12.3815

>  <SCORE.INTER.VDW>
-21.1255

>  <SCORE.INTER.norm>
-0.485092

>  <SCORE.INTRA>
-3.04116

>  <SCORE.INTRA.DIHEDRAL>
-3.93545

>  <SCORE.INTRA.DIHEDRAL.0>
10.4103

>  <SCORE.INTRA.POLAR>
0

>  <SCORE.INTRA.POLAR.0>
0

>  <SCORE.INTRA.REPUL>
0

>  <SCORE.INTRA.REPUL.0>
0

>  <SCORE.INTRA.SOLV>
-0.175364

>  <SCORE.INTRA.SOLV.lig_0>
-49.5008

>  <SCORE.INTRA.VDW>
-0.98575

>  <SCORE.INTRA.VDW.0>
-2.6946

>  <SCORE.INTRA.norm>
-0.112635

>  <SCORE.RESTR>
0.00764974

>  <SCORE.RESTR.CAVITY>
0.00764974

>  <SCORE.RESTR.norm>
0.000283324

>  <SCORE.SYSTEM>
0

>  <SCORE.SYSTEM.CONST>
0

>  <SCORE.SYSTEM.DIHEDRAL>
0

>  <SCORE.SYSTEM.SOLV>
0

>  <SCORE.SYSTEM.norm>
0

>  <SCORE.heavy>
27

>  <SCORE.norm>
-0.597444

>  <RMSD>
4.981

$$$$
ligand
 OpenBabel02271912153D
libRbt.so/2013.1/901 2013/11/27
 27 29  0  0  0  0  0  0  0  0999 V2000
   -1.2092  -11.5539   14.8337 N   0  0  0  0  0  0  0  0  0  0  0  0
   -2.2788  -10.5948   14.6334 C   0  0  2  0  0  0  0  0  0  0  0  0
   -1.7093   -9.2331   14.8874 C   0  0  0  0  0  0  0  0  0  0  0  0
   -1.6870   -8.3981   13.9577 O   0  0  0  0  0  0  0  0  0  0  0  0
   -3.4359  -10.8749   15.5961 C   0  0  0  0  0  0  0  0  0  0  0  0
   -4.5844   -9.8585   15.4105 C   0  0  0  0  0  0  0  0  0  0  0  0
   -5.3718   -9.3916   16.8167 S   0  0  2  0  0  0  0  0  0  0  0  0
   -6.9516   -9.0181   16.4657 C   0  0  0  0  0  0  0  0  0  0  0  0
   -4.5819   -8.0650   17.4986 C   0  0  0  0  0  0  0  0  0  0  0  0
   -4.8751   -7.8622   19.0002 C   0  0  1  0  0  0  0  0  0  0  0  0
   -6.1918   -8.2929   19.3832 O   0  0  0  0  0  0  0  0  0  0  0  0
   -3.9919   -8.6998   19.9108 C   0  0  1  0  0  0  0  0  0  0  0  0
   -2.6249   -8.2749   20.0827 O   0  0  0  0  0  0  0  0  0  0  0  0
   -4.8036   -8.6734   21.1823 C   0  0  1  0  0  0  0  0  0  0  0  0
   -4.7320   -7.3831   21.7815 O   0  0  0  0  0  0  0  0  0  0  0  0
   -6.1983   -8.8985   20.6781 C   0  0  2  0  0  0  0  0  0  0  0  0
   -1.2942   -8.9442   16.0352 O   0  0  0  0  0  0  0  0  0  0  0  0
   -5.0692  -13.9537   21.8807 N   0  0  0  0  0  0  0  0  0  0  0  0
   -4.3508  -12.8339   22.1387 C   0  0  0  0  0  0  0  0  0  0  0  0
   -4.7562  -11.6080   21.7670 N   0  0  0  0  0  0  0  0  0  0  0  0
   -5.9163  -11.4103   21.1310 C   0  0  0  0  0  0  0  0  0  0  0  0
   -6.7442  -12.5722   20.8450 C   0  0  0  0  0  0  0  0  0  0  0  0
   -6.2810  -13.9219   21.2424 C   0  0  0  0  0  0  0  0  0  0  0  0
   -7.0193  -15.0602   20.9937 N   0  0  0  0  0  0  0  0  0  0  0  0
   -7.8131  -12.1080   20.2385 N   0  0  0  0  0  0  0  0  0  0  0  0
   -7.6991  -10.7785   20.1143 C   0  0  0  0  0  0  0  0  0  0  0  0
   -6.5596  -10.3491   20.6552 N   0  0  0  0  0  0  0  0  0  0  0  0
  2  1  1  1  0  0  0
  2  3  1  0  0  0  0
  2  5  1  0  0  0  0
  3  4  1  0  0  0  0
  3 17  1  0  0  0  0
  5  6  1  0  0  0  0
  7  6  1  6  0  0  0
  7  8  1  0  0  0  0
  7  9  1  0  0  0  0
 10  9  1  6  0  0  0
 10 11  1  0  0  0  0
 10 12  1  0  0  0  0
 11 16  1  0  0  0  0
 12 13  1  1  0  0  0
 12 14  1  0  0  0  0
 14 15  1  6  0  0  0
 14 16  1  0  0  0  0
 16 27  1  6  0  0  0
 18 19  2  0  0  0  0
 18 23  1  0  0  0  0
 19 20  1  0  0  0  0
 20 21  2  0  0  0  0
 21 22  1  0  0  0  0
 21 27  1  0  0  0  0
 22 23  2  0  0  0  0
 22 25  1  0  0  0  0
 23 24  1  0  0  0  0
 25 26  2  0  0  0  0
 26 27  1  0  0  0  0
M  END
>  <CHROM.1>
117.60726590,179.53059039,-143.26256955,-150.04124305,-159.19705830,-31.31465558
125.18531973,-4.74742102,-10.19216903,18.70142527,-0.20948604,-1.06219543
-2.95607944

>  <Name>
ligand

>  <RI>
0

>  <Rbt.Current_Directory>
/home/itssahil/PROJECTS/Mol_Feturizer/Test_systems_manuscript/rnas/4kqy

>  <Rbt.Executable>
rbdock ($Id: //depot/dev/client3/rdock/2013.1/src/exe/rbdock.cxx#4 $)

>  <Rbt.Library>
libRbt.so (2013.1, Build901 2013/11/27)

>  <Rbt.Parameter_File>
/export/apps/rDock/src/rDock_2013.1_src/data/scripts/dock_solv.prm

>  <Rbt.Receptor>
prm/pocket_docking_3.prm

>  <SCORE>
-14.0855

>  <SCORE.INTER>
-14.3549

>  <SCORE.INTER.CONST>
1

>  <SCORE.INTER.POLAR>
0

>  <SCORE.INTER.ROT>
7

>  <SCORE.INTER.SOLV>
12.4495

>  <SCORE.INTER.VDW>
-21.9864

>  <SCORE.INTER.norm>
-0.531663

>  <SCORE.INTRA>
0.269439

>  <SCORE.INTRA.DIHEDRAL>
1.975

>  <SCORE.INTRA.DIHEDRAL.0>
10.4103

>  <SCORE.INTRA.POLAR>
0

>  <SCORE.INTRA.POLAR.0>
0

>  <SCORE.INTRA.REPUL>
0

>  <SCORE.INTRA.REPUL.0>
0

>  <SCORE.INTRA.SOLV>
-0.485294

>  <SCORE.INTRA.SOLV.lig_0>
-49.5008

>  <SCORE.INTRA.VDW>
-0.475413

>  <SCORE.INTRA.VDW.0>
-2.6946

>  <SCORE.INTRA.norm>
0.00997922

>  <SCORE.RESTR>
0

>  <SCORE.RESTR.CAVITY>
0

>  <SCORE.RESTR.norm>
0

>  <SCORE.SYSTEM>
0

>  <SCORE.SYSTEM.CONST>
0

>  <SCORE.SYSTEM.DIHEDRAL>
0

>  <SCORE.SYSTEM.SOLV>
0

>  <SCORE.SYSTEM.norm>
0

>  <SCORE.heavy>
27

>  <SCORE.norm>
-0.521684

>  <RMSD>
4.982

$$$$
ligand
 OpenBabel02271912153D
libRbt.so/2013.1/901 2013/11/27
 27 29  0  0  0  0  0  0  0  0999 V2000
   -5.5543   -9.3414   17.0831 N   0  0  0  0  0  0  0  0  0  0  0  0
   -4.7544   -8.1861   17.4431 C   0  0  2  0  0  0  0  0  0  0  0  0
   -3.3556   -8.4503   16.9776 C   0  0  0  0  0  0  0  0  0  0  0  0
   -3.0834   -9.5552   16.4605 O   0  0  0  0  0  0  0  0  0  0  0  0
   -4.7782   -7.9698   18.9586 C   0  0  0  0  0  0  0  0  0  0  0  0
   -4.2633   -9.2143   19.7154 C   0  0  0  0  0  0  0  0  0  0  0  0
   -4.5188   -9.2097   21.3737 S   0  0  2  0  0  0  0  0  0  0  0  0
   -3.4628   -8.1473   22.0911 C   0  0  0  0  0  0  0  0  0  0  0  0
   -4.3073  -10.7677   21.9873 C   0  0  0  0  0  0  0  0  0  0  0  0
   -5.3483  -11.7892   21.4826 C   0  0  1  0  0  0  0  0  0  0  0  0
   -5.8281  -11.5014   20.1586 O   0  0  0  0  0  0  0  0  0  0  0  0
   -4.7915  -13.1941   21.3179 C   0  0  1  0  0  0  0  0  0  0  0  0
   -4.5648  -13.9622   22.5168 O   0  0  0  0  0  0  0  0  0  0  0  0
   -5.8239  -13.7933   20.3954 C   0  0  1  0  0  0  0  0  0  0  0  0
   -7.0386  -14.0218   21.1034 O   0  0  0  0  0  0  0  0  0  0  0  0
   -6.0417  -12.6934   19.3989 C   0  0  2  0  0  0  0  0  0  0  0  0
   -2.4905   -7.5486   17.0858 O   0  0  0  0  0  0  0  0  0  0  0  0
   -1.2284  -12.1537   17.2041 N   0  0  0  0  0  0  0  0  0  0  0  0
   -1.6242  -11.8813   18.4713 C   0  0  0  0  0  0  0  0  0  0  0  0
   -2.8874  -12.0598   18.8929 N   0  0  0  0  0  0  0  0  0  0  0  0
   -3.8396  -12.5424   18.0868 C   0  0  0  0  0  0  0  0  0  0  0  0
   -3.4713  -12.8754   16.7190 C   0  0  0  0  0  0  0  0  0  0  0  0
   -2.0805  -12.6585   16.2577 C   0  0  0  0  0  0  0  0  0  0  0  0
   -1.6737  -12.9502   14.9723 N   0  0  0  0  0  0  0  0  0  0  0  0
   -4.5666  -13.3328   16.1559 N   0  0  0  0  0  0  0  0  0  0  0  0
   -5.5650  -13.2887   17.0488 C   0  0  0  0  0  0  0  0  0  0  0  0
   -5.1332  -12.8178   18.2181 N   0  0  0  0  0  0  0  0  0  0  0  0
  2  1  1  1  0  0  0
  2  3  1  0  0  0  0
  2  5  1  0  0  0  0
  3  4  1  0  0  0  0
  3 17  1  0  0  0  0
  5  6  1  0  0  0  0
  7  6  1  6  0  0  0
  7  8  1  0  0  0  0
  7  9  1  0  0  0  0
 10  9  1  6  0  0  0
 10 11  1  0  0  0  0
 10 12  1  0  0  0  0
 11 16  1  0  0  0  0
 12 13  1  1  0  0  0
 12 14  1  0  0  0  0
 14 15  1  1  0  0  0
 14 16  1  0  0  0  0
 16 27  1  6  0  0  0
 18 19  2  0  0  0  0
 18 23  1  0  0  0  0
 19 20  1  0  0  0  0
 20 21  2  0  0  0  0
 21 22  1  0  0  0  0
 21 27  1  0  0  0  0
 22 23  2  0  0  0  0
 22 25  1  0  0  0  0
 23 24  1  0  0  0  0
 25 26  2  0  0  0  0
 26 27  1  0  0  0  0
M  END
>  <CHROM.1>
-3.62302036,57.83308359,-168.65432690,-73.97678152,-65.24264509,30.65685541
40.90106763,-4.18788086,-11.19620761,18.97600590,-0.04656551,1.12956654,0.38013224

>  <Name>
ligand

>  <RI>
0

>  <Rbt.Current_Directory>
/home/itssahil/PROJECTS/Mol_Feturizer/Test_systems_manuscript/rnas/4kqy

>  <Rbt.Executable>
rbdock ($Id: //depot/dev/client3/rdock/2013.1/src/exe/rbdock.cxx#4 $)

>  <Rbt.Library>
libRbt.so (2013.1, Build901 2013/11/27)

>  <Rbt.Parameter_File>
/export/apps/rDock/src/rDock_2013.1_src/data/scripts/dock_solv.prm

>  <Rbt.Receptor>
prm/pocket_docking_2.prm

>  <SCORE>
-13.8773

>  <SCORE.INTER>
-11.682

>  <SCORE.INTER.CONST>
1

>  <SCORE.INTER.POLAR>
0

>  <SCORE.INTER.ROT>
7

>  <SCORE.INTER.SOLV>
7.353

>  <SCORE.INTER.VDW>
-18.5057

>  <SCORE.INTER.norm>
-0.432668

>  <SCORE.INTRA>
-2.82385

>  <SCORE.INTRA.DIHEDRAL>
-3.97357

>  <SCORE.INTRA.DIHEDRAL.0>
10.4103

>  <SCORE.INTRA.POLAR>
0

>  <SCORE.INTRA.POLAR.0>
0

>  <SCORE.INTRA.REPUL>
0

>  <SCORE.INTRA.REPUL.0>
0

>  <SCORE.INTRA.SOLV>
1.47659

>  <SCORE.INTRA.SOLV.lig_0>
-49.5008

>  <SCORE.INTRA.VDW>
-1.57537

>  <SCORE.INTRA.VDW.0>
-2.6946

>  <SCORE.INTRA.norm>
-0.104587

>  <SCORE.RESTR>
0.628579

>  <SCORE.RESTR.CAVITY>
0.628579

>  <SCORE.RESTR.norm>
0.0232807

>  <SCORE.SYSTEM>
0

>  <SCORE.SYSTEM.CONST>
0

>  <SCORE.SYSTEM.DIHEDRAL>
0

>  <SCORE.SYSTEM.SOLV>
0

>  <SCORE.SYSTEM.norm>
0

>  <SCORE.heavy>
27

>  <SCORE.norm>
-0.513975

>  <RMSD>
4.983

$$$$
ligand
 OpenBabel02271912153D
libRbt.so/2013.1/901 2013/11/27
 27 29  0  0  0  0  0  0  0  0999 V2000
   -3.7599   -7.7745   19.7008 N   0  0  0  0  0  0  0  0  0  0  0  0
   -2.8516   -8.4585   18.8001 C   0  0  2  0  0  0  0  0  0  0  0  0
   -2.9894   -7.8145   17.4549 C   0  0  0  0  0  0  0  0  0  0  0  0
   -1.9853   -7.7246   16.7160 O   0  0  0  0  0  0  0  0  0  0  0  0
   -3.2018   -9.9466   18.7151 C   0  0  0  0  0  0  0  0  0  0  0  0
   -2.8602  -10.6836   20.0291 C   0  0  0  0  0  0  0  0  0  0  0  0
   -3.8284  -10.3025   21.3453 S   0  0  2  0  0  0  0  0  0  0  0  0
   -3.0297   -9.2230   22.3228 C   0  0  0  0  0  0  0  0  0  0  0  0
   -4.2122  -11.7083   22.1968 C   0  0  0  0  0  0  0  0  0  0  0  0
   -5.2067  -12.6347   21.4657 C   0  0  1  0  0  0  0  0  0  0  0  0
   -5.4845  -12.2167   20.1188 O   0  0  0  0  0  0  0  0  0  0  0  0
   -4.6819  -14.0459   21.2562 C   0  0  1  0  0  0  0  0  0  0  0  0
   -4.6536  -14.9199   22.4025 O   0  0  0  0  0  0  0  0  0  0  0  0
   -5.5942  -14.5180   20.1512 C   0  0  1  0  0  0  0  0  0  0  0  0
   -6.9039  -14.7466   20.6626 O   0  0  0  0  0  0  0  0  0  0  0  0
   -5.6305  -13.3308   19.2350 C   0  0  2  0  0  0  0  0  0  0  0  0
   -4.1146   -7.4056   17.0810 O   0  0  0  0  0  0  0  0  0  0  0  0
   -4.1219  -12.8217   14.1615 N   0  0  0  0  0  0  0  0  0  0  0  0
   -5.3445  -12.6257   14.7123 C   0  0  0  0  0  0  0  0  0  0  0  0
   -5.5884  -12.7996   16.0221 N   0  0  0  0  0  0  0  0  0  0  0  0
   -4.6258  -13.1605   16.8781 C   0  0  0  0  0  0  0  0  0  0  0  0
   -3.2851  -13.3645   16.3506 C   0  0  0  0  0  0  0  0  0  0  0  0
   -3.0292  -13.1880   14.9023 C   0  0  0  0  0  0  0  0  0  0  0  0
   -1.7815  -13.3723   14.3438 N   0  0  0  0  0  0  0  0  0  0  0  0
   -2.5418  -13.6932   17.3828 N   0  0  0  0  0  0  0  0  0  0  0  0
   -3.3115  -13.7257   18.4794 C   0  0  0  0  0  0  0  0  0  0  0  0
   -4.5694  -13.4003   18.1841 N   0  0  0  0  0  0  0  0  0  0  0  0
  2  1  1  1  0  0  0
  2  3  1  0  0  0  0
  2  5  1  0  0  0  0
  3  4  1  0  0  0  0
  3 17  1  0  0  0  0
  5  6  1  0  0  0  0
  7  6  1  6  0  0  0
  7  8  1  0  0  0  0
  7  9  1  0  0  0  0
 10  9  1  6  0  0  0
 10 11  1  0  0  0  0
 10 12  1  0  0  0  0
 11 16  1  0  0  0  0
 12 13  1  1  0  0  0
 12 14  1  0  0  0  0
 14 15  1  1  0  0  0
 14 16  1  0  0  0  0
 16 27  1  6  0  0  0
 18 19  2  0  0  0  0
 18 23  1  0  0  0  0
 19 20  1  0  0  0  0
 20 21  2  0  0  0  0
 21 22  1  0  0  0  0
 21 27  1  0  0  0  0
 22 23  2  0  0  0  0
 22 25  1  0  0  0  0
 23 24  1  0  0  0  0
 25 26  2  0  0  0  0
 26 27  1  0  0  0  0
M  END
>  <CHROM.1>
146.02671147,-70.38887088,69.78484465,-100.40477086,-71.43193427,7.83877271
-107.70755430,-4.04526659,-11.72391993,18.76237936,-0.71247237,1.23118184
1.07334215

>  <Name>
ligand

>  <RI>
0

>  <Rbt.Current_Directory>
/home/itssahil/PROJECTS/Mol_Feturizer/Test_systems_manuscript/rnas/4kqy

>  <Rbt.Executable>
rbdock ($Id: //depot/dev/client3/rdock/2013.1/src/exe/rbdock.cxx#4 $)

>  <Rbt.Library>
libRbt.so (2013.1, Build901 2013/11/27)

>  <Rbt.Parameter_File>
/export/apps/rDock/src/rDock_2013.1_src/data/scripts/dock_solv.prm

>  <Rbt.Receptor>
prm/pocket_docking_6.prm

>  <SCORE>
-14.1758

>  <SCORE.INTER>
-15.9925

>  <SCORE.INTER.CONST>
1

>  <SCORE.INTER.POLAR>
0

>  <SCORE.INTER.ROT>
7

>  <SCORE.INTER.SOLV>
11.8114

>  <SCORE.INTER.VDW>
-22.8655

>  <SCORE.INTER.norm>
-0.592314

>  <SCORE.INTRA>
1.81671

>  <SCORE.INTRA.DIHEDRAL>
2.11088

>  <SCORE.INTRA.DIHEDRAL.0>
10.4103

>  <SCORE.INTRA.POLAR>
0

>  <SCORE.INTRA.POLAR.0>
0

>  <SCORE.INTRA.REPUL>
0

>  <SCORE.INTRA.REPUL.0>
0

>  <SCORE.INTRA.SOLV>
2.55962

>  <SCORE.INTRA.SOLV.lig_0>
-49.5008

>  <SCORE.INTRA.VDW>
-0.518543

>  <SCORE.INTRA.VDW.0>
-2.6946

>  <SCORE.INTRA.norm>
0.0672856

>  <SCORE.RESTR>
0

>  <SCORE.RESTR.CAVITY>
0

>  <SCORE.RESTR.norm>
0

>  <SCORE.SYSTEM>
0

>  <SCORE.SYSTEM.CONST>
0

>  <SCORE.SYSTEM.DIHEDRAL>
0

>  <SCORE.SYSTEM.SOLV>
0

>  <SCORE.SYSTEM.norm>
0

>  <SCORE.heavy>
27

>  <SCORE.norm>
-0.525028

>  <RMSD>
4.988

$$$$
ligand
 OpenBabel02271912153D
libRbt.so/2013.1/901 2013/11/27
 27 29  0  0  0  0  0  0  0  0999 V2000
   -1.6950   -8.3434   15.0519 N   0  0  0  0  0  0  0  0  0  0  0  0
   -2.0197   -9.4823   15.8895 C   0  0  2  0  0  0  0  0  0  0  0  0
   -0.7859  -10.3250   15.9932 C   0  0  0  0  0  0  0  0  0  0  0  0
   -0.2024  -10.6835   14.9476 O   0  0  0  0  0  0  0  0  0  0  0  0
   -3.1649  -10.2905   15.2735 C   0  0  0  0  0  0  0  0  0  0  0  0
   -4.5085   -9.5349   15.3749 C   0  0  0  0  0  0  0  0  0  0  0  0
   -5.0897   -9.2979   16.9310 S   0  0  2  0  0  0  0  0  0  0  0  0
   -6.7486   -9.2251   16.8945 C   0  0  0  0  0  0  0  0  0  0  0  0
   -4.4436   -7.8758   17.5703 C   0  0  0  0  0  0  0  0  0  0  0  0
   -4.5129   -7.7899   19.1097 C   0  0  1  0  0  0  0  0  0  0  0  0
   -5.8220   -8.0679   19.6339 O   0  0  0  0  0  0  0  0  0  0  0  0
   -3.6622   -8.8333   19.8158 C   0  0  1  0  0  0  0  0  0  0  0  0
   -2.2356   -8.6256   19.8317 O   0  0  0  0  0  0  0  0  0  0  0  0
   -4.2954   -8.8244   21.1852 C   0  0  1  0  0  0  0  0  0  0  0  0
   -3.9527   -7.6260   21.8747 O   0  0  0  0  0  0  0  0  0  0  0  0
   -5.7600   -8.7973   20.8618 C   0  0  2  0  0  0  0  0  0  0  0  0
   -0.3423  -10.6295   17.1262 O   0  0  0  0  0  0  0  0  0  0  0  0
   -5.3801  -14.0324   21.7135 N   0  0  0  0  0  0  0  0  0  0  0  0
   -4.4908  -13.0529   22.0075 C   0  0  0  0  0  0  0  0  0  0  0  0
   -4.7155  -11.7583   21.7267 N   0  0  0  0  0  0  0  0  0  0  0  0
   -5.8514  -11.3469   21.1524 C   0  0  0  0  0  0  0  0  0  0  0  0
   -6.8562  -12.3496   20.8325 C   0  0  0  0  0  0  0  0  0  0  0  0
   -6.5925  -13.7767   21.1293 C   0  0  0  0  0  0  0  0  0  0  0  0
   -7.5040  -14.7721   20.8442 N   0  0  0  0  0  0  0  0  0  0  0  0
   -7.8604  -11.6910   20.2997 N   0  0  0  0  0  0  0  0  0  0  0  0
   -7.5482  -10.3887   20.2502 C   0  0  0  0  0  0  0  0  0  0  0  0
   -6.3396  -10.1721   20.7677 N   0  0  0  0  0  0  0  0  0  0  0  0
  2  1  1  6  0  0  0
  2  3  1  0  0  0  0
  2  5  1  0  0  0  0
  3  4  1  0  0  0  0
  3 17  1  0  0  0  0
  5  6  1  0  0  0  0
  7  6  1  6  0  0  0
  7  8  1  0  0  0  0
  7  9  1  0  0  0  0
 10  9  1  6  0  0  0
 10 11  1  0  0  0  0
 10 12  1  0  0  0  0
 11 16  1  0  0  0  0
 12 13  1  1  0  0  0
 12 14  1  0  0  0  0
 14 15  1  1  0  0  0
 14 16  1  0  0  0  0
 16 27  1  6  0  0  0
 18 19  2  0  0  0  0
 18 23  1  0  0  0  0
 19 20  1  0  0  0  0
 20 21  2  0  0  0  0
 21 22  1  0  0  0  0
 21 27  1  0  0  0  0
 22 23  2  0  0  0  0
 22 25  1  0  0  0  0
 23 24  1  0  0  0  0
 25 26  2  0  0  0  0
 26 27  1  0  0  0  0
M  END
>  <CHROM.1>
-52.48625050,-71.31188546,-65.63350831,-151.16294122,-160.61192621,-50.48984976
130.95293686,-4.49341448,-10.17392124,18.88693894,-0.39701240,-0.87800057
3.10788429

>  <Name>
ligand

>  <RI>
0

>  <Rbt.Current_Directory>
/home/itssahil/PROJECTS/Mol_Feturizer/Test_systems_manuscript/rnas/4kqy

>  <Rbt.Executable>
rbdock ($Id: //depot/dev/client3/rdock/2013.1/src/exe/rbdock.cxx#4 $)

>  <Rbt.Library>
libRbt.so (2013.1, Build901 2013/11/27)

>  <Rbt.Parameter_File>
/export/apps/rDock/src/rDock_2013.1_src/data/scripts/dock_solv.prm

>  <Rbt.Receptor>
prm/pocket_docking_4.prm

>  <SCORE>
-15.5946

>  <SCORE.INTER>
-13.4177

>  <SCORE.INTER.CONST>
1

>  <SCORE.INTER.POLAR>
0

>  <SCORE.INTER.ROT>
7

>  <SCORE.INTER.SOLV>
17.2455

>  <SCORE.INTER.VDW>
-22.9603

>  <SCORE.INTER.norm>
-0.49695

>  <SCORE.INTRA>
-2.17697

>  <SCORE.INTRA.DIHEDRAL>
-3.53543

>  <SCORE.INTRA.DIHEDRAL.0>
10.4103

>  <SCORE.INTRA.POLAR>
0

>  <SCORE.INTRA.POLAR.0>
0

>  <SCORE.INTRA.REPUL>
0

>  <SCORE.INTRA.REPUL.0>
0

>  <SCORE.INTRA.SOLV>
1.44543

>  <SCORE.INTRA.SOLV.lig_0>
-49.5008

>  <SCORE.INTRA.VDW>
-1.13197

>  <SCORE.INTRA.VDW.0>
-2.6946

>  <SCORE.INTRA.norm>
-0.0806285

>  <SCORE.RESTR>
0

>  <SCORE.RESTR.CAVITY>
0

>  <SCORE.RESTR.norm>
0

>  <SCORE.SYSTEM>
0

>  <SCORE.SYSTEM.CONST>
0

>  <SCORE.SYSTEM.DIHEDRAL>
0

>  <SCORE.SYSTEM.SOLV>
0

>  <SCORE.SYSTEM.norm>
0

>  <SCORE.heavy>
27

>  <SCORE.norm>
-0.577579

>  <RMSD>
4.991

$$$$
ligand
 OpenBabel02271912153D
libRbt.so/2013.1/901 2013/11/27
 27 29  0  0  0  0  0  0  0  0999 V2000
   -2.4231  -10.3030   16.8015 N   0  0  0  0  0  0  0  0  0  0  0  0
   -2.5342  -10.0248   15.3822 C   0  0  2  0  0  0  0  0  0  0  0  0
   -1.1426   -9.9188   14.8388 C   0  0  0  0  0  0  0  0  0  0  0  0
   -0.8758   -9.0158   14.0169 O   0  0  0  0  0  0  0  0  0  0  0  0
   -3.2958   -8.7168   15.1512 C   0  0  0  0  0  0  0  0  0  0  0  0
   -4.7874   -8.8570   15.5280 C   0  0  0  0  0  0  0  0  0  0  0  0
   -5.1103   -8.9828   17.1697 S   0  0  2  0  0  0  0  0  0  0  0  0
   -6.7393   -9.2157   17.3948 C   0  0  0  0  0  0  0  0  0  0  0  0
   -4.5919   -7.5852   17.9613 C   0  0  0  0  0  0  0  0  0  0  0  0
   -4.4303   -7.7499   19.4873 C   0  0  1  0  0  0  0  0  0  0  0  0
   -5.6568   -8.0947   20.1526 O   0  0  0  0  0  0  0  0  0  0  0  0
   -3.5224   -8.9036   19.8816 C   0  0  1  0  0  0  0  0  0  0  0  0
   -2.1025   -8.7172   19.7143 O   0  0  0  0  0  0  0  0  0  0  0  0
   -3.9460   -9.1103   21.3148 C   0  0  1  0  0  0  0  0  0  0  0  0
   -3.4629   -8.0438   22.1261 O   0  0  0  0  0  0  0  0  0  0  0  0
   -5.4403   -9.0146   21.2252 C   0  0  2  0  0  0  0  0  0  0  0  0
   -0.2627  -10.7170   15.2412 O   0  0  0  0  0  0  0  0  0  0  0  0
   -5.2887  -14.3167   21.5994 N   0  0  0  0  0  0  0  0  0  0  0  0
   -4.3624  -13.4067   21.9872 C   0  0  0  0  0  0  0  0  0  0  0  0
   -4.5298  -12.0836   21.8239 N   0  0  0  0  0  0  0  0  0  0  0  0
   -5.6414  -11.5738   21.2819 C   0  0  0  0  0  0  0  0  0  0  0  0
   -6.6839  -12.4997   20.8654 C   0  0  0  0  0  0  0  0  0  0  0  0
   -6.4832  -13.9577   21.0328 C   0  0  0  0  0  0  0  0  0  0  0  0
   -7.4325  -14.8834   20.6523 N   0  0  0  0  0  0  0  0  0  0  0  0
   -7.6539  -11.7533   20.3881 N   0  0  0  0  0  0  0  0  0  0  0  0
   -7.2870  -10.4664   20.4594 C   0  0  0  0  0  0  0  0  0  0  0  0
   -6.0759  -10.3493   21.0026 N   0  0  0  0  0  0  0  0  0  0  0  0
  2  1  1  1  0  0  0
  2  3  1  0  0  0  0
  2  5  1  0  0  0  0
  3  4  1  0  0  0  0
  3 17  1  0  0  0  0
  5  6  1  0  0  0  0
  7  6  1  6  0  0  0
  7  8  1  0  0  0  0
  7  9  1  0  0  0  0
 10  9  1  6  0  0  0
 10 11  1  0  0  0  0
 10 12  1  0  0  0  0
 11 16  1  0  0  0  0
 12 13  1  1  0  0  0
 12 14  1  0  0  0  0
 14 15  1  1  0  0  0
 14 16  1  0  0  0  0
 16 27  1  6  0  0  0
 18 19  2  0  0  0  0
 18 23  1  0  0  0  0
 19 20  1  0  0  0  0
 20 21  2  0  0  0  0
 21 22  1  0  0  0  0
 21 27  1  0  0  0  0
 22 23  2  0  0  0  0
 22 25  1  0  0  0  0
 23 24  1  0  0  0  0
 25 26  2  0  0  0  0
 26 27  1  0  0  0  0
M  END
>  <CHROM.1>
-138.12954914,-69.17335286,70.97309289,-176.68076733,-162.04122551,-61.21577728
140.99765405,-4.47488201,-10.17215063,18.90583555,-0.23135019,-1.02752124
-2.92461607

>  <Name>
ligand

>  <RI>
0

>  <Rbt.Current_Directory>
/home/itssahil/PROJECTS/Mol_Feturizer/Test_systems_manuscript/rnas/4kqy

>  <Rbt.Executable>
rbdock ($Id: //depot/dev/client3/rdock/2013.1/src/exe/rbdock.cxx#4 $)

>  <Rbt.Library>
libRbt.so (2013.1, Build901 2013/11/27)

>  <Rbt.Parameter_File>
/export/apps/rDock/src/rDock_2013.1_src/data/scripts/dock_solv.prm

>  <Rbt.Receptor>
prm/pocket_docking_3.prm

>  <SCORE>
-14.3139

>  <SCORE.INTER>
-13.4017

>  <SCORE.INTER.CONST>
1

>  <SCORE.INTER.POLAR>
0

>  <SCORE.INTER.ROT>
7

>  <SCORE.INTER.SOLV>
13.086

>  <SCORE.INTER.VDW>
-21.5631

>  <SCORE.INTER.norm>
-0.496358

>  <SCORE.INTRA>
-0.936379

>  <SCORE.INTRA.DIHEDRAL>
-5.95877

>  <SCORE.INTRA.DIHEDRAL.0>
10.4103

>  <SCORE.INTRA.POLAR>
0

>  <SCORE.INTRA.POLAR.0>
0

>  <SCORE.INTRA.REPUL>
0

>  <SCORE.INTRA.REPUL.0>
0

>  <SCORE.INTRA.SOLV>
3.78917

>  <SCORE.INTRA.SOLV.lig_0>
-49.5008

>  <SCORE.INTRA.VDW>
0.148424

>  <SCORE.INTRA.VDW.0>
-2.6946

>  <SCORE.INTRA.norm>
-0.0346807

>  <SCORE.RESTR>
0.0241686

>  <SCORE.RESTR.CAVITY>
0.0241686

>  <SCORE.RESTR.norm>
0.000895134

>  <SCORE.SYSTEM>
0

>  <SCORE.SYSTEM.CONST>
0

>  <SCORE.SYSTEM.DIHEDRAL>
0

>  <SCORE.SYSTEM.SOLV>
0

>  <SCORE.SYSTEM.norm>
0

>  <SCORE.heavy>
27

>  <SCORE.norm>
-0.530143

>  <RMSD>
4.997

$$$$
ligand
 OpenBabel02271912153D
libRbt.so/2013.1/901 2013/11/27
 27 29  0  0  0  0  0  0  0  0999 V2000
   -2.8017  -10.5579   16.2373 N   0  0  0  0  0  0  0  0  0  0  0  0
   -2.7660   -9.6874   15.0775 C   0  0  2  0  0  0  0  0  0  0  0  0
   -1.3332   -9.5590   14.6609 C   0  0  0  0  0  0  0  0  0  0  0  0
   -0.5066  -10.4131   15.0479 O   0  0  0  0  0  0  0  0  0  0  0  0
   -3.3443   -8.3123   15.4225 C   0  0  0  0  0  0  0  0  0  0  0  0
   -4.8224   -8.4142   15.8599 C   0  0  0  0  0  0  0  0  0  0  0  0
   -5.0748   -8.8212   17.4680 S   0  0  2  0  0  0  0  0  0  0  0  0
   -6.6853   -9.1496   17.7071 C   0  0  0  0  0  0  0  0  0  0  0  0
   -4.5696   -7.5547   18.4626 C   0  0  0  0  0  0  0  0  0  0  0  0
   -4.1984   -7.9902   19.8959 C   0  0  1  0  0  0  0  0  0  0  0  0
   -5.3382   -8.3673   20.6861 O   0  0  0  0  0  0  0  0  0  0  0  0
   -3.3480   -9.2492   19.9479 C   0  0  1  0  0  0  0  0  0  0  0  0
   -1.9579   -9.1258   19.5859 O   0  0  0  0  0  0  0  0  0  0  0  0
   -3.5707   -9.6733   21.3785 C   0  0  1  0  0  0  0  0  0  0  0  0
   -2.8798   -8.7953   22.2621 O   0  0  0  0  0  0  0  0  0  0  0  0
   -5.0473   -9.4703   21.5477 C   0  0  2  0  0  0  0  0  0  0  0  0
   -0.9939   -8.6162   13.9065 O   0  0  0  0  0  0  0  0  0  0  0  0
   -5.5522  -14.7632   21.6262 N   0  0  0  0  0  0  0  0  0  0  0  0
   -4.5464  -13.9944   22.1097 C   0  0  0  0  0  0  0  0  0  0  0  0
   -4.5450  -12.6542   22.0141 N   0  0  0  0  0  0  0  0  0  0  0  0
   -5.5561  -11.9852   21.4487 C   0  0  0  0  0  0  0  0  0  0  0  0
   -6.6773  -12.7541   20.9301 C   0  0  0  0  0  0  0  0  0  0  0  0
   -6.6621  -14.2324   21.0237 C   0  0  0  0  0  0  0  0  0  0  0  0
   -7.6930  -15.0143   20.5455 N   0  0  0  0  0  0  0  0  0  0  0  0
   -7.5233  -11.8713   20.4495 N   0  0  0  0  0  0  0  0  0  0  0  0
   -7.0095  -10.6443   20.6117 C   0  0  0  0  0  0  0  0  0  0  0  0
   -5.8249  -10.7041   21.2188 N   0  0  0  0  0  0  0  0  0  0  0  0
  2  1  1  1  0  0  0
  2  3  1  0  0  0  0
  2  5  1  0  0  0  0
  3  4  1  0  0  0  0
  3 17  1  0  0  0  0
  5  6  1  0  0  0  0
  7  6  1  6  0  0  0
  7  8  1  0  0  0  0
  7  9  1  0  0  0  0
 10  9  1  6  0  0  0
 10 11  1  0  0  0  0
 10 12  1  0  0  0  0
 11 16  1  0  0  0  0
 12 13  1  1  0  0  0
 12 14  1  0  0  0  0
 14 15  1  1  0  0  0
 14 16  1  0  0  0  0
 16 27  1  6  0  0  0
 18 19  2  0  0  0  0
 18 23  1  0  0  0  0
 19 20  1  0  0  0  0
 20 21  2  0  0  0  0
 21 22  1  0  0  0  0
 21 27  1  0  0  0  0
 22 23  2  0  0  0  0
 22 25  1  0  0  0  0
 23 24  1  0  0  0  0
 25 26  2  0  0  0  0
 26 27  1  0  0  0  0
M  END
>  <CHROM.1>
19.32506009,-61.40063531,82.96087340,-170.10490973,-155.91903930,-71.17691623
154.85058305,-4.43749579,-10.30565900,19.01381830,0.05075265,-1.09337203
-2.51663850

>  <Name>
ligand

>  <RI>
0

>  <Rbt.Current_Directory>
/home/itssahil/PROJECTS/Mol_Feturizer/Test_systems_manuscript/rnas/4kqy

>  <Rbt.Executable>
rbdock ($Id: //depot/dev/client3/rdock/2013.1/src/exe/rbdock.cxx#4 $)

>  <Rbt.Library>
libRbt.so (2013.1, Build901 2013/11/27)

>  <Rbt.Parameter_File>
/export/apps/rDock/src/rDock_2013.1_src/data/scripts/dock_solv.prm

>  <Rbt.Receptor>
prm/pocket_docking_3.prm

>  <SCORE>
-14.1681

>  <SCORE.INTER>
-13.6687

>  <SCORE.INTER.CONST>
1

>  <SCORE.INTER.POLAR>
0

>  <SCORE.INTER.ROT>
7

>  <SCORE.INTER.SOLV>
13.6613

>  <SCORE.INTER.VDW>
-21.9329

>  <SCORE.INTER.norm>
-0.506246

>  <SCORE.INTRA>
-0.499452

>  <SCORE.INTRA.DIHEDRAL>
-3.72947

>  <SCORE.INTRA.DIHEDRAL.0>
10.4103

>  <SCORE.INTRA.POLAR>
0

>  <SCORE.INTRA.POLAR.0>
0

>  <SCORE.INTRA.REPUL>
0

>  <SCORE.INTRA.REPUL.0>
0

>  <SCORE.INTRA.SOLV>
2.83517

>  <SCORE.INTRA.SOLV.lig_0>
-49.5008

>  <SCORE.INTRA.VDW>
-0.0523042

>  <SCORE.INTRA.VDW.0>
-2.6946

>  <SCORE.INTRA.norm>
-0.0184982

>  <SCORE.RESTR>
0

>  <SCORE.RESTR.CAVITY>
0

>  <SCORE.RESTR.norm>
0

>  <SCORE.SYSTEM>
0

>  <SCORE.SYSTEM.CONST>
0

>  <SCORE.SYSTEM.DIHEDRAL>
0

>  <SCORE.SYSTEM.SOLV>
0

>  <SCORE.SYSTEM.norm>
0

>  <SCORE.heavy>
27

>  <SCORE.norm>
-0.524745

>  <RMSD>
5.016

$$$$
ligand
 OpenBabel02271912153D
libRbt.so/2013.1/901 2013/11/27
 27 29  0  0  0  0  0  0  0  0999 V2000
   -3.1883  -11.4182   15.3230 N   0  0  0  0  0  0  0  0  0  0  0  0
   -4.1389  -12.4063   15.7967 C   0  0  2  0  0  0  0  0  0  0  0  0
   -5.2502  -12.4713   14.7947 C   0  0  0  0  0  0  0  0  0  0  0  0
   -6.0822  -13.4013   14.8662 O   0  0  0  0  0  0  0  0  0  0  0  0
   -4.6847  -12.0082   17.1706 C   0  0  0  0  0  0  0  0  0  0  0  0
   -3.5850  -12.0654   18.2541 C   0  0  0  0  0  0  0  0  0  0  0  0
   -2.3904  -10.8932   18.1351 S   0  0  2  0  0  0  0  0  0  0  0  0
   -0.9685  -11.6024   17.6515 C   0  0  0  0  0  0  0  0  0  0  0  0
   -2.1972  -10.1230   19.6244 C   0  0  0  0  0  0  0  0  0  0  0  0
   -3.3540   -9.1709   19.9949 C   0  0  1  0  0  0  0  0  0  0  0  0
   -4.5337   -9.3772   19.2001 O   0  0  0  0  0  0  0  0  0  0  0  0
   -3.8836   -9.3772   21.4048 C   0  0  1  0  0  0  0  0  0  0  0  0
   -3.0789   -8.8829   22.4943 O   0  0  0  0  0  0  0  0  0  0  0  0
   -5.2332   -8.7123   21.2924 C   0  0  1  0  0  0  0  0  0  0  0  0
   -5.0774   -7.2982   21.2231 O   0  0  0  0  0  0  0  0  0  0  0  0
   -5.7284   -9.2123   19.9676 C   0  0  2  0  0  0  0  0  0  0  0  0
   -5.3450  -11.5753   13.9222 O   0  0  0  0  0  0  0  0  0  0  0  0
   -6.1527  -14.2517   21.6111 N   0  0  0  0  0  0  0  0  0  0  0  0
   -5.1026  -13.4024   21.7242 C   0  0  0  0  0  0  0  0  0  0  0  0
   -5.1303  -12.1448   21.2521 N   0  0  0  0  0  0  0  0  0  0  0  0
   -6.2141  -11.6388   20.6532 C   0  0  0  0  0  0  0  0  0  0  0  0
   -7.3832  -12.4951   20.5214 C   0  0  0  0  0  0  0  0  0  0  0  0
   -7.3375  -13.8861   21.0287 C   0  0  0  0  0  0  0  0  0  0  0  0
   -8.4115  -14.7458   20.9276 N   0  0  0  0  0  0  0  0  0  0  0  0
   -8.2950  -11.7642   19.9213 N   0  0  0  0  0  0  0  0  0  0  0  0
   -7.7800  -10.5546   19.6613 C   0  0  0  0  0  0  0  0  0  0  0  0
   -6.5264  -10.4691   20.1046 N   0  0  0  0  0  0  0  0  0  0  0  0
  2  1  1  6  0  0  0
  2  3  1  0  0  0  0
  2  5  1  0  0  0  0
  3  4  1  0  0  0  0
  3 17  1  0  0  0  0
  5  6  1  0  0  0  0
  7  6  1  1  0  0  0
  7  8  1  0  0  0  0
  7  9  1  0  0  0  0
 10  9  1  6  0  0  0
 10 11  1  0  0  0  0
 10 12  1  0  0  0  0
 11 16  1  0  0  0  0
 12 13  1  1  0  0  0
 12 14  1  0  0  0  0
 14 15  1  6  0  0  0
 14 16  1  0  0  0  0
 16 27  1  1  0  0  0
 18 19  2  0  0  0  0
 18 23  1  0  0  0  0
 19 20  1  0  0  0  0
 20 21  2  0  0  0  0
 21 22  1  0  0  0  0
 21 27  1  0  0  0  0
 22 23  2  0  0  0  0
 22 25  1  0  0  0  0
 23 24  1  0  0  0  0
 25 26  2  0  0  0  0
 26 27  1  0  0  0  0
M  END
>  <CHROM.1>
168.47652737,-67.03931764,69.53186148,-109.05860424,-72.57871938,15.72932465
61.09891666,-4.89800443,-11.24574273,19.10647614,-1.25043807,0.67730641,1.13372771

>  <Name>
ligand

>  <RI>
0

>  <Rbt.Current_Directory>
/home/itssahil/PROJECTS/Mol_Feturizer/Test_systems_manuscript/rnas/4kqy

>  <Rbt.Executable>
rbdock ($Id: //depot/dev/client3/rdock/2013.1/src/exe/rbdock.cxx#4 $)

>  <Rbt.Library>
libRbt.so (2013.1, Build901 2013/11/27)

>  <Rbt.Parameter_File>
/export/apps/rDock/src/rDock_2013.1_src/data/scripts/dock_solv.prm

>  <Rbt.Receptor>
prm/pocket_docking_4.prm

>  <SCORE>
-9.4322

>  <SCORE.INTER>
-10.3411

>  <SCORE.INTER.CONST>
1

>  <SCORE.INTER.POLAR>
0

>  <SCORE.INTER.ROT>
7

>  <SCORE.INTER.SOLV>
10.8224

>  <SCORE.INTER.VDW>
-18.7682

>  <SCORE.INTER.norm>
-0.383005

>  <SCORE.INTRA>
0.90894

>  <SCORE.INTRA.DIHEDRAL>
2.11546

>  <SCORE.INTRA.DIHEDRAL.0>
10.4103

>  <SCORE.INTRA.POLAR>
0

>  <SCORE.INTRA.POLAR.0>
0

>  <SCORE.INTRA.REPUL>
0

>  <SCORE.INTRA.REPUL.0>
0

>  <SCORE.INTRA.SOLV>
2.61731

>  <SCORE.INTRA.SOLV.lig_0>
-49.5008

>  <SCORE.INTRA.VDW>
-1.45744

>  <SCORE.INTRA.VDW.0>
-2.6946

>  <SCORE.INTRA.norm>
0.0336644

>  <SCORE.RESTR>
0

>  <SCORE.RESTR.CAVITY>
0

>  <SCORE.RESTR.norm>
0

>  <SCORE.SYSTEM>
0

>  <SCORE.SYSTEM.CONST>
0

>  <SCORE.SYSTEM.DIHEDRAL>
0

>  <SCORE.SYSTEM.SOLV>
0

>  <SCORE.SYSTEM.norm>
0

>  <SCORE.heavy>
27

>  <SCORE.norm>
-0.349341

>  <RMSD>
5.017

$$$$
ligand
 OpenBabel02271912153D
libRbt.so/2013.1/901 2013/11/27
 27 29  0  0  0  0  0  0  0  0999 V2000
   -1.9561  -12.6794   15.3700 N   0  0  0  0  0  0  0  0  0  0  0  0
   -1.0914  -12.3156   16.4764 C   0  0  2  0  0  0  0  0  0  0  0  0
   -0.4594  -13.5763   16.9808 C   0  0  0  0  0  0  0  0  0  0  0  0
   -1.1587  -14.4004   17.6085 O   0  0  0  0  0  0  0  0  0  0  0  0
   -1.9003  -11.6445   17.5897 C   0  0  0  0  0  0  0  0  0  0  0  0
   -2.4907  -10.2948   17.1246 C   0  0  0  0  0  0  0  0  0  0  0  0
   -3.4807   -9.5173   18.2340 S   0  0  2  0  0  0  0  0  0  0  0  0
   -3.9480   -8.0466   17.6197 C   0  0  0  0  0  0  0  0  0  0  0  0
   -2.6564   -9.3202   19.6935 C   0  0  0  0  0  0  0  0  0  0  0  0
   -3.2395  -10.1437   20.8613 C   0  0  1  0  0  0  0  0  0  0  0  0
   -4.5611   -9.7274   21.2432 O   0  0  0  0  0  0  0  0  0  0  0  0
   -3.4559  -11.6098   20.5230 C   0  0  1  0  0  0  0  0  0  0  0  0
   -2.2896  -12.4552   20.4608 O   0  0  0  0  0  0  0  0  0  0  0  0
   -4.4355  -11.9999   21.6021 C   0  0  1  0  0  0  0  0  0  0  0  0
   -3.7743  -12.0664   22.8620 O   0  0  0  0  0  0  0  0  0  0  0  0
   -5.3834  -10.8374   21.6113 C   0  0  2  0  0  0  0  0  0  0  0  0
    0.7510  -13.7976   16.7376 O   0  0  0  0  0  0  0  0  0  0  0  0
   -8.9275  -14.0803   19.3313 N   0  0  0  0  0  0  0  0  0  0  0  0
   -7.9440  -14.3768   20.2152 C   0  0  0  0  0  0  0  0  0  0  0  0
   -7.1068  -13.4496   20.7099 N   0  0  0  0  0  0  0  0  0  0  0  0
   -7.2050  -12.1584   20.3744 C   0  0  0  0  0  0  0  0  0  0  0  0
   -8.2565  -11.7730   19.4454 C   0  0  0  0  0  0  0  0  0  0  0  0
   -9.1636  -12.8046   18.8912 C   0  0  0  0  0  0  0  0  0  0  0  0
  -10.1747  -12.5007   18.0034 N   0  0  0  0  0  0  0  0  0  0  0  0
   -8.1431  -10.4725   19.2977 N   0  0  0  0  0  0  0  0  0  0  0  0
   -7.1105  -10.0402   20.0345 C   0  0  0  0  0  0  0  0  0  0  0  0
   -6.5424  -11.0508   20.6914 N   0  0  0  0  0  0  0  0  0  0  0  0
  2  1  1  6  0  0  0
  2  3  1  0  0  0  0
  2  5  1  0  0  0  0
  3  4  1  0  0  0  0
  3 17  1  0  0  0  0
  5  6  1  0  0  0  0
  7  6  1  6  0  0  0
  7  8  1  0  0  0  0
  7  9  1  0  0  0  0
 10  9  1  6  0  0  0
 10 11  1  0  0  0  0
 10 12  1  0  0  0  0
 11 16  1  0  0  0  0
 12 13  1  1  0  0  0
 12 14  1  0  0  0  0
 14 15  1  1  0  0  0
 14 16  1  0  0  0  0
 16 27  1  6  0  0  0
 18 19  2  0  0  0  0
 18 23  1  0  0  0  0
 19 20  1  0  0  0  0
 20 21  2  0  0  0  0
 21 22  1  0  0  0  0
 21 27  1  0  0  0  0
 22 23  2  0  0  0  0
 22 25  1  0  0  0  0
 23 24  1  0  0  0  0
 25 26  2  0  0  0  0
 26 27  1  0  0  0  0
M  END
>  <CHROM.1>
-71.75502111,-65.15928671,176.19277243,176.35410501,-113.18074746,-65.65359585
151.77538645,-4.50293579,-11.63474573,19.19203410,0.20900555,-0.28487854
-2.50174343

>  <Name>
ligand

>  <RI>
0

>  <Rbt.Current_Directory>
/home/itssahil/PROJECTS/Mol_Feturizer/Test_systems_manuscript/rnas/4kqy

>  <Rbt.Executable>
rbdock ($Id: //depot/dev/client3/rdock/2013.1/src/exe/rbdock.cxx#4 $)

>  <Rbt.Library>
libRbt.so (2013.1, Build901 2013/11/27)

>  <Rbt.Parameter_File>
/export/apps/rDock/src/rDock_2013.1_src/data/scripts/dock_solv.prm

>  <Rbt.Receptor>
prm/pocket_docking_4.prm

>  <SCORE>
-13.3116

>  <SCORE.INTER>
-12.0699

>  <SCORE.INTER.CONST>
1

>  <SCORE.INTER.POLAR>
0

>  <SCORE.INTER.ROT>
7

>  <SCORE.INTER.SOLV>
9.57806

>  <SCORE.INTER.VDW>
-19.5059

>  <SCORE.INTER.norm>
-0.447032

>  <SCORE.INTRA>
-1.31808

>  <SCORE.INTRA.DIHEDRAL>
-2.79674

>  <SCORE.INTRA.DIHEDRAL.0>
10.4103

>  <SCORE.INTRA.POLAR>
0

>  <SCORE.INTRA.POLAR.0>
0

>  <SCORE.INTRA.REPUL>
0

>  <SCORE.INTRA.REPUL.0>
0

>  <SCORE.INTRA.SOLV>
0.63657

>  <SCORE.INTRA.SOLV.lig_0>
-49.5008

>  <SCORE.INTRA.VDW>
-0.237999

>  <SCORE.INTRA.VDW.0>
-2.6946

>  <SCORE.INTRA.norm>
-0.048818

>  <SCORE.RESTR>
0.0763356

>  <SCORE.RESTR.CAVITY>
0.0763356

>  <SCORE.RESTR.norm>
0.00282724

>  <SCORE.SYSTEM>
0

>  <SCORE.SYSTEM.CONST>
0

>  <SCORE.SYSTEM.DIHEDRAL>
0

>  <SCORE.SYSTEM.SOLV>
0

>  <SCORE.SYSTEM.norm>
0

>  <SCORE.heavy>
27

>  <SCORE.norm>
-0.493023

>  <RMSD>
5.018

$$$$
ligand
 OpenBabel02271912153D
libRbt.so/2013.1/901 2013/11/27
 27 29  0  0  0  0  0  0  0  0999 V2000
    1.2426  -11.8693   17.1726 N   0  0  0  0  0  0  0  0  0  0  0  0
    0.0279  -12.4222   16.6043 C   0  0  2  0  0  0  0  0  0  0  0  0
   -0.1305  -11.8355   15.2354 C   0  0  0  0  0  0  0  0  0  0  0  0
   -1.1261  -12.1502   14.5484 O   0  0  0  0  0  0  0  0  0  0  0  0
   -1.1799  -12.0695   17.4766 C   0  0  0  0  0  0  0  0  0  0  0  0
   -1.3916  -10.5414   17.5578 C   0  0  0  0  0  0  0  0  0  0  0  0
   -2.7000  -10.0403   18.4810 S   0  0  2  0  0  0  0  0  0  0  0  0
   -4.0864  -10.7489   17.9025 C   0  0  0  0  0  0  0  0  0  0  0  0
   -2.8230   -8.3578   18.4294 C   0  0  0  0  0  0  0  0  0  0  0  0
   -3.9857   -7.7862   19.2680 C   0  0  1  0  0  0  0  0  0  0  0  0
   -5.2577   -8.3731   18.9465 O   0  0  0  0  0  0  0  0  0  0  0  0
   -3.8674   -8.0840   20.7540 C   0  0  1  0  0  0  0  0  0  0  0  0
   -2.9014   -7.3240   21.5078 O   0  0  0  0  0  0  0  0  0  0  0  0
   -5.2939   -7.8643   21.1935 C   0  0  1  0  0  0  0  0  0  0  0  0
   -5.6014   -6.4736   21.1790 O   0  0  0  0  0  0  0  0  0  0  0  0
   -6.0732   -8.5458   20.1079 C   0  0  2  0  0  0  0  0  0  0  0  0
    0.7207  -11.0157   14.8152 O   0  0  0  0  0  0  0  0  0  0  0  0
   -4.4290  -13.2768   21.8940 N   0  0  0  0  0  0  0  0  0  0  0  0
   -3.7310  -12.1219   21.7689 C   0  0  0  0  0  0  0  0  0  0  0  0
   -4.2761  -10.9908   21.2907 N   0  0  0  0  0  0  0  0  0  0  0  0
   -5.5608  -10.9260   20.9236 C   0  0  0  0  0  0  0  0  0  0  0  0
   -6.3695  -12.1285   21.0555 C   0  0  0  0  0  0  0  0  0  0  0  0
   -5.7556  -13.3759   21.5668 C   0  0  0  0  0  0  0  0  0  0  0  0
   -6.4699  -14.5474   21.7088 N   0  0  0  0  0  0  0  0  0  0  0  0
   -7.5729  -11.7956   20.6471 N   0  0  0  0  0  0  0  0  0  0  0  0
   -7.5616  -10.5117   20.2631 C   0  0  0  0  0  0  0  0  0  0  0  0
   -6.3523   -9.9783   20.4319 N   0  0  0  0  0  0  0  0  0  0  0  0
  2  1  1  1  0  0  0
  2  3  1  0  0  0  0
  2  5  1  0  0  0  0
  3  4  1  0  0  0  0
  3 17  1  0  0  0  0
  5  6  1  0  0  0  0
  7  6  1  6  0  0  0
  7  8  1  0  0  0  0
  7  9  1  0  0  0  0
 10  9  1  6  0  0  0
 10 11  1  0  0  0  0
 10 12  1  0  0  0  0
 11 16  1  0  0  0  0
 12 13  1  1  0  0  0
 12 14  1  0  0  0  0
 14 15  1  6  0  0  0
 14 16  1  0  0  0  0
 16 27  1  1  0  0  0
 18 19  2  0  0  0  0
 18 23  1  0  0  0  0
 19 20  1  0  0  0  0
 20 21  2  0  0  0  0
 21 22  1  0  0  0  0
 21 27  1  0  0  0  0
 22 23  2  0  0  0  0
 22 25  1  0  0  0  0
 23 24  1  0  0  0  0
 25 26  2  0  0  0  0
 26 27  1  0  0  0  0
M  END
>  <CHROM.1>
-178.96539402,61.89233784,179.51361541,-56.56230021,-179.05438694,-53.75645121
72.17681147,-3.68876248,-10.48152065,19.25936664,0.18117792,-0.72144386,-3.11155537

>  <Name>
ligand

>  <RI>
0

>  <Rbt.Current_Directory>
/home/itssahil/PROJECTS/Mol_Feturizer/Test_systems_manuscript/rnas/4kqy

>  <Rbt.Executable>
rbdock ($Id: //depot/dev/client3/rdock/2013.1/src/exe/rbdock.cxx#4 $)

>  <Rbt.Library>
libRbt.so (2013.1, Build901 2013/11/27)

>  <Rbt.Parameter_File>
/export/apps/rDock/src/rDock_2013.1_src/data/scripts/dock_solv.prm

>  <Rbt.Receptor>
prm/pocket_docking_7.prm

>  <SCORE>
-17.6044

>  <SCORE.INTER>
-14.3759

>  <SCORE.INTER.CONST>
1

>  <SCORE.INTER.POLAR>
0

>  <SCORE.INTER.ROT>
7

>  <SCORE.INTER.SOLV>
19.2713

>  <SCORE.INTER.VDW>
-24.2743

>  <SCORE.INTER.norm>
-0.53244

>  <SCORE.INTRA>
-3.22852

>  <SCORE.INTRA.DIHEDRAL>
-7.50759

>  <SCORE.INTRA.DIHEDRAL.0>
10.4103

>  <SCORE.INTRA.POLAR>
0

>  <SCORE.INTRA.POLAR.0>
0

>  <SCORE.INTRA.REPUL>
0

>  <SCORE.INTRA.REPUL.0>
0

>  <SCORE.INTRA.SOLV>
0.374711

>  <SCORE.INTRA.SOLV.lig_0>
-49.5008

>  <SCORE.INTRA.VDW>
0.337924

>  <SCORE.INTRA.VDW.0>
-2.6946

>  <SCORE.INTRA.norm>
-0.119575

>  <SCORE.RESTR>
0

>  <SCORE.RESTR.CAVITY>
0

>  <SCORE.RESTR.norm>
0

>  <SCORE.SYSTEM>
0

>  <SCORE.SYSTEM.CONST>
0

>  <SCORE.SYSTEM.DIHEDRAL>
0

>  <SCORE.SYSTEM.SOLV>
0

>  <SCORE.SYSTEM.norm>
0

>  <SCORE.heavy>
27

>  <SCORE.norm>
-0.652015

>  <RMSD>
5.025

$$$$
ligand
 OpenBabel02271912153D
libRbt.so/2013.1/901 2013/11/27
 27 29  0  0  0  0  0  0  0  0999 V2000
   -4.7478  -12.1795   21.1616 N   0  0  0  0  0  0  0  0  0  0  0  0
   -5.3556  -12.8927   20.0543 C   0  0  2  0  0  0  0  0  0  0  0  0
   -5.3612  -14.3473   20.4108 C   0  0  0  0  0  0  0  0  0  0  0  0
   -5.6942  -15.1860   19.5460 O   0  0  0  0  0  0  0  0  0  0  0  0
   -4.5574  -12.6640   18.7678 C   0  0  0  0  0  0  0  0  0  0  0  0
   -5.3979  -12.9951   17.5147 C   0  0  0  0  0  0  0  0  0  0  0  0
   -4.8118  -12.3810   16.0674 S   0  0  2  0  0  0  0  0  0  0  0  0
   -6.0421  -12.3276   14.9529 C   0  0  0  0  0  0  0  0  0  0  0  0
   -3.5435  -13.3454   15.5109 C   0  0  0  0  0  0  0  0  0  0  0  0
   -2.1415  -12.8096   15.8703 C   0  0  1  0  0  0  0  0  0  0  0  0
   -1.9724  -11.4156   15.5637 O   0  0  0  0  0  0  0  0  0  0  0  0
   -1.8410  -12.8437   17.3601 C   0  0  1  0  0  0  0  0  0  0  0  0
   -1.5417  -14.1262   17.9470 O   0  0  0  0  0  0  0  0  0  0  0  0
   -0.7013  -11.8579   17.4340 C   0  0  1  0  0  0  0  0  0  0  0  0
    0.4750  -12.4269   16.8669 O   0  0  0  0  0  0  0  0  0  0  0  0
   -1.1797  -10.7465   16.5474 C   0  0  2  0  0  0  0  0  0  0  0  0
   -5.0020  -14.7005   21.5595 O   0  0  0  0  0  0  0  0  0  0  0  0
   -3.2903   -8.9857   21.0994 N   0  0  0  0  0  0  0  0  0  0  0  0
   -2.6114  -10.1341   20.8612 C   0  0  0  0  0  0  0  0  0  0  0  0
   -2.1353  -10.4591   19.6476 N   0  0  0  0  0  0  0  0  0  0  0  0
   -2.2841   -9.6523   18.5910 C   0  0  0  0  0  0  0  0  0  0  0  0
   -2.9855   -8.3927   18.7880 C   0  0  0  0  0  0  0  0  0  0  0  0
   -3.5227   -8.0507   20.1254 C   0  0  0  0  0  0  0  0  0  0  0  0
   -4.2003   -6.8747   20.3717 N   0  0  0  0  0  0  0  0  0  0  0  0
   -2.9811   -7.7952   17.6180 N   0  0  0  0  0  0  0  0  0  0  0  0
   -2.3607   -8.5840   16.7299 C   0  0  0  0  0  0  0  0  0  0  0  0
   -1.9324   -9.7043   17.3104 N   0  0  0  0  0  0  0  0  0  0  0  0
  2  1  1  1  0  0  0
  2  3  1  0  0  0  0
  2  5  1  0  0  0  0
  3  4  1  0  0  0  0
  3 17  1  0  0  0  0
  5  6  1  0  0  0  0
  7  6  1  1  0  0  0
  7  8  1  0  0  0  0
  7  9  1  0  0  0  0
 10  9  1  1  0  0  0
 10 11  1  0  0  0  0
 10 12  1  0  0  0  0
 11 16  1  0  0  0  0
 12 13  1  6  0  0  0
 12 14  1  0  0  0  0
 14 15  1  6  0  0  0
 14 16  1  0  0  0  0
 16 27  1  1  0  0  0
 18 19  2  0  0  0  0
 18 23  1  0  0  0  0
 19 20  1  0  0  0  0
 20 21  2  0  0  0  0
 21 22  1  0  0  0  0
 21 27  1  0  0  0  0
 22 23  2  0  0  0  0
 22 25  1  0  0  0  0
 23 24  1  0  0  0  0
 25 26  2  0  0  0  0
 26 27  1  0  0  0  0
M  END
>  <CHROM.1>
-171.68950583,-161.04941033,163.16740943,-159.52698827,-97.07491866,-48.51604398
113.28132114,-3.33049114,-11.54301154,18.17561271,2.30399943,-0.95411872
-2.45709839

>  <Name>
ligand

>  <RI>
0

>  <Rbt.Current_Directory>
/home/itssahil/PROJECTS/Mol_Feturizer/Test_systems_manuscript/rnas/4kqy

>  <Rbt.Executable>
rbdock ($Id: //depot/dev/client3/rdock/2013.1/src/exe/rbdock.cxx#4 $)

>  <Rbt.Library>
libRbt.so (2013.1, Build901 2013/11/27)

>  <Rbt.Parameter_File>
/export/apps/rDock/src/rDock_2013.1_src/data/scripts/dock_solv.prm

>  <Rbt.Receptor>
prm/pocket_docking_4.prm

>  <SCORE>
-11.2178

>  <SCORE.INTER>
-10.3097

>  <SCORE.INTER.CONST>
1

>  <SCORE.INTER.POLAR>
0

>  <SCORE.INTER.ROT>
7

>  <SCORE.INTER.SOLV>
14.0436

>  <SCORE.INTER.VDW>
-19.821

>  <SCORE.INTER.norm>
-0.38184

>  <SCORE.INTRA>
-0.911527

>  <SCORE.INTRA.DIHEDRAL>
-0.383388

>  <SCORE.INTRA.DIHEDRAL.0>
10.4103

>  <SCORE.INTRA.POLAR>
0

>  <SCORE.INTRA.POLAR.0>
0

>  <SCORE.INTRA.REPUL>
0

>  <SCORE.INTRA.REPUL.0>
0

>  <SCORE.INTRA.SOLV>
1.05956

>  <SCORE.INTRA.SOLV.lig_0>
-49.5008

>  <SCORE.INTRA.VDW>
-1.24961

>  <SCORE.INTRA.VDW.0>
-2.6946

>  <SCORE.INTRA.norm>
-0.0337602

>  <SCORE.RESTR>
0.00339829

>  <SCORE.RESTR.CAVITY>
0.00339829

>  <SCORE.RESTR.norm>
0.000125862

>  <SCORE.SYSTEM>
0

>  <SCORE.SYSTEM.CONST>
0

>  <SCORE.SYSTEM.DIHEDRAL>
0

>  <SCORE.SYSTEM.SOLV>
0

>  <SCORE.SYSTEM.norm>
0

>  <SCORE.heavy>
27

>  <SCORE.norm>
-0.415474

>  <RMSD>
5.027

$$$$
ligand
 OpenBabel02271912153D
libRbt.so/2013.1/901 2013/11/27
 27 29  0  0  0  0  0  0  0  0999 V2000
   -2.0108  -12.5361   15.6929 N   0  0  0  0  0  0  0  0  0  0  0  0
   -2.0197  -12.3160   17.1267 C   0  0  2  0  0  0  0  0  0  0  0  0
   -3.3946  -11.8518   17.4974 C   0  0  0  0  0  0  0  0  0  0  0  0
   -3.7097  -11.7814   18.7049 O   0  0  0  0  0  0  0  0  0  0  0  0
   -0.9804  -11.2600   17.5125 C   0  0  0  0  0  0  0  0  0  0  0  0
   -1.1865   -9.9487   16.7222 C   0  0  0  0  0  0  0  0  0  0  0  0
   -2.5272   -9.0413   17.1629 S   0  0  2  0  0  0  0  0  0  0  0  0
   -2.6227   -7.6939   16.1965 C   0  0  0  0  0  0  0  0  0  0  0  0
   -2.4096   -8.6031   18.7885 C   0  0  0  0  0  0  0  0  0  0  0  0
   -3.7053   -8.0023   19.3733 C   0  0  1  0  0  0  0  0  0  0  0  0
   -4.8948   -8.6641   18.9118 O   0  0  0  0  0  0  0  0  0  0  0  0
   -3.8219   -8.1589   20.8809 C   0  0  1  0  0  0  0  0  0  0  0  0
   -3.0082   -7.2972   21.7019 O   0  0  0  0  0  0  0  0  0  0  0  0
   -5.3053   -7.9547   21.0653 C   0  0  1  0  0  0  0  0  0  0  0  0
   -5.6385   -6.5838   20.8689 O   0  0  0  0  0  0  0  0  0  0  0  0
   -5.8831   -8.7614   19.9402 C   0  0  2  0  0  0  0  0  0  0  0  0
   -4.1941  -11.5123   16.5926 O   0  0  0  0  0  0  0  0  0  0  0  0
   -4.3102  -13.3674   22.0819 N   0  0  0  0  0  0  0  0  0  0  0  0
   -3.6033  -12.2258   21.8985 C   0  0  0  0  0  0  0  0  0  0  0  0
   -4.1300  -11.1275   21.3313 N   0  0  0  0  0  0  0  0  0  0  0  0
   -5.4042  -11.0833   20.9266 C   0  0  0  0  0  0  0  0  0  0  0  0
   -6.2221  -12.2716   21.1171 C   0  0  0  0  0  0  0  0  0  0  0  0
   -5.6282  -13.4839   21.7268 C   0  0  0  0  0  0  0  0  0  0  0  0
   -6.3518  -14.6410   21.9278 N   0  0  0  0  0  0  0  0  0  0  0  0
   -7.4127  -11.9630   20.6554 N   0  0  0  0  0  0  0  0  0  0  0  0
   -7.3849  -10.7077   20.1869 C   0  0  0  0  0  0  0  0  0  0  0  0
   -6.1778  -10.1681   20.3517 N   0  0  0  0  0  0  0  0  0  0  0  0
  2  1  1  6  0  0  0
  2  3  1  0  0  0  0
  2  5  1  0  0  0  0
  3  4  1  0  0  0  0
  3 17  1  0  0  0  0
  5  6  1  0  0  0  0
  7  6  1  6  0  0  0
  7  8  1  0  0  0  0
  7  9  1  0  0  0  0
 10  9  1  6  0  0  0
 10 11  1  0  0  0  0
 10 12  1  0  0  0  0
 11 16  1  0  0  0  0
 12 13  1  1  0  0  0
 12 14  1  0  0  0  0
 14 15  1  6  0  0  0
 14 16  1  0  0  0  0
 16 27  1  1  0  0  0
 18 19  2  0  0  0  0
 18 23  1  0  0  0  0
 19 20  1  0  0  0  0
 20 21  2  0  0  0  0
 21 22  1  0  0  0  0
 21 27  1  0  0  0  0
 22 23  2  0  0  0  0
 22 25  1  0  0  0  0
 23 24  1  0  0  0  0
 25 26  2  0  0  0  0
 26 27  1  0  0  0  0
M  END
>  <CHROM.1>
169.67066276,54.69281789,71.88192914,-178.56210388,-168.85210019,39.57146677
64.06400008,-4.10739855,-10.34773529,19.36043591,-0.31046457,-0.90134444
-3.05294329

>  <Name>
ligand

>  <RI>
0

>  <Rbt.Current_Directory>
/home/itssahil/PROJECTS/Mol_Feturizer/Test_systems_manuscript/rnas/4kqy

>  <Rbt.Executable>
rbdock ($Id: //depot/dev/client3/rdock/2013.1/src/exe/rbdock.cxx#4 $)

>  <Rbt.Library>
libRbt.so (2013.1, Build901 2013/11/27)

>  <Rbt.Parameter_File>
/export/apps/rDock/src/rDock_2013.1_src/data/scripts/dock_solv.prm

>  <Rbt.Receptor>
prm/pocket_docking_5.prm

>  <SCORE>
-20.5365

>  <SCORE.INTER>
-16.7899

>  <SCORE.INTER.CONST>
1

>  <SCORE.INTER.POLAR>
0

>  <SCORE.INTER.ROT>
7

>  <SCORE.INTER.SOLV>
14.0079

>  <SCORE.INTER.VDW>
-24.1292

>  <SCORE.INTER.norm>
-0.621849

>  <SCORE.INTRA>
-3.74655

>  <SCORE.INTRA.DIHEDRAL>
-5.42327

>  <SCORE.INTRA.DIHEDRAL.0>
10.4103

>  <SCORE.INTRA.POLAR>
0

>  <SCORE.INTRA.POLAR.0>
0

>  <SCORE.INTRA.REPUL>
0

>  <SCORE.INTRA.REPUL.0>
0

>  <SCORE.INTRA.SOLV>
0.900294

>  <SCORE.INTRA.SOLV.lig_0>
-49.5008

>  <SCORE.INTRA.VDW>
-1.48506

>  <SCORE.INTRA.VDW.0>
-2.6946

>  <SCORE.INTRA.norm>
-0.138761

>  <SCORE.RESTR>
0

>  <SCORE.RESTR.CAVITY>
0

>  <SCORE.RESTR.norm>
0

>  <SCORE.SYSTEM>
0

>  <SCORE.SYSTEM.CONST>
0

>  <SCORE.SYSTEM.DIHEDRAL>
0

>  <SCORE.SYSTEM.SOLV>
0

>  <SCORE.SYSTEM.norm>
0

>  <SCORE.heavy>
27

>  <SCORE.norm>
-0.76061

>  <RMSD>
5.032

$$$$
ligand
 OpenBabel02271912153D
libRbt.so/2013.1/901 2013/11/27
 27 29  0  0  0  0  0  0  0  0999 V2000
   -3.9305  -11.8272   16.8285 N   0  0  0  0  0  0  0  0  0  0  0  0
   -2.6737  -11.9973   17.5327 C   0  0  2  0  0  0  0  0  0  0  0  0
   -1.9061  -13.0688   16.8213 C   0  0  0  0  0  0  0  0  0  0  0  0
   -2.5260  -14.0271   16.3118 O   0  0  0  0  0  0  0  0  0  0  0  0
   -2.9260  -12.4014   18.9878 C   0  0  0  0  0  0  0  0  0  0  0  0
   -3.4555  -11.2130   19.8208 C   0  0  0  0  0  0  0  0  0  0  0  0
   -4.2178  -11.6202   21.2590 S   0  0  2  0  0  0  0  0  0  0  0  0
   -5.7951  -12.0372   20.9479 C   0  0  0  0  0  0  0  0  0  0  0  0
   -4.1445  -10.3189   22.3313 C   0  0  0  0  0  0  0  0  0  0  0  0
   -4.5381   -8.9646   21.7045 C   0  0  1  0  0  0  0  0  0  0  0  0
   -3.4276   -8.2714   21.1110 O   0  0  0  0  0  0  0  0  0  0  0  0
   -5.4941   -9.0932   20.5296 C   0  0  1  0  0  0  0  0  0  0  0  0
   -6.8717   -9.3981   20.8260 O   0  0  0  0  0  0  0  0  0  0  0  0
   -5.2950   -7.7537   19.8645 C   0  0  1  0  0  0  0  0  0  0  0  0
   -5.8983   -6.7259   20.6446 O   0  0  0  0  0  0  0  0  0  0  0  0
   -3.8048   -7.5892   19.9127 C   0  0  2  0  0  0  0  0  0  0  0  0
   -0.6597  -12.9698   16.7220 O   0  0  0  0  0  0  0  0  0  0  0  0
   -4.0005   -8.9281   14.7702 N   0  0  0  0  0  0  0  0  0  0  0  0
   -4.9759   -8.4090   15.5549 C   0  0  0  0  0  0  0  0  0  0  0  0
   -4.7886   -8.1222   16.8541 N   0  0  0  0  0  0  0  0  0  0  0  0
   -3.6096   -8.3129   17.4567 C   0  0  0  0  0  0  0  0  0  0  0  0
   -2.5151   -8.8473   16.6607 C   0  0  0  0  0  0  0  0  0  0  0  0
   -2.7357   -9.1775   15.2336 C   0  0  0  0  0  0  0  0  0  0  0  0
   -1.7387   -9.6913   14.4307 N   0  0  0  0  0  0  0  0  0  0  0  0
   -1.4862   -8.9229   17.4741 N   0  0  0  0  0  0  0  0  0  0  0  0
   -1.8620   -8.5030   18.6900 C   0  0  0  0  0  0  0  0  0  0  0  0
   -3.1407   -8.1281   18.6865 N   0  0  0  0  0  0  0  0  0  0  0  0
  2  1  1  6  0  0  0
  2  3  1  0  0  0  0
  2  5  1  0  0  0  0
  3  4  1  0  0  0  0
  3 17  1  0  0  0  0
  5  6  1  0  0  0  0
  7  6  1  6  0  0  0
  7  8  1  0  0  0  0
  7  9  1  0  0  0  0
 10  9  1  6  0  0  0
 10 11  1  0  0  0  0
 10 12  1  0  0  0  0
 11 16  1  0  0  0  0
 12 13  1  1  0  0  0
 12 14  1  0  0  0  0
 14 15  1  1  0  0  0
 14 16  1  0  0  0  0
 16 27  1  6  0  0  0
 18 19  2  0  0  0  0
 18 23  1  0  0  0  0
 19 20  1  0  0  0  0
 20 21  2  0  0  0  0
 21 22  1  0  0  0  0
 21 27  1  0  0  0  0
 22 23  2  0  0  0  0
 22 25  1  0  0  0  0
 23 24  1  0  0  0  0
 25 26  2  0  0  0  0
 26 27  1  0  0  0  0
M  END
>  <CHROM.1>
-34.99392125,-73.10962353,161.37964725,-82.45861942,47.30571397,-88.80834882
141.29864102,-3.69588782,-9.98602254,18.63152300,-0.24069963,-1.09241640
2.49524829

>  <Name>
ligand

>  <RI>
0

>  <Rbt.Current_Directory>
/home/itssahil/PROJECTS/Mol_Feturizer/Test_systems_manuscript/rnas/4kqy

>  <Rbt.Executable>
rbdock ($Id: //depot/dev/client3/rdock/2013.1/src/exe/rbdock.cxx#4 $)

>  <Rbt.Library>
libRbt.so (2013.1, Build901 2013/11/27)

>  <Rbt.Parameter_File>
/export/apps/rDock/src/rDock_2013.1_src/data/scripts/dock_solv.prm

>  <Rbt.Receptor>
prm/pocket_docking_2.prm

>  <SCORE>
-10.9654

>  <SCORE.INTER>
-14.5505

>  <SCORE.INTER.CONST>
1

>  <SCORE.INTER.POLAR>
0

>  <SCORE.INTER.ROT>
7

>  <SCORE.INTER.SOLV>
10.1943

>  <SCORE.INTER.VDW>
-21.3651

>  <SCORE.INTER.norm>
-0.538908

>  <SCORE.INTRA>
1.6443

>  <SCORE.INTRA.DIHEDRAL>
-1.2997

>  <SCORE.INTRA.DIHEDRAL.0>
10.4103

>  <SCORE.INTRA.POLAR>
0

>  <SCORE.INTRA.POLAR.0>
0

>  <SCORE.INTRA.REPUL>
0

>  <SCORE.INTRA.REPUL.0>
0

>  <SCORE.INTRA.SOLV>
4.06302

>  <SCORE.INTRA.SOLV.lig_0>
-49.5008

>  <SCORE.INTRA.VDW>
0.262636

>  <SCORE.INTRA.VDW.0>
-2.6946

>  <SCORE.INTRA.norm>
0.0608998

>  <SCORE.RESTR>
1.94083

>  <SCORE.RESTR.CAVITY>
1.94083

>  <SCORE.RESTR.norm>
0.0718824

>  <SCORE.SYSTEM>
0

>  <SCORE.SYSTEM.CONST>
0

>  <SCORE.SYSTEM.DIHEDRAL>
0

>  <SCORE.SYSTEM.SOLV>
0

>  <SCORE.SYSTEM.norm>
0

>  <SCORE.heavy>
27

>  <SCORE.norm>
-0.406126

>  <RMSD>
5.034

$$$$
ligand
 OpenBabel02271912153D
libRbt.so/2013.1/901 2013/11/27
 27 29  0  0  0  0  0  0  0  0999 V2000
    0.6853  -11.3374   15.7769 N   0  0  0  0  0  0  0  0  0  0  0  0
   -0.3139  -12.2191   16.3501 C   0  0  2  0  0  0  0  0  0  0  0  0
   -1.4065  -12.3720   15.3373 C   0  0  0  0  0  0  0  0  0  0  0  0
   -1.6925  -11.4056   14.5980 O   0  0  0  0  0  0  0  0  0  0  0  0
   -0.8706  -11.6255   17.6470 C   0  0  0  0  0  0  0  0  0  0  0  0
   -1.4394  -10.2071   17.4210 C   0  0  0  0  0  0  0  0  0  0  0  0
   -2.7076   -9.7672   18.4277 S   0  0  2  0  0  0  0  0  0  0  0  0
   -4.0362  -10.7017   18.0808 C   0  0  0  0  0  0  0  0  0  0  0  0
   -3.0587   -8.1295   18.2198 C   0  0  0  0  0  0  0  0  0  0  0  0
   -4.1923   -7.6090   19.1286 C   0  0  1  0  0  0  0  0  0  0  0  0
   -5.4608   -8.2310   18.8639 O   0  0  0  0  0  0  0  0  0  0  0  0
   -3.9861   -7.9271   20.6007 C   0  0  1  0  0  0  0  0  0  0  0  0
   -3.0055   -7.1490   21.3162 O   0  0  0  0  0  0  0  0  0  0  0  0
   -5.3933   -7.7603   21.1185 C   0  0  1  0  0  0  0  0  0  0  0  0
   -5.7442   -6.3800   21.1453 O   0  0  0  0  0  0  0  0  0  0  0  0
   -6.2077   -8.4485   20.0633 C   0  0  2  0  0  0  0  0  0  0  0  0
   -1.9933  -13.4750   15.2271 O   0  0  0  0  0  0  0  0  0  0  0  0
   -4.4329  -13.0613   22.0250 N   0  0  0  0  0  0  0  0  0  0  0  0
   -3.7991  -11.8659   21.9486 C   0  0  0  0  0  0  0  0  0  0  0  0
   -4.3703  -10.7726   21.4158 N   0  0  0  0  0  0  0  0  0  0  0  0
   -5.6208  -10.7891   20.9411 C   0  0  0  0  0  0  0  0  0  0  0  0
   -6.3623  -12.0390   21.0154 C   0  0  0  0  0  0  0  0  0  0  0  0
   -5.7184  -13.2438   21.5880 C   0  0  0  0  0  0  0  0  0  0  0  0
   -6.3687  -14.4569   21.6800 N   0  0  0  0  0  0  0  0  0  0  0  0
   -7.5450  -11.7830   20.5040 N   0  0  0  0  0  0  0  0  0  0  0  0
   -7.5802  -10.5024   20.1106 C   0  0  0  0  0  0  0  0  0  0  0  0
   -6.4246   -9.8943   20.3757 N   0  0  0  0  0  0  0  0  0  0  0  0
  2  1  1  6  0  0  0
  2  3  1  0  0  0  0
  2  5  1  0  0  0  0
  3  4  1  0  0  0  0
  3 17  1  0  0  0  0
  5  6  1  0  0  0  0
  7  6  1  6  0  0  0
  7  8  1  0  0  0  0
  7  9  1  0  0  0  0
 10  9  1  6  0  0  0
 10 11  1  0  0  0  0
 10 12  1  0  0  0  0
 11 16  1  0  0  0  0
 12 13  1  1  0  0  0
 12 14  1  0  0  0  0
 14 15  1  6  0  0  0
 14 16  1  0  0  0  0
 16 27  1  1  0  0  0
 18 19  2  0  0  0  0
 18 23  1  0  0  0  0
 19 20  1  0  0  0  0
 20 21  2  0  0  0  0
 21 22  1  0  0  0  0
 21 27  1  0  0  0  0
 22 23  2  0  0  0  0
 22 25  1  0  0  0  0
 23 24  1  0  0  0  0
 25 26  2  0  0  0  0
 26 27  1  0  0  0  0
M  END
>  <CHROM.1>
-33.96526065,55.79113617,149.96141232,-66.84917233,-178.53937595,-63.53023355
80.36171343,-3.93336056,-10.40587506,19.19446240,-0.31166064,0.79461700,0.08912266

>  <Name>
ligand

>  <RI>
0

>  <Rbt.Current_Directory>
/home/itssahil/PROJECTS/Mol_Feturizer/Test_systems_manuscript/rnas/4kqy

>  <Rbt.Executable>
rbdock ($Id: //depot/dev/client3/rdock/2013.1/src/exe/rbdock.cxx#4 $)

>  <Rbt.Library>
libRbt.so (2013.1, Build901 2013/11/27)

>  <Rbt.Parameter_File>
/export/apps/rDock/src/rDock_2013.1_src/data/scripts/dock_solv.prm

>  <Rbt.Receptor>
prm/pocket_docking_6.prm

>  <SCORE>
-17.6834

>  <SCORE.INTER>
-15.0524

>  <SCORE.INTER.CONST>
1

>  <SCORE.INTER.POLAR>
0

>  <SCORE.INTER.ROT>
7

>  <SCORE.INTER.SOLV>
15.9059

>  <SCORE.INTER.VDW>
-23.6036

>  <SCORE.INTER.norm>
-0.557498

>  <SCORE.INTRA>
-2.63097

>  <SCORE.INTRA.DIHEDRAL>
-4.55572

>  <SCORE.INTRA.DIHEDRAL.0>
10.4103

>  <SCORE.INTRA.POLAR>
0

>  <SCORE.INTRA.POLAR.0>
0

>  <SCORE.INTRA.REPUL>
0

>  <SCORE.INTRA.REPUL.0>
0

>  <SCORE.INTRA.SOLV>
0.397163

>  <SCORE.INTRA.SOLV.lig_0>
-49.5008

>  <SCORE.INTRA.VDW>
-0.551693

>  <SCORE.INTRA.VDW.0>
-2.6946

>  <SCORE.INTRA.norm>
-0.0974434

>  <SCORE.RESTR>
0

>  <SCORE.RESTR.CAVITY>
0

>  <SCORE.RESTR.norm>
0

>  <SCORE.SYSTEM>
0

>  <SCORE.SYSTEM.CONST>
0

>  <SCORE.SYSTEM.DIHEDRAL>
0

>  <SCORE.SYSTEM.SOLV>
0

>  <SCORE.SYSTEM.norm>
0

>  <SCORE.heavy>
27

>  <SCORE.norm>
-0.654941

>  <RMSD>
5.037

$$$$
ligand
 OpenBabel02271912153D
libRbt.so/2013.1/901 2013/11/27
 27 29  0  0  0  0  0  0  0  0999 V2000
   -2.3005  -14.0693   16.6528 N   0  0  0  0  0  0  0  0  0  0  0  0
   -2.1476  -12.6945   17.0897 C   0  0  2  0  0  0  0  0  0  0  0  0
   -3.1859  -12.4428   18.1393 C   0  0  0  0  0  0  0  0  0  0  0  0
   -4.3602  -12.1969   17.7891 O   0  0  0  0  0  0  0  0  0  0  0  0
   -2.3386  -11.7345   15.9123 C   0  0  0  0  0  0  0  0  0  0  0  0
   -1.7654  -10.3346   16.2258 C   0  0  0  0  0  0  0  0  0  0  0  0
   -2.6929   -9.3865   17.2535 S   0  0  2  0  0  0  0  0  0  0  0  0
   -2.5019   -7.7867   16.8497 C   0  0  0  0  0  0  0  0  0  0  0  0
   -2.2289   -9.6581   18.8533 C   0  0  0  0  0  0  0  0  0  0  0  0
   -3.1023   -8.9264   19.8943 C   0  0  1  0  0  0  0  0  0  0  0  0
   -4.4888   -8.8570   19.5216 O   0  0  0  0  0  0  0  0  0  0  0  0
   -3.1717   -9.6364   21.2367 C   0  0  1  0  0  0  0  0  0  0  0  0
   -2.0147   -9.5506   22.0927 O   0  0  0  0  0  0  0  0  0  0  0  0
   -4.4106   -9.0030   21.8198 C   0  0  1  0  0  0  0  0  0  0  0  0
   -4.1407   -7.6556   22.1948 O   0  0  0  0  0  0  0  0  0  0  0  0
   -5.3518   -9.0033   20.6518 C   0  0  2  0  0  0  0  0  0  0  0  0
   -2.8664  -12.5140   19.3501 O   0  0  0  0  0  0  0  0  0  0  0  0
   -5.9294  -14.2169   21.5239 N   0  0  0  0  0  0  0  0  0  0  0  0
   -4.8525  -13.4270   21.7539 C   0  0  0  0  0  0  0  0  0  0  0  0
   -4.8421  -12.1125   21.4762 N   0  0  0  0  0  0  0  0  0  0  0  0
   -5.9117  -11.4890   20.9697 C   0  0  0  0  0  0  0  0  0  0  0  0
   -7.1079  -12.2794   20.7212 C   0  0  0  0  0  0  0  0  0  0  0  0
   -7.1045  -13.7316   21.0135 C   0  0  0  0  0  0  0  0  0  0  0  0
   -8.2057  -14.5328   20.7940 N   0  0  0  0  0  0  0  0  0  0  0  0
   -7.9985  -11.4388   20.2457 N   0  0  0  0  0  0  0  0  0  0  0  0
   -7.4464  -10.2203   20.1656 C   0  0  0  0  0  0  0  0  0  0  0  0
   -6.1888  -10.2412   20.6057 N   0  0  0  0  0  0  0  0  0  0  0  0
  2  1  1  6  0  0  0
  2  3  1  0  0  0  0
  2  5  1  0  0  0  0
  3  4  1  0  0  0  0
  3 17  1  0  0  0  0
  5  6  1  0  0  0  0
  7  6  1  6  0  0  0
  7  8  1  0  0  0  0
  7  9  1  0  0  0  0
 10  9  1  6  0  0  0
 10 11  1  0  0  0  0
 10 12  1  0  0  0  0
 11 16  1  0  0  0  0
 12 13  1  1  0  0  0
 12 14  1  0  0  0  0
 14 15  1  6  0  0  0
 14 16  1  0  0  0  0
 16 27  1  6  0  0  0
 18 19  2  0  0  0  0
 18 23  1  0  0  0  0
 19 20  1  0  0  0  0
 20 21  2  0  0  0  0
 21 22  1  0  0  0  0
 21 27  1  0  0  0  0
 22 23  2  0  0  0  0
 22 25  1  0  0  0  0
 23 24  1  0  0  0  0
 25 26  2  0  0  0  0
 26 27  1  0  0  0  0
M  END
>  <CHROM.1>
-80.18372743,-162.39949312,-75.82960872,-148.16286789,-174.96184054,35.97910276
83.96447812,-4.25203836,-10.94776380,19.52297078,-0.01234632,-0.79597409
-2.60057513

>  <Name>
ligand

>  <RI>
0

>  <Rbt.Current_Directory>
/home/itssahil/PROJECTS/Mol_Feturizer/Test_systems_manuscript/rnas/4kqy

>  <Rbt.Executable>
rbdock ($Id: //depot/dev/client3/rdock/2013.1/src/exe/rbdock.cxx#4 $)

>  <Rbt.Library>
libRbt.so (2013.1, Build901 2013/11/27)

>  <Rbt.Parameter_File>
/export/apps/rDock/src/rDock_2013.1_src/data/scripts/dock_solv.prm

>  <Rbt.Receptor>
prm/pocket_docking_5.prm

>  <SCORE>
-16.3346

>  <SCORE.INTER>
-13.5592

>  <SCORE.INTER.CONST>
1

>  <SCORE.INTER.POLAR>
0

>  <SCORE.INTER.ROT>
7

>  <SCORE.INTER.SOLV>
14.3966

>  <SCORE.INTER.VDW>
-22.105

>  <SCORE.INTER.norm>
-0.502192

>  <SCORE.INTRA>
-2.77541

>  <SCORE.INTRA.DIHEDRAL>
-1.30603

>  <SCORE.INTRA.DIHEDRAL.0>
10.4103

>  <SCORE.INTRA.POLAR>
0

>  <SCORE.INTRA.POLAR.0>
0

>  <SCORE.INTRA.REPUL>
0

>  <SCORE.INTRA.REPUL.0>
0

>  <SCORE.INTRA.SOLV>
-0.40832

>  <SCORE.INTRA.SOLV.lig_0>
-49.5008

>  <SCORE.INTRA.VDW>
-1.91824

>  <SCORE.INTRA.VDW.0>
-2.6946

>  <SCORE.INTRA.norm>
-0.102793

>  <SCORE.RESTR>
0

>  <SCORE.RESTR.CAVITY>
0

>  <SCORE.RESTR.norm>
0

>  <SCORE.SYSTEM>
0

>  <SCORE.SYSTEM.CONST>
0

>  <SCORE.SYSTEM.DIHEDRAL>
0

>  <SCORE.SYSTEM.SOLV>
0

>  <SCORE.SYSTEM.norm>
0

>  <SCORE.heavy>
27

>  <SCORE.norm>
-0.604985

>  <RMSD>
5.051

$$$$
ligand
 OpenBabel02271912153D
libRbt.so/2013.1/901 2013/11/27
 27 29  0  0  0  0  0  0  0  0999 V2000
   -1.2052  -13.6876   17.1416 N   0  0  0  0  0  0  0  0  0  0  0  0
   -1.7450  -12.3637   16.8966 C   0  0  2  0  0  0  0  0  0  0  0  0
   -1.8274  -12.1841   15.4120 C   0  0  0  0  0  0  0  0  0  0  0  0
   -2.8331  -11.6288   14.9197 O   0  0  0  0  0  0  0  0  0  0  0  0
   -0.8386  -11.2939   17.5117 C   0  0  0  0  0  0  0  0  0  0  0  0
   -1.4504   -9.8829   17.3663 C   0  0  0  0  0  0  0  0  0  0  0  0
   -2.7404   -9.5450   18.3845 S   0  0  2  0  0  0  0  0  0  0  0  0
   -4.0236  -10.5238   17.9918 C   0  0  0  0  0  0  0  0  0  0  0  0
   -3.1659   -7.9178   18.2448 C   0  0  0  0  0  0  0  0  0  0  0  0
   -4.2766   -7.4722   19.2193 C   0  0  1  0  0  0  0  0  0  0  0  0
   -5.5333   -8.1289   18.9838 O   0  0  0  0  0  0  0  0  0  0  0  0
   -3.9967   -7.8370   20.6682 C   0  0  1  0  0  0  0  0  0  0  0  0
   -3.0135   -7.0515   21.3717 O   0  0  0  0  0  0  0  0  0  0  0  0
   -5.3853   -7.7400   21.2500 C   0  0  1  0  0  0  0  0  0  0  0  0
   -5.7817   -6.3751   21.3446 O   0  0  0  0  0  0  0  0  0  0  0  0
   -6.2202   -8.4173   20.2039 C   0  0  2  0  0  0  0  0  0  0  0  0
   -0.8733  -12.5650   14.6923 O   0  0  0  0  0  0  0  0  0  0  0  0
   -4.2846  -12.9892   22.1085 N   0  0  0  0  0  0  0  0  0  0  0  0
   -3.7107  -11.7617   22.0884 C   0  0  0  0  0  0  0  0  0  0  0  0
   -4.3171  -10.6838   21.5634 N   0  0  0  0  0  0  0  0  0  0  0  0
   -5.5467  -10.7496   21.0408 C   0  0  0  0  0  0  0  0  0  0  0  0
   -6.2253  -12.0368   21.0532 C   0  0  0  0  0  0  0  0  0  0  0  0
   -5.5420  -13.2236   21.6178 C   0  0  0  0  0  0  0  0  0  0  0  0
   -6.1321  -14.4700   21.6524 N   0  0  0  0  0  0  0  0  0  0  0  0
   -7.3999  -11.8261   20.5038 N   0  0  0  0  0  0  0  0  0  0  0  0
   -7.4862  -10.5382   20.1436 C   0  0  0  0  0  0  0  0  0  0  0  0
   -6.3740   -9.8806   20.4691 N   0  0  0  0  0  0  0  0  0  0  0  0
  2  1  1  6  0  0  0
  2  3  1  0  0  0  0
  2  5  1  0  0  0  0
  3  4  1  0  0  0  0
  3 17  1  0  0  0  0
  5  6  1  0  0  0  0
  7  6  1  6  0  0  0
  7  8  1  0  0  0  0
  7  9  1  0  0  0  0
 10  9  1  6  0  0  0
 10 11  1  0  0  0  0
 10 12  1  0  0  0  0
 11 16  1  0  0  0  0
 12 13  1  1  0  0  0
 12 14  1  0  0  0  0
 14 15  1  6  0  0  0
 14 16  1  0  0  0  0
 16 27  1  1  0  0  0
 18 19  2  0  0  0  0
 18 23  1  0  0  0  0
 19 20  1  0  0  0  0
 20 21  2  0  0  0  0
 21 22  1  0  0  0  0
 21 27  1  0  0  0  0
 22 23  2  0  0  0  0
 22 25  1  0  0  0  0
 23 24  1  0  0  0  0
 25 26  2  0  0  0  0
 26 27  1  0  0  0  0
M  END
>  <CHROM.1>
138.73139966,-175.30523073,74.21114675,-65.48486653,-175.63417278,-64.07080025
85.06716138,-4.03590017,-10.37890014,19.29312482,0.39445842,-0.86922182,-3.09815080

>  <Name>
ligand

>  <RI>
0

>  <Rbt.Current_Directory>
/home/itssahil/PROJECTS/Mol_Feturizer/Test_systems_manuscript/rnas/4kqy

>  <Rbt.Executable>
rbdock ($Id: //depot/dev/client3/rdock/2013.1/src/exe/rbdock.cxx#4 $)

>  <Rbt.Library>
libRbt.so (2013.1, Build901 2013/11/27)

>  <Rbt.Parameter_File>
/export/apps/rDock/src/rDock_2013.1_src/data/scripts/dock_solv.prm

>  <Rbt.Receptor>
prm/pocket_docking_6.prm

>  <SCORE>
-18.8269

>  <SCORE.INTER>
-14.8035

>  <SCORE.INTER.CONST>
1

>  <SCORE.INTER.POLAR>
0

>  <SCORE.INTER.ROT>
7

>  <SCORE.INTER.SOLV>
16.8638

>  <SCORE.INTER.VDW>
-23.7569

>  <SCORE.INTER.norm>
-0.548277

>  <SCORE.INTRA>
-4.02342

>  <SCORE.INTRA.DIHEDRAL>
-6.67584

>  <SCORE.INTRA.DIHEDRAL.0>
10.4103

>  <SCORE.INTRA.POLAR>
0

>  <SCORE.INTRA.POLAR.0>
0

>  <SCORE.INTRA.REPUL>
0

>  <SCORE.INTRA.REPUL.0>
0

>  <SCORE.INTRA.SOLV>
0.0739506

>  <SCORE.INTRA.SOLV.lig_0>
-49.5008

>  <SCORE.INTRA.VDW>
-0.722477

>  <SCORE.INTRA.VDW.0>
-2.6946

>  <SCORE.INTRA.norm>
-0.149016

>  <SCORE.RESTR>
0

>  <SCORE.RESTR.CAVITY>
0

>  <SCORE.RESTR.norm>
0

>  <SCORE.SYSTEM>
0

>  <SCORE.SYSTEM.CONST>
0

>  <SCORE.SYSTEM.DIHEDRAL>
0

>  <SCORE.SYSTEM.SOLV>
0

>  <SCORE.SYSTEM.norm>
0

>  <SCORE.heavy>
27

>  <SCORE.norm>
-0.697293

>  <RMSD>
5.055

$$$$
ligand
 OpenBabel02271912153D
libRbt.so/2013.1/901 2013/11/27
 27 29  0  0  0  0  0  0  0  0999 V2000
   -2.1069  -12.0899   13.6695 N   0  0  0  0  0  0  0  0  0  0  0  0
   -2.4477  -11.2921   14.8320 C   0  0  2  0  0  0  0  0  0  0  0  0
   -3.6813  -10.5138   14.4919 C   0  0  0  0  0  0  0  0  0  0  0  0
   -4.6145  -10.4566   15.3215 O   0  0  0  0  0  0  0  0  0  0  0  0
   -1.3000  -10.3417   15.1840 C   0  0  0  0  0  0  0  0  0  0  0  0
   -1.3890   -9.8671   16.6514 C   0  0  0  0  0  0  0  0  0  0  0  0
   -2.6818   -8.8589   17.0087 S   0  0  2  0  0  0  0  0  0  0  0  0
   -2.5928   -7.4937   16.0669 C   0  0  0  0  0  0  0  0  0  0  0  0
   -2.6549   -8.4566   18.6476 C   0  0  0  0  0  0  0  0  0  0  0  0
   -3.9501   -7.7858   19.1519 C   0  0  1  0  0  0  0  0  0  0  0  0
   -5.1431   -8.3971   18.6334 O   0  0  0  0  0  0  0  0  0  0  0  0
   -4.1567   -7.9138   20.6525 C   0  0  1  0  0  0  0  0  0  0  0  0
   -3.3484   -7.0795   21.5066 O   0  0  0  0  0  0  0  0  0  0  0  0
   -5.6363   -7.6363   20.7516 C   0  0  1  0  0  0  0  0  0  0  0  0
   -5.8914   -6.2542   20.5198 O   0  0  0  0  0  0  0  0  0  0  0  0
   -6.1899   -8.4315   19.6064 C   0  0  2  0  0  0  0  0  0  0  0  0
   -3.7436   -9.9078   13.3955 O   0  0  0  0  0  0  0  0  0  0  0  0
   -9.2311  -12.7502   18.9935 N   0  0  0  0  0  0  0  0  0  0  0  0
   -9.2460  -11.5894   18.2944 C   0  0  0  0  0  0  0  0  0  0  0  0
   -8.4171  -10.5670   18.5644 N   0  0  0  0  0  0  0  0  0  0  0  0
   -7.5010  -10.6382   19.5365 C   0  0  0  0  0  0  0  0  0  0  0  0
   -7.4203  -11.8686   20.3091 C   0  0  0  0  0  0  0  0  0  0  0  0
   -8.3501  -12.9839   20.0163 C   0  0  0  0  0  0  0  0  0  0  0  0
   -8.3248  -14.1715   20.7176 N   0  0  0  0  0  0  0  0  0  0  0  0
   -6.4481  -11.6841   21.1733 N   0  0  0  0  0  0  0  0  0  0  0  0
   -5.9481  -10.4518   21.0080 C   0  0  0  0  0  0  0  0  0  0  0  0
   -6.5745   -9.8161   20.0185 N   0  0  0  0  0  0  0  0  0  0  0  0
  2  1  1  6  0  0  0
  2  3  1  0  0  0  0
  2  5  1  0  0  0  0
  3  4  1  0  0  0  0
  3 17  1  0  0  0  0
  5  6  1  0  0  0  0
  7  6  1  6  0  0  0
  7  8  1  0  0  0  0
  7  9  1  0  0  0  0
 10  9  1  6  0  0  0
 10 11  1  0  0  0  0
 10 12  1  0  0  0  0
 11 16  1  0  0  0  0
 12 13  1  1  0  0  0
 12 14  1  0  0  0  0
 14 15  1  6  0  0  0
 14 16  1  0  0  0  0
 16 27  1  1  0  0  0
 18 19  2  0  0  0  0
 18 23  1  0  0  0  0
 19 20  1  0  0  0  0
 20 21  2  0  0  0  0
 21 22  1  0  0  0  0
 21 27  1  0  0  0  0
 22 23  2  0  0  0  0
 22 25  1  0  0  0  0
 23 24  1  0  0  0  0
 25 26  2  0  0  0  0
 26 27  1  0  0  0  0
M  END
>  <CHROM.1>
134.81608803,-159.34268889,-68.07837267,-59.48012743,-167.67119943,41.82914365
-91.53139700,-4.96209064,-9.85141825,18.21712817,0.40379812,-0.67896963,-2.27149411

>  <Name>
ligand

>  <RI>
0

>  <Rbt.Current_Directory>
/home/itssahil/PROJECTS/Mol_Feturizer/Test_systems_manuscript/rnas/4kqy

>  <Rbt.Executable>
rbdock ($Id: //depot/dev/client3/rdock/2013.1/src/exe/rbdock.cxx#4 $)

>  <Rbt.Library>
libRbt.so (2013.1, Build901 2013/11/27)

>  <Rbt.Parameter_File>
/export/apps/rDock/src/rDock_2013.1_src/data/scripts/dock_solv.prm

>  <Rbt.Receptor>
prm/pocket_docking_7.prm

>  <SCORE>
-17.4675

>  <SCORE.INTER>
-15.3144

>  <SCORE.INTER.CONST>
1

>  <SCORE.INTER.POLAR>
0

>  <SCORE.INTER.ROT>
7

>  <SCORE.INTER.SOLV>
13.0652

>  <SCORE.INTER.VDW>
-22.8313

>  <SCORE.INTER.norm>
-0.567199

>  <SCORE.INTRA>
-2.15313

>  <SCORE.INTRA.DIHEDRAL>
-4.46358

>  <SCORE.INTRA.DIHEDRAL.0>
10.4103

>  <SCORE.INTRA.POLAR>
0

>  <SCORE.INTRA.POLAR.0>
0

>  <SCORE.INTRA.REPUL>
0

>  <SCORE.INTRA.REPUL.0>
0

>  <SCORE.INTRA.SOLV>
-0.51033

>  <SCORE.INTRA.SOLV.lig_0>
-49.5008

>  <SCORE.INTRA.VDW>
0.333825

>  <SCORE.INTRA.VDW.0>
-2.6946

>  <SCORE.INTRA.norm>
-0.0797456

>  <SCORE.RESTR>
0

>  <SCORE.RESTR.CAVITY>
0

>  <SCORE.RESTR.norm>
0

>  <SCORE.SYSTEM>
0

>  <SCORE.SYSTEM.CONST>
0

>  <SCORE.SYSTEM.DIHEDRAL>
0

>  <SCORE.SYSTEM.SOLV>
0

>  <SCORE.SYSTEM.norm>
0

>  <SCORE.heavy>
27

>  <SCORE.norm>
-0.646945

>  <RMSD>
5.060

$$$$
ligand
 OpenBabel02271912153D
libRbt.so/2013.1/901 2013/11/27
 27 29  0  0  0  0  0  0  0  0999 V2000
   -1.8598  -11.8965   13.5310 N   0  0  0  0  0  0  0  0  0  0  0  0
   -2.1996  -11.2635   14.7911 C   0  0  2  0  0  0  0  0  0  0  0  0
   -3.5363  -10.6111   14.6155 C   0  0  0  0  0  0  0  0  0  0  0  0
   -4.4291  -10.8107   15.4672 O   0  0  0  0  0  0  0  0  0  0  0  0
   -1.1444  -10.2200   15.1676 C   0  0  0  0  0  0  0  0  0  0  0  0
   -1.2768   -9.7897   16.6454 C   0  0  0  0  0  0  0  0  0  0  0  0
   -2.6272   -8.8636   17.0111 S   0  0  2  0  0  0  0  0  0  0  0  0
   -2.6113   -7.4794   16.0932 C   0  0  0  0  0  0  0  0  0  0  0  0
   -2.6328   -8.4888   18.6567 C   0  0  0  0  0  0  0  0  0  0  0  0
   -3.9304   -7.8093   19.1427 C   0  0  1  0  0  0  0  0  0  0  0  0
   -5.1206   -8.4210   18.6180 O   0  0  0  0  0  0  0  0  0  0  0  0
   -4.1519   -7.9235   20.6423 C   0  0  1  0  0  0  0  0  0  0  0  0
   -3.3490   -7.0847   21.4969 O   0  0  0  0  0  0  0  0  0  0  0  0
   -5.6314   -7.6402   20.7247 C   0  0  1  0  0  0  0  0  0  0  0  0
   -5.8794   -6.2593   20.4786 O   0  0  0  0  0  0  0  0  0  0  0  0
   -6.1767   -8.4434   19.5811 C   0  0  2  0  0  0  0  0  0  0  0  0
   -3.7262   -9.8518   13.6354 O   0  0  0  0  0  0  0  0  0  0  0  0
   -9.2110  -12.7660   18.9613 N   0  0  0  0  0  0  0  0  0  0  0  0
   -9.2122  -11.6129   18.2492 C   0  0  0  0  0  0  0  0  0  0  0  0
   -8.3872  -10.5883   18.5229 N   0  0  0  0  0  0  0  0  0  0  0  0
   -7.4887  -10.6496   19.5120 C   0  0  0  0  0  0  0  0  0  0  0  0
   -7.4231  -11.8716   20.2993 C   0  0  0  0  0  0  0  0  0  0  0  0
   -8.3487  -12.9892   20.0021 C   0  0  0  0  0  0  0  0  0  0  0  0
   -8.3372  -14.1690   20.7167 N   0  0  0  0  0  0  0  0  0  0  0  0
   -6.4664  -11.6784   21.1787 N   0  0  0  0  0  0  0  0  0  0  0  0
   -5.9622  -10.4485   21.0088 C   0  0  0  0  0  0  0  0  0  0  0  0
   -6.5702   -9.8231   20.0014 N   0  0  0  0  0  0  0  0  0  0  0  0
  2  1  1  6  0  0  0
  2  3  1  0  0  0  0
  2  5  1  0  0  0  0
  3  4  1  0  0  0  0
  3 17  1  0  0  0  0
  5  6  1  0  0  0  0
  7  6  1  1  0  0  0
  7  8  1  0  0  0  0
  7  9  1  0  0  0  0
 10  9  1  6  0  0  0
 10 11  1  0  0  0  0
 10 12  1  0  0  0  0
 11 16  1  0  0  0  0
 12 13  1  1  0  0  0
 12 14  1  0  0  0  0
 14 15  1  6  0  0  0
 14 16  1  0  0  0  0
 16 27  1  1  0  0  0
 18 19  2  0  0  0  0
 18 23  1  0  0  0  0
 19 20  1  0  0  0  0
 20 21  2  0  0  0  0
 21 22  1  0  0  0  0
 21 27  1  0  0  0  0
 22 23  2  0  0  0  0
 22 25  1  0  0  0  0
 23 24  1  0  0  0  0
 25 26  2  0  0  0  0
 26 27  1  0  0  0  0
M  END
>  <CHROM.1>
130.79258392,-165.65045601,-70.31852104,-58.83668075,-171.81855614,43.55787821
-91.01952362,-4.91339791,-9.85813245,18.22007340,0.37351518,-0.66969200,-2.29241348

>  <Name>
ligand

>  <RI>
0

>  <Rbt.Current_Directory>
/home/itssahil/PROJECTS/Mol_Feturizer/Test_systems_manuscript/rnas/4kqy

>  <Rbt.Executable>
rbdock ($Id: //depot/dev/client3/rdock/2013.1/src/exe/rbdock.cxx#4 $)

>  <Rbt.Library>
libRbt.so (2013.1, Build901 2013/11/27)

>  <Rbt.Parameter_File>
/export/apps/rDock/src/rDock_2013.1_src/data/scripts/dock_solv.prm

>  <Rbt.Receptor>
prm/pocket_docking_8.prm

>  <SCORE>
-18.1081

>  <SCORE.INTER>
-15.5356

>  <SCORE.INTER.CONST>
1

>  <SCORE.INTER.POLAR>
0

>  <SCORE.INTER.ROT>
7

>  <SCORE.INTER.SOLV>
12.7283

>  <SCORE.INTER.VDW>
-22.8665

>  <SCORE.INTER.norm>
-0.575392

>  <SCORE.INTRA>
-2.57251

>  <SCORE.INTRA.DIHEDRAL>
-5.51045

>  <SCORE.INTRA.DIHEDRAL.0>
10.4103

>  <SCORE.INTRA.POLAR>
0

>  <SCORE.INTRA.POLAR.0>
0

>  <SCORE.INTRA.REPUL>
0

>  <SCORE.INTRA.REPUL.0>
0

>  <SCORE.INTRA.SOLV>
-0.524127

>  <SCORE.INTRA.SOLV.lig_0>
-49.5008

>  <SCORE.INTRA.VDW>
0.444783

>  <SCORE.INTRA.VDW.0>
-2.6946

>  <SCORE.INTRA.norm>
-0.095278

>  <SCORE.RESTR>
0

>  <SCORE.RESTR.CAVITY>
0

>  <SCORE.RESTR.norm>
0

>  <SCORE.SYSTEM>
0

>  <SCORE.SYSTEM.CONST>
0

>  <SCORE.SYSTEM.DIHEDRAL>
0

>  <SCORE.SYSTEM.SOLV>
0

>  <SCORE.SYSTEM.norm>
0

>  <SCORE.heavy>
27

>  <SCORE.norm>
-0.67067

>  <RMSD>
5.061

$$$$
ligand
 OpenBabel02271912153D
libRbt.so/2013.1/901 2013/11/27
 27 29  0  0  0  0  0  0  0  0999 V2000
   -2.2004  -10.9308   12.3916 N   0  0  0  0  0  0  0  0  0  0  0  0
   -1.7438   -9.8117   13.1937 C   0  0  2  0  0  0  0  0  0  0  0  0
   -0.3104  -10.0696   13.5429 C   0  0  0  0  0  0  0  0  0  0  0  0
    0.5636   -9.2569   13.1713 O   0  0  0  0  0  0  0  0  0  0  0  0
   -2.5863   -9.6862   14.4660 C   0  0  0  0  0  0  0  0  0  0  0  0
   -2.1580   -8.4650   15.3095 C   0  0  0  0  0  0  0  0  0  0  0  0
   -2.2532   -8.6651   16.9727 S   0  0  2  0  0  0  0  0  0  0  0  0
   -1.3678   -9.9976   17.4191 C   0  0  0  0  0  0  0  0  0  0  0  0
   -3.8673   -8.8386   17.4345 C   0  0  0  0  0  0  0  0  0  0  0  0
   -4.1288   -8.5499   18.9278 C   0  0  1  0  0  0  0  0  0  0  0  0
   -5.5212   -8.6052   19.2798 O   0  0  0  0  0  0  0  0  0  0  0  0
   -3.5257   -9.5863   19.8622 C   0  0  1  0  0  0  0  0  0  0  0  0
   -2.0990   -9.5449   20.0661 O   0  0  0  0  0  0  0  0  0  0  0  0
   -4.3287   -9.3296   21.1134 C   0  0  1  0  0  0  0  0  0  0  0  0
   -3.9247   -8.1010   21.7104 O   0  0  0  0  0  0  0  0  0  0  0  0
   -5.7205   -9.1744   20.5760 C   0  0  2  0  0  0  0  0  0  0  0  0
   -0.0159  -11.0781   14.2279 O   0  0  0  0  0  0  0  0  0  0  0  0
   -5.9797  -14.3601   21.7236 N   0  0  0  0  0  0  0  0  0  0  0  0
   -4.9825  -13.4783   21.9778 C   0  0  0  0  0  0  0  0  0  0  0  0
   -5.0475  -12.1844   21.6217 N   0  0  0  0  0  0  0  0  0  0  0  0
   -6.1199  -11.6741   21.0062 C   0  0  0  0  0  0  0  0  0  0  0  0
   -7.2344  -12.5667   20.7254 C   0  0  0  0  0  0  0  0  0  0  0  0
   -7.1467  -13.9957   21.1055 C   0  0  0  0  0  0  0  0  0  0  0  0
   -8.1680  -14.8900   20.8607 N   0  0  0  0  0  0  0  0  0  0  0  0
   -8.1468  -11.8247   20.1398 N   0  0  0  0  0  0  0  0  0  0  0  0
   -7.6802  -10.5739   20.0233 C   0  0  0  0  0  0  0  0  0  0  0  0
   -6.4598  -10.4735   20.5486 N   0  0  0  0  0  0  0  0  0  0  0  0
  2  1  1  6  0  0  0
  2  3  1  0  0  0  0
  2  5  1  0  0  0  0
  3  4  1  0  0  0  0
  3 17  1  0  0  0  0
  5  6  1  0  0  0  0
  7  6  1  6  0  0  0
  7  8  1  0  0  0  0
  7  9  1  0  0  0  0
 10  9  1  6  0  0  0
 10 11  1  0  0  0  0
 10 12  1  0  0  0  0
 11 16  1  0  0  0  0
 12 13  1  1  0  0  0
 12 14  1  0  0  0  0
 14 15  1  6  0  0  0
 14 16  1  0  0  0  0
 16 27  1  6  0  0  0
 18 19  2  0  0  0  0
 18 23  1  0  0  0  0
 19 20  1  0  0  0  0
 20 21  2  0  0  0  0
 21 22  1  0  0  0  0
 21 27  1  0  0  0  0
 22 23  2  0  0  0  0
 22 25  1  0  0  0  0
 23 24  1  0  0  0  0
 25 26  2  0  0  0  0
 26 27  1  0  0  0  0
M  END
>  <CHROM.1>
119.64142314,-177.61780846,-144.94173992,55.44451974,-160.22035386,175.62551971
122.77824764,-3.96815007,-10.43023391,18.36105824,0.31936901,-0.89314174
-2.38827375

>  <Name>
ligand

>  <RI>
0

>  <Rbt.Current_Directory>
/home/itssahil/PROJECTS/Mol_Feturizer/Test_systems_manuscript/rnas/4kqy

>  <Rbt.Executable>
rbdock ($Id: //depot/dev/client3/rdock/2013.1/src/exe/rbdock.cxx#4 $)

>  <Rbt.Library>
libRbt.so (2013.1, Build901 2013/11/27)

>  <Rbt.Parameter_File>
/export/apps/rDock/src/rDock_2013.1_src/data/scripts/dock_solv.prm

>  <Rbt.Receptor>
prm/pocket_docking_8.prm

>  <SCORE>
-14.9671

>  <SCORE.INTER>
-14.9212

>  <SCORE.INTER.CONST>
1

>  <SCORE.INTER.POLAR>
0

>  <SCORE.INTER.ROT>
7

>  <SCORE.INTER.SOLV>
13.0515

>  <SCORE.INTER.VDW>
-22.5646

>  <SCORE.INTER.norm>
-0.552637

>  <SCORE.INTRA>
-0.0458593

>  <SCORE.INTRA.DIHEDRAL>
-2.9209

>  <SCORE.INTRA.DIHEDRAL.0>
10.4103

>  <SCORE.INTRA.POLAR>
0

>  <SCORE.INTRA.POLAR.0>
0

>  <SCORE.INTRA.REPUL>
0

>  <SCORE.INTRA.REPUL.0>
0

>  <SCORE.INTRA.SOLV>
-0.303751

>  <SCORE.INTRA.SOLV.lig_0>
-49.5008

>  <SCORE.INTRA.VDW>
1.56646

>  <SCORE.INTRA.VDW.0>
-2.6946

>  <SCORE.INTRA.norm>
-0.00169849

>  <SCORE.RESTR>
0

>  <SCORE.RESTR.CAVITY>
0

>  <SCORE.RESTR.norm>
0

>  <SCORE.SYSTEM>
0

>  <SCORE.SYSTEM.CONST>
0

>  <SCORE.SYSTEM.DIHEDRAL>
0

>  <SCORE.SYSTEM.SOLV>
0

>  <SCORE.SYSTEM.norm>
0

>  <SCORE.heavy>
27

>  <SCORE.norm>
-0.554336

>  <RMSD>
5.077

$$$$
ligand
 OpenBabel02271912153D
libRbt.so/2013.1/901 2013/11/27
 27 29  0  0  0  0  0  0  0  0999 V2000
   -1.6343   -8.8108   18.2755 N   0  0  0  0  0  0  0  0  0  0  0  0
   -3.0720   -8.6748   18.1380 C   0  0  2  0  0  0  0  0  0  0  0  0
   -3.3291   -7.9309   16.8638 C   0  0  0  0  0  0  0  0  0  0  0  0
   -2.3699   -7.4006   16.2630 O   0  0  0  0  0  0  0  0  0  0  0  0
   -3.6532   -7.9068   19.3282 C   0  0  0  0  0  0  0  0  0  0  0  0
   -5.1944   -8.0045   19.3659 C   0  0  0  0  0  0  0  0  0  0  0  0
   -5.8284   -9.5388   19.1225 S   0  0  2  0  0  0  0  0  0  0  0  0
   -7.1218   -9.4424   18.0849 C   0  0  0  0  0  0  0  0  0  0  0  0
   -6.2976  -10.2029   20.6014 C   0  0  0  0  0  0  0  0  0  0  0  0
   -5.8629  -11.6706   20.7980 C   0  0  1  0  0  0  0  0  0  0  0  0
   -6.2947  -12.5362   19.7348 O   0  0  0  0  0  0  0  0  0  0  0  0
   -4.3557  -11.8671   20.7723 C   0  0  1  0  0  0  0  0  0  0  0  0
   -3.6130  -11.4528   21.9366 O   0  0  0  0  0  0  0  0  0  0  0  0
   -4.2755  -13.3474   20.4923 C   0  0  1  0  0  0  0  0  0  0  0  0
   -4.6651  -14.0853   21.6467 O   0  0  0  0  0  0  0  0  0  0  0  0
   -5.3143  -13.5295   19.4255 C   0  0  2  0  0  0  0  0  0  0  0  0
   -4.4957   -7.8799   16.4059 O   0  0  0  0  0  0  0  0  0  0  0  0
   -1.1061  -12.9990   16.2184 N   0  0  0  0  0  0  0  0  0  0  0  0
   -1.1424  -13.1005   17.5694 C   0  0  0  0  0  0  0  0  0  0  0  0
   -2.2890  -13.2238   18.2588 N   0  0  0  0  0  0  0  0  0  0  0  0
   -3.4782  -13.2761   17.6484 C   0  0  0  0  0  0  0  0  0  0  0  0
   -3.5036  -13.1947   16.1958 C   0  0  0  0  0  0  0  0  0  0  0  0
   -2.2360  -13.0408   15.4450 C   0  0  0  0  0  0  0  0  0  0  0  0
   -2.1975  -12.9531   14.0689 N   0  0  0  0  0  0  0  0  0  0  0  0
   -4.7695  -13.2821   15.8557 N   0  0  0  0  0  0  0  0  0  0  0  0
   -5.5113  -13.3888   16.9667 C   0  0  0  0  0  0  0  0  0  0  0  0
   -4.7391  -13.3913   18.0526 N   0  0  0  0  0  0  0  0  0  0  0  0
  2  1  1  1  0  0  0
  2  3  1  0  0  0  0
  2  5  1  0  0  0  0
  3  4  1  0  0  0  0
  3 17  1  0  0  0  0
  5  6  1  0  0  0  0
  7  6  1  1  0  0  0
  7  8  1  0  0  0  0
  7  9  1  0  0  0  0
 10  9  1  6  0  0  0
 10 11  1  0  0  0  0
 10 12  1  0  0  0  0
 11 16  1  0  0  0  0
 12 13  1  1  0  0  0
 12 14  1  0  0  0  0
 14 15  1  1  0  0  0
 14 16  1  0  0  0  0
 16 27  1  6  0  0  0
 18 19  2  0  0  0  0
 18 23  1  0  0  0  0
 19 20  1  0  0  0  0
 20 21  2  0  0  0  0
 21 22  1  0  0  0  0
 21 27  1  0  0  0  0
 22 23  2  0  0  0  0
 22 25  1  0  0  0  0
 23 24  1  0  0  0  0
 25 26  2  0  0  0  0
 26 27  1  0  0  0  0
M  END
>  <CHROM.1>
-10.16125529,-167.92737753,45.75358654,-136.26014600,-134.93769536,-54.43342249
124.76127025,-4.13009578,-11.19630918,18.36635121,-2.08764877,-0.97859972
2.99013678

>  <Name>
ligand

>  <RI>
0

>  <Rbt.Current_Directory>
/home/itssahil/PROJECTS/Mol_Feturizer/Test_systems_manuscript/rnas/4kqy

>  <Rbt.Executable>
rbdock ($Id: //depot/dev/client3/rdock/2013.1/src/exe/rbdock.cxx#4 $)

>  <Rbt.Library>
libRbt.so (2013.1, Build901 2013/11/27)

>  <Rbt.Parameter_File>
/export/apps/rDock/src/rDock_2013.1_src/data/scripts/dock_solv.prm

>  <Rbt.Receptor>
prm/pocket_docking_2.prm

>  <SCORE>
-5.53968

>  <SCORE.INTER>
-7.48537

>  <SCORE.INTER.CONST>
1

>  <SCORE.INTER.POLAR>
0

>  <SCORE.INTER.ROT>
7

>  <SCORE.INTER.SOLV>
12.7986

>  <SCORE.INTER.VDW>
-17.5231

>  <SCORE.INTER.norm>
-0.277236

>  <SCORE.INTRA>
-0.0716264

>  <SCORE.INTRA.DIHEDRAL>
1.6998

>  <SCORE.INTRA.DIHEDRAL.0>
10.4103

>  <SCORE.INTRA.POLAR>
0

>  <SCORE.INTRA.POLAR.0>
0

>  <SCORE.INTRA.REPUL>
0

>  <SCORE.INTRA.REPUL.0>
0

>  <SCORE.INTRA.SOLV>
-0.0645779

>  <SCORE.INTRA.SOLV.lig_0>
-49.5008

>  <SCORE.INTRA.VDW>
-0.889237

>  <SCORE.INTRA.VDW.0>
-2.6946

>  <SCORE.INTRA.norm>
-0.00265283

>  <SCORE.RESTR>
2.01731

>  <SCORE.RESTR.CAVITY>
2.01731

>  <SCORE.RESTR.norm>
0.0747152

>  <SCORE.SYSTEM>
0

>  <SCORE.SYSTEM.CONST>
0

>  <SCORE.SYSTEM.DIHEDRAL>
0

>  <SCORE.SYSTEM.SOLV>
0

>  <SCORE.SYSTEM.norm>
0

>  <SCORE.heavy>
27

>  <SCORE.norm>
-0.205173

>  <RMSD>
5.079

$$$$
ligand
 OpenBabel02271912153D
libRbt.so/2013.1/901 2013/11/27
 27 29  0  0  0  0  0  0  0  0999 V2000
   -2.5411  -11.0972   17.4250 N   0  0  0  0  0  0  0  0  0  0  0  0
   -2.1320  -10.9334   16.0430 C   0  0  2  0  0  0  0  0  0  0  0  0
   -0.6367  -11.0111   16.0091 C   0  0  0  0  0  0  0  0  0  0  0  0
   -0.0499  -10.9939   14.9056 O   0  0  0  0  0  0  0  0  0  0  0  0
   -2.6063   -9.5823   15.5010 C   0  0  0  0  0  0  0  0  0  0  0  0
   -4.1477   -9.5137   15.4239 C   0  0  0  0  0  0  0  0  0  0  0  0
   -4.9360   -9.2866   16.8876 S   0  0  2  0  0  0  0  0  0  0  0  0
   -6.5780   -9.3343   16.6424 C   0  0  0  0  0  0  0  0  0  0  0  0
   -4.4754   -7.8085   17.5597 C   0  0  0  0  0  0  0  0  0  0  0  0
   -4.7792   -7.6813   19.0674 C   0  0  1  0  0  0  0  0  0  0  0  0
   -6.1150   -8.0851   19.4118 O   0  0  0  0  0  0  0  0  0  0  0  0
   -3.9375   -8.6010   19.9372 C   0  0  1  0  0  0  0  0  0  0  0  0
   -2.5584   -8.2365   20.1469 O   0  0  0  0  0  0  0  0  0  0  0  0
   -4.7630   -8.6179   21.1999 C   0  0  1  0  0  0  0  0  0  0  0  0
   -4.6527   -7.3674   21.8730 O   0  0  0  0  0  0  0  0  0  0  0  0
   -6.1586   -8.7631   20.6696 C   0  0  2  0  0  0  0  0  0  0  0  0
    0.0014  -11.0601   17.0878 O   0  0  0  0  0  0  0  0  0  0  0  0
   -5.3224  -13.9010   21.7554 N   0  0  0  0  0  0  0  0  0  0  0  0
   -4.5859  -12.8216   22.1149 C   0  0  0  0  0  0  0  0  0  0  0  0
   -4.9133  -11.5674   21.7614 N   0  0  0  0  0  0  0  0  0  0  0  0
   -6.0092  -11.2993   21.0427 C   0  0  0  0  0  0  0  0  0  0  0  0
   -6.8540  -12.4152   20.6449 C   0  0  0  0  0  0  0  0  0  0  0  0
   -6.4759  -13.7963   21.0238 C   0  0  0  0  0  0  0  0  0  0  0  0
   -7.2336  -14.8938   20.6712 N   0  0  0  0  0  0  0  0  0  0  0  0
   -7.8516  -11.8858   19.9736 N   0  0  0  0  0  0  0  0  0  0  0  0
   -7.6779  -10.5584   19.9123 C   0  0  0  0  0  0  0  0  0  0  0  0
   -6.5711  -10.1959   20.5597 N   0  0  0  0  0  0  0  0  0  0  0  0
  2  1  1  1  0  0  0
  2  3  1  0  0  0  0
  2  5  1  0  0  0  0
  3  4  1  0  0  0  0
  3 17  1  0  0  0  0
  5  6  1  0  0  0  0
  7  6  1  6  0  0  0
  7  8  1  0  0  0  0
  7  9  1  0  0  0  0
 10  9  1  6  0  0  0
 10 11  1  0  0  0  0
 10 12  1  0  0  0  0
 11 16  1  0  0  0  0
 12 13  1  1  0  0  0
 12 14  1  0  0  0  0
 14 15  1  6  0  0  0
 14 16  1  0  0  0  0
 16 27  1  6  0  0  0
 18 19  2  0  0  0  0
 18 23  1  0  0  0  0
 19 20  1  0  0  0  0
 20 21  2  0  0  0  0
 21 22  1  0  0  0  0
 21 27  1  0  0  0  0
 22 23  2  0  0  0  0
 22 25  1  0  0  0  0
 23 24  1  0  0  0  0
 25 26  2  0  0  0  0
 26 27  1  0  0  0  0
M  END
>  <CHROM.1>
174.83323028,-65.84565753,76.10779696,-176.37498189,-162.17011160,-47.71025774
129.34772334,-4.56382044,-10.30192889,18.92904050,-0.37740574,-0.80190095
2.97399394

>  <Name>
ligand

>  <RI>
0

>  <Rbt.Current_Directory>
/home/itssahil/PROJECTS/Mol_Feturizer/Test_systems_manuscript/rnas/4kqy

>  <Rbt.Executable>
rbdock ($Id: //depot/dev/client3/rdock/2013.1/src/exe/rbdock.cxx#4 $)

>  <Rbt.Library>
libRbt.so (2013.1, Build901 2013/11/27)

>  <Rbt.Parameter_File>
/export/apps/rDock/src/rDock_2013.1_src/data/scripts/dock_solv.prm

>  <Rbt.Receptor>
prm/pocket_docking_3.prm

>  <SCORE>
-15.8933

>  <SCORE.INTER>
-14.3773

>  <SCORE.INTER.CONST>
1

>  <SCORE.INTER.POLAR>
0

>  <SCORE.INTER.ROT>
7

>  <SCORE.INTER.SOLV>
11.7555

>  <SCORE.INTER.VDW>
-21.77

>  <SCORE.INTER.norm>
-0.532491

>  <SCORE.INTRA>
-1.51608

>  <SCORE.INTRA.DIHEDRAL>
-5.20322

>  <SCORE.INTRA.DIHEDRAL.0>
10.4103

>  <SCORE.INTRA.POLAR>
0

>  <SCORE.INTRA.POLAR.0>
0

>  <SCORE.INTRA.REPUL>
0

>  <SCORE.INTRA.REPUL.0>
0

>  <SCORE.INTRA.SOLV>
3.03034

>  <SCORE.INTRA.SOLV.lig_0>
-49.5008

>  <SCORE.INTRA.VDW>
-0.429647

>  <SCORE.INTRA.VDW.0>
-2.6946

>  <SCORE.INTRA.norm>
-0.0561512

>  <SCORE.RESTR>
0

>  <SCORE.RESTR.CAVITY>
0

>  <SCORE.RESTR.norm>
0

>  <SCORE.SYSTEM>
0

>  <SCORE.SYSTEM.CONST>
0

>  <SCORE.SYSTEM.DIHEDRAL>
0

>  <SCORE.SYSTEM.SOLV>
0

>  <SCORE.SYSTEM.norm>
0

>  <SCORE.heavy>
27

>  <SCORE.norm>
-0.588643

>  <RMSD>
5.079

$$$$
ligand
 OpenBabel02271912153D
libRbt.so/2013.1/901 2013/11/27
 27 29  0  0  0  0  0  0  0  0999 V2000
   -5.5160  -11.7315   15.3088 N   0  0  0  0  0  0  0  0  0  0  0  0
   -4.0832  -11.7589   15.0841 C   0  0  2  0  0  0  0  0  0  0  0  0
   -3.8624  -11.6690   13.6055 C   0  0  0  0  0  0  0  0  0  0  0  0
   -3.5180  -10.5764   13.1056 O   0  0  0  0  0  0  0  0  0  0  0  0
   -3.4800  -13.0545   15.6336 C   0  0  0  0  0  0  0  0  0  0  0  0
   -3.1886  -12.9452   17.1467 C   0  0  0  0  0  0  0  0  0  0  0  0
   -2.0543  -11.7884   17.5834 S   0  0  2  0  0  0  0  0  0  0  0  0
   -0.5442  -12.2901   17.1074 C   0  0  0  0  0  0  0  0  0  0  0  0
   -2.1036  -11.5434   19.2526 C   0  0  0  0  0  0  0  0  0  0  0  0
   -3.3368  -10.7514   19.7359 C   0  0  1  0  0  0  0  0  0  0  0  0
   -4.5834  -11.3524   19.3476 O   0  0  0  0  0  0  0  0  0  0  0  0
   -3.4703  -10.6978   21.2492 C   0  0  1  0  0  0  0  0  0  0  0  0
   -2.5792   -9.8170   21.9626 O   0  0  0  0  0  0  0  0  0  0  0  0
   -4.9277  -10.3318   21.3845 C   0  0  1  0  0  0  0  0  0  0  0  0
   -5.1279   -8.9731   21.0069 O   0  0  0  0  0  0  0  0  0  0  0  0
   -5.5781  -11.2204   20.3659 C   0  0  2  0  0  0  0  0  0  0  0  0
   -3.9959  -12.6973   12.8999 O   0  0  0  0  0  0  0  0  0  0  0  0
   -9.2755  -14.9810   21.0460 N   0  0  0  0  0  0  0  0  0  0  0  0
   -9.3508  -13.8280   20.3379 C   0  0  0  0  0  0  0  0  0  0  0  0
   -8.3315  -12.9564   20.2568 N   0  0  0  0  0  0  0  0  0  0  0  0
   -7.1584  -13.1834   20.8584 C   0  0  0  0  0  0  0  0  0  0  0  0
   -7.0077  -14.4164   21.6162 C   0  0  0  0  0  0  0  0  0  0  0  0
   -8.1428  -15.3630   21.7151 C   0  0  0  0  0  0  0  0  0  0  0  0
   -8.0613  -16.5441   22.4230 N   0  0  0  0  0  0  0  0  0  0  0  0
   -5.7805  -14.3994   22.0848 N   0  0  0  0  0  0  0  0  0  0  0  0
   -5.1835  -13.2638   21.6976 C   0  0  0  0  0  0  0  0  0  0  0  0
   -6.0067  -12.5269   20.9526 N   0  0  0  0  0  0  0  0  0  0  0  0
  2  1  1  6  0  0  0
  2  3  1  0  0  0  0
  2  5  1  0  0  0  0
  3  4  1  0  0  0  0
  3 17  1  0  0  0  0
  5  6  1  0  0  0  0
  7  6  1  1  0  0  0
  7  8  1  0  0  0  0
  7  9  1  0  0  0  0
 10  9  1  1  0  0  0
 10 11  1  0  0  0  0
 10 12  1  0  0  0  0
 11 16  1  0  0  0  0
 12 13  1  6  0  0  0
 12 14  1  0  0  0  0
 14 15  1  6  0  0  0
 14 16  1  0  0  0  0
 16 27  1  1  0  0  0
 18 19  2  0  0  0  0
 18 23  1  0  0  0  0
 19 20  1  0  0  0  0
 20 21  2  0  0  0  0
 21 22  1  0  0  0  0
 21 27  1  0  0  0  0
 22 23  2  0  0  0  0
 22 25  1  0  0  0  0
 23 24  1  0  0  0  0
 25 26  2  0  0  0  0
 26 27  1  0  0  0  0
M  END
>  <CHROM.1>
101.94186879,-83.77302598,-62.97726905,-71.24678621,-73.61050669,56.51839752
-110.81447282,-4.82436855,-12.30350961,18.92167971,0.84476667,-0.63583575
-1.73118841

>  <Name>
ligand

>  <RI>
0

>  <Rbt.Current_Directory>
/home/itssahil/PROJECTS/Mol_Feturizer/Test_systems_manuscript/rnas/4kqy

>  <Rbt.Executable>
rbdock ($Id: //depot/dev/client3/rdock/2013.1/src/exe/rbdock.cxx#4 $)

>  <Rbt.Library>
libRbt.so (2013.1, Build901 2013/11/27)

>  <Rbt.Parameter_File>
/export/apps/rDock/src/rDock_2013.1_src/data/scripts/dock_solv.prm

>  <Rbt.Receptor>
prm/pocket_docking_4.prm

>  <SCORE>
-11.3225

>  <SCORE.INTER>
-9.67479

>  <SCORE.INTER.CONST>
1

>  <SCORE.INTER.POLAR>
0

>  <SCORE.INTER.ROT>
7

>  <SCORE.INTER.SOLV>
14.8355

>  <SCORE.INTER.VDW>
-19.6617

>  <SCORE.INTER.norm>
-0.358326

>  <SCORE.INTRA>
-1.65

>  <SCORE.INTRA.DIHEDRAL>
-4.54446

>  <SCORE.INTRA.DIHEDRAL.0>
10.4103

>  <SCORE.INTRA.POLAR>
0

>  <SCORE.INTRA.POLAR.0>
0

>  <SCORE.INTRA.REPUL>
0

>  <SCORE.INTRA.REPUL.0>
0

>  <SCORE.INTRA.SOLV>
0.400361

>  <SCORE.INTRA.SOLV.lig_0>
-49.5008

>  <SCORE.INTRA.VDW>
0.422049

>  <SCORE.INTRA.VDW.0>
-2.6946

>  <SCORE.INTRA.norm>
-0.0611112

>  <SCORE.RESTR>
0.00232848

>  <SCORE.RESTR.CAVITY>
0.00232848

>  <SCORE.RESTR.norm>
8.624e-05

>  <SCORE.SYSTEM>
0

>  <SCORE.SYSTEM.CONST>
0

>  <SCORE.SYSTEM.DIHEDRAL>
0

>  <SCORE.SYSTEM.SOLV>
0

>  <SCORE.SYSTEM.norm>
0

>  <SCORE.heavy>
27

>  <SCORE.norm>
-0.419351

>  <RMSD>
5.083

$$$$
ligand
 OpenBabel02271912153D
libRbt.so/2013.1/901 2013/11/27
 27 29  0  0  0  0  0  0  0  0999 V2000
   -3.2167   -7.3403   16.1068 N   0  0  0  0  0  0  0  0  0  0  0  0
   -2.5681   -8.1398   17.1287 C   0  0  2  0  0  0  0  0  0  0  0  0
   -1.9506   -9.3207   16.4450 C   0  0  0  0  0  0  0  0  0  0  0  0
   -1.0067   -9.9225   17.0010 O   0  0  0  0  0  0  0  0  0  0  0  0
   -3.5875   -8.6034   18.1727 C   0  0  0  0  0  0  0  0  0  0  0  0
   -4.1357   -7.4154   18.9940 C   0  0  0  0  0  0  0  0  0  0  0  0
   -4.8165   -7.8126   20.4752 S   0  0  2  0  0  0  0  0  0  0  0  0
   -5.6200   -6.4927   21.0842 C   0  0  0  0  0  0  0  0  0  0  0  0
   -3.6092   -8.3202   21.5397 C   0  0  0  0  0  0  0  0  0  0  0  0
   -3.5461   -9.8497   21.7360 C   0  0  1  0  0  0  0  0  0  0  0  0
   -4.7562  -10.4009   22.2815 O   0  0  0  0  0  0  0  0  0  0  0  0
   -3.4047  -10.6243   20.4357 C   0  0  1  0  0  0  0  0  0  0  0  0
   -2.1126  -10.6161   19.7961 O   0  0  0  0  0  0  0  0  0  0  0  0
   -3.8570  -11.9934   20.8799 C   0  0  1  0  0  0  0  0  0  0  0  0
   -2.8640  -12.5919   21.7073 O   0  0  0  0  0  0  0  0  0  0  0  0
   -5.0615  -11.6782   21.7166 C   0  0  2  0  0  0  0  0  0  0  0  0
   -2.4112   -9.7038   15.3431 O   0  0  0  0  0  0  0  0  0  0  0  0
   -9.0307  -14.3461   19.3920 N   0  0  0  0  0  0  0  0  0  0  0  0
   -7.9820  -14.8253   20.1042 C   0  0  0  0  0  0  0  0  0  0  0  0
   -7.0384  -14.0292   20.6343 N   0  0  0  0  0  0  0  0  0  0  0  0
   -7.0855  -12.6982   20.5097 C   0  0  0  0  0  0  0  0  0  0  0  0
   -8.2005  -12.1209   19.7743 C   0  0  0  0  0  0  0  0  0  0  0  0
   -9.2266  -13.0072   19.1779 C   0  0  0  0  0  0  0  0  0  0  0  0
  -10.3025  -12.5188   18.4661 N   0  0  0  0  0  0  0  0  0  0  0  0
   -8.0174  -10.8205   19.8117 N   0  0  0  0  0  0  0  0  0  0  0  0
   -6.8872  -10.5601   20.4832 C   0  0  0  0  0  0  0  0  0  0  0  0
   -6.3217  -11.6878   20.9123 N   0  0  0  0  0  0  0  0  0  0  0  0
  2  1  1  6  0  0  0
  2  3  1  0  0  0  0
  2  5  1  0  0  0  0
  3  4  1  0  0  0  0
  3 17  1  0  0  0  0
  5  6  1  0  0  0  0
  7  6  1  6  0  0  0
  7  8  1  0  0  0  0
  7  9  1  0  0  0  0
 10  9  1  6  0  0  0
 10 11  1  0  0  0  0
 10 12  1  0  0  0  0
 11 16  1  0  0  0  0
 12 13  1  1  0  0  0
 12 14  1  0  0  0  0
 14 15  1  1  0  0  0
 14 16  1  0  0  0  0
 16 27  1  6  0  0  0
 18 19  2  0  0  0  0
 18 23  1  0  0  0  0
 19 20  1  0  0  0  0
 20 21  2  0  0  0  0
 21 22  1  0  0  0  0
 21 27  1  0  0  0  0
 22 23  2  0  0  0  0
 22 25  1  0  0  0  0
 23 24  1  0  0  0  0
 25 26  2  0  0  0  0
 26 27  1  0  0  0  0
M  END
>  <CHROM.1>
157.74901226,-67.34179446,-159.40783647,-168.71385073,-102.95358868,-60.90840577
-162.16311641,-5.02089972,-10.46173134,19.66323966,0.18727660,-0.72518012
-1.70026317

>  <Name>
ligand

>  <RI>
0

>  <Rbt.Current_Directory>
/home/itssahil/PROJECTS/Mol_Feturizer/Test_systems_manuscript/rnas/4kqy

>  <Rbt.Executable>
rbdock ($Id: //depot/dev/client3/rdock/2013.1/src/exe/rbdock.cxx#4 $)

>  <Rbt.Library>
libRbt.so (2013.1, Build901 2013/11/27)

>  <Rbt.Parameter_File>
/export/apps/rDock/src/rDock_2013.1_src/data/scripts/dock_solv.prm

>  <Rbt.Receptor>
prm/pocket_docking_7.prm

>  <SCORE>
-20.8973

>  <SCORE.INTER>
-19.7536

>  <SCORE.INTER.CONST>
1

>  <SCORE.INTER.POLAR>
0

>  <SCORE.INTER.ROT>
7

>  <SCORE.INTER.SOLV>
16.3561

>  <SCORE.INTER.VDW>
-26.8878

>  <SCORE.INTER.norm>
-0.731616

>  <SCORE.INTRA>
-1.17971

>  <SCORE.INTRA.DIHEDRAL>
-1.78374

>  <SCORE.INTRA.DIHEDRAL.0>
10.4103

>  <SCORE.INTRA.POLAR>
0

>  <SCORE.INTRA.POLAR.0>
0

>  <SCORE.INTRA.REPUL>
0

>  <SCORE.INTRA.REPUL.0>
0

>  <SCORE.INTRA.SOLV>
0.793665

>  <SCORE.INTRA.SOLV.lig_0>
-49.5008

>  <SCORE.INTRA.VDW>
-0.684673

>  <SCORE.INTRA.VDW.0>
-2.6946

>  <SCORE.INTRA.norm>
-0.043693

>  <SCORE.RESTR>
0.036023

>  <SCORE.RESTR.CAVITY>
0.036023

>  <SCORE.RESTR.norm>
0.00133419

>  <SCORE.SYSTEM>
0

>  <SCORE.SYSTEM.CONST>
0

>  <SCORE.SYSTEM.DIHEDRAL>
0

>  <SCORE.SYSTEM.SOLV>
0

>  <SCORE.SYSTEM.norm>
0

>  <SCORE.heavy>
27

>  <SCORE.norm>
-0.773975

>  <RMSD>
5.084

$$$$
ligand
 OpenBabel02271912153D
libRbt.so/2013.1/901 2013/11/27
 27 29  0  0  0  0  0  0  0  0999 V2000
   -2.6249  -11.1957   13.6159 N   0  0  0  0  0  0  0  0  0  0  0  0
   -2.2124   -9.8698   14.0354 C   0  0  2  0  0  0  0  0  0  0  0  0
   -0.7149   -9.8541   14.0533 C   0  0  0  0  0  0  0  0  0  0  0  0
   -0.1038  -10.7172   14.7195 O   0  0  0  0  0  0  0  0  0  0  0  0
   -2.7638   -9.5535   15.4283 C   0  0  0  0  0  0  0  0  0  0  0  0
   -4.3053   -9.4533   15.4168 C   0  0  0  0  0  0  0  0  0  0  0  0
   -5.0286   -9.2523   16.9174 S   0  0  2  0  0  0  0  0  0  0  0  0
   -6.6799   -9.2870   16.7423 C   0  0  0  0  0  0  0  0  0  0  0  0
   -4.5309   -7.7906   17.5988 C   0  0  0  0  0  0  0  0  0  0  0  0
   -4.5378   -7.7815   19.1420 C   0  0  1  0  0  0  0  0  0  0  0  0
   -5.8312   -8.0589   19.7041 O   0  0  0  0  0  0  0  0  0  0  0  0
   -3.6836   -8.8765   19.7604 C   0  0  1  0  0  0  0  0  0  0  0  0
   -2.2532   -8.6989   19.7290 O   0  0  0  0  0  0  0  0  0  0  0  0
   -4.2622   -8.9240   21.1529 C   0  0  1  0  0  0  0  0  0  0  0  0
   -3.8659   -7.7694   21.8869 O   0  0  0  0  0  0  0  0  0  0  0  0
   -5.7374   -8.8506   20.8907 C   0  0  2  0  0  0  0  0  0  0  0  0
   -0.1006   -8.9961   13.3753 O   0  0  0  0  0  0  0  0  0  0  0  0
   -5.5396  -14.1062   21.6753 N   0  0  0  0  0  0  0  0  0  0  0  0
   -4.6360  -13.1569   22.0205 C   0  0  0  0  0  0  0  0  0  0  0  0
   -4.8127  -11.8525   21.7510 N   0  0  0  0  0  0  0  0  0  0  0  0
   -5.9121  -11.4005   21.1375 C   0  0  0  0  0  0  0  0  0  0  0  0
   -6.9306  -12.3693   20.7614 C   0  0  0  0  0  0  0  0  0  0  0  0
   -6.7194  -13.8075   21.0464 C   0  0  0  0  0  0  0  0  0  0  0  0
   -7.6459  -14.7722   20.7090 N   0  0  0  0  0  0  0  0  0  0  0  0
   -7.8931  -11.6746   20.1985 N   0  0  0  0  0  0  0  0  0  0  0  0
   -7.5428  -10.3812   20.1821 C   0  0  0  0  0  0  0  0  0  0  0  0
   -6.3509  -10.2068   20.7517 N   0  0  0  0  0  0  0  0  0  0  0  0
  2  1  1  1  0  0  0
  2  3  1  0  0  0  0
  2  5  1  0  0  0  0
  3  4  1  0  0  0  0
  3 17  1  0  0  0  0
  5  6  1  0  0  0  0
  7  6  1  6  0  0  0
  7  8  1  0  0  0  0
  7  9  1  0  0  0  0
 10  9  1  6  0  0  0
 10 11  1  0  0  0  0
 10 12  1  0  0  0  0
 11 16  1  0  0  0  0
 12 13  1  1  0  0  0
 12 14  1  0  0  0  0
 14 15  1  1  0  0  0
 14 16  1  0  0  0  0
 16 27  1  6  0  0  0
 18 19  2  0  0  0  0
 18 23  1  0  0  0  0
 19 20  1  0  0  0  0
 20 21  2  0  0  0  0
 21 22  1  0  0  0  0
 21 27  1  0  0  0  0
 22 23  2  0  0  0  0
 22 25  1  0  0  0  0
 23 24  1  0  0  0  0
 25 26  2  0  0  0  0
 26 27  1  0  0  0  0
M  END
>  <CHROM.1>
-54.56760288,-66.00866312,174.49867822,-175.44295448,-152.05069172,-58.77586536
136.01624207,-4.51629136,-10.20292989,18.53376688,0.12892189,-0.99802135
-2.66442232

>  <Name>
ligand

>  <RI>
0

>  <Rbt.Current_Directory>
/home/itssahil/PROJECTS/Mol_Feturizer/Test_systems_manuscript/rnas/4kqy

>  <Rbt.Executable>
rbdock ($Id: //depot/dev/client3/rdock/2013.1/src/exe/rbdock.cxx#4 $)

>  <Rbt.Library>
libRbt.so (2013.1, Build901 2013/11/27)

>  <Rbt.Parameter_File>
/export/apps/rDock/src/rDock_2013.1_src/data/scripts/dock_solv.prm

>  <Rbt.Receptor>
prm/pocket_docking_5.prm

>  <SCORE>
-17.9984

>  <SCORE.INTER>
-15.0206

>  <SCORE.INTER.CONST>
1

>  <SCORE.INTER.POLAR>
0

>  <SCORE.INTER.ROT>
7

>  <SCORE.INTER.SOLV>
12.7505

>  <SCORE.INTER.VDW>
-22.5306

>  <SCORE.INTER.norm>
-0.55632

>  <SCORE.INTRA>
-3.02942

>  <SCORE.INTRA.DIHEDRAL>
-5.33035

>  <SCORE.INTRA.DIHEDRAL.0>
10.4103

>  <SCORE.INTRA.POLAR>
0

>  <SCORE.INTRA.POLAR.0>
0

>  <SCORE.INTRA.REPUL>
0

>  <SCORE.INTRA.REPUL.0>
0

>  <SCORE.INTRA.SOLV>
0.299115

>  <SCORE.INTRA.SOLV.lig_0>
-49.5008

>  <SCORE.INTRA.VDW>
-0.513801

>  <SCORE.INTRA.VDW.0>
-2.6946

>  <SCORE.INTRA.norm>
-0.112201

>  <SCORE.RESTR>
0.0516986

>  <SCORE.RESTR.CAVITY>
0.0516986

>  <SCORE.RESTR.norm>
0.00191476

>  <SCORE.SYSTEM>
0

>  <SCORE.SYSTEM.CONST>
0

>  <SCORE.SYSTEM.DIHEDRAL>
0

>  <SCORE.SYSTEM.SOLV>
0

>  <SCORE.SYSTEM.norm>
0

>  <SCORE.heavy>
27

>  <SCORE.norm>
-0.666606

>  <RMSD>
5.086

$$$$
ligand
 OpenBabel02271912153D
libRbt.so/2013.1/901 2013/11/27
 27 29  0  0  0  0  0  0  0  0999 V2000
   -2.0915  -12.7875   15.8289 N   0  0  0  0  0  0  0  0  0  0  0  0
   -1.6878  -12.7134   17.2202 C   0  0  2  0  0  0  0  0  0  0  0  0
   -2.9227  -12.4613   18.0294 C   0  0  0  0  0  0  0  0  0  0  0  0
   -2.8505  -12.4888   19.2769 O   0  0  0  0  0  0  0  0  0  0  0  0
   -0.6781  -11.5808   17.4248 C   0  0  0  0  0  0  0  0  0  0  0  0
   -1.1053  -10.3000   16.6740 C   0  0  0  0  0  0  0  0  0  0  0  0
   -2.4358   -9.4989   17.3089 S   0  0  2  0  0  0  0  0  0  0  0  0
   -2.5590   -7.9966   16.6114 C   0  0  0  0  0  0  0  0  0  0  0  0
   -2.2765   -9.3682   18.9841 C   0  0  0  0  0  0  0  0  0  0  0  0
   -3.4572   -8.6530   19.6742 C   0  0  1  0  0  0  0  0  0  0  0  0
   -4.7380   -9.0372   19.1471 O   0  0  0  0  0  0  0  0  0  0  0  0
   -3.6039   -9.0033   21.1461 C   0  0  1  0  0  0  0  0  0  0  0  0
   -2.6620   -8.4140   22.0650 O   0  0  0  0  0  0  0  0  0  0  0  0
   -5.0337   -8.5868   21.3874 C   0  0  1  0  0  0  0  0  0  0  0  0
   -5.1347   -7.1660   21.3948 O   0  0  0  0  0  0  0  0  0  0  0  0
   -5.7327   -9.1175   20.1708 C   0  0  2  0  0  0  0  0  0  0  0  0
   -3.9991  -12.1964   17.4427 O   0  0  0  0  0  0  0  0  0  0  0  0
   -5.0755  -14.0731   21.9835 N   0  0  0  0  0  0  0  0  0  0  0  0
   -4.2122  -13.0291   22.0204 C   0  0  0  0  0  0  0  0  0  0  0  0
   -4.5095  -11.8212   21.5126 N   0  0  0  0  0  0  0  0  0  0  0  0
   -5.6962  -11.5634   20.9515 C   0  0  0  0  0  0  0  0  0  0  0  0
   -6.6753  -12.6386   20.9019 C   0  0  0  0  0  0  0  0  0  0  0  0
   -6.3324  -13.9722   21.4480 C   0  0  0  0  0  0  0  0  0  0  0  0
   -7.2166  -15.0307   21.4245 N   0  0  0  0  0  0  0  0  0  0  0  0
   -7.7386  -12.1265   20.3246 N   0  0  0  0  0  0  0  0  0  0  0  0
   -7.4862  -10.8500   20.0039 C   0  0  0  0  0  0  0  0  0  0  0  0
   -6.2576  -10.5010   20.3837 N   0  0  0  0  0  0  0  0  0  0  0  0
  2  1  1  6  0  0  0
  2  3  1  0  0  0  0
  2  5  1  0  0  0  0
  3  4  1  0  0  0  0
  3 17  1  0  0  0  0
  5  6  1  0  0  0  0
  7  6  1  6  0  0  0
  7  8  1  0  0  0  0
  7  9  1  0  0  0  0
 10  9  1  6  0  0  0
 10 11  1  0  0  0  0
 10 12  1  0  0  0  0
 11 16  1  0  0  0  0
 12 13  1  1  0  0  0
 12 14  1  0  0  0  0
 14 15  1  6  0  0  0
 14 16  1  0  0  0  0
 16 27  1  1  0  0  0
 18 19  2  0  0  0  0
 18 23  1  0  0  0  0
 19 20  1  0  0  0  0
 20 21  2  0  0  0  0
 21 22  1  0  0  0  0
 21 27  1  0  0  0  0
 22 23  2  0  0  0  0
 22 25  1  0  0  0  0
 23 24  1  0  0  0  0
 25 26  2  0  0  0  0
 26 27  1  0  0  0  0
M  END
>  <CHROM.1>
172.98746833,43.86559765,70.73720949,167.64693051,-179.56788044,41.43721094
73.03427056,-4.09520074,-10.86660543,19.51447856,-0.22004702,-0.79921500
-2.91293275

>  <Name>
ligand

>  <RI>
0

>  <Rbt.Current_Directory>
/home/itssahil/PROJECTS/Mol_Feturizer/Test_systems_manuscript/rnas/4kqy

>  <Rbt.Executable>
rbdock ($Id: //depot/dev/client3/rdock/2013.1/src/exe/rbdock.cxx#4 $)

>  <Rbt.Library>
libRbt.so (2013.1, Build901 2013/11/27)

>  <Rbt.Parameter_File>
/export/apps/rDock/src/rDock_2013.1_src/data/scripts/dock_solv.prm

>  <Rbt.Receptor>
prm/pocket_docking_3.prm

>  <SCORE>
-18.5517

>  <SCORE.INTER>
-15.7416

>  <SCORE.INTER.CONST>
1

>  <SCORE.INTER.POLAR>
0

>  <SCORE.INTER.ROT>
7

>  <SCORE.INTER.SOLV>
12.3949

>  <SCORE.INTER.VDW>
-22.8927

>  <SCORE.INTER.norm>
-0.583023

>  <SCORE.INTRA>
-2.81007

>  <SCORE.INTRA.DIHEDRAL>
-4.66034

>  <SCORE.INTRA.DIHEDRAL.0>
10.4103

>  <SCORE.INTRA.POLAR>
0

>  <SCORE.INTRA.POLAR.0>
0

>  <SCORE.INTRA.REPUL>
0

>  <SCORE.INTRA.REPUL.0>
0

>  <SCORE.INTRA.SOLV>
1.11695

>  <SCORE.INTRA.SOLV.lig_0>
-49.5008

>  <SCORE.INTRA.VDW>
-1.03837

>  <SCORE.INTRA.VDW.0>
-2.6946

>  <SCORE.INTRA.norm>
-0.104077

>  <SCORE.RESTR>
0

>  <SCORE.RESTR.CAVITY>
0

>  <SCORE.RESTR.norm>
0

>  <SCORE.SYSTEM>
0

>  <SCORE.SYSTEM.CONST>
0

>  <SCORE.SYSTEM.DIHEDRAL>
0

>  <SCORE.SYSTEM.SOLV>
0

>  <SCORE.SYSTEM.norm>
0

>  <SCORE.heavy>
27

>  <SCORE.norm>
-0.687099

>  <RMSD>
5.104

$$$$
ligand
 OpenBabel02271912153D
libRbt.so/2013.1/901 2013/11/27
 27 29  0  0  0  0  0  0  0  0999 V2000
   -1.2090  -13.4626   17.0297 N   0  0  0  0  0  0  0  0  0  0  0  0
   -1.2389  -12.0598   17.3975 C   0  0  2  0  0  0  0  0  0  0  0  0
   -2.3975  -11.8676   18.3269 C   0  0  0  0  0  0  0  0  0  0  0  0
   -2.1910  -11.4158   19.4738 O   0  0  0  0  0  0  0  0  0  0  0  0
   -1.4050  -11.1837   16.1529 C   0  0  0  0  0  0  0  0  0  0  0  0
   -1.2385   -9.6853   16.4899 C   0  0  0  0  0  0  0  0  0  0  0  0
   -2.6135   -8.9162   17.0669 S   0  0  2  0  0  0  0  0  0  0  0  0
   -2.8664   -7.5192   16.2049 C   0  0  0  0  0  0  0  0  0  0  0  0
   -2.4307   -8.5789   18.7105 C   0  0  0  0  0  0  0  0  0  0  0  0
   -3.6858   -7.9705   19.3711 C   0  0  1  0  0  0  0  0  0  0  0  0
   -4.9103   -8.5782   18.9270 O   0  0  0  0  0  0  0  0  0  0  0  0
   -3.7503   -8.1924   20.8736 C   0  0  1  0  0  0  0  0  0  0  0  0
   -2.8819   -7.3913   21.7000 O   0  0  0  0  0  0  0  0  0  0  0  0
   -5.2192   -7.9568   21.1242 C   0  0  1  0  0  0  0  0  0  0  0  0
   -5.5200   -6.5699   21.0020 O   0  0  0  0  0  0  0  0  0  0  0  0
   -5.8617   -8.6954   19.9876 C   0  0  2  0  0  0  0  0  0  0  0  0
   -3.5566  -12.1332   17.9280 O   0  0  0  0  0  0  0  0  0  0  0  0
   -4.3944  -13.3795   22.0328 N   0  0  0  0  0  0  0  0  0  0  0  0
   -3.6722  -12.2399   21.9051 C   0  0  0  0  0  0  0  0  0  0  0  0
   -4.1719  -11.1198   21.3565 N   0  0  0  0  0  0  0  0  0  0  0  0
   -5.4332  -11.0507   20.9163 C   0  0  0  0  0  0  0  0  0  0  0  0
   -6.2670  -12.2361   21.0464 C   0  0  0  0  0  0  0  0  0  0  0  0
   -5.7023  -13.4721   21.6360 C   0  0  0  0  0  0  0  0  0  0  0  0
   -6.4420  -14.6275   21.7803 N   0  0  0  0  0  0  0  0  0  0  0  0
   -7.4407  -11.9018   20.5598 N   0  0  0  0  0  0  0  0  0  0  0  0
   -7.3876  -10.6334   20.1307 C   0  0  0  0  0  0  0  0  0  0  0  0
   -6.1811  -10.1110   20.3472 N   0  0  0  0  0  0  0  0  0  0  0  0
  2  1  1  6  0  0  0
  2  3  1  0  0  0  0
  2  5  1  0  0  0  0
  3  4  1  0  0  0  0
  3 17  1  0  0  0  0
  5  6  1  0  0  0  0
  7  6  1  6  0  0  0
  7  8  1  0  0  0  0
  7  9  1  0  0  0  0
 10  9  1  6  0  0  0
 10 11  1  0  0  0  0
 10 12  1  0  0  0  0
 11 16  1  0  0  0  0
 12 13  1  1  0  0  0
 12 14  1  0  0  0  0
 14 15  1  6  0  0  0
 14 16  1  0  0  0  0
 16 27  1  1  0  0  0
 18 19  2  0  0  0  0
 18 23  1  0  0  0  0
 19 20  1  0  0  0  0
 20 21  2  0  0  0  0
 21 22  1  0  0  0  0
 21 27  1  0  0  0  0
 22 23  2  0  0  0  0
 22 25  1  0  0  0  0
 23 24  1  0  0  0  0
 25 26  2  0  0  0  0
 26 27  1  0  0  0  0
M  END
>  <CHROM.1>
121.36121651,-171.88914987,-84.11190956,-129.64740066,-175.38308023,40.50579865
68.16069365,-3.96750656,-10.34211842,19.45432228,-0.44401216,-0.80830477
3.07052929

>  <Name>
ligand

>  <RI>
0

>  <Rbt.Current_Directory>
/home/itssahil/PROJECTS/Mol_Feturizer/Test_systems_manuscript/rnas/4kqy

>  <Rbt.Executable>
rbdock ($Id: //depot/dev/client3/rdock/2013.1/src/exe/rbdock.cxx#4 $)

>  <Rbt.Library>
libRbt.so (2013.1, Build901 2013/11/27)

>  <Rbt.Parameter_File>
/export/apps/rDock/src/rDock_2013.1_src/data/scripts/dock_solv.prm

>  <Rbt.Receptor>
prm/pocket_docking_4.prm

>  <SCORE>
-19.3397

>  <SCORE.INTER>
-16.8601

>  <SCORE.INTER.CONST>
1

>  <SCORE.INTER.POLAR>
0

>  <SCORE.INTER.ROT>
7

>  <SCORE.INTER.SOLV>
17.0215

>  <SCORE.INTER.VDW>
-25.1806

>  <SCORE.INTER.norm>
-0.624449

>  <SCORE.INTRA>
-2.47952

>  <SCORE.INTRA.DIHEDRAL>
0.203725

>  <SCORE.INTRA.DIHEDRAL.0>
10.4103

>  <SCORE.INTRA.POLAR>
0

>  <SCORE.INTRA.POLAR.0>
0

>  <SCORE.INTRA.REPUL>
0

>  <SCORE.INTRA.REPUL.0>
0

>  <SCORE.INTRA.SOLV>
-0.471454

>  <SCORE.INTRA.SOLV.lig_0>
-49.5008

>  <SCORE.INTRA.VDW>
-2.34565

>  <SCORE.INTRA.VDW.0>
-2.6946

>  <SCORE.INTRA.norm>
-0.091834

>  <SCORE.RESTR>
0

>  <SCORE.RESTR.CAVITY>
0

>  <SCORE.RESTR.norm>
0

>  <SCORE.SYSTEM>
0

>  <SCORE.SYSTEM.CONST>
0

>  <SCORE.SYSTEM.DIHEDRAL>
0

>  <SCORE.SYSTEM.SOLV>
0

>  <SCORE.SYSTEM.norm>
0

>  <SCORE.heavy>
27

>  <SCORE.norm>
-0.716283

>  <RMSD>
5.105

$$$$
ligand
 OpenBabel02271912153D
libRbt.so/2013.1/901 2013/11/27
 27 29  0  0  0  0  0  0  0  0999 V2000
   -2.4403  -13.3746   18.1721 N   0  0  0  0  0  0  0  0  0  0  0  0
   -2.4846  -12.1854   17.3427 C   0  0  2  0  0  0  0  0  0  0  0  0
   -2.5865  -12.6390   15.9190 C   0  0  0  0  0  0  0  0  0  0  0  0
   -1.8828  -13.5968   15.5322 O   0  0  0  0  0  0  0  0  0  0  0  0
   -1.2205  -11.3453   17.5436 C   0  0  0  0  0  0  0  0  0  0  0  0
   -1.2805  -10.0309   16.7341 C   0  0  0  0  0  0  0  0  0  0  0  0
   -2.5563   -9.0077   17.1093 S   0  0  2  0  0  0  0  0  0  0  0  0
   -2.4957   -7.6688   16.1283 C   0  0  0  0  0  0  0  0  0  0  0  0
   -2.4700   -8.5615   18.7347 C   0  0  0  0  0  0  0  0  0  0  0  0
   -3.7877   -7.9918   19.3013 C   0  0  1  0  0  0  0  0  0  0  0  0
   -4.9497   -8.7237   18.8769 O   0  0  0  0  0  0  0  0  0  0  0  0
   -3.8903   -8.0872   20.8150 C   0  0  1  0  0  0  0  0  0  0  0  0
   -3.1107   -7.1563   21.5924 O   0  0  0  0  0  0  0  0  0  0  0  0
   -5.3802   -7.9391   21.0001 C   0  0  1  0  0  0  0  0  0  0  0  0
   -5.7732   -6.5936   20.7465 O   0  0  0  0  0  0  0  0  0  0  0  0
   -5.9279   -8.8182   19.9150 C   0  0  2  0  0  0  0  0  0  0  0  0
   -3.3977  -12.0713   15.1490 O   0  0  0  0  0  0  0  0  0  0  0  0
   -4.0713  -13.3679   21.9470 N   0  0  0  0  0  0  0  0  0  0  0  0
   -3.4007  -12.2271   21.6547 C   0  0  0  0  0  0  0  0  0  0  0  0
   -4.0007  -11.1442   21.1326 N   0  0  0  0  0  0  0  0  0  0  0  0
   -5.3150  -11.1153   20.8851 C   0  0  0  0  0  0  0  0  0  0  0  0
   -6.0946  -12.3032   21.1990 C   0  0  0  0  0  0  0  0  0  0  0  0
   -5.4217  -13.4988   21.7576 C   0  0  0  0  0  0  0  0  0  0  0  0
   -6.1067  -14.6548   22.0698 N   0  0  0  0  0  0  0  0  0  0  0  0
   -7.3348  -12.0108   20.8792 N   0  0  0  0  0  0  0  0  0  0  0  0
   -7.3737  -10.7661   20.3841 C   0  0  0  0  0  0  0  0  0  0  0  0
   -6.1597  -10.2169   20.3893 N   0  0  0  0  0  0  0  0  0  0  0  0
  2  1  1  1  0  0  0
  2  3  1  0  0  0  0
  2  5  1  0  0  0  0
  3  4  1  0  0  0  0
  3 17  1  0  0  0  0
  5  6  1  0  0  0  0
  7  6  1  6  0  0  0
  7  8  1  0  0  0  0
  7  9  1  0  0  0  0
 10  9  1  6  0  0  0
 10 11  1  0  0  0  0
 10 12  1  0  0  0  0
 11 16  1  0  0  0  0
 12 13  1  1  0  0  0
 12 14  1  0  0  0  0
 14 15  1  6  0  0  0
 14 16  1  0  0  0  0
 16 27  1  1  0  0  0
 18 19  2  0  0  0  0
 18 23  1  0  0  0  0
 19 20  1  0  0  0  0
 20 21  2  0  0  0  0
 21 22  1  0  0  0  0
 21 27  1  0  0  0  0
 22 23  2  0  0  0  0
 22 25  1  0  0  0  0
 23 24  1  0  0  0  0
 25 26  2  0  0  0  0
 26 27  1  0  0  0  0
M  END
>  <CHROM.1>
-42.57756698,-176.63741822,59.85616038,-178.56538187,-162.27221396,42.29726183
56.96534751,-3.99355108,-10.50034635,19.19613298,0.04319893,-0.94773037,-3.09592400

>  <Name>
ligand

>  <RI>
0

>  <Rbt.Current_Directory>
/home/itssahil/PROJECTS/Mol_Feturizer/Test_systems_manuscript/rnas/4kqy

>  <Rbt.Executable>
rbdock ($Id: //depot/dev/client3/rdock/2013.1/src/exe/rbdock.cxx#4 $)

>  <Rbt.Library>
libRbt.so (2013.1, Build901 2013/11/27)

>  <Rbt.Parameter_File>
/export/apps/rDock/src/rDock_2013.1_src/data/scripts/dock_solv.prm

>  <Rbt.Receptor>
prm/pocket_docking_5.prm

>  <SCORE>
-20.3498

>  <SCORE.INTER>
-16.2423

>  <SCORE.INTER.CONST>
1

>  <SCORE.INTER.POLAR>
0

>  <SCORE.INTER.ROT>
7

>  <SCORE.INTER.SOLV>
18.0218

>  <SCORE.INTER.VDW>
-25.1021

>  <SCORE.INTER.norm>
-0.601566

>  <SCORE.INTRA>
-4.10749

>  <SCORE.INTRA.DIHEDRAL>
-5.68943

>  <SCORE.INTRA.DIHEDRAL.0>
10.4103

>  <SCORE.INTRA.POLAR>
0

>  <SCORE.INTRA.POLAR.0>
0

>  <SCORE.INTRA.REPUL>
0

>  <SCORE.INTRA.REPUL.0>
0

>  <SCORE.INTRA.SOLV>
-0.28086

>  <SCORE.INTRA.SOLV.lig_0>
-49.5008

>  <SCORE.INTRA.VDW>
-1.12234

>  <SCORE.INTRA.VDW.0>
-2.6946

>  <SCORE.INTRA.norm>
-0.152129

>  <SCORE.RESTR>
0

>  <SCORE.RESTR.CAVITY>
0

>  <SCORE.RESTR.norm>
0

>  <SCORE.SYSTEM>
0

>  <SCORE.SYSTEM.CONST>
0

>  <SCORE.SYSTEM.DIHEDRAL>
0

>  <SCORE.SYSTEM.SOLV>
0

>  <SCORE.SYSTEM.norm>
0

>  <SCORE.heavy>
27

>  <SCORE.norm>
-0.753695

>  <RMSD>
5.108

$$$$
ligand
 OpenBabel02271912153D
libRbt.so/2013.1/901 2013/11/27
 27 29  0  0  0  0  0  0  0  0999 V2000
   -2.4271  -11.7142   13.2428 N   0  0  0  0  0  0  0  0  0  0  0  0
   -2.7604  -10.3917   13.7369 C   0  0  2  0  0  0  0  0  0  0  0  0
   -1.4726   -9.7024   14.0681 C   0  0  0  0  0  0  0  0  0  0  0  0
   -1.3589   -8.4791   13.8383 O   0  0  0  0  0  0  0  0  0  0  0  0
   -3.6447  -10.4929   14.9827 C   0  0  0  0  0  0  0  0  0  0  0  0
   -4.0458   -9.0960   15.5063 C   0  0  0  0  0  0  0  0  0  0  0  0
   -4.7932   -9.0734   17.0083 S   0  0  2  0  0  0  0  0  0  0  0  0
   -6.4074   -9.4197   16.8260 C   0  0  0  0  0  0  0  0  0  0  0  0
   -4.5844   -7.5603   17.7262 C   0  0  0  0  0  0  0  0  0  0  0  0
   -4.7962   -7.5548   19.2549 C   0  0  1  0  0  0  0  0  0  0  0  0
   -6.1061   -7.9982   19.6466 O   0  0  0  0  0  0  0  0  0  0  0  0
   -3.8977   -8.5311   19.9967 C   0  0  1  0  0  0  0  0  0  0  0  0
   -2.5104   -8.1700   20.1506 O   0  0  0  0  0  0  0  0  0  0  0  0
   -4.6442   -8.6555   21.3019 C   0  0  1  0  0  0  0  0  0  0  0  0
   -4.5000   -7.4606   22.0636 O   0  0  0  0  0  0  0  0  0  0  0  0
   -6.0689   -8.7732   20.8473 C   0  0  2  0  0  0  0  0  0  0  0  0
   -0.5433  -10.3568   14.5985 O   0  0  0  0  0  0  0  0  0  0  0  0
   -5.2409  -13.9656   21.6406 N   0  0  0  0  0  0  0  0  0  0  0  0
   -4.5088  -12.9090   22.0700 C   0  0  0  0  0  0  0  0  0  0  0  0
   -4.8332  -11.6363   21.7867 N   0  0  0  0  0  0  0  0  0  0  0  0
   -5.9218  -11.3267   21.0736 C   0  0  0  0  0  0  0  0  0  0  0  0
   -6.7619  -12.4176   20.6027 C   0  0  0  0  0  0  0  0  0  0  0  0
   -6.3868  -13.8185   20.9044 C   0  0  0  0  0  0  0  0  0  0  0  0
   -7.1402  -14.8935   20.4807 N   0  0  0  0  0  0  0  0  0  0  0  0
   -7.7527  -11.8500   19.9531 N   0  0  0  0  0  0  0  0  0  0  0  0
   -7.5792  -10.5213   19.9711 C   0  0  0  0  0  0  0  0  0  0  0  0
   -6.4794  -10.1971   20.6499 N   0  0  0  0  0  0  0  0  0  0  0  0
  2  1  1  1  0  0  0
  2  3  1  0  0  0  0
  2  5  1  0  0  0  0
  3  4  1  0  0  0  0
  3 17  1  0  0  0  0
  5  6  1  0  0  0  0
  7  6  1  6  0  0  0
  7  8  1  0  0  0  0
  7  9  1  0  0  0  0
 10  9  1  6  0  0  0
 10 11  1  0  0  0  0
 10 12  1  0  0  0  0
 11 16  1  0  0  0  0
 12 13  1  1  0  0  0
 12 14  1  0  0  0  0
 14 15  1  1  0  0  0
 14 16  1  0  0  0  0
 16 27  1  6  0  0  0
 18 19  2  0  0  0  0
 18 23  1  0  0  0  0
 19 20  1  0  0  0  0
 20 21  2  0  0  0  0
 21 22  1  0  0  0  0
 21 27  1  0  0  0  0
 22 23  2  0  0  0  0
 22 25  1  0  0  0  0
 23 24  1  0  0  0  0
 25 26  2  0  0  0  0
 26 27  1  0  0  0  0
M  END
>  <CHROM.1>
142.78942410,-178.44376645,-170.02981087,-82.13682513,-160.50699523,-58.87309141
133.62201869,-4.65568459,-10.12766311,18.52790148,0.17254002,-1.07578981
-2.66977588

>  <Name>
ligand

>  <RI>
0

>  <Rbt.Current_Directory>
/home/itssahil/PROJECTS/Mol_Feturizer/Test_systems_manuscript/rnas/4kqy

>  <Rbt.Executable>
rbdock ($Id: //depot/dev/client3/rdock/2013.1/src/exe/rbdock.cxx#4 $)

>  <Rbt.Library>
libRbt.so (2013.1, Build901 2013/11/27)

>  <Rbt.Parameter_File>
/export/apps/rDock/src/rDock_2013.1_src/data/scripts/dock_solv.prm

>  <Rbt.Receptor>
prm/pocket_docking_5.prm

>  <SCORE>
-16.8126

>  <SCORE.INTER>
-13.8571

>  <SCORE.INTER.CONST>
1

>  <SCORE.INTER.POLAR>
0

>  <SCORE.INTER.ROT>
7

>  <SCORE.INTER.SOLV>
13.2662

>  <SCORE.INTER.VDW>
-21.9268

>  <SCORE.INTER.norm>
-0.513225

>  <SCORE.INTRA>
-2.95556

>  <SCORE.INTRA.DIHEDRAL>
-4.77622

>  <SCORE.INTRA.DIHEDRAL.0>
10.4103

>  <SCORE.INTRA.POLAR>
0

>  <SCORE.INTRA.POLAR.0>
0

>  <SCORE.INTRA.REPUL>
0

>  <SCORE.INTRA.REPUL.0>
0

>  <SCORE.INTRA.SOLV>
-0.431446

>  <SCORE.INTRA.SOLV.lig_0>
-49.5008

>  <SCORE.INTRA.VDW>
-0.351728

>  <SCORE.INTRA.VDW.0>
-2.6946

>  <SCORE.INTRA.norm>
-0.109465

>  <SCORE.RESTR>
0

>  <SCORE.RESTR.CAVITY>
0

>  <SCORE.RESTR.norm>
0

>  <SCORE.SYSTEM>
0

>  <SCORE.SYSTEM.CONST>
0

>  <SCORE.SYSTEM.DIHEDRAL>
0

>  <SCORE.SYSTEM.SOLV>
0

>  <SCORE.SYSTEM.norm>
0

>  <SCORE.heavy>
27

>  <SCORE.norm>
-0.62269

>  <RMSD>
5.117

$$$$
ligand
 OpenBabel02271912153D
libRbt.so/2013.1/901 2013/11/27
 27 29  0  0  0  0  0  0  0  0999 V2000
   -0.9605   -9.6780   12.9354 N   0  0  0  0  0  0  0  0  0  0  0  0
   -1.1612  -10.8344   13.7879 C   0  0  2  0  0  0  0  0  0  0  0  0
   -1.4443  -12.0026   12.8945 C   0  0  0  0  0  0  0  0  0  0  0  0
   -1.3656  -13.1598   13.3602 O   0  0  0  0  0  0  0  0  0  0  0  0
   -2.3351  -10.5985   14.7421 C   0  0  0  0  0  0  0  0  0  0  0  0
   -2.0362   -9.4523   15.7337 C   0  0  0  0  0  0  0  0  0  0  0  0
   -3.2344   -9.1453   16.8674 S   0  0  2  0  0  0  0  0  0  0  0  0
   -4.4902   -8.3395   16.1378 C   0  0  0  0  0  0  0  0  0  0  0  0
   -2.5976   -8.2339   18.1373 C   0  0  0  0  0  0  0  0  0  0  0  0
   -3.3585   -8.3949   19.4703 C   0  0  1  0  0  0  0  0  0  0  0  0
   -4.7233   -7.9494   19.4006 O   0  0  0  0  0  0  0  0  0  0  0  0
   -3.5209   -9.8419   19.9069 C   0  0  1  0  0  0  0  0  0  0  0  0
   -2.3605  -10.5059   20.4467 O   0  0  0  0  0  0  0  0  0  0  0  0
   -4.6587   -9.7076   20.8884 C   0  0  1  0  0  0  0  0  0  0  0  0
   -4.2044   -9.0729   22.0800 O   0  0  0  0  0  0  0  0  0  0  0  0
   -5.5947   -8.7809   20.1706 C   0  0  2  0  0  0  0  0  0  0  0  0
   -1.7855  -11.7988   11.7048 O   0  0  0  0  0  0  0  0  0  0  0  0
   -8.9978  -12.8228   19.5724 N   0  0  0  0  0  0  0  0  0  0  0  0
   -8.2139  -12.5169   20.6348 C   0  0  0  0  0  0  0  0  0  0  0  0
   -7.3867  -11.4582   20.6473 N   0  0  0  0  0  0  0  0  0  0  0  0
   -7.2987  -10.6181   19.6100 C   0  0  0  0  0  0  0  0  0  0  0  0
   -8.1329  -10.8806   18.4470 C   0  0  0  0  0  0  0  0  0  0  0  0
   -9.0287  -12.0602   18.4347 C   0  0  0  0  0  0  0  0  0  0  0  0
   -9.8382  -12.3631   17.3596 N   0  0  0  0  0  0  0  0  0  0  0  0
   -7.8686   -9.9171   17.5938 N   0  0  0  0  0  0  0  0  0  0  0  0
   -6.9399   -9.1098   18.1244 C   0  0  0  0  0  0  0  0  0  0  0  0
   -6.5946   -9.5230   19.3432 N   0  0  0  0  0  0  0  0  0  0  0  0
  2  1  1  6  0  0  0
  2  3  1  0  0  0  0
  2  5  1  0  0  0  0
  3  4  1  0  0  0  0
  3 17  1  0  0  0  0
  5  6  1  0  0  0  0
  7  6  1  6  0  0  0
  7  8  1  0  0  0  0
  7  9  1  0  0  0  0
 10  9  1  6  0  0  0
 10 11  1  0  0  0  0
 10 12  1  0  0  0  0
 11 16  1  0  0  0  0
 12 13  1  1  0  0  0
 12 14  1  0  0  0  0
 14 15  1  1  0  0  0
 14 16  1  0  0  0  0
 16 27  1  6  0  0  0
 18 19  2  0  0  0  0
 18 23  1  0  0  0  0
 19 20  1  0  0  0  0
 20 21  2  0  0  0  0
 21 22  1  0  0  0  0
 21 27  1  0  0  0  0
 22 23  2  0  0  0  0
 22 25  1  0  0  0  0
 23 24  1  0  0  0  0
 25 26  2  0  0  0  0
 26 27  1  0  0  0  0
M  END
>  <CHROM.1>
164.54256869,-64.96646319,-177.75769865,-75.61669117,-154.99827370,-62.47542933
159.34229873,-4.64843306,-10.25267684,17.64410336,0.73017310,-0.42568731
-2.02624882

>  <Name>
ligand

>  <RI>
0

>  <Rbt.Current_Directory>
/home/itssahil/PROJECTS/Mol_Feturizer/Test_systems_manuscript/rnas/4kqy

>  <Rbt.Executable>
rbdock ($Id: //depot/dev/client3/rdock/2013.1/src/exe/rbdock.cxx#4 $)

>  <Rbt.Library>
libRbt.so (2013.1, Build901 2013/11/27)

>  <Rbt.Parameter_File>
/export/apps/rDock/src/rDock_2013.1_src/data/scripts/dock_solv.prm

>  <Rbt.Receptor>
prm/pocket_docking_7.prm

>  <SCORE>
-12.1151

>  <SCORE.INTER>
-9.62178

>  <SCORE.INTER.CONST>
1

>  <SCORE.INTER.POLAR>
0

>  <SCORE.INTER.ROT>
7

>  <SCORE.INTER.SOLV>
10.4489

>  <SCORE.INTER.VDW>
-18.1642

>  <SCORE.INTER.norm>
-0.356362

>  <SCORE.INTRA>
-2.49328

>  <SCORE.INTRA.DIHEDRAL>
-5.1

>  <SCORE.INTRA.DIHEDRAL.0>
10.4103

>  <SCORE.INTRA.POLAR>
0

>  <SCORE.INTRA.POLAR.0>
0

>  <SCORE.INTRA.REPUL>
0

>  <SCORE.INTRA.REPUL.0>
0

>  <SCORE.INTRA.SOLV>
0.251286

>  <SCORE.INTRA.SOLV.lig_0>
-49.5008

>  <SCORE.INTRA.VDW>
-0.0689171

>  <SCORE.INTRA.VDW.0>
-2.6946

>  <SCORE.INTRA.norm>
-0.0923435

>  <SCORE.RESTR>
0

>  <SCORE.RESTR.CAVITY>
0

>  <SCORE.RESTR.norm>
0

>  <SCORE.SYSTEM>
0

>  <SCORE.SYSTEM.CONST>
0

>  <SCORE.SYSTEM.DIHEDRAL>
0

>  <SCORE.SYSTEM.SOLV>
0

>  <SCORE.SYSTEM.norm>
0

>  <SCORE.heavy>
27

>  <SCORE.norm>
-0.448706

>  <RMSD>
5.118

$$$$
ligand
 OpenBabel02271912153D
libRbt.so/2013.1/901 2013/11/27
 27 29  0  0  0  0  0  0  0  0999 V2000
   -0.6904  -13.0857   17.0419 N   0  0  0  0  0  0  0  0  0  0  0  0
   -2.0746  -13.0858   17.4755 C   0  0  2  0  0  0  0  0  0  0  0  0
   -2.8819  -13.7254   16.3880 C   0  0  0  0  0  0  0  0  0  0  0  0
   -2.3173  -14.4961   15.5822 O   0  0  0  0  0  0  0  0  0  0  0  0
   -2.5577  -11.6544   17.7241 C   0  0  0  0  0  0  0  0  0  0  0  0
   -2.2911  -10.7475   16.5023 C   0  0  0  0  0  0  0  0  0  0  0  0
   -2.9737   -9.2165   16.5749 S   0  0  2  0  0  0  0  0  0  0  0  0
   -2.1653   -8.2028   15.5368 C   0  0  0  0  0  0  0  0  0  0  0  0
   -2.8995   -8.6337   18.1571 C   0  0  0  0  0  0  0  0  0  0  0  0
   -4.2795   -8.4247   18.8157 C   0  0  1  0  0  0  0  0  0  0  0  0
   -5.1114   -9.5960   18.7712 O   0  0  0  0  0  0  0  0  0  0  0  0
   -4.2051   -8.1470   20.3084 C   0  0  1  0  0  0  0  0  0  0  0  0
   -3.7699   -6.8349   20.7180 O   0  0  0  0  0  0  0  0  0  0  0  0
   -5.6182   -8.4776   20.7210 C   0  0  1  0  0  0  0  0  0  0  0  0
   -6.5109   -7.4673   20.2614 O   0  0  0  0  0  0  0  0  0  0  0  0
   -5.8861   -9.7443   19.9634 C   0  0  2  0  0  0  0  0  0  0  0  0
   -4.1144  -13.5016   16.3241 O   0  0  0  0  0  0  0  0  0  0  0  0
   -6.4700  -14.9329   20.9700 N   0  0  0  0  0  0  0  0  0  0  0  0
   -7.0798  -14.1720   20.0289 C   0  0  0  0  0  0  0  0  0  0  0  0
   -6.8407  -12.8572   19.8897 N   0  0  0  0  0  0  0  0  0  0  0  0
   -5.9612  -12.2132   20.6650 C   0  0  0  0  0  0  0  0  0  0  0  0
   -5.2568  -12.9811   21.6807 C   0  0  0  0  0  0  0  0  0  0  0  0
   -5.5399  -14.4264   21.8389 C   0  0  0  0  0  0  0  0  0  0  0  0
   -4.9080  -15.2044   22.7866 N   0  0  0  0  0  0  0  0  0  0  0  0
   -4.4577  -12.1289   22.2818 N   0  0  0  0  0  0  0  0  0  0  0  0
   -4.6279  -10.9160   21.7379 C   0  0  0  0  0  0  0  0  0  0  0  0
   -5.5297  -10.9596   20.7579 N   0  0  0  0  0  0  0  0  0  0  0  0
  2  1  1  6  0  0  0
  2  3  1  0  0  0  0
  2  5  1  0  0  0  0
  3  4  1  0  0  0  0
  3 17  1  0  0  0  0
  5  6  1  0  0  0  0
  7  6  1  1  0  0  0
  7  8  1  0  0  0  0
  7  9  1  0  0  0  0
 10  9  1  1  0  0  0
 10 11  1  0  0  0  0
 10 12  1  0  0  0  0
 11 16  1  0  0  0  0
 12 13  1  6  0  0  0
 12 14  1  0  0  0  0
 14 15  1  6  0  0  0
 14 16  1  0  0  0  0
 16 27  1  1  0  0  0
 18 19  2  0  0  0  0
 18 23  1  0  0  0  0
 19 20  1  0  0  0  0
 20 21  2  0  0  0  0
 21 22  1  0  0  0  0
 21 27  1  0  0  0  0
 22 23  2  0  0  0  0
 22 25  1  0  0  0  0
 23 24  1  0  0  0  0
 25 26  2  0  0  0  0
 26 27  1  0  0  0  0
M  END
>  <CHROM.1>
22.70281066,52.63787659,171.61079742,158.80436648,-115.36574669,53.74755495
-86.35424218,-4.23760846,-11.16559494,19.04636161,-0.64354714,-0.97372258
-3.13370056

>  <Name>
ligand

>  <RI>
0

>  <Rbt.Current_Directory>
/home/itssahil/PROJECTS/Mol_Feturizer/Test_systems_manuscript/rnas/4kqy

>  <Rbt.Executable>
rbdock ($Id: //depot/dev/client3/rdock/2013.1/src/exe/rbdock.cxx#4 $)

>  <Rbt.Library>
libRbt.so (2013.1, Build901 2013/11/27)

>  <Rbt.Parameter_File>
/export/apps/rDock/src/rDock_2013.1_src/data/scripts/dock_solv.prm

>  <Rbt.Receptor>
prm/pocket_docking_2.prm

>  <SCORE>
-7.12786

>  <SCORE.INTER>
-9.05123

>  <SCORE.INTER.CONST>
1

>  <SCORE.INTER.POLAR>
0

>  <SCORE.INTER.ROT>
7

>  <SCORE.INTER.SOLV>
21.1578

>  <SCORE.INTER.VDW>
-21.3534

>  <SCORE.INTER.norm>
-0.335231

>  <SCORE.INTRA>
1.39655

>  <SCORE.INTRA.DIHEDRAL>
-1.04152

>  <SCORE.INTRA.DIHEDRAL.0>
10.4103

>  <SCORE.INTRA.POLAR>
0

>  <SCORE.INTRA.POLAR.0>
0

>  <SCORE.INTRA.REPUL>
0

>  <SCORE.INTRA.REPUL.0>
0

>  <SCORE.INTRA.SOLV>
0.233862

>  <SCORE.INTRA.SOLV.lig_0>
-49.5008

>  <SCORE.INTRA.VDW>
1.80038

>  <SCORE.INTRA.VDW.0>
-2.6946

>  <SCORE.INTRA.norm>
0.0517242

>  <SCORE.RESTR>
0.52682

>  <SCORE.RESTR.CAVITY>
0.52682

>  <SCORE.RESTR.norm>
0.0195119

>  <SCORE.SYSTEM>
0

>  <SCORE.SYSTEM.CONST>
0

>  <SCORE.SYSTEM.DIHEDRAL>
0

>  <SCORE.SYSTEM.SOLV>
0

>  <SCORE.SYSTEM.norm>
0

>  <SCORE.heavy>
27

>  <SCORE.norm>
-0.263995

>  <RMSD>
5.132

$$$$
ligand
 OpenBabel02271912153D
libRbt.so/2013.1/901 2013/11/27
 27 29  0  0  0  0  0  0  0  0999 V2000
   -2.4844  -13.3215   18.1358 N   0  0  0  0  0  0  0  0  0  0  0  0
   -2.4584  -12.2020   17.2137 C   0  0  2  0  0  0  0  0  0  0  0  0
   -2.4549  -12.7675   15.8268 C   0  0  0  0  0  0  0  0  0  0  0  0
   -3.1371  -12.2111   14.9396 O   0  0  0  0  0  0  0  0  0  0  0  0
   -1.2079  -11.3488   17.4428 C   0  0  0  0  0  0  0  0  0  0  0  0
   -1.2880  -10.0107   16.6750 C   0  0  0  0  0  0  0  0  0  0  0  0
   -2.5460   -8.9943   17.1218 S   0  0  2  0  0  0  0  0  0  0  0  0
   -2.5052   -7.6227   16.1860 C   0  0  0  0  0  0  0  0  0  0  0  0
   -2.4104   -8.6049   18.7584 C   0  0  0  0  0  0  0  0  0  0  0  0
   -3.6873   -7.9863   19.3656 C   0  0  1  0  0  0  0  0  0  0  0  0
   -4.8933   -8.6362   18.9307 O   0  0  0  0  0  0  0  0  0  0  0  0
   -3.7760   -8.1345   20.8759 C   0  0  1  0  0  0  0  0  0  0  0  0
   -2.9363   -7.2787   21.6766 O   0  0  0  0  0  0  0  0  0  0  0  0
   -5.2530   -7.9122   21.0884 C   0  0  1  0  0  0  0  0  0  0  0  0
   -5.5740   -6.5384   20.8919 O   0  0  0  0  0  0  0  0  0  0  0  0
   -5.8621   -8.7172   19.9788 C   0  0  2  0  0  0  0  0  0  0  0  0
   -1.7439  -13.7690   15.5726 O   0  0  0  0  0  0  0  0  0  0  0  0
   -4.2388  -13.4289   21.8335 N   0  0  0  0  0  0  0  0  0  0  0  0
   -3.5105  -12.3146   21.5794 C   0  0  0  0  0  0  0  0  0  0  0  0
   -4.0550  -11.1835   21.1004 N   0  0  0  0  0  0  0  0  0  0  0  0
   -5.3668  -11.0772   20.8611 C   0  0  0  0  0  0  0  0  0  0  0  0
   -6.2063  -12.2336   21.1354 C   0  0  0  0  0  0  0  0  0  0  0  0
   -5.5949  -13.4823   21.6465 C   0  0  0  0  0  0  0  0  0  0  0  0
   -6.3382  -14.6117   21.9198 N   0  0  0  0  0  0  0  0  0  0  0  0
   -7.4306  -11.8655   20.8331 N   0  0  0  0  0  0  0  0  0  0  0  0
   -7.4061  -10.6031   20.3840 C   0  0  0  0  0  0  0  0  0  0  0  0
   -6.1650  -10.1184   20.4028 N   0  0  0  0  0  0  0  0  0  0  0  0
  2  1  1  1  0  0  0
  2  3  1  0  0  0  0
  2  5  1  0  0  0  0
  3  4  1  0  0  0  0
  3 17  1  0  0  0  0
  5  6  1  0  0  0  0
  7  6  1  6  0  0  0
  7  8  1  0  0  0  0
  7  9  1  0  0  0  0
 10  9  1  6  0  0  0
 10 11  1  0  0  0  0
 10 12  1  0  0  0  0
 11 16  1  0  0  0  0
 12 13  1  1  0  0  0
 12 14  1  0  0  0  0
 14 15  1  6  0  0  0
 14 16  1  0  0  0  0
 16 27  1  1  0  0  0
 18 19  2  0  0  0  0
 18 23  1  0  0  0  0
 19 20  1  0  0  0  0
 20 21  2  0  0  0  0
 21 22  1  0  0  0  0
 21 27  1  0  0  0  0
 22 23  2  0  0  0  0
 22 25  1  0  0  0  0
 23 24  1  0  0  0  0
 25 26  2  0  0  0  0
 26 27  1  0  0  0  0
M  END
>  <CHROM.1>
140.16170781,-168.88205783,62.10678525,-178.92120257,-165.00906980,41.80988130
57.53650516,-3.97443317,-10.49727001,19.17976920,0.17986542,-0.93068490,-3.02978603

>  <Name>
ligand

>  <RI>
0

>  <Rbt.Current_Directory>
/home/itssahil/PROJECTS/Mol_Feturizer/Test_systems_manuscript/rnas/4kqy

>  <Rbt.Executable>
rbdock ($Id: //depot/dev/client3/rdock/2013.1/src/exe/rbdock.cxx#4 $)

>  <Rbt.Library>
libRbt.so (2013.1, Build901 2013/11/27)

>  <Rbt.Parameter_File>
/export/apps/rDock/src/rDock_2013.1_src/data/scripts/dock_solv.prm

>  <Rbt.Receptor>
prm/pocket_docking_6.prm

>  <SCORE>
-20.3592

>  <SCORE.INTER>
-16.4106

>  <SCORE.INTER.CONST>
1

>  <SCORE.INTER.POLAR>
0

>  <SCORE.INTER.ROT>
7

>  <SCORE.INTER.SOLV>
17.4353

>  <SCORE.INTER.VDW>
-25.0188

>  <SCORE.INTER.norm>
-0.607799

>  <SCORE.INTRA>
-3.94863

>  <SCORE.INTRA.DIHEDRAL>
-5.53214

>  <SCORE.INTRA.DIHEDRAL.0>
10.4103

>  <SCORE.INTRA.POLAR>
0

>  <SCORE.INTRA.POLAR.0>
0

>  <SCORE.INTRA.REPUL>
0

>  <SCORE.INTRA.REPUL.0>
0

>  <SCORE.INTRA.SOLV>
-0.207141

>  <SCORE.INTRA.SOLV.lig_0>
-49.5008

>  <SCORE.INTRA.VDW>
-1.07899

>  <SCORE.INTRA.VDW.0>
-2.6946

>  <SCORE.INTRA.norm>
-0.146245

>  <SCORE.RESTR>
0

>  <SCORE.RESTR.CAVITY>
0

>  <SCORE.RESTR.norm>
0

>  <SCORE.SYSTEM>
0

>  <SCORE.SYSTEM.CONST>
0

>  <SCORE.SYSTEM.DIHEDRAL>
0

>  <SCORE.SYSTEM.SOLV>
0

>  <SCORE.SYSTEM.norm>
0

>  <SCORE.heavy>
27

>  <SCORE.norm>
-0.754044

>  <RMSD>
5.132

$$$$
ligand
 OpenBabel02271912153D
libRbt.so/2013.1/901 2013/11/27
 27 29  0  0  0  0  0  0  0  0999 V2000
   -0.1038  -10.5831   14.3440 N   0  0  0  0  0  0  0  0  0  0  0  0
   -0.4700  -10.9126   15.7084 C   0  0  2  0  0  0  0  0  0  0  0  0
    0.6003  -11.8077   16.2530 C   0  0  0  0  0  0  0  0  0  0  0  0
    0.9690  -11.6659   17.4388 O   0  0  0  0  0  0  0  0  0  0  0  0
   -1.8254  -11.6239   15.7418 C   0  0  0  0  0  0  0  0  0  0  0  0
   -2.9815  -10.6532   15.4135 C   0  0  0  0  0  0  0  0  0  0  0  0
   -3.2945   -9.4820   16.5735 S   0  0  2  0  0  0  0  0  0  0  0  0
   -2.3569   -8.1443   16.2730 C   0  0  0  0  0  0  0  0  0  0  0  0
   -2.9750  -10.1021   18.1103 C   0  0  0  0  0  0  0  0  0  0  0  0
   -3.7638   -9.4124   19.2434 C   0  0  1  0  0  0  0  0  0  0  0  0
   -5.1884   -9.4852   19.0671 O   0  0  0  0  0  0  0  0  0  0  0  0
   -3.5798  -10.0713   20.6009 C   0  0  1  0  0  0  0  0  0  0  0  0
   -2.3301   -9.8455   21.2836 O   0  0  0  0  0  0  0  0  0  0  0  0
   -4.7823   -9.5311   21.3347 C   0  0  1  0  0  0  0  0  0  0  0  0
   -4.5945   -8.1506   21.6316 O   0  0  0  0  0  0  0  0  0  0  0  0
   -5.8703   -9.6644   20.3107 C   0  0  2  0  0  0  0  0  0  0  0  0
    1.0848  -12.7032   15.5205 O   0  0  0  0  0  0  0  0  0  0  0  0
   -5.8564  -14.9675   19.9197 N   0  0  0  0  0  0  0  0  0  0  0  0
   -4.8444  -14.0928   19.7022 C   0  0  0  0  0  0  0  0  0  0  0  0
   -4.9913  -12.7636   19.8321 N   0  0  0  0  0  0  0  0  0  0  0  0
   -6.1516  -12.2147   20.2086 C   0  0  0  0  0  0  0  0  0  0  0  0
   -7.2712  -13.1040   20.4790 C   0  0  0  0  0  0  0  0  0  0  0  0
   -7.1052  -14.5669   20.3158 C   0  0  0  0  0  0  0  0  0  0  0  0
   -8.1308  -15.4586   20.5521 N   0  0  0  0  0  0  0  0  0  0  0  0
   -8.2670  -12.3254   20.8368 N   0  0  0  0  0  0  0  0  0  0  0  0
   -7.8596  -11.0496   20.7890 C   0  0  0  0  0  0  0  0  0  0  0  0
   -6.5826  -10.9746   20.4159 N   0  0  0  0  0  0  0  0  0  0  0  0
  2  1  1  6  0  0  0
  2  3  1  0  0  0  0
  2  5  1  0  0  0  0
  3  4  1  0  0  0  0
  3 17  1  0  0  0  0
  5  6  1  0  0  0  0
  7  6  1  6  0  0  0
  7  8  1  0  0  0  0
  7  9  1  0  0  0  0
 10  9  1  6  0  0  0
 10 11  1  0  0  0  0
 10 12  1  0  0  0  0
 11 16  1  0  0  0  0
 12 13  1  1  0  0  0
 12 14  1  0  0  0  0
 14 15  1  6  0  0  0
 14 16  1  0  0  0  0
 16 27  1  6  0  0  0
 18 19  2  0  0  0  0
 18 23  1  0  0  0  0
 19 20  1  0  0  0  0
 20 21  2  0  0  0  0
 21 22  1  0  0  0  0
 21 27  1  0  0  0  0
 22 23  2  0  0  0  0
 22 25  1  0  0  0  0
 23 24  1  0  0  0  0
 25 26  2  0  0  0  0
 26 27  1  0  0  0  0
M  END
>  <CHROM.1>
140.92965813,-71.15522421,-68.93033898,88.58476502,-154.72291708,58.28879461
51.46575139,-3.89056111,-11.16427939,18.67218695,-0.04557719,-0.67430810
-2.87883925

>  <Name>
ligand

>  <RI>
0

>  <Rbt.Current_Directory>
/home/itssahil/PROJECTS/Mol_Feturizer/Test_systems_manuscript/rnas/4kqy

>  <Rbt.Executable>
rbdock ($Id: //depot/dev/client3/rdock/2013.1/src/exe/rbdock.cxx#4 $)

>  <Rbt.Library>
libRbt.so (2013.1, Build901 2013/11/27)

>  <Rbt.Parameter_File>
/export/apps/rDock/src/rDock_2013.1_src/data/scripts/dock_solv.prm

>  <Rbt.Receptor>
prm/pocket_docking_8.prm

>  <SCORE>
-10.7578

>  <SCORE.INTER>
-9.61314

>  <SCORE.INTER.CONST>
1

>  <SCORE.INTER.POLAR>
0

>  <SCORE.INTER.ROT>
7

>  <SCORE.INTER.SOLV>
14.756

>  <SCORE.INTER.VDW>
-19.5941

>  <SCORE.INTER.norm>
-0.356042

>  <SCORE.INTRA>
-1.16372

>  <SCORE.INTRA.DIHEDRAL>
-3.12497

>  <SCORE.INTRA.DIHEDRAL.0>
10.4103

>  <SCORE.INTRA.POLAR>
0

>  <SCORE.INTRA.POLAR.0>
0

>  <SCORE.INTRA.REPUL>
0

>  <SCORE.INTRA.REPUL.0>
0

>  <SCORE.INTRA.SOLV>
1.12385

>  <SCORE.INTRA.SOLV.lig_0>
-49.5008

>  <SCORE.INTRA.VDW>
-0.163158

>  <SCORE.INTRA.VDW.0>
-2.6946

>  <SCORE.INTRA.norm>
-0.0431006

>  <SCORE.RESTR>
0.0190698

>  <SCORE.RESTR.CAVITY>
0.0190698

>  <SCORE.RESTR.norm>
0.000706287

>  <SCORE.SYSTEM>
0

>  <SCORE.SYSTEM.CONST>
0

>  <SCORE.SYSTEM.DIHEDRAL>
0

>  <SCORE.SYSTEM.SOLV>
0

>  <SCORE.SYSTEM.norm>
0

>  <SCORE.heavy>
27

>  <SCORE.norm>
-0.398437

>  <RMSD>
5.133

$$$$
ligand
 OpenBabel02271912153D
libRbt.so/2013.1/901 2013/11/27
 27 29  0  0  0  0  0  0  0  0999 V2000
   -2.5504  -13.4241   18.0349 N   0  0  0  0  0  0  0  0  0  0  0  0
   -2.4733  -12.2805   17.1458 C   0  0  2  0  0  0  0  0  0  0  0  0
   -2.3147  -12.8089   15.7534 C   0  0  0  0  0  0  0  0  0  0  0  0
   -1.4985  -13.7313   15.5404 O   0  0  0  0  0  0  0  0  0  0  0  0
   -1.2816  -11.3937   17.5166 C   0  0  0  0  0  0  0  0  0  0  0  0
   -1.3244  -10.0454   16.7637 C   0  0  0  0  0  0  0  0  0  0  0  0
   -2.5928   -9.0269   17.1748 S   0  0  2  0  0  0  0  0  0  0  0  0
   -2.5895   -7.7077   16.1657 C   0  0  0  0  0  0  0  0  0  0  0  0
   -2.4394   -8.5471   18.7856 C   0  0  0  0  0  0  0  0  0  0  0  0
   -3.7244   -7.9380   19.3855 C   0  0  1  0  0  0  0  0  0  0  0  0
   -4.9231   -8.5954   18.9418 O   0  0  0  0  0  0  0  0  0  0  0  0
   -3.8218   -8.0894   20.8949 C   0  0  1  0  0  0  0  0  0  0  0  0
   -2.9931   -7.2292   21.7024 O   0  0  0  0  0  0  0  0  0  0  0  0
   -5.3016   -7.8773   21.0982 C   0  0  1  0  0  0  0  0  0  0  0  0
   -5.6306   -6.5054   20.9019 O   0  0  0  0  0  0  0  0  0  0  0  0
   -5.8981   -8.6846   19.9835 C   0  0  2  0  0  0  0  0  0  0  0  0
   -3.0250  -12.3393   14.8325 O   0  0  0  0  0  0  0  0  0  0  0  0
   -4.2356  -13.4332   21.7048 N   0  0  0  0  0  0  0  0  0  0  0  0
   -3.5095  -12.3219   21.4321 C   0  0  0  0  0  0  0  0  0  0  0  0
   -4.0647  -11.1802   20.9920 N   0  0  0  0  0  0  0  0  0  0  0  0
   -5.3849  -11.0598   20.8133 C   0  0  0  0  0  0  0  0  0  0  0  0
   -6.2216  -12.2125   21.1108 C   0  0  0  0  0  0  0  0  0  0  0  0
   -5.5991  -13.4727   21.5783 C   0  0  0  0  0  0  0  0  0  0  0  0
   -6.3396  -14.5992   21.8708 N   0  0  0  0  0  0  0  0  0  0  0  0
   -7.4549  -11.8302   20.8684 N   0  0  0  0  0  0  0  0  0  0  0  0
   -7.4392  -10.5624   20.4343 C   0  0  0  0  0  0  0  0  0  0  0  0
   -6.1942  -10.0885   20.4033 N   0  0  0  0  0  0  0  0  0  0  0  0
  2  1  1  1  0  0  0
  2  3  1  0  0  0  0
  2  5  1  0  0  0  0
  3  4  1  0  0  0  0
  3 17  1  0  0  0  0
  5  6  1  0  0  0  0
  7  6  1  6  0  0  0
  7  8  1  0  0  0  0
  7  9  1  0  0  0  0
 10  9  1  6  0  0  0
 10 11  1  0  0  0  0
 10 12  1  0  0  0  0
 11 16  1  0  0  0  0
 12 13  1  1  0  0  0
 12 14  1  0  0  0  0
 14 15  1  6  0  0  0
 14 16  1  0  0  0  0
 16 27  1  1  0  0  0
 18 19  2  0  0  0  0
 18 23  1  0  0  0  0
 19 20  1  0  0  0  0
 20 21  2  0  0  0  0
 21 22  1  0  0  0  0
 21 27  1  0  0  0  0
 22 23  2  0  0  0  0
 22 25  1  0  0  0  0
 23 24  1  0  0  0  0
 25 26  2  0  0  0  0
 26 27  1  0  0  0  0
M  END
>  <CHROM.1>
-45.15713572,-169.51701083,66.46383121,-173.82337296,-164.07684859,38.05407636
54.39785233,-3.98621527,-10.49960938,19.16372079,0.28509294,-0.91948561,-3.03785924

>  <Name>
ligand

>  <RI>
0

>  <Rbt.Current_Directory>
/home/itssahil/PROJECTS/Mol_Feturizer/Test_systems_manuscript/rnas/4kqy

>  <Rbt.Executable>
rbdock ($Id: //depot/dev/client3/rdock/2013.1/src/exe/rbdock.cxx#4 $)

>  <Rbt.Library>
libRbt.so (2013.1, Build901 2013/11/27)

>  <Rbt.Parameter_File>
/export/apps/rDock/src/rDock_2013.1_src/data/scripts/dock_solv.prm

>  <Rbt.Receptor>
prm/pocket_docking_6.prm

>  <SCORE>
-20.183

>  <SCORE.INTER>
-16.4808

>  <SCORE.INTER.CONST>
1

>  <SCORE.INTER.POLAR>
0

>  <SCORE.INTER.ROT>
7

>  <SCORE.INTER.SOLV>
17.2165

>  <SCORE.INTER.VDW>
-24.9927

>  <SCORE.INTER.norm>
-0.610402

>  <SCORE.INTRA>
-3.7021

>  <SCORE.INTRA.DIHEDRAL>
-4.73984

>  <SCORE.INTRA.DIHEDRAL.0>
10.4103

>  <SCORE.INTRA.POLAR>
0

>  <SCORE.INTRA.POLAR.0>
0

>  <SCORE.INTRA.REPUL>
0

>  <SCORE.INTRA.REPUL.0>
0

>  <SCORE.INTRA.SOLV>
-0.221459

>  <SCORE.INTRA.SOLV.lig_0>
-49.5008

>  <SCORE.INTRA.VDW>
-1.22145

>  <SCORE.INTRA.VDW.0>
-2.6946

>  <SCORE.INTRA.norm>
-0.137115

>  <SCORE.RESTR>
0

>  <SCORE.RESTR.CAVITY>
0

>  <SCORE.RESTR.norm>
0

>  <SCORE.SYSTEM>
0

>  <SCORE.SYSTEM.CONST>
0

>  <SCORE.SYSTEM.DIHEDRAL>
0

>  <SCORE.SYSTEM.SOLV>
0

>  <SCORE.SYSTEM.norm>
0

>  <SCORE.heavy>
27

>  <SCORE.norm>
-0.747517

>  <RMSD>
5.144

$$$$
ligand
 OpenBabel02271912153D
libRbt.so/2013.1/901 2013/11/27
 27 29  0  0  0  0  0  0  0  0999 V2000
   -1.5986  -11.9933   15.5015 N   0  0  0  0  0  0  0  0  0  0  0  0
   -2.9658  -11.5213   15.6117 C   0  0  2  0  0  0  0  0  0  0  0  0
   -3.8123  -12.4022   14.7452 C   0  0  0  0  0  0  0  0  0  0  0  0
   -3.5308  -12.5173   13.5329 O   0  0  0  0  0  0  0  0  0  0  0  0
   -3.0681  -10.0652   15.1497 C   0  0  0  0  0  0  0  0  0  0  0  0
   -4.5046   -9.5203   15.3116 C   0  0  0  0  0  0  0  0  0  0  0  0
   -5.0313   -9.3273   16.8929 S   0  0  2  0  0  0  0  0  0  0  0  0
   -6.6917   -9.3534   16.9278 C   0  0  0  0  0  0  0  0  0  0  0  0
   -4.4438   -7.8729   17.5159 C   0  0  0  0  0  0  0  0  0  0  0  0
   -4.5047   -7.7777   19.0550 C   0  0  1  0  0  0  0  0  0  0  0  0
   -5.8050   -8.0764   19.5898 O   0  0  0  0  0  0  0  0  0  0  0  0
   -3.6301   -8.8002   19.7626 C   0  0  1  0  0  0  0  0  0  0  0  0
   -2.2076   -8.5658   19.7676 O   0  0  0  0  0  0  0  0  0  0  0  0
   -4.2545   -8.7936   21.1360 C   0  0  1  0  0  0  0  0  0  0  0  0
   -3.9297   -7.5843   21.8151 O   0  0  0  0  0  0  0  0  0  0  0  0
   -5.7214   -8.7959   20.8222 C   0  0  2  0  0  0  0  0  0  0  0  0
   -4.7682  -13.0328   15.2569 O   0  0  0  0  0  0  0  0  0  0  0  0
   -5.2605  -14.0109   21.7535 N   0  0  0  0  0  0  0  0  0  0  0  0
   -4.3919  -13.0119   22.0436 C   0  0  0  0  0  0  0  0  0  0  0  0
   -4.6358  -11.7256   21.7416 N   0  0  0  0  0  0  0  0  0  0  0  0
   -5.7719  -11.3424   21.1484 C   0  0  0  0  0  0  0  0  0  0  0  0
   -6.7553  -12.3670   20.8314 C   0  0  0  0  0  0  0  0  0  0  0  0
   -6.4703  -13.7849   21.1518 C   0  0  0  0  0  0  0  0  0  0  0  0
   -7.3609  -14.8001   20.8706 N   0  0  0  0  0  0  0  0  0  0  0  0
   -7.7644  -11.7338   20.2777 N   0  0  0  0  0  0  0  0  0  0  0  0
   -7.4744  -10.4271   20.2130 C   0  0  0  0  0  0  0  0  0  0  0  0
   -6.2759  -10.1820   20.7413 N   0  0  0  0  0  0  0  0  0  0  0  0
  2  1  1  6  0  0  0
  2  3  1  0  0  0  0
  2  5  1  0  0  0  0
  3  4  1  0  0  0  0
  3 17  1  0  0  0  0
  5  6  1  0  0  0  0
  7  6  1  6  0  0  0
  7  8  1  0  0  0  0
  7  9  1  0  0  0  0
 10  9  1  6  0  0  0
 10 11  1  0  0  0  0
 10 12  1  0  0  0  0
 11 16  1  0  0  0  0
 12 13  1  1  0  0  0
 12 14  1  0  0  0  0
 14 15  1  6  0  0  0
 14 16  1  0  0  0  0
 16 27  1  6  0  0  0
 18 19  2  0  0  0  0
 18 23  1  0  0  0  0
 19 20  1  0  0  0  0
 20 21  2  0  0  0  0
 21 22  1  0  0  0  0
 21 27  1  0  0  0  0
 22 23  2  0  0  0  0
 22 25  1  0  0  0  0
 23 24  1  0  0  0  0
 25 26  2  0  0  0  0
 26 27  1  0  0  0  0
M  END
>  <CHROM.1>
-56.41360556,-177.68071480,68.20223297,-156.93394959,-162.95120074,-51.96441527
132.08162759,-4.88241700,-10.60420065,18.69852033,0.56879823,-1.17062724
-2.48295628

>  <Name>
ligand

>  <RI>
0

>  <Rbt.Current_Directory>
/home/itssahil/PROJECTS/Mol_Feturizer/Test_systems_manuscript/rnas/4kqy

>  <Rbt.Executable>
rbdock ($Id: //depot/dev/client3/rdock/2013.1/src/exe/rbdock.cxx#4 $)

>  <Rbt.Library>
libRbt.so (2013.1, Build901 2013/11/27)

>  <Rbt.Parameter_File>
/export/apps/rDock/src/rDock_2013.1_src/data/scripts/dock_solv.prm

>  <Rbt.Receptor>
prm/pocket_docking_4.prm

>  <SCORE>
-16.4513

>  <SCORE.INTER>
-13.0471

>  <SCORE.INTER.CONST>
1

>  <SCORE.INTER.POLAR>
0

>  <SCORE.INTER.ROT>
7

>  <SCORE.INTER.SOLV>
11.9916

>  <SCORE.INTER.VDW>
-20.9619

>  <SCORE.INTER.norm>
-0.483224

>  <SCORE.INTRA>
-3.40422

>  <SCORE.INTRA.DIHEDRAL>
-4.91129

>  <SCORE.INTRA.DIHEDRAL.0>
10.4103

>  <SCORE.INTRA.POLAR>
0

>  <SCORE.INTRA.POLAR.0>
0

>  <SCORE.INTRA.REPUL>
0

>  <SCORE.INTRA.REPUL.0>
0

>  <SCORE.INTRA.SOLV>
-0.326157

>  <SCORE.INTRA.SOLV.lig_0>
-49.5008

>  <SCORE.INTRA.VDW>
-0.785498

>  <SCORE.INTRA.VDW.0>
-2.6946

>  <SCORE.INTRA.norm>
-0.126082

>  <SCORE.RESTR>
0

>  <SCORE.RESTR.CAVITY>
0

>  <SCORE.RESTR.norm>
0

>  <SCORE.SYSTEM>
0

>  <SCORE.SYSTEM.CONST>
0

>  <SCORE.SYSTEM.DIHEDRAL>
0

>  <SCORE.SYSTEM.SOLV>
0

>  <SCORE.SYSTEM.norm>
0

>  <SCORE.heavy>
27

>  <SCORE.norm>
-0.609307

>  <RMSD>
5.145

$$$$
ligand
 OpenBabel02271912153D
libRbt.so/2013.1/901 2013/11/27
 27 29  0  0  0  0  0  0  0  0999 V2000
   -0.5273  -12.4143   15.6055 N   0  0  0  0  0  0  0  0  0  0  0  0
   -0.8484  -11.4870   14.5372 C   0  0  2  0  0  0  0  0  0  0  0  0
    0.4000  -10.7222   14.2212 C   0  0  0  0  0  0  0  0  0  0  0  0
    0.3205   -9.6831   13.5311 O   0  0  0  0  0  0  0  0  0  0  0  0
   -1.9610  -10.5306   14.9749 C   0  0  0  0  0  0  0  0  0  0  0  0
   -1.6456   -9.8846   16.3423 C   0  0  0  0  0  0  0  0  0  0  0  0
   -2.7926   -8.8007   16.9122 S   0  0  2  0  0  0  0  0  0  0  0  0
   -2.6555   -7.3672   16.0845 C   0  0  0  0  0  0  0  0  0  0  0  0
   -2.5739   -8.5574   18.5680 C   0  0  0  0  0  0  0  0  0  0  0  0
   -3.7948   -7.9366   19.2791 C   0  0  1  0  0  0  0  0  0  0  0  0
   -5.0409   -8.5433   18.8981 O   0  0  0  0  0  0  0  0  0  0  0  0
   -3.7911   -8.1429   20.7852 C   0  0  1  0  0  0  0  0  0  0  0  0
   -2.8824   -7.3373   21.5626 O   0  0  0  0  0  0  0  0  0  0  0  0
   -5.2460   -7.8981   21.1005 C   0  0  1  0  0  0  0  0  0  0  0  0
   -5.5464   -6.5111   20.9779 O   0  0  0  0  0  0  0  0  0  0  0  0
   -5.9430   -8.6453   20.0024 C   0  0  2  0  0  0  0  0  0  0  0  0
    1.4976  -11.1195   14.6801 O   0  0  0  0  0  0  0  0  0  0  0  0
   -4.3843  -13.3371   21.9603 N   0  0  0  0  0  0  0  0  0  0  0  0
   -3.6606  -12.2063   21.7755 C   0  0  0  0  0  0  0  0  0  0  0  0
   -4.1861  -11.0829   21.2586 N   0  0  0  0  0  0  0  0  0  0  0  0
   -5.4749  -11.0014   20.9096 C   0  0  0  0  0  0  0  0  0  0  0  0
   -6.3102  -12.1768   21.1051 C   0  0  0  0  0  0  0  0  0  0  0  0
   -5.7183  -13.4166   21.6588 C   0  0  0  0  0  0  0  0  0  0  0  0
   -6.4583  -14.5629   21.8616 N   0  0  0  0  0  0  0  0  0  0  0  0
   -7.5120  -11.8313   20.7023 N   0  0  0  0  0  0  0  0  0  0  0  0
   -7.4760  -10.5652   20.2643 C   0  0  0  0  0  0  0  0  0  0  0  0
   -6.2513  -10.0556   20.3910 N   0  0  0  0  0  0  0  0  0  0  0  0
  2  1  1  1  0  0  0
  2  3  1  0  0  0  0
  2  5  1  0  0  0  0
  3  4  1  0  0  0  0
  3 17  1  0  0  0  0
  5  6  1  0  0  0  0
  7  6  1  6  0  0  0
  7  8  1  0  0  0  0
  7  9  1  0  0  0  0
 10  9  1  6  0  0  0
 10 11  1  0  0  0  0
 10 12  1  0  0  0  0
 11 16  1  0  0  0  0
 12 13  1  1  0  0  0
 12 14  1  0  0  0  0
 14 15  1  6  0  0  0
 14 16  1  0  0  0  0
 16 27  1  1  0  0  0
 18 19  2  0  0  0  0
 18 23  1  0  0  0  0
 19 20  1  0  0  0  0
 20 21  2  0  0  0  0
 21 22  1  0  0  0  0
 21 27  1  0  0  0  0
 22 23  2  0  0  0  0
 22 25  1  0  0  0  0
 23 24  1  0  0  0  0
 25 26  2  0  0  0  0
 26 27  1  0  0  0  0
M  END
>  <CHROM.1>
-165.55430771,50.24129348,179.28469425,-75.96304536,-162.45233384,44.97395761
66.59255345,-3.60653515,-10.07485929,18.72652982,-0.11147365,-0.86953545
3.10343366

>  <Name>
ligand

>  <RI>
0

>  <Rbt.Current_Directory>
/home/itssahil/PROJECTS/Mol_Feturizer/Test_systems_manuscript/rnas/4kqy

>  <Rbt.Executable>
rbdock ($Id: //depot/dev/client3/rdock/2013.1/src/exe/rbdock.cxx#4 $)

>  <Rbt.Library>
libRbt.so (2013.1, Build901 2013/11/27)

>  <Rbt.Parameter_File>
/export/apps/rDock/src/rDock_2013.1_src/data/scripts/dock_solv.prm

>  <Rbt.Receptor>
prm/pocket_docking_6.prm

>  <SCORE>
-18.8788

>  <SCORE.INTER>
-17.4558

>  <SCORE.INTER.CONST>
1

>  <SCORE.INTER.POLAR>
0

>  <SCORE.INTER.ROT>
7

>  <SCORE.INTER.SOLV>
14.2605

>  <SCORE.INTER.VDW>
-24.6574

>  <SCORE.INTER.norm>
-0.646512

>  <SCORE.INTRA>
-1.43067

>  <SCORE.INTRA.DIHEDRAL>
-4.77988

>  <SCORE.INTRA.DIHEDRAL.0>
10.4103

>  <SCORE.INTRA.POLAR>
0

>  <SCORE.INTRA.POLAR.0>
0

>  <SCORE.INTRA.REPUL>
0

>  <SCORE.INTRA.REPUL.0>
0

>  <SCORE.INTRA.SOLV>
0.262274

>  <SCORE.INTRA.SOLV.lig_0>
-49.5008

>  <SCORE.INTRA.VDW>
0.828133

>  <SCORE.INTRA.VDW.0>
-2.6946

>  <SCORE.INTRA.norm>
-0.0529878

>  <SCORE.RESTR>
0.0076661

>  <SCORE.RESTR.CAVITY>
0.0076661

>  <SCORE.RESTR.norm>
0.00028393

>  <SCORE.SYSTEM>
0

>  <SCORE.SYSTEM.CONST>
0

>  <SCORE.SYSTEM.DIHEDRAL>
0

>  <SCORE.SYSTEM.SOLV>
0

>  <SCORE.SYSTEM.norm>
0

>  <SCORE.heavy>
27

>  <SCORE.norm>
-0.699216

>  <RMSD>
5.146

$$$$
ligand
 OpenBabel02271912153D
libRbt.so/2013.1/901 2013/11/27
 27 29  0  0  0  0  0  0  0  0999 V2000
   -5.6903   -8.7225   20.3627 N   0  0  0  0  0  0  0  0  0  0  0  0
   -4.2661   -8.6775   20.0913 C   0  0  2  0  0  0  0  0  0  0  0  0
   -3.7345   -7.4212   20.7096 C   0  0  0  0  0  0  0  0  0  0  0  0
   -4.2661   -6.3273   20.4215 O   0  0  0  0  0  0  0  0  0  0  0  0
   -4.0087   -8.6771   18.5820 C   0  0  0  0  0  0  0  0  0  0  0  0
   -2.4980   -8.7446   18.2661 C   0  0  0  0  0  0  0  0  0  0  0  0
   -2.0950   -8.6713   16.6390 S   0  0  2  0  0  0  0  0  0  0  0  0
   -2.5890   -7.2139   16.0140 C   0  0  0  0  0  0  0  0  0  0  0  0
   -2.8211   -9.9519   15.8137 C   0  0  0  0  0  0  0  0  0  0  0  0
   -2.0561  -11.2875   15.9270 C   0  0  1  0  0  0  0  0  0  0  0  0
   -1.6845  -11.6145   17.2764 O   0  0  0  0  0  0  0  0  0  0  0  0
   -2.8834  -12.4980   15.5255 C   0  0  1  0  0  0  0  0  0  0  0  0
   -3.1132  -12.7067   14.1175 O   0  0  0  0  0  0  0  0  0  0  0  0
   -2.0946  -13.6020   16.1852 C   0  0  1  0  0  0  0  0  0  0  0  0
   -0.8724  -13.8153   15.4854 O   0  0  0  0  0  0  0  0  0  0  0  0
   -1.7879  -13.0172   17.5321 C   0  0  2  0  0  0  0  0  0  0  0  0
   -2.7871   -7.4918   21.5286 O   0  0  0  0  0  0  0  0  0  0  0  0
   -4.2190  -12.0578   22.1630 N   0  0  0  0  0  0  0  0  0  0  0  0
   -3.1926  -11.3893   21.5831 C   0  0  0  0  0  0  0  0  0  0  0  0
   -2.6657  -11.7496   20.4008 N   0  0  0  0  0  0  0  0  0  0  0  0
   -3.1390  -12.7885   19.7036 C   0  0  0  0  0  0  0  0  0  0  0  0
   -4.2566  -13.5334   20.2635 C   0  0  0  0  0  0  0  0  0  0  0  0
   -4.8194  -13.1402   21.5761 C   0  0  0  0  0  0  0  0  0  0  0  0
   -5.8743  -13.8110   22.1593 N   0  0  0  0  0  0  0  0  0  0  0  0
   -4.5306  -14.4757   19.3900 N   0  0  0  0  0  0  0  0  0  0  0  0
   -3.6715  -14.3815   18.3658 C   0  0  0  0  0  0  0  0  0  0  0  0
   -2.8319  -13.3625   18.5449 N   0  0  0  0  0  0  0  0  0  0  0  0
  2  1  1  6  0  0  0
  2  3  1  0  0  0  0
  2  5  1  0  0  0  0
  3  4  1  0  0  0  0
  3 17  1  0  0  0  0
  5  6  1  0  0  0  0
  7  6  1  1  0  0  0
  7  8  1  0  0  0  0
  7  9  1  0  0  0  0
 10  9  1  1  0  0  0
 10 11  1  0  0  0  0
 10 12  1  0  0  0  0
 11 16  1  0  0  0  0
 12 13  1  6  0  0  0
 12 14  1  0  0  0  0
 14 15  1  6  0  0  0
 14 16  1  0  0  0  0
 16 27  1  1  0  0  0
 18 19  2  0  0  0  0
 18 23  1  0  0  0  0
 19 20  1  0  0  0  0
 20 21  2  0  0  0  0
 21 22  1  0  0  0  0
 21 27  1  0  0  0  0
 22 23  2  0  0  0  0
 22 25  1  0  0  0  0
 23 24  1  0  0  0  0
 25 26  2  0  0  0  0
 26 27  1  0  0  0  0
M  END
>  <CHROM.1>
-53.78568811,-175.40594666,-177.02176379,62.31737894,-81.46358240,48.30739067
-42.70622477,-3.19293868,-10.97034174,18.53353808,2.27908525,1.18850702,0.06808891

>  <Name>
ligand

>  <RI>
0

>  <Rbt.Current_Directory>
/home/itssahil/PROJECTS/Mol_Feturizer/Test_systems_manuscript/rnas/4kqy

>  <Rbt.Executable>
rbdock ($Id: //depot/dev/client3/rdock/2013.1/src/exe/rbdock.cxx#4 $)

>  <Rbt.Library>
libRbt.so (2013.1, Build901 2013/11/27)

>  <Rbt.Parameter_File>
/export/apps/rDock/src/rDock_2013.1_src/data/scripts/dock_solv.prm

>  <Rbt.Receptor>
prm/pocket_docking_3.prm

>  <SCORE>
-12.3473

>  <SCORE.INTER>
-9.38682

>  <SCORE.INTER.CONST>
1

>  <SCORE.INTER.POLAR>
0

>  <SCORE.INTER.ROT>
7

>  <SCORE.INTER.SOLV>
16.2027

>  <SCORE.INTER.VDW>
-19.9254

>  <SCORE.INTER.norm>
-0.34766

>  <SCORE.INTRA>
-3.36115

>  <SCORE.INTRA.DIHEDRAL>
-5.67512

>  <SCORE.INTRA.DIHEDRAL.0>
10.4103

>  <SCORE.INTRA.POLAR>
0

>  <SCORE.INTRA.POLAR.0>
0

>  <SCORE.INTRA.REPUL>
0

>  <SCORE.INTRA.REPUL.0>
0

>  <SCORE.INTRA.SOLV>
-0.422926

>  <SCORE.INTRA.SOLV.lig_0>
-49.5008

>  <SCORE.INTRA.VDW>
-0.31213

>  <SCORE.INTRA.VDW.0>
-2.6946

>  <SCORE.INTRA.norm>
-0.124487

>  <SCORE.RESTR>
0.400642

>  <SCORE.RESTR.CAVITY>
0.400642

>  <SCORE.RESTR.norm>
0.0148386

>  <SCORE.SYSTEM>
0

>  <SCORE.SYSTEM.CONST>
0

>  <SCORE.SYSTEM.DIHEDRAL>
0

>  <SCORE.SYSTEM.SOLV>
0

>  <SCORE.SYSTEM.norm>
0

>  <SCORE.heavy>
27

>  <SCORE.norm>
-0.457309

>  <RMSD>
5.149

$$$$
ligand
 OpenBabel02271912153D
libRbt.so/2013.1/901 2013/11/27
 27 29  0  0  0  0  0  0  0  0999 V2000
   -5.2641   -8.1072   19.5765 N   0  0  0  0  0  0  0  0  0  0  0  0
   -4.5658   -8.6725   18.4376 C   0  0  2  0  0  0  0  0  0  0  0  0
   -5.4749   -8.5524   17.2534 C   0  0  0  0  0  0  0  0  0  0  0  0
   -6.5821   -9.1320   17.2732 O   0  0  0  0  0  0  0  0  0  0  0  0
   -4.2214  -10.1417   18.6963 C   0  0  0  0  0  0  0  0  0  0  0  0
   -3.2231  -10.2910   19.8657 C   0  0  0  0  0  0  0  0  0  0  0  0
   -3.8778  -10.1253   21.4016 S   0  0  2  0  0  0  0  0  0  0  0  0
   -2.9113   -9.1233   22.3075 C   0  0  0  0  0  0  0  0  0  0  0  0
   -4.0142  -11.6419   22.1297 C   0  0  0  0  0  0  0  0  0  0  0  0
   -5.2261  -12.4654   21.6453 C   0  0  1  0  0  0  0  0  0  0  0  0
   -5.8645  -11.9049   20.4859 O   0  0  0  0  0  0  0  0  0  0  0  0
   -4.8599  -13.8590   21.1610 C   0  0  1  0  0  0  0  0  0  0  0  0
   -4.5423  -14.8467   22.1621 O   0  0  0  0  0  0  0  0  0  0  0  0
   -6.0794  -14.1943   20.3384 C   0  0  1  0  0  0  0  0  0  0  0  0
   -7.1916  -14.4446   21.1924 O   0  0  0  0  0  0  0  0  0  0  0  0
   -6.3209  -12.9186   19.5871 C   0  0  2  0  0  0  0  0  0  0  0  0
   -5.1236   -7.8477   16.2771 O   0  0  0  0  0  0  0  0  0  0  0  0
   -2.0253  -13.9641   16.6324 N   0  0  0  0  0  0  0  0  0  0  0  0
   -2.2255  -14.1823   17.9548 C   0  0  0  0  0  0  0  0  0  0  0  0
   -3.3699  -13.8589   18.5802 N   0  0  0  0  0  0  0  0  0  0  0  0
   -4.4026  -13.3150   17.9268 C   0  0  0  0  0  0  0  0  0  0  0  0
   -4.2572  -13.0765   16.4988 C   0  0  0  0  0  0  0  0  0  0  0  0
   -2.9855  -13.4196   15.8210 C   0  0  0  0  0  0  0  0  0  0  0  0
   -2.7870  -13.2119   14.4719 N   0  0  0  0  0  0  0  0  0  0  0  0
   -5.3987  -12.5587   16.1055 N   0  0  0  0  0  0  0  0  0  0  0  0
   -6.2116  -12.4442   17.1648 C   0  0  0  0  0  0  0  0  0  0  0  0
   -5.6198  -12.9034   18.2668 N   0  0  0  0  0  0  0  0  0  0  0  0
  2  1  1  1  0  0  0
  2  3  1  0  0  0  0
  2  5  1  0  0  0  0
  3  4  1  0  0  0  0
  3 17  1  0  0  0  0
  5  6  1  0  0  0  0
  7  6  1  6  0  0  0
  7  8  1  0  0  0  0
  7  9  1  0  0  0  0
 10  9  1  6  0  0  0
 10 11  1  0  0  0  0
 10 12  1  0  0  0  0
 11 16  1  0  0  0  0
 12 13  1  1  0  0  0
 12 14  1  0  0  0  0
 14 15  1  1  0  0  0
 14 16  1  0  0  0  0
 16 27  1  6  0  0  0
 18 19  2  0  0  0  0
 18 23  1  0  0  0  0
 19 20  1  0  0  0  0
 20 21  2  0  0  0  0
 21 22  1  0  0  0  0
 21 27  1  0  0  0  0
 22 23  2  0  0  0  0
 22 25  1  0  0  0  0
 23 24  1  0  0  0  0
 25 26  2  0  0  0  0
 26 27  1  0  0  0  0
M  END
>  <CHROM.1>
-61.06314370,-64.63576323,77.22633351,-133.65378403,-78.50819419,11.32927869
75.69677923,-4.60969077,-11.77524176,19.03888618,0.63976885,1.43596298,-0.47139376

>  <Name>
ligand

>  <RI>
0

>  <Rbt.Current_Directory>
/home/itssahil/PROJECTS/Mol_Feturizer/Test_systems_manuscript/rnas/4kqy

>  <Rbt.Executable>
rbdock ($Id: //depot/dev/client3/rdock/2013.1/src/exe/rbdock.cxx#4 $)

>  <Rbt.Library>
libRbt.so (2013.1, Build901 2013/11/27)

>  <Rbt.Parameter_File>
/export/apps/rDock/src/rDock_2013.1_src/data/scripts/dock_solv.prm

>  <Rbt.Receptor>
prm/pocket_docking_3.prm

>  <SCORE>
-12.0564

>  <SCORE.INTER>
-12.5333

>  <SCORE.INTER.CONST>
1

>  <SCORE.INTER.POLAR>
0

>  <SCORE.INTER.ROT>
7

>  <SCORE.INTER.SOLV>
10.4439

>  <SCORE.INTER.VDW>
-20.1035

>  <SCORE.INTER.norm>
-0.464195

>  <SCORE.INTRA>
0.473935

>  <SCORE.INTRA.DIHEDRAL>
3.38989

>  <SCORE.INTRA.DIHEDRAL.0>
10.4103

>  <SCORE.INTRA.POLAR>
0

>  <SCORE.INTRA.POLAR.0>
0

>  <SCORE.INTRA.REPUL>
0

>  <SCORE.INTRA.REPUL.0>
0

>  <SCORE.INTRA.SOLV>
2.52048

>  <SCORE.INTRA.SOLV.lig_0>
-49.5008

>  <SCORE.INTRA.VDW>
-2.48125

>  <SCORE.INTRA.VDW.0>
-2.6946

>  <SCORE.INTRA.norm>
0.0175531

>  <SCORE.RESTR>
0.0029304

>  <SCORE.RESTR.CAVITY>
0.0029304

>  <SCORE.RESTR.norm>
0.000108533

>  <SCORE.SYSTEM>
0

>  <SCORE.SYSTEM.CONST>
0

>  <SCORE.SYSTEM.DIHEDRAL>
0

>  <SCORE.SYSTEM.SOLV>
0

>  <SCORE.SYSTEM.norm>
0

>  <SCORE.heavy>
27

>  <SCORE.norm>
-0.446534

>  <RMSD>
5.153

$$$$
ligand
 OpenBabel02271912153D
libRbt.so/2013.1/901 2013/11/27
 27 29  0  0  0  0  0  0  0  0999 V2000
   -3.4101  -11.7299   15.0919 N   0  0  0  0  0  0  0  0  0  0  0  0
   -2.3211  -12.6344   14.7753 C   0  0  2  0  0  0  0  0  0  0  0  0
   -2.6775  -13.9752   15.3396 C   0  0  0  0  0  0  0  0  0  0  0  0
   -3.3429  -14.0351   16.3959 O   0  0  0  0  0  0  0  0  0  0  0  0
   -1.0117  -12.1308   15.3884 C   0  0  0  0  0  0  0  0  0  0  0  0
   -1.0755  -12.1252   16.9319 C   0  0  0  0  0  0  0  0  0  0  0  0
   -2.1204  -11.0004   17.6088 S   0  0  2  0  0  0  0  0  0  0  0  0
   -1.6379   -9.4707   17.1777 C   0  0  0  0  0  0  0  0  0  0  0  0
   -2.1324  -11.1717   19.2878 C   0  0  0  0  0  0  0  0  0  0  0  0
   -3.0385  -10.1573   20.0171 C   0  0  1  0  0  0  0  0  0  0  0  0
   -4.3459  -10.0425   19.4311 O   0  0  0  0  0  0  0  0  0  0  0  0
   -3.3674  -10.5540   21.4472 C   0  0  1  0  0  0  0  0  0  0  0  0
   -2.3298  -10.3933   22.4353 O   0  0  0  0  0  0  0  0  0  0  0  0
   -4.5855   -9.6996   21.6970 C   0  0  1  0  0  0  0  0  0  0  0  0
   -4.2052   -8.3337   21.8334 O   0  0  0  0  0  0  0  0  0  0  0  0
   -5.3599   -9.8636   20.4228 C   0  0  2  0  0  0  0  0  0  0  0  0
   -2.3297  -15.0127   14.7266 O   0  0  0  0  0  0  0  0  0  0  0  0
   -6.5064  -14.8624   21.8277 N   0  0  0  0  0  0  0  0  0  0  0  0
   -5.3492  -14.1752   21.9862 C   0  0  0  0  0  0  0  0  0  0  0  0
   -5.1945  -12.9061   21.5730 N   0  0  0  0  0  0  0  0  0  0  0  0
   -6.1893  -12.2262   20.9920 C   0  0  0  0  0  0  0  0  0  0  0  0
   -7.4651  -12.9029   20.8138 C   0  0  0  0  0  0  0  0  0  0  0  0
   -7.6211  -14.3080   21.2561 C   0  0  0  0  0  0  0  0  0  0  0  0
   -8.8037  -15.0027   21.1089 N   0  0  0  0  0  0  0  0  0  0  0  0
   -8.2581  -12.0246   20.2431 N   0  0  0  0  0  0  0  0  0  0  0  0
   -7.5755  -10.8889   20.0426 C   0  0  0  0  0  0  0  0  0  0  0  0
   -6.3278  -11.0007   20.4966 N   0  0  0  0  0  0  0  0  0  0  0  0
  2  1  1  1  0  0  0
  2  3  1  0  0  0  0
  2  5  1  0  0  0  0
  3  4  1  0  0  0  0
  3 17  1  0  0  0  0
  5  6  1  0  0  0  0
  7  6  1  6  0  0  0
  7  8  1  0  0  0  0
  7  9  1  0  0  0  0
 10  9  1  6  0  0  0
 10 11  1  0  0  0  0
 10 12  1  0  0  0  0
 11 16  1  0  0  0  0
 12 13  1  1  0  0  0
 12 14  1  0  0  0  0
 14 15  1  6  0  0  0
 14 16  1  0  0  0  0
 16 27  1  1  0  0  0
 18 19  2  0  0  0  0
 18 23  1  0  0  0  0
 19 20  1  0  0  0  0
 20 21  2  0  0  0  0
 21 22  1  0  0  0  0
 21 27  1  0  0  0  0
 22 23  2  0  0  0  0
 22 25  1  0  0  0  0
 23 24  1  0  0  0  0
 25 26  2  0  0  0  0
 26 27  1  0  0  0  0
M  END
>  <CHROM.1>
-32.94384849,64.21540337,-68.45647864,-61.11409980,178.54386609,47.44235801
74.09892866,-4.20606844,-11.87153034,19.15193434,0.59608736,-0.68887786,-2.32977389

>  <Name>
ligand

>  <RI>
0

>  <Rbt.Current_Directory>
/home/itssahil/PROJECTS/Mol_Feturizer/Test_systems_manuscript/rnas/4kqy

>  <Rbt.Executable>
rbdock ($Id: //depot/dev/client3/rdock/2013.1/src/exe/rbdock.cxx#4 $)

>  <Rbt.Library>
libRbt.so (2013.1, Build901 2013/11/27)

>  <Rbt.Parameter_File>
/export/apps/rDock/src/rDock_2013.1_src/data/scripts/dock_solv.prm

>  <Rbt.Receptor>
prm/pocket_docking_5.prm

>  <SCORE>
-15.7688

>  <SCORE.INTER>
-14.2508

>  <SCORE.INTER.CONST>
1

>  <SCORE.INTER.POLAR>
0

>  <SCORE.INTER.ROT>
7

>  <SCORE.INTER.SOLV>
11.4323

>  <SCORE.INTER.VDW>
-21.5779

>  <SCORE.INTER.norm>
-0.527807

>  <SCORE.INTRA>
-1.51805

>  <SCORE.INTRA.DIHEDRAL>
-6.74077

>  <SCORE.INTRA.DIHEDRAL.0>
10.4103

>  <SCORE.INTRA.POLAR>
0

>  <SCORE.INTRA.POLAR.0>
0

>  <SCORE.INTRA.REPUL>
0

>  <SCORE.INTRA.REPUL.0>
0

>  <SCORE.INTRA.SOLV>
2.36253

>  <SCORE.INTRA.SOLV.lig_0>
-49.5008

>  <SCORE.INTRA.VDW>
0.67107

>  <SCORE.INTRA.VDW.0>
-2.6946

>  <SCORE.INTRA.norm>
-0.0562242

>  <SCORE.RESTR>
0

>  <SCORE.RESTR.CAVITY>
0

>  <SCORE.RESTR.norm>
0

>  <SCORE.SYSTEM>
0

>  <SCORE.SYSTEM.CONST>
0

>  <SCORE.SYSTEM.DIHEDRAL>
0

>  <SCORE.SYSTEM.SOLV>
0

>  <SCORE.SYSTEM.norm>
0

>  <SCORE.heavy>
27

>  <SCORE.norm>
-0.584031

>  <RMSD>
5.157

$$$$
ligand
 OpenBabel02271912153D
libRbt.so/2013.1/901 2013/11/27
 27 29  0  0  0  0  0  0  0  0999 V2000
   -0.8895  -13.6153   15.3528 N   0  0  0  0  0  0  0  0  0  0  0  0
   -0.8447  -12.1975   15.6561 C   0  0  2  0  0  0  0  0  0  0  0  0
    0.5883  -11.8406   15.9057 C   0  0  0  0  0  0  0  0  0  0  0  0
    1.2763  -11.3864   14.9663 O   0  0  0  0  0  0  0  0  0  0  0  0
   -1.6926  -11.8877   16.8927 C   0  0  0  0  0  0  0  0  0  0  0  0
   -1.8375  -10.3654   17.1119 C   0  0  0  0  0  0  0  0  0  0  0  0
   -2.9091   -9.9068   18.3188 S   0  0  2  0  0  0  0  0  0  0  0  0
   -4.3587  -10.6859   18.0939 C   0  0  0  0  0  0  0  0  0  0  0  0
   -3.1199   -8.2326   18.2880 C   0  0  0  0  0  0  0  0  0  0  0  0
   -4.1996   -7.7166   19.2626 C   0  0  1  0  0  0  0  0  0  0  0  0
   -5.4918   -8.3048   19.0390 O   0  0  0  0  0  0  0  0  0  0  0  0
   -3.9335   -8.0822   20.7140 C   0  0  1  0  0  0  0  0  0  0  0  0
   -2.9049   -7.3456   21.4055 O   0  0  0  0  0  0  0  0  0  0  0  0
   -5.3118   -7.9026   21.3006 C   0  0  1  0  0  0  0  0  0  0  0  0
   -5.6315   -6.5170   21.3831 O   0  0  0  0  0  0  0  0  0  0  0  0
   -6.1879   -8.5428   20.2647 C   0  0  2  0  0  0  0  0  0  0  0  0
    1.0636  -11.9738   17.0588 O   0  0  0  0  0  0  0  0  0  0  0  0
   -4.4220  -13.2486   22.0006 N   0  0  0  0  0  0  0  0  0  0  0  0
   -3.7664  -12.0648   21.9278 C   0  0  0  0  0  0  0  0  0  0  0  0
   -4.3385  -10.9443   21.4560 N   0  0  0  0  0  0  0  0  0  0  0  0
   -5.6108  -10.9205   21.0437 C   0  0  0  0  0  0  0  0  0  0  0  0
   -6.3753  -12.1564   21.1181 C   0  0  0  0  0  0  0  0  0  0  0  0
   -5.7311  -13.3911   21.6228 C   0  0  0  0  0  0  0  0  0  0  0  0
   -6.4029  -14.5926   21.7115 N   0  0  0  0  0  0  0  0  0  0  0  0
   -7.5757  -11.8606   20.6737 N   0  0  0  0  0  0  0  0  0  0  0  0
   -7.6017  -10.5683   20.3201 C   0  0  0  0  0  0  0  0  0  0  0  0
   -6.4213   -9.9926   20.5452 N   0  0  0  0  0  0  0  0  0  0  0  0
  2  1  1  1  0  0  0
  2  3  1  0  0  0  0
  2  5  1  0  0  0  0
  3  4  1  0  0  0  0
  3 17  1  0  0  0  0
  5  6  1  0  0  0  0
  7  6  1  6  0  0  0
  7  8  1  0  0  0  0
  7  9  1  0  0  0  0
 10  9  1  6  0  0  0
 10 11  1  0  0  0  0
 10 12  1  0  0  0  0
 11 16  1  0  0  0  0
 12 13  1  1  0  0  0
 12 14  1  0  0  0  0
 14 15  1  6  0  0  0
 14 16  1  0  0  0  0
 16 27  1  1  0  0  0
 18 19  2  0  0  0  0
 18 23  1  0  0  0  0
 19 20  1  0  0  0  0
 20 21  2  0  0  0  0
 21 22  1  0  0  0  0
 21 27  1  0  0  0  0
 22 23  2  0  0  0  0
 22 25  1  0  0  0  0
 23 24  1  0  0  0  0
 25 26  2  0  0  0  0
 26 27  1  0  0  0  0
M  END
>  <CHROM.1>
94.81899219,-171.35378949,172.34948925,-50.38858865,173.97235358,-57.47070987
80.15483773,-3.76269042,-10.51563298,19.28823810,0.22691812,-0.71364906,-3.11709314

>  <Name>
ligand

>  <RI>
0

>  <Rbt.Current_Directory>
/home/itssahil/PROJECTS/Mol_Feturizer/Test_systems_manuscript/rnas/4kqy

>  <Rbt.Executable>
rbdock ($Id: //depot/dev/client3/rdock/2013.1/src/exe/rbdock.cxx#4 $)

>  <Rbt.Library>
libRbt.so (2013.1, Build901 2013/11/27)

>  <Rbt.Parameter_File>
/export/apps/rDock/src/rDock_2013.1_src/data/scripts/dock_solv.prm

>  <Rbt.Receptor>
prm/pocket_docking_6.prm

>  <SCORE>
-18.0174

>  <SCORE.INTER>
-15.4369

>  <SCORE.INTER.CONST>
1

>  <SCORE.INTER.POLAR>
0

>  <SCORE.INTER.ROT>
7

>  <SCORE.INTER.SOLV>
14.2804

>  <SCORE.INTER.VDW>
-23.3181

>  <SCORE.INTER.norm>
-0.571737

>  <SCORE.INTRA>
-2.59851

>  <SCORE.INTRA.DIHEDRAL>
-6.69081

>  <SCORE.INTRA.DIHEDRAL.0>
10.4103

>  <SCORE.INTRA.POLAR>
0

>  <SCORE.INTRA.POLAR.0>
0

>  <SCORE.INTRA.REPUL>
0

>  <SCORE.INTRA.REPUL.0>
0

>  <SCORE.INTRA.SOLV>
-0.372466

>  <SCORE.INTRA.SOLV.lig_0>
-49.5008

>  <SCORE.INTRA.VDW>
0.933124

>  <SCORE.INTRA.VDW.0>
-2.6946

>  <SCORE.INTRA.norm>
-0.0962412

>  <SCORE.RESTR>
0.0180061

>  <SCORE.RESTR.CAVITY>
0.0180061

>  <SCORE.RESTR.norm>
0.000666891

>  <SCORE.SYSTEM>
0

>  <SCORE.SYSTEM.CONST>
0

>  <SCORE.SYSTEM.DIHEDRAL>
0

>  <SCORE.SYSTEM.SOLV>
0

>  <SCORE.SYSTEM.norm>
0

>  <SCORE.heavy>
27

>  <SCORE.norm>
-0.667311

>  <RMSD>
5.160

$$$$
ligand
 OpenBabel02271912153D
libRbt.so/2013.1/901 2013/11/27
 27 29  0  0  0  0  0  0  0  0999 V2000
   -2.6525  -13.9806   16.9920 N   0  0  0  0  0  0  0  0  0  0  0  0
   -3.2802  -12.7297   17.3736 C   0  0  2  0  0  0  0  0  0  0  0  0
   -4.6599  -12.7279   16.7909 C   0  0  0  0  0  0  0  0  0  0  0  0
   -4.7984  -12.7985   15.5507 O   0  0  0  0  0  0  0  0  0  0  0  0
   -2.4758  -11.5421   16.8382 C   0  0  0  0  0  0  0  0  0  0  0  0
   -2.8221  -10.2389   17.5920 C   0  0  0  0  0  0  0  0  0  0  0  0
   -4.2940   -9.5404   17.1910 S   0  0  2  0  0  0  0  0  0  0  0  0
   -4.5385   -9.6719   15.5534 C   0  0  0  0  0  0  0  0  0  0  0  0
   -4.3056   -7.9215   17.6683 C   0  0  0  0  0  0  0  0  0  0  0  0
   -4.6954   -7.7042   19.1456 C   0  0  1  0  0  0  0  0  0  0  0  0
   -6.0459   -8.0993   19.4388 O   0  0  0  0  0  0  0  0  0  0  0  0
   -3.8984   -8.5598   20.1170 C   0  0  1  0  0  0  0  0  0  0  0  0
   -2.5359   -8.1692   20.3808 O   0  0  0  0  0  0  0  0  0  0  0  0
   -4.7941   -8.5067   21.3299 C   0  0  1  0  0  0  0  0  0  0  0  0
   -4.7305   -7.2159   21.9288 O   0  0  0  0  0  0  0  0  0  0  0  0
   -6.1565   -8.6985   20.7320 C   0  0  2  0  0  0  0  0  0  0  0  0
   -5.6516  -12.6875   17.5579 O   0  0  0  0  0  0  0  0  0  0  0  0
   -5.1520  -13.7956   21.8665 N   0  0  0  0  0  0  0  0  0  0  0  0
   -4.4071  -12.6971   22.1408 C   0  0  0  0  0  0  0  0  0  0  0  0
   -4.7822  -11.4568   21.7856 N   0  0  0  0  0  0  0  0  0  0  0  0
   -5.9360  -11.2223   21.1508 C   0  0  0  0  0  0  0  0  0  0  0  0
   -6.7913  -12.3599   20.8477 C   0  0  0  0  0  0  0  0  0  0  0  0
   -6.3615  -13.7257   21.2271 C   0  0  0  0  0  0  0  0  0  0  0  0
   -7.1267  -14.8423   20.9618 N   0  0  0  0  0  0  0  0  0  0  0  0
   -7.8477  -11.8616   20.2461 N   0  0  0  0  0  0  0  0  0  0  0  0
   -7.7013  -10.5337   20.1404 C   0  0  0  0  0  0  0  0  0  0  0  0
   -6.5527  -10.1394   20.6887 N   0  0  0  0  0  0  0  0  0  0  0  0
  2  1  1  6  0  0  0
  2  3  1  0  0  0  0
  2  5  1  0  0  0  0
  3  4  1  0  0  0  0
  3 17  1  0  0  0  0
  5  6  1  0  0  0  0
  7  6  1  6  0  0  0
  7  8  1  0  0  0  0
  7  9  1  0  0  0  0
 10  9  1  6  0  0  0
 10 11  1  0  0  0  0
 10 12  1  0  0  0  0
 11 16  1  0  0  0  0
 12 13  1  1  0  0  0
 12 14  1  0  0  0  0
 14 15  1  6  0  0  0
 14 16  1  0  0  0  0
 16 27  1  6  0  0  0
 18 19  2  0  0  0  0
 18 23  1  0  0  0  0
 19 20  1  0  0  0  0
 20 21  2  0  0  0  0
 21 22  1  0  0  0  0
 21 27  1  0  0  0  0
 22 23  2  0  0  0  0
 22 25  1  0  0  0  0
 23 24  1  0  0  0  0
 25 26  2  0  0  0  0
 26 27  1  0  0  0  0
M  END
>  <CHROM.1>
-60.77595285,-161.09058419,-75.35995261,-39.36748250,-84.24199754,-64.59937227
121.21929145,-4.93486759,-10.75498056,19.22178459,0.54486941,-1.09749125
-2.72812961

>  <Name>
ligand

>  <RI>
0

>  <Rbt.Current_Directory>
/home/itssahil/PROJECTS/Mol_Feturizer/Test_systems_manuscript/rnas/4kqy

>  <Rbt.Executable>
rbdock ($Id: //depot/dev/client3/rdock/2013.1/src/exe/rbdock.cxx#4 $)

>  <Rbt.Library>
libRbt.so (2013.1, Build901 2013/11/27)

>  <Rbt.Parameter_File>
/export/apps/rDock/src/rDock_2013.1_src/data/scripts/dock_solv.prm

>  <Rbt.Receptor>
prm/pocket_docking_3.prm

>  <SCORE>
-12.9768

>  <SCORE.INTER>
-10.9504

>  <SCORE.INTER.CONST>
1

>  <SCORE.INTER.POLAR>
0

>  <SCORE.INTER.ROT>
7

>  <SCORE.INTER.SOLV>
14.6433

>  <SCORE.INTER.VDW>
-20.4481

>  <SCORE.INTER.norm>
-0.405571

>  <SCORE.INTRA>
-2.02639

>  <SCORE.INTRA.DIHEDRAL>
-2.55571

>  <SCORE.INTRA.DIHEDRAL.0>
10.4103

>  <SCORE.INTRA.POLAR>
0

>  <SCORE.INTRA.POLAR.0>
0

>  <SCORE.INTRA.REPUL>
0

>  <SCORE.INTRA.REPUL.0>
0

>  <SCORE.INTRA.SOLV>
-0.18654

>  <SCORE.INTRA.SOLV.lig_0>
-49.5008

>  <SCORE.INTRA.VDW>
-0.65527

>  <SCORE.INTRA.VDW.0>
-2.6946

>  <SCORE.INTRA.norm>
-0.0750516

>  <SCORE.RESTR>
0

>  <SCORE.RESTR.CAVITY>
0

>  <SCORE.RESTR.norm>
0

>  <SCORE.SYSTEM>
0

>  <SCORE.SYSTEM.CONST>
0

>  <SCORE.SYSTEM.DIHEDRAL>
0

>  <SCORE.SYSTEM.SOLV>
0

>  <SCORE.SYSTEM.norm>
0

>  <SCORE.heavy>
27

>  <SCORE.norm>
-0.480623

>  <RMSD>
5.161

$$$$
ligand
 OpenBabel02271912153D
libRbt.so/2013.1/901 2013/11/27
 27 29  0  0  0  0  0  0  0  0999 V2000
   -2.5380  -13.3274   18.1574 N   0  0  0  0  0  0  0  0  0  0  0  0
   -2.4507  -12.2101   17.2365 C   0  0  2  0  0  0  0  0  0  0  0  0
   -2.2836  -12.7788   15.8610 C   0  0  0  0  0  0  0  0  0  0  0  0
   -1.5880  -13.8056   15.7059 O   0  0  0  0  0  0  0  0  0  0  0  0
   -1.2588  -11.3166   17.5905 C   0  0  0  0  0  0  0  0  0  0  0  0
   -1.3197   -9.9687   16.8383 C   0  0  0  0  0  0  0  0  0  0  0  0
   -2.6167   -8.9792   17.2304 S   0  0  2  0  0  0  0  0  0  0  0  0
   -2.5972   -7.6334   16.2571 C   0  0  0  0  0  0  0  0  0  0  0  0
   -2.5275   -8.5405   18.8577 C   0  0  0  0  0  0  0  0  0  0  0  0
   -3.8363   -7.9489   19.4223 C   0  0  1  0  0  0  0  0  0  0  0  0
   -5.0146   -8.6075   18.9285 O   0  0  0  0  0  0  0  0  0  0  0  0
   -3.9838   -8.1233   20.9252 C   0  0  1  0  0  0  0  0  0  0  0  0
   -3.1891   -7.2698   21.7730 O   0  0  0  0  0  0  0  0  0  0  0  0
   -5.4712   -7.9241   21.0811 C   0  0  1  0  0  0  0  0  0  0  0  0
   -5.8030   -6.5516   20.8938 O   0  0  0  0  0  0  0  0  0  0  0  0
   -6.0237   -8.7186   19.9350 C   0  0  2  0  0  0  0  0  0  0  0  0
   -2.8692  -12.2341   14.8948 O   0  0  0  0  0  0  0  0  0  0  0  0
   -4.4578  -13.3774   21.9645 N   0  0  0  0  0  0  0  0  0  0  0  0
   -3.7443  -12.2382   21.7924 C   0  0  0  0  0  0  0  0  0  0  0  0
   -4.2701  -11.1250   21.2543 N   0  0  0  0  0  0  0  0  0  0  0  0
   -5.5497  -11.0628   20.8696 C   0  0  0  0  0  0  0  0  0  0  0  0
   -6.3746  -12.2480   21.0494 C   0  0  0  0  0  0  0  0  0  0  0  0
   -5.7818  -13.4765   21.6270 C   0  0  0  0  0  0  0  0  0  0  0  0
   -6.5120  -14.6314   21.8165 N   0  0  0  0  0  0  0  0  0  0  0  0
   -7.5693  -11.9209   20.6116 N   0  0  0  0  0  0  0  0  0  0  0  0
   -7.5379  -10.6572   20.1668 C   0  0  0  0  0  0  0  0  0  0  0  0
   -6.3240  -10.1305   20.3239 N   0  0  0  0  0  0  0  0  0  0  0  0
  2  1  1  1  0  0  0
  2  3  1  0  0  0  0
  2  5  1  0  0  0  0
  3  4  1  0  0  0  0
  3 17  1  0  0  0  0
  5  6  1  0  0  0  0
  7  6  1  6  0  0  0
  7  8  1  0  0  0  0
  7  9  1  0  0  0  0
 10  9  1  6  0  0  0
 10 11  1  0  0  0  0
 10 12  1  0  0  0  0
 11 16  1  0  0  0  0
 12 13  1  1  0  0  0
 12 14  1  0  0  0  0
 14 15  1  6  0  0  0
 14 16  1  0  0  0  0
 16 27  1  1  0  0  0
 18 19  2  0  0  0  0
 18 23  1  0  0  0  0
 19 20  1  0  0  0  0
 20 21  2  0  0  0  0
 21 22  1  0  0  0  0
 21 27  1  0  0  0  0
 22 23  2  0  0  0  0
 22 25  1  0  0  0  0
 23 24  1  0  0  0  0
 25 26  2  0  0  0  0
 26 27  1  0  0  0  0
M  END
>  <CHROM.1>
-36.99666167,-167.40365268,64.50726737,-175.72558837,-164.81215257,38.79418915
61.89816007,-4.07956441,-10.49087526,19.21078239,0.19751539,-0.89716618,-3.04955760

>  <Name>
ligand

>  <RI>
0

>  <Rbt.Current_Directory>
/home/itssahil/PROJECTS/Mol_Feturizer/Test_systems_manuscript/rnas/4kqy

>  <Rbt.Executable>
rbdock ($Id: //depot/dev/client3/rdock/2013.1/src/exe/rbdock.cxx#4 $)

>  <Rbt.Library>
libRbt.so (2013.1, Build901 2013/11/27)

>  <Rbt.Parameter_File>
/export/apps/rDock/src/rDock_2013.1_src/data/scripts/dock_solv.prm

>  <Rbt.Receptor>
prm/pocket_docking_4.prm

>  <SCORE>
-20.1828

>  <SCORE.INTER>
-16.6643

>  <SCORE.INTER.CONST>
1

>  <SCORE.INTER.POLAR>
0

>  <SCORE.INTER.ROT>
7

>  <SCORE.INTER.SOLV>
17.3062

>  <SCORE.INTER.VDW>
-25.145

>  <SCORE.INTER.norm>
-0.617197

>  <SCORE.INTRA>
-3.51846

>  <SCORE.INTRA.DIHEDRAL>
-4.8154

>  <SCORE.INTRA.DIHEDRAL.0>
10.4103

>  <SCORE.INTRA.POLAR>
0

>  <SCORE.INTRA.POLAR.0>
0

>  <SCORE.INTRA.REPUL>
0

>  <SCORE.INTRA.REPUL.0>
0

>  <SCORE.INTRA.SOLV>
-0.359965

>  <SCORE.INTRA.SOLV.lig_0>
-49.5008

>  <SCORE.INTRA.VDW>
-0.93078

>  <SCORE.INTRA.VDW.0>
-2.6946

>  <SCORE.INTRA.norm>
-0.130313

>  <SCORE.RESTR>
0

>  <SCORE.RESTR.CAVITY>
0

>  <SCORE.RESTR.norm>
0

>  <SCORE.SYSTEM>
0

>  <SCORE.SYSTEM.CONST>
0

>  <SCORE.SYSTEM.DIHEDRAL>
0

>  <SCORE.SYSTEM.SOLV>
0

>  <SCORE.SYSTEM.norm>
0

>  <SCORE.heavy>
27

>  <SCORE.norm>
-0.747511

>  <RMSD>
5.164

$$$$
ligand
 OpenBabel02271912153D
libRbt.so/2013.1/901 2013/11/27
 27 29  0  0  0  0  0  0  0  0999 V2000
   -1.2647  -14.1048   14.9598 N   0  0  0  0  0  0  0  0  0  0  0  0
   -0.9063  -12.8450   15.5831 C   0  0  2  0  0  0  0  0  0  0  0  0
    0.3759  -13.0643   16.3254 C   0  0  0  0  0  0  0  0  0  0  0  0
    1.2978  -12.2281   16.2107 O   0  0  0  0  0  0  0  0  0  0  0  0
   -2.0071  -12.3921   16.5461 C   0  0  0  0  0  0  0  0  0  0  0  0
   -1.6862  -11.0127   17.1631 C   0  0  0  0  0  0  0  0  0  0  0  0
   -2.7499  -10.4852   18.3486 S   0  0  2  0  0  0  0  0  0  0  0  0
   -4.2793  -10.3801   17.7096 C   0  0  0  0  0  0  0  0  0  0  0  0
   -2.2459   -8.9872   18.9410 C   0  0  0  0  0  0  0  0  0  0  0  0
   -3.0455   -8.4937   20.1653 C   0  0  1  0  0  0  0  0  0  0  0  0
   -4.4548   -8.3730   19.9099 O   0  0  0  0  0  0  0  0  0  0  0  0
   -3.0191   -9.4600   21.3385 C   0  0  1  0  0  0  0  0  0  0  0  0
   -1.8051   -9.5295   22.1132 O   0  0  0  0  0  0  0  0  0  0  0  0
   -4.2152   -8.9766   22.1207 C   0  0  1  0  0  0  0  0  0  0  0  0
   -3.9222   -7.7279   22.7403 O   0  0  0  0  0  0  0  0  0  0  0  0
   -5.2361   -8.7571   21.0438 C   0  0  2  0  0  0  0  0  0  0  0  0
    0.4906  -14.0650   17.0728 O   0  0  0  0  0  0  0  0  0  0  0  0
   -5.9889  -14.0003   21.5105 N   0  0  0  0  0  0  0  0  0  0  0  0
   -4.9463  -13.2464   21.9362 C   0  0  0  0  0  0  0  0  0  0  0  0
   -4.8823  -11.9183   21.7424 N   0  0  0  0  0  0  0  0  0  0  0  0
   -5.8629  -11.2458   21.1297 C   0  0  0  0  0  0  0  0  0  0  0  0
   -7.0208  -11.9969   20.6690 C   0  0  0  0  0  0  0  0  0  0  0  0
   -7.0748  -13.4634   20.8708 C   0  0  0  0  0  0  0  0  0  0  0  0
   -8.1430  -14.2288   20.4514 N   0  0  0  0  0  0  0  0  0  0  0  0
   -7.8262  -11.1128   20.1251 N   0  0  0  0  0  0  0  0  0  0  0  0
   -7.2547   -9.9028   20.1967 C   0  0  0  0  0  0  0  0  0  0  0  0
   -6.0720   -9.9737   20.8064 N   0  0  0  0  0  0  0  0  0  0  0  0
  2  1  1  1  0  0  0
  2  3  1  0  0  0  0
  2  5  1  0  0  0  0
  3  4  1  0  0  0  0
  3 17  1  0  0  0  0
  5  6  1  0  0  0  0
  7  6  1  6  0  0  0
  7  8  1  0  0  0  0
  7  9  1  0  0  0  0
 10  9  1  6  0  0  0
 10 11  1  0  0  0  0
 10 12  1  0  0  0  0
 11 16  1  0  0  0  0
 12 13  1  1  0  0  0
 12 14  1  0  0  0  0
 14 15  1  6  0  0  0
 14 16  1  0  0  0  0
 16 27  1  6  0  0  0
 18 19  2  0  0  0  0
 18 23  1  0  0  0  0
 19 20  1  0  0  0  0
 20 21  2  0  0  0  0
 21 22  1  0  0  0  0
 21 27  1  0  0  0  0
 22 23  2  0  0  0  0
 22 25  1  0  0  0  0
 23 24  1  0  0  0  0
 25 26  2  0  0  0  0
 26 27  1  0  0  0  0
M  END
>  <CHROM.1>
133.98315865,-176.77821384,-174.22370784,-59.53465380,-172.34489237,-58.30058047
98.62789182,-3.69994022,-11.11819054,19.46059661,0.57882112,-0.52149933,-2.59013449

>  <Name>
ligand

>  <RI>
0

>  <Rbt.Current_Directory>
/home/itssahil/PROJECTS/Mol_Feturizer/Test_systems_manuscript/rnas/4kqy

>  <Rbt.Executable>
rbdock ($Id: //depot/dev/client3/rdock/2013.1/src/exe/rbdock.cxx#4 $)

>  <Rbt.Library>
libRbt.so (2013.1, Build901 2013/11/27)

>  <Rbt.Parameter_File>
/export/apps/rDock/src/rDock_2013.1_src/data/scripts/dock_solv.prm

>  <Rbt.Receptor>
prm/pocket_docking_8.prm

>  <SCORE>
-17.8422

>  <SCORE.INTER>
-14.1206

>  <SCORE.INTER.CONST>
1

>  <SCORE.INTER.POLAR>
0

>  <SCORE.INTER.ROT>
7

>  <SCORE.INTER.SOLV>
14.5319

>  <SCORE.INTER.VDW>
-22.5243

>  <SCORE.INTER.norm>
-0.522984

>  <SCORE.INTRA>
-4.14899

>  <SCORE.INTRA.DIHEDRAL>
-7.36902

>  <SCORE.INTRA.DIHEDRAL.0>
10.4103

>  <SCORE.INTRA.POLAR>
0

>  <SCORE.INTRA.POLAR.0>
0

>  <SCORE.INTRA.REPUL>
0

>  <SCORE.INTRA.REPUL.0>
0

>  <SCORE.INTRA.SOLV>
-0.407956

>  <SCORE.INTRA.SOLV.lig_0>
-49.5008

>  <SCORE.INTRA.VDW>
-0.260505

>  <SCORE.INTRA.VDW.0>
-2.6946

>  <SCORE.INTRA.norm>
-0.153666

>  <SCORE.RESTR>
0.427333

>  <SCORE.RESTR.CAVITY>
0.427333

>  <SCORE.RESTR.norm>
0.0158271

>  <SCORE.SYSTEM>
0

>  <SCORE.SYSTEM.CONST>
0

>  <SCORE.SYSTEM.DIHEDRAL>
0

>  <SCORE.SYSTEM.SOLV>
0

>  <SCORE.SYSTEM.norm>
0

>  <SCORE.heavy>
27

>  <SCORE.norm>
-0.660823

>  <RMSD>
5.164

$$$$
ligand
 OpenBabel02271912153D
libRbt.so/2013.1/901 2013/11/27
 27 29  0  0  0  0  0  0  0  0999 V2000
   -1.7687   -9.4426   15.8187 N   0  0  0  0  0  0  0  0  0  0  0  0
   -2.7044   -9.4228   16.9270 C   0  0  2  0  0  0  0  0  0  0  0  0
   -3.8886   -8.6135   16.4957 C   0  0  0  0  0  0  0  0  0  0  0  0
   -3.7044   -7.4886   15.9830 O   0  0  0  0  0  0  0  0  0  0  0  0
   -2.0553   -8.7969   18.1644 C   0  0  0  0  0  0  0  0  0  0  0  0
   -2.7774   -9.2273   19.4605 C   0  0  0  0  0  0  0  0  0  0  0  0
   -4.4068   -8.8357   19.5451 S   0  0  2  0  0  0  0  0  0  0  0  0
   -4.5805   -7.1848   19.4881 C   0  0  0  0  0  0  0  0  0  0  0  0
   -5.0692   -9.4570   20.9676 C   0  0  0  0  0  0  0  0  0  0  0  0
   -6.3474  -10.2947   20.7527 C   0  0  1  0  0  0  0  0  0  0  0  0
   -7.2045   -9.7668   19.7267 O   0  0  0  0  0  0  0  0  0  0  0  0
   -6.0745  -11.7007   20.2432 C   0  0  1  0  0  0  0  0  0  0  0  0
   -5.5604  -12.6604   21.1884 O   0  0  0  0  0  0  0  0  0  0  0  0
   -7.4296  -12.0595   19.6853 C   0  0  1  0  0  0  0  0  0  0  0  0
   -8.3510  -12.2875   20.7473 O   0  0  0  0  0  0  0  0  0  0  0  0
   -7.8219  -10.8051   18.9623 C   0  0  2  0  0  0  0  0  0  0  0  0
   -5.0409   -9.0910   16.6274 O   0  0  0  0  0  0  0  0  0  0  0  0
   -5.0130  -13.0017   15.0176 N   0  0  0  0  0  0  0  0  0  0  0  0
   -5.1033  -13.3812   16.3154 C   0  0  0  0  0  0  0  0  0  0  0  0
   -5.8532  -12.7229   17.2152 N   0  0  0  0  0  0  0  0  0  0  0  0
   -6.5822  -11.6528   16.8795 C   0  0  0  0  0  0  0  0  0  0  0  0
   -6.5448  -11.2091   15.4942 C   0  0  0  0  0  0  0  0  0  0  0  0
   -5.7013  -11.9301   14.5130 C   0  0  0  0  0  0  0  0  0  0  0  0
   -5.6214  -11.5533   13.1884 N   0  0  0  0  0  0  0  0  0  0  0  0
   -7.3439  -10.1682   15.4314 N   0  0  0  0  0  0  0  0  0  0  0  0
   -7.8442   -9.9305   16.6516 C   0  0  0  0  0  0  0  0  0  0  0  0
   -7.3936  -10.8253   17.5301 N   0  0  0  0  0  0  0  0  0  0  0  0
  2  1  1  6  0  0  0
  2  3  1  0  0  0  0
  2  5  1  0  0  0  0
  3  4  1  0  0  0  0
  3 17  1  0  0  0  0
  5  6  1  0  0  0  0
  7  6  1  1  0  0  0
  7  8  1  0  0  0  0
  7  9  1  0  0  0  0
 10  9  1  6  0  0  0
 10 11  1  0  0  0  0
 10 12  1  0  0  0  0
 11 16  1  0  0  0  0
 12 13  1  1  0  0  0
 12 14  1  0  0  0  0
 14 15  1  1  0  0  0
 14 16  1  0  0  0  0
 16 27  1  6  0  0  0
 18 19  2  0  0  0  0
 18 23  1  0  0  0  0
 19 20  1  0  0  0  0
 20 21  2  0  0  0  0
 21 22  1  0  0  0  0
 21 27  1  0  0  0  0
 22 23  2  0  0  0  0
 22 25  1  0  0  0  0
 23 24  1  0  0  0  0
 25 26  2  0  0  0  0
 26 27  1  0  0  0  0
M  END
>  <CHROM.1>
-49.49535926,-158.42197929,-58.92516481,-61.97849151,-128.32028556,-37.78413649
105.90073179,-5.41223157,-10.38478060,17.88990803,-1.01146627,0.73054642
1.32100916

>  <Name>
ligand

>  <RI>
0

>  <Rbt.Current_Directory>
/home/itssahil/PROJECTS/Mol_Feturizer/Test_systems_manuscript/rnas/4kqy

>  <Rbt.Executable>
rbdock ($Id: //depot/dev/client3/rdock/2013.1/src/exe/rbdock.cxx#4 $)

>  <Rbt.Library>
libRbt.so (2013.1, Build901 2013/11/27)

>  <Rbt.Parameter_File>
/export/apps/rDock/src/rDock_2013.1_src/data/scripts/dock_solv.prm

>  <Rbt.Receptor>
prm/pocket_docking_7.prm

>  <SCORE>
-10.994

>  <SCORE.INTER>
-8.62005

>  <SCORE.INTER.CONST>
1

>  <SCORE.INTER.POLAR>
0

>  <SCORE.INTER.ROT>
7

>  <SCORE.INTER.SOLV>
14.9734

>  <SCORE.INTER.VDW>
-19.0045

>  <SCORE.INTER.norm>
-0.319261

>  <SCORE.INTRA>
-2.37393

>  <SCORE.INTRA.DIHEDRAL>
0.207745

>  <SCORE.INTRA.DIHEDRAL.0>
10.4103

>  <SCORE.INTRA.POLAR>
0

>  <SCORE.INTRA.POLAR.0>
0

>  <SCORE.INTRA.REPUL>
0

>  <SCORE.INTRA.REPUL.0>
0

>  <SCORE.INTRA.SOLV>
-0.333628

>  <SCORE.INTRA.SOLV.lig_0>
-49.5008

>  <SCORE.INTRA.VDW>
-2.31099

>  <SCORE.INTRA.VDW.0>
-2.6946

>  <SCORE.INTRA.norm>
-0.0879233

>  <SCORE.RESTR>
0

>  <SCORE.RESTR.CAVITY>
0

>  <SCORE.RESTR.norm>
0

>  <SCORE.SYSTEM>
0

>  <SCORE.SYSTEM.CONST>
0

>  <SCORE.SYSTEM.DIHEDRAL>
0

>  <SCORE.SYSTEM.SOLV>
0

>  <SCORE.SYSTEM.norm>
0

>  <SCORE.heavy>
27

>  <SCORE.norm>
-0.407185

>  <RMSD>
5.167

$$$$
ligand
 OpenBabel02271912153D
libRbt.so/2013.1/901 2013/11/27
 27 29  0  0  0  0  0  0  0  0999 V2000
   -4.7607   -9.4617   15.9518 N   0  0  0  0  0  0  0  0  0  0  0  0
   -4.2163   -8.5102   16.9018 C   0  0  2  0  0  0  0  0  0  0  0  0
   -2.7586   -8.8182   17.0549 C   0  0  0  0  0  0  0  0  0  0  0  0
   -1.9888   -7.9296   17.4793 O   0  0  0  0  0  0  0  0  0  0  0  0
   -4.9299   -8.6330   18.2509 C   0  0  0  0  0  0  0  0  0  0  0  0
   -4.5605   -7.4666   19.1941 C   0  0  0  0  0  0  0  0  0  0  0  0
   -5.0389   -7.6489   20.7920 S   0  0  2  0  0  0  0  0  0  0  0  0
   -5.6175   -6.2004   21.3627 C   0  0  0  0  0  0  0  0  0  0  0  0
   -3.7330   -8.1780   21.7211 C   0  0  0  0  0  0  0  0  0  0  0  0
   -3.6195   -9.7133   21.8298 C   0  0  1  0  0  0  0  0  0  0  0  0
   -4.8189  -10.3365   22.3187 O   0  0  0  0  0  0  0  0  0  0  0  0
   -3.4280  -10.4053   20.4899 C   0  0  1  0  0  0  0  0  0  0  0  0
   -2.1259  -10.3156   19.8773 O   0  0  0  0  0  0  0  0  0  0  0  0
   -3.8396  -11.8126   20.8452 C   0  0  1  0  0  0  0  0  0  0  0  0
   -2.8408  -12.4242   21.6560 O   0  0  0  0  0  0  0  0  0  0  0  0
   -5.0690  -11.5881   21.6749 C   0  0  2  0  0  0  0  0  0  0  0  0
   -2.3416   -9.9699   16.7851 O   0  0  0  0  0  0  0  0  0  0  0  0
   -9.0766  -14.2307   19.3876 N   0  0  0  0  0  0  0  0  0  0  0  0
   -8.0570  -14.7107   20.1403 C   0  0  0  0  0  0  0  0  0  0  0  0
   -7.0987  -13.9219   20.6547 N   0  0  0  0  0  0  0  0  0  0  0  0
   -7.1014  -12.5966   20.4726 C   0  0  0  0  0  0  0  0  0  0  0  0
   -8.1838  -12.0176   19.6912 C   0  0  0  0  0  0  0  0  0  0  0  0
   -9.2261  -12.8969   19.1128 C   0  0  0  0  0  0  0  0  0  0  0  0
  -10.2727  -12.4068   18.3596 N   0  0  0  0  0  0  0  0  0  0  0  0
   -7.9605  -10.7231   19.6768 N   0  0  0  0  0  0  0  0  0  0  0  0
   -6.8353  -10.4688   20.3590 C   0  0  0  0  0  0  0  0  0  0  0  0
   -6.3137  -11.5937   20.8469 N   0  0  0  0  0  0  0  0  0  0  0  0
  2  1  1  6  0  0  0
  2  3  1  0  0  0  0
  2  5  1  0  0  0  0
  3  4  1  0  0  0  0
  3 17  1  0  0  0  0
  5  6  1  0  0  0  0
  7  6  1  6  0  0  0
  7  8  1  0  0  0  0
  7  9  1  0  0  0  0
 10  9  1  6  0  0  0
 10 11  1  0  0  0  0
 10 12  1  0  0  0  0
 11 16  1  0  0  0  0
 12 13  1  1  0  0  0
 12 14  1  0  0  0  0
 14 15  1  1  0  0  0
 14 16  1  0  0  0  0
 16 27  1  6  0  0  0
 18 19  2  0  0  0  0
 18 23  1  0  0  0  0
 19 20  1  0  0  0  0
 20 21  2  0  0  0  0
 21 22  1  0  0  0  0
 21 27  1  0  0  0  0
 22 23  2  0  0  0  0
 22 25  1  0  0  0  0
 23 24  1  0  0  0  0
 25 26  2  0  0  0  0
 26 27  1  0  0  0  0
M  END
>  <CHROM.1>
158.37251238,-169.35158909,-168.52642024,-138.94767550,-91.10297497,-54.86769352
-155.24835587,-5.28578490,-10.35942879,19.78712920,0.33308291,-0.71367884
-1.25469300

>  <Name>
ligand

>  <RI>
0

>  <Rbt.Current_Directory>
/home/itssahil/PROJECTS/Mol_Feturizer/Test_systems_manuscript/rnas/4kqy

>  <Rbt.Executable>
rbdock ($Id: //depot/dev/client3/rdock/2013.1/src/exe/rbdock.cxx#4 $)

>  <Rbt.Library>
libRbt.so (2013.1, Build901 2013/11/27)

>  <Rbt.Parameter_File>
/export/apps/rDock/src/rDock_2013.1_src/data/scripts/dock_solv.prm

>  <Rbt.Receptor>
prm/pocket_docking_5.prm

>  <SCORE>
-22.5185

>  <SCORE.INTER>
-20.3566

>  <SCORE.INTER.CONST>
1

>  <SCORE.INTER.POLAR>
0

>  <SCORE.INTER.ROT>
7

>  <SCORE.INTER.SOLV>
12.4248

>  <SCORE.INTER.VDW>
-25.9793

>  <SCORE.INTER.norm>
-0.753948

>  <SCORE.INTRA>
-2.17897

>  <SCORE.INTRA.DIHEDRAL>
-0.490996

>  <SCORE.INTRA.DIHEDRAL.0>
10.4103

>  <SCORE.INTRA.POLAR>
0

>  <SCORE.INTRA.POLAR.0>
0

>  <SCORE.INTRA.REPUL>
0

>  <SCORE.INTRA.REPUL.0>
0

>  <SCORE.INTRA.SOLV>
0.137561

>  <SCORE.INTRA.SOLV.lig_0>
-49.5008

>  <SCORE.INTRA.VDW>
-2.00226

>  <SCORE.INTRA.VDW.0>
-2.6946

>  <SCORE.INTRA.norm>
-0.0807027

>  <SCORE.RESTR>
0.0170491

>  <SCORE.RESTR.CAVITY>
0.0170491

>  <SCORE.RESTR.norm>
0.000631446

>  <SCORE.SYSTEM>
0

>  <SCORE.SYSTEM.CONST>
0

>  <SCORE.SYSTEM.DIHEDRAL>
0

>  <SCORE.SYSTEM.SOLV>
0

>  <SCORE.SYSTEM.norm>
0

>  <SCORE.heavy>
27

>  <SCORE.norm>
-0.83402

>  <RMSD>
5.170

$$$$
ligand
 OpenBabel02271912153D
libRbt.so/2013.1/901 2013/11/27
 27 29  0  0  0  0  0  0  0  0999 V2000
   -2.3217  -11.6700   15.2659 N   0  0  0  0  0  0  0  0  0  0  0  0
   -2.3010  -11.0450   16.5748 C   0  0  2  0  0  0  0  0  0  0  0  0
   -1.5840  -11.9773   17.5022 C   0  0  0  0  0  0  0  0  0  0  0  0
   -1.4735  -11.6717   18.7091 O   0  0  0  0  0  0  0  0  0  0  0  0
   -3.7276  -10.7949   17.0711 C   0  0  0  0  0  0  0  0  0  0  0  0
   -4.3655   -9.5765   16.3674 C   0  0  0  0  0  0  0  0  0  0  0  0
   -3.5960   -8.1078   16.6245 S   0  0  2  0  0  0  0  0  0  0  0  0
   -2.2569   -8.0087   15.6469 C   0  0  0  0  0  0  0  0  0  0  0  0
   -3.1609   -7.9689   18.2492 C   0  0  0  0  0  0  0  0  0  0  0  0
   -4.3109   -7.5121   19.1715 C   0  0  1  0  0  0  0  0  0  0  0  0
   -5.5480   -8.1978   18.9160 O   0  0  0  0  0  0  0  0  0  0  0  0
   -4.0738   -7.8256   20.6400 C   0  0  1  0  0  0  0  0  0  0  0  0
   -3.1279   -7.0009   21.3498 O   0  0  0  0  0  0  0  0  0  0  0  0
   -5.4826   -7.7344   21.1721 C   0  0  1  0  0  0  0  0  0  0  0  0
   -5.9044   -6.3744   21.2092 O   0  0  0  0  0  0  0  0  0  0  0  0
   -6.2706   -8.4592   20.1214 C   0  0  2  0  0  0  0  0  0  0  0  0
   -1.1352  -13.0614   17.0589 O   0  0  0  0  0  0  0  0  0  0  0  0
   -4.2573  -12.9716   22.0863 N   0  0  0  0  0  0  0  0  0  0  0  0
   -3.6905  -11.7425   22.0179 C   0  0  0  0  0  0  0  0  0  0  0  0
   -4.3174  -10.6813   21.4831 N   0  0  0  0  0  0  0  0  0  0  0  0
   -5.5613  -10.7660   20.9983 C   0  0  0  0  0  0  0  0  0  0  0  0
   -6.2326  -12.0554   21.0637 C   0  0  0  0  0  0  0  0  0  0  0  0
   -5.5272  -13.2241   21.6387 C   0  0  0  0  0  0  0  0  0  0  0  0
   -6.1096  -14.4717   21.7226 N   0  0  0  0  0  0  0  0  0  0  0  0
   -7.4237  -11.8642   20.5435 N   0  0  0  0  0  0  0  0  0  0  0  0
   -7.5270  -10.5864   20.1528 C   0  0  0  0  0  0  0  0  0  0  0  0
   -6.4092   -9.9157   20.4287 N   0  0  0  0  0  0  0  0  0  0  0  0
  2  1  1  6  0  0  0
  2  3  1  0  0  0  0
  2  5  1  0  0  0  0
  3  4  1  0  0  0  0
  3 17  1  0  0  0  0
  5  6  1  0  0  0  0
  7  6  1  1  0  0  0
  7  8  1  0  0  0  0
  7  9  1  0  0  0  0
 10  9  1  6  0  0  0
 10 11  1  0  0  0  0
 10 12  1  0  0  0  0
 11 16  1  0  0  0  0
 12 13  1  1  0  0  0
 12 14  1  0  0  0  0
 14 15  1  6  0  0  0
 14 16  1  0  0  0  0
 16 27  1  1  0  0  0
 18 19  2  0  0  0  0
 18 23  1  0  0  0  0
 19 20  1  0  0  0  0
 20 21  2  0  0  0  0
 21 22  1  0  0  0  0
 21 27  1  0  0  0  0
 22 23  2  0  0  0  0
 22 25  1  0  0  0  0
 23 24  1  0  0  0  0
 25 26  2  0  0  0  0
 26 27  1  0  0  0  0
M  END
>  <CHROM.1>
-177.86239188,-76.40169773,-62.13172598,79.10421354,-81.38747869,45.06718053
81.40865411,-4.27275950,-10.04308941,19.22477804,-0.42286985,-0.92833703
2.90321132

>  <Name>
ligand

>  <RI>
0

>  <Rbt.Current_Directory>
/home/itssahil/PROJECTS/Mol_Feturizer/Test_systems_manuscript/rnas/4kqy

>  <Rbt.Executable>
rbdock ($Id: //depot/dev/client3/rdock/2013.1/src/exe/rbdock.cxx#4 $)

>  <Rbt.Library>
libRbt.so (2013.1, Build901 2013/11/27)

>  <Rbt.Parameter_File>
/export/apps/rDock/src/rDock_2013.1_src/data/scripts/dock_solv.prm

>  <Rbt.Receptor>
prm/pocket_docking_5.prm

>  <SCORE>
-18.477

>  <SCORE.INTER>
-17.3968

>  <SCORE.INTER.CONST>
1

>  <SCORE.INTER.POLAR>
0

>  <SCORE.INTER.ROT>
7

>  <SCORE.INTER.SOLV>
14.2596

>  <SCORE.INTER.VDW>
-24.6177

>  <SCORE.INTER.norm>
-0.644327

>  <SCORE.INTRA>
-1.08013

>  <SCORE.INTRA.DIHEDRAL>
-3.50273

>  <SCORE.INTRA.DIHEDRAL.0>
10.4103

>  <SCORE.INTRA.POLAR>
0

>  <SCORE.INTRA.POLAR.0>
0

>  <SCORE.INTRA.REPUL>
0

>  <SCORE.INTRA.REPUL.0>
0

>  <SCORE.INTRA.SOLV>
1.38728

>  <SCORE.INTRA.SOLV.lig_0>
-49.5008

>  <SCORE.INTRA.VDW>
-0.0224131

>  <SCORE.INTRA.VDW.0>
-2.6946

>  <SCORE.INTRA.norm>
-0.040005

>  <SCORE.RESTR>
0

>  <SCORE.RESTR.CAVITY>
0

>  <SCORE.RESTR.norm>
0

>  <SCORE.SYSTEM>
0

>  <SCORE.SYSTEM.CONST>
0

>  <SCORE.SYSTEM.DIHEDRAL>
0

>  <SCORE.SYSTEM.SOLV>
0

>  <SCORE.SYSTEM.norm>
0

>  <SCORE.heavy>
27

>  <SCORE.norm>
-0.684332

>  <RMSD>
5.170

$$$$
ligand
 OpenBabel02271912153D
libRbt.so/2013.1/901 2013/11/27
 27 29  0  0  0  0  0  0  0  0999 V2000
   -3.3215  -11.8371   16.1889 N   0  0  0  0  0  0  0  0  0  0  0  0
   -1.9353  -12.1266   15.8743 C   0  0  2  0  0  0  0  0  0  0  0  0
   -1.3598  -12.8695   17.0405 C   0  0  0  0  0  0  0  0  0  0  0  0
   -0.2146  -13.3612   16.9454 O   0  0  0  0  0  0  0  0  0  0  0  0
   -1.1585  -10.8291   15.6349 C   0  0  0  0  0  0  0  0  0  0  0  0
   -1.0892   -9.9674   16.9152 C   0  0  0  0  0  0  0  0  0  0  0  0
   -2.4838   -9.1123   17.2882 S   0  0  2  0  0  0  0  0  0  0  0  0
   -2.6273   -7.8162   16.2595 C   0  0  0  0  0  0  0  0  0  0  0  0
   -2.4236   -8.5962   18.8940 C   0  0  0  0  0  0  0  0  0  0  0  0
   -3.7464   -7.9915   19.4103 C   0  0  1  0  0  0  0  0  0  0  0  0
   -4.9111   -8.6796   18.9245 O   0  0  0  0  0  0  0  0  0  0  0  0
   -3.9192   -8.1034   20.9164 C   0  0  1  0  0  0  0  0  0  0  0  0
   -3.1456   -7.2087   21.7409 O   0  0  0  0  0  0  0  0  0  0  0  0
   -5.4104   -7.9094   21.0379 C   0  0  1  0  0  0  0  0  0  0  0  0
   -5.7486   -6.5486   20.7868 O   0  0  0  0  0  0  0  0  0  0  0  0
   -5.9370   -8.7559   19.9171 C   0  0  2  0  0  0  0  0  0  0  0  0
   -2.0229  -12.9579   18.1014 O   0  0  0  0  0  0  0  0  0  0  0  0
   -4.2846  -13.4581   21.7703 N   0  0  0  0  0  0  0  0  0  0  0  0
   -3.5590  -12.3486   21.4890 C   0  0  0  0  0  0  0  0  0  0  0  0
   -4.1112  -11.2195   21.0141 N   0  0  0  0  0  0  0  0  0  0  0  0
   -5.4281  -11.1103   20.8065 C   0  0  0  0  0  0  0  0  0  0  0  0
   -6.2646  -12.2613   21.1113 C   0  0  0  0  0  0  0  0  0  0  0  0
   -5.6450  -13.5080   21.6175 C   0  0  0  0  0  0  0  0  0  0  0  0
   -6.3853  -14.6323   21.9186 N   0  0  0  0  0  0  0  0  0  0  0  0
   -7.4948  -11.8911   20.8364 N   0  0  0  0  0  0  0  0  0  0  0  0
   -7.4770  -10.6326   20.3763 C   0  0  0  0  0  0  0  0  0  0  0  0
   -6.2342  -10.1524   20.3602 N   0  0  0  0  0  0  0  0  0  0  0  0
  2  1  1  1  0  0  0
  2  3  1  0  0  0  0
  2  5  1  0  0  0  0
  3  4  1  0  0  0  0
  3 17  1  0  0  0  0
  5  6  1  0  0  0  0
  7  6  1  6  0  0  0
  7  8  1  0  0  0  0
  7  9  1  0  0  0  0
 10  9  1  6  0  0  0
 10 11  1  0  0  0  0
 10 12  1  0  0  0  0
 11 16  1  0  0  0  0
 12 13  1  1  0  0  0
 12 14  1  0  0  0  0
 14 15  1  6  0  0  0
 14 16  1  0  0  0  0
 16 27  1  1  0  0  0
 18 19  2  0  0  0  0
 18 23  1  0  0  0  0
 19 20  1  0  0  0  0
 20 21  2  0  0  0  0
 21 22  1  0  0  0  0
 21 27  1  0  0  0  0
 22 23  2  0  0  0  0
 22 25  1  0  0  0  0
 23 24  1  0  0  0  0
 25 26  2  0  0  0  0
 26 27  1  0  0  0  0
M  END
>  <CHROM.1>
172.08167890,64.44479504,-77.45535362,-74.67298277,-170.93243259,38.45239713
52.48566884,-3.88611661,-10.46462396,19.23751291,-0.00187425,-0.81560923
3.08904555

>  <Name>
ligand

>  <RI>
0

>  <Rbt.Current_Directory>
/home/itssahil/PROJECTS/Mol_Feturizer/Test_systems_manuscript/rnas/4kqy

>  <Rbt.Executable>
rbdock ($Id: //depot/dev/client3/rdock/2013.1/src/exe/rbdock.cxx#4 $)

>  <Rbt.Library>
libRbt.so (2013.1, Build901 2013/11/27)

>  <Rbt.Parameter_File>
/export/apps/rDock/src/rDock_2013.1_src/data/scripts/dock_solv.prm

>  <Rbt.Receptor>
prm/pocket_docking_6.prm

>  <SCORE>
-19.0784

>  <SCORE.INTER>
-17.8307

>  <SCORE.INTER.CONST>
1

>  <SCORE.INTER.POLAR>
0

>  <SCORE.INTER.ROT>
7

>  <SCORE.INTER.SOLV>
14.184

>  <SCORE.INTER.VDW>
-24.8818

>  <SCORE.INTER.norm>
-0.660397

>  <SCORE.INTRA>
-1.24769

>  <SCORE.INTRA.DIHEDRAL>
-4.15295

>  <SCORE.INTRA.DIHEDRAL.0>
10.4103

>  <SCORE.INTRA.POLAR>
0

>  <SCORE.INTRA.POLAR.0>
0

>  <SCORE.INTRA.REPUL>
0

>  <SCORE.INTRA.REPUL.0>
0

>  <SCORE.INTRA.SOLV>
1.97591

>  <SCORE.INTRA.SOLV.lig_0>
-49.5008

>  <SCORE.INTRA.VDW>
-0.159161

>  <SCORE.INTRA.VDW.0>
-2.6946

>  <SCORE.INTRA.norm>
-0.0462106

>  <SCORE.RESTR>
0

>  <SCORE.RESTR.CAVITY>
0

>  <SCORE.RESTR.norm>
0

>  <SCORE.SYSTEM>
0

>  <SCORE.SYSTEM.CONST>
0

>  <SCORE.SYSTEM.DIHEDRAL>
0

>  <SCORE.SYSTEM.SOLV>
0

>  <SCORE.SYSTEM.norm>
0

>  <SCORE.heavy>
27

>  <SCORE.norm>
-0.706607

>  <RMSD>
5.170

$$$$
ligand
 OpenBabel02271912153D
libRbt.so/2013.1/901 2013/11/27
 27 29  0  0  0  0  0  0  0  0999 V2000
   -2.2494  -10.0976   17.0249 N   0  0  0  0  0  0  0  0  0  0  0  0
   -3.3271   -9.6080   17.8634 C   0  0  2  0  0  0  0  0  0  0  0  0
   -3.3887   -8.1220   17.6871 C   0  0  0  0  0  0  0  0  0  0  0  0
   -2.4722   -7.5431   17.0649 O   0  0  0  0  0  0  0  0  0  0  0  0
   -3.0651   -9.9586   19.3306 C   0  0  0  0  0  0  0  0  0  0  0  0
   -4.2642   -9.5757   20.2262 C   0  0  0  0  0  0  0  0  0  0  0  0
   -4.1629  -10.0772   21.8242 S   0  0  2  0  0  0  0  0  0  0  0  0
   -2.8174   -9.4048   22.5286 C   0  0  0  0  0  0  0  0  0  0  0  0
   -4.0922  -11.7622   21.8895 C   0  0  0  0  0  0  0  0  0  0  0  0
   -5.3499  -12.4663   21.3380 C   0  0  1  0  0  0  0  0  0  0  0  0
   -5.8514  -11.8668   20.1318 O   0  0  0  0  0  0  0  0  0  0  0  0
   -5.1005  -13.8998   20.8978 C   0  0  1  0  0  0  0  0  0  0  0  0
   -4.9518  -14.8944   21.9309 O   0  0  0  0  0  0  0  0  0  0  0  0
   -6.2934  -14.1244   20.0018 C   0  0  1  0  0  0  0  0  0  0  0  0
   -7.4778  -14.2416   20.7844 O   0  0  0  0  0  0  0  0  0  0  0  0
   -6.3526  -12.8462   19.2190 C   0  0  2  0  0  0  0  0  0  0  0  0
   -4.3730   -7.4892   18.1386 O   0  0  0  0  0  0  0  0  0  0  0  0
   -1.8579  -14.0300   16.6359 N   0  0  0  0  0  0  0  0  0  0  0  0
   -2.1350  -14.1335   17.9584 C   0  0  0  0  0  0  0  0  0  0  0  0
   -3.3234  -13.7881   18.4816 N   0  0  0  0  0  0  0  0  0  0  0  0
   -4.3257  -13.3354   17.7202 C   0  0  0  0  0  0  0  0  0  0  0  0
   -4.0971  -13.2228   16.2876 C   0  0  0  0  0  0  0  0  0  0  0  0
   -2.7780  -13.5888   15.7218 C   0  0  0  0  0  0  0  0  0  0  0  0
   -2.5006  -13.4982   14.3736 N   0  0  0  0  0  0  0  0  0  0  0  0
   -5.2236  -12.7757   15.7806 N   0  0  0  0  0  0  0  0  0  0  0  0
   -6.1034  -12.5895   16.7742 C   0  0  0  0  0  0  0  0  0  0  0  0
   -5.5710  -12.9301   17.9473 N   0  0  0  0  0  0  0  0  0  0  0  0
  2  1  1  6  0  0  0
  2  3  1  0  0  0  0
  2  5  1  0  0  0  0
  3  4  1  0  0  0  0
  3 17  1  0  0  0  0
  5  6  1  0  0  0  0
  7  6  1  6  0  0  0
  7  8  1  0  0  0  0
  7  9  1  0  0  0  0
 10  9  1  6  0  0  0
 10 11  1  0  0  0  0
 10 12  1  0  0  0  0
 11 16  1  0  0  0  0
 12 13  1  1  0  0  0
 12 14  1  0  0  0  0
 14 15  1  1  0  0  0
 14 16  1  0  0  0  0
 16 27  1  6  0  0  0
 18 19  2  0  0  0  0
 18 23  1  0  0  0  0
 19 20  1  0  0  0  0
 20 21  2  0  0  0  0
 21 22  1  0  0  0  0
 21 27  1  0  0  0  0
 22 23  2  0  0  0  0
 22 25  1  0  0  0  0
 23 24  1  0  0  0  0
 25 26  2  0  0  0  0
 26 27  1  0  0  0  0
M  END
>  <CHROM.1>
-9.75694133,-174.22909410,173.10997727,59.99024404,-62.95852413,41.97132856
67.12801417,-4.21782774,-11.78459014,18.93851951,-0.45548863,1.11862857,0.75612746

>  <Name>
ligand

>  <RI>
0

>  <Rbt.Current_Directory>
/home/itssahil/PROJECTS/Mol_Feturizer/Test_systems_manuscript/rnas/4kqy

>  <Rbt.Executable>
rbdock ($Id: //depot/dev/client3/rdock/2013.1/src/exe/rbdock.cxx#4 $)

>  <Rbt.Library>
libRbt.so (2013.1, Build901 2013/11/27)

>  <Rbt.Parameter_File>
/export/apps/rDock/src/rDock_2013.1_src/data/scripts/dock_solv.prm

>  <Rbt.Receptor>
prm/pocket_docking_5.prm

>  <SCORE>
-17.2123

>  <SCORE.INTER>
-13.6368

>  <SCORE.INTER.CONST>
1

>  <SCORE.INTER.POLAR>
0

>  <SCORE.INTER.ROT>
7

>  <SCORE.INTER.SOLV>
10.7544

>  <SCORE.INTER.VDW>
-20.9426

>  <SCORE.INTER.norm>
-0.505066

>  <SCORE.INTRA>
-3.57553

>  <SCORE.INTRA.DIHEDRAL>
-6.26396

>  <SCORE.INTRA.DIHEDRAL.0>
10.4103

>  <SCORE.INTRA.POLAR>
0

>  <SCORE.INTRA.POLAR.0>
0

>  <SCORE.INTRA.REPUL>
0

>  <SCORE.INTRA.REPUL.0>
0

>  <SCORE.INTRA.SOLV>
0.171246

>  <SCORE.INTRA.SOLV.lig_0>
-49.5008

>  <SCORE.INTRA.VDW>
-0.529169

>  <SCORE.INTRA.VDW.0>
-2.6946

>  <SCORE.INTRA.norm>
-0.132427

>  <SCORE.RESTR>
0

>  <SCORE.RESTR.CAVITY>
0

>  <SCORE.RESTR.norm>
0

>  <SCORE.SYSTEM>
0

>  <SCORE.SYSTEM.CONST>
0

>  <SCORE.SYSTEM.DIHEDRAL>
0

>  <SCORE.SYSTEM.SOLV>
0

>  <SCORE.SYSTEM.norm>
0

>  <SCORE.heavy>
27

>  <SCORE.norm>
-0.637493

>  <RMSD>
5.171

$$$$
ligand
 OpenBabel02271912153D
libRbt.so/2013.1/901 2013/11/27
 27 29  0  0  0  0  0  0  0  0999 V2000
   -5.2442  -10.1185   16.8959 N   0  0  0  0  0  0  0  0  0  0  0  0
   -5.7568   -8.7888   17.1664 C   0  0  2  0  0  0  0  0  0  0  0  0
   -6.5873   -8.3834   15.9877 C   0  0  0  0  0  0  0  0  0  0  0  0
   -7.5411   -9.1100   15.6349 O   0  0  0  0  0  0  0  0  0  0  0  0
   -4.6041   -7.8017   17.3688 C   0  0  0  0  0  0  0  0  0  0  0  0
   -3.7765   -8.1492   18.6261 C   0  0  0  0  0  0  0  0  0  0  0  0
   -4.5696   -7.9524   20.0916 S   0  0  2  0  0  0  0  0  0  0  0  0
   -5.0435   -6.3687   20.2534 C   0  0  0  0  0  0  0  0  0  0  0  0
   -3.5480   -8.4023   21.3575 C   0  0  0  0  0  0  0  0  0  0  0  0
   -3.5063   -9.9222   21.6221 C   0  0  1  0  0  0  0  0  0  0  0  0
   -4.7227  -10.4309   22.1944 O   0  0  0  0  0  0  0  0  0  0  0  0
   -3.3796  -10.7563   20.3575 C   0  0  1  0  0  0  0  0  0  0  0  0
   -2.0893  -10.7955   19.7155 O   0  0  0  0  0  0  0  0  0  0  0  0
   -3.8502  -12.0974   20.8637 C   0  0  1  0  0  0  0  0  0  0  0  0
   -2.8636  -12.6725   21.7151 O   0  0  0  0  0  0  0  0  0  0  0  0
   -5.0477  -11.7277   21.6880 C   0  0  2  0  0  0  0  0  0  0  0  0
   -6.3313   -7.3077   15.3956 O   0  0  0  0  0  0  0  0  0  0  0  0
   -9.0666  -14.4385   19.5025 N   0  0  0  0  0  0  0  0  0  0  0  0
   -8.0239  -14.9001   20.2348 C   0  0  0  0  0  0  0  0  0  0  0  0
   -7.0659  -14.0951   20.7241 N   0  0  0  0  0  0  0  0  0  0  0  0
   -7.0916  -12.7710   20.5357 C   0  0  0  0  0  0  0  0  0  0  0  0
   -8.1990  -12.2114   19.7756 C   0  0  0  0  0  0  0  0  0  0  0  0
   -9.2412  -13.1084   19.2246 C   0  0  0  0  0  0  0  0  0  0  0  0
  -10.3109  -12.6370   18.4923 N   0  0  0  0  0  0  0  0  0  0  0  0
   -7.9946  -10.9139   19.7500 N   0  0  0  0  0  0  0  0  0  0  0  0
   -6.8584  -10.6403   20.4059 C   0  0  0  0  0  0  0  0  0  0  0  0
   -6.3102  -11.7551   20.8877 N   0  0  0  0  0  0  0  0  0  0  0  0
  2  1  1  6  0  0  0
  2  3  1  0  0  0  0
  2  5  1  0  0  0  0
  3  4  1  0  0  0  0
  3 17  1  0  0  0  0
  5  6  1  0  0  0  0
  7  6  1  6  0  0  0
  7  8  1  0  0  0  0
  7  9  1  0  0  0  0
 10  9  1  6  0  0  0
 10 11  1  0  0  0  0
 10 12  1  0  0  0  0
 11 16  1  0  0  0  0
 12 13  1  1  0  0  0
 12 14  1  0  0  0  0
 14 15  1  1  0  0  0
 14 16  1  0  0  0  0
 16 27  1  6  0  0  0
 18 19  2  0  0  0  0
 18 23  1  0  0  0  0
 19 20  1  0  0  0  0
 20 21  2  0  0  0  0
 21 22  1  0  0  0  0
 21 27  1  0  0  0  0
 22 23  2  0  0  0  0
 22 25  1  0  0  0  0
 23 24  1  0  0  0  0
 25 26  2  0  0  0  0
 26 27  1  0  0  0  0
M  END
>  <CHROM.1>
56.42148214,-64.76861302,-67.40550094,-59.56883406,-82.22986120,-70.53112288
-161.94362435,-5.74722674,-10.48235230,19.50724393,0.87525819,-0.60525090
-0.70813347

>  <Name>
ligand

>  <RI>
0

>  <Rbt.Current_Directory>
/home/itssahil/PROJECTS/Mol_Feturizer/Test_systems_manuscript/rnas/4kqy

>  <Rbt.Executable>
rbdock ($Id: //depot/dev/client3/rdock/2013.1/src/exe/rbdock.cxx#4 $)

>  <Rbt.Library>
libRbt.so (2013.1, Build901 2013/11/27)

>  <Rbt.Parameter_File>
/export/apps/rDock/src/rDock_2013.1_src/data/scripts/dock_solv.prm

>  <Rbt.Receptor>
prm/pocket_docking_5.prm

>  <SCORE>
-21.838

>  <SCORE.INTER>
-20.2606

>  <SCORE.INTER.CONST>
1

>  <SCORE.INTER.POLAR>
0

>  <SCORE.INTER.ROT>
7

>  <SCORE.INTER.SOLV>
12.2944

>  <SCORE.INTER.VDW>
-25.8719

>  <SCORE.INTER.norm>
-0.750394

>  <SCORE.INTRA>
-1.57737

>  <SCORE.INTRA.DIHEDRAL>
-5.53894

>  <SCORE.INTRA.DIHEDRAL.0>
10.4103

>  <SCORE.INTRA.POLAR>
0

>  <SCORE.INTRA.POLAR.0>
0

>  <SCORE.INTRA.REPUL>
0

>  <SCORE.INTRA.REPUL.0>
0

>  <SCORE.INTRA.SOLV>
1.46002

>  <SCORE.INTRA.SOLV.lig_0>
-49.5008

>  <SCORE.INTRA.VDW>
0.462087

>  <SCORE.INTRA.VDW.0>
-2.6946

>  <SCORE.INTRA.norm>
-0.0584212

>  <SCORE.RESTR>
0

>  <SCORE.RESTR.CAVITY>
0

>  <SCORE.RESTR.norm>
0

>  <SCORE.SYSTEM>
0

>  <SCORE.SYSTEM.CONST>
0

>  <SCORE.SYSTEM.DIHEDRAL>
0

>  <SCORE.SYSTEM.SOLV>
0

>  <SCORE.SYSTEM.norm>
0

>  <SCORE.heavy>
27

>  <SCORE.norm>
-0.808816

>  <RMSD>
5.174

$$$$
ligand
 OpenBabel02271912153D
libRbt.so/2013.1/901 2013/11/27
 27 29  0  0  0  0  0  0  0  0999 V2000
    0.9708  -11.7504   17.0547 N   0  0  0  0  0  0  0  0  0  0  0  0
   -0.3310  -12.3831   17.1519 C   0  0  2  0  0  0  0  0  0  0  0  0
   -0.7034  -12.8489   15.7780 C   0  0  0  0  0  0  0  0  0  0  0  0
   -1.3844  -13.8892   15.6504 O   0  0  0  0  0  0  0  0  0  0  0  0
   -1.3711  -11.3895   17.6762 C   0  0  0  0  0  0  0  0  0  0  0  0
   -1.3989  -10.0993   16.8270 C   0  0  0  0  0  0  0  0  0  0  0  0
   -2.6148   -9.0079   17.2086 S   0  0  2  0  0  0  0  0  0  0  0  0
   -2.4955   -7.6809   16.2169 C   0  0  0  0  0  0  0  0  0  0  0  0
   -2.4865   -8.5555   18.8296 C   0  0  0  0  0  0  0  0  0  0  0  0
   -3.7782   -7.9490   19.4174 C   0  0  1  0  0  0  0  0  0  0  0  0
   -4.9721   -8.6008   18.9530 O   0  0  0  0  0  0  0  0  0  0  0  0
   -3.8955   -8.1120   20.9242 C   0  0  1  0  0  0  0  0  0  0  0  0
   -3.0761   -7.2596   21.7492 O   0  0  0  0  0  0  0  0  0  0  0  0
   -5.3775   -7.8990   21.1099 C   0  0  1  0  0  0  0  0  0  0  0  0
   -5.7018   -6.5251   20.9201 O   0  0  0  0  0  0  0  0  0  0  0  0
   -5.9607   -8.6965   19.9811 C   0  0  2  0  0  0  0  0  0  0  0  0
   -0.3528  -12.1711   14.7826 O   0  0  0  0  0  0  0  0  0  0  0  0
   -4.3369  -13.4419   21.7475 N   0  0  0  0  0  0  0  0  0  0  0  0
   -3.6071  -12.3262   21.5043 C   0  0  0  0  0  0  0  0  0  0  0  0
   -4.1520  -11.1860   21.0478 N   0  0  0  0  0  0  0  0  0  0  0  0
   -5.4655  -11.0716   20.8220 C   0  0  0  0  0  0  0  0  0  0  0  0
   -6.3064  -12.2295   21.0859 C   0  0  0  0  0  0  0  0  0  0  0  0
   -5.6947  -13.4880   21.5719 C   0  0  0  0  0  0  0  0  0  0  0  0
   -6.4394  -14.6191   21.8343 N   0  0  0  0  0  0  0  0  0  0  0  0
   -7.5322  -11.8526   20.8004 N   0  0  0  0  0  0  0  0  0  0  0  0
   -7.5074  -10.5835   20.3708 C   0  0  0  0  0  0  0  0  0  0  0  0
   -6.2646  -10.1032   20.3860 N   0  0  0  0  0  0  0  0  0  0  0  0
  2  1  1  6  0  0  0
  2  3  1  0  0  0  0
  2  5  1  0  0  0  0
  3  4  1  0  0  0  0
  3 17  1  0  0  0  0
  5  6  1  0  0  0  0
  7  6  1  6  0  0  0
  7  8  1  0  0  0  0
  7  9  1  0  0  0  0
 10  9  1  6  0  0  0
 10 11  1  0  0  0  0
 10 12  1  0  0  0  0
 11 16  1  0  0  0  0
 12 13  1  1  0  0  0
 12 14  1  0  0  0  0
 14 15  1  6  0  0  0
 14 16  1  0  0  0  0
 16 27  1  1  0  0  0
 18 19  2  0  0  0  0
 18 23  1  0  0  0  0
 19 20  1  0  0  0  0
 20 21  2  0  0  0  0
 21 22  1  0  0  0  0
 21 27  1  0  0  0  0
 22 23  2  0  0  0  0
 22 25  1  0  0  0  0
 23 24  1  0  0  0  0
 25 26  2  0  0  0  0
 26 27  1  0  0  0  0
M  END
>  <CHROM.1>
147.13951120,53.97318273,173.67942415,179.55893917,-160.68090575,38.64774289
55.79557405,-3.67641393,-10.45249827,19.15053128,0.14734124,-0.77037809,3.11449952

>  <Name>
ligand

>  <RI>
0

>  <Rbt.Current_Directory>
/home/itssahil/PROJECTS/Mol_Feturizer/Test_systems_manuscript/rnas/4kqy

>  <Rbt.Executable>
rbdock ($Id: //depot/dev/client3/rdock/2013.1/src/exe/rbdock.cxx#4 $)

>  <Rbt.Library>
libRbt.so (2013.1, Build901 2013/11/27)

>  <Rbt.Parameter_File>
/export/apps/rDock/src/rDock_2013.1_src/data/scripts/dock_solv.prm

>  <Rbt.Receptor>
prm/pocket_docking_8.prm

>  <SCORE>
-19.7875

>  <SCORE.INTER>
-17.3464

>  <SCORE.INTER.CONST>
1

>  <SCORE.INTER.POLAR>
0

>  <SCORE.INTER.ROT>
7

>  <SCORE.INTER.SOLV>
19.823

>  <SCORE.INTER.VDW>
-26.4386

>  <SCORE.INTER.norm>
-0.642459

>  <SCORE.INTRA>
-2.44114

>  <SCORE.INTRA.DIHEDRAL>
-4.97302

>  <SCORE.INTRA.DIHEDRAL.0>
10.4103

>  <SCORE.INTRA.POLAR>
0

>  <SCORE.INTRA.POLAR.0>
0

>  <SCORE.INTRA.REPUL>
0

>  <SCORE.INTRA.REPUL.0>
0

>  <SCORE.INTRA.SOLV>
0.205421

>  <SCORE.INTRA.SOLV.lig_0>
-49.5008

>  <SCORE.INTRA.VDW>
-0.0573415

>  <SCORE.INTRA.VDW.0>
-2.6946

>  <SCORE.INTRA.norm>
-0.0904125

>  <SCORE.RESTR>
0

>  <SCORE.RESTR.CAVITY>
0

>  <SCORE.RESTR.norm>
0

>  <SCORE.SYSTEM>
0

>  <SCORE.SYSTEM.CONST>
0

>  <SCORE.SYSTEM.DIHEDRAL>
0

>  <SCORE.SYSTEM.SOLV>
0

>  <SCORE.SYSTEM.norm>
0

>  <SCORE.heavy>
27

>  <SCORE.norm>
-0.732872

>  <RMSD>
5.180

$$$$
ligand
 OpenBabel02271912153D
libRbt.so/2013.1/901 2013/11/27
 27 29  0  0  0  0  0  0  0  0999 V2000
   -3.3204  -13.1170   14.8471 N   0  0  0  0  0  0  0  0  0  0  0  0
   -4.0638  -12.1576   15.6416 C   0  0  2  0  0  0  0  0  0  0  0  0
   -5.4797  -12.6408   15.7131 C   0  0  0  0  0  0  0  0  0  0  0  0
   -6.0689  -12.6415   16.8154 O   0  0  0  0  0  0  0  0  0  0  0  0
   -4.0077  -10.7704   14.9961 C   0  0  0  0  0  0  0  0  0  0  0  0
   -2.8932   -9.9013   15.6199 C   0  0  0  0  0  0  0  0  0  0  0  0
   -3.1382   -9.4468   17.2163 S   0  0  2  0  0  0  0  0  0  0  0  0
   -1.9763   -8.3462   17.6605 C   0  0  0  0  0  0  0  0  0  0  0  0
   -3.0824  -10.8086   18.2117 C   0  0  0  0  0  0  0  0  0  0  0  0
   -3.6829  -10.5863   19.6159 C   0  0  1  0  0  0  0  0  0  0  0  0
   -4.9768   -9.9611   19.5858 O   0  0  0  0  0  0  0  0  0  0  0  0
   -3.9736  -11.8772   20.3643 C   0  0  1  0  0  0  0  0  0  0  0  0
   -2.8493  -12.5904   20.9177 O   0  0  0  0  0  0  0  0  0  0  0  0
   -4.9513  -11.3808   21.4005 C   0  0  1  0  0  0  0  0  0  0  0  0
   -4.2721  -10.6005   22.3796 O   0  0  0  0  0  0  0  0  0  0  0  0
   -5.8435  -10.4823   20.5962 C   0  0  2  0  0  0  0  0  0  0  0  0
   -6.0590  -13.0059   14.6623 O   0  0  0  0  0  0  0  0  0  0  0  0
   -8.8982  -14.8304   20.3984 N   0  0  0  0  0  0  0  0  0  0  0  0
   -7.7892  -14.5994   21.1423 C   0  0  0  0  0  0  0  0  0  0  0  0
   -7.1039  -13.4450   21.0870 N   0  0  0  0  0  0  0  0  0  0  0  0
   -7.4883  -12.4322   20.3023 C   0  0  0  0  0  0  0  0  0  0  0  0
   -8.6858  -12.6109   19.4952 C   0  0  0  0  0  0  0  0  0  0  0  0
   -9.4249  -13.8935   19.5489 C   0  0  0  0  0  0  0  0  0  0  0  0
  -10.5626  -14.1233   18.8035 N   0  0  0  0  0  0  0  0  0  0  0  0
   -8.8462  -11.4835   18.8402 N   0  0  0  0  0  0  0  0  0  0  0  0
   -7.8479  -10.6490   19.1611 C   0  0  0  0  0  0  0  0  0  0  0  0
   -7.0271  -11.2121   20.0470 N   0  0  0  0  0  0  0  0  0  0  0  0
  2  1  1  6  0  0  0
  2  3  1  0  0  0  0
  2  5  1  0  0  0  0
  3  4  1  0  0  0  0
  3 17  1  0  0  0  0
  5  6  1  0  0  0  0
  7  6  1  6  0  0  0
  7  8  1  0  0  0  0
  7  9  1  0  0  0  0
 10  9  1  6  0  0  0
 10 11  1  0  0  0  0
 10 12  1  0  0  0  0
 11 16  1  0  0  0  0
 12 13  1  1  0  0  0
 12 14  1  0  0  0  0
 14 15  1  1  0  0  0
 14 16  1  0  0  0  0
 16 27  1  6  0  0  0
 18 19  2  0  0  0  0
 18 23  1  0  0  0  0
 19 20  1  0  0  0  0
 20 21  2  0  0  0  0
 21 22  1  0  0  0  0
 21 27  1  0  0  0  0
 22 23  2  0  0  0  0
 22 25  1  0  0  0  0
 23 24  1  0  0  0  0
 25 26  2  0  0  0  0
 26 27  1  0  0  0  0
M  END
>  <CHROM.1>
134.02200988,-96.29180667,-67.68269126,-171.78016683,-163.44517936,48.73630687
127.26698431,-5.51552416,-11.69208014,18.61217262,0.43805079,-0.56686562
-1.70968863

>  <Name>
ligand

>  <RI>
0

>  <Rbt.Current_Directory>
/home/itssahil/PROJECTS/Mol_Feturizer/Test_systems_manuscript/rnas/4kqy

>  <Rbt.Executable>
rbdock ($Id: //depot/dev/client3/rdock/2013.1/src/exe/rbdock.cxx#4 $)

>  <Rbt.Library>
libRbt.so (2013.1, Build901 2013/11/27)

>  <Rbt.Parameter_File>
/export/apps/rDock/src/rDock_2013.1_src/data/scripts/dock_solv.prm

>  <Rbt.Receptor>
prm/pocket_docking_8.prm

>  <SCORE>
-10.731

>  <SCORE.INTER>
-9.02925

>  <SCORE.INTER.CONST>
1

>  <SCORE.INTER.POLAR>
0

>  <SCORE.INTER.ROT>
7

>  <SCORE.INTER.SOLV>
11.5794

>  <SCORE.INTER.VDW>
-18.146

>  <SCORE.INTER.norm>
-0.334417

>  <SCORE.INTRA>
-1.70173

>  <SCORE.INTRA.DIHEDRAL>
-2.27115

>  <SCORE.INTRA.DIHEDRAL.0>
10.4103

>  <SCORE.INTRA.POLAR>
0

>  <SCORE.INTRA.POLAR.0>
0

>  <SCORE.INTRA.REPUL>
0

>  <SCORE.INTRA.REPUL.0>
0

>  <SCORE.INTRA.SOLV>
0.444882

>  <SCORE.INTRA.SOLV.lig_0>
-49.5008

>  <SCORE.INTRA.VDW>
-0.788598

>  <SCORE.INTRA.VDW.0>
-2.6946

>  <SCORE.INTRA.norm>
-0.0630271

>  <SCORE.RESTR>
0

>  <SCORE.RESTR.CAVITY>
0

>  <SCORE.RESTR.norm>
0

>  <SCORE.SYSTEM>
0

>  <SCORE.SYSTEM.CONST>
0

>  <SCORE.SYSTEM.DIHEDRAL>
0

>  <SCORE.SYSTEM.SOLV>
0

>  <SCORE.SYSTEM.norm>
0

>  <SCORE.heavy>
27

>  <SCORE.norm>
-0.397444

>  <RMSD>
5.192

$$$$
ligand
 OpenBabel02271912153D
libRbt.so/2013.1/901 2013/11/27
 27 29  0  0  0  0  0  0  0  0999 V2000
   -4.1969   -8.1568   17.3304 N   0  0  0  0  0  0  0  0  0  0  0  0
   -4.3371   -7.9640   18.7613 C   0  0  2  0  0  0  0  0  0  0  0  0
   -3.0022   -8.2418   19.3810 C   0  0  0  0  0  0  0  0  0  0  0  0
   -2.8608   -8.0985   20.6146 O   0  0  0  0  0  0  0  0  0  0  0  0
   -5.3945   -8.9150   19.3284 C   0  0  0  0  0  0  0  0  0  0  0  0
   -6.7066   -8.8512   18.5154 C   0  0  0  0  0  0  0  0  0  0  0  0
   -6.6269   -9.4815   16.9625 S   0  0  2  0  0  0  0  0  0  0  0  0
   -7.9621   -8.9967   16.1017 C   0  0  0  0  0  0  0  0  0  0  0  0
   -6.5421  -11.1656   17.0345 C   0  0  0  0  0  0  0  0  0  0  0  0
   -5.1658  -11.7078   17.4743 C   0  0  1  0  0  0  0  0  0  0  0  0
   -4.9185  -11.5505   18.8814 O   0  0  0  0  0  0  0  0  0  0  0  0
   -5.0181  -13.2100   17.2940 C   0  0  1  0  0  0  0  0  0  0  0  0
   -4.8239  -13.7010   15.9524 O   0  0  0  0  0  0  0  0  0  0  0  0
   -3.8582  -13.4858   18.2185 C   0  0  1  0  0  0  0  0  0  0  0  0
   -2.6512  -12.9850   17.6517 O   0  0  0  0  0  0  0  0  0  0  0  0
   -4.2062  -12.6646   19.4246 C   0  0  2  0  0  0  0  0  0  0  0  0
   -2.0596   -8.6431   18.6574 O   0  0  0  0  0  0  0  0  0  0  0  0
   -8.6323  -15.2776   20.7875 N   0  0  0  0  0  0  0  0  0  0  0  0
   -8.3315  -14.6590   19.6198 C   0  0  0  0  0  0  0  0  0  0  0  0
   -7.1657  -14.0240   19.4125 N   0  0  0  0  0  0  0  0  0  0  0  0
   -6.2097  -13.9794   20.3471 C   0  0  0  0  0  0  0  0  0  0  0  0
   -6.4642  -14.6450   21.6158 C   0  0  0  0  0  0  0  0  0  0  0  0
   -7.7594  -15.3273   21.8421 C   0  0  0  0  0  0  0  0  0  0  0  0
   -8.0598  -15.9703   23.0249 N   0  0  0  0  0  0  0  0  0  0  0  0
   -5.3807  -14.4652   22.3367 N   0  0  0  0  0  0  0  0  0  0  0  0
   -4.5048  -13.7376   21.6301 C   0  0  0  0  0  0  0  0  0  0  0  0
   -4.9954  -13.4449   20.4263 N   0  0  0  0  0  0  0  0  0  0  0  0
  2  1  1  6  0  0  0
  2  3  1  0  0  0  0
  2  5  1  0  0  0  0
  3  4  1  0  0  0  0
  3 17  1  0  0  0  0
  5  6  1  0  0  0  0
  7  6  1  1  0  0  0
  7  8  1  0  0  0  0
  7  9  1  0  0  0  0
 10  9  1  1  0  0  0
 10 11  1  0  0  0  0
 10 12  1  0  0  0  0
 11 16  1  0  0  0  0
 12 13  1  6  0  0  0
 12 14  1  0  0  0  0
 14 15  1  6  0  0  0
 14 16  1  0  0  0  0
 16 27  1  1  0  0  0
 18 19  2  0  0  0  0
 18 23  1  0  0  0  0
 19 20  1  0  0  0  0
 20 21  2  0  0  0  0
 21 22  1  0  0  0  0
 21 27  1  0  0  0  0
 22 23  2  0  0  0  0
 22 25  1  0  0  0  0
 23 24  1  0  0  0  0
 25 26  2  0  0  0  0
 26 27  1  0  0  0  0
M  END
>  <CHROM.1>
177.72358845,-50.08649453,69.06297669,-165.61682766,-74.68546935,74.85663668
52.39539752,-5.47852690,-11.78481663,19.03970398,1.16373227,-0.60321575,-0.71181069

>  <Name>
ligand

>  <RI>
0

>  <Rbt.Current_Directory>
/home/itssahil/PROJECTS/Mol_Feturizer/Test_systems_manuscript/rnas/4kqy

>  <Rbt.Executable>
rbdock ($Id: //depot/dev/client3/rdock/2013.1/src/exe/rbdock.cxx#4 $)

>  <Rbt.Library>
libRbt.so (2013.1, Build901 2013/11/27)

>  <Rbt.Parameter_File>
/export/apps/rDock/src/rDock_2013.1_src/data/scripts/dock_solv.prm

>  <Rbt.Receptor>
prm/pocket_docking_4.prm

>  <SCORE>
-9.30436

>  <SCORE.INTER>
-9.11049

>  <SCORE.INTER.CONST>
1

>  <SCORE.INTER.POLAR>
0

>  <SCORE.INTER.ROT>
7

>  <SCORE.INTER.SOLV>
15.4284

>  <SCORE.INTER.VDW>
-19.4831

>  <SCORE.INTER.norm>
-0.337425

>  <SCORE.INTRA>
-0.193875

>  <SCORE.INTRA.DIHEDRAL>
-4.98517

>  <SCORE.INTRA.DIHEDRAL.0>
10.4103

>  <SCORE.INTRA.POLAR>
0

>  <SCORE.INTRA.POLAR.0>
0

>  <SCORE.INTRA.REPUL>
0

>  <SCORE.INTRA.REPUL.0>
0

>  <SCORE.INTRA.SOLV>
3.64952

>  <SCORE.INTRA.SOLV.lig_0>
-49.5008

>  <SCORE.INTRA.VDW>
0.473951

>  <SCORE.INTRA.VDW.0>
-2.6946

>  <SCORE.INTRA.norm>
-0.00718057

>  <SCORE.RESTR>
0

>  <SCORE.RESTR.CAVITY>
0

>  <SCORE.RESTR.norm>
0

>  <SCORE.SYSTEM>
0

>  <SCORE.SYSTEM.CONST>
0

>  <SCORE.SYSTEM.DIHEDRAL>
0

>  <SCORE.SYSTEM.SOLV>
0

>  <SCORE.SYSTEM.norm>
0

>  <SCORE.heavy>
27

>  <SCORE.norm>
-0.344606

>  <RMSD>
5.195

$$$$
ligand
 OpenBabel02271912153D
libRbt.so/2013.1/901 2013/11/27
 27 29  0  0  0  0  0  0  0  0999 V2000
   -7.7600  -10.0101   16.8381 N   0  0  0  0  0  0  0  0  0  0  0  0
   -6.6269   -9.2051   17.2533 C   0  0  2  0  0  0  0  0  0  0  0  0
   -5.3908   -9.8786   16.7417 C   0  0  0  0  0  0  0  0  0  0  0  0
   -5.2543  -11.1099   16.9072 O   0  0  0  0  0  0  0  0  0  0  0  0
   -6.5791   -9.0951   18.7796 C   0  0  0  0  0  0  0  0  0  0  0  0
   -5.4742   -8.1193   19.2418 C   0  0  0  0  0  0  0  0  0  0  0  0
   -5.2478   -8.0161   20.9011 S   0  0  2  0  0  0  0  0  0  0  0  0
   -4.6200   -6.5258   21.2800 C   0  0  0  0  0  0  0  0  0  0  0  0
   -4.2134   -9.2475   21.4130 C   0  0  0  0  0  0  0  0  0  0  0  0
   -4.7979  -10.6669   21.2532 C   0  0  1  0  0  0  0  0  0  0  0  0
   -4.9847  -11.0511   19.8808 O   0  0  0  0  0  0  0  0  0  0  0  0
   -3.8790  -11.7641   21.7657 C   0  0  1  0  0  0  0  0  0  0  0  0
   -3.7746  -11.9281   23.1943 O   0  0  0  0  0  0  0  0  0  0  0  0
   -4.4575  -12.9625   21.0546 C   0  0  1  0  0  0  0  0  0  0  0  0
   -5.7121  -13.3141   21.6302 O   0  0  0  0  0  0  0  0  0  0  0  0
   -4.6890  -12.4337   19.6700 C   0  0  2  0  0  0  0  0  0  0  0  0
   -4.5302   -9.2021   16.1294 O   0  0  0  0  0  0  0  0  0  0  0  0
   -0.5796  -10.5355   16.8797 N   0  0  0  0  0  0  0  0  0  0  0  0
   -1.4856   -9.8626   17.6300 C   0  0  0  0  0  0  0  0  0  0  0  0
   -2.4879  -10.4749   18.2826 N   0  0  0  0  0  0  0  0  0  0  0  0
   -2.6446  -11.8030   18.2501 C   0  0  0  0  0  0  0  0  0  0  0  0
   -1.6893  -12.5840   17.4789 C   0  0  0  0  0  0  0  0  0  0  0  0
   -0.5981  -11.8990   16.7480 C   0  0  0  0  0  0  0  0  0  0  0  0
    0.3334  -12.5850   15.9968 N   0  0  0  0  0  0  0  0  0  0  0  0
   -2.0553  -13.8376   17.6220 N   0  0  0  0  0  0  0  0  0  0  0  0
   -3.1522  -13.8848   18.3905 C   0  0  0  0  0  0  0  0  0  0  0  0
   -3.5111  -12.6615   18.7780 N   0  0  0  0  0  0  0  0  0  0  0  0
  2  1  1  1  0  0  0
  2  3  1  0  0  0  0
  2  5  1  0  0  0  0
  3  4  1  0  0  0  0
  3 17  1  0  0  0  0
  5  6  1  0  0  0  0
  7  6  1  6  0  0  0
  7  8  1  0  0  0  0
  7  9  1  0  0  0  0
 10  9  1  6  0  0  0
 10 11  1  0  0  0  0
 10 12  1  0  0  0  0
 11 16  1  0  0  0  0
 12 13  1  1  0  0  0
 12 14  1  0  0  0  0
 14 15  1  1  0  0  0
 14 16  1  0  0  0  0
 16 27  1  6  0  0  0
 18 19  2  0  0  0  0
 18 23  1  0  0  0  0
 19 20  1  0  0  0  0
 20 21  2  0  0  0  0
 21 22  1  0  0  0  0
 21 27  1  0  0  0  0
 22 23  2  0  0  0  0
 22 25  1  0  0  0  0
 23 24  1  0  0  0  0
 25 26  2  0  0  0  0
 26 27  1  0  0  0  0
M  END
>  <CHROM.1>
-46.98065423,-173.83553913,-175.21110785,-153.58388889,-66.13806795,66.49675870
6.28665398,-4.03951411,-10.74891365,19.02969096,2.89297013,-0.84079522,2.04263203

>  <Name>
ligand

>  <RI>
0

>  <Rbt.Current_Directory>
/home/itssahil/PROJECTS/Mol_Feturizer/Test_systems_manuscript/rnas/4kqy

>  <Rbt.Executable>
rbdock ($Id: //depot/dev/client3/rdock/2013.1/src/exe/rbdock.cxx#4 $)

>  <Rbt.Library>
libRbt.so (2013.1, Build901 2013/11/27)

>  <Rbt.Parameter_File>
/export/apps/rDock/src/rDock_2013.1_src/data/scripts/dock_solv.prm

>  <Rbt.Receptor>
prm/pocket_docking_5.prm

>  <SCORE>
-18.6084

>  <SCORE.INTER>
-13.6408

>  <SCORE.INTER.CONST>
1

>  <SCORE.INTER.POLAR>
0

>  <SCORE.INTER.ROT>
7

>  <SCORE.INTER.SOLV>
11.1135

>  <SCORE.INTER.VDW>
-21.065

>  <SCORE.INTER.norm>
-0.505215

>  <SCORE.INTRA>
-4.96757

>  <SCORE.INTRA.DIHEDRAL>
-5.29867

>  <SCORE.INTRA.DIHEDRAL.0>
10.4103

>  <SCORE.INTRA.POLAR>
0

>  <SCORE.INTRA.POLAR.0>
0

>  <SCORE.INTRA.REPUL>
0

>  <SCORE.INTRA.REPUL.0>
0

>  <SCORE.INTRA.SOLV>
-0.219528

>  <SCORE.INTRA.SOLV.lig_0>
-49.5008

>  <SCORE.INTRA.VDW>
-2.20847

>  <SCORE.INTRA.VDW.0>
-2.6946

>  <SCORE.INTRA.norm>
-0.183984

>  <SCORE.RESTR>
0

>  <SCORE.RESTR.CAVITY>
0

>  <SCORE.RESTR.norm>
0

>  <SCORE.SYSTEM>
0

>  <SCORE.SYSTEM.CONST>
0

>  <SCORE.SYSTEM.DIHEDRAL>
0

>  <SCORE.SYSTEM.SOLV>
0

>  <SCORE.SYSTEM.norm>
0

>  <SCORE.heavy>
27

>  <SCORE.norm>
-0.689199

>  <RMSD>
5.196

$$$$
ligand
 OpenBabel02271912153D
libRbt.so/2013.1/901 2013/11/27
 27 29  0  0  0  0  0  0  0  0999 V2000
   -3.4871  -12.3255   16.0537 N   0  0  0  0  0  0  0  0  0  0  0  0
   -2.1662  -12.5257   15.4888 C   0  0  2  0  0  0  0  0  0  0  0  0
   -2.0286  -13.9857   15.1845 C   0  0  0  0  0  0  0  0  0  0  0  0
   -3.0064  -14.7421   15.3691 O   0  0  0  0  0  0  0  0  0  0  0  0
   -1.0871  -12.0859   16.4819 C   0  0  0  0  0  0  0  0  0  0  0  0
   -1.0223  -10.5470   16.6015 C   0  0  0  0  0  0  0  0  0  0  0  0
   -2.2762   -9.8346   17.4592 S   0  0  2  0  0  0  0  0  0  0  0  0
   -2.1809   -8.1836   17.3052 C   0  0  0  0  0  0  0  0  0  0  0  0
   -2.1870  -10.2890   19.0822 C   0  0  0  0  0  0  0  0  0  0  0  0
   -3.0868   -9.4557   20.0190 C   0  0  1  0  0  0  0  0  0  0  0  0
   -4.4431   -9.3502   19.5550 O   0  0  0  0  0  0  0  0  0  0  0  0
   -3.2714  -10.0755   21.3948 C   0  0  1  0  0  0  0  0  0  0  0  0
   -2.1661   -9.9856   22.3162 O   0  0  0  0  0  0  0  0  0  0  0  0
   -4.5124   -9.3533   21.8581 C   0  0  1  0  0  0  0  0  0  0  0  0
   -4.2027   -7.9978   22.1673 O   0  0  0  0  0  0  0  0  0  0  0  0
   -5.3795   -9.3869   20.6346 C   0  0  2  0  0  0  0  0  0  0  0  0
   -0.9464  -14.4181   14.7206 O   0  0  0  0  0  0  0  0  0  0  0  0
   -6.2131  -14.5334   21.6810 N   0  0  0  0  0  0  0  0  0  0  0  0
   -5.1084  -13.7833   21.9123 C   0  0  0  0  0  0  0  0  0  0  0  0
   -5.0318  -12.4819   21.5869 N   0  0  0  0  0  0  0  0  0  0  0  0
   -6.0584  -11.8320   21.0275 C   0  0  0  0  0  0  0  0  0  0  0  0
   -7.2817  -12.5782   20.7743 C   0  0  0  0  0  0  0  0  0  0  0  0
   -7.3512  -14.0169   21.1198 C   0  0  0  0  0  0  0  0  0  0  0  0
   -8.4809  -14.7769   20.8987 N   0  0  0  0  0  0  0  0  0  0  0  0
   -8.1208  -11.7180   20.2431 N   0  0  0  0  0  0  0  0  0  0  0  0
   -7.5127  -10.5288   20.1341 C   0  0  0  0  0  0  0  0  0  0  0  0
   -6.2695  -10.5879   20.6102 N   0  0  0  0  0  0  0  0  0  0  0  0
  2  1  1  1  0  0  0
  2  3  1  0  0  0  0
  2  5  1  0  0  0  0
  3  4  1  0  0  0  0
  3 17  1  0  0  0  0
  5  6  1  0  0  0  0
  7  6  1  6  0  0  0
  7  8  1  0  0  0  0
  7  9  1  0  0  0  0
 10  9  1  6  0  0  0
 10 11  1  0  0  0  0
 10 12  1  0  0  0  0
 11 16  1  0  0  0  0
 12 13  1  1  0  0  0
 12 14  1  0  0  0  0
 14 15  1  6  0  0  0
 14 16  1  0  0  0  0
 16 27  1  6  0  0  0
 18 19  2  0  0  0  0
 18 23  1  0  0  0  0
 19 20  1  0  0  0  0
 20 21  2  0  0  0  0
 21 22  1  0  0  0  0
 21 27  1  0  0  0  0
 22 23  2  0  0  0  0
 22 25  1  0  0  0  0
 23 24  1  0  0  0  0
 25 26  2  0  0  0  0
 26 27  1  0  0  0  0
M  END
>  <CHROM.1>
3.82162441,-72.83025037,74.03448000,-171.74334216,167.04104706,49.90547619
81.51213069,-4.08119779,-11.41805291,19.18843211,0.54638723,-0.72679627,-2.48831397

>  <Name>
ligand

>  <RI>
0

>  <Rbt.Current_Directory>
/home/itssahil/PROJECTS/Mol_Feturizer/Test_systems_manuscript/rnas/4kqy

>  <Rbt.Executable>
rbdock ($Id: //depot/dev/client3/rdock/2013.1/src/exe/rbdock.cxx#4 $)

>  <Rbt.Library>
libRbt.so (2013.1, Build901 2013/11/27)

>  <Rbt.Parameter_File>
/export/apps/rDock/src/rDock_2013.1_src/data/scripts/dock_solv.prm

>  <Rbt.Receptor>
prm/pocket_docking_4.prm

>  <SCORE>
-17.7178

>  <SCORE.INTER>
-16.4999

>  <SCORE.INTER.CONST>
1

>  <SCORE.INTER.POLAR>
0

>  <SCORE.INTER.ROT>
7

>  <SCORE.INTER.SOLV>
12.1281

>  <SCORE.INTER.VDW>
-23.3093

>  <SCORE.INTER.norm>
-0.611106

>  <SCORE.INTRA>
-1.21792

>  <SCORE.INTRA.DIHEDRAL>
-5.26683

>  <SCORE.INTRA.DIHEDRAL.0>
10.4103

>  <SCORE.INTRA.POLAR>
0

>  <SCORE.INTRA.POLAR.0>
0

>  <SCORE.INTRA.REPUL>
0

>  <SCORE.INTRA.REPUL.0>
0

>  <SCORE.INTRA.SOLV>
1.87236

>  <SCORE.INTRA.SOLV.lig_0>
-49.5008

>  <SCORE.INTRA.VDW>
0.479322

>  <SCORE.INTRA.VDW.0>
-2.6946

>  <SCORE.INTRA.norm>
-0.045108

>  <SCORE.RESTR>
0

>  <SCORE.RESTR.CAVITY>
0

>  <SCORE.RESTR.norm>
0

>  <SCORE.SYSTEM>
0

>  <SCORE.SYSTEM.CONST>
0

>  <SCORE.SYSTEM.DIHEDRAL>
0

>  <SCORE.SYSTEM.SOLV>
0

>  <SCORE.SYSTEM.norm>
0

>  <SCORE.heavy>
27

>  <SCORE.norm>
-0.656214

>  <RMSD>
5.201

$$$$
ligand
 OpenBabel02271912153D
libRbt.so/2013.1/901 2013/11/27
 27 29  0  0  0  0  0  0  0  0999 V2000
   -2.8252  -13.4130   18.2660 N   0  0  0  0  0  0  0  0  0  0  0  0
   -2.5519  -12.3440   17.3244 C   0  0  2  0  0  0  0  0  0  0  0  0
   -2.1048  -12.9810   16.0448 C   0  0  0  0  0  0  0  0  0  0  0  0
   -2.6407  -12.6333   14.9705 O   0  0  0  0  0  0  0  0  0  0  0  0
   -1.4595  -11.4188   17.8674 C   0  0  0  0  0  0  0  0  0  0  0  0
   -1.3722  -10.1086   17.0536 C   0  0  0  0  0  0  0  0  0  0  0  0
   -2.6271   -9.0215   17.2956 S   0  0  2  0  0  0  0  0  0  0  0  0
   -2.4877   -7.7692   16.2135 C   0  0  0  0  0  0  0  0  0  0  0  0
   -2.5859   -8.4472   18.8821 C   0  0  0  0  0  0  0  0  0  0  0  0
   -3.9269   -7.8633   19.3746 C   0  0  1  0  0  0  0  0  0  0  0  0
   -5.0723   -8.5562   18.8514 O   0  0  0  0  0  0  0  0  0  0  0  0
   -4.1345   -7.9982   20.8745 C   0  0  1  0  0  0  0  0  0  0  0  0
   -3.3903   -7.1074   21.7297 O   0  0  0  0  0  0  0  0  0  0  0  0
   -5.6302   -7.8210   20.9626 C   0  0  1  0  0  0  0  0  0  0  0  0
   -5.9764   -6.4603   20.7224 O   0  0  0  0  0  0  0  0  0  0  0  0
   -6.1209   -8.6569   19.8178 C   0  0  2  0  0  0  0  0  0  0  0  0
   -1.1800  -13.8281   16.0696 O   0  0  0  0  0  0  0  0  0  0  0  0
   -4.4874  -13.3268   21.7670 N   0  0  0  0  0  0  0  0  0  0  0  0
   -3.7714  -12.1986   21.5412 C   0  0  0  0  0  0  0  0  0  0  0  0
   -4.3165  -11.0809   21.0324 N   0  0  0  0  0  0  0  0  0  0  0  0
   -5.6179  -11.0027   20.7330 C   0  0  0  0  0  0  0  0  0  0  0  0
   -6.4451  -12.1753   20.9742 C   0  0  0  0  0  0  0  0  0  0  0  0
   -5.8322  -13.4091   21.5186 C   0  0  0  0  0  0  0  0  0  0  0  0
   -6.5638  -14.5526   21.7631 N   0  0  0  0  0  0  0  0  0  0  0  0
   -7.6617  -11.8338   20.6146 N   0  0  0  0  0  0  0  0  0  0  0  0
   -7.6426  -10.5729   20.1611 C   0  0  0  0  0  0  0  0  0  0  0  0
   -6.4140  -10.0625   20.2342 N   0  0  0  0  0  0  0  0  0  0  0  0
  2  1  1  1  0  0  0
  2  3  1  0  0  0  0
  2  5  1  0  0  0  0
  3  4  1  0  0  0  0
  3 17  1  0  0  0  0
  5  6  1  0  0  0  0
  7  6  1  1  0  0  0
  7  8  1  0  0  0  0
  7  9  1  0  0  0  0
 10  9  1  6  0  0  0
 10 11  1  0  0  0  0
 10 12  1  0  0  0  0
 11 16  1  0  0  0  0
 12 13  1  1  0  0  0
 12 14  1  0  0  0  0
 14 15  1  6  0  0  0
 14 16  1  0  0  0  0
 16 27  1  1  0  0  0
 18 19  2  0  0  0  0
 18 23  1  0  0  0  0
 19 20  1  0  0  0  0
 20 21  2  0  0  0  0
 21 22  1  0  0  0  0
 21 27  1  0  0  0  0
 22 23  2  0  0  0  0
 22 25  1  0  0  0  0
 23 24  1  0  0  0  0
 25 26  2  0  0  0  0
 26 27  1  0  0  0  0
M  END
>  <CHROM.1>
130.12480301,-167.04458933,72.76206892,-172.75906927,-159.18097712,35.16113548
55.32105558,-4.12480695,-10.48918115,19.20257490,0.33741716,-0.84178442,-3.09070741

>  <Name>
ligand

>  <RI>
0

>  <Rbt.Current_Directory>
/home/itssahil/PROJECTS/Mol_Feturizer/Test_systems_manuscript/rnas/4kqy

>  <Rbt.Executable>
rbdock ($Id: //depot/dev/client3/rdock/2013.1/src/exe/rbdock.cxx#4 $)

>  <Rbt.Library>
libRbt.so (2013.1, Build901 2013/11/27)

>  <Rbt.Parameter_File>
/export/apps/rDock/src/rDock_2013.1_src/data/scripts/dock_solv.prm

>  <Rbt.Receptor>
prm/pocket_docking_3.prm

>  <SCORE>
-19.1635

>  <SCORE.INTER>
-16.1489

>  <SCORE.INTER.CONST>
1

>  <SCORE.INTER.POLAR>
0

>  <SCORE.INTER.ROT>
7

>  <SCORE.INTER.SOLV>
17.1509

>  <SCORE.INTER.VDW>
-24.7495

>  <SCORE.INTER.norm>
-0.598106

>  <SCORE.INTRA>
-3.01461

>  <SCORE.INTRA.DIHEDRAL>
-3.24851

>  <SCORE.INTRA.DIHEDRAL.0>
10.4103

>  <SCORE.INTRA.POLAR>
0

>  <SCORE.INTRA.POLAR.0>
0

>  <SCORE.INTRA.REPUL>
0

>  <SCORE.INTRA.REPUL.0>
0

>  <SCORE.INTRA.SOLV>
-0.0865242

>  <SCORE.INTRA.SOLV.lig_0>
-49.5008

>  <SCORE.INTRA.VDW>
-1.34709

>  <SCORE.INTRA.VDW.0>
-2.6946

>  <SCORE.INTRA.norm>
-0.111652

>  <SCORE.RESTR>
0

>  <SCORE.RESTR.CAVITY>
0

>  <SCORE.RESTR.norm>
0

>  <SCORE.SYSTEM>
0

>  <SCORE.SYSTEM.CONST>
0

>  <SCORE.SYSTEM.DIHEDRAL>
0

>  <SCORE.SYSTEM.SOLV>
0

>  <SCORE.SYSTEM.norm>
0

>  <SCORE.heavy>
27

>  <SCORE.norm>
-0.709758

>  <RMSD>
5.206

$$$$
ligand
 OpenBabel02271912153D
libRbt.so/2013.1/901 2013/11/27
 27 29  0  0  0  0  0  0  0  0999 V2000
   -2.8546  -12.6906   17.9673 N   0  0  0  0  0  0  0  0  0  0  0  0
   -4.2051  -12.4771   17.4825 C   0  0  2  0  0  0  0  0  0  0  0  0
   -4.2981  -13.1122   16.1293 C   0  0  0  0  0  0  0  0  0  0  0  0
   -5.4240  -13.3803   15.6575 O   0  0  0  0  0  0  0  0  0  0  0  0
   -4.5095  -10.9796   17.3888 C   0  0  0  0  0  0  0  0  0  0  0  0
   -3.5011  -10.2540   16.4705 C   0  0  0  0  0  0  0  0  0  0  0  0
   -3.4555   -8.5837   16.6231 S   0  0  2  0  0  0  0  0  0  0  0  0
   -2.3366   -7.9639   15.5635 C   0  0  0  0  0  0  0  0  0  0  0  0
   -3.0682   -8.1668   18.2120 C   0  0  0  0  0  0  0  0  0  0  0  0
   -4.2713   -7.6756   19.0444 C   0  0  1  0  0  0  0  0  0  0  0  0
   -5.4930   -8.3674   18.7366 O   0  0  0  0  0  0  0  0  0  0  0  0
   -4.1272   -7.9378   20.5349 C   0  0  1  0  0  0  0  0  0  0  0  0
   -3.2236   -7.0905   21.2728 O   0  0  0  0  0  0  0  0  0  0  0  0
   -5.5659   -7.8252   20.9749 C   0  0  1  0  0  0  0  0  0  0  0  0
   -5.9834   -6.4638   20.9381 O   0  0  0  0  0  0  0  0  0  0  0  0
   -6.2901   -8.5849   19.9032 C   0  0  2  0  0  0  0  0  0  0  0  0
   -3.2478  -13.3348   15.4807 O   0  0  0  0  0  0  0  0  0  0  0  0
   -4.4257  -13.0268   22.1547 N   0  0  0  0  0  0  0  0  0  0  0  0
   -3.8514  -11.8015   22.0802 C   0  0  0  0  0  0  0  0  0  0  0  0
   -4.4382  -10.7593   21.4681 N   0  0  0  0  0  0  0  0  0  0  0  0
   -5.6478  -10.8598   20.9059 C   0  0  0  0  0  0  0  0  0  0  0  0
   -6.3263  -12.1453   20.9725 C   0  0  0  0  0  0  0  0  0  0  0  0
   -5.6642  -13.2937   21.6336 C   0  0  0  0  0  0  0  0  0  0  0  0
   -6.2552  -14.5369   21.7231 N   0  0  0  0  0  0  0  0  0  0  0  0
   -7.4800  -11.9715   20.3686 N   0  0  0  0  0  0  0  0  0  0  0  0
   -7.5531  -10.7083   19.9271 C   0  0  0  0  0  0  0  0  0  0  0  0
   -6.4535  -10.0294   20.2520 N   0  0  0  0  0  0  0  0  0  0  0  0
  2  1  1  6  0  0  0
  2  3  1  0  0  0  0
  2  5  1  0  0  0  0
  3  4  1  0  0  0  0
  3 17  1  0  0  0  0
  5  6  1  0  0  0  0
  7  6  1  1  0  0  0
  7  8  1  0  0  0  0
  7  9  1  0  0  0  0
 10  9  1  6  0  0  0
 10 11  1  0  0  0  0
 10 12  1  0  0  0  0
 11 16  1  0  0  0  0
 12 13  1  1  0  0  0
 12 14  1  0  0  0  0
 14 15  1  6  0  0  0
 14 16  1  0  0  0  0
 16 27  1  1  0  0  0
 18 19  2  0  0  0  0
 18 23  1  0  0  0  0
 19 20  1  0  0  0  0
 20 21  2  0  0  0  0
 21 22  1  0  0  0  0
 21 27  1  0  0  0  0
 22 23  2  0  0  0  0
 22 25  1  0  0  0  0
 23 24  1  0  0  0  0
 25 26  2  0  0  0  0
 26 27  1  0  0  0  0
M  END
>  <CHROM.1>
161.03278522,57.54572399,-163.45994956,-179.51360228,-103.94056448,36.34334482
81.62368858,-4.71615753,-10.37819571,19.06570495,-0.06755431,-1.14854804
-2.77768024

>  <Name>
ligand

>  <RI>
0

>  <Rbt.Current_Directory>
/home/itssahil/PROJECTS/Mol_Feturizer/Test_systems_manuscript/rnas/4kqy

>  <Rbt.Executable>
rbdock ($Id: //depot/dev/client3/rdock/2013.1/src/exe/rbdock.cxx#4 $)

>  <Rbt.Library>
libRbt.so (2013.1, Build901 2013/11/27)

>  <Rbt.Parameter_File>
/export/apps/rDock/src/rDock_2013.1_src/data/scripts/dock_solv.prm

>  <Rbt.Receptor>
prm/pocket_docking_3.prm

>  <SCORE>
-17.0368

>  <SCORE.INTER>
-15.8021

>  <SCORE.INTER.CONST>
1

>  <SCORE.INTER.POLAR>
0

>  <SCORE.INTER.ROT>
7

>  <SCORE.INTER.SOLV>
14.569

>  <SCORE.INTER.VDW>
-23.6577

>  <SCORE.INTER.norm>
-0.585263

>  <SCORE.INTRA>
-1.25817

>  <SCORE.INTRA.DIHEDRAL>
-0.980923

>  <SCORE.INTRA.DIHEDRAL.0>
10.4103

>  <SCORE.INTRA.POLAR>
0

>  <SCORE.INTRA.POLAR.0>
0

>  <SCORE.INTRA.REPUL>
0

>  <SCORE.INTRA.REPUL.0>
0

>  <SCORE.INTRA.SOLV>
0.553556

>  <SCORE.INTRA.SOLV.lig_0>
-49.5008

>  <SCORE.INTRA.VDW>
-1.04449

>  <SCORE.INTRA.VDW.0>
-2.6946

>  <SCORE.INTRA.norm>
-0.046599

>  <SCORE.RESTR>
0.023492

>  <SCORE.RESTR.CAVITY>
0.023492

>  <SCORE.RESTR.norm>
0.000870076

>  <SCORE.SYSTEM>
0

>  <SCORE.SYSTEM.CONST>
0

>  <SCORE.SYSTEM.DIHEDRAL>
0

>  <SCORE.SYSTEM.SOLV>
0

>  <SCORE.SYSTEM.norm>
0

>  <SCORE.heavy>
27

>  <SCORE.norm>
-0.630992

>  <RMSD>
5.220

$$$$
ligand
 OpenBabel02271912153D
libRbt.so/2013.1/901 2013/11/27
 27 29  0  0  0  0  0  0  0  0999 V2000
   -6.0465  -11.7484   17.0239 N   0  0  0  0  0  0  0  0  0  0  0  0
   -5.0566  -12.6912   17.5092 C   0  0  2  0  0  0  0  0  0  0  0  0
   -4.4194  -13.3243   16.3107 C   0  0  0  0  0  0  0  0  0  0  0  0
   -3.1804  -13.4879   16.2938 O   0  0  0  0  0  0  0  0  0  0  0  0
   -5.7183  -13.7585   18.3851 C   0  0  0  0  0  0  0  0  0  0  0  0
   -6.2053  -13.1667   19.7265 C   0  0  0  0  0  0  0  0  0  0  0  0
   -5.0186  -12.4592   20.6785 S   0  0  2  0  0  0  0  0  0  0  0  0
   -4.5488  -13.5289   21.8590 C   0  0  0  0  0  0  0  0  0  0  0  0
   -5.6116  -11.0356   21.3644 C   0  0  0  0  0  0  0  0  0  0  0  0
   -4.5776   -9.8920   21.4325 C   0  0  1  0  0  0  0  0  0  0  0  0
   -3.2472  -10.3101   21.0844 O   0  0  0  0  0  0  0  0  0  0  0  0
   -4.8324   -8.7811   20.4266 C   0  0  1  0  0  0  0  0  0  0  0  0
   -5.9139   -7.8692   20.7056 O   0  0  0  0  0  0  0  0  0  0  0  0
   -3.4745   -8.1245   20.3912 C   0  0  1  0  0  0  0  0  0  0  0  0
   -3.2480   -7.4040   21.5988 O   0  0  0  0  0  0  0  0  0  0  0  0
   -2.5484   -9.3038   20.3478 C   0  0  2  0  0  0  0  0  0  0  0  0
   -5.1422  -13.7073   15.3599 O   0  0  0  0  0  0  0  0  0  0  0  0
   -2.1298   -8.1212   15.1803 N   0  0  0  0  0  0  0  0  0  0  0  0
   -2.5106   -7.3265   16.2098 C   0  0  0  0  0  0  0  0  0  0  0  0
   -2.5793   -7.7629   17.4787 N   0  0  0  0  0  0  0  0  0  0  0  0
   -2.2527   -9.0162   17.8133 C   0  0  0  0  0  0  0  0  0  0  0  0
   -1.8139   -9.9127   16.7545 C   0  0  0  0  0  0  0  0  0  0  0  0
   -1.7584   -9.4282   15.3558 C   0  0  0  0  0  0  0  0  0  0  0  0
   -1.3559  -10.2325   14.3099 N   0  0  0  0  0  0  0  0  0  0  0  0
   -1.5461  -11.0561   17.3434 N   0  0  0  0  0  0  0  0  0  0  0  0
   -1.8004  -10.9397   18.6540 C   0  0  0  0  0  0  0  0  0  0  0  0
   -2.2222   -9.7100   18.9465 N   0  0  0  0  0  0  0  0  0  0  0  0
  2  1  1  6  0  0  0
  2  3  1  0  0  0  0
  2  5  1  0  0  0  0
  3  4  1  0  0  0  0
  3 17  1  0  0  0  0
  5  6  1  0  0  0  0
  7  6  1  1  0  0  0
  7  8  1  0  0  0  0
  7  9  1  0  0  0  0
 10  9  1  6  0  0  0
 10 11  1  0  0  0  0
 10 12  1  0  0  0  0
 11 16  1  0  0  0  0
 12 13  1  1  0  0  0
 12 14  1  0  0  0  0
 14 15  1  1  0  0  0
 14 16  1  0  0  0  0
 16 27  1  6  0  0  0
 18 19  2  0  0  0  0
 18 23  1  0  0  0  0
 19 20  1  0  0  0  0
 20 21  2  0  0  0  0
 21 22  1  0  0  0  0
 21 27  1  0  0  0  0
 22 23  2  0  0  0  0
 22 25  1  0  0  0  0
 23 24  1  0  0  0  0
 25 26  2  0  0  0  0
 26 27  1  0  0  0  0
M  END
>  <CHROM.1>
137.24448027,-69.76919203,-58.97443666,-99.33912250,-141.61479883,-8.77577143
140.41165074,-3.76805552,-10.64679743,18.61985425,2.65060333,1.00688849,0.88146585

>  <Name>
ligand

>  <RI>
0

>  <Rbt.Current_Directory>
/home/itssahil/PROJECTS/Mol_Feturizer/Test_systems_manuscript/rnas/4kqy

>  <Rbt.Executable>
rbdock ($Id: //depot/dev/client3/rdock/2013.1/src/exe/rbdock.cxx#4 $)

>  <Rbt.Library>
libRbt.so (2013.1, Build901 2013/11/27)

>  <Rbt.Parameter_File>
/export/apps/rDock/src/rDock_2013.1_src/data/scripts/dock_solv.prm

>  <Rbt.Receptor>
prm/pocket_docking_3.prm

>  <SCORE>
-13.36

>  <SCORE.INTER>
-15.0429

>  <SCORE.INTER.CONST>
1

>  <SCORE.INTER.POLAR>
0

>  <SCORE.INTER.ROT>
7

>  <SCORE.INTER.SOLV>
9.05578

>  <SCORE.INTER.VDW>
-21.3138

>  <SCORE.INTER.norm>
-0.557143

>  <SCORE.INTRA>
1.53958

>  <SCORE.INTRA.DIHEDRAL>
4.49569

>  <SCORE.INTRA.DIHEDRAL.0>
10.4103

>  <SCORE.INTRA.POLAR>
0

>  <SCORE.INTRA.POLAR.0>
0

>  <SCORE.INTRA.REPUL>
0

>  <SCORE.INTRA.REPUL.0>
0

>  <SCORE.INTRA.SOLV>
0.873206

>  <SCORE.INTRA.SOLV.lig_0>
-49.5008

>  <SCORE.INTRA.VDW>
-1.14487

>  <SCORE.INTRA.VDW.0>
-2.6946

>  <SCORE.INTRA.norm>
0.0570213

>  <SCORE.RESTR>
0.143306

>  <SCORE.RESTR.CAVITY>
0.143306

>  <SCORE.RESTR.norm>
0.00530762

>  <SCORE.SYSTEM>
0

>  <SCORE.SYSTEM.CONST>
0

>  <SCORE.SYSTEM.DIHEDRAL>
0

>  <SCORE.SYSTEM.SOLV>
0

>  <SCORE.SYSTEM.norm>
0

>  <SCORE.heavy>
27

>  <SCORE.norm>
-0.494814

>  <RMSD>
5.222

$$$$
ligand
 OpenBabel02271912153D
libRbt.so/2013.1/901 2013/11/27
 27 29  0  0  0  0  0  0  0  0999 V2000
   -1.8864  -11.2750   17.5969 N   0  0  0  0  0  0  0  0  0  0  0  0
   -3.2849  -11.6459   17.7019 C   0  0  2  0  0  0  0  0  0  0  0  0
   -3.3343  -13.0871   18.1061 C   0  0  0  0  0  0  0  0  0  0  0  0
   -2.4199  -13.8556   17.7378 O   0  0  0  0  0  0  0  0  0  0  0  0
   -3.9937  -11.4458   16.3596 C   0  0  0  0  0  0  0  0  0  0  0  0
   -4.1460   -9.9468   16.0185 C   0  0  0  0  0  0  0  0  0  0  0  0
   -5.2594   -9.1028   16.9475 S   0  0  2  0  0  0  0  0  0  0  0  0
   -6.5580   -8.6798   16.0022 C   0  0  0  0  0  0  0  0  0  0  0  0
   -4.5289   -7.7315   17.6067 C   0  0  0  0  0  0  0  0  0  0  0  0
   -4.4061   -7.7623   19.1448 C   0  0  1  0  0  0  0  0  0  0  0  0
   -5.6512   -8.0404   19.8068 O   0  0  0  0  0  0  0  0  0  0  0  0
   -3.5171   -8.8820   19.6616 C   0  0  1  0  0  0  0  0  0  0  0  0
   -2.0922   -8.7189   19.5143 O   0  0  0  0  0  0  0  0  0  0  0  0
   -3.9774   -8.9594   21.0963 C   0  0  1  0  0  0  0  0  0  0  0  0
   -3.5061   -7.8284   21.8228 O   0  0  0  0  0  0  0  0  0  0  0  0
   -5.4682   -8.8636   20.9611 C   0  0  2  0  0  0  0  0  0  0  0  0
   -4.2741  -13.4905   18.8322 O   0  0  0  0  0  0  0  0  0  0  0  0
   -5.3053  -14.1308   21.6725 N   0  0  0  0  0  0  0  0  0  0  0  0
   -4.3701  -13.1987   21.9782 C   0  0  0  0  0  0  0  0  0  0  0  0
   -4.5420  -11.8887   21.7340 N   0  0  0  0  0  0  0  0  0  0  0  0
   -5.6668  -11.4136   21.1876 C   0  0  0  0  0  0  0  0  0  0  0  0
   -6.7187  -12.3632   20.8572 C   0  0  0  0  0  0  0  0  0  0  0  0
   -6.5134  -13.8077   21.1133 C   0  0  0  0  0  0  0  0  0  0  0  0
   -7.4713  -14.7549   20.8166 N   0  0  0  0  0  0  0  0  0  0  0  0
   -7.7005  -11.6481   20.3566 N   0  0  0  0  0  0  0  0  0  0  0  0
   -7.3325  -10.3596   20.3358 C   0  0  0  0  0  0  0  0  0  0  0  0
   -6.1086  -10.2092   20.8406 N   0  0  0  0  0  0  0  0  0  0  0  0
  2  1  1  6  0  0  0
  2  3  1  0  0  0  0
  2  5  1  0  0  0  0
  3  4  1  0  0  0  0
  3 17  1  0  0  0  0
  5  6  1  0  0  0  0
  7  6  1  6  0  0  0
  7  8  1  0  0  0  0
  7  9  1  0  0  0  0
 10  9  1  6  0  0  0
 10 11  1  0  0  0  0
 10 12  1  0  0  0  0
 11 16  1  0  0  0  0
 12 13  1  1  0  0  0
 12 14  1  0  0  0  0
 14 15  1  1  0  0  0
 14 16  1  0  0  0  0
 16 27  1  6  0  0  0
 18 19  2  0  0  0  0
 18 23  1  0  0  0  0
 19 20  1  0  0  0  0
 20 21  2  0  0  0  0
 21 22  1  0  0  0  0
 21 27  1  0  0  0  0
 22 23  2  0  0  0  0
 22 25  1  0  0  0  0
 23 24  1  0  0  0  0
 25 26  2  0  0  0  0
 26 27  1  0  0  0  0
M  END
>  <CHROM.1>
-30.97744577,-70.08899762,-71.22419739,-111.12100060,-114.12558305,-52.34325218
137.84773182,-4.79261869,-10.73043561,19.31229844,-0.99790208,-1.10304604
3.10575710

>  <Name>
ligand

>  <RI>
0

>  <Rbt.Current_Directory>
/home/itssahil/PROJECTS/Mol_Feturizer/Test_systems_manuscript/rnas/4kqy

>  <Rbt.Executable>
rbdock ($Id: //depot/dev/client3/rdock/2013.1/src/exe/rbdock.cxx#4 $)

>  <Rbt.Library>
libRbt.so (2013.1, Build901 2013/11/27)

>  <Rbt.Parameter_File>
/export/apps/rDock/src/rDock_2013.1_src/data/scripts/dock_solv.prm

>  <Rbt.Receptor>
prm/pocket_docking_3.prm

>  <SCORE>
-13.5619

>  <SCORE.INTER>
-13.2643

>  <SCORE.INTER.CONST>
1

>  <SCORE.INTER.POLAR>
0

>  <SCORE.INTER.ROT>
7

>  <SCORE.INTER.SOLV>
12.7511

>  <SCORE.INTER.VDW>
-21.3599

>  <SCORE.INTER.norm>
-0.491272

>  <SCORE.INTRA>
-0.29757

>  <SCORE.INTRA.DIHEDRAL>
2.67816

>  <SCORE.INTRA.DIHEDRAL.0>
10.4103

>  <SCORE.INTRA.POLAR>
0

>  <SCORE.INTRA.POLAR.0>
0

>  <SCORE.INTRA.REPUL>
0

>  <SCORE.INTRA.REPUL.0>
0

>  <SCORE.INTRA.SOLV>
2.60024

>  <SCORE.INTRA.SOLV.lig_0>
-49.5008

>  <SCORE.INTRA.VDW>
-2.93677

>  <SCORE.INTRA.VDW.0>
-2.6946

>  <SCORE.INTRA.norm>
-0.0110211

>  <SCORE.RESTR>
0

>  <SCORE.RESTR.CAVITY>
0

>  <SCORE.RESTR.norm>
0

>  <SCORE.SYSTEM>
0

>  <SCORE.SYSTEM.CONST>
0

>  <SCORE.SYSTEM.DIHEDRAL>
0

>  <SCORE.SYSTEM.SOLV>
0

>  <SCORE.SYSTEM.norm>
0

>  <SCORE.heavy>
27

>  <SCORE.norm>
-0.502293

>  <RMSD>
5.224

$$$$
ligand
 OpenBabel02271912153D
libRbt.so/2013.1/901 2013/11/27
 27 29  0  0  0  0  0  0  0  0999 V2000
   -2.9014   -7.2497   21.6407 N   0  0  0  0  0  0  0  0  0  0  0  0
   -3.8260   -8.2514   21.1448 C   0  0  2  0  0  0  0  0  0  0  0  0
   -3.0944   -9.0656   20.1226 C   0  0  0  0  0  0  0  0  0  0  0  0
   -2.4831   -8.4821   19.2017 O   0  0  0  0  0  0  0  0  0  0  0  0
   -5.0511   -7.5834   20.5145 C   0  0  0  0  0  0  0  0  0  0  0  0
   -6.2961   -8.4945   20.5955 C   0  0  0  0  0  0  0  0  0  0  0  0
   -6.2510   -9.8686   19.6337 S   0  0  2  0  0  0  0  0  0  0  0  0
   -6.6794   -9.4679   18.0798 C   0  0  0  0  0  0  0  0  0  0  0  0
   -7.2965  -11.0366   20.2590 C   0  0  0  0  0  0  0  0  0  0  0  0
   -6.6036  -12.3624   20.6385 C   0  0  1  0  0  0  0  0  0  0  0  0
   -6.5510  -13.3044   19.5542 O   0  0  0  0  0  0  0  0  0  0  0  0
   -5.1329  -12.2015   20.9883 C   0  0  1  0  0  0  0  0  0  0  0  0
   -4.8156  -11.6257   22.2714 O   0  0  0  0  0  0  0  0  0  0  0  0
   -4.6530  -13.6221   20.8214 C   0  0  1  0  0  0  0  0  0  0  0  0
   -5.1392  -14.4310   21.8883 O   0  0  0  0  0  0  0  0  0  0  0  0
   -5.3260  -14.0413   19.5480 C   0  0  2  0  0  0  0  0  0  0  0  0
   -3.0814  -10.3155   20.2262 O   0  0  0  0  0  0  0  0  0  0  0  0
   -4.8128  -12.2781   14.5576 N   0  0  0  0  0  0  0  0  0  0  0  0
   -5.9218  -12.3300   15.3349 C   0  0  0  0  0  0  0  0  0  0  0  0
   -5.9090  -12.8121   16.5890 N   0  0  0  0  0  0  0  0  0  0  0  0
   -4.7857  -13.2565   17.1635 C   0  0  0  0  0  0  0  0  0  0  0  0
   -3.5561  -13.2058   16.3871 C   0  0  0  0  0  0  0  0  0  0  0  0
   -3.5829  -12.6895   14.9990 C   0  0  0  0  0  0  0  0  0  0  0  0
   -2.4513  -12.6221   14.2130 N   0  0  0  0  0  0  0  0  0  0  0  0
   -2.6172  -13.6795   17.1746 N   0  0  0  0  0  0  0  0  0  0  0  0
   -3.1678  -14.0291   18.3453 C   0  0  0  0  0  0  0  0  0  0  0  0
   -4.4752  -13.7720   18.3485 N   0  0  0  0  0  0  0  0  0  0  0  0
  2  1  1  6  0  0  0
  2  3  1  0  0  0  0
  2  5  1  0  0  0  0
  3  4  1  0  0  0  0
  3 17  1  0  0  0  0
  5  6  1  0  0  0  0
  7  6  1  1  0  0  0
  7  8  1  0  0  0  0
  7  9  1  0  0  0  0
 10  9  1  6  0  0  0
 10 11  1  0  0  0  0
 10 12  1  0  0  0  0
 11 16  1  0  0  0  0
 12 13  1  1  0  0  0
 12 14  1  0  0  0  0
 14 15  1  1  0  0  0
 14 16  1  0  0  0  0
 16 27  1  6  0  0  0
 18 19  2  0  0  0  0
 18 23  1  0  0  0  0
 19 20  1  0  0  0  0
 20 21  2  0  0  0  0
 21 22  1  0  0  0  0
 21 27  1  0  0  0  0
 22 23  2  0  0  0  0
 22 25  1  0  0  0  0
 23 24  1  0  0  0  0
 25 26  2  0  0  0  0
 26 27  1  0  0  0  0
M  END
>  <CHROM.1>
-50.75103062,-152.73735339,-69.02354869,-81.45122812,-120.55502805,-89.37802467
-19.33810342,-4.76988248,-11.44277482,19.00862771,-1.79981641,-1.18857003
-2.50545557

>  <Name>
ligand

>  <RI>
0

>  <Rbt.Current_Directory>
/home/itssahil/PROJECTS/Mol_Feturizer/Test_systems_manuscript/rnas/4kqy

>  <Rbt.Executable>
rbdock ($Id: //depot/dev/client3/rdock/2013.1/src/exe/rbdock.cxx#4 $)

>  <Rbt.Library>
libRbt.so (2013.1, Build901 2013/11/27)

>  <Rbt.Parameter_File>
/export/apps/rDock/src/rDock_2013.1_src/data/scripts/dock_solv.prm

>  <Rbt.Receptor>
prm/pocket_docking_5.prm

>  <SCORE>
-11.7808

>  <SCORE.INTER>
-12.3925

>  <SCORE.INTER.CONST>
1

>  <SCORE.INTER.POLAR>
0

>  <SCORE.INTER.ROT>
7

>  <SCORE.INTER.SOLV>
15.1749

>  <SCORE.INTER.VDW>
-21.5866

>  <SCORE.INTER.norm>
-0.458982

>  <SCORE.INTRA>
0.61167

>  <SCORE.INTRA.DIHEDRAL>
3.90674

>  <SCORE.INTRA.DIHEDRAL.0>
10.4103

>  <SCORE.INTRA.POLAR>
0

>  <SCORE.INTRA.POLAR.0>
0

>  <SCORE.INTRA.REPUL>
0

>  <SCORE.INTRA.REPUL.0>
0

>  <SCORE.INTRA.SOLV>
0.156942

>  <SCORE.INTRA.SOLV.lig_0>
-49.5008

>  <SCORE.INTRA.VDW>
-1.42017

>  <SCORE.INTRA.VDW.0>
-2.6946

>  <SCORE.INTRA.norm>
0.0226545

>  <SCORE.RESTR>
0

>  <SCORE.RESTR.CAVITY>
0

>  <SCORE.RESTR.norm>
0

>  <SCORE.SYSTEM>
0

>  <SCORE.SYSTEM.CONST>
0

>  <SCORE.SYSTEM.DIHEDRAL>
0

>  <SCORE.SYSTEM.SOLV>
0

>  <SCORE.SYSTEM.norm>
0

>  <SCORE.heavy>
27

>  <SCORE.norm>
-0.436327

>  <RMSD>
5.224

$$$$
ligand
 OpenBabel02271912153D
libRbt.so/2013.1/901 2013/11/27
 27 29  0  0  0  0  0  0  0  0999 V2000
   -1.8604  -12.4695   16.4088 N   0  0  0  0  0  0  0  0  0  0  0  0
   -3.1782  -11.9366   16.1192 C   0  0  2  0  0  0  0  0  0  0  0  0
   -3.8296  -12.8661   15.1421 C   0  0  0  0  0  0  0  0  0  0  0  0
   -3.1752  -13.2730   14.1579 O   0  0  0  0  0  0  0  0  0  0  0  0
   -3.0677  -10.5308   15.5228 C   0  0  0  0  0  0  0  0  0  0  0  0
   -4.4576   -9.8787   15.3512 C   0  0  0  0  0  0  0  0  0  0  0  0
   -5.2342   -9.4454   16.7740 S   0  0  2  0  0  0  0  0  0  0  0  0
   -6.8501   -9.2103   16.4704 C   0  0  0  0  0  0  0  0  0  0  0  0
   -4.5343   -8.0435   17.4012 C   0  0  0  0  0  0  0  0  0  0  0  0
   -4.8006   -7.8265   18.9058 C   0  0  1  0  0  0  0  0  0  0  0  0
   -6.1295   -8.2011   19.3054 O   0  0  0  0  0  0  0  0  0  0  0  0
   -3.9424   -8.6992   19.8073 C   0  0  1  0  0  0  0  0  0  0  0  0
   -2.5568   -8.3318   19.9620 O   0  0  0  0  0  0  0  0  0  0  0  0
   -4.7368   -8.6372   21.0884 C   0  0  1  0  0  0  0  0  0  0  0  0
   -4.6040   -7.3502   21.6844 O   0  0  0  0  0  0  0  0  0  0  0  0
   -6.1457   -8.8043   20.6014 C   0  0  2  0  0  0  0  0  0  0  0  0
   -5.0081  -13.2445   15.3448 O   0  0  0  0  0  0  0  0  0  0  0  0
   -5.2280  -13.8973   21.8242 N   0  0  0  0  0  0  0  0  0  0  0  0
   -4.4626  -12.8076   22.0761 C   0  0  0  0  0  0  0  0  0  0  0  0
   -4.8168  -11.5673   21.6998 N   0  0  0  0  0  0  0  0  0  0  0  0
   -5.9687  -11.3237   21.0649 C   0  0  0  0  0  0  0  0  0  0  0  0
   -6.8453  -12.4510   20.7853 C   0  0  0  0  0  0  0  0  0  0  0  0
   -6.4385  -13.8172   21.1879 C   0  0  0  0  0  0  0  0  0  0  0  0
   -7.2245  -14.9246   20.9454 N   0  0  0  0  0  0  0  0  0  0  0  0
   -7.8949  -11.9448   20.1786 N   0  0  0  0  0  0  0  0  0  0  0  0
   -7.7253  -10.6219   20.0484 C   0  0  0  0  0  0  0  0  0  0  0  0
   -6.5677  -10.2384   20.5854 N   0  0  0  0  0  0  0  0  0  0  0  0
  2  1  1  6  0  0  0
  2  3  1  0  0  0  0
  2  5  1  0  0  0  0
  3  4  1  0  0  0  0
  3 17  1  0  0  0  0
  5  6  1  0  0  0  0
  7  6  1  6  0  0  0
  7  8  1  0  0  0  0
  7  9  1  0  0  0  0
 10  9  1  6  0  0  0
 10 11  1  0  0  0  0
 10 12  1  0  0  0  0
 11 16  1  0  0  0  0
 12 13  1  1  0  0  0
 12 14  1  0  0  0  0
 14 15  1  6  0  0  0
 14 16  1  0  0  0  0
 16 27  1  6  0  0  0
 18 19  2  0  0  0  0
 18 23  1  0  0  0  0
 19 20  1  0  0  0  0
 20 21  2  0  0  0  0
 21 22  1  0  0  0  0
 21 27  1  0  0  0  0
 22 23  2  0  0  0  0
 22 25  1  0  0  0  0
 23 24  1  0  0  0  0
 25 26  2  0  0  0  0
 26 27  1  0  0  0  0
M  END
>  <CHROM.1>
-45.59672158,-173.67810452,70.20038690,-162.62462082,-159.52824914,-38.48118539
125.79525482,-5.05809446,-10.71525727,18.73891132,0.39572978,-1.19267531
-2.80015166

>  <Name>
ligand

>  <RI>
0

>  <Rbt.Current_Directory>
/home/itssahil/PROJECTS/Mol_Feturizer/Test_systems_manuscript/rnas/4kqy

>  <Rbt.Executable>
rbdock ($Id: //depot/dev/client3/rdock/2013.1/src/exe/rbdock.cxx#4 $)

>  <Rbt.Library>
libRbt.so (2013.1, Build901 2013/11/27)

>  <Rbt.Parameter_File>
/export/apps/rDock/src/rDock_2013.1_src/data/scripts/dock_solv.prm

>  <Rbt.Receptor>
prm/pocket_docking_5.prm

>  <SCORE>
-16.4156

>  <SCORE.INTER>
-13.7654

>  <SCORE.INTER.CONST>
1

>  <SCORE.INTER.POLAR>
0

>  <SCORE.INTER.ROT>
7

>  <SCORE.INTER.SOLV>
11.8401

>  <SCORE.INTER.VDW>
-21.3903

>  <SCORE.INTER.norm>
-0.509829

>  <SCORE.INTRA>
-2.65019

>  <SCORE.INTRA.DIHEDRAL>
-3.58046

>  <SCORE.INTRA.DIHEDRAL.0>
10.4103

>  <SCORE.INTRA.POLAR>
0

>  <SCORE.INTRA.POLAR.0>
0

>  <SCORE.INTRA.REPUL>
0

>  <SCORE.INTRA.REPUL.0>
0

>  <SCORE.INTRA.SOLV>
-0.339155

>  <SCORE.INTRA.SOLV.lig_0>
-49.5008

>  <SCORE.INTRA.VDW>
-0.690385

>  <SCORE.INTRA.VDW.0>
-2.6946

>  <SCORE.INTRA.norm>
-0.0981552

>  <SCORE.RESTR>
0

>  <SCORE.RESTR.CAVITY>
0

>  <SCORE.RESTR.norm>
0

>  <SCORE.SYSTEM>
0

>  <SCORE.SYSTEM.CONST>
0

>  <SCORE.SYSTEM.DIHEDRAL>
0

>  <SCORE.SYSTEM.SOLV>
0

>  <SCORE.SYSTEM.norm>
0

>  <SCORE.heavy>
27

>  <SCORE.norm>
-0.607984

>  <RMSD>
5.225

$$$$
ligand
 OpenBabel02271912153D
libRbt.so/2013.1/901 2013/11/27
 27 29  0  0  0  0  0  0  0  0999 V2000
   -2.5581  -10.5937   13.3228 N   0  0  0  0  0  0  0  0  0  0  0  0
   -2.6778  -11.4259   14.5049 C   0  0  2  0  0  0  0  0  0  0  0  0
   -3.6285  -12.5350   14.1744 C   0  0  0  0  0  0  0  0  0  0  0  0
   -3.6053  -13.5819   14.8568 O   0  0  0  0  0  0  0  0  0  0  0  0
   -3.2071  -10.6063   15.6849 C   0  0  0  0  0  0  0  0  0  0  0  0
   -4.6014  -10.0143   15.3819 C   0  0  0  0  0  0  0  0  0  0  0  0
   -5.3985   -9.3329   16.6917 S   0  0  2  0  0  0  0  0  0  0  0  0
   -6.9544   -8.9519   16.2527 C   0  0  0  0  0  0  0  0  0  0  0  0
   -4.5703   -7.9567   17.2100 C   0  0  0  0  0  0  0  0  0  0  0  0
   -4.5616   -7.7674   18.7416 C   0  0  1  0  0  0  0  0  0  0  0  0
   -5.8294   -8.0549   19.3548 O   0  0  0  0  0  0  0  0  0  0  0  0
   -3.6346   -8.7287   19.4679 C   0  0  1  0  0  0  0  0  0  0  0  0
   -2.2184   -8.4698   19.3910 O   0  0  0  0  0  0  0  0  0  0  0  0
   -4.1946   -8.6479   20.8665 C   0  0  1  0  0  0  0  0  0  0  0  0
   -3.8633   -7.3934   21.4542 O   0  0  0  0  0  0  0  0  0  0  0  0
   -5.6741   -8.6952   20.6235 C   0  0  2  0  0  0  0  0  0  0  0  0
   -4.4514  -12.3819   13.2403 O   0  0  0  0  0  0  0  0  0  0  0  0
   -5.1004  -13.8185   21.9269 N   0  0  0  0  0  0  0  0  0  0  0  0
   -4.2464  -12.7856   22.1282 C   0  0  0  0  0  0  0  0  0  0  0  0
   -4.5192  -11.5295   21.7368 N   0  0  0  0  0  0  0  0  0  0  0  0
   -5.6715  -11.2112   21.1364 C   0  0  0  0  0  0  0  0  0  0  0  0
   -6.6401  -12.2736   20.9122 C   0  0  0  0  0  0  0  0  0  0  0  0
   -6.3235  -13.6588   21.3308 C   0  0  0  0  0  0  0  0  0  0  0  0
   -7.1990  -14.7075   21.1400 N   0  0  0  0  0  0  0  0  0  0  0  0
   -7.6696  -11.7009   20.3307 N   0  0  0  0  0  0  0  0  0  0  0  0
   -7.4053  -10.3975   20.1654 C   0  0  0  0  0  0  0  0  0  0  0  0
   -6.2035  -10.0930   20.6539 N   0  0  0  0  0  0  0  0  0  0  0  0
  2  1  1  6  0  0  0
  2  3  1  0  0  0  0
  2  5  1  0  0  0  0
  3  4  1  0  0  0  0
  3 17  1  0  0  0  0
  5  6  1  0  0  0  0
  7  6  1  6  0  0  0
  7  8  1  0  0  0  0
  7  9  1  0  0  0  0
 10  9  1  6  0  0  0
 10 11  1  0  0  0  0
 10 12  1  0  0  0  0
 11 16  1  0  0  0  0
 12 13  1  1  0  0  0
 12 14  1  0  0  0  0
 14 15  1  6  0  0  0
 14 16  1  0  0  0  0
 16 27  1  6  0  0  0
 18 19  2  0  0  0  0
 18 23  1  0  0  0  0
 19 20  1  0  0  0  0
 20 21  2  0  0  0  0
 21 22  1  0  0  0  0
 21 27  1  0  0  0  0
 22 23  2  0  0  0  0
 22 25  1  0  0  0  0
 23 24  1  0  0  0  0
 25 26  2  0  0  0  0
 26 27  1  0  0  0  0
M  END
>  <CHROM.1>
159.14684756,60.21547367,169.43800194,-171.68398928,-142.75674888,-41.82679694
133.97041939,-4.90265690,-10.53316544,18.45322854,0.57725913,-1.24759824
-2.50900667

>  <Name>
ligand

>  <RI>
0

>  <Rbt.Current_Directory>
/home/itssahil/PROJECTS/Mol_Feturizer/Test_systems_manuscript/rnas/4kqy

>  <Rbt.Executable>
rbdock ($Id: //depot/dev/client3/rdock/2013.1/src/exe/rbdock.cxx#4 $)

>  <Rbt.Library>
libRbt.so (2013.1, Build901 2013/11/27)

>  <Rbt.Parameter_File>
/export/apps/rDock/src/rDock_2013.1_src/data/scripts/dock_solv.prm

>  <Rbt.Receptor>
prm/pocket_docking_6.prm

>  <SCORE>
-14.7938

>  <SCORE.INTER>
-13.4534

>  <SCORE.INTER.CONST>
1

>  <SCORE.INTER.POLAR>
0

>  <SCORE.INTER.ROT>
7

>  <SCORE.INTER.SOLV>
13.495

>  <SCORE.INTER.VDW>
-21.7339

>  <SCORE.INTER.norm>
-0.498275

>  <SCORE.INTRA>
-1.34039

>  <SCORE.INTRA.DIHEDRAL>
-2.85243

>  <SCORE.INTRA.DIHEDRAL.0>
10.4103

>  <SCORE.INTRA.POLAR>
0

>  <SCORE.INTRA.POLAR.0>
0

>  <SCORE.INTRA.REPUL>
0

>  <SCORE.INTRA.REPUL.0>
0

>  <SCORE.INTRA.SOLV>
0.266974

>  <SCORE.INTRA.SOLV.lig_0>
-49.5008

>  <SCORE.INTRA.VDW>
-0.0476598

>  <SCORE.INTRA.VDW.0>
-2.6946

>  <SCORE.INTRA.norm>
-0.049644

>  <SCORE.RESTR>
0

>  <SCORE.RESTR.CAVITY>
0

>  <SCORE.RESTR.norm>
0

>  <SCORE.SYSTEM>
0

>  <SCORE.SYSTEM.CONST>
0

>  <SCORE.SYSTEM.DIHEDRAL>
0

>  <SCORE.SYSTEM.SOLV>
0

>  <SCORE.SYSTEM.norm>
0

>  <SCORE.heavy>
27

>  <SCORE.norm>
-0.547919

>  <RMSD>
5.225

$$$$
ligand
 OpenBabel02271912153D
libRbt.so/2013.1/901 2013/11/27
 27 29  0  0  0  0  0  0  0  0999 V2000
   -1.0487  -11.4686   18.2373 N   0  0  0  0  0  0  0  0  0  0  0  0
   -2.4041  -11.8328   17.8709 C   0  0  2  0  0  0  0  0  0  0  0  0
   -2.5455  -13.3068   18.0958 C   0  0  0  0  0  0  0  0  0  0  0  0
   -1.6143  -14.0678   17.7553 O   0  0  0  0  0  0  0  0  0  0  0  0
   -2.6717  -11.4913   16.4025 C   0  0  0  0  0  0  0  0  0  0  0  0
   -2.6666   -9.9645   16.1672 C   0  0  0  0  0  0  0  0  0  0  0  0
   -3.8678   -9.1056   16.9638 S   0  0  2  0  0  0  0  0  0  0  0  0
   -4.6463   -8.1145   15.8820 C   0  0  0  0  0  0  0  0  0  0  0  0
   -3.1875   -8.2035   18.2176 C   0  0  0  0  0  0  0  0  0  0  0  0
   -4.2051   -7.7344   19.2788 C   0  0  1  0  0  0  0  0  0  0  0  0
   -5.5119   -8.3061   19.1018 O   0  0  0  0  0  0  0  0  0  0  0  0
   -3.8569   -8.1746   20.6916 C   0  0  1  0  0  0  0  0  0  0  0  0
   -2.7851   -7.4777   21.3580 O   0  0  0  0  0  0  0  0  0  0  0  0
   -5.1974   -8.0207   21.3664 C   0  0  1  0  0  0  0  0  0  0  0  0
   -5.5030   -6.6400   21.5379 O   0  0  0  0  0  0  0  0  0  0  0  0
   -6.1366   -8.6041   20.3526 C   0  0  2  0  0  0  0  0  0  0  0  0
   -3.5807  -13.7480   18.6498 O   0  0  0  0  0  0  0  0  0  0  0  0
   -4.3903  -13.3433   22.0158 N   0  0  0  0  0  0  0  0  0  0  0  0
   -3.7493  -12.1493   22.0157 C   0  0  0  0  0  0  0  0  0  0  0  0
   -4.3137  -11.0209   21.5538 N   0  0  0  0  0  0  0  0  0  0  0  0
   -5.5642  -10.9995   21.0793 C   0  0  0  0  0  0  0  0  0  0  0  0
   -6.3132  -12.2469   21.0738 C   0  0  0  0  0  0  0  0  0  0  0  0
   -5.6768  -13.4898   21.5683 C   0  0  0  0  0  0  0  0  0  0  0  0
   -6.3345  -14.7022   21.5829 N   0  0  0  0  0  0  0  0  0  0  0  0
   -7.4943  -11.9517   20.5800 N   0  0  0  0  0  0  0  0  0  0  0  0
   -7.5216  -10.6484   20.2690 C   0  0  0  0  0  0  0  0  0  0  0  0
   -6.3624  -10.0655   20.5723 N   0  0  0  0  0  0  0  0  0  0  0  0
  2  1  1  6  0  0  0
  2  3  1  0  0  0  0
  2  5  1  0  0  0  0
  3  4  1  0  0  0  0
  3 17  1  0  0  0  0
  5  6  1  0  0  0  0
  7  6  1  6  0  0  0
  7  8  1  0  0  0  0
  7  9  1  0  0  0  0
 10  9  1  6  0  0  0
 10 11  1  0  0  0  0
 10 12  1  0  0  0  0
 11 16  1  0  0  0  0
 12 13  1  1  0  0  0
 12 14  1  0  0  0  0
 14 15  1  6  0  0  0
 14 16  1  0  0  0  0
 16 27  1  1  0  0  0
 18 19  2  0  0  0  0
 18 23  1  0  0  0  0
 19 20  1  0  0  0  0
 20 21  2  0  0  0  0
 21 22  1  0  0  0  0
 21 27  1  0  0  0  0
 22 23  2  0  0  0  0
 22 25  1  0  0  0  0
 23 24  1  0  0  0  0
 25 26  2  0  0  0  0
 26 27  1  0  0  0  0
M  END
>  <CHROM.1>
-41.97264821,-67.00200876,-63.56284959,-129.75896416,-161.78728721,8.05878837
86.53966348,-4.34808234,-10.50909984,19.47007236,-1.69759241,0.92291797,-0.20107160

>  <Name>
ligand

>  <RI>
0

>  <Rbt.Current_Directory>
/home/itssahil/PROJECTS/Mol_Feturizer/Test_systems_manuscript/rnas/4kqy

>  <Rbt.Executable>
rbdock ($Id: //depot/dev/client3/rdock/2013.1/src/exe/rbdock.cxx#4 $)

>  <Rbt.Library>
libRbt.so (2013.1, Build901 2013/11/27)

>  <Rbt.Parameter_File>
/export/apps/rDock/src/rDock_2013.1_src/data/scripts/dock_solv.prm

>  <Rbt.Receptor>
prm/pocket_docking_5.prm

>  <SCORE>
-14.0993

>  <SCORE.INTER>
-15.0767

>  <SCORE.INTER.CONST>
1

>  <SCORE.INTER.POLAR>
0

>  <SCORE.INTER.ROT>
7

>  <SCORE.INTER.SOLV>
17.1084

>  <SCORE.INTER.VDW>
-24.0206

>  <SCORE.INTER.norm>
-0.558398

>  <SCORE.INTRA>
0.977449

>  <SCORE.INTRA.DIHEDRAL>
2.96217

>  <SCORE.INTRA.DIHEDRAL.0>
10.4103

>  <SCORE.INTRA.POLAR>
0

>  <SCORE.INTRA.POLAR.0>
0

>  <SCORE.INTRA.REPUL>
0

>  <SCORE.INTRA.REPUL.0>
0

>  <SCORE.INTRA.SOLV>
1.24467

>  <SCORE.INTRA.SOLV.lig_0>
-49.5008

>  <SCORE.INTRA.VDW>
-1.12597

>  <SCORE.INTRA.VDW.0>
-2.6946

>  <SCORE.INTRA.norm>
0.0362018

>  <SCORE.RESTR>
0

>  <SCORE.RESTR.CAVITY>
0

>  <SCORE.RESTR.norm>
0

>  <SCORE.SYSTEM>
0

>  <SCORE.SYSTEM.CONST>
0

>  <SCORE.SYSTEM.DIHEDRAL>
0

>  <SCORE.SYSTEM.SOLV>
0

>  <SCORE.SYSTEM.norm>
0

>  <SCORE.heavy>
27

>  <SCORE.norm>
-0.522196

>  <RMSD>
5.227

$$$$
ligand
 OpenBabel02271912153D
libRbt.so/2013.1/901 2013/11/27
 27 29  0  0  0  0  0  0  0  0999 V2000
   -2.9359  -13.0731   18.9744 N   0  0  0  0  0  0  0  0  0  0  0  0
   -3.7427  -13.2582   17.7832 C   0  0  2  0  0  0  0  0  0  0  0  0
   -2.8066  -13.3145   16.6155 C   0  0  0  0  0  0  0  0  0  0  0  0
   -1.6180  -12.9597   16.7690 O   0  0  0  0  0  0  0  0  0  0  0  0
   -4.7282  -12.0981   17.6187 C   0  0  0  0  0  0  0  0  0  0  0  0
   -4.0227  -10.7317   17.7661 C   0  0  0  0  0  0  0  0  0  0  0  0
   -4.7504   -9.4512   16.9625 S   0  0  2  0  0  0  0  0  0  0  0  0
   -4.3864   -9.5377   15.3442 C   0  0  0  0  0  0  0  0  0  0  0  0
   -4.2167   -7.9901   17.6173 C   0  0  0  0  0  0  0  0  0  0  0  0
   -4.6467   -7.7629   19.0820 C   0  0  1  0  0  0  0  0  0  0  0  0
   -6.0065   -8.1509   19.3395 O   0  0  0  0  0  0  0  0  0  0  0  0
   -3.8807   -8.6163   20.0799 C   0  0  1  0  0  0  0  0  0  0  0  0
   -2.5244   -8.2297   20.3795 O   0  0  0  0  0  0  0  0  0  0  0  0
   -4.8097   -8.5528   21.2670 C   0  0  1  0  0  0  0  0  0  0  0  0
   -4.7574   -7.2589   21.8604 O   0  0  0  0  0  0  0  0  0  0  0  0
   -6.1556   -8.7425   20.6324 C   0  0  2  0  0  0  0  0  0  0  0  0
   -3.2227  -13.7458   15.5137 O   0  0  0  0  0  0  0  0  0  0  0  0
   -5.2040  -13.8372   21.8217 N   0  0  0  0  0  0  0  0  0  0  0  0
   -4.4625  -12.7402   22.1106 C   0  0  0  0  0  0  0  0  0  0  0  0
   -4.8224  -11.5004   21.7384 N   0  0  0  0  0  0  0  0  0  0  0  0
   -5.9573  -11.2648   21.0707 C   0  0  0  0  0  0  0  0  0  0  0  0
   -6.8086  -12.4006   20.7502 C   0  0  0  0  0  0  0  0  0  0  0  0
   -6.3951  -13.7660   21.1488 C   0  0  0  0  0  0  0  0  0  0  0  0
   -7.1573  -14.8810   20.8684 N   0  0  0  0  0  0  0  0  0  0  0  0
   -7.8459  -11.9014   20.1170 N   0  0  0  0  0  0  0  0  0  0  0  0
   -7.6911  -10.5747   20.0082 C   0  0  0  0  0  0  0  0  0  0  0  0
   -6.5564  -10.1820   20.5859 N   0  0  0  0  0  0  0  0  0  0  0  0
  2  1  1  1  0  0  0
  2  3  1  0  0  0  0
  2  5  1  0  0  0  0
  3  4  1  0  0  0  0
  3 17  1  0  0  0  0
  5  6  1  0  0  0  0
  7  6  1  1  0  0  0
  7  8  1  0  0  0  0
  7  9  1  0  0  0  0
 10  9  1  6  0  0  0
 10 11  1  0  0  0  0
 10 12  1  0  0  0  0
 11 16  1  0  0  0  0
 12 13  1  1  0  0  0
 12 14  1  0  0  0  0
 14 15  1  6  0  0  0
 14 16  1  0  0  0  0
 16 27  1  6  0  0  0
 18 19  2  0  0  0  0
 18 23  1  0  0  0  0
 19 20  1  0  0  0  0
 20 21  2  0  0  0  0
 21 22  1  0  0  0  0
 21 27  1  0  0  0  0
 22 23  2  0  0  0  0
 22 25  1  0  0  0  0
 23 24  1  0  0  0  0
 25 26  2  0  0  0  0
 26 27  1  0  0  0  0
M  END
>  <CHROM.1>
-13.26388619,48.90040922,153.45180492,-77.65228335,-65.31247358,-41.98733174
121.20230769,-4.83142535,-10.86272482,19.22942085,0.83720090,-1.04758847
-3.06388017

>  <Name>
ligand

>  <RI>
0

>  <Rbt.Current_Directory>
/home/itssahil/PROJECTS/Mol_Feturizer/Test_systems_manuscript/rnas/4kqy

>  <Rbt.Executable>
rbdock ($Id: //depot/dev/client3/rdock/2013.1/src/exe/rbdock.cxx#4 $)

>  <Rbt.Library>
libRbt.so (2013.1, Build901 2013/11/27)

>  <Rbt.Parameter_File>
/export/apps/rDock/src/rDock_2013.1_src/data/scripts/dock_solv.prm

>  <Rbt.Receptor>
prm/pocket_docking_4.prm

>  <SCORE>
-13.3181

>  <SCORE.INTER>
-10.9484

>  <SCORE.INTER.CONST>
1

>  <SCORE.INTER.POLAR>
0

>  <SCORE.INTER.ROT>
7

>  <SCORE.INTER.SOLV>
14.7401

>  <SCORE.INTER.VDW>
-20.479

>  <SCORE.INTER.norm>
-0.405497

>  <SCORE.INTRA>
-2.36966

>  <SCORE.INTRA.DIHEDRAL>
-2.69911

>  <SCORE.INTRA.DIHEDRAL.0>
10.4103

>  <SCORE.INTRA.POLAR>
0

>  <SCORE.INTRA.POLAR.0>
0

>  <SCORE.INTRA.REPUL>
0

>  <SCORE.INTRA.REPUL.0>
0

>  <SCORE.INTRA.SOLV>
1.12128

>  <SCORE.INTRA.SOLV.lig_0>
-49.5008

>  <SCORE.INTRA.VDW>
-1.58074

>  <SCORE.INTRA.VDW.0>
-2.6946

>  <SCORE.INTRA.norm>
-0.0877652

>  <SCORE.RESTR>
0

>  <SCORE.RESTR.CAVITY>
0

>  <SCORE.RESTR.norm>
0

>  <SCORE.SYSTEM>
0

>  <SCORE.SYSTEM.CONST>
0

>  <SCORE.SYSTEM.DIHEDRAL>
0

>  <SCORE.SYSTEM.SOLV>
0

>  <SCORE.SYSTEM.norm>
0

>  <SCORE.heavy>
27

>  <SCORE.norm>
-0.493262

>  <RMSD>
5.229

$$$$
ligand
 OpenBabel02271912153D
libRbt.so/2013.1/901 2013/11/27
 27 29  0  0  0  0  0  0  0  0999 V2000
   -7.5007  -11.8671   16.9114 N   0  0  0  0  0  0  0  0  0  0  0  0
   -6.2541  -12.1900   17.5792 C   0  0  2  0  0  0  0  0  0  0  0  0
   -5.4380  -13.0089   16.6272 C   0  0  0  0  0  0  0  0  0  0  0  0
   -4.3254  -13.4435   16.9952 O   0  0  0  0  0  0  0  0  0  0  0  0
   -6.5236  -12.9794   18.8631 C   0  0  0  0  0  0  0  0  0  0  0  0
   -5.2318  -13.1772   19.6869 C   0  0  0  0  0  0  0  0  0  0  0  0
   -4.2875  -11.8055   19.8921 S   0  0  2  0  0  0  0  0  0  0  0  0
   -2.6833  -12.2169   19.7651 C   0  0  0  0  0  0  0  0  0  0  0  0
   -4.6088  -11.1121   21.3969 C   0  0  0  0  0  0  0  0  0  0  0  0
   -4.8889   -9.5954   21.3435 C   0  0  1  0  0  0  0  0  0  0  0  0
   -3.7919   -8.8355   20.8098 O   0  0  0  0  0  0  0  0  0  0  0  0
   -6.0213   -9.2189   20.4018 C   0  0  1  0  0  0  0  0  0  0  0  0
   -7.3674   -9.4893   20.8418 O   0  0  0  0  0  0  0  0  0  0  0  0
   -5.7303   -7.7533   20.1930 C   0  0  1  0  0  0  0  0  0  0  0  0
   -6.0491   -7.0188   21.3711 O   0  0  0  0  0  0  0  0  0  0  0  0
   -4.2424   -7.7449   20.0027 C   0  0  2  0  0  0  0  0  0  0  0  0
   -5.8981  -13.2704   15.4900 O   0  0  0  0  0  0  0  0  0  0  0  0
   -1.2773   -9.9804   16.1966 N   0  0  0  0  0  0  0  0  0  0  0  0
   -1.2734  -10.2167   17.5311 C   0  0  0  0  0  0  0  0  0  0  0  0
   -2.0798   -9.5668   18.3871 N   0  0  0  0  0  0  0  0  0  0  0  0
   -2.9614   -8.6511   17.9702 C   0  0  0  0  0  0  0  0  0  0  0  0
   -3.0292   -8.3689   16.5443 C   0  0  0  0  0  0  0  0  0  0  0  0
   -2.1239   -9.0772   15.6100 C   0  0  0  0  0  0  0  0  0  0  0  0
   -2.1384   -8.8481   14.2498 N   0  0  0  0  0  0  0  0  0  0  0  0
   -3.9675   -7.4601   16.4048 N   0  0  0  0  0  0  0  0  0  0  0  0
   -4.4582   -7.1534   17.6135 C   0  0  0  0  0  0  0  0  0  0  0  0
   -3.8600   -7.8717   18.5630 N   0  0  0  0  0  0  0  0  0  0  0  0
  2  1  1  6  0  0  0
  2  3  1  0  0  0  0
  2  5  1  0  0  0  0
  3  4  1  0  0  0  0
  3 17  1  0  0  0  0
  5  6  1  0  0  0  0
  7  6  1  1  0  0  0
  7  8  1  0  0  0  0
  7  9  1  0  0  0  0
 10  9  1  6  0  0  0
 10 11  1  0  0  0  0
 10 12  1  0  0  0  0
 11 16  1  0  0  0  0
 12 13  1  1  0  0  0
 12 14  1  0  0  0  0
 14 15  1  1  0  0  0
 14 16  1  0  0  0  0
 16 27  1  6  0  0  0
 18 19  2  0  0  0  0
 18 23  1  0  0  0  0
 19 20  1  0  0  0  0
 20 21  2  0  0  0  0
 21 22  1  0  0  0  0
 21 27  1  0  0  0  0
 22 23  2  0  0  0  0
 22 25  1  0  0  0  0
 23 24  1  0  0  0  0
 25 26  2  0  0  0  0
 26 27  1  0  0  0  0
M  END
>  <CHROM.1>
-177.94855200,-172.60907787,46.70001106,-140.36707862,-130.60134214,-59.99495642
-15.97033910,-4.41326791,-10.19602392,18.53103309,0.88161148,-0.91062895
-2.51730194

>  <Name>
ligand

>  <RI>
0

>  <Rbt.Current_Directory>
/home/itssahil/PROJECTS/Mol_Feturizer/Test_systems_manuscript/rnas/4kqy

>  <Rbt.Executable>
rbdock ($Id: //depot/dev/client3/rdock/2013.1/src/exe/rbdock.cxx#4 $)

>  <Rbt.Library>
libRbt.so (2013.1, Build901 2013/11/27)

>  <Rbt.Parameter_File>
/export/apps/rDock/src/rDock_2013.1_src/data/scripts/dock_solv.prm

>  <Rbt.Receptor>
prm/pocket_docking_4.prm

>  <SCORE>
-8.4077

>  <SCORE.INTER>
-8.33329

>  <SCORE.INTER.CONST>
1

>  <SCORE.INTER.POLAR>
0

>  <SCORE.INTER.ROT>
7

>  <SCORE.INTER.SOLV>
15.1709

>  <SCORE.INTER.VDW>
-18.8792

>  <SCORE.INTER.norm>
-0.30864

>  <SCORE.INTRA>
-0.0744177

>  <SCORE.INTRA.DIHEDRAL>
1.05693

>  <SCORE.INTRA.DIHEDRAL.0>
10.4103

>  <SCORE.INTRA.POLAR>
0

>  <SCORE.INTRA.POLAR.0>
0

>  <SCORE.INTRA.REPUL>
0

>  <SCORE.INTRA.REPUL.0>
0

>  <SCORE.INTRA.SOLV>
0.026628

>  <SCORE.INTRA.SOLV.lig_0>
-49.5008

>  <SCORE.INTRA.VDW>
-0.616198

>  <SCORE.INTRA.VDW.0>
-2.6946

>  <SCORE.INTRA.norm>
-0.00275621

>  <SCORE.RESTR>
0

>  <SCORE.RESTR.CAVITY>
0

>  <SCORE.RESTR.norm>
0

>  <SCORE.SYSTEM>
0

>  <SCORE.SYSTEM.CONST>
0

>  <SCORE.SYSTEM.DIHEDRAL>
0

>  <SCORE.SYSTEM.SOLV>
0

>  <SCORE.SYSTEM.norm>
0

>  <SCORE.heavy>
27

>  <SCORE.norm>
-0.311396

>  <RMSD>
5.237

$$$$
ligand
 OpenBabel02271912153D
libRbt.so/2013.1/901 2013/11/27
 27 29  0  0  0  0  0  0  0  0999 V2000
   -4.6420  -10.4897   16.9648 N   0  0  0  0  0  0  0  0  0  0  0  0
   -5.2022   -9.3593   17.6806 C   0  0  2  0  0  0  0  0  0  0  0  0
   -6.2233   -8.7272   16.7857 C   0  0  0  0  0  0  0  0  0  0  0  0
   -7.4355   -8.8387   17.0692 O   0  0  0  0  0  0  0  0  0  0  0  0
   -4.1049   -8.3504   18.0305 C   0  0  0  0  0  0  0  0  0  0  0  0
   -4.6501   -7.2055   18.9128 C   0  0  0  0  0  0  0  0  0  0  0  0
   -5.0244   -7.6256   20.4936 S   0  0  2  0  0  0  0  0  0  0  0  0
   -5.7339   -6.3310   21.2546 C   0  0  0  0  0  0  0  0  0  0  0  0
   -3.6223   -8.1000   21.3045 C   0  0  0  0  0  0  0  0  0  0  0  0
   -3.5510   -9.6119   21.6058 C   0  0  1  0  0  0  0  0  0  0  0  0
   -4.7675  -10.1360   22.1637 O   0  0  0  0  0  0  0  0  0  0  0  0
   -3.3771  -10.4718   20.3643 C   0  0  1  0  0  0  0  0  0  0  0  0
   -2.0724  -10.4951   19.7512 O   0  0  0  0  0  0  0  0  0  0  0  0
   -3.8274  -11.8116   20.8919 C   0  0  1  0  0  0  0  0  0  0  0  0
   -2.8466  -12.3432   21.7776 O   0  0  0  0  0  0  0  0  0  0  0  0
   -5.0511  -11.4515   21.6813 C   0  0  2  0  0  0  0  0  0  0  0  0
   -5.8436   -8.0713   15.7862 O   0  0  0  0  0  0  0  0  0  0  0  0
   -8.9641  -14.3053   19.4859 N   0  0  0  0  0  0  0  0  0  0  0  0
   -7.9288  -14.7246   20.2532 C   0  0  0  0  0  0  0  0  0  0  0  0
   -6.9985  -13.8865   20.7405 N   0  0  0  0  0  0  0  0  0  0  0  0
   -7.0470  -12.5689   20.5147 C   0  0  0  0  0  0  0  0  0  0  0  0
   -8.1485  -12.0538   19.7154 C   0  0  0  0  0  0  0  0  0  0  0  0
   -9.1596  -12.9873   19.1673 C   0  0  0  0  0  0  0  0  0  0  0  0
  -10.2223  -12.5589   18.3991 N   0  0  0  0  0  0  0  0  0  0  0  0
   -7.9701  -10.7535   19.6580 N   0  0  0  0  0  0  0  0  0  0  0  0
   -6.8547  -10.4381   20.3304 C   0  0  0  0  0  0  0  0  0  0  0  0
   -6.2946  -11.5275   20.8549 N   0  0  0  0  0  0  0  0  0  0  0  0
  2  1  1  6  0  0  0
  2  3  1  0  0  0  0
  2  5  1  0  0  0  0
  3  4  1  0  0  0  0
  3 17  1  0  0  0  0
  5  6  1  0  0  0  0
  7  6  1  6  0  0  0
  7  8  1  0  0  0  0
  7  9  1  0  0  0  0
 10  9  1  6  0  0  0
 10 11  1  0  0  0  0
 10 12  1  0  0  0  0
 11 16  1  0  0  0  0
 12 13  1  1  0  0  0
 12 14  1  0  0  0  0
 14 15  1  1  0  0  0
 14 16  1  0  0  0  0
 16 27  1  6  0  0  0
 18 19  2  0  0  0  0
 18 23  1  0  0  0  0
 19 20  1  0  0  0  0
 20 21  2  0  0  0  0
 21 22  1  0  0  0  0
 21 27  1  0  0  0  0
 22 23  2  0  0  0  0
 22 25  1  0  0  0  0
 23 24  1  0  0  0  0
 25 26  2  0  0  0  0
 26 27  1  0  0  0  0
M  END
>  <CHROM.1>
109.04068525,-174.40933592,71.43367727,-174.38470469,-109.10099856,-46.79152582
-161.64841303,-5.73368799,-10.36022709,19.71928184,0.68186042,-0.63401418
-0.63307794

>  <Name>
ligand

>  <RI>
0

>  <Rbt.Current_Directory>
/home/itssahil/PROJECTS/Mol_Feturizer/Test_systems_manuscript/rnas/4kqy

>  <Rbt.Executable>
rbdock ($Id: //depot/dev/client3/rdock/2013.1/src/exe/rbdock.cxx#4 $)

>  <Rbt.Library>
libRbt.so (2013.1, Build901 2013/11/27)

>  <Rbt.Parameter_File>
/export/apps/rDock/src/rDock_2013.1_src/data/scripts/dock_solv.prm

>  <Rbt.Receptor>
prm/pocket_docking_5.prm

>  <SCORE>
-22.8664

>  <SCORE.INTER>
-20.1669

>  <SCORE.INTER.CONST>
1

>  <SCORE.INTER.POLAR>
0

>  <SCORE.INTER.ROT>
7

>  <SCORE.INTER.SOLV>
11.3031

>  <SCORE.INTER.VDW>
-25.479

>  <SCORE.INTER.norm>
-0.746924

>  <SCORE.INTRA>
-2.69948

>  <SCORE.INTRA.DIHEDRAL>
-1.90525

>  <SCORE.INTRA.DIHEDRAL.0>
10.4103

>  <SCORE.INTRA.POLAR>
0

>  <SCORE.INTRA.POLAR.0>
0

>  <SCORE.INTRA.REPUL>
0

>  <SCORE.INTRA.REPUL.0>
0

>  <SCORE.INTRA.SOLV>
1.44518

>  <SCORE.INTRA.SOLV.lig_0>
-49.5008

>  <SCORE.INTRA.VDW>
-2.46945

>  <SCORE.INTRA.VDW.0>
-2.6946

>  <SCORE.INTRA.norm>
-0.0999809

>  <SCORE.RESTR>
0

>  <SCORE.RESTR.CAVITY>
0

>  <SCORE.RESTR.norm>
0

>  <SCORE.SYSTEM>
0

>  <SCORE.SYSTEM.CONST>
0

>  <SCORE.SYSTEM.DIHEDRAL>
0

>  <SCORE.SYSTEM.SOLV>
0

>  <SCORE.SYSTEM.norm>
0

>  <SCORE.heavy>
27

>  <SCORE.norm>
-0.846905

>  <RMSD>
5.241

$$$$
ligand
 OpenBabel02271912153D
libRbt.so/2013.1/901 2013/11/27
 27 29  0  0  0  0  0  0  0  0999 V2000
   -5.4402  -10.5130   16.7954 N   0  0  0  0  0  0  0  0  0  0  0  0
   -4.9038  -11.7195   17.3961 C   0  0  2  0  0  0  0  0  0  0  0  0
   -4.5898  -12.6700   16.2820 C   0  0  0  0  0  0  0  0  0  0  0  0
   -3.9144  -13.6932   16.5253 O   0  0  0  0  0  0  0  0  0  0  0  0
   -5.9251  -12.3408   18.3527 C   0  0  0  0  0  0  0  0  0  0  0  0
   -5.9043  -11.6449   19.7317 C   0  0  0  0  0  0  0  0  0  0  0  0
   -4.5397  -11.9300   20.6655 S   0  0  2  0  0  0  0  0  0  0  0  0
   -4.5218  -13.5203   21.1442 C   0  0  0  0  0  0  0  0  0  0  0  0
   -4.5408  -10.9031   22.0049 C   0  0  0  0  0  0  0  0  0  0  0  0
   -4.1956   -9.4360   21.6730 C   0  0  1  0  0  0  0  0  0  0  0  0
   -2.8520   -9.2654   21.1920 O   0  0  0  0  0  0  0  0  0  0  0  0
   -5.0155   -8.8623   20.5287 C   0  0  1  0  0  0  0  0  0  0  0  0
   -6.3875   -8.5156   20.8046 O   0  0  0  0  0  0  0  0  0  0  0  0
   -4.1560   -7.6861   20.1364 C   0  0  1  0  0  0  0  0  0  0  0  0
   -4.2448   -6.6643   21.1247 O   0  0  0  0  0  0  0  0  0  0  0  0
   -2.7757   -8.2726   20.1663 C   0  0  2  0  0  0  0  0  0  0  0  0
   -5.0360  -12.4395   15.1326 O   0  0  0  0  0  0  0  0  0  0  0  0
   -1.4803  -12.4043   17.0796 N   0  0  0  0  0  0  0  0  0  0  0  0
   -1.8192  -12.3921   18.3917 C   0  0  0  0  0  0  0  0  0  0  0  0
   -2.1190  -11.2627   19.0550 N   0  0  0  0  0  0  0  0  0  0  0  0
   -2.1225  -10.0689   18.4515 C   0  0  0  0  0  0  0  0  0  0  0  0
   -1.7886  -10.0189   17.0361 C   0  0  0  0  0  0  0  0  0  0  0  0
   -1.4420  -11.2668   16.3172 C   0  0  0  0  0  0  0  0  0  0  0  0
   -1.1121  -11.2815   14.9778 N   0  0  0  0  0  0  0  0  0  0  0  0
   -1.8780   -8.7540   16.6929 N   0  0  0  0  0  0  0  0  0  0  0  0
   -2.2152   -8.0340   17.7718 C   0  0  0  0  0  0  0  0  0  0  0  0
   -2.3698   -8.8209   18.8359 N   0  0  0  0  0  0  0  0  0  0  0  0
  2  1  1  6  0  0  0
  2  3  1  0  0  0  0
  2  5  1  0  0  0  0
  3  4  1  0  0  0  0
  3 17  1  0  0  0  0
  5  6  1  0  0  0  0
  7  6  1  1  0  0  0
  7  8  1  0  0  0  0
  7  9  1  0  0  0  0
 10  9  1  6  0  0  0
 10 11  1  0  0  0  0
 10 12  1  0  0  0  0
 11 16  1  0  0  0  0
 12 13  1  1  0  0  0
 12 14  1  0  0  0  0
 14 15  1  1  0  0  0
 14 16  1  0  0  0  0
 16 27  1  6  0  0  0
 18 19  2  0  0  0  0
 18 23  1  0  0  0  0
 19 20  1  0  0  0  0
 20 21  2  0  0  0  0
 21 22  1  0  0  0  0
 21 27  1  0  0  0  0
 22 23  2  0  0  0  0
 22 25  1  0  0  0  0
 23 24  1  0  0  0  0
 25 26  2  0  0  0  0
 26 27  1  0  0  0  0
M  END
>  <CHROM.1>
168.34544855,-81.56375823,-70.25095570,-68.13712878,-74.00017614,-65.01549742
2.85330727,-3.70328897,-10.60514215,18.80574898,1.20210114,-0.83898113,-2.42928842

>  <Name>
ligand

>  <RI>
0

>  <Rbt.Current_Directory>
/home/itssahil/PROJECTS/Mol_Feturizer/Test_systems_manuscript/rnas/4kqy

>  <Rbt.Executable>
rbdock ($Id: //depot/dev/client3/rdock/2013.1/src/exe/rbdock.cxx#4 $)

>  <Rbt.Library>
libRbt.so (2013.1, Build901 2013/11/27)

>  <Rbt.Parameter_File>
/export/apps/rDock/src/rDock_2013.1_src/data/scripts/dock_solv.prm

>  <Rbt.Receptor>
prm/pocket_docking_3.prm

>  <SCORE>
-17.1013

>  <SCORE.INTER>
-11.9438

>  <SCORE.INTER.CONST>
1

>  <SCORE.INTER.POLAR>
0

>  <SCORE.INTER.ROT>
7

>  <SCORE.INTER.SOLV>
6.78945

>  <SCORE.INTER.VDW>
-18.4923

>  <SCORE.INTER.norm>
-0.442362

>  <SCORE.INTRA>
-5.15754

>  <SCORE.INTRA.DIHEDRAL>
-4.71027

>  <SCORE.INTRA.DIHEDRAL.0>
10.4103

>  <SCORE.INTRA.POLAR>
0

>  <SCORE.INTRA.POLAR.0>
0

>  <SCORE.INTRA.REPUL>
0

>  <SCORE.INTRA.REPUL.0>
0

>  <SCORE.INTRA.SOLV>
1.6209

>  <SCORE.INTRA.SOLV.lig_0>
-49.5008

>  <SCORE.INTRA.VDW>
-3.61285

>  <SCORE.INTRA.VDW.0>
-2.6946

>  <SCORE.INTRA.norm>
-0.19102

>  <SCORE.RESTR>
0

>  <SCORE.RESTR.CAVITY>
0

>  <SCORE.RESTR.norm>
0

>  <SCORE.SYSTEM>
0

>  <SCORE.SYSTEM.CONST>
0

>  <SCORE.SYSTEM.DIHEDRAL>
0

>  <SCORE.SYSTEM.SOLV>
0

>  <SCORE.SYSTEM.norm>
0

>  <SCORE.heavy>
27

>  <SCORE.norm>
-0.633382

>  <RMSD>
5.242

$$$$
ligand
 OpenBabel02271912153D
libRbt.so/2013.1/901 2013/11/27
 27 29  0  0  0  0  0  0  0  0999 V2000
   -2.2552   -7.8420   17.0828 N   0  0  0  0  0  0  0  0  0  0  0  0
   -2.0412   -8.9716   17.9673 C   0  0  2  0  0  0  0  0  0  0  0  0
   -2.2888  -10.2149   17.1697 C   0  0  0  0  0  0  0  0  0  0  0  0
   -3.2939  -10.2743   16.4291 O   0  0  0  0  0  0  0  0  0  0  0  0
   -2.9986   -8.9061   19.1603 C   0  0  0  0  0  0  0  0  0  0  0  0
   -2.8668  -10.1548   20.0602 C   0  0  0  0  0  0  0  0  0  0  0  0
   -3.8503  -10.1743   21.4194 S   0  0  2  0  0  0  0  0  0  0  0  0
   -3.1726   -9.2273   22.6037 C   0  0  0  0  0  0  0  0  0  0  0  0
   -4.0428  -11.7612   21.9610 C   0  0  0  0  0  0  0  0  0  0  0  0
   -5.0839  -12.5757   21.1644 C   0  0  1  0  0  0  0  0  0  0  0  0
   -5.1911  -12.1676   19.7904 O   0  0  0  0  0  0  0  0  0  0  0  0
   -4.7302  -14.0480   21.0295 C   0  0  1  0  0  0  0  0  0  0  0  0
   -4.9117  -14.8826   22.1910 O   0  0  0  0  0  0  0  0  0  0  0  0
   -5.5999  -14.4341   19.8587 C   0  0  1  0  0  0  0  0  0  0  0  0
   -6.9664  -14.4785   20.2582 O   0  0  0  0  0  0  0  0  0  0  0  0
   -5.4052  -13.2808   18.9195 C   0  0  2  0  0  0  0  0  0  0  0  0
   -1.4679  -11.1610   17.2345 O   0  0  0  0  0  0  0  0  0  0  0  0
   -3.4097  -13.0894   13.9943 N   0  0  0  0  0  0  0  0  0  0  0  0
   -4.6362  -12.7162   14.4336 C   0  0  0  0  0  0  0  0  0  0  0  0
   -5.0136  -12.8276   15.7182 N   0  0  0  0  0  0  0  0  0  0  0  0
   -4.1876  -13.2991   16.6588 C   0  0  0  0  0  0  0  0  0  0  0  0
   -2.8476  -13.6960   16.2533 C   0  0  0  0  0  0  0  0  0  0  0  0
   -2.4461  -13.5865   14.8317 C   0  0  0  0  0  0  0  0  0  0  0  0
   -1.1925  -13.9518   14.3870 N   0  0  0  0  0  0  0  0  0  0  0  0
   -2.2486  -14.1019   17.3499 N   0  0  0  0  0  0  0  0  0  0  0  0
   -3.1068  -14.0056   18.3746 C   0  0  0  0  0  0  0  0  0  0  0  0
   -4.2775  -13.5170   17.9668 N   0  0  0  0  0  0  0  0  0  0  0  0
  2  1  1  6  0  0  0
  2  3  1  0  0  0  0
  2  5  1  0  0  0  0
  3  4  1  0  0  0  0
  3 17  1  0  0  0  0
  5  6  1  0  0  0  0
  7  6  1  6  0  0  0
  7  8  1  0  0  0  0
  7  9  1  0  0  0  0
 10  9  1  6  0  0  0
 10 11  1  0  0  0  0
 10 12  1  0  0  0  0
 11 16  1  0  0  0  0
 12 13  1  1  0  0  0
 12 14  1  0  0  0  0
 14 15  1  1  0  0  0
 14 16  1  0  0  0  0
 16 27  1  6  0  0  0
 18 19  2  0  0  0  0
 18 23  1  0  0  0  0
 19 20  1  0  0  0  0
 20 21  2  0  0  0  0
 21 22  1  0  0  0  0
 21 27  1  0  0  0  0
 22 23  2  0  0  0  0
 22 25  1  0  0  0  0
 23 24  1  0  0  0  0
 25 26  2  0  0  0  0
 26 27  1  0  0  0  0
M  END
>  <CHROM.1>
-45.12408363,175.58464897,178.79345047,-79.59186897,-79.66439454,30.16047770
-106.88630835,-3.71203287,-12.07836216,18.52734705,-1.03877600,1.05919671
0.95822661

>  <Name>
ligand

>  <RI>
0

>  <Rbt.Current_Directory>
/home/itssahil/PROJECTS/Mol_Feturizer/Test_systems_manuscript/rnas/4kqy

>  <Rbt.Executable>
rbdock ($Id: //depot/dev/client3/rdock/2013.1/src/exe/rbdock.cxx#4 $)

>  <Rbt.Library>
libRbt.so (2013.1, Build901 2013/11/27)

>  <Rbt.Parameter_File>
/export/apps/rDock/src/rDock_2013.1_src/data/scripts/dock_solv.prm

>  <Rbt.Receptor>
prm/pocket_docking_4.prm

>  <SCORE>
-16.9154

>  <SCORE.INTER>
-13.6927

>  <SCORE.INTER.CONST>
1

>  <SCORE.INTER.POLAR>
0

>  <SCORE.INTER.ROT>
7

>  <SCORE.INTER.SOLV>
15.1007

>  <SCORE.INTER.VDW>
-22.4287

>  <SCORE.INTER.norm>
-0.507135

>  <SCORE.INTRA>
-3.22276

>  <SCORE.INTRA.DIHEDRAL>
-2.61592

>  <SCORE.INTRA.DIHEDRAL.0>
10.4103

>  <SCORE.INTRA.POLAR>
0

>  <SCORE.INTRA.POLAR.0>
0

>  <SCORE.INTRA.REPUL>
0

>  <SCORE.INTRA.REPUL.0>
0

>  <SCORE.INTRA.SOLV>
-0.525457

>  <SCORE.INTRA.SOLV.lig_0>
-49.5008

>  <SCORE.INTRA.VDW>
-1.65207

>  <SCORE.INTRA.VDW.0>
-2.6946

>  <SCORE.INTRA.norm>
-0.119361

>  <SCORE.RESTR>
0

>  <SCORE.RESTR.CAVITY>
0

>  <SCORE.RESTR.norm>
0

>  <SCORE.SYSTEM>
0

>  <SCORE.SYSTEM.CONST>
0

>  <SCORE.SYSTEM.DIHEDRAL>
0

>  <SCORE.SYSTEM.SOLV>
0

>  <SCORE.SYSTEM.norm>
0

>  <SCORE.heavy>
27

>  <SCORE.norm>
-0.626497

>  <RMSD>
5.244

$$$$
ligand
 OpenBabel02271912153D
libRbt.so/2013.1/901 2013/11/27
 27 29  0  0  0  0  0  0  0  0999 V2000
   -0.7104  -13.5658   17.0433 N   0  0  0  0  0  0  0  0  0  0  0  0
   -0.6481  -12.2630   16.4083 C   0  0  2  0  0  0  0  0  0  0  0  0
    0.7969  -11.8790   16.3208 C   0  0  0  0  0  0  0  0  0  0  0  0
    1.4914  -11.8766   17.3600 O   0  0  0  0  0  0  0  0  0  0  0  0
   -1.4237  -11.2297   17.2297 C   0  0  0  0  0  0  0  0  0  0  0  0
   -1.4559   -9.8556   16.5245 C   0  0  0  0  0  0  0  0  0  0  0  0
   -2.6624   -8.8078   17.0360 S   0  0  2  0  0  0  0  0  0  0  0  0
   -2.5870   -7.4055   16.1491 C   0  0  0  0  0  0  0  0  0  0  0  0
   -2.4762   -8.4841   18.6820 C   0  0  0  0  0  0  0  0  0  0  0  0
   -3.7391   -7.9080   19.3565 C   0  0  1  0  0  0  0  0  0  0  0  0
   -4.9486   -8.5727   18.9551 O   0  0  0  0  0  0  0  0  0  0  0  0
   -3.7619   -8.0951   20.8649 C   0  0  1  0  0  0  0  0  0  0  0  0
   -2.9073   -7.2414   21.6520 O   0  0  0  0  0  0  0  0  0  0  0  0
   -5.2330   -7.9097   21.1433 C   0  0  1  0  0  0  0  0  0  0  0  0
   -5.5898   -6.5387   20.9952 O   0  0  0  0  0  0  0  0  0  0  0  0
   -5.8712   -8.7000   20.0396 C   0  0  2  0  0  0  0  0  0  0  0  0
    1.2920  -11.5974   15.2033 O   0  0  0  0  0  0  0  0  0  0  0  0
   -4.1121  -13.3550   21.9139 N   0  0  0  0  0  0  0  0  0  0  0  0
   -3.4247  -12.2073   21.6971 C   0  0  0  0  0  0  0  0  0  0  0  0
   -4.0002  -11.0963   21.2075 N   0  0  0  0  0  0  0  0  0  0  0  0
   -5.3056  -11.0450   20.9198 C   0  0  0  0  0  0  0  0  0  0  0  0
   -6.1029  -12.2398   21.1524 C   0  0  0  0  0  0  0  0  0  0  0  0
   -5.4566  -13.4657   21.6755 C   0  0  0  0  0  0  0  0  0  0  0  0
   -6.1591  -14.6292   21.9109 N   0  0  0  0  0  0  0  0  0  0  0  0
   -7.3301  -11.9224   20.8072 N   0  0  0  0  0  0  0  0  0  0  0  0
   -7.3446  -10.6557   20.3702 C   0  0  0  0  0  0  0  0  0  0  0  0
   -6.1276  -10.1175   20.4399 N   0  0  0  0  0  0  0  0  0  0  0  0
  2  1  1  1  0  0  0
  2  3  1  0  0  0  0
  2  5  1  0  0  0  0
  3  4  1  0  0  0  0
  3 17  1  0  0  0  0
  5  6  1  0  0  0  0
  7  6  1  6  0  0  0
  7  8  1  0  0  0  0
  7  9  1  0  0  0  0
 10  9  1  6  0  0  0
 10 11  1  0  0  0  0
 10 12  1  0  0  0  0
 11 16  1  0  0  0  0
 12 13  1  1  0  0  0
 12 14  1  0  0  0  0
 14 15  1  6  0  0  0
 14 16  1  0  0  0  0
 16 27  1  1  0  0  0
 18 19  2  0  0  0  0
 18 23  1  0  0  0  0
 19 20  1  0  0  0  0
 20 21  2  0  0  0  0
 21 22  1  0  0  0  0
 21 27  1  0  0  0  0
 22 23  2  0  0  0  0
 22 25  1  0  0  0  0
 23 24  1  0  0  0  0
 25 26  2  0  0  0  0
 26 27  1  0  0  0  0
M  END
>  <CHROM.1>
-54.54257038,-176.02941282,160.50475441,-178.19265734,-161.93298090,42.94326129
62.32584681,-3.43596040,-10.32530720,19.20934018,-0.06158498,-0.70278142
2.94713598

>  <Name>
ligand

>  <RI>
0

>  <Rbt.Current_Directory>
/home/itssahil/PROJECTS/Mol_Feturizer/Test_systems_manuscript/rnas/4kqy

>  <Rbt.Executable>
rbdock ($Id: //depot/dev/client3/rdock/2013.1/src/exe/rbdock.cxx#4 $)

>  <Rbt.Library>
libRbt.so (2013.1, Build901 2013/11/27)

>  <Rbt.Parameter_File>
/export/apps/rDock/src/rDock_2013.1_src/data/scripts/dock_solv.prm

>  <Rbt.Receptor>
prm/pocket_docking_5.prm

>  <SCORE>
-21.1961

>  <SCORE.INTER>
-18.4503

>  <SCORE.INTER.CONST>
1

>  <SCORE.INTER.POLAR>
0

>  <SCORE.INTER.ROT>
7

>  <SCORE.INTER.SOLV>
18.919

>  <SCORE.INTER.VDW>
-26.8732

>  <SCORE.INTER.norm>
-0.683344

>  <SCORE.INTRA>
-2.74578

>  <SCORE.INTRA.DIHEDRAL>
-4.40981

>  <SCORE.INTRA.DIHEDRAL.0>
10.4103

>  <SCORE.INTRA.POLAR>
0

>  <SCORE.INTRA.POLAR.0>
0

>  <SCORE.INTRA.REPUL>
0

>  <SCORE.INTRA.REPUL.0>
0

>  <SCORE.INTRA.SOLV>
-0.60102

>  <SCORE.INTRA.SOLV.lig_0>
-49.5008

>  <SCORE.INTRA.VDW>
-0.240367

>  <SCORE.INTRA.VDW.0>
-2.6946

>  <SCORE.INTRA.norm>
-0.101696

>  <SCORE.RESTR>
0

>  <SCORE.RESTR.CAVITY>
0

>  <SCORE.RESTR.norm>
0

>  <SCORE.SYSTEM>
0

>  <SCORE.SYSTEM.CONST>
0

>  <SCORE.SYSTEM.DIHEDRAL>
0

>  <SCORE.SYSTEM.SOLV>
0

>  <SCORE.SYSTEM.norm>
0

>  <SCORE.heavy>
27

>  <SCORE.norm>
-0.785039

>  <RMSD>
5.249

$$$$
ligand
 OpenBabel02271912153D
libRbt.so/2013.1/901 2013/11/27
 27 29  0  0  0  0  0  0  0  0999 V2000
   -0.6013  -12.7939   14.8148 N   0  0  0  0  0  0  0  0  0  0  0  0
   -0.3485  -11.8573   15.8932 C   0  0  2  0  0  0  0  0  0  0  0  0
    0.6353  -12.5013   16.8209 C   0  0  0  0  0  0  0  0  0  0  0  0
    1.4726  -11.7871   17.4134 O   0  0  0  0  0  0  0  0  0  0  0  0
   -1.6472  -11.5342   16.6369 C   0  0  0  0  0  0  0  0  0  0  0  0
   -1.5810  -10.1472   17.3138 C   0  0  0  0  0  0  0  0  0  0  0  0
   -2.9222   -9.7238   18.2289 S   0  0  2  0  0  0  0  0  0  0  0  0
   -4.2946  -10.3080   17.4982 C   0  0  0  0  0  0  0  0  0  0  0  0
   -2.9979   -8.0451   18.3863 C   0  0  0  0  0  0  0  0  0  0  0  0
   -4.0868   -7.5536   19.3633 C   0  0  1  0  0  0  0  0  0  0  0  0
   -5.3817   -8.1185   19.0987 O   0  0  0  0  0  0  0  0  0  0  0  0
   -3.8468   -7.9759   20.8038 C   0  0  1  0  0  0  0  0  0  0  0  0
   -2.8211   -7.2771   21.5376 O   0  0  0  0  0  0  0  0  0  0  0  0
   -5.2320   -7.8027   21.3762 C   0  0  1  0  0  0  0  0  0  0  0  0
   -5.5380   -6.4176   21.5056 O   0  0  0  0  0  0  0  0  0  0  0  0
   -6.0989   -8.3940   20.3042 C   0  0  2  0  0  0  0  0  0  0  0  0
    0.5817  -13.7399   17.0111 O   0  0  0  0  0  0  0  0  0  0  0  0
   -4.4521  -13.1560   22.0034 N   0  0  0  0  0  0  0  0  0  0  0  0
   -3.7906  -11.9732   22.0057 C   0  0  0  0  0  0  0  0  0  0  0  0
   -4.3306  -10.8370   21.5336 N   0  0  0  0  0  0  0  0  0  0  0  0
   -5.5755  -10.7960   21.0458 C   0  0  0  0  0  0  0  0  0  0  0  0
   -6.3458  -12.0304   21.0370 C   0  0  0  0  0  0  0  0  0  0  0  0
   -5.7361  -13.2821   21.5429 C   0  0  0  0  0  0  0  0  0  0  0  0
   -6.4147  -14.4830   21.5550 N   0  0  0  0  0  0  0  0  0  0  0  0
   -7.5163  -11.7169   20.5296 N   0  0  0  0  0  0  0  0  0  0  0  0
   -7.5179  -10.4146   20.2135 C   0  0  0  0  0  0  0  0  0  0  0  0
   -6.3521   -9.8505   20.5269 N   0  0  0  0  0  0  0  0  0  0  0  0
  2  1  1  6  0  0  0
  2  3  1  0  0  0  0
  2  5  1  0  0  0  0
  3  4  1  0  0  0  0
  3 17  1  0  0  0  0
  5  6  1  0  0  0  0
  7  6  1  6  0  0  0
  7  8  1  0  0  0  0
  7  9  1  0  0  0  0
 10  9  1  6  0  0  0
 10 11  1  0  0  0  0
 10 12  1  0  0  0  0
 11 16  1  0  0  0  0
 12 13  1  1  0  0  0
 12 14  1  0  0  0  0
 14 15  1  6  0  0  0
 14 16  1  0  0  0  0
 16 27  1  1  0  0  0
 18 19  2  0  0  0  0
 18 23  1  0  0  0  0
 19 20  1  0  0  0  0
 20 21  2  0  0  0  0
 21 22  1  0  0  0  0
 21 27  1  0  0  0  0
 22 23  2  0  0  0  0
 22 25  1  0  0  0  0
 23 24  1  0  0  0  0
 25 26  2  0  0  0  0
 26 27  1  0  0  0  0
M  END
>  <CHROM.1>
146.26375734,-154.20999361,-176.82091748,-36.16639835,-172.37311401,-51.00762594
82.84530238,-3.69830863,-10.45531972,19.38335082,0.30951652,-0.67154917,3.12901831

>  <Name>
ligand

>  <RI>
0

>  <Rbt.Current_Directory>
/home/itssahil/PROJECTS/Mol_Feturizer/Test_systems_manuscript/rnas/4kqy

>  <Rbt.Executable>
rbdock ($Id: //depot/dev/client3/rdock/2013.1/src/exe/rbdock.cxx#4 $)

>  <Rbt.Library>
libRbt.so (2013.1, Build901 2013/11/27)

>  <Rbt.Parameter_File>
/export/apps/rDock/src/rDock_2013.1_src/data/scripts/dock_solv.prm

>  <Rbt.Receptor>
prm/pocket_docking_8.prm

>  <SCORE>
-19.4144

>  <SCORE.INTER>
-17.7252

>  <SCORE.INTER.CONST>
1

>  <SCORE.INTER.POLAR>
0

>  <SCORE.INTER.ROT>
7

>  <SCORE.INTER.SOLV>
13.3046

>  <SCORE.INTER.VDW>
-24.5183

>  <SCORE.INTER.norm>
-0.656488

>  <SCORE.INTRA>
-1.68923

>  <SCORE.INTRA.DIHEDRAL>
-3.39544

>  <SCORE.INTRA.DIHEDRAL.0>
10.4103

>  <SCORE.INTRA.POLAR>
0

>  <SCORE.INTRA.POLAR.0>
0

>  <SCORE.INTRA.REPUL>
0

>  <SCORE.INTRA.REPUL.0>
0

>  <SCORE.INTRA.SOLV>
-0.339023

>  <SCORE.INTRA.SOLV.lig_0>
-49.5008

>  <SCORE.INTRA.VDW>
0.177998

>  <SCORE.INTRA.VDW.0>
-2.6946

>  <SCORE.INTRA.norm>
-0.0625643

>  <SCORE.RESTR>
0

>  <SCORE.RESTR.CAVITY>
0

>  <SCORE.RESTR.norm>
0

>  <SCORE.SYSTEM>
0

>  <SCORE.SYSTEM.CONST>
0

>  <SCORE.SYSTEM.DIHEDRAL>
0

>  <SCORE.SYSTEM.SOLV>
0

>  <SCORE.SYSTEM.norm>
0

>  <SCORE.heavy>
27

>  <SCORE.norm>
-0.719052

>  <RMSD>
5.254

$$$$
ligand
 OpenBabel02271912153D
libRbt.so/2013.1/901 2013/11/27
 27 29  0  0  0  0  0  0  0  0999 V2000
   -3.7626  -12.3940   17.1623 N   0  0  0  0  0  0  0  0  0  0  0  0
   -2.9163  -12.3286   15.9859 C   0  0  2  0  0  0  0  0  0  0  0  0
   -2.5975  -13.7368   15.5878 C   0  0  0  0  0  0  0  0  0  0  0  0
   -2.7194  -14.6514   16.4309 O   0  0  0  0  0  0  0  0  0  0  0  0
   -1.6291  -11.5593   16.2947 C   0  0  0  0  0  0  0  0  0  0  0  0
   -1.7973  -10.0466   16.0303 C   0  0  0  0  0  0  0  0  0  0  0  0
   -2.9222   -9.2635   16.9982 S   0  0  2  0  0  0  0  0  0  0  0  0
   -2.9929   -7.6594   16.5735 C   0  0  0  0  0  0  0  0  0  0  0  0
   -2.4935   -9.4331   18.6218 C   0  0  0  0  0  0  0  0  0  0  0  0
   -3.5282   -8.8534   19.6093 C   0  0  1  0  0  0  0  0  0  0  0  0
   -4.8879   -9.0772   19.2007 O   0  0  0  0  0  0  0  0  0  0  0  0
   -3.4977   -9.5129   20.9786 C   0  0  1  0  0  0  0  0  0  0  0  0
   -2.4092   -9.1652   21.8579 O   0  0  0  0  0  0  0  0  0  0  0  0
   -4.8561   -9.1196   21.5042 C   0  0  1  0  0  0  0  0  0  0  0  0
   -4.8724   -7.7325   21.8279 O   0  0  0  0  0  0  0  0  0  0  0  0
   -5.7404   -9.3517   20.3150 C   0  0  2  0  0  0  0  0  0  0  0  0
   -2.2447  -13.9778   14.4086 O   0  0  0  0  0  0  0  0  0  0  0  0
   -5.5103  -14.4541   21.7942 N   0  0  0  0  0  0  0  0  0  0  0  0
   -4.6607  -13.4405   22.0897 C   0  0  0  0  0  0  0  0  0  0  0  0
   -4.8380  -12.1877   21.6376 N   0  0  0  0  0  0  0  0  0  0  0  0
   -5.8861  -11.8530   20.8769 C   0  0  0  0  0  0  0  0  0  0  0  0
   -6.8470  -12.8936   20.5433 C   0  0  0  0  0  0  0  0  0  0  0  0
   -6.6340  -14.2759   21.0311 C   0  0  0  0  0  0  0  0  0  0  0  0
   -7.5069  -15.3045   20.7433 N   0  0  0  0  0  0  0  0  0  0  0  0
   -7.7683  -12.3075   19.8127 N   0  0  0  0  0  0  0  0  0  0  0  0
   -7.4436  -11.0165   19.6579 C   0  0  0  0  0  0  0  0  0  0  0  0
   -6.3118  -10.7331   20.3015 N   0  0  0  0  0  0  0  0  0  0  0  0
  2  1  1  1  0  0  0
  2  3  1  0  0  0  0
  2  5  1  0  0  0  0
  3  4  1  0  0  0  0
  3 17  1  0  0  0  0
  5  6  1  0  0  0  0
  7  6  1  6  0  0  0
  7  8  1  0  0  0  0
  7  9  1  0  0  0  0
 10  9  1  6  0  0  0
 10 11  1  0  0  0  0
 10 12  1  0  0  0  0
 11 16  1  0  0  0  0
 12 13  1  1  0  0  0
 12 14  1  0  0  0  0
 14 15  1  6  0  0  0
 14 16  1  0  0  0  0
 16 27  1  6  0  0  0
 18 19  2  0  0  0  0
 18 23  1  0  0  0  0
 19 20  1  0  0  0  0
 20 21  2  0  0  0  0
 21 22  1  0  0  0  0
 21 27  1  0  0  0  0
 22 23  2  0  0  0  0
 22 25  1  0  0  0  0
 23 24  1  0  0  0  0
 25 26  2  0  0  0  0
 26 27  1  0  0  0  0
M  END
>  <CHROM.1>
-20.22085607,-89.44245116,63.80451087,-179.26778469,-174.97046408,38.30913139
93.99102065,-4.28423013,-11.20092838,19.03100076,0.28371031,-0.92803287,-2.66376525

>  <Name>
ligand

>  <RI>
0

>  <Rbt.Current_Directory>
/home/itssahil/PROJECTS/Mol_Feturizer/Test_systems_manuscript/rnas/4kqy

>  <Rbt.Executable>
rbdock ($Id: //depot/dev/client3/rdock/2013.1/src/exe/rbdock.cxx#4 $)

>  <Rbt.Library>
libRbt.so (2013.1, Build901 2013/11/27)

>  <Rbt.Parameter_File>
/export/apps/rDock/src/rDock_2013.1_src/data/scripts/dock_solv.prm

>  <Rbt.Receptor>
prm/pocket_docking_2.prm

>  <SCORE>
-11.671

>  <SCORE.INTER>
-12.5297

>  <SCORE.INTER.CONST>
1

>  <SCORE.INTER.POLAR>
0

>  <SCORE.INTER.ROT>
7

>  <SCORE.INTER.SOLV>
12.2466

>  <SCORE.INTER.VDW>
-20.702

>  <SCORE.INTER.norm>
-0.464063

>  <SCORE.INTRA>
-0.782588

>  <SCORE.INTRA.DIHEDRAL>
-3.18935

>  <SCORE.INTRA.DIHEDRAL.0>
10.4103

>  <SCORE.INTRA.POLAR>
0

>  <SCORE.INTRA.POLAR.0>
0

>  <SCORE.INTRA.REPUL>
0

>  <SCORE.INTRA.REPUL.0>
0

>  <SCORE.INTRA.SOLV>
2.05597

>  <SCORE.INTRA.SOLV.lig_0>
-49.5008

>  <SCORE.INTRA.VDW>
-0.215898

>  <SCORE.INTRA.VDW.0>
-2.6946

>  <SCORE.INTRA.norm>
-0.0289847

>  <SCORE.RESTR>
1.64132

>  <SCORE.RESTR.CAVITY>
1.64132

>  <SCORE.RESTR.norm>
0.0607896

>  <SCORE.SYSTEM>
0

>  <SCORE.SYSTEM.CONST>
0

>  <SCORE.SYSTEM.DIHEDRAL>
0

>  <SCORE.SYSTEM.SOLV>
0

>  <SCORE.SYSTEM.norm>
0

>  <SCORE.heavy>
27

>  <SCORE.norm>
-0.432259

>  <RMSD>
5.256

$$$$
ligand
 OpenBabel02271912153D
libRbt.so/2013.1/901 2013/11/27
 27 29  0  0  0  0  0  0  0  0999 V2000
   -3.7863  -13.3902   15.3271 N   0  0  0  0  0  0  0  0  0  0  0  0
   -3.9154  -12.0942   15.9659 C   0  0  2  0  0  0  0  0  0  0  0  0
   -4.9040  -12.2438   17.0810 C   0  0  0  0  0  0  0  0  0  0  0  0
   -6.0708  -12.6060   16.8171 O   0  0  0  0  0  0  0  0  0  0  0  0
   -4.4032  -11.0480   14.9601 C   0  0  0  0  0  0  0  0  0  0  0  0
   -4.2166   -9.6132   15.5014 C   0  0  0  0  0  0  0  0  0  0  0  0
   -5.1097   -9.2346   16.8705 S   0  0  2  0  0  0  0  0  0  0  0  0
   -6.7183   -9.1355   16.4691 C   0  0  0  0  0  0  0  0  0  0  0  0
   -4.5654   -7.7751   17.5204 C   0  0  0  0  0  0  0  0  0  0  0  0
   -4.5938   -7.7241   19.0626 C   0  0  1  0  0  0  0  0  0  0  0  0
   -5.8785   -8.0539   19.6165 O   0  0  0  0  0  0  0  0  0  0  0  0
   -3.6919   -8.7551   19.7219 C   0  0  1  0  0  0  0  0  0  0  0  0
   -2.2725   -8.5032   19.7030 O   0  0  0  0  0  0  0  0  0  0  0  0
   -4.2862   -8.7949   21.1081 C   0  0  1  0  0  0  0  0  0  0  0  0
   -3.9610   -7.6012   21.8140 O   0  0  0  0  0  0  0  0  0  0  0  0
   -5.7595   -8.8067   20.8259 C   0  0  2  0  0  0  0  0  0  0  0  0
   -4.5360  -12.0340   18.2616 O   0  0  0  0  0  0  0  0  0  0  0  0
   -5.2817  -14.0247   21.7315 N   0  0  0  0  0  0  0  0  0  0  0  0
   -4.4311  -13.0206   22.0555 C   0  0  0  0  0  0  0  0  0  0  0  0
   -4.6769  -11.7341   21.7559 N   0  0  0  0  0  0  0  0  0  0  0  0
   -5.7976  -11.3560   21.1312 C   0  0  0  0  0  0  0  0  0  0  0  0
   -6.7619  -12.3864   20.7766 C   0  0  0  0  0  0  0  0  0  0  0  0
   -6.4745  -13.8043   21.0948 C   0  0  0  0  0  0  0  0  0  0  0  0
   -7.3472  -14.8248   20.7789 N   0  0  0  0  0  0  0  0  0  0  0  0
   -7.7592  -11.7575   20.1971 N   0  0  0  0  0  0  0  0  0  0  0  0
   -7.4787  -10.4479   20.1511 C   0  0  0  0  0  0  0  0  0  0  0  0
   -6.2991  -10.1967   20.7176 N   0  0  0  0  0  0  0  0  0  0  0  0
  2  1  1  6  0  0  0
  2  3  1  0  0  0  0
  2  5  1  0  0  0  0
  3  4  1  0  0  0  0
  3 17  1  0  0  0  0
  5  6  1  0  0  0  0
  7  6  1  6  0  0  0
  7  8  1  0  0  0  0
  7  9  1  0  0  0  0
 10  9  1  6  0  0  0
 10 11  1  0  0  0  0
 10 12  1  0  0  0  0
 11 16  1  0  0  0  0
 12 13  1  1  0  0  0
 12 14  1  0  0  0  0
 14 15  1  1  0  0  0
 14 16  1  0  0  0  0
 16 27  1  6  0  0  0
 18 19  2  0  0  0  0
 18 23  1  0  0  0  0
 19 20  1  0  0  0  0
 20 21  2  0  0  0  0
 21 22  1  0  0  0  0
 21 27  1  0  0  0  0
 22 23  2  0  0  0  0
 22 25  1  0  0  0  0
 23 24  1  0  0  0  0
 25 26  2  0  0  0  0
 26 27  1  0  0  0  0
M  END
>  <CHROM.1>
-60.22389776,-165.83613458,-63.84812091,-70.12722171,-143.95538790,-53.54485268
135.30298585,-5.18937788,-10.65028266,18.99804896,0.49262175,-1.27091790
-2.06792833

>  <Name>
ligand

>  <RI>
0

>  <Rbt.Current_Directory>
/home/itssahil/PROJECTS/Mol_Feturizer/Test_systems_manuscript/rnas/4kqy

>  <Rbt.Executable>
rbdock ($Id: //depot/dev/client3/rdock/2013.1/src/exe/rbdock.cxx#4 $)

>  <Rbt.Library>
libRbt.so (2013.1, Build901 2013/11/27)

>  <Rbt.Parameter_File>
/export/apps/rDock/src/rDock_2013.1_src/data/scripts/dock_solv.prm

>  <Rbt.Receptor>
prm/pocket_docking_3.prm

>  <SCORE>
-16.5842

>  <SCORE.INTER>
-12.3519

>  <SCORE.INTER.CONST>
1

>  <SCORE.INTER.POLAR>
0

>  <SCORE.INTER.ROT>
7

>  <SCORE.INTER.SOLV>
14.1416

>  <SCORE.INTER.VDW>
-21.2151

>  <SCORE.INTER.norm>
-0.457477

>  <SCORE.INTRA>
-4.23229

>  <SCORE.INTRA.DIHEDRAL>
-3.27269

>  <SCORE.INTRA.DIHEDRAL.0>
10.4103

>  <SCORE.INTRA.POLAR>
0

>  <SCORE.INTRA.POLAR.0>
0

>  <SCORE.INTRA.REPUL>
0

>  <SCORE.INTRA.REPUL.0>
0

>  <SCORE.INTRA.SOLV>
-0.309548

>  <SCORE.INTRA.SOLV.lig_0>
-49.5008

>  <SCORE.INTRA.VDW>
-2.44117

>  <SCORE.INTRA.VDW.0>
-2.6946

>  <SCORE.INTRA.norm>
-0.156751

>  <SCORE.RESTR>
0

>  <SCORE.RESTR.CAVITY>
0

>  <SCORE.RESTR.norm>
0

>  <SCORE.SYSTEM>
0

>  <SCORE.SYSTEM.CONST>
0

>  <SCORE.SYSTEM.DIHEDRAL>
0

>  <SCORE.SYSTEM.SOLV>
0

>  <SCORE.SYSTEM.norm>
0

>  <SCORE.heavy>
27

>  <SCORE.norm>
-0.614229

>  <RMSD>
5.256

$$$$
ligand
 OpenBabel02271912153D
libRbt.so/2013.1/901 2013/11/27
 27 29  0  0  0  0  0  0  0  0999 V2000
   -0.8527  -11.2297   14.8654 N   0  0  0  0  0  0  0  0  0  0  0  0
   -0.2656  -11.8051   16.0605 C   0  0  2  0  0  0  0  0  0  0  0  0
   -0.1574  -13.2821   15.8369 C   0  0  0  0  0  0  0  0  0  0  0  0
   -1.1875  -13.9866   15.9063 O   0  0  0  0  0  0  0  0  0  0  0  0
   -1.1437  -11.5155   17.2809 C   0  0  0  0  0  0  0  0  0  0  0  0
   -1.4996  -10.0153   17.3780 C   0  0  0  0  0  0  0  0  0  0  0  0
   -2.6971   -9.6261   18.4869 S   0  0  2  0  0  0  0  0  0  0  0  0
   -4.0181  -10.6014   18.2366 C   0  0  0  0  0  0  0  0  0  0  0  0
   -3.1168   -7.9993   18.3252 C   0  0  0  0  0  0  0  0  0  0  0  0
   -4.2497   -7.5452   19.2696 C   0  0  1  0  0  0  0  0  0  0  0  0
   -5.5041   -8.1938   19.0019 O   0  0  0  0  0  0  0  0  0  0  0  0
   -4.0104   -7.9099   20.7258 C   0  0  1  0  0  0  0  0  0  0  0  0
   -3.0408   -7.1300   21.4540 O   0  0  0  0  0  0  0  0  0  0  0  0
   -5.4131   -7.8030   21.2708 C   0  0  1  0  0  0  0  0  0  0  0  0
   -5.8028   -6.4354   21.3533 O   0  0  0  0  0  0  0  0  0  0  0  0
   -6.2247   -8.4761   20.2038 C   0  0  2  0  0  0  0  0  0  0  0  0
    0.9577  -13.7812   15.5530 O   0  0  0  0  0  0  0  0  0  0  0  0
   -4.4082  -13.0400   22.2403 N   0  0  0  0  0  0  0  0  0  0  0  0
   -3.8329  -11.8130   22.2480 C   0  0  0  0  0  0  0  0  0  0  0  0
   -4.4066  -10.7372   21.6833 N   0  0  0  0  0  0  0  0  0  0  0  0
   -5.6036  -10.8048   21.0899 C   0  0  0  0  0  0  0  0  0  0  0  0
   -6.2829  -12.0914   21.0687 C   0  0  0  0  0  0  0  0  0  0  0  0
   -5.6350  -13.2759   21.6780 C   0  0  0  0  0  0  0  0  0  0  0  0
   -6.2272  -14.5217   21.6840 N   0  0  0  0  0  0  0  0  0  0  0  0
   -7.4231  -11.8827   20.4505 N   0  0  0  0  0  0  0  0  0  0  0  0
   -7.4870  -10.5964   20.0797 C   0  0  0  0  0  0  0  0  0  0  0  0
   -6.3951   -9.9380   20.4666 N   0  0  0  0  0  0  0  0  0  0  0  0
  2  1  1  6  0  0  0
  2  3  1  0  0  0  0
  2  5  1  0  0  0  0
  3  4  1  0  0  0  0
  3 17  1  0  0  0  0
  5  6  1  0  0  0  0
  7  6  1  6  0  0  0
  7  8  1  0  0  0  0
  7  9  1  0  0  0  0
 10  9  1  6  0  0  0
 10 11  1  0  0  0  0
 10 12  1  0  0  0  0
 11 16  1  0  0  0  0
 12 13  1  1  0  0  0
 12 14  1  0  0  0  0
 14 15  1  6  0  0  0
 14 16  1  0  0  0  0
 16 27  1  1  0  0  0
 18 19  2  0  0  0  0
 18 23  1  0  0  0  0
 19 20  1  0  0  0  0
 20 21  2  0  0  0  0
 21 22  1  0  0  0  0
 21 27  1  0  0  0  0
 22 23  2  0  0  0  0
 22 25  1  0  0  0  0
 23 24  1  0  0  0  0
 25 26  2  0  0  0  0
 26 27  1  0  0  0  0
M  END
>  <CHROM.1>
-75.45493655,-50.50562311,168.28834131,-50.65877966,178.01414578,-64.55113883
86.95951370,-3.81147994,-10.51294908,19.30892186,-0.37313378,0.76639859,-0.00444302

>  <Name>
ligand

>  <RI>
0

>  <Rbt.Current_Directory>
/home/itssahil/PROJECTS/Mol_Feturizer/Test_systems_manuscript/rnas/4kqy

>  <Rbt.Executable>
rbdock ($Id: //depot/dev/client3/rdock/2013.1/src/exe/rbdock.cxx#4 $)

>  <Rbt.Library>
libRbt.so (2013.1, Build901 2013/11/27)

>  <Rbt.Parameter_File>
/export/apps/rDock/src/rDock_2013.1_src/data/scripts/dock_solv.prm

>  <Rbt.Receptor>
prm/pocket_docking_6.prm

>  <SCORE>
-19.7042

>  <SCORE.INTER>
-17.2175

>  <SCORE.INTER.CONST>
1

>  <SCORE.INTER.POLAR>
0

>  <SCORE.INTER.ROT>
7

>  <SCORE.INTER.SOLV>
14.0501

>  <SCORE.INTER.VDW>
-24.4283

>  <SCORE.INTER.norm>
-0.637684

>  <SCORE.INTRA>
-2.48674

>  <SCORE.INTRA.DIHEDRAL>
-6.54139

>  <SCORE.INTRA.DIHEDRAL.0>
10.4103

>  <SCORE.INTRA.POLAR>
0

>  <SCORE.INTRA.POLAR.0>
0

>  <SCORE.INTRA.REPUL>
0

>  <SCORE.INTRA.REPUL.0>
0

>  <SCORE.INTRA.SOLV>
0.659312

>  <SCORE.INTRA.SOLV.lig_0>
-49.5008

>  <SCORE.INTRA.VDW>
0.454298

>  <SCORE.INTRA.VDW.0>
-2.6946

>  <SCORE.INTRA.norm>
-0.0921015

>  <SCORE.RESTR>
0

>  <SCORE.RESTR.CAVITY>
0

>  <SCORE.RESTR.norm>
0

>  <SCORE.SYSTEM>
0

>  <SCORE.SYSTEM.CONST>
0

>  <SCORE.SYSTEM.DIHEDRAL>
0

>  <SCORE.SYSTEM.SOLV>
0

>  <SCORE.SYSTEM.norm>
0

>  <SCORE.heavy>
27

>  <SCORE.norm>
-0.729786

>  <RMSD>
5.257

$$$$
ligand
 OpenBabel02271912153D
libRbt.so/2013.1/901 2013/11/27
 27 29  0  0  0  0  0  0  0  0999 V2000
   -3.8813  -12.6845   17.3348 N   0  0  0  0  0  0  0  0  0  0  0  0
   -4.8361  -11.8509   16.6295 C   0  0  2  0  0  0  0  0  0  0  0  0
   -5.6923  -12.7580   15.8004 C   0  0  0  0  0  0  0  0  0  0  0  0
   -6.8176  -12.3621   15.4274 O   0  0  0  0  0  0  0  0  0  0  0  0
   -4.1088  -10.8430   15.7355 C   0  0  0  0  0  0  0  0  0  0  0  0
   -3.7060   -9.5764   16.5229 C   0  0  0  0  0  0  0  0  0  0  0  0
   -4.9787   -8.6579   17.1161 S   0  0  2  0  0  0  0  0  0  0  0  0
   -5.9097   -8.1228   15.8489 C   0  0  0  0  0  0  0  0  0  0  0  0
   -4.3762   -7.3563   18.0057 C   0  0  0  0  0  0  0  0  0  0  0  0
   -4.1693   -7.6609   19.5044 C   0  0  1  0  0  0  0  0  0  0  0  0
   -5.4011   -7.8692   20.2151 O   0  0  0  0  0  0  0  0  0  0  0  0
   -3.4311   -8.9642   19.7638 C   0  0  1  0  0  0  0  0  0  0  0  0
   -2.0090   -8.9794   19.5267 O   0  0  0  0  0  0  0  0  0  0  0  0
   -3.8127   -9.2156   21.2016 C   0  0  1  0  0  0  0  0  0  0  0  0
   -3.1340   -8.2992   22.0552 O   0  0  0  0  0  0  0  0  0  0  0  0
   -5.2773   -8.8913   21.2069 C   0  0  2  0  0  0  0  0  0  0  0  0
   -5.2531  -13.8852   15.4689 O   0  0  0  0  0  0  0  0  0  0  0  0
   -5.8983  -14.1720   21.1417 N   0  0  0  0  0  0  0  0  0  0  0  0
   -4.8217  -13.4438   21.5252 C   0  0  0  0  0  0  0  0  0  0  0  0
   -4.7992  -12.1010   21.4825 N   0  0  0  0  0  0  0  0  0  0  0  0
   -5.8560  -11.3895   21.0744 C   0  0  0  0  0  0  0  0  0  0  0  0
   -7.0515  -12.1141   20.6705 C   0  0  0  0  0  0  0  0  0  0  0  0
   -7.0611  -13.5949   20.7039 C   0  0  0  0  0  0  0  0  0  0  0  0
   -8.1622  -14.3361   20.3282 N   0  0  0  0  0  0  0  0  0  0  0  0
   -7.9287  -11.1957   20.3343 N   0  0  0  0  0  0  0  0  0  0  0  0
   -7.3687   -9.9868   20.4786 C   0  0  0  0  0  0  0  0  0  0  0  0
   -6.1197  -10.0949   20.9300 N   0  0  0  0  0  0  0  0  0  0  0  0
  2  1  1  6  0  0  0
  2  3  1  0  0  0  0
  2  5  1  0  0  0  0
  3  4  1  0  0  0  0
  3 17  1  0  0  0  0
  5  6  1  0  0  0  0
  7  6  1  6  0  0  0
  7  8  1  0  0  0  0
  7  9  1  0  0  0  0
 10  9  1  6  0  0  0
 10 11  1  0  0  0  0
 10 12  1  0  0  0  0
 11 16  1  0  0  0  0
 12 13  1  1  0  0  0
 12 14  1  0  0  0  0
 14 15  1  1  0  0  0
 14 16  1  0  0  0  0
 16 27  1  6  0  0  0
 18 19  2  0  0  0  0
 18 23  1  0  0  0  0
 19 20  1  0  0  0  0
 20 21  2  0  0  0  0
 21 22  1  0  0  0  0
 21 27  1  0  0  0  0
 22 23  2  0  0  0  0
 22 25  1  0  0  0  0
 23 24  1  0  0  0  0
 25 26  2  0  0  0  0
 26 27  1  0  0  0  0
M  END
>  <CHROM.1>
158.37705986,-84.98464558,-64.29549062,-60.89237728,-89.73016408,-67.76527661
139.56807389,-5.20392603,-10.61286973,18.96095140,-2.98064020,1.13481702
1.39644253

>  <Name>
ligand

>  <RI>
0

>  <Rbt.Current_Directory>
/home/itssahil/PROJECTS/Mol_Feturizer/Test_systems_manuscript/rnas/4kqy

>  <Rbt.Executable>
rbdock ($Id: //depot/dev/client3/rdock/2013.1/src/exe/rbdock.cxx#4 $)

>  <Rbt.Library>
libRbt.so (2013.1, Build901 2013/11/27)

>  <Rbt.Parameter_File>
/export/apps/rDock/src/rDock_2013.1_src/data/scripts/dock_solv.prm

>  <Rbt.Receptor>
prm/pocket_docking_4.prm

>  <SCORE>
-13.2895

>  <SCORE.INTER>
-11.5771

>  <SCORE.INTER.CONST>
1

>  <SCORE.INTER.POLAR>
0

>  <SCORE.INTER.ROT>
7

>  <SCORE.INTER.SOLV>
12.5359

>  <SCORE.INTER.VDW>
-20.1634

>  <SCORE.INTER.norm>
-0.428782

>  <SCORE.INTRA>
-1.71239

>  <SCORE.INTRA.DIHEDRAL>
-2.94736

>  <SCORE.INTRA.DIHEDRAL.0>
10.4103

>  <SCORE.INTRA.POLAR>
0

>  <SCORE.INTRA.POLAR.0>
0

>  <SCORE.INTRA.REPUL>
0

>  <SCORE.INTRA.REPUL.0>
0

>  <SCORE.INTRA.SOLV>
0.656875

>  <SCORE.INTRA.SOLV.lig_0>
-49.5008

>  <SCORE.INTRA.VDW>
-0.567144

>  <SCORE.INTRA.VDW.0>
-2.6946

>  <SCORE.INTRA.norm>
-0.0634217

>  <SCORE.RESTR>
0

>  <SCORE.RESTR.CAVITY>
0

>  <SCORE.RESTR.norm>
0

>  <SCORE.SYSTEM>
0

>  <SCORE.SYSTEM.CONST>
0

>  <SCORE.SYSTEM.DIHEDRAL>
0

>  <SCORE.SYSTEM.SOLV>
0

>  <SCORE.SYSTEM.norm>
0

>  <SCORE.heavy>
27

>  <SCORE.norm>
-0.492204

>  <RMSD>
5.261

$$$$
ligand
 OpenBabel02271912153D
libRbt.so/2013.1/901 2013/11/27
 27 29  0  0  0  0  0  0  0  0999 V2000
   -3.9334  -11.9285   16.2580 N   0  0  0  0  0  0  0  0  0  0  0  0
   -2.5613  -12.3900   16.1661 C   0  0  2  0  0  0  0  0  0  0  0  0
   -2.5803  -13.8788   16.3282 C   0  0  0  0  0  0  0  0  0  0  0  0
   -2.8385  -14.3671   17.4494 O   0  0  0  0  0  0  0  0  0  0  0  0
   -1.7060  -11.7472   17.2613 C   0  0  0  0  0  0  0  0  0  0  0  0
   -1.6128  -10.2159   17.0801 C   0  0  0  0  0  0  0  0  0  0  0  0
   -3.0472   -9.3730   17.2972 S   0  0  2  0  0  0  0  0  0  0  0  0
   -3.5147   -8.6994   15.8528 C   0  0  0  0  0  0  0  0  0  0  0  0
   -2.8349   -8.1796   18.4717 C   0  0  0  0  0  0  0  0  0  0  0  0
   -4.1480   -7.6998   19.1253 C   0  0  1  0  0  0  0  0  0  0  0  0
   -5.2826   -8.5110   18.7783 O   0  0  0  0  0  0  0  0  0  0  0  0
   -4.1430   -7.7968   20.6424 C   0  0  1  0  0  0  0  0  0  0  0  0
   -3.3792   -6.8120   21.3673 O   0  0  0  0  0  0  0  0  0  0  0  0
   -5.6240   -7.7506   20.9264 C   0  0  1  0  0  0  0  0  0  0  0  0
   -6.1244   -6.4362   20.7011 O   0  0  0  0  0  0  0  0  0  0  0  0
   -6.1809   -8.6689   19.8791 C   0  0  2  0  0  0  0  0  0  0  0  0
   -2.3685  -14.6090   15.3306 O   0  0  0  0  0  0  0  0  0  0  0  0
   -8.4994  -13.4513   19.7072 N   0  0  0  0  0  0  0  0  0  0  0  0
   -8.7794  -12.3403   18.9834 C   0  0  0  0  0  0  0  0  0  0  0  0
   -8.1111  -11.1848   19.1367 N   0  0  0  0  0  0  0  0  0  0  0  0
   -7.1029  -11.0620   20.0072 C   0  0  0  0  0  0  0  0  0  0  0  0
   -6.7393  -12.2276   20.7988 C   0  0  0  0  0  0  0  0  0  0  0  0
   -7.4932  -13.4922   20.6360 C   0  0  0  0  0  0  0  0  0  0  0  0
   -7.1983  -14.6277   21.3616 N   0  0  0  0  0  0  0  0  0  0  0  0
   -5.7300  -11.8483   21.5494 N   0  0  0  0  0  0  0  0  0  0  0  0
   -5.4633  -10.5590   21.2994 C   0  0  0  0  0  0  0  0  0  0  0  0
   -6.2840  -10.0786   20.3660 N   0  0  0  0  0  0  0  0  0  0  0  0
  2  1  1  1  0  0  0
  2  3  1  0  0  0  0
  2  5  1  0  0  0  0
  3  4  1  0  0  0  0
  3 17  1  0  0  0  0
  5  6  1  0  0  0  0
  7  6  1  6  0  0  0
  7  8  1  0  0  0  0
  7  9  1  0  0  0  0
 10  9  1  6  0  0  0
 10 11  1  0  0  0  0
 10 12  1  0  0  0  0
 11 16  1  0  0  0  0
 12 13  1  1  0  0  0
 12 14  1  0  0  0  0
 14 15  1  6  0  0  0
 14 16  1  0  0  0  0
 16 27  1  1  0  0  0
 18 19  2  0  0  0  0
 18 23  1  0  0  0  0
 19 20  1  0  0  0  0
 20 21  2  0  0  0  0
 21 22  1  0  0  0  0
 21 27  1  0  0  0  0
 22 23  2  0  0  0  0
 22 25  1  0  0  0  0
 23 24  1  0  0  0  0
 25 26  2  0  0  0  0
 26 27  1  0  0  0  0
M  END
>  <CHROM.1>
-70.87902711,-64.25072747,66.71669061,-113.83576685,-158.68928767,9.87170414
-90.09684046,-4.78228427,-10.63171535,18.87203190,-0.83063697,0.67549598
0.33832535

>  <Name>
ligand

>  <RI>
0

>  <Rbt.Current_Directory>
/home/itssahil/PROJECTS/Mol_Feturizer/Test_systems_manuscript/rnas/4kqy

>  <Rbt.Executable>
rbdock ($Id: //depot/dev/client3/rdock/2013.1/src/exe/rbdock.cxx#4 $)

>  <Rbt.Library>
libRbt.so (2013.1, Build901 2013/11/27)

>  <Rbt.Parameter_File>
/export/apps/rDock/src/rDock_2013.1_src/data/scripts/dock_solv.prm

>  <Rbt.Receptor>
prm/pocket_docking_4.prm

>  <SCORE>
-10.0225

>  <SCORE.INTER>
-14.0625

>  <SCORE.INTER.CONST>
1

>  <SCORE.INTER.POLAR>
0

>  <SCORE.INTER.ROT>
7

>  <SCORE.INTER.SOLV>
13.2121

>  <SCORE.INTER.VDW>
-22.0457

>  <SCORE.INTER.norm>
-0.520835

>  <SCORE.INTRA>
4.0392

>  <SCORE.INTRA.DIHEDRAL>
3.28726

>  <SCORE.INTRA.DIHEDRAL.0>
10.4103

>  <SCORE.INTRA.POLAR>
0

>  <SCORE.INTRA.POLAR.0>
0

>  <SCORE.INTRA.REPUL>
0

>  <SCORE.INTRA.REPUL.0>
0

>  <SCORE.INTRA.SOLV>
2.52237

>  <SCORE.INTRA.SOLV.lig_0>
-49.5008

>  <SCORE.INTRA.VDW>
1.13439

>  <SCORE.INTRA.VDW.0>
-2.6946

>  <SCORE.INTRA.norm>
0.1496

>  <SCORE.RESTR>
0.000790159

>  <SCORE.RESTR.CAVITY>
0.000790159

>  <SCORE.RESTR.norm>
2.92651e-05

>  <SCORE.SYSTEM>
0

>  <SCORE.SYSTEM.CONST>
0

>  <SCORE.SYSTEM.DIHEDRAL>
0

>  <SCORE.SYSTEM.SOLV>
0

>  <SCORE.SYSTEM.norm>
0

>  <SCORE.heavy>
27

>  <SCORE.norm>
-0.371206

>  <RMSD>
5.268

$$$$
ligand
 OpenBabel02271912153D
libRbt.so/2013.1/901 2013/11/27
 27 29  0  0  0  0  0  0  0  0999 V2000
   -0.9078  -12.5468   15.4787 N   0  0  0  0  0  0  0  0  0  0  0  0
   -0.5452  -11.2773   14.8777 C   0  0  2  0  0  0  0  0  0  0  0  0
    0.9473  -11.2530   14.7548 C   0  0  0  0  0  0  0  0  0  0  0  0
    1.6349  -11.9472   15.5343 O   0  0  0  0  0  0  0  0  0  0  0  0
   -1.0254  -10.1151   15.7511 C   0  0  0  0  0  0  0  0  0  0  0  0
   -2.5636   -9.9769   15.7123 C   0  0  0  0  0  0  0  0  0  0  0  0
   -3.1866   -8.6123   16.4641 S   0  0  2  0  0  0  0  0  0  0  0  0
   -2.4541   -7.2576   15.8421 C   0  0  0  0  0  0  0  0  0  0  0  0
   -2.9363   -8.7149   18.1300 C   0  0  0  0  0  0  0  0  0  0  0  0
   -4.0420   -8.0470   18.9744 C   0  0  1  0  0  0  0  0  0  0  0  0
   -5.3600   -8.5304   18.6658 O   0  0  0  0  0  0  0  0  0  0  0  0
   -3.9363   -8.3463   20.4611 C   0  0  1  0  0  0  0  0  0  0  0  0
   -2.9059   -7.6636   21.2033 O   0  0  0  0  0  0  0  0  0  0  0  0
   -5.3367   -8.0097   20.9102 C   0  0  1  0  0  0  0  0  0  0  0  0
   -5.5307   -6.5987   20.8907 O   0  0  0  0  0  0  0  0  0  0  0  0
   -6.1774   -8.6309   19.8343 C   0  0  2  0  0  0  0  0  0  0  0  0
    1.4791  -10.5622   13.8531 O   0  0  0  0  0  0  0  0  0  0  0  0
   -9.2848  -12.8697   19.0266 N   0  0  0  0  0  0  0  0  0  0  0  0
   -9.3022  -11.6670   18.4022 C   0  0  0  0  0  0  0  0  0  0  0  0
   -8.4547  -10.6726   18.7154 N   0  0  0  0  0  0  0  0  0  0  0  0
   -7.5166  -10.8147   19.6584 C   0  0  0  0  0  0  0  0  0  0  0  0
   -7.4325  -12.0922   20.3500 C   0  0  0  0  0  0  0  0  0  0  0  0
   -8.3826  -13.1768   20.0107 C   0  0  0  0  0  0  0  0  0  0  0  0
   -8.3551  -14.4064   20.6354 N   0  0  0  0  0  0  0  0  0  0  0  0
   -6.4379  -11.9729   21.2000 N   0  0  0  0  0  0  0  0  0  0  0  0
   -5.9270  -10.7380   21.1000 C   0  0  0  0  0  0  0  0  0  0  0  0
   -6.5690  -10.0346   20.1681 N   0  0  0  0  0  0  0  0  0  0  0  0
  2  1  1  1  0  0  0
  2  3  1  0  0  0  0
  2  5  1  0  0  0  0
  3  4  1  0  0  0  0
  3 17  1  0  0  0  0
  5  6  1  0  0  0  0
  7  6  1  6  0  0  0
  7  8  1  0  0  0  0
  7  9  1  0  0  0  0
 10  9  1  6  0  0  0
 10 11  1  0  0  0  0
 10 12  1  0  0  0  0
 11 16  1  0  0  0  0
 12 13  1  1  0  0  0
 12 14  1  0  0  0  0
 14 15  1  6  0  0  0
 14 16  1  0  0  0  0
 16 27  1  1  0  0  0
 18 19  2  0  0  0  0
 18 23  1  0  0  0  0
 19 20  1  0  0  0  0
 20 21  2  0  0  0  0
 21 22  1  0  0  0  0
 21 27  1  0  0  0  0
 22 23  2  0  0  0  0
 22 25  1  0  0  0  0
 23 24  1  0  0  0  0
 25 26  2  0  0  0  0
 26 27  1  0  0  0  0
M  END
>  <CHROM.1>
-25.53161489,-70.70320033,-172.04336448,54.03586293,-147.57278647,54.45223582
-79.69811051,-4.28959969,-10.10362418,18.25943904,0.16531615,-0.56544342
-2.68914587

>  <Name>
ligand

>  <RI>
0

>  <Rbt.Current_Directory>
/home/itssahil/PROJECTS/Mol_Feturizer/Test_systems_manuscript/rnas/4kqy

>  <Rbt.Executable>
rbdock ($Id: //depot/dev/client3/rdock/2013.1/src/exe/rbdock.cxx#4 $)

>  <Rbt.Library>
libRbt.so (2013.1, Build901 2013/11/27)

>  <Rbt.Parameter_File>
/export/apps/rDock/src/rDock_2013.1_src/data/scripts/dock_solv.prm

>  <Rbt.Receptor>
prm/pocket_docking_6.prm

>  <SCORE>
-14.0534

>  <SCORE.INTER>
-13.5136

>  <SCORE.INTER.CONST>
1

>  <SCORE.INTER.POLAR>
0

>  <SCORE.INTER.ROT>
7

>  <SCORE.INTER.SOLV>
11.5577

>  <SCORE.INTER.VDW>
-21.1283

>  <SCORE.INTER.norm>
-0.500505

>  <SCORE.INTRA>
-0.539769

>  <SCORE.INTRA.DIHEDRAL>
-4.10561

>  <SCORE.INTRA.DIHEDRAL.0>
10.4103

>  <SCORE.INTRA.POLAR>
0

>  <SCORE.INTRA.POLAR.0>
0

>  <SCORE.INTRA.REPUL>
0

>  <SCORE.INTRA.REPUL.0>
0

>  <SCORE.INTRA.SOLV>
-0.0717895

>  <SCORE.INTRA.SOLV.lig_0>
-49.5008

>  <SCORE.INTRA.VDW>
1.54893

>  <SCORE.INTRA.VDW.0>
-2.6946

>  <SCORE.INTRA.norm>
-0.0199914

>  <SCORE.RESTR>
0

>  <SCORE.RESTR.CAVITY>
0

>  <SCORE.RESTR.norm>
0

>  <SCORE.SYSTEM>
0

>  <SCORE.SYSTEM.CONST>
0

>  <SCORE.SYSTEM.DIHEDRAL>
0

>  <SCORE.SYSTEM.SOLV>
0

>  <SCORE.SYSTEM.norm>
0

>  <SCORE.heavy>
27

>  <SCORE.norm>
-0.520497

>  <RMSD>
5.268

$$$$
ligand
 OpenBabel02271912153D
libRbt.so/2013.1/901 2013/11/27
 27 29  0  0  0  0  0  0  0  0999 V2000
   -3.0348  -11.9072   16.0346 N   0  0  0  0  0  0  0  0  0  0  0  0
   -1.6217  -12.1088   15.7763 C   0  0  2  0  0  0  0  0  0  0  0  0
   -1.0821  -12.9548   16.8882 C   0  0  0  0  0  0  0  0  0  0  0  0
   -1.7396  -13.0645   17.9455 O   0  0  0  0  0  0  0  0  0  0  0  0
   -0.8895  -10.7651   15.7276 C   0  0  0  0  0  0  0  0  0  0  0  0
   -1.0120  -10.0056   17.0673 C   0  0  0  0  0  0  0  0  0  0  0  0
   -2.4545   -9.1815   17.3026 S   0  0  2  0  0  0  0  0  0  0  0  0
   -2.5537   -7.9244   16.2216 C   0  0  0  0  0  0  0  0  0  0  0  0
   -2.5333   -8.6121   18.8895 C   0  0  0  0  0  0  0  0  0  0  0  0
   -3.8661   -7.9191   19.2435 C   0  0  1  0  0  0  0  0  0  0  0  0
   -5.0094   -8.5508   18.6439 O   0  0  0  0  0  0  0  0  0  0  0  0
   -4.2102   -7.9826   20.7228 C   0  0  1  0  0  0  0  0  0  0  0  0
   -3.4798   -7.1134   21.6115 O   0  0  0  0  0  0  0  0  0  0  0  0
   -5.6914   -7.6998   20.6736 C   0  0  1  0  0  0  0  0  0  0  0  0
   -5.9172   -6.3286   20.3609 O   0  0  0  0  0  0  0  0  0  0  0  0
   -6.1412   -8.5426   19.5171 C   0  0  2  0  0  0  0  0  0  0  0  0
    0.0032  -13.5628   16.7276 O   0  0  0  0  0  0  0  0  0  0  0  0
   -9.3083  -12.7779   18.9626 N   0  0  0  0  0  0  0  0  0  0  0  0
   -9.2856  -11.6291   18.2441 C   0  0  0  0  0  0  0  0  0  0  0  0
   -8.4274  -10.6276   18.5008 N   0  0  0  0  0  0  0  0  0  0  0  0
   -7.5177  -10.7099   19.4781 C   0  0  0  0  0  0  0  0  0  0  0  0
   -7.4770  -11.9291   20.2714 C   0  0  0  0  0  0  0  0  0  0  0  0
   -8.4388  -13.0208   19.9930 C   0  0  0  0  0  0  0  0  0  0  0  0
   -8.4519  -14.1966   20.7141 N   0  0  0  0  0  0  0  0  0  0  0  0
   -6.5032  -11.7593   21.1367 N   0  0  0  0  0  0  0  0  0  0  0  0
   -5.9658  -10.5455   20.9531 C   0  0  0  0  0  0  0  0  0  0  0  0
   -6.5689   -9.9080   19.9505 N   0  0  0  0  0  0  0  0  0  0  0  0
  2  1  1  1  0  0  0
  2  3  1  0  0  0  0
  2  5  1  0  0  0  0
  3  4  1  0  0  0  0
  3 17  1  0  0  0  0
  5  6  1  0  0  0  0
  7  6  1  1  0  0  0
  7  8  1  0  0  0  0
  7  9  1  0  0  0  0
 10  9  1  1  0  0  0
 10 11  1  0  0  0  0
 10 12  1  0  0  0  0
 11 16  1  0  0  0  0
 12 13  1  1  0  0  0
 12 14  1  0  0  0  0
 14 15  1  6  0  0  0
 14 16  1  0  0  0  0
 16 27  1  1  0  0  0
 18 19  2  0  0  0  0
 18 23  1  0  0  0  0
 19 20  1  0  0  0  0
 20 21  2  0  0  0  0
 21 22  1  0  0  0  0
 21 27  1  0  0  0  0
 22 23  2  0  0  0  0
 22 25  1  0  0  0  0
 23 24  1  0  0  0  0
 25 26  2  0  0  0  0
 26 27  1  0  0  0  0
M  END
>  <CHROM.1>
-17.22645158,60.61375539,-80.24209058,-67.13642097,-176.04839606,37.72527607
-97.00531765,-4.58002965,-10.31542736,18.70842594,0.13632811,-0.44546141
-2.79587454

>  <Name>
ligand

>  <RI>
0

>  <Rbt.Current_Directory>
/home/itssahil/PROJECTS/Mol_Feturizer/Test_systems_manuscript/rnas/4kqy

>  <Rbt.Executable>
rbdock ($Id: //depot/dev/client3/rdock/2013.1/src/exe/rbdock.cxx#4 $)

>  <Rbt.Library>
libRbt.so (2013.1, Build901 2013/11/27)

>  <Rbt.Parameter_File>
/export/apps/rDock/src/rDock_2013.1_src/data/scripts/dock_solv.prm

>  <Rbt.Receptor>
prm/pocket_docking_5.prm

>  <SCORE>
-17.3182

>  <SCORE.INTER>
-17.3094

>  <SCORE.INTER.CONST>
1

>  <SCORE.INTER.POLAR>
0

>  <SCORE.INTER.ROT>
7

>  <SCORE.INTER.SOLV>
12.296

>  <SCORE.INTER.VDW>
-23.9049

>  <SCORE.INTER.norm>
-0.641088

>  <SCORE.INTRA>
-0.00880715

>  <SCORE.INTRA.DIHEDRAL>
-4.48996

>  <SCORE.INTRA.DIHEDRAL.0>
10.4103

>  <SCORE.INTRA.POLAR>
0

>  <SCORE.INTRA.POLAR.0>
0

>  <SCORE.INTRA.REPUL>
0

>  <SCORE.INTRA.REPUL.0>
0

>  <SCORE.INTRA.SOLV>
1.94763

>  <SCORE.INTRA.SOLV.lig_0>
-49.5008

>  <SCORE.INTRA.VDW>
1.26236

>  <SCORE.INTRA.VDW.0>
-2.6946

>  <SCORE.INTRA.norm>
-0.000326191

>  <SCORE.RESTR>
0

>  <SCORE.RESTR.CAVITY>
0

>  <SCORE.RESTR.norm>
0

>  <SCORE.SYSTEM>
0

>  <SCORE.SYSTEM.CONST>
0

>  <SCORE.SYSTEM.DIHEDRAL>
0

>  <SCORE.SYSTEM.SOLV>
0

>  <SCORE.SYSTEM.norm>
0

>  <SCORE.heavy>
27

>  <SCORE.norm>
-0.641415

>  <RMSD>
5.270

$$$$
ligand
 OpenBabel02271912153D
libRbt.so/2013.1/901 2013/11/27
 27 29  0  0  0  0  0  0  0  0999 V2000
   -2.6378  -11.4534   12.5214 N   0  0  0  0  0  0  0  0  0  0  0  0
   -4.0094  -11.9233   12.5666 C   0  0  2  0  0  0  0  0  0  0  0  0
   -4.6614  -11.5188   11.2804 C   0  0  0  0  0  0  0  0  0  0  0  0
   -4.2313  -10.5185   10.6667 O   0  0  0  0  0  0  0  0  0  0  0  0
   -4.7488  -11.3030   13.7552 C   0  0  0  0  0  0  0  0  0  0  0  0
   -4.0335  -11.6113   15.0893 C   0  0  0  0  0  0  0  0  0  0  0  0
   -4.7631  -10.9833   16.4635 S   0  0  2  0  0  0  0  0  0  0  0  0
   -6.2858  -11.6275   16.6225 C   0  0  0  0  0  0  0  0  0  0  0  0
   -4.8353   -9.3007   16.3522 C   0  0  0  0  0  0  0  0  0  0  0  0
   -5.2064   -8.5982   17.6753 C   0  0  1  0  0  0  0  0  0  0  0  0
   -6.4435   -9.0667   18.2374 O   0  0  0  0  0  0  0  0  0  0  0  0
   -4.2246   -8.8690   18.8038 C   0  0  1  0  0  0  0  0  0  0  0  0
   -2.9547   -8.1879   18.7556 O   0  0  0  0  0  0  0  0  0  0  0  0
   -5.0694   -8.5011   19.9984 C   0  0  1  0  0  0  0  0  0  0  0  0
   -5.2352   -7.0878   20.0635 O   0  0  0  0  0  0  0  0  0  0  0  0
   -6.3895   -9.1304   19.6645 C   0  0  2  0  0  0  0  0  0  0  0  0
   -5.6057  -12.2081   10.8260 O   0  0  0  0  0  0  0  0  0  0  0  0
   -4.2097  -13.3183   22.1113 N   0  0  0  0  0  0  0  0  0  0  0  0
   -3.6505  -12.1226   21.8043 C   0  0  0  0  0  0  0  0  0  0  0  0
   -4.3225  -11.1466   21.1711 N   0  0  0  0  0  0  0  0  0  0  0  0
   -5.6053  -11.2861   20.8185 C   0  0  0  0  0  0  0  0  0  0  0  0
   -6.2689  -12.5403   21.1411 C   0  0  0  0  0  0  0  0  0  0  0  0
   -5.5152  -13.6176   21.8233 C   0  0  0  0  0  0  0  0  0  0  0  0
   -6.0886  -14.8290   22.1498 N   0  0  0  0  0  0  0  0  0  0  0  0
   -7.5022  -12.4134   20.7064 N   0  0  0  0  0  0  0  0  0  0  0  0
   -7.6395  -11.2091   20.1349 C   0  0  0  0  0  0  0  0  0  0  0  0
   -6.5007  -10.5206   20.2032 N   0  0  0  0  0  0  0  0  0  0  0  0
  2  1  1  6  0  0  0
  2  3  1  0  0  0  0
  2  5  1  0  0  0  0
  3  4  1  0  0  0  0
  3 17  1  0  0  0  0
  5  6  1  0  0  0  0
  7  6  1  6  0  0  0
  7  8  1  0  0  0  0
  7  9  1  0  0  0  0
 10  9  1  6  0  0  0
 10 11  1  0  0  0  0
 10 12  1  0  0  0  0
 11 16  1  0  0  0  0
 12 13  1  6  0  0  0
 12 14  1  0  0  0  0
 14 15  1  6  0  0  0
 14 16  1  0  0  0  0
 16 27  1  6  0  0  0
 18 19  2  0  0  0  0
 18 23  1  0  0  0  0
 19 20  1  0  0  0  0
 20 21  2  0  0  0  0
 21 22  1  0  0  0  0
 21 27  1  0  0  0  0
 22 23  2  0  0  0  0
 22 25  1  0  0  0  0
 23 24  1  0  0  0  0
 25 26  2  0  0  0  0
 26 27  1  0  0  0  0
M  END
>  <CHROM.1>
-26.60851058,-57.05892147,-179.75459686,61.39481349,-167.59491228,-55.58165196
111.38828434,-5.10339237,-10.87275741,17.65881503,0.77806965,-1.38888997
-2.32588747

>  <Name>
ligand

>  <RI>
0

>  <Rbt.Current_Directory>
/home/itssahil/PROJECTS/Mol_Feturizer/Test_systems_manuscript/rnas/4kqy

>  <Rbt.Executable>
rbdock ($Id: //depot/dev/client3/rdock/2013.1/src/exe/rbdock.cxx#4 $)

>  <Rbt.Library>
libRbt.so (2013.1, Build901 2013/11/27)

>  <Rbt.Parameter_File>
/export/apps/rDock/src/rDock_2013.1_src/data/scripts/dock_solv.prm

>  <Rbt.Receptor>
prm/pocket_docking_7.prm

>  <SCORE>
-15.276

>  <SCORE.INTER>
-12.1484

>  <SCORE.INTER.CONST>
1

>  <SCORE.INTER.POLAR>
0

>  <SCORE.INTER.ROT>
7

>  <SCORE.INTER.SOLV>
14.59

>  <SCORE.INTER.VDW>
-21.2289

>  <SCORE.INTER.norm>
-0.449939

>  <SCORE.INTRA>
-3.12768

>  <SCORE.INTRA.DIHEDRAL>
-7.06496

>  <SCORE.INTRA.DIHEDRAL.0>
10.4103

>  <SCORE.INTRA.POLAR>
0

>  <SCORE.INTRA.POLAR.0>
0

>  <SCORE.INTRA.REPUL>
0

>  <SCORE.INTRA.REPUL.0>
0

>  <SCORE.INTRA.SOLV>
0.383684

>  <SCORE.INTRA.SOLV.lig_0>
-49.5008

>  <SCORE.INTRA.VDW>
0.212957

>  <SCORE.INTRA.VDW.0>
-2.6946

>  <SCORE.INTRA.norm>
-0.11584

>  <SCORE.RESTR>
0

>  <SCORE.RESTR.CAVITY>
0

>  <SCORE.RESTR.norm>
0

>  <SCORE.SYSTEM>
0

>  <SCORE.SYSTEM.CONST>
0

>  <SCORE.SYSTEM.DIHEDRAL>
0

>  <SCORE.SYSTEM.SOLV>
0

>  <SCORE.SYSTEM.norm>
0

>  <SCORE.heavy>
27

>  <SCORE.norm>
-0.565779

>  <RMSD>
5.271

$$$$
ligand
 OpenBabel02271912153D
libRbt.so/2013.1/901 2013/11/27
 27 29  0  0  0  0  0  0  0  0999 V2000
   -3.8197  -12.0825   16.4106 N   0  0  0  0  0  0  0  0  0  0  0  0
   -4.4901  -10.8228   16.6712 C   0  0  2  0  0  0  0  0  0  0  0  0
   -5.8891  -11.1431   17.0994 C   0  0  0  0  0  0  0  0  0  0  0  0
   -6.7839  -10.2829   16.9526 O   0  0  0  0  0  0  0  0  0  0  0  0
   -4.5059   -9.9541   15.4105 C   0  0  0  0  0  0  0  0  0  0  0  0
   -4.8286   -8.4805   15.7434 C   0  0  0  0  0  0  0  0  0  0  0  0
   -3.5693   -7.5976   16.4139 S   0  0  2  0  0  0  0  0  0  0  0  0
   -2.1865   -7.8507   15.5293 C   0  0  0  0  0  0  0  0  0  0  0  0
   -3.3425   -8.0588   18.0215 C   0  0  0  0  0  0  0  0  0  0  0  0
   -4.4812   -7.6227   18.9676 C   0  0  1  0  0  0  0  0  0  0  0  0
   -5.7122   -8.3269   18.7340 O   0  0  0  0  0  0  0  0  0  0  0  0
   -4.2106   -7.9370   20.4301 C   0  0  1  0  0  0  0  0  0  0  0  0
   -3.2638   -7.0998   21.1240 O   0  0  0  0  0  0  0  0  0  0  0  0
   -5.6099   -7.8694   20.9899 C   0  0  1  0  0  0  0  0  0  0  0  0
   -6.0519   -6.5161   21.0397 O   0  0  0  0  0  0  0  0  0  0  0  0
   -6.4070   -8.6032   19.9524 C   0  0  2  0  0  0  0  0  0  0  0  0
   -6.1444  -12.2782   17.5678 O   0  0  0  0  0  0  0  0  0  0  0  0
   -8.8092  -13.2950   19.2506 N   0  0  0  0  0  0  0  0  0  0  0  0
   -9.0952  -12.0966   18.6862 C   0  0  0  0  0  0  0  0  0  0  0  0
   -8.4030  -10.9787   18.9626 N   0  0  0  0  0  0  0  0  0  0  0  0
   -7.3638  -10.9815   19.8049 C   0  0  0  0  0  0  0  0  0  0  0  0
   -6.9928  -12.2437   20.4265 C   0  0  0  0  0  0  0  0  0  0  0  0
   -7.7728  -13.4676   20.1297 C   0  0  0  0  0  0  0  0  0  0  0  0
   -7.4722  -14.6907   20.6922 N   0  0  0  0  0  0  0  0  0  0  0  0
   -5.9523  -11.9767   21.1828 N   0  0  0  0  0  0  0  0  0  0  0  0
   -5.6729  -10.6693   21.0912 C   0  0  0  0  0  0  0  0  0  0  0  0
   -6.5169  -10.0626   20.2575 N   0  0  0  0  0  0  0  0  0  0  0  0
  2  1  1  6  0  0  0
  2  3  1  0  0  0  0
  2  5  1  0  0  0  0
  3  4  1  0  0  0  0
  3 17  1  0  0  0  0
  5  6  1  0  0  0  0
  7  6  1  6  0  0  0
  7  8  1  0  0  0  0
  7  9  1  0  0  0  0
 10  9  1  6  0  0  0
 10 11  1  0  0  0  0
 10 12  1  0  0  0  0
 11 16  1  0  0  0  0
 12 13  1  1  0  0  0
 12 14  1  0  0  0  0
 14 15  1  6  0  0  0
 14 16  1  0  0  0  0
 16 27  1  1  0  0  0
 18 19  2  0  0  0  0
 18 23  1  0  0  0  0
 19 20  1  0  0  0  0
 20 21  2  0  0  0  0
 21 22  1  0  0  0  0
 21 27  1  0  0  0  0
 22 23  2  0  0  0  0
 22 25  1  0  0  0  0
 23 24  1  0  0  0  0
 25 26  2  0  0  0  0
 26 27  1  0  0  0  0
M  END
>  <CHROM.1>
-156.17338086,-163.42953697,76.49176763,47.30282829,-69.73011309,69.31162513
-81.16848014,-5.60559957,-9.92610549,18.65552563,-0.12455390,-0.93596354
-2.17369671

>  <Name>
ligand

>  <RI>
0

>  <Rbt.Current_Directory>
/home/itssahil/PROJECTS/Mol_Feturizer/Test_systems_manuscript/rnas/4kqy

>  <Rbt.Executable>
rbdock ($Id: //depot/dev/client3/rdock/2013.1/src/exe/rbdock.cxx#4 $)

>  <Rbt.Library>
libRbt.so (2013.1, Build901 2013/11/27)

>  <Rbt.Parameter_File>
/export/apps/rDock/src/rDock_2013.1_src/data/scripts/dock_solv.prm

>  <Rbt.Receptor>
prm/pocket_docking_5.prm

>  <SCORE>
-16.3015

>  <SCORE.INTER>
-13.3638

>  <SCORE.INTER.CONST>
1

>  <SCORE.INTER.POLAR>
0

>  <SCORE.INTER.ROT>
7

>  <SCORE.INTER.SOLV>
13.7905

>  <SCORE.INTER.VDW>
-21.7727

>  <SCORE.INTER.norm>
-0.494956

>  <SCORE.INTRA>
-2.93769

>  <SCORE.INTRA.DIHEDRAL>
-4.45287

>  <SCORE.INTRA.DIHEDRAL.0>
10.4103

>  <SCORE.INTRA.POLAR>
0

>  <SCORE.INTRA.POLAR.0>
0

>  <SCORE.INTRA.REPUL>
0

>  <SCORE.INTRA.REPUL.0>
0

>  <SCORE.INTRA.SOLV>
0.212115

>  <SCORE.INTRA.SOLV.lig_0>
-49.5008

>  <SCORE.INTRA.VDW>
-0.817318

>  <SCORE.INTRA.VDW.0>
-2.6946

>  <SCORE.INTRA.norm>
-0.108803

>  <SCORE.RESTR>
0

>  <SCORE.RESTR.CAVITY>
0

>  <SCORE.RESTR.norm>
0

>  <SCORE.SYSTEM>
0

>  <SCORE.SYSTEM.CONST>
0

>  <SCORE.SYSTEM.DIHEDRAL>
0

>  <SCORE.SYSTEM.SOLV>
0

>  <SCORE.SYSTEM.norm>
0

>  <SCORE.heavy>
27

>  <SCORE.norm>
-0.603759

>  <RMSD>
5.274

$$$$
ligand
 OpenBabel02271912153D
libRbt.so/2013.1/901 2013/11/27
 27 29  0  0  0  0  0  0  0  0999 V2000
   -0.0638  -11.9322   13.7559 N   0  0  0  0  0  0  0  0  0  0  0  0
    0.0168  -11.3132   15.0653 C   0  0  2  0  0  0  0  0  0  0  0  0
    0.2664  -12.4053   16.0595 C   0  0  0  0  0  0  0  0  0  0  0  0
   -0.2994  -13.5094   15.9076 O   0  0  0  0  0  0  0  0  0  0  0  0
   -1.2887  -10.5838   15.3938 C   0  0  0  0  0  0  0  0  0  0  0  0
   -1.2160   -9.8871   16.7706 C   0  0  0  0  0  0  0  0  0  0  0  0
   -2.5711   -8.9974   17.2037 S   0  0  2  0  0  0  0  0  0  0  0  0
   -2.6730   -7.6459   16.2436 C   0  0  0  0  0  0  0  0  0  0  0  0
   -2.4734   -8.5666   18.8327 C   0  0  0  0  0  0  0  0  0  0  0  0
   -3.7700   -7.9504   19.3991 C   0  0  1  0  0  0  0  0  0  0  0  0
   -4.9603   -8.6035   18.9273 O   0  0  0  0  0  0  0  0  0  0  0  0
   -3.9055   -8.0978   20.9060 C   0  0  1  0  0  0  0  0  0  0  0  0
   -3.0932   -7.2394   21.7319 O   0  0  0  0  0  0  0  0  0  0  0  0
   -5.3889   -7.8787   21.0721 C   0  0  1  0  0  0  0  0  0  0  0  0
   -5.7068   -6.5058   20.8646 O   0  0  0  0  0  0  0  0  0  0  0  0
   -5.9613   -8.6859   19.9447 C   0  0  2  0  0  0  0  0  0  0  0  0
    1.0620  -12.2036   17.0080 O   0  0  0  0  0  0  0  0  0  0  0  0
   -4.3825  -13.3986   21.8352 N   0  0  0  0  0  0  0  0  0  0  0  0
   -3.6486  -12.2839   21.5999 C   0  0  0  0  0  0  0  0  0  0  0  0
   -4.1814  -11.1526   21.1084 N   0  0  0  0  0  0  0  0  0  0  0  0
   -5.4870  -11.0464   20.8371 C   0  0  0  0  0  0  0  0  0  0  0  0
   -6.3326  -12.2033   21.0900 C   0  0  0  0  0  0  0  0  0  0  0  0
   -5.7336  -13.4522   21.6150 C   0  0  0  0  0  0  0  0  0  0  0  0
   -6.4830  -14.5820   21.8692 N   0  0  0  0  0  0  0  0  0  0  0  0
   -7.5493  -11.8352   20.7580 N   0  0  0  0  0  0  0  0  0  0  0  0
   -7.5141  -10.5725   20.3106 C   0  0  0  0  0  0  0  0  0  0  0  0
   -6.2740  -10.0876   20.3601 N   0  0  0  0  0  0  0  0  0  0  0  0
  2  1  1  6  0  0  0
  2  3  1  0  0  0  0
  2  5  1  0  0  0  0
  3  4  1  0  0  0  0
  3 17  1  0  0  0  0
  5  6  1  0  0  0  0
  7  6  1  6  0  0  0
  7  8  1  0  0  0  0
  7  9  1  0  0  0  0
 10  9  1  6  0  0  0
 10 11  1  0  0  0  0
 10 12  1  0  0  0  0
 11 16  1  0  0  0  0
 12 13  1  1  0  0  0
 12 14  1  0  0  0  0
 14 15  1  6  0  0  0
 14 16  1  0  0  0  0
 16 27  1  1  0  0  0
 18 19  2  0  0  0  0
 18 23  1  0  0  0  0
 19 20  1  0  0  0  0
 20 21  2  0  0  0  0
 21 22  1  0  0  0  0
 21 27  1  0  0  0  0
 22 23  2  0  0  0  0
 22 25  1  0  0  0  0
 23 24  1  0  0  0  0
 25 26  2  0  0  0  0
 26 27  1  0  0  0  0
M  END
>  <CHROM.1>
-37.98359250,-178.64533477,177.37048383,-69.77678244,-170.32729916,40.18652681
57.12405454,-3.57312397,-10.34451703,18.98908990,0.02925409,-0.78703661,3.04964705

>  <Name>
ligand

>  <RI>
0

>  <Rbt.Current_Directory>
/home/itssahil/PROJECTS/Mol_Feturizer/Test_systems_manuscript/rnas/4kqy

>  <Rbt.Executable>
rbdock ($Id: //depot/dev/client3/rdock/2013.1/src/exe/rbdock.cxx#4 $)

>  <Rbt.Library>
libRbt.so (2013.1, Build901 2013/11/27)

>  <Rbt.Parameter_File>
/export/apps/rDock/src/rDock_2013.1_src/data/scripts/dock_solv.prm

>  <Rbt.Receptor>
prm/pocket_docking_8.prm

>  <SCORE>
-22.0646

>  <SCORE.INTER>
-18.8549

>  <SCORE.INTER.CONST>
1

>  <SCORE.INTER.POLAR>
0

>  <SCORE.INTER.ROT>
7

>  <SCORE.INTER.SOLV>
14.5219

>  <SCORE.INTER.VDW>
-25.6772

>  <SCORE.INTER.norm>
-0.69833

>  <SCORE.INTRA>
-3.20968

>  <SCORE.INTRA.DIHEDRAL>
-5.74242

>  <SCORE.INTRA.DIHEDRAL.0>
10.4103

>  <SCORE.INTRA.POLAR>
0

>  <SCORE.INTRA.POLAR.0>
0

>  <SCORE.INTRA.REPUL>
0

>  <SCORE.INTRA.REPUL.0>
0

>  <SCORE.INTRA.SOLV>
-0.58538

>  <SCORE.INTRA.SOLV.lig_0>
-49.5008

>  <SCORE.INTRA.VDW>
-0.0457814

>  <SCORE.INTRA.VDW.0>
-2.6946

>  <SCORE.INTRA.norm>
-0.118877

>  <SCORE.RESTR>
0

>  <SCORE.RESTR.CAVITY>
0

>  <SCORE.RESTR.norm>
0

>  <SCORE.SYSTEM>
0

>  <SCORE.SYSTEM.CONST>
0

>  <SCORE.SYSTEM.DIHEDRAL>
0

>  <SCORE.SYSTEM.SOLV>
0

>  <SCORE.SYSTEM.norm>
0

>  <SCORE.heavy>
27

>  <SCORE.norm>
-0.817207

>  <RMSD>
5.277

$$$$
ligand
 OpenBabel02271912153D
libRbt.so/2013.1/901 2013/11/27
 27 29  0  0  0  0  0  0  0  0999 V2000
    1.5415  -11.4989   15.0599 N   0  0  0  0  0  0  0  0  0  0  0  0
    0.6691  -11.8403   16.1674 C   0  0  2  0  0  0  0  0  0  0  0  0
    0.3731  -13.3049   16.0661 C   0  0  0  0  0  0  0  0  0  0  0  0
    0.1152  -13.7991   14.9474 O   0  0  0  0  0  0  0  0  0  0  0  0
   -0.6279  -11.0298   16.0966 C   0  0  0  0  0  0  0  0  0  0  0  0
   -1.3566  -11.0088   17.4586 C   0  0  0  0  0  0  0  0  0  0  0  0
   -2.0011  -12.4755   17.9571 S   0  0  2  0  0  0  0  0  0  0  0  0
   -3.2739  -12.8820   16.9705 C   0  0  0  0  0  0  0  0  0  0  0  0
   -2.5044  -12.3602   19.5640 C   0  0  0  0  0  0  0  0  0  0  0  0
   -3.4130  -11.1467   19.8530 C   0  0  1  0  0  0  0  0  0  0  0  0
   -4.6324  -11.1585   19.0921 O   0  0  0  0  0  0  0  0  0  0  0  0
   -3.9326  -11.1024   21.2809 C   0  0  1  0  0  0  0  0  0  0  0  0
   -3.0071  -10.7013   22.3111 O   0  0  0  0  0  0  0  0  0  0  0  0
   -5.1065  -10.1688   21.1182 C   0  0  1  0  0  0  0  0  0  0  0  0
   -4.6470   -8.8362   20.9135 O   0  0  0  0  0  0  0  0  0  0  0  0
   -5.7385  -10.6650   19.8514 C   0  0  2  0  0  0  0  0  0  0  0  0
    0.4200  -14.0149   17.0990 O   0  0  0  0  0  0  0  0  0  0  0  0
   -7.2447  -15.2468   22.0907 N   0  0  0  0  0  0  0  0  0  0  0  0
   -6.0384  -14.6308   22.1353 C   0  0  0  0  0  0  0  0  0  0  0  0
   -5.7925  -13.4672   21.5102 N   0  0  0  0  0  0  0  0  0  0  0  0
   -6.7378  -12.8254   20.8146 C   0  0  0  0  0  0  0  0  0  0  0  0
   -8.0617  -13.4256   20.7481 C   0  0  0  0  0  0  0  0  0  0  0  0
   -8.3189  -14.7177   21.4252 C   0  0  0  0  0  0  0  0  0  0  0  0
   -9.5510  -15.3372   21.3929 N   0  0  0  0  0  0  0  0  0  0  0  0
   -8.7909  -12.6022   20.0296 N   0  0  0  0  0  0  0  0  0  0  0  0
   -8.0269  -11.5723   19.6403 C   0  0  0  0  0  0  0  0  0  0  0  0
   -6.7879  -11.6968   20.1144 N   0  0  0  0  0  0  0  0  0  0  0  0
  2  1  1  6  0  0  0
  2  3  1  0  0  0  0
  2  5  1  0  0  0  0
  3  4  1  0  0  0  0
  3 17  1  0  0  0  0
  5  6  1  0  0  0  0
  7  6  1  6  0  0  0
  7  8  1  0  0  0  0
  7  9  1  0  0  0  0
 10  9  1  1  0  0  0
 10 11  1  0  0  0  0
 10 12  1  0  0  0  0
 11 16  1  0  0  0  0
 12 13  1  1  0  0  0
 12 14  1  0  0  0  0
 14 15  1  6  0  0  0
 14 16  1  0  0  0  0
 16 27  1  1  0  0  0
 18 19  2  0  0  0  0
 18 23  1  0  0  0  0
 19 20  1  0  0  0  0
 20 21  2  0  0  0  0
 21 22  1  0  0  0  0
 21 27  1  0  0  0  0
 22 23  2  0  0  0  0
 22 25  1  0  0  0  0
 23 24  1  0  0  0  0
 25 26  2  0  0  0  0
 26 27  1  0  0  0  0
M  END
>  <CHROM.1>
-42.81227265,-161.25763481,-68.41901861,-68.72920651,50.80592721,60.59542301
64.23086270,-3.96441306,-12.32753198,19.21223174,-0.14430681,0.56957501,0.43201926

>  <Name>
ligand

>  <RI>
0

>  <Rbt.Current_Directory>
/home/itssahil/PROJECTS/Mol_Feturizer/Test_systems_manuscript/rnas/4kqy

>  <Rbt.Executable>
rbdock ($Id: //depot/dev/client3/rdock/2013.1/src/exe/rbdock.cxx#4 $)

>  <Rbt.Library>
libRbt.so (2013.1, Build901 2013/11/27)

>  <Rbt.Parameter_File>
/export/apps/rDock/src/rDock_2013.1_src/data/scripts/dock_solv.prm

>  <Rbt.Receptor>
prm/pocket_docking_7.prm

>  <SCORE>
-15.5337

>  <SCORE.INTER>
-11.9646

>  <SCORE.INTER.CONST>
1

>  <SCORE.INTER.POLAR>
0

>  <SCORE.INTER.ROT>
7

>  <SCORE.INTER.SOLV>
13.8526

>  <SCORE.INTER.VDW>
-20.8606

>  <SCORE.INTER.norm>
-0.443135

>  <SCORE.INTRA>
-3.56906

>  <SCORE.INTRA.DIHEDRAL>
-5.48854

>  <SCORE.INTRA.DIHEDRAL.0>
10.4103

>  <SCORE.INTRA.POLAR>
0

>  <SCORE.INTRA.POLAR.0>
0

>  <SCORE.INTRA.REPUL>
0

>  <SCORE.INTRA.REPUL.0>
0

>  <SCORE.INTRA.SOLV>
-0.358385

>  <SCORE.INTRA.SOLV.lig_0>
-49.5008

>  <SCORE.INTRA.VDW>
-0.645603

>  <SCORE.INTRA.VDW.0>
-2.6946

>  <SCORE.INTRA.norm>
-0.132188

>  <SCORE.RESTR>
0

>  <SCORE.RESTR.CAVITY>
0

>  <SCORE.RESTR.norm>
0

>  <SCORE.SYSTEM>
0

>  <SCORE.SYSTEM.CONST>
0

>  <SCORE.SYSTEM.DIHEDRAL>
0

>  <SCORE.SYSTEM.SOLV>
0

>  <SCORE.SYSTEM.norm>
0

>  <SCORE.heavy>
27

>  <SCORE.norm>
-0.575322

>  <RMSD>
5.280

$$$$
ligand
 OpenBabel02271912153D
libRbt.so/2013.1/901 2013/11/27
 27 29  0  0  0  0  0  0  0  0999 V2000
   -0.1066  -11.1246   14.9997 N   0  0  0  0  0  0  0  0  0  0  0  0
    0.2023  -11.6304   16.3237 C   0  0  2  0  0  0  0  0  0  0  0  0
    0.5339  -13.0837   16.1790 C   0  0  0  0  0  0  0  0  0  0  0  0
    0.9874  -13.5005   15.0915 O   0  0  0  0  0  0  0  0  0  0  0  0
   -0.9964  -11.4494   17.2589 C   0  0  0  0  0  0  0  0  0  0  0  0
   -1.4369   -9.9706   17.3336 C   0  0  0  0  0  0  0  0  0  0  0  0
   -2.7688   -9.6606   18.3057 S   0  0  2  0  0  0  0  0  0  0  0  0
   -4.0574  -10.5675   17.7807 C   0  0  0  0  0  0  0  0  0  0  0  0
   -3.1384   -8.0144   18.2583 C   0  0  0  0  0  0  0  0  0  0  0  0
   -4.2264   -7.5848   19.2651 C   0  0  1  0  0  0  0  0  0  0  0  0
   -5.4940   -8.2221   19.0351 O   0  0  0  0  0  0  0  0  0  0  0  0
   -3.9238   -7.9923   20.6980 C   0  0  1  0  0  0  0  0  0  0  0  0
   -2.9197   -7.2364   21.4044 O   0  0  0  0  0  0  0  0  0  0  0  0
   -5.3005   -7.8974   21.3080 C   0  0  1  0  0  0  0  0  0  0  0  0
   -5.6806   -6.5317   21.4472 O   0  0  0  0  0  0  0  0  0  0  0  0
   -6.1614   -8.5372   20.2593 C   0  0  2  0  0  0  0  0  0  0  0  0
    0.3808  -13.8503   17.1600 O   0  0  0  0  0  0  0  0  0  0  0  0
   -4.3902  -13.1154   22.3033 N   0  0  0  0  0  0  0  0  0  0  0  0
   -3.8320  -11.8819   22.3618 C   0  0  0  0  0  0  0  0  0  0  0  0
   -4.3906  -10.8030   21.7880 N   0  0  0  0  0  0  0  0  0  0  0  0
   -5.5553  -10.8740   21.1340 C   0  0  0  0  0  0  0  0  0  0  0  0
   -6.2159  -12.1682   21.0558 C   0  0  0  0  0  0  0  0  0  0  0  0
   -5.5840  -13.3558   21.6758 C   0  0  0  0  0  0  0  0  0  0  0  0
   -6.1596  -14.6086   21.6298 N   0  0  0  0  0  0  0  0  0  0  0  0
   -7.3263  -11.9619   20.3847 N   0  0  0  0  0  0  0  0  0  0  0  0
   -7.3883  -10.6699   20.0341 C   0  0  0  0  0  0  0  0  0  0  0  0
   -6.3258  -10.0055   20.4871 N   0  0  0  0  0  0  0  0  0  0  0  0
  2  1  1  6  0  0  0
  2  3  1  0  0  0  0
  2  5  1  0  0  0  0
  3  4  1  0  0  0  0
  3 17  1  0  0  0  0
  5  6  1  0  0  0  0
  7  6  1  6  0  0  0
  7  8  1  0  0  0  0
  7  9  1  0  0  0  0
 10  9  1  6  0  0  0
 10 11  1  0  0  0  0
 10 12  1  0  0  0  0
 11 16  1  0  0  0  0
 12 13  1  1  0  0  0
 12 14  1  0  0  0  0
 14 15  1  6  0  0  0
 14 16  1  0  0  0  0
 16 27  1  1  0  0  0
 18 19  2  0  0  0  0
 18 23  1  0  0  0  0
 19 20  1  0  0  0  0
 20 21  2  0  0  0  0
 21 22  1  0  0  0  0
 21 27  1  0  0  0  0
 22 23  2  0  0  0  0
 22 25  1  0  0  0  0
 23 24  1  0  0  0  0
 25 26  2  0  0  0  0
 26 27  1  0  0  0  0
M  END
>  <CHROM.1>
26.50887639,-56.73163189,178.65523556,-57.29746699,-172.09736032,-61.90163019
92.50739803,-3.64526224,-10.52174786,19.33891954,-0.25149012,0.72356754,-0.08962725

>  <Name>
ligand

>  <RI>
0

>  <Rbt.Current_Directory>
/home/itssahil/PROJECTS/Mol_Feturizer/Test_systems_manuscript/rnas/4kqy

>  <Rbt.Executable>
rbdock ($Id: //depot/dev/client3/rdock/2013.1/src/exe/rbdock.cxx#4 $)

>  <Rbt.Library>
libRbt.so (2013.1, Build901 2013/11/27)

>  <Rbt.Parameter_File>
/export/apps/rDock/src/rDock_2013.1_src/data/scripts/dock_solv.prm

>  <Rbt.Receptor>
prm/pocket_docking_8.prm

>  <SCORE>
-21.3528

>  <SCORE.INTER>
-18.2421

>  <SCORE.INTER.CONST>
1

>  <SCORE.INTER.POLAR>
0

>  <SCORE.INTER.ROT>
7

>  <SCORE.INTER.SOLV>
14.8784

>  <SCORE.INTER.VDW>
-25.3875

>  <SCORE.INTER.norm>
-0.675634

>  <SCORE.INTRA>
-3.11064

>  <SCORE.INTRA.DIHEDRAL>
-7.48428

>  <SCORE.INTRA.DIHEDRAL.0>
10.4103

>  <SCORE.INTRA.POLAR>
0

>  <SCORE.INTRA.POLAR.0>
0

>  <SCORE.INTRA.REPUL>
0

>  <SCORE.INTRA.REPUL.0>
0

>  <SCORE.INTRA.SOLV>
0.419364

>  <SCORE.INTRA.SOLV.lig_0>
-49.5008

>  <SCORE.INTRA.VDW>
0.421821

>  <SCORE.INTRA.VDW.0>
-2.6946

>  <SCORE.INTRA.norm>
-0.115209

>  <SCORE.RESTR>
0

>  <SCORE.RESTR.CAVITY>
0

>  <SCORE.RESTR.norm>
0

>  <SCORE.SYSTEM>
0

>  <SCORE.SYSTEM.CONST>
0

>  <SCORE.SYSTEM.DIHEDRAL>
0

>  <SCORE.SYSTEM.SOLV>
0

>  <SCORE.SYSTEM.norm>
0

>  <SCORE.heavy>
27

>  <SCORE.norm>
-0.790843

>  <RMSD>
5.280

$$$$
ligand
 OpenBabel02271912153D
libRbt.so/2013.1/901 2013/11/27
 27 29  0  0  0  0  0  0  0  0999 V2000
    0.0102  -12.1694   14.1411 N   0  0  0  0  0  0  0  0  0  0  0  0
    0.1028  -11.3436   15.3301 C   0  0  2  0  0  0  0  0  0  0  0  0
    0.4731  -12.2428   16.4691 C   0  0  0  0  0  0  0  0  0  0  0  0
   -0.1291  -13.3291   16.6093 O   0  0  0  0  0  0  0  0  0  0  0  0
   -1.2363  -10.6559   15.6096 C   0  0  0  0  0  0  0  0  0  0  0  0
   -1.2098   -9.8911   16.9516 C   0  0  0  0  0  0  0  0  0  0  0  0
   -2.5865   -8.9987   17.3031 S   0  0  2  0  0  0  0  0  0  0  0  0
   -2.6868   -7.7075   16.2632 C   0  0  0  0  0  0  0  0  0  0  0  0
   -2.5305   -8.4719   18.9056 C   0  0  0  0  0  0  0  0  0  0  0  0
   -3.8657   -7.8994   19.4264 C   0  0  1  0  0  0  0  0  0  0  0  0
   -5.0160   -8.6029   18.9286 O   0  0  0  0  0  0  0  0  0  0  0  0
   -4.0398   -8.0345   20.9305 C   0  0  1  0  0  0  0  0  0  0  0  0
   -3.2853   -7.1362   21.7687 O   0  0  0  0  0  0  0  0  0  0  0  0
   -5.5347   -7.8704   21.0507 C   0  0  1  0  0  0  0  0  0  0  0  0
   -5.8982   -6.5131   20.8168 O   0  0  0  0  0  0  0  0  0  0  0  0
   -6.0426   -8.7118   19.9175 C   0  0  2  0  0  0  0  0  0  0  0  0
    1.4009  -11.9054   17.2428 O   0  0  0  0  0  0  0  0  0  0  0  0
   -4.3714  -13.2994   22.0239 N   0  0  0  0  0  0  0  0  0  0  0  0
   -3.6792  -12.1530   21.8166 C   0  0  0  0  0  0  0  0  0  0  0  0
   -4.2309  -11.0604   21.2623 N   0  0  0  0  0  0  0  0  0  0  0  0
   -5.5168  -11.0271   20.8955 C   0  0  0  0  0  0  0  0  0  0  0  0
   -6.3195  -12.2211   21.1133 C   0  0  0  0  0  0  0  0  0  0  0  0
   -5.6985  -13.4271   21.7084 C   0  0  0  0  0  0  0  0  0  0  0  0
   -6.4068  -14.5890   21.9339 N   0  0  0  0  0  0  0  0  0  0  0  0
   -7.5256  -11.9229   20.6864 N   0  0  0  0  0  0  0  0  0  0  0  0
   -7.5214  -10.6689   20.2138 C   0  0  0  0  0  0  0  0  0  0  0  0
   -6.3141  -10.1196   20.3413 N   0  0  0  0  0  0  0  0  0  0  0  0
  2  1  1  6  0  0  0
  2  3  1  0  0  0  0
  2  5  1  0  0  0  0
  3  4  1  0  0  0  0
  3 17  1  0  0  0  0
  5  6  1  0  0  0  0
  7  6  1  6  0  0  0
  7  8  1  0  0  0  0
  7  9  1  0  0  0  0
 10  9  1  6  0  0  0
 10 11  1  0  0  0  0
 10 12  1  0  0  0  0
 11 16  1  0  0  0  0
 12 13  1  1  0  0  0
 12 14  1  0  0  0  0
 14 15  1  6  0  0  0
 14 16  1  0  0  0  0
 16 27  1  1  0  0  0
 18 19  2  0  0  0  0
 18 23  1  0  0  0  0
 19 20  1  0  0  0  0
 20 21  2  0  0  0  0
 21 22  1  0  0  0  0
 21 27  1  0  0  0  0
 22 23  2  0  0  0  0
 22 25  1  0  0  0  0
 23 24  1  0  0  0  0
 25 26  2  0  0  0  0
 26 27  1  0  0  0  0
M  END
>  <CHROM.1>
-46.02210254,173.92598888,175.39525768,-69.13167814,-167.83764671,37.18579532
59.76468208,-3.57519165,-10.31986600,19.10867189,-0.01068213,-0.74225665
2.98975327

>  <Name>
ligand

>  <RI>
0

>  <Rbt.Current_Directory>
/home/itssahil/PROJECTS/Mol_Feturizer/Test_systems_manuscript/rnas/4kqy

>  <Rbt.Executable>
rbdock ($Id: //depot/dev/client3/rdock/2013.1/src/exe/rbdock.cxx#4 $)

>  <Rbt.Library>
libRbt.so (2013.1, Build901 2013/11/27)

>  <Rbt.Parameter_File>
/export/apps/rDock/src/rDock_2013.1_src/data/scripts/dock_solv.prm

>  <Rbt.Receptor>
prm/pocket_docking_7.prm

>  <SCORE>
-22.2837

>  <SCORE.INTER>
-19.6039

>  <SCORE.INTER.CONST>
1

>  <SCORE.INTER.POLAR>
0

>  <SCORE.INTER.ROT>
7

>  <SCORE.INTER.SOLV>
14.8826

>  <SCORE.INTER.VDW>
-26.2968

>  <SCORE.INTER.norm>
-0.726072

>  <SCORE.INTRA>
-2.67971

>  <SCORE.INTRA.DIHEDRAL>
-5.08033

>  <SCORE.INTRA.DIHEDRAL.0>
10.4103

>  <SCORE.INTRA.POLAR>
0

>  <SCORE.INTRA.POLAR.0>
0

>  <SCORE.INTRA.REPUL>
0

>  <SCORE.INTRA.REPUL.0>
0

>  <SCORE.INTRA.SOLV>
-0.58231

>  <SCORE.INTRA.SOLV.lig_0>
-49.5008

>  <SCORE.INTRA.VDW>
0.151612

>  <SCORE.INTRA.VDW.0>
-2.6946

>  <SCORE.INTRA.norm>
-0.0992484

>  <SCORE.RESTR>
0

>  <SCORE.RESTR.CAVITY>
0

>  <SCORE.RESTR.norm>
0

>  <SCORE.SYSTEM>
0

>  <SCORE.SYSTEM.CONST>
0

>  <SCORE.SYSTEM.DIHEDRAL>
0

>  <SCORE.SYSTEM.SOLV>
0

>  <SCORE.SYSTEM.norm>
0

>  <SCORE.heavy>
27

>  <SCORE.norm>
-0.825321

>  <RMSD>
5.281

$$$$
ligand
 OpenBabel02271912153D
libRbt.so/2013.1/901 2013/11/27
 27 29  0  0  0  0  0  0  0  0999 V2000
   -6.1629  -12.4105   16.9743 N   0  0  0  0  0  0  0  0  0  0  0  0
   -4.9647  -12.5514   16.1690 C   0  0  2  0  0  0  0  0  0  0  0  0
   -3.9789  -13.3429   16.9721 C   0  0  0  0  0  0  0  0  0  0  0  0
   -4.1244  -13.4212   18.2110 O   0  0  0  0  0  0  0  0  0  0  0  0
   -4.3869  -11.1761   15.8241 C   0  0  0  0  0  0  0  0  0  0  0  0
   -4.0417  -10.3725   17.0975 C   0  0  0  0  0  0  0  0  0  0  0  0
   -3.3477   -8.8672   16.8372 S   0  0  2  0  0  0  0  0  0  0  0  0
   -1.9534   -9.0487   15.9530 C   0  0  0  0  0  0  0  0  0  0  0  0
   -3.0234   -8.1253   18.3181 C   0  0  0  0  0  0  0  0  0  0  0  0
   -4.2824   -7.6422   19.0686 C   0  0  1  0  0  0  0  0  0  0  0  0
   -5.4513   -8.4259   18.7763 O   0  0  0  0  0  0  0  0  0  0  0  0
   -4.1800   -7.7795   20.5791 C   0  0  1  0  0  0  0  0  0  0  0  0
   -3.3534   -6.8265   21.2770 O   0  0  0  0  0  0  0  0  0  0  0  0
   -5.6383   -7.7174   20.9608 C   0  0  1  0  0  0  0  0  0  0  0  0
   -6.1292   -6.3897   20.8024 O   0  0  0  0  0  0  0  0  0  0  0  0
   -6.2784   -8.5987   19.9294 C   0  0  2  0  0  0  0  0  0  0  0  0
   -3.0442  -13.9385   16.3849 O   0  0  0  0  0  0  0  0  0  0  0  0
   -3.9931  -12.9712   21.9129 N   0  0  0  0  0  0  0  0  0  0  0  0
   -3.4358  -11.7672   21.6365 C   0  0  0  0  0  0  0  0  0  0  0  0
   -4.1371  -10.7414   21.1254 N   0  0  0  0  0  0  0  0  0  0  0  0
   -5.4474  -10.8372   20.8740 C   0  0  0  0  0  0  0  0  0  0  0  0
   -6.1086  -12.0989   21.1710 C   0  0  0  0  0  0  0  0  0  0  0  0
   -5.3241  -13.2302   21.7175 C   0  0  0  0  0  0  0  0  0  0  0  0
   -5.8942  -14.4509   22.0136 N   0  0  0  0  0  0  0  0  0  0  0  0
   -7.3707  -11.9243   20.8507 N   0  0  0  0  0  0  0  0  0  0  0  0
   -7.5293  -10.6833   20.3704 C   0  0  0  0  0  0  0  0  0  0  0  0
   -6.3743  -10.0190   20.3861 N   0  0  0  0  0  0  0  0  0  0  0  0
  2  1  1  1  0  0  0
  2  3  1  0  0  0  0
  2  5  1  0  0  0  0
  3  4  1  0  0  0  0
  3 17  1  0  0  0  0
  5  6  1  0  0  0  0
  7  6  1  1  0  0  0
  7  8  1  0  0  0  0
  7  9  1  0  0  0  0
 10  9  1  6  0  0  0
 10 11  1  0  0  0  0
 10 12  1  0  0  0  0
 11 16  1  0  0  0  0
 12 13  1  1  0  0  0
 12 14  1  0  0  0  0
 14 15  1  6  0  0  0
 14 16  1  0  0  0  0
 16 27  1  1  0  0  0
 18 19  2  0  0  0  0
 18 23  1  0  0  0  0
 19 20  1  0  0  0  0
 20 21  2  0  0  0  0
 21 22  1  0  0  0  0
 21 27  1  0  0  0  0
 22 23  2  0  0  0  0
 22 25  1  0  0  0  0
 23 24  1  0  0  0  0
 25 26  2  0  0  0  0
 26 27  1  0  0  0  0
M  END
>  <CHROM.1>
-19.52440475,58.81274713,177.86953622,-57.98636635,-71.71038581,28.89438910
65.09243279,-4.70940125,-10.44434731,19.17480508,-1.54591372,1.14575704,0.24823143

>  <Name>
ligand

>  <RI>
0

>  <Rbt.Current_Directory>
/home/itssahil/PROJECTS/Mol_Feturizer/Test_systems_manuscript/rnas/4kqy

>  <Rbt.Executable>
rbdock ($Id: //depot/dev/client3/rdock/2013.1/src/exe/rbdock.cxx#4 $)

>  <Rbt.Library>
libRbt.so (2013.1, Build901 2013/11/27)

>  <Rbt.Parameter_File>
/export/apps/rDock/src/rDock_2013.1_src/data/scripts/dock_solv.prm

>  <Rbt.Receptor>
prm/pocket_docking_3.prm

>  <SCORE>
-16.3794

>  <SCORE.INTER>
-13.9283

>  <SCORE.INTER.CONST>
1

>  <SCORE.INTER.POLAR>
0

>  <SCORE.INTER.ROT>
7

>  <SCORE.INTER.SOLV>
16.2231

>  <SCORE.INTER.VDW>
-22.9599

>  <SCORE.INTER.norm>
-0.515864

>  <SCORE.INTRA>
-2.45494

>  <SCORE.INTRA.DIHEDRAL>
-4.43919

>  <SCORE.INTRA.DIHEDRAL.0>
10.4103

>  <SCORE.INTRA.POLAR>
0

>  <SCORE.INTRA.POLAR.0>
0

>  <SCORE.INTRA.REPUL>
0

>  <SCORE.INTRA.REPUL.0>
0

>  <SCORE.INTRA.SOLV>
0.276531

>  <SCORE.INTRA.SOLV.lig_0>
-49.5008

>  <SCORE.INTRA.VDW>
-0.373605

>  <SCORE.INTRA.VDW.0>
-2.6946

>  <SCORE.INTRA.norm>
-0.0909236

>  <SCORE.RESTR>
0.00390164

>  <SCORE.RESTR.CAVITY>
0.00390164

>  <SCORE.RESTR.norm>
0.000144505

>  <SCORE.SYSTEM>
0

>  <SCORE.SYSTEM.CONST>
0

>  <SCORE.SYSTEM.DIHEDRAL>
0

>  <SCORE.SYSTEM.SOLV>
0

>  <SCORE.SYSTEM.norm>
0

>  <SCORE.heavy>
27

>  <SCORE.norm>
-0.606643

>  <RMSD>
5.283

$$$$
ligand
 OpenBabel02271912153D
libRbt.so/2013.1/901 2013/11/27
 27 29  0  0  0  0  0  0  0  0999 V2000
   -0.1921  -11.2979   14.9868 N   0  0  0  0  0  0  0  0  0  0  0  0
    0.1394  -11.8426   16.2897 C   0  0  2  0  0  0  0  0  0  0  0  0
    0.3866  -13.3088   16.1096 C   0  0  0  0  0  0  0  0  0  0  0  0
    0.4719  -14.0414   17.1187 O   0  0  0  0  0  0  0  0  0  0  0  0
   -1.0113  -11.6147   17.2736 C   0  0  0  0  0  0  0  0  0  0  0  0
   -1.4261  -10.1274   17.3238 C   0  0  0  0  0  0  0  0  0  0  0  0
   -2.6969   -9.7651   18.3577 S   0  0  2  0  0  0  0  0  0  0  0  0
   -4.0287  -10.6601   17.9287 C   0  0  0  0  0  0  0  0  0  0  0  0
   -3.0383   -8.1139   18.2844 C   0  0  0  0  0  0  0  0  0  0  0  0
   -4.1049   -7.6466   19.2973 C   0  0  1  0  0  0  0  0  0  0  0  0
   -5.3995   -8.2258   19.0639 O   0  0  0  0  0  0  0  0  0  0  0  0
   -3.8181   -8.0802   20.7258 C   0  0  1  0  0  0  0  0  0  0  0  0
   -2.7808   -7.3753   21.4371 O   0  0  0  0  0  0  0  0  0  0  0  0
   -5.1883   -7.9310   21.3394 C   0  0  1  0  0  0  0  0  0  0  0  0
   -5.5084   -6.5514   21.4920 O   0  0  0  0  0  0  0  0  0  0  0  0
   -6.0780   -8.5229   20.2866 C   0  0  2  0  0  0  0  0  0  0  0  0
    0.4723  -13.7804   14.9506 O   0  0  0  0  0  0  0  0  0  0  0  0
   -4.4086  -13.2351   22.0988 N   0  0  0  0  0  0  0  0  0  0  0  0
   -3.7790  -12.0355   22.1332 C   0  0  0  0  0  0  0  0  0  0  0  0
   -4.3203  -10.9152   21.6259 N   0  0  0  0  0  0  0  0  0  0  0  0
   -5.5360  -10.9081   21.0678 C   0  0  0  0  0  0  0  0  0  0  0  0
   -6.2725  -12.1622   21.0210 C   0  0  0  0  0  0  0  0  0  0  0  0
   -5.6606  -13.3960   21.5665 C   0  0  0  0  0  0  0  0  0  0  0  0
   -6.3076  -14.6141   21.5455 N   0  0  0  0  0  0  0  0  0  0  0  0
   -7.4199  -11.8808   20.4463 N   0  0  0  0  0  0  0  0  0  0  0  0
   -7.4370  -10.5800   20.1247 C   0  0  0  0  0  0  0  0  0  0  0  0
   -6.3059   -9.9848   20.5012 N   0  0  0  0  0  0  0  0  0  0  0  0
  2  1  1  6  0  0  0
  2  3  1  0  0  0  0
  2  5  1  0  0  0  0
  3  4  1  0  0  0  0
  3 17  1  0  0  0  0
  5  6  1  0  0  0  0
  7  6  1  6  0  0  0
  7  8  1  0  0  0  0
  7  9  1  0  0  0  0
 10  9  1  6  0  0  0
 10 11  1  0  0  0  0
 10 12  1  0  0  0  0
 11 16  1  0  0  0  0
 12 13  1  1  0  0  0
 12 14  1  0  0  0  0
 14 15  1  6  0  0  0
 14 16  1  0  0  0  0
 16 27  1  1  0  0  0
 18 19  2  0  0  0  0
 18 23  1  0  0  0  0
 19 20  1  0  0  0  0
 20 21  2  0  0  0  0
 21 22  1  0  0  0  0
 21 27  1  0  0  0  0
 22 23  2  0  0  0  0
 22 25  1  0  0  0  0
 23 24  1  0  0  0  0
 25 26  2  0  0  0  0
 26 27  1  0  0  0  0
M  END
>  <CHROM.1>
-168.19221622,-53.25492254,179.20017815,-57.68426962,-174.50814868,-64.18166698
87.87669375,-3.64062495,-10.60978573,19.32293200,-0.33221501,0.72283848,-0.02502619

>  <Name>
ligand

>  <RI>
0

>  <Rbt.Current_Directory>
/home/itssahil/PROJECTS/Mol_Feturizer/Test_systems_manuscript/rnas/4kqy

>  <Rbt.Executable>
rbdock ($Id: //depot/dev/client3/rdock/2013.1/src/exe/rbdock.cxx#4 $)

>  <Rbt.Library>
libRbt.so (2013.1, Build901 2013/11/27)

>  <Rbt.Parameter_File>
/export/apps/rDock/src/rDock_2013.1_src/data/scripts/dock_solv.prm

>  <Rbt.Receptor>
prm/pocket_docking_4.prm

>  <SCORE>
-21.8359

>  <SCORE.INTER>
-18.6987

>  <SCORE.INTER.CONST>
1

>  <SCORE.INTER.POLAR>
0

>  <SCORE.INTER.ROT>
7

>  <SCORE.INTER.SOLV>
14.1945

>  <SCORE.INTER.VDW>
-25.464

>  <SCORE.INTER.norm>
-0.692544

>  <SCORE.INTRA>
-3.17175

>  <SCORE.INTRA.DIHEDRAL>
-7.30891

>  <SCORE.INTRA.DIHEDRAL.0>
10.4103

>  <SCORE.INTRA.POLAR>
0

>  <SCORE.INTRA.POLAR.0>
0

>  <SCORE.INTRA.REPUL>
0

>  <SCORE.INTRA.REPUL.0>
0

>  <SCORE.INTRA.SOLV>
0.485854

>  <SCORE.INTRA.SOLV.lig_0>
-49.5008

>  <SCORE.INTRA.VDW>
0.239784

>  <SCORE.INTRA.VDW.0>
-2.6946

>  <SCORE.INTRA.norm>
-0.117472

>  <SCORE.RESTR>
0.0345813

>  <SCORE.RESTR.CAVITY>
0.0345813

>  <SCORE.RESTR.norm>
0.00128079

>  <SCORE.SYSTEM>
0

>  <SCORE.SYSTEM.CONST>
0

>  <SCORE.SYSTEM.DIHEDRAL>
0

>  <SCORE.SYSTEM.SOLV>
0

>  <SCORE.SYSTEM.norm>
0

>  <SCORE.heavy>
27

>  <SCORE.norm>
-0.808736

>  <RMSD>
5.287

$$$$
ligand
 OpenBabel02271912153D
libRbt.so/2013.1/901 2013/11/27
 27 29  0  0  0  0  0  0  0  0999 V2000
   -3.9470  -13.5113   15.5925 N   0  0  0  0  0  0  0  0  0  0  0  0
   -4.0091  -12.1720   16.1463 C   0  0  2  0  0  0  0  0  0  0  0  0
   -4.9595  -12.2122   17.3032 C   0  0  0  0  0  0  0  0  0  0  0  0
   -4.5800  -11.7959   18.4190 O   0  0  0  0  0  0  0  0  0  0  0  0
   -4.4996  -11.1782   15.0900 C   0  0  0  0  0  0  0  0  0  0  0  0
   -4.3011   -9.7177   15.5525 C   0  0  0  0  0  0  0  0  0  0  0  0
   -5.2322   -9.2413   16.8645 S   0  0  2  0  0  0  0  0  0  0  0  0
   -6.8067   -9.0355   16.3772 C   0  0  0  0  0  0  0  0  0  0  0  0
   -4.6153   -7.8097   17.5114 C   0  0  0  0  0  0  0  0  0  0  0  0
   -4.7517   -7.7024   19.0449 C   0  0  1  0  0  0  0  0  0  0  0  0
   -6.0563   -8.0687   19.5243 O   0  0  0  0  0  0  0  0  0  0  0  0
   -3.8545   -8.6665   19.8041 C   0  0  1  0  0  0  0  0  0  0  0  0
   -2.4490   -8.3519   19.8702 O   0  0  0  0  0  0  0  0  0  0  0  0
   -4.5404   -8.6812   21.1478 C   0  0  1  0  0  0  0  0  0  0  0  0
   -4.3152   -7.4486   21.8253 O   0  0  0  0  0  0  0  0  0  0  0  0
   -5.9889   -8.7697   20.7683 C   0  0  2  0  0  0  0  0  0  0  0  0
   -6.1276  -12.6328   17.1253 O   0  0  0  0  0  0  0  0  0  0  0  0
   -5.2663  -13.9434   21.7617 N   0  0  0  0  0  0  0  0  0  0  0  0
   -4.4667  -12.8945   22.0733 C   0  0  0  0  0  0  0  0  0  0  0  0
   -4.7723  -11.6263   21.7515 N   0  0  0  0  0  0  0  0  0  0  0  0
   -5.9064  -11.3126   21.1152 C   0  0  0  0  0  0  0  0  0  0  0  0
   -6.8180  -12.3938   20.7728 C   0  0  0  0  0  0  0  0  0  0  0  0
   -6.4646  -13.7909   21.1156 C   0  0  0  0  0  0  0  0  0  0  0  0
   -7.2856  -14.8572   20.8123 N   0  0  0  0  0  0  0  0  0  0  0  0
   -7.8411  -11.8231   20.1782 N   0  0  0  0  0  0  0  0  0  0  0  0
   -7.6236  -10.5024   20.1122 C   0  0  0  0  0  0  0  0  0  0  0  0
   -6.4606  -10.1857   20.6802 N   0  0  0  0  0  0  0  0  0  0  0  0
  2  1  1  6  0  0  0
  2  3  1  0  0  0  0
  2  5  1  0  0  0  0
  3  4  1  0  0  0  0
  3 17  1  0  0  0  0
  5  6  1  0  0  0  0
  7  6  1  6  0  0  0
  7  8  1  0  0  0  0
  7  9  1  0  0  0  0
 10  9  1  6  0  0  0
 10 11  1  0  0  0  0
 10 12  1  0  0  0  0
 11 16  1  0  0  0  0
 12 13  1  1  0  0  0
 12 14  1  0  0  0  0
 14 15  1  6  0  0  0
 14 16  1  0  0  0  0
 16 27  1  6  0  0  0
 18 19  2  0  0  0  0
 18 23  1  0  0  0  0
 19 20  1  0  0  0  0
 20 21  2  0  0  0  0
 21 22  1  0  0  0  0
 21 27  1  0  0  0  0
 22 23  2  0  0  0  0
 22 25  1  0  0  0  0
 23 24  1  0  0  0  0
 25 26  2  0  0  0  0
 26 27  1  0  0  0  0
M  END
>  <CHROM.1>
126.03657580,-168.28497148,-66.46660767,-73.93300908,-145.47280351,-46.23580712
131.47803925,-5.30144455,-10.62603588,19.04621395,0.32066605,-1.30007863
-2.13953314

>  <Name>
ligand

>  <RI>
0

>  <Rbt.Current_Directory>
/home/itssahil/PROJECTS/Mol_Feturizer/Test_systems_manuscript/rnas/4kqy

>  <Rbt.Executable>
rbdock ($Id: //depot/dev/client3/rdock/2013.1/src/exe/rbdock.cxx#4 $)

>  <Rbt.Library>
libRbt.so (2013.1, Build901 2013/11/27)

>  <Rbt.Parameter_File>
/export/apps/rDock/src/rDock_2013.1_src/data/scripts/dock_solv.prm

>  <Rbt.Receptor>
prm/pocket_docking_5.prm

>  <SCORE>
-16.4635

>  <SCORE.INTER>
-12.1305

>  <SCORE.INTER.CONST>
1

>  <SCORE.INTER.POLAR>
0

>  <SCORE.INTER.ROT>
7

>  <SCORE.INTER.SOLV>
14.4898

>  <SCORE.INTER.VDW>
-21.1836

>  <SCORE.INTER.norm>
-0.449276

>  <SCORE.INTRA>
-4.33304

>  <SCORE.INTRA.DIHEDRAL>
-2.79622

>  <SCORE.INTRA.DIHEDRAL.0>
10.4103

>  <SCORE.INTRA.POLAR>
0

>  <SCORE.INTRA.POLAR.0>
0

>  <SCORE.INTRA.REPUL>
0

>  <SCORE.INTRA.REPUL.0>
0

>  <SCORE.INTRA.SOLV>
-0.329647

>  <SCORE.INTRA.SOLV.lig_0>
-49.5008

>  <SCORE.INTRA.VDW>
-2.7701

>  <SCORE.INTRA.VDW.0>
-2.6946

>  <SCORE.INTRA.norm>
-0.160483

>  <SCORE.RESTR>
0

>  <SCORE.RESTR.CAVITY>
0

>  <SCORE.RESTR.norm>
0

>  <SCORE.SYSTEM>
0

>  <SCORE.SYSTEM.CONST>
0

>  <SCORE.SYSTEM.DIHEDRAL>
0

>  <SCORE.SYSTEM.SOLV>
0

>  <SCORE.SYSTEM.norm>
0

>  <SCORE.heavy>
27

>  <SCORE.norm>
-0.609759

>  <RMSD>
5.290

$$$$
ligand
 OpenBabel02271912153D
libRbt.so/2013.1/901 2013/11/27
 27 29  0  0  0  0  0  0  0  0999 V2000
   -4.0567  -13.2867   14.9684 N   0  0  0  0  0  0  0  0  0  0  0  0
   -4.6472  -11.9618   14.9764 C   0  0  2  0  0  0  0  0  0  0  0  0
   -5.4364  -11.8184   13.7116 C   0  0  0  0  0  0  0  0  0  0  0  0
   -4.8673  -12.0002   12.6137 O   0  0  0  0  0  0  0  0  0  0  0  0
   -3.5562  -10.8900   15.0464 C   0  0  0  0  0  0  0  0  0  0  0  0
   -4.1453   -9.5055   15.3966 C   0  0  0  0  0  0  0  0  0  0  0  0
   -4.8157   -9.3710   16.9289 S   0  0  2  0  0  0  0  0  0  0  0  0
   -6.4394   -9.7120   16.8519 C   0  0  0  0  0  0  0  0  0  0  0  0
   -4.5603   -7.8140   17.5281 C   0  0  0  0  0  0  0  0  0  0  0  0
   -4.7673   -7.6848   19.0520 C   0  0  1  0  0  0  0  0  0  0  0  0
   -6.0853   -8.0679   19.4788 O   0  0  0  0  0  0  0  0  0  0  0  0
   -3.8878   -8.6195   19.8666 C   0  0  1  0  0  0  0  0  0  0  0  0
   -2.4926   -8.2775   19.9900 O   0  0  0  0  0  0  0  0  0  0  0  0
   -4.6329   -8.6256   21.1784 C   0  0  1  0  0  0  0  0  0  0  0  0
   -4.4608   -7.3783   21.8445 O   0  0  0  0  0  0  0  0  0  0  0  0
   -6.0611   -8.7475   20.7362 C   0  0  2  0  0  0  0  0  0  0  0  0
   -6.6598  -11.5498   13.7769 O   0  0  0  0  0  0  0  0  0  0  0  0
   -5.2537  -13.8976   21.7851 N   0  0  0  0  0  0  0  0  0  0  0  0
   -4.4813  -12.8304   22.1029 C   0  0  0  0  0  0  0  0  0  0  0  0
   -4.8061  -11.5712   21.7651 N   0  0  0  0  0  0  0  0  0  0  0  0
   -5.9342  -11.2854   21.1054 C   0  0  0  0  0  0  0  0  0  0  0  0
   -6.8175  -12.3875   20.7551 C   0  0  0  0  0  0  0  0  0  0  0  0
   -6.4426  -13.7744   21.1158 C   0  0  0  0  0  0  0  0  0  0  0  0
   -7.2362  -14.8593   20.8061 N   0  0  0  0  0  0  0  0  0  0  0  0
   -7.8404  -11.8421   20.1370 N   0  0  0  0  0  0  0  0  0  0  0  0
   -7.6482  -10.5179   20.0642 C   0  0  0  0  0  0  0  0  0  0  0  0
   -6.5026  -10.1733   20.6510 N   0  0  0  0  0  0  0  0  0  0  0  0
  2  1  1  6  0  0  0
  2  3  1  0  0  0  0
  2  5  1  0  0  0  0
  3  4  1  0  0  0  0
  3 17  1  0  0  0  0
  5  6  1  0  0  0  0
  7  6  1  6  0  0  0
  7  8  1  0  0  0  0
  7  9  1  0  0  0  0
 10  9  1  6  0  0  0
 10 11  1  0  0  0  0
 10 12  1  0  0  0  0
 11 16  1  0  0  0  0
 12 13  1  1  0  0  0
 12 14  1  0  0  0  0
 14 15  1  6  0  0  0
 14 16  1  0  0  0  0
 16 27  1  6  0  0  0
 18 19  2  0  0  0  0
 18 23  1  0  0  0  0
 19 20  1  0  0  0  0
 20 21  2  0  0  0  0
 21 22  1  0  0  0  0
 21 27  1  0  0  0  0
 22 23  2  0  0  0  0
 22 25  1  0  0  0  0
 23 24  1  0  0  0  0
 25 26  2  0  0  0  0
 26 27  1  0  0  0  0
M  END
>  <CHROM.1>
-55.82576333,-166.30600390,65.76656975,-92.37503804,-163.55945883,-58.40571437
129.89788845,-5.30300482,-10.56467040,18.51942674,1.28876183,-1.23515134
-1.90577668

>  <Name>
ligand

>  <RI>
0

>  <Rbt.Current_Directory>
/home/itssahil/PROJECTS/Mol_Feturizer/Test_systems_manuscript/rnas/4kqy

>  <Rbt.Executable>
rbdock ($Id: //depot/dev/client3/rdock/2013.1/src/exe/rbdock.cxx#4 $)

>  <Rbt.Library>
libRbt.so (2013.1, Build901 2013/11/27)

>  <Rbt.Parameter_File>
/export/apps/rDock/src/rDock_2013.1_src/data/scripts/dock_solv.prm

>  <Rbt.Receptor>
prm/pocket_docking_7.prm

>  <SCORE>
-16.5235

>  <SCORE.INTER>
-13.9475

>  <SCORE.INTER.CONST>
1

>  <SCORE.INTER.POLAR>
0

>  <SCORE.INTER.ROT>
7

>  <SCORE.INTER.SOLV>
14.9304

>  <SCORE.INTER.VDW>
-22.5418

>  <SCORE.INTER.norm>
-0.516574

>  <SCORE.INTRA>
-2.57602

>  <SCORE.INTRA.DIHEDRAL>
-3.25985

>  <SCORE.INTRA.DIHEDRAL.0>
10.4103

>  <SCORE.INTRA.POLAR>
0

>  <SCORE.INTRA.POLAR.0>
0

>  <SCORE.INTRA.REPUL>
0

>  <SCORE.INTRA.REPUL.0>
0

>  <SCORE.INTRA.SOLV>
-0.139373

>  <SCORE.INTRA.SOLV.lig_0>
-49.5008

>  <SCORE.INTRA.VDW>
-0.876409

>  <SCORE.INTRA.VDW.0>
-2.6946

>  <SCORE.INTRA.norm>
-0.0954082

>  <SCORE.RESTR>
0

>  <SCORE.RESTR.CAVITY>
0

>  <SCORE.RESTR.norm>
0

>  <SCORE.SYSTEM>
0

>  <SCORE.SYSTEM.CONST>
0

>  <SCORE.SYSTEM.DIHEDRAL>
0

>  <SCORE.SYSTEM.SOLV>
0

>  <SCORE.SYSTEM.norm>
0

>  <SCORE.heavy>
27

>  <SCORE.norm>
-0.611982

>  <RMSD>
5.292

$$$$
ligand
 OpenBabel02271912153D
libRbt.so/2013.1/901 2013/11/27
 27 29  0  0  0  0  0  0  0  0999 V2000
   -3.5233  -12.1045   18.4973 N   0  0  0  0  0  0  0  0  0  0  0  0
   -3.9722  -12.3219   17.1352 C   0  0  2  0  0  0  0  0  0  0  0  0
   -3.2930  -13.5592   16.6345 C   0  0  0  0  0  0  0  0  0  0  0  0
   -2.6243  -14.2526   17.4309 O   0  0  0  0  0  0  0  0  0  0  0  0
   -3.6094  -11.1232   16.2544 C   0  0  0  0  0  0  0  0  0  0  0  0
   -4.5069   -9.9038   16.5615 C   0  0  0  0  0  0  0  0  0  0  0  0
   -3.7252   -8.4195   16.5922 S   0  0  2  0  0  0  0  0  0  0  0  0
   -2.3929   -8.4776   15.6021 C   0  0  0  0  0  0  0  0  0  0  0  0
   -3.2767   -8.0441   18.1754 C   0  0  0  0  0  0  0  0  0  0  0  0
   -4.4502   -7.5966   19.0722 C   0  0  1  0  0  0  0  0  0  0  0  0
   -5.6684   -8.3130   18.8100 O   0  0  0  0  0  0  0  0  0  0  0  0
   -4.2292   -7.8801   20.5493 C   0  0  1  0  0  0  0  0  0  0  0  0
   -3.3121   -7.0234   21.2589 O   0  0  0  0  0  0  0  0  0  0  0  0
   -5.6477   -7.8103   21.0585 C   0  0  1  0  0  0  0  0  0  0  0  0
   -6.0988   -6.4592   21.0658 O   0  0  0  0  0  0  0  0  0  0  0  0
   -6.4038   -8.5695   20.0087 C   0  0  2  0  0  0  0  0  0  0  0  0
   -3.4326  -13.8948   15.4341 O   0  0  0  0  0  0  0  0  0  0  0  0
   -4.3541  -12.9872   22.1438 N   0  0  0  0  0  0  0  0  0  0  0  0
   -3.8180  -11.7445   22.0743 C   0  0  0  0  0  0  0  0  0  0  0  0
   -4.4502  -10.7111   21.4932 N   0  0  0  0  0  0  0  0  0  0  0  0
   -5.6702  -10.8391   20.9596 C   0  0  0  0  0  0  0  0  0  0  0  0
   -6.3089  -12.1450   21.0230 C   0  0  0  0  0  0  0  0  0  0  0  0
   -5.5971  -13.2830   21.6495 C   0  0  0  0  0  0  0  0  0  0  0  0
   -6.1490  -14.5443   21.7342 N   0  0  0  0  0  0  0  0  0  0  0  0
   -7.4821  -11.9965   20.4506 N   0  0  0  0  0  0  0  0  0  0  0  0
   -7.6031  -10.7296   20.0307 C   0  0  0  0  0  0  0  0  0  0  0  0
   -6.5160  -10.0233   20.3389 N   0  0  0  0  0  0  0  0  0  0  0  0
  2  1  1  1  0  0  0
  2  3  1  0  0  0  0
  2  5  1  0  0  0  0
  3  4  1  0  0  0  0
  3 17  1  0  0  0  0
  5  6  1  0  0  0  0
  7  6  1  1  0  0  0
  7  8  1  0  0  0  0
  7  9  1  0  0  0  0
 10  9  1  6  0  0  0
 10 11  1  0  0  0  0
 10 12  1  0  0  0  0
 11 16  1  0  0  0  0
 12 13  1  1  0  0  0
 12 14  1  0  0  0  0
 14 15  1  6  0  0  0
 14 16  1  0  0  0  0
 16 27  1  1  0  0  0
 18 19  2  0  0  0  0
 18 23  1  0  0  0  0
 19 20  1  0  0  0  0
 20 21  2  0  0  0  0
 21 22  1  0  0  0  0
 21 27  1  0  0  0  0
 22 23  2  0  0  0  0
 22 25  1  0  0  0  0
 23 24  1  0  0  0  0
 25 26  2  0  0  0  0
 26 27  1  0  0  0  0
M  END
>  <CHROM.1>
7.69476317,-73.13042899,139.10035867,27.46216204,-74.84185640,37.29292961
82.94403752,-4.65627977,-10.40389319,19.14865799,-1.00354375,1.11232695,-0.00522433

>  <Name>
ligand

>  <RI>
0

>  <Rbt.Current_Directory>
/home/itssahil/PROJECTS/Mol_Feturizer/Test_systems_manuscript/rnas/4kqy

>  <Rbt.Executable>
rbdock ($Id: //depot/dev/client3/rdock/2013.1/src/exe/rbdock.cxx#4 $)

>  <Rbt.Library>
libRbt.so (2013.1, Build901 2013/11/27)

>  <Rbt.Parameter_File>
/export/apps/rDock/src/rDock_2013.1_src/data/scripts/dock_solv.prm

>  <Rbt.Receptor>
prm/pocket_docking_3.prm

>  <SCORE>
-13.6416

>  <SCORE.INTER>
-16.4595

>  <SCORE.INTER.CONST>
1

>  <SCORE.INTER.POLAR>
0

>  <SCORE.INTER.ROT>
7

>  <SCORE.INTER.SOLV>
14.1109

>  <SCORE.INTER.VDW>
-23.9433

>  <SCORE.INTER.norm>
-0.60961

>  <SCORE.INTRA>
2.81791

>  <SCORE.INTRA.DIHEDRAL>
2.35101

>  <SCORE.INTRA.DIHEDRAL.0>
10.4103

>  <SCORE.INTRA.POLAR>
0

>  <SCORE.INTRA.POLAR.0>
0

>  <SCORE.INTRA.REPUL>
0

>  <SCORE.INTRA.REPUL.0>
0

>  <SCORE.INTRA.SOLV>
1.87656

>  <SCORE.INTRA.SOLV.lig_0>
-49.5008

>  <SCORE.INTRA.VDW>
0.704128

>  <SCORE.INTRA.VDW.0>
-2.6946

>  <SCORE.INTRA.norm>
0.104367

>  <SCORE.RESTR>
0

>  <SCORE.RESTR.CAVITY>
0

>  <SCORE.RESTR.norm>
0

>  <SCORE.SYSTEM>
0

>  <SCORE.SYSTEM.CONST>
0

>  <SCORE.SYSTEM.DIHEDRAL>
0

>  <SCORE.SYSTEM.SOLV>
0

>  <SCORE.SYSTEM.norm>
0

>  <SCORE.heavy>
27

>  <SCORE.norm>
-0.505243

>  <RMSD>
5.293

$$$$
ligand
 OpenBabel02271912153D
libRbt.so/2013.1/901 2013/11/27
 27 29  0  0  0  0  0  0  0  0999 V2000
    0.0338  -12.0883   14.0485 N   0  0  0  0  0  0  0  0  0  0  0  0
    0.0977  -11.3816   15.3136 C   0  0  2  0  0  0  0  0  0  0  0  0
    0.4336  -12.3888   16.3699 C   0  0  0  0  0  0  0  0  0  0  0  0
    1.3139  -12.1165   17.2145 O   0  0  0  0  0  0  0  0  0  0  0  0
   -1.2456  -10.7152   15.6228 C   0  0  0  0  0  0  0  0  0  0  0  0
   -1.1704   -9.8609   16.9077 C   0  0  0  0  0  0  0  0  0  0  0  0
   -2.5622   -9.0053   17.2902 S   0  0  2  0  0  0  0  0  0  0  0  0
   -2.6995   -7.6955   16.2782 C   0  0  0  0  0  0  0  0  0  0  0  0
   -2.5019   -8.5103   18.9027 C   0  0  0  0  0  0  0  0  0  0  0  0
   -3.8230   -7.9075   19.4253 C   0  0  1  0  0  0  0  0  0  0  0  0
   -4.9900   -8.5758   18.9181 O   0  0  0  0  0  0  0  0  0  0  0  0
   -4.0048   -8.0518   20.9277 C   0  0  1  0  0  0  0  0  0  0  0  0
   -3.2293   -7.1815   21.7761 O   0  0  0  0  0  0  0  0  0  0  0  0
   -5.4952   -7.8495   21.0455 C   0  0  1  0  0  0  0  0  0  0  0  0
   -5.8221   -6.4810   20.8233 O   0  0  0  0  0  0  0  0  0  0  0  0
   -6.0219   -8.6667   19.9032 C   0  0  2  0  0  0  0  0  0  0  0  0
   -0.1951  -13.4735   16.4078 O   0  0  0  0  0  0  0  0  0  0  0  0
   -4.4581  -13.3432   21.8934 N   0  0  0  0  0  0  0  0  0  0  0  0
   -3.7314  -12.2186   21.6841 C   0  0  0  0  0  0  0  0  0  0  0  0
   -4.2588  -11.0986   21.1618 N   0  0  0  0  0  0  0  0  0  0  0  0
   -5.5523  -11.0144   20.8314 C   0  0  0  0  0  0  0  0  0  0  0  0
   -6.3907  -12.1827   21.0536 C   0  0  0  0  0  0  0  0  0  0  0  0
   -5.7969  -13.4191   21.6131 C   0  0  0  0  0  0  0  0  0  0  0  0
   -6.5397  -14.5589   21.8407 N   0  0  0  0  0  0  0  0  0  0  0  0
   -7.5966  -11.8356   20.6649 N   0  0  0  0  0  0  0  0  0  0  0  0
   -7.5607  -10.5751   20.2113 C   0  0  0  0  0  0  0  0  0  0  0  0
   -6.3316  -10.0706   20.3133 N   0  0  0  0  0  0  0  0  0  0  0  0
  2  1  1  6  0  0  0
  2  3  1  0  0  0  0
  2  5  1  0  0  0  0
  3  4  1  0  0  0  0
  3 17  1  0  0  0  0
  5  6  1  0  0  0  0
  7  6  1  6  0  0  0
  7  8  1  0  0  0  0
  7  9  1  0  0  0  0
 10  9  1  6  0  0  0
 10 11  1  0  0  0  0
 10 12  1  0  0  0  0
 11 16  1  0  0  0  0
 12 13  1  1  0  0  0
 12 14  1  0  0  0  0
 14 15  1  6  0  0  0
 14 16  1  0  0  0  0
 16 27  1  1  0  0  0
 18 19  2  0  0  0  0
 18 23  1  0  0  0  0
 19 20  1  0  0  0  0
 20 21  2  0  0  0  0
 21 22  1  0  0  0  0
 21 27  1  0  0  0  0
 22 23  2  0  0  0  0
 22 25  1  0  0  0  0
 23 24  1  0  0  0  0
 25 26  2  0  0  0  0
 26 27  1  0  0  0  0
M  END
>  <CHROM.1>
134.23814848,-175.37406852,176.30738601,-75.17275663,-170.91877044,37.81775201
57.92138284,-3.58847955,-10.33215084,19.06570059,0.03159817,-0.74263377,3.02575177

>  <Name>
ligand

>  <RI>
0

>  <Rbt.Current_Directory>
/home/itssahil/PROJECTS/Mol_Feturizer/Test_systems_manuscript/rnas/4kqy

>  <Rbt.Executable>
rbdock ($Id: //depot/dev/client3/rdock/2013.1/src/exe/rbdock.cxx#4 $)

>  <Rbt.Library>
libRbt.so (2013.1, Build901 2013/11/27)

>  <Rbt.Parameter_File>
/export/apps/rDock/src/rDock_2013.1_src/data/scripts/dock_solv.prm

>  <Rbt.Receptor>
prm/pocket_docking_4.prm

>  <SCORE>
-22.1973

>  <SCORE.INTER>
-19.1774

>  <SCORE.INTER.CONST>
1

>  <SCORE.INTER.POLAR>
0

>  <SCORE.INTER.ROT>
7

>  <SCORE.INTER.SOLV>
14.7668

>  <SCORE.INTER.VDW>
-25.9739

>  <SCORE.INTER.norm>
-0.710273

>  <SCORE.INTRA>
-3.02484

>  <SCORE.INTRA.DIHEDRAL>
-5.04719

>  <SCORE.INTRA.DIHEDRAL.0>
10.4103

>  <SCORE.INTRA.POLAR>
0

>  <SCORE.INTRA.POLAR.0>
0

>  <SCORE.INTRA.REPUL>
0

>  <SCORE.INTRA.REPUL.0>
0

>  <SCORE.INTRA.SOLV>
-0.59285

>  <SCORE.INTRA.SOLV.lig_0>
-49.5008

>  <SCORE.INTRA.VDW>
-0.204823

>  <SCORE.INTRA.VDW.0>
-2.6946

>  <SCORE.INTRA.norm>
-0.112031

>  <SCORE.RESTR>
0.00489496

>  <SCORE.RESTR.CAVITY>
0.00489496

>  <SCORE.RESTR.norm>
0.000181295

>  <SCORE.SYSTEM>
0

>  <SCORE.SYSTEM.CONST>
0

>  <SCORE.SYSTEM.DIHEDRAL>
0

>  <SCORE.SYSTEM.SOLV>
0

>  <SCORE.SYSTEM.norm>
0

>  <SCORE.heavy>
27

>  <SCORE.norm>
-0.822123

>  <RMSD>
5.293

$$$$
ligand
 OpenBabel02271912153D
libRbt.so/2013.1/901 2013/11/27
 27 29  0  0  0  0  0  0  0  0999 V2000
   -2.1330  -11.6333   15.6267 N   0  0  0  0  0  0  0  0  0  0  0  0
   -3.5601  -11.8927   15.6409 C   0  0  2  0  0  0  0  0  0  0  0  0
   -3.7675  -13.2722   15.0960 C   0  0  0  0  0  0  0  0  0  0  0  0
   -2.8905  -13.7762   14.3617 O   0  0  0  0  0  0  0  0  0  0  0  0
   -4.2996  -10.8647   14.7803 C   0  0  0  0  0  0  0  0  0  0  0  0
   -4.2336   -9.4530   15.4041 C   0  0  0  0  0  0  0  0  0  0  0  0
   -4.9306   -9.2997   16.9227 S   0  0  2  0  0  0  0  0  0  0  0  0
   -6.5761   -9.4857   16.7952 C   0  0  0  0  0  0  0  0  0  0  0  0
   -4.5491   -7.7906   17.5752 C   0  0  0  0  0  0  0  0  0  0  0  0
   -4.7811   -7.6868   19.0974 C   0  0  1  0  0  0  0  0  0  0  0  0
   -6.1019   -8.0882   19.4975 O   0  0  0  0  0  0  0  0  0  0  0  0
   -3.9058   -8.6260   19.9114 C   0  0  1  0  0  0  0  0  0  0  0  0
   -2.5159   -8.2734   20.0621 O   0  0  0  0  0  0  0  0  0  0  0  0
   -4.6713   -8.6591   21.2111 C   0  0  1  0  0  0  0  0  0  0  0  0
   -4.5211   -7.4207   21.8987 O   0  0  0  0  0  0  0  0  0  0  0  0
   -6.0912   -8.7870   20.7446 C   0  0  2  0  0  0  0  0  0  0  0  0
   -4.8011  -13.9092   15.4109 O   0  0  0  0  0  0  0  0  0  0  0  0
   -5.2345  -13.9481   21.6957 N   0  0  0  0  0  0  0  0  0  0  0  0
   -4.4736  -12.8796   22.0361 C   0  0  0  0  0  0  0  0  0  0  0  0
   -4.8103  -11.6174   21.7219 N   0  0  0  0  0  0  0  0  0  0  0  0
   -5.9396  -11.3302   21.0649 C   0  0  0  0  0  0  0  0  0  0  0  0
   -6.8109  -12.4340   20.6911 C   0  0  0  0  0  0  0  0  0  0  0  0
   -6.4230  -13.8239   21.0258 C   0  0  0  0  0  0  0  0  0  0  0  0
   -7.2049  -14.9105   20.6931 N   0  0  0  0  0  0  0  0  0  0  0  0
   -7.8378  -11.8871   20.0810 N   0  0  0  0  0  0  0  0  0  0  0  0
   -7.6588  -10.5598   20.0343 C   0  0  0  0  0  0  0  0  0  0  0  0
   -6.5181  -10.2152   20.6307 N   0  0  0  0  0  0  0  0  0  0  0  0
  2  1  1  6  0  0  0
  2  3  1  0  0  0  0
  2  5  1  0  0  0  0
  3  4  1  0  0  0  0
  3 17  1  0  0  0  0
  5  6  1  0  0  0  0
  7  6  1  6  0  0  0
  7  8  1  0  0  0  0
  7  9  1  0  0  0  0
 10  9  1  6  0  0  0
 10 11  1  0  0  0  0
 10 12  1  0  0  0  0
 11 16  1  0  0  0  0
 12 13  1  1  0  0  0
 12 14  1  0  0  0  0
 14 15  1  6  0  0  0
 14 16  1  0  0  0  0
 16 27  1  6  0  0  0
 18 19  2  0  0  0  0
 18 23  1  0  0  0  0
 19 20  1  0  0  0  0
 20 21  2  0  0  0  0
 21 22  1  0  0  0  0
 21 27  1  0  0  0  0
 22 23  2  0  0  0  0
 22 25  1  0  0  0  0
 23 24  1  0  0  0  0
 25 26  2  0  0  0  0
 26 27  1  0  0  0  0
M  END
>  <CHROM.1>
-22.65342299,-67.80672557,-61.19032529,-68.00600107,-163.38520456,-52.55200680
129.10598354,-5.03905595,-10.71972090,18.72592310,-0.65551867,1.19303933
0.44051327

>  <Name>
ligand

>  <RI>
0

>  <Rbt.Current_Directory>
/home/itssahil/PROJECTS/Mol_Feturizer/Test_systems_manuscript/rnas/4kqy

>  <Rbt.Executable>
rbdock ($Id: //depot/dev/client3/rdock/2013.1/src/exe/rbdock.cxx#4 $)

>  <Rbt.Library>
libRbt.so (2013.1, Build901 2013/11/27)

>  <Rbt.Parameter_File>
/export/apps/rDock/src/rDock_2013.1_src/data/scripts/dock_solv.prm

>  <Rbt.Receptor>
prm/pocket_docking_4.prm

>  <SCORE>
-17.2165

>  <SCORE.INTER>
-14.2497

>  <SCORE.INTER.CONST>
1

>  <SCORE.INTER.POLAR>
0

>  <SCORE.INTER.ROT>
7

>  <SCORE.INTER.SOLV>
11.8977

>  <SCORE.INTER.VDW>
-21.7324

>  <SCORE.INTER.norm>
-0.527765

>  <SCORE.INTRA>
-2.96686

>  <SCORE.INTRA.DIHEDRAL>
-6.16096

>  <SCORE.INTRA.DIHEDRAL.0>
10.4103

>  <SCORE.INTRA.POLAR>
0

>  <SCORE.INTRA.POLAR.0>
0

>  <SCORE.INTRA.REPUL>
0

>  <SCORE.INTRA.REPUL.0>
0

>  <SCORE.INTRA.SOLV>
0.806936

>  <SCORE.INTRA.SOLV.lig_0>
-49.5008

>  <SCORE.INTRA.VDW>
-0.289852

>  <SCORE.INTRA.VDW.0>
-2.6946

>  <SCORE.INTRA.norm>
-0.109884

>  <SCORE.RESTR>
0

>  <SCORE.RESTR.CAVITY>
0

>  <SCORE.RESTR.norm>
0

>  <SCORE.SYSTEM>
0

>  <SCORE.SYSTEM.CONST>
0

>  <SCORE.SYSTEM.DIHEDRAL>
0

>  <SCORE.SYSTEM.SOLV>
0

>  <SCORE.SYSTEM.norm>
0

>  <SCORE.heavy>
27

>  <SCORE.norm>
-0.637649

>  <RMSD>
5.295

$$$$
ligand
 OpenBabel02271912153D
libRbt.so/2013.1/901 2013/11/27
 27 29  0  0  0  0  0  0  0  0999 V2000
    0.0611  -12.0019   13.9604 N   0  0  0  0  0  0  0  0  0  0  0  0
   -0.0833  -11.5807   15.3410 C   0  0  2  0  0  0  0  0  0  0  0  0
   -0.4558  -12.7918   16.1394 C   0  0  0  0  0  0  0  0  0  0  0  0
    0.1520  -13.0303   17.2052 O   0  0  0  0  0  0  0  0  0  0  0  0
   -1.1700  -10.5090   15.4626 C   0  0  0  0  0  0  0  0  0  0  0  0
   -1.2671   -9.9635   16.9047 C   0  0  0  0  0  0  0  0  0  0  0  0
   -2.5902   -8.9807   17.2190 S   0  0  2  0  0  0  0  0  0  0  0  0
   -2.5172   -7.6322   16.2520 C   0  0  0  0  0  0  0  0  0  0  0  0
   -2.6029   -8.5462   18.8498 C   0  0  0  0  0  0  0  0  0  0  0  0
   -3.9336   -7.9255   19.3249 C   0  0  1  0  0  0  0  0  0  0  0  0
   -5.0898   -8.5540   18.7469 O   0  0  0  0  0  0  0  0  0  0  0  0
   -4.1896   -8.1016   20.8130 C   0  0  1  0  0  0  0  0  0  0  0  0
   -3.4361   -7.2702   21.7184 O   0  0  0  0  0  0  0  0  0  0  0  0
   -5.6791   -7.8674   20.8660 C   0  0  1  0  0  0  0  0  0  0  0  0
   -5.9646   -6.4868   20.6631 O   0  0  0  0  0  0  0  0  0  0  0  0
   -6.1690   -8.6445   19.6801 C   0  0  2  0  0  0  0  0  0  0  0  0
   -1.3909  -13.5270   15.7418 O   0  0  0  0  0  0  0  0  0  0  0  0
   -4.9757  -13.8250   19.8027 N   0  0  0  0  0  0  0  0  0  0  0  0
   -4.2441  -12.7916   19.3194 C   0  0  0  0  0  0  0  0  0  0  0  0
   -4.6758  -11.5196   19.3464 N   0  0  0  0  0  0  0  0  0  0  0  0
   -5.8578  -11.1858   19.8763 C   0  0  0  0  0  0  0  0  0  0  0  0
   -6.6808  -12.2492   20.4325 C   0  0  0  0  0  0  0  0  0  0  0  0
   -6.2048  -13.6510   20.3823 C   0  0  0  0  0  0  0  0  0  0  0  0
   -6.9425  -14.7011   20.8881 N   0  0  0  0  0  0  0  0  0  0  0  0
   -7.7617  -11.6605   20.8918 N   0  0  0  0  0  0  0  0  0  0  0  0
   -7.6772  -10.3456   20.6477 C   0  0  0  0  0  0  0  0  0  0  0  0
   -6.5288  -10.0503   20.0398 N   0  0  0  0  0  0  0  0  0  0  0  0
  2  1  1  6  0  0  0
  2  3  1  0  0  0  0
  2  5  1  0  0  0  0
  3  4  1  0  0  0  0
  3 17  1  0  0  0  0
  5  6  1  0  0  0  0
  7  6  1  1  0  0  0
  7  8  1  0  0  0  0
  7  9  1  0  0  0  0
 10  9  1  6  0  0  0
 10 11  1  0  0  0  0
 10 12  1  0  0  0  0
 11 16  1  0  0  0  0
 12 13  1  1  0  0  0
 12 14  1  0  0  0  0
 14 15  1  6  0  0  0
 14 16  1  0  0  0  0
 16 27  1  1  0  0  0
 18 19  2  0  0  0  0
 18 23  1  0  0  0  0
 19 20  1  0  0  0  0
 20 21  2  0  0  0  0
 21 22  1  0  0  0  0
 21 27  1  0  0  0  0
 22 23  2  0  0  0  0
 22 25  1  0  0  0  0
 23 24  1  0  0  0  0
 25 26  2  0  0  0  0
 26 27  1  0  0  0  0
M  END
>  <CHROM.1>
132.46073738,-175.52496316,-169.94010105,-61.77337934,-166.42971055,38.63563665
16.35053214,-3.86772315,-10.44144864,18.65580752,0.28884709,-0.69312362,-3.01384245

>  <Name>
ligand

>  <RI>
0

>  <Rbt.Current_Directory>
/home/itssahil/PROJECTS/Mol_Feturizer/Test_systems_manuscript/rnas/4kqy

>  <Rbt.Executable>
rbdock ($Id: //depot/dev/client3/rdock/2013.1/src/exe/rbdock.cxx#4 $)

>  <Rbt.Library>
libRbt.so (2013.1, Build901 2013/11/27)

>  <Rbt.Parameter_File>
/export/apps/rDock/src/rDock_2013.1_src/data/scripts/dock_solv.prm

>  <Rbt.Receptor>
prm/pocket_docking_4.prm

>  <SCORE>
-17.8914

>  <SCORE.INTER>
-14.71

>  <SCORE.INTER.CONST>
1

>  <SCORE.INTER.POLAR>
0

>  <SCORE.INTER.ROT>
7

>  <SCORE.INTER.SOLV>
12.6335

>  <SCORE.INTER.VDW>
-22.2845

>  <SCORE.INTER.norm>
-0.544813

>  <SCORE.INTRA>
-3.18149

>  <SCORE.INTRA.DIHEDRAL>
-5.31419

>  <SCORE.INTRA.DIHEDRAL.0>
10.4103

>  <SCORE.INTRA.POLAR>
0

>  <SCORE.INTRA.POLAR.0>
0

>  <SCORE.INTRA.REPUL>
0

>  <SCORE.INTRA.REPUL.0>
0

>  <SCORE.INTRA.SOLV>
-0.596383

>  <SCORE.INTRA.SOLV.lig_0>
-49.5008

>  <SCORE.INTRA.VDW>
-0.226203

>  <SCORE.INTRA.VDW.0>
-2.6946

>  <SCORE.INTRA.norm>
-0.117833

>  <SCORE.RESTR>
0

>  <SCORE.RESTR.CAVITY>
0

>  <SCORE.RESTR.norm>
0

>  <SCORE.SYSTEM>
0

>  <SCORE.SYSTEM.CONST>
0

>  <SCORE.SYSTEM.DIHEDRAL>
0

>  <SCORE.SYSTEM.SOLV>
0

>  <SCORE.SYSTEM.norm>
0

>  <SCORE.heavy>
27

>  <SCORE.norm>
-0.662646

>  <RMSD>
5.299

$$$$
ligand
 OpenBabel02271912153D
libRbt.so/2013.1/901 2013/11/27
 27 29  0  0  0  0  0  0  0  0999 V2000
   -0.8600  -13.3436   15.2162 N   0  0  0  0  0  0  0  0  0  0  0  0
   -0.9528  -12.5185   16.4056 C   0  0  2  0  0  0  0  0  0  0  0  0
   -1.6685  -13.3201   17.4489 C   0  0  0  0  0  0  0  0  0  0  0  0
   -2.6717  -12.8313   18.0119 O   0  0  0  0  0  0  0  0  0  0  0  0
   -1.7229  -11.2300   16.1045 C   0  0  0  0  0  0  0  0  0  0  0  0
   -1.5689  -10.1996   17.2452 C   0  0  0  0  0  0  0  0  0  0  0  0
   -2.7722   -9.0336   17.3343 S   0  0  2  0  0  0  0  0  0  0  0  0
   -2.5829   -7.9500   16.0898 C   0  0  0  0  0  0  0  0  0  0  0  0
   -2.6957   -8.2486   18.8264 C   0  0  0  0  0  0  0  0  0  0  0  0
   -4.0535   -7.7088   19.3234 C   0  0  1  0  0  0  0  0  0  0  0  0
   -5.1759   -8.4587   18.8296 O   0  0  0  0  0  0  0  0  0  0  0  0
   -4.2378   -7.8192   20.8283 C   0  0  1  0  0  0  0  0  0  0  0  0
   -3.5204   -6.8805   21.6548 O   0  0  0  0  0  0  0  0  0  0  0  0
   -5.7383   -7.7008   20.9316 C   0  0  1  0  0  0  0  0  0  0  0  0
   -6.1425   -6.3608   20.6668 O   0  0  0  0  0  0  0  0  0  0  0  0
   -6.2080   -8.5806   19.8112 C   0  0  2  0  0  0  0  0  0  0  0  0
   -1.2685  -14.4783   17.7165 O   0  0  0  0  0  0  0  0  0  0  0  0
   -4.3082  -13.2868   21.3982 N   0  0  0  0  0  0  0  0  0  0  0  0
   -3.6307  -12.1634   21.0580 C   0  0  0  0  0  0  0  0  0  0  0  0
   -4.2446  -11.0351   20.6641 N   0  0  0  0  0  0  0  0  0  0  0  0
   -5.5775  -10.9408   20.6020 C   0  0  0  0  0  0  0  0  0  0  0  0
   -6.3622  -12.1075   20.9768 C   0  0  0  0  0  0  0  0  0  0  0  0
   -5.6765  -13.3530   21.3927 C   0  0  0  0  0  0  0  0  0  0  0  0
   -6.3662  -14.4917   21.7539 N   0  0  0  0  0  0  0  0  0  0  0  0
   -7.6192  -11.7502   20.8427 N   0  0  0  0  0  0  0  0  0  0  0  0
   -7.6666  -10.4848   20.4038 C   0  0  0  0  0  0  0  0  0  0  0  0
   -6.4386   -9.9875   20.2611 N   0  0  0  0  0  0  0  0  0  0  0  0
  2  1  1  6  0  0  0
  2  3  1  0  0  0  0
  2  5  1  0  0  0  0
  3  4  1  0  0  0  0
  3 17  1  0  0  0  0
  5  6  1  0  0  0  0
  7  6  1  1  0  0  0
  7  8  1  0  0  0  0
  7  9  1  0  0  0  0
 10  9  1  1  0  0  0
 10 11  1  0  0  0  0
 10 12  1  0  0  0  0
 11 16  1  0  0  0  0
 12 13  1  1  0  0  0
 12 14  1  0  0  0  0
 14 15  1  6  0  0  0
 14 16  1  0  0  0  0
 16 27  1  1  0  0  0
 18 19  2  0  0  0  0
 18 23  1  0  0  0  0
 19 20  1  0  0  0  0
 20 21  2  0  0  0  0
 21 22  1  0  0  0  0
 21 27  1  0  0  0  0
 22 23  2  0  0  0  0
 22 25  1  0  0  0  0
 23 24  1  0  0  0  0
 25 26  2  0  0  0  0
 26 27  1  0  0  0  0
M  END
>  <CHROM.1>
-126.69798061,-167.28403820,-157.77964824,-72.92853708,-151.22802655,27.83079809
45.15846959,-4.03014799,-10.47949771,19.19421899,-0.45349749,0.77739726,-0.08253921

>  <Name>
ligand

>  <RI>
0

>  <Rbt.Current_Directory>
/home/itssahil/PROJECTS/Mol_Feturizer/Test_systems_manuscript/rnas/4kqy

>  <Rbt.Executable>
rbdock ($Id: //depot/dev/client3/rdock/2013.1/src/exe/rbdock.cxx#4 $)

>  <Rbt.Library>
libRbt.so (2013.1, Build901 2013/11/27)

>  <Rbt.Parameter_File>
/export/apps/rDock/src/rDock_2013.1_src/data/scripts/dock_solv.prm

>  <Rbt.Receptor>
prm/pocket_docking_6.prm

>  <SCORE>
-16.4127

>  <SCORE.INTER>
-16.5042

>  <SCORE.INTER.CONST>
1

>  <SCORE.INTER.POLAR>
0

>  <SCORE.INTER.ROT>
7

>  <SCORE.INTER.SOLV>
15.4201

>  <SCORE.INTER.VDW>
-24.4095

>  <SCORE.INTER.norm>
-0.611267

>  <SCORE.INTRA>
0.0913057

>  <SCORE.INTRA.DIHEDRAL>
0.23478

>  <SCORE.INTRA.DIHEDRAL.0>
10.4103

>  <SCORE.INTRA.POLAR>
0

>  <SCORE.INTRA.POLAR.0>
0

>  <SCORE.INTRA.REPUL>
0

>  <SCORE.INTRA.REPUL.0>
0

>  <SCORE.INTRA.SOLV>
-0.550789

>  <SCORE.INTRA.SOLV.lig_0>
-49.5008

>  <SCORE.INTRA.VDW>
0.24931

>  <SCORE.INTRA.VDW.0>
-2.6946

>  <SCORE.INTRA.norm>
0.00338169

>  <SCORE.RESTR>
0.000247397

>  <SCORE.RESTR.CAVITY>
0.000247397

>  <SCORE.RESTR.norm>
9.16287e-06

>  <SCORE.SYSTEM>
0

>  <SCORE.SYSTEM.CONST>
0

>  <SCORE.SYSTEM.DIHEDRAL>
0

>  <SCORE.SYSTEM.SOLV>
0

>  <SCORE.SYSTEM.norm>
0

>  <SCORE.heavy>
27

>  <SCORE.norm>
-0.607876

>  <RMSD>
5.300

$$$$
ligand
 OpenBabel02271912153D
libRbt.so/2013.1/901 2013/11/27
 27 29  0  0  0  0  0  0  0  0999 V2000
   -1.2252  -10.6547   16.5300 N   0  0  0  0  0  0  0  0  0  0  0  0
   -0.8846  -11.5136   17.6482 C   0  0  2  0  0  0  0  0  0  0  0  0
   -0.2875  -12.7653   17.0826 C   0  0  0  0  0  0  0  0  0  0  0  0
    0.9329  -12.7916   16.8140 O   0  0  0  0  0  0  0  0  0  0  0  0
   -2.1340  -11.8446   18.4688 C   0  0  0  0  0  0  0  0  0  0  0  0
   -2.7268  -10.5810   19.1308 C   0  0  0  0  0  0  0  0  0  0  0  0
   -4.2463  -10.7687   19.8171 S   0  0  2  0  0  0  0  0  0  0  0  0
   -4.7857   -9.2992   20.3723 C   0  0  0  0  0  0  0  0  0  0  0  0
   -4.1687  -11.8906   21.0756 C   0  0  0  0  0  0  0  0  0  0  0  0
   -5.4594  -12.7158   21.2631 C   0  0  1  0  0  0  0  0  0  0  0  0
   -6.6514  -11.9127   21.2523 O   0  0  0  0  0  0  0  0  0  0  0  0
   -5.7267  -13.6924   20.1292 C   0  0  1  0  0  0  0  0  0  0  0  0
   -4.9244  -14.8894   20.0821 O   0  0  0  0  0  0  0  0  0  0  0  0
   -7.1992  -13.9523   20.3308 C   0  0  1  0  0  0  0  0  0  0  0  0
   -7.3997  -14.7579   21.4882 O   0  0  0  0  0  0  0  0  0  0  0  0
   -7.7348  -12.5767   20.5973 C   0  0  2  0  0  0  0  0  0  0  0  0
   -1.0147  -13.7739   16.9180 O   0  0  0  0  0  0  0  0  0  0  0  0
  -10.5750  -12.5828   16.1019 N   0  0  0  0  0  0  0  0  0  0  0  0
  -10.4724  -13.5475   17.0481 C   0  0  0  0  0  0  0  0  0  0  0  0
   -9.7038  -13.4144   18.1421 N   0  0  0  0  0  0  0  0  0  0  0  0
   -9.0004  -12.3017   18.3801 C   0  0  0  0  0  0  0  0  0  0  0  0
   -9.0869  -11.2196   17.4111 C   0  0  0  0  0  0  0  0  0  0  0  0
   -9.9226  -11.3821   16.1989 C   0  0  0  0  0  0  0  0  0  0  0  0
  -10.0395  -10.3943   15.2432 N   0  0  0  0  0  0  0  0  0  0  0  0
   -8.3264  -10.2574   17.8820 N   0  0  0  0  0  0  0  0  0  0  0  0
   -7.7741  -10.6644   19.0332 C   0  0  0  0  0  0  0  0  0  0  0  0
   -8.1801  -11.8950   19.3434 N   0  0  0  0  0  0  0  0  0  0  0  0
  2  1  1  6  0  0  0
  2  3  1  0  0  0  0
  2  5  1  0  0  0  0
  3  4  1  0  0  0  0
  3 17  1  0  0  0  0
  5  6  1  0  0  0  0
  7  6  1  1  0  0  0
  7  8  1  0  0  0  0
  7  9  1  0  0  0  0
 10  9  1  6  0  0  0
 10 11  1  0  0  0  0
 10 12  1  0  0  0  0
 11 16  1  0  0  0  0
 12 13  1  1  0  0  0
 12 14  1  0  0  0  0
 14 15  1  1  0  0  0
 14 16  1  0  0  0  0
 16 27  1  6  0  0  0
 18 19  2  0  0  0  0
 18 23  1  0  0  0  0
 19 20  1  0  0  0  0
 20 21  2  0  0  0  0
 21 22  1  0  0  0  0
 21 27  1  0  0  0  0
 22 23  2  0  0  0  0
 22 25  1  0  0  0  0
 23 24  1  0  0  0  0
 25 26  2  0  0  0  0
 26 27  1  0  0  0  0
M  END
>  <CHROM.1>
85.25244740,-64.74527356,169.16358201,-175.49933784,-148.03827745,-46.70408046
168.88136349,-5.69526427,-12.11163516,18.75142419,-0.00082270,-0.01773685
-1.22253486

>  <Name>
ligand

>  <RI>
0

>  <Rbt.Current_Directory>
/home/itssahil/PROJECTS/Mol_Feturizer/Test_systems_manuscript/rnas/4kqy

>  <Rbt.Executable>
rbdock ($Id: //depot/dev/client3/rdock/2013.1/src/exe/rbdock.cxx#4 $)

>  <Rbt.Library>
libRbt.so (2013.1, Build901 2013/11/27)

>  <Rbt.Parameter_File>
/export/apps/rDock/src/rDock_2013.1_src/data/scripts/dock_solv.prm

>  <Rbt.Receptor>
prm/pocket_docking_8.prm

>  <SCORE>
-13.2126

>  <SCORE.INTER>
-11.6011

>  <SCORE.INTER.CONST>
1

>  <SCORE.INTER.POLAR>
0

>  <SCORE.INTER.ROT>
7

>  <SCORE.INTER.SOLV>
8.6447

>  <SCORE.INTER.VDW>
-18.8823

>  <SCORE.INTER.norm>
-0.429671

>  <SCORE.INTRA>
-1.61149

>  <SCORE.INTRA.DIHEDRAL>
-3.89829

>  <SCORE.INTRA.DIHEDRAL.0>
10.4103

>  <SCORE.INTRA.POLAR>
0

>  <SCORE.INTRA.POLAR.0>
0

>  <SCORE.INTRA.REPUL>
0

>  <SCORE.INTRA.REPUL.0>
0

>  <SCORE.INTRA.SOLV>
0.304997

>  <SCORE.INTRA.SOLV.lig_0>
-49.5008

>  <SCORE.INTRA.VDW>
0.185152

>  <SCORE.INTRA.VDW.0>
-2.6946

>  <SCORE.INTRA.norm>
-0.0596849

>  <SCORE.RESTR>
0

>  <SCORE.RESTR.CAVITY>
0

>  <SCORE.RESTR.norm>
0

>  <SCORE.SYSTEM>
0

>  <SCORE.SYSTEM.CONST>
0

>  <SCORE.SYSTEM.DIHEDRAL>
0

>  <SCORE.SYSTEM.SOLV>
0

>  <SCORE.SYSTEM.norm>
0

>  <SCORE.heavy>
27

>  <SCORE.norm>
-0.489356

>  <RMSD>
5.302

$$$$
ligand
 OpenBabel02271912153D
libRbt.so/2013.1/901 2013/11/27
 27 29  0  0  0  0  0  0  0  0999 V2000
   -1.9091  -12.5120   15.5865 N   0  0  0  0  0  0  0  0  0  0  0  0
   -0.6131  -12.1771   16.1453 C   0  0  2  0  0  0  0  0  0  0  0  0
    0.1431  -13.4586   16.3155 C   0  0  0  0  0  0  0  0  0  0  0  0
   -0.0378  -14.1413   17.3467 O   0  0  0  0  0  0  0  0  0  0  0  0
   -0.7779  -11.4741   17.4954 C   0  0  0  0  0  0  0  0  0  0  0  0
   -1.4407  -10.0880   17.3339 C   0  0  0  0  0  0  0  0  0  0  0  0
   -2.6156   -9.7109   18.4708 S   0  0  2  0  0  0  0  0  0  0  0  0
   -3.9210  -10.7178   18.2693 C   0  0  0  0  0  0  0  0  0  0  0  0
   -3.0754   -8.0958   18.3011 C   0  0  0  0  0  0  0  0  0  0  0  0
   -4.1407   -7.6350   19.3183 C   0  0  1  0  0  0  0  0  0  0  0  0
   -5.4351   -8.2143   19.0842 O   0  0  0  0  0  0  0  0  0  0  0  0
   -3.8509   -8.0757   20.7440 C   0  0  1  0  0  0  0  0  0  0  0  0
   -2.8131   -7.3736   21.4572 O   0  0  0  0  0  0  0  0  0  0  0  0
   -5.2202   -7.9312   21.3608 C   0  0  1  0  0  0  0  0  0  0  0  0
   -5.5414   -6.5528   21.5211 O   0  0  0  0  0  0  0  0  0  0  0  0
   -6.1112   -8.5185   20.3065 C   0  0  2  0  0  0  0  0  0  0  0  0
    0.9199  -13.8398   15.4074 O   0  0  0  0  0  0  0  0  0  0  0  0
   -4.4192  -13.2452   22.0591 N   0  0  0  0  0  0  0  0  0  0  0  0
   -3.7881  -12.0464   22.0928 C   0  0  0  0  0  0  0  0  0  0  0  0
   -4.3359  -10.9220   21.6019 N   0  0  0  0  0  0  0  0  0  0  0  0
   -5.5598  -10.9098   21.0621 C   0  0  0  0  0  0  0  0  0  0  0  0
   -6.2981  -12.1629   21.0171 C   0  0  0  0  0  0  0  0  0  0  0  0
   -5.6792  -13.4011   21.5444 C   0  0  0  0  0  0  0  0  0  0  0  0
   -6.3276  -14.6185   21.5243 N   0  0  0  0  0  0  0  0  0  0  0  0
   -7.4537  -11.8763   20.4618 N   0  0  0  0  0  0  0  0  0  0  0  0
   -7.4744  -10.5732   20.1499 C   0  0  0  0  0  0  0  0  0  0  0  0
   -6.3372   -9.9817   20.5138 N   0  0  0  0  0  0  0  0  0  0  0  0
  2  1  1  1  0  0  0
  2  3  1  0  0  0  0
  2  5  1  0  0  0  0
  3  4  1  0  0  0  0
  3 17  1  0  0  0  0
  5  6  1  0  0  0  0
  7  6  1  6  0  0  0
  7  8  1  0  0  0  0
  7  9  1  0  0  0  0
 10  9  1  6  0  0  0
 10 11  1  0  0  0  0
 10 12  1  0  0  0  0
 11 16  1  0  0  0  0
 12 13  1  1  0  0  0
 12 14  1  0  0  0  0
 14 15  1  6  0  0  0
 14 16  1  0  0  0  0
 16 27  1  1  0  0  0
 18 19  2  0  0  0  0
 18 23  1  0  0  0  0
 19 20  1  0  0  0  0
 20 21  2  0  0  0  0
 21 22  1  0  0  0  0
 21 27  1  0  0  0  0
 22 23  2  0  0  0  0
 22 25  1  0  0  0  0
 23 24  1  0  0  0  0
 25 26  2  0  0  0  0
 26 27  1  0  0  0  0
M  END
>  <CHROM.1>
-84.30745386,-66.73834764,137.42413797,-66.66116027,-179.04961754,-70.18983530
87.10251254,-3.73611360,-10.66597610,19.40743013,0.44204178,-0.70756950,-3.13603768

>  <Name>
ligand

>  <RI>
0

>  <Rbt.Current_Directory>
/home/itssahil/PROJECTS/Mol_Feturizer/Test_systems_manuscript/rnas/4kqy

>  <Rbt.Executable>
rbdock ($Id: //depot/dev/client3/rdock/2013.1/src/exe/rbdock.cxx#4 $)

>  <Rbt.Library>
libRbt.so (2013.1, Build901 2013/11/27)

>  <Rbt.Parameter_File>
/export/apps/rDock/src/rDock_2013.1_src/data/scripts/dock_solv.prm

>  <Rbt.Receptor>
prm/pocket_docking_5.prm

>  <SCORE>
-19.8023

>  <SCORE.INTER>
-18.9095

>  <SCORE.INTER.CONST>
1

>  <SCORE.INTER.POLAR>
0

>  <SCORE.INTER.ROT>
7

>  <SCORE.INTER.SOLV>
12.9859

>  <SCORE.INTER.VDW>
-25.2016

>  <SCORE.INTER.norm>
-0.70035

>  <SCORE.INTRA>
-0.892788

>  <SCORE.INTRA.DIHEDRAL>
-2.58605

>  <SCORE.INTRA.DIHEDRAL.0>
10.4103

>  <SCORE.INTRA.POLAR>
0

>  <SCORE.INTRA.POLAR.0>
0

>  <SCORE.INTRA.REPUL>
0

>  <SCORE.INTRA.REPUL.0>
0

>  <SCORE.INTRA.SOLV>
1.35764

>  <SCORE.INTRA.SOLV.lig_0>
-49.5008

>  <SCORE.INTRA.VDW>
-0.278585

>  <SCORE.INTRA.VDW.0>
-2.6946

>  <SCORE.INTRA.norm>
-0.0330662

>  <SCORE.RESTR>
0

>  <SCORE.RESTR.CAVITY>
0

>  <SCORE.RESTR.norm>
0

>  <SCORE.SYSTEM>
0

>  <SCORE.SYSTEM.CONST>
0

>  <SCORE.SYSTEM.DIHEDRAL>
0

>  <SCORE.SYSTEM.SOLV>
0

>  <SCORE.SYSTEM.norm>
0

>  <SCORE.heavy>
27

>  <SCORE.norm>
-0.733417

>  <RMSD>
5.310

$$$$
ligand
 OpenBabel02271912153D
libRbt.so/2013.1/901 2013/11/27
 27 29  0  0  0  0  0  0  0  0999 V2000
   -0.5893  -12.0591   14.8895 N   0  0  0  0  0  0  0  0  0  0  0  0
    0.0437  -11.3585   15.9908 C   0  0  2  0  0  0  0  0  0  0  0  0
    0.8560  -12.3625   16.7491 C   0  0  0  0  0  0  0  0  0  0  0  0
    0.5323  -13.5689   16.7034 O   0  0  0  0  0  0  0  0  0  0  0  0
   -1.0131  -10.7311   16.9040 C   0  0  0  0  0  0  0  0  0  0  0  0
   -1.6675   -9.4961   16.2460 C   0  0  0  0  0  0  0  0  0  0  0  0
   -3.0361   -8.9057   17.0166 S   0  0  2  0  0  0  0  0  0  0  0  0
   -3.6000   -7.5761   16.1964 C   0  0  0  0  0  0  0  0  0  0  0  0
   -2.6639   -8.5083   18.6142 C   0  0  0  0  0  0  0  0  0  0  0  0
   -3.8553   -7.9421   19.4153 C   0  0  1  0  0  0  0  0  0  0  0  0
   -5.1150   -8.5278   19.0466 O   0  0  0  0  0  0  0  0  0  0  0  0
   -3.7883   -8.2483   20.9028 C   0  0  1  0  0  0  0  0  0  0  0  0
   -2.8495   -7.4921   21.6938 O   0  0  0  0  0  0  0  0  0  0  0  0
   -5.2292   -8.0319   21.2939 C   0  0  1  0  0  0  0  0  0  0  0  0
   -5.5371   -6.6412   21.2767 O   0  0  0  0  0  0  0  0  0  0  0  0
   -5.9700   -8.7075   20.1781 C   0  0  2  0  0  0  0  0  0  0  0  0
    1.8640  -11.9803   17.3903 O   0  0  0  0  0  0  0  0  0  0  0  0
   -4.4091  -13.4278   22.0646 N   0  0  0  0  0  0  0  0  0  0  0  0
   -3.7125  -12.2681   21.9835 C   0  0  0  0  0  0  0  0  0  0  0  0
   -4.2342  -11.1406   21.4718 N   0  0  0  0  0  0  0  0  0  0  0  0
   -5.4937  -11.0845   21.0247 C   0  0  0  0  0  0  0  0  0  0  0  0
   -6.3008  -12.2925   21.1057 C   0  0  0  0  0  0  0  0  0  0  0  0
   -5.7118  -13.5358   21.6547 C   0  0  0  0  0  0  0  0  0  0  0  0
   -6.4256  -14.7122   21.7517 N   0  0  0  0  0  0  0  0  0  0  0  0
   -7.4785  -11.9677   20.6225 N   0  0  0  0  0  0  0  0  0  0  0  0
   -7.4518  -10.6837   20.2398 C   0  0  0  0  0  0  0  0  0  0  0  0
   -6.2592  -10.1421   20.4841 N   0  0  0  0  0  0  0  0  0  0  0  0
  2  1  1  6  0  0  0
  2  3  1  0  0  0  0
  2  5  1  0  0  0  0
  3  4  1  0  0  0  0
  3 17  1  0  0  0  0
  5  6  1  0  0  0  0
  7  6  1  6  0  0  0
  7  8  1  0  0  0  0
  7  9  1  0  0  0  0
 10  9  1  6  0  0  0
 10 11  1  0  0  0  0
 10 12  1  0  0  0  0
 11 16  1  0  0  0  0
 12 13  1  1  0  0  0
 12 14  1  0  0  0  0
 14 15  1  6  0  0  0
 14 16  1  0  0  0  0
 16 27  1  1  0  0  0
 18 19  2  0  0  0  0
 18 23  1  0  0  0  0
 19 20  1  0  0  0  0
 20 21  2  0  0  0  0
 21 22  1  0  0  0  0
 21 27  1  0  0  0  0
 22 23  2  0  0  0  0
 22 25  1  0  0  0  0
 23 24  1  0  0  0  0
 25 26  2  0  0  0  0
 26 27  1  0  0  0  0
M  END
>  <CHROM.1>
-25.52420901,-73.33553509,168.65148446,179.32957029,179.54545398,34.40871550
73.86658180,-3.57265480,-10.36628366,19.21008208,-0.06985327,-0.70415892
2.89997149

>  <Name>
ligand

>  <RI>
0

>  <Rbt.Current_Directory>
/home/itssahil/PROJECTS/Mol_Feturizer/Test_systems_manuscript/rnas/4kqy

>  <Rbt.Executable>
rbdock ($Id: //depot/dev/client3/rdock/2013.1/src/exe/rbdock.cxx#4 $)

>  <Rbt.Library>
libRbt.so (2013.1, Build901 2013/11/27)

>  <Rbt.Parameter_File>
/export/apps/rDock/src/rDock_2013.1_src/data/scripts/dock_solv.prm

>  <Rbt.Receptor>
prm/pocket_docking_8.prm

>  <SCORE>
-21.2546

>  <SCORE.INTER>
-19.3092

>  <SCORE.INTER.CONST>
1

>  <SCORE.INTER.POLAR>
0

>  <SCORE.INTER.ROT>
7

>  <SCORE.INTER.SOLV>
14.4377

>  <SCORE.INTER.VDW>
-25.952

>  <SCORE.INTER.norm>
-0.715154

>  <SCORE.INTRA>
-1.94543

>  <SCORE.INTRA.DIHEDRAL>
-4.49526

>  <SCORE.INTRA.DIHEDRAL.0>
10.4103

>  <SCORE.INTRA.POLAR>
0

>  <SCORE.INTRA.POLAR.0>
0

>  <SCORE.INTRA.REPUL>
0

>  <SCORE.INTRA.REPUL.0>
0

>  <SCORE.INTRA.SOLV>
0.0827885

>  <SCORE.INTRA.SOLV.lig_0>
-49.5008

>  <SCORE.INTRA.VDW>
0.260806

>  <SCORE.INTRA.VDW.0>
-2.6946

>  <SCORE.INTRA.norm>
-0.072053

>  <SCORE.RESTR>
0

>  <SCORE.RESTR.CAVITY>
0

>  <SCORE.RESTR.norm>
0

>  <SCORE.SYSTEM>
0

>  <SCORE.SYSTEM.CONST>
0

>  <SCORE.SYSTEM.DIHEDRAL>
0

>  <SCORE.SYSTEM.SOLV>
0

>  <SCORE.SYSTEM.norm>
0

>  <SCORE.heavy>
27

>  <SCORE.norm>
-0.787207

>  <RMSD>
5.315

$$$$
ligand
 OpenBabel02271912153D
libRbt.so/2013.1/901 2013/11/27
 27 29  0  0  0  0  0  0  0  0999 V2000
   -2.9232  -11.7003   14.3265 N   0  0  0  0  0  0  0  0  0  0  0  0
   -3.5047  -12.0657   15.6042 C   0  0  2  0  0  0  0  0  0  0  0  0
   -3.9634  -13.4872   15.4945 C   0  0  0  0  0  0  0  0  0  0  0  0
   -3.1150  -14.4049   15.5118 O   0  0  0  0  0  0  0  0  0  0  0  0
   -4.6863  -11.1502   15.9357 C   0  0  0  0  0  0  0  0  0  0  0  0
   -4.2127   -9.7259   16.3014 C   0  0  0  0  0  0  0  0  0  0  0  0
   -5.3800   -8.7255   16.9735 S   0  0  2  0  0  0  0  0  0  0  0  0
   -6.4914   -8.3158   15.8092 C   0  0  0  0  0  0  0  0  0  0  0  0
   -4.6485   -7.3453   17.6126 C   0  0  0  0  0  0  0  0  0  0  0  0
   -4.2557   -7.4730   19.0997 C   0  0  1  0  0  0  0  0  0  0  0  0
   -5.3742   -7.7496   19.9589 O   0  0  0  0  0  0  0  0  0  0  0  0
   -3.3381   -8.6504   19.3873 C   0  0  1  0  0  0  0  0  0  0  0  0
   -1.9564   -8.5255   18.9950 O   0  0  0  0  0  0  0  0  0  0  0  0
   -3.5390   -8.7992   20.8751 C   0  0  1  0  0  0  0  0  0  0  0  0
   -2.8979   -7.7303   21.5646 O   0  0  0  0  0  0  0  0  0  0  0  0
   -5.0246   -8.6466   21.0158 C   0  0  2  0  0  0  0  0  0  0  0  0
   -5.1910  -13.7334   15.4192 O   0  0  0  0  0  0  0  0  0  0  0  0
   -5.1291  -13.8895   21.8975 N   0  0  0  0  0  0  0  0  0  0  0  0
   -4.1463  -12.9973   22.1706 C   0  0  0  0  0  0  0  0  0  0  0  0
   -4.2517  -11.6888   21.8844 N   0  0  0  0  0  0  0  0  0  0  0  0
   -5.3528  -11.1744   21.3254 C   0  0  0  0  0  0  0  0  0  0  0  0
   -6.4533  -12.0789   21.0284 C   0  0  0  0  0  0  0  0  0  0  0  0
   -6.3213  -13.5229   21.3308 C   0  0  0  0  0  0  0  0  0  0  0  0
   -7.3277  -14.4288   21.0672 N   0  0  0  0  0  0  0  0  0  0  0  0
   -7.3991  -11.3308   20.5070 N   0  0  0  0  0  0  0  0  0  0  0  0
   -6.9656  -10.0643   20.4436 C   0  0  0  0  0  0  0  0  0  0  0  0
   -5.7336   -9.9607   20.9404 N   0  0  0  0  0  0  0  0  0  0  0  0
  2  1  1  6  0  0  0
  2  3  1  0  0  0  0
  2  5  1  0  0  0  0
  3  4  1  0  0  0  0
  3 17  1  0  0  0  0
  5  6  1  0  0  0  0
  7  6  1  6  0  0  0
  7  8  1  0  0  0  0
  7  9  1  0  0  0  0
 10  9  1  6  0  0  0
 10 11  1  0  0  0  0
 10 12  1  0  0  0  0
 11 16  1  0  0  0  0
 12 13  1  1  0  0  0
 12 14  1  0  0  0  0
 14 15  1  1  0  0  0
 14 16  1  0  0  0  0
 16 27  1  6  0  0  0
 18 19  2  0  0  0  0
 18 23  1  0  0  0  0
 19 20  1  0  0  0  0
 20 21  2  0  0  0  0
 21 22  1  0  0  0  0
 21 27  1  0  0  0  0
 22 23  2  0  0  0  0
 22 25  1  0  0  0  0
 23 24  1  0  0  0  0
 25 26  2  0  0  0  0
 26 27  1  0  0  0  0
M  END
>  <CHROM.1>
74.68234173,-71.64870200,-168.35553840,-70.30844627,-91.46044696,-59.27828304
149.23365921,-4.79117232,-10.58521889,18.81840507,0.82162984,-1.31522656
-2.47143815

>  <Name>
ligand

>  <RI>
0

>  <Rbt.Current_Directory>
/home/itssahil/PROJECTS/Mol_Feturizer/Test_systems_manuscript/rnas/4kqy

>  <Rbt.Executable>
rbdock ($Id: //depot/dev/client3/rdock/2013.1/src/exe/rbdock.cxx#4 $)

>  <Rbt.Library>
libRbt.so (2013.1, Build901 2013/11/27)

>  <Rbt.Parameter_File>
/export/apps/rDock/src/rDock_2013.1_src/data/scripts/dock_solv.prm

>  <Rbt.Receptor>
prm/pocket_docking_3.prm

>  <SCORE>
-14.758

>  <SCORE.INTER>
-13.6289

>  <SCORE.INTER.CONST>
1

>  <SCORE.INTER.POLAR>
0

>  <SCORE.INTER.ROT>
7

>  <SCORE.INTER.SOLV>
13.1407

>  <SCORE.INTER.VDW>
-21.7328

>  <SCORE.INTER.norm>
-0.504773

>  <SCORE.INTRA>
-1.13871

>  <SCORE.INTRA.DIHEDRAL>
-3.65749

>  <SCORE.INTRA.DIHEDRAL.0>
10.4103

>  <SCORE.INTRA.POLAR>
0

>  <SCORE.INTRA.POLAR.0>
0

>  <SCORE.INTRA.REPUL>
0

>  <SCORE.INTRA.REPUL.0>
0

>  <SCORE.INTRA.SOLV>
0.227628

>  <SCORE.INTRA.SOLV.lig_0>
-49.5008

>  <SCORE.INTRA.VDW>
0.576227

>  <SCORE.INTRA.VDW.0>
-2.6946

>  <SCORE.INTRA.norm>
-0.0421743

>  <SCORE.RESTR>
0.00961162

>  <SCORE.RESTR.CAVITY>
0.00961162

>  <SCORE.RESTR.norm>
0.000355986

>  <SCORE.SYSTEM>
0

>  <SCORE.SYSTEM.CONST>
0

>  <SCORE.SYSTEM.DIHEDRAL>
0

>  <SCORE.SYSTEM.SOLV>
0

>  <SCORE.SYSTEM.norm>
0

>  <SCORE.heavy>
27

>  <SCORE.norm>
-0.546591

>  <RMSD>
5.317

$$$$
ligand
 OpenBabel02271912153D
libRbt.so/2013.1/901 2013/11/27
 27 29  0  0  0  0  0  0  0  0999 V2000
    0.1366  -14.3977   13.2791 N   0  0  0  0  0  0  0  0  0  0  0  0
    0.1813  -13.0533   12.7360 C   0  0  2  0  0  0  0  0  0  0  0  0
    0.7223  -13.1536   11.3430 C   0  0  0  0  0  0  0  0  0  0  0  0
    1.5729  -14.0310   11.0807 O   0  0  0  0  0  0  0  0  0  0  0  0
    1.0821  -12.1597   13.5928 C   0  0  0  0  0  0  0  0  0  0  0  0
    1.1388  -10.7183   13.0401 C   0  0  0  0  0  0  0  0  0  0  0  0
   -0.3384   -9.9322   12.9164 S   0  0  2  0  0  0  0  0  0  0  0  0
   -0.1712   -8.5944   11.9463 C   0  0  0  0  0  0  0  0  0  0  0  0
   -0.8802   -9.4916   14.4529 C   0  0  0  0  0  0  0  0  0  0  0  0
   -1.0513  -10.6790   15.4238 C   0  0  1  0  0  0  0  0  0  0  0  0
   -0.5833  -10.3955   16.7530 O   0  0  0  0  0  0  0  0  0  0  0  0
   -2.5026  -11.0556   15.6740 C   0  0  1  0  0  0  0  0  0  0  0  0
   -3.1936  -11.7652   14.6263 O   0  0  0  0  0  0  0  0  0  0  0  0
   -2.3668  -11.8403   16.9555 C   0  0  1  0  0  0  0  0  0  0  0  0
   -1.7592  -13.1019   16.6944 O   0  0  0  0  0  0  0  0  0  0  0  0
   -1.4136  -10.9967   17.7493 C   0  0  2  0  0  0  0  0  0  0  0  0
    0.2900  -12.3772   10.4578 O   0  0  0  0  0  0  0  0  0  0  0  0
   -3.9982   -9.7951   22.2384 N   0  0  0  0  0  0  0  0  0  0  0  0
   -3.4639  -10.9790   21.8517 C   0  0  0  0  0  0  0  0  0  0  0  0
   -2.8380  -11.1445   20.6744 N   0  0  0  0  0  0  0  0  0  0  0  0
   -2.6823  -10.1362   19.8093 C   0  0  0  0  0  0  0  0  0  0  0  0
   -3.2152   -8.8331   20.1773 C   0  0  0  0  0  0  0  0  0  0  0  0
   -3.9195   -8.6641   21.4694 C   0  0  0  0  0  0  0  0  0  0  0  0
   -4.4499   -7.4555   21.8701 N   0  0  0  0  0  0  0  0  0  0  0  0
   -2.9213   -8.0324   19.1780 N   0  0  0  0  0  0  0  0  0  0  0  0
   -2.2790   -8.7338   18.2339 C   0  0  0  0  0  0  0  0  0  0  0  0
   -2.1261  -10.0030   18.6095 N   0  0  0  0  0  0  0  0  0  0  0  0
  2  1  1  1  0  0  0
  2  3  1  0  0  0  0
  2  5  1  0  0  0  0
  3  4  1  0  0  0  0
  3 17  1  0  0  0  0
  5  6  1  0  0  0  0
  7  6  1  1  0  0  0
  7  8  1  0  0  0  0
  7  9  1  0  0  0  0
 10  9  1  6  0  0  0
 10 11  1  0  0  0  0
 10 12  1  0  0  0  0
 11 16  1  0  0  0  0
 12 13  1  6  0  0  0
 12 14  1  0  0  0  0
 14 15  1  6  0  0  0
 14 16  1  0  0  0  0
 16 27  1  6  0  0  0
 18 19  2  0  0  0  0
 18 23  1  0  0  0  0
 19 20  1  0  0  0  0
 20 21  2  0  0  0  0
 21 22  1  0  0  0  0
 21 27  1  0  0  0  0
 22 23  2  0  0  0  0
 22 25  1  0  0  0  0
 23 24  1  0  0  0  0
 25 26  2  0  0  0  0
 26 27  1  0  0  0  0
M  END
>  <CHROM.1>
-33.35024695,-179.60720542,58.10609069,-164.74013844,-58.67532902,138.46592491
-160.29040067,-1.41298608,-10.80316298,16.09940302,0.04788261,-1.17226799
2.88878165

>  <Name>
ligand

>  <RI>
0

>  <Rbt.Current_Directory>
/home/itssahil/PROJECTS/Mol_Feturizer/Test_systems_manuscript/rnas/4kqy

>  <Rbt.Executable>
rbdock ($Id: //depot/dev/client3/rdock/2013.1/src/exe/rbdock.cxx#4 $)

>  <Rbt.Library>
libRbt.so (2013.1, Build901 2013/11/27)

>  <Rbt.Parameter_File>
/export/apps/rDock/src/rDock_2013.1_src/data/scripts/dock_solv.prm

>  <Rbt.Receptor>
prm/pocket_docking_7.prm

>  <SCORE>
-11.6658

>  <SCORE.INTER>
-9.66362

>  <SCORE.INTER.CONST>
1

>  <SCORE.INTER.POLAR>
0

>  <SCORE.INTER.ROT>
7

>  <SCORE.INTER.SOLV>
14.1196

>  <SCORE.INTER.VDW>
-19.4156

>  <SCORE.INTER.norm>
-0.357912

>  <SCORE.INTRA>
-2.00218

>  <SCORE.INTRA.DIHEDRAL>
-2.90744

>  <SCORE.INTRA.DIHEDRAL.0>
10.4103

>  <SCORE.INTRA.POLAR>
0

>  <SCORE.INTRA.POLAR.0>
0

>  <SCORE.INTRA.REPUL>
0

>  <SCORE.INTRA.REPUL.0>
0

>  <SCORE.INTRA.SOLV>
0.0887459

>  <SCORE.INTRA.SOLV.lig_0>
-49.5008

>  <SCORE.INTRA.VDW>
-0.592833

>  <SCORE.INTRA.VDW.0>
-2.6946

>  <SCORE.INTRA.norm>
-0.0741547

>  <SCORE.RESTR>
0

>  <SCORE.RESTR.CAVITY>
0

>  <SCORE.RESTR.norm>
0

>  <SCORE.SYSTEM>
0

>  <SCORE.SYSTEM.CONST>
0

>  <SCORE.SYSTEM.DIHEDRAL>
0

>  <SCORE.SYSTEM.SOLV>
0

>  <SCORE.SYSTEM.norm>
0

>  <SCORE.heavy>
27

>  <SCORE.norm>
-0.432067

>  <RMSD>
5.322

$$$$
ligand
 OpenBabel02271912153D
libRbt.so/2013.1/901 2013/11/27
 27 29  0  0  0  0  0  0  0  0999 V2000
   -5.6661  -12.1100   16.4066 N   0  0  0  0  0  0  0  0  0  0  0  0
   -4.6793  -11.7613   15.4022 C   0  0  2  0  0  0  0  0  0  0  0  0
   -3.8855  -12.9973   15.1099 C   0  0  0  0  0  0  0  0  0  0  0  0
   -3.7129  -13.8400   16.0168 O   0  0  0  0  0  0  0  0  0  0  0  0
   -3.7612  -10.6496   15.9173 C   0  0  0  0  0  0  0  0  0  0  0  0
   -4.4877   -9.2867   15.9510 C   0  0  0  0  0  0  0  0  0  0  0  0
   -3.5542   -7.9810   16.4398 S   0  0  2  0  0  0  0  0  0  0  0  0
   -2.1599   -7.9322   15.5385 C   0  0  0  0  0  0  0  0  0  0  0  0
   -3.1979   -8.1187   18.0838 C   0  0  0  0  0  0  0  0  0  0  0  0
   -4.3364   -7.6520   19.0153 C   0  0  1  0  0  0  0  0  0  0  0  0
   -5.5825   -8.3239   18.7670 O   0  0  0  0  0  0  0  0  0  0  0  0
   -4.0923   -7.9716   20.4813 C   0  0  1  0  0  0  0  0  0  0  0  0
   -3.1327   -7.1588   21.1863 O   0  0  0  0  0  0  0  0  0  0  0  0
   -5.4963   -7.8668   21.0237 C   0  0  1  0  0  0  0  0  0  0  0  0
   -5.9033   -6.5025   21.0670 O   0  0  0  0  0  0  0  0  0  0  0  0
   -6.2993   -8.5806   19.9769 C   0  0  2  0  0  0  0  0  0  0  0  0
   -3.4352  -13.1801   13.9537 O   0  0  0  0  0  0  0  0  0  0  0  0
   -4.4511  -13.0477   22.1917 N   0  0  0  0  0  0  0  0  0  0  0  0
   -3.8964  -11.8114   22.1728 C   0  0  0  0  0  0  0  0  0  0  0  0
   -4.4757  -10.7636   21.5631 N   0  0  0  0  0  0  0  0  0  0  0  0
   -5.6587  -10.8698   20.9478 C   0  0  0  0  0  0  0  0  0  0  0  0
   -6.3162  -12.1679   20.9530 C   0  0  0  0  0  0  0  0  0  0  0  0
   -5.6618  -13.3218   21.6121 C   0  0  0  0  0  0  0  0  0  0  0  0
   -6.2335  -14.5768   21.6449 N   0  0  0  0  0  0  0  0  0  0  0  0
   -7.4465  -11.9979   20.3053 N   0  0  0  0  0  0  0  0  0  0  0  0
   -7.5237  -10.7250   19.8933 C   0  0  0  0  0  0  0  0  0  0  0  0
   -6.4512  -10.0364   20.2816 N   0  0  0  0  0  0  0  0  0  0  0  0
  2  1  1  1  0  0  0
  2  3  1  0  0  0  0
  2  5  1  0  0  0  0
  3  4  1  0  0  0  0
  3 17  1  0  0  0  0
  5  6  1  0  0  0  0
  7  6  1  6  0  0  0
  7  8  1  0  0  0  0
  7  9  1  0  0  0  0
 10  9  1  6  0  0  0
 10 11  1  0  0  0  0
 10 12  1  0  0  0  0
 11 16  1  0  0  0  0
 12 13  1  1  0  0  0
 12 14  1  0  0  0  0
 14 15  1  6  0  0  0
 14 16  1  0  0  0  0
 16 27  1  1  0  0  0
 18 19  2  0  0  0  0
 18 23  1  0  0  0  0
 19 20  1  0  0  0  0
 20 21  2  0  0  0  0
 21 22  1  0  0  0  0
 21 27  1  0  0  0  0
 22 23  2  0  0  0  0
 22 25  1  0  0  0  0
 23 24  1  0  0  0  0
 25 26  2  0  0  0  0
 26 27  1  0  0  0  0
M  END
>  <CHROM.1>
-30.83771402,-73.27543995,-177.54428351,52.02009071,-80.83550031,55.64513040
88.19139645,-4.76849999,-10.25380032,18.77580755,0.52240393,-1.21339433,-2.63988884

>  <Name>
ligand

>  <RI>
0

>  <Rbt.Current_Directory>
/home/itssahil/PROJECTS/Mol_Feturizer/Test_systems_manuscript/rnas/4kqy

>  <Rbt.Executable>
rbdock ($Id: //depot/dev/client3/rdock/2013.1/src/exe/rbdock.cxx#4 $)

>  <Rbt.Library>
libRbt.so (2013.1, Build901 2013/11/27)

>  <Rbt.Parameter_File>
/export/apps/rDock/src/rDock_2013.1_src/data/scripts/dock_solv.prm

>  <Rbt.Receptor>
prm/pocket_docking_3.prm

>  <SCORE>
-19.8105

>  <SCORE.INTER>
-17.2382

>  <SCORE.INTER.CONST>
1

>  <SCORE.INTER.POLAR>
0

>  <SCORE.INTER.ROT>
7

>  <SCORE.INTER.SOLV>
14.757

>  <SCORE.INTER.VDW>
-24.6778

>  <SCORE.INTER.norm>
-0.638452

>  <SCORE.INTRA>
-2.57623

>  <SCORE.INTRA.DIHEDRAL>
-5.27215

>  <SCORE.INTRA.DIHEDRAL.0>
10.4103

>  <SCORE.INTRA.POLAR>
0

>  <SCORE.INTRA.POLAR.0>
0

>  <SCORE.INTRA.REPUL>
0

>  <SCORE.INTRA.REPUL.0>
0

>  <SCORE.INTRA.SOLV>
0.0272073

>  <SCORE.INTRA.SOLV.lig_0>
-49.5008

>  <SCORE.INTRA.VDW>
0.0462383

>  <SCORE.INTRA.VDW.0>
-2.6946

>  <SCORE.INTRA.norm>
-0.095416

>  <SCORE.RESTR>
0.0039107

>  <SCORE.RESTR.CAVITY>
0.0039107

>  <SCORE.RESTR.norm>
0.000144841

>  <SCORE.SYSTEM>
0

>  <SCORE.SYSTEM.CONST>
0

>  <SCORE.SYSTEM.DIHEDRAL>
0

>  <SCORE.SYSTEM.SOLV>
0

>  <SCORE.SYSTEM.norm>
0

>  <SCORE.heavy>
27

>  <SCORE.norm>
-0.733723

>  <RMSD>
5.324

$$$$
ligand
 OpenBabel02271912153D
libRbt.so/2013.1/901 2013/11/27
 27 29  0  0  0  0  0  0  0  0999 V2000
   -2.2261   -8.6658   15.6797 N   0  0  0  0  0  0  0  0  0  0  0  0
   -1.9888   -8.9599   17.0802 C   0  0  2  0  0  0  0  0  0  0  0  0
   -2.1298  -10.4408   17.2544 C   0  0  0  0  0  0  0  0  0  0  0  0
   -1.2543  -11.0662   17.8904 O   0  0  0  0  0  0  0  0  0  0  0  0
   -3.0011   -8.2225   17.9609 C   0  0  0  0  0  0  0  0  0  0  0  0
   -2.8045   -8.5630   19.4549 C   0  0  0  0  0  0  0  0  0  0  0  0
   -3.8655   -7.8100   20.5144 S   0  0  2  0  0  0  0  0  0  0  0  0
   -3.5233   -8.2862   22.0683 C   0  0  0  0  0  0  0  0  0  0  0  0
   -5.4549   -8.2038   20.1054 C   0  0  0  0  0  0  0  0  0  0  0  0
   -5.8825   -9.6222   20.5379 C   0  0  1  0  0  0  0  0  0  0  0  0
   -7.3047   -9.8246   20.4881 O   0  0  0  0  0  0  0  0  0  0  0  0
   -5.3754  -10.7182   19.6147 C   0  0  1  0  0  0  0  0  0  0  0  0
   -3.9804  -11.0707   19.7076 O   0  0  0  0  0  0  0  0  0  0  0  0
   -6.3142  -11.8417   19.9790 C   0  0  1  0  0  0  0  0  0  0  0  0
   -5.9915  -12.3494   21.2702 O   0  0  0  0  0  0  0  0  0  0  0  0
   -7.6397  -11.1430   20.0487 C   0  0  2  0  0  0  0  0  0  0  0  0
   -3.1383  -11.0219   16.7870 O   0  0  0  0  0  0  0  0  0  0  0  0
   -8.5530   -9.0508   15.2462 N   0  0  0  0  0  0  0  0  0  0  0  0
   -7.7026   -8.6291   16.2134 C   0  0  0  0  0  0  0  0  0  0  0  0
   -7.5769   -9.2559   17.3952 N   0  0  0  0  0  0  0  0  0  0  0  0
   -8.2745  -10.3591   17.6874 C   0  0  0  0  0  0  0  0  0  0  0  0
   -9.1891  -10.8748   16.6798 C   0  0  0  0  0  0  0  0  0  0  0  0
   -9.3345  -10.1672   15.3867 C   0  0  0  0  0  0  0  0  0  0  0  0
  -10.1887  -10.6050   14.3960 N   0  0  0  0  0  0  0  0  0  0  0  0
   -9.7278  -11.9518   17.2049 N   0  0  0  0  0  0  0  0  0  0  0  0
   -9.2394  -12.1233   18.4410 C   0  0  0  0  0  0  0  0  0  0  0  0
   -8.3577  -11.1693   18.7377 N   0  0  0  0  0  0  0  0  0  0  0  0
  2  1  1  6  0  0  0
  2  3  1  0  0  0  0
  2  5  1  0  0  0  0
  3  4  1  0  0  0  0
  3 17  1  0  0  0  0
  5  6  1  0  0  0  0
  7  6  1  6  0  0  0
  7  8  1  0  0  0  0
  7  9  1  0  0  0  0
 10  9  1  6  0  0  0
 10 11  1  0  0  0  0
 10 12  1  0  0  0  0
 11 16  1  0  0  0  0
 12 13  1  1  0  0  0
 12 14  1  0  0  0  0
 14 15  1  1  0  0  0
 14 16  1  0  0  0  0
 16 27  1  6  0  0  0
 18 19  2  0  0  0  0
 18 23  1  0  0  0  0
 19 20  1  0  0  0  0
 20 21  2  0  0  0  0
 21 22  1  0  0  0  0
 21 27  1  0  0  0  0
 22 23  2  0  0  0  0
 22 25  1  0  0  0  0
 23 24  1  0  0  0  0
 25 26  2  0  0  0  0
 26 27  1  0  0  0  0
M  END
>  <CHROM.1>
132.42622742,177.76771495,-179.89509779,179.77442848,76.68641829,165.46278582
31.35111436,-5.73744665,-9.97375363,18.45349415,-0.32835470,-0.26661941,-1.48853581

>  <Name>
ligand

>  <RI>
0

>  <Rbt.Current_Directory>
/home/itssahil/PROJECTS/Mol_Feturizer/Test_systems_manuscript/rnas/4kqy

>  <Rbt.Executable>
rbdock ($Id: //depot/dev/client3/rdock/2013.1/src/exe/rbdock.cxx#4 $)

>  <Rbt.Library>
libRbt.so (2013.1, Build901 2013/11/27)

>  <Rbt.Parameter_File>
/export/apps/rDock/src/rDock_2013.1_src/data/scripts/dock_solv.prm

>  <Rbt.Receptor>
prm/pocket_docking_8.prm

>  <SCORE>
-18.8504

>  <SCORE.INTER>
-15.3117

>  <SCORE.INTER.CONST>
1

>  <SCORE.INTER.POLAR>
0

>  <SCORE.INTER.ROT>
7

>  <SCORE.INTER.SOLV>
9.56566

>  <SCORE.INTER.VDW>
-21.6631

>  <SCORE.INTER.norm>
-0.567102

>  <SCORE.INTRA>
-3.53866

>  <SCORE.INTRA.DIHEDRAL>
-6.2484

>  <SCORE.INTRA.DIHEDRAL.0>
10.4103

>  <SCORE.INTRA.POLAR>
0

>  <SCORE.INTRA.POLAR.0>
0

>  <SCORE.INTRA.REPUL>
0

>  <SCORE.INTRA.REPUL.0>
0

>  <SCORE.INTRA.SOLV>
0.296548

>  <SCORE.INTRA.SOLV.lig_0>
-49.5008

>  <SCORE.INTRA.VDW>
-0.562734

>  <SCORE.INTRA.VDW.0>
-2.6946

>  <SCORE.INTRA.norm>
-0.131061

>  <SCORE.RESTR>
0

>  <SCORE.RESTR.CAVITY>
0

>  <SCORE.RESTR.norm>
0

>  <SCORE.SYSTEM>
0

>  <SCORE.SYSTEM.CONST>
0

>  <SCORE.SYSTEM.DIHEDRAL>
0

>  <SCORE.SYSTEM.SOLV>
0

>  <SCORE.SYSTEM.norm>
0

>  <SCORE.heavy>
27

>  <SCORE.norm>
-0.698163

>  <RMSD>
5.329

$$$$
ligand
 OpenBabel02271912153D
libRbt.so/2013.1/901 2013/11/27
 27 29  0  0  0  0  0  0  0  0999 V2000
   -3.6114  -11.3280   12.7435 N   0  0  0  0  0  0  0  0  0  0  0  0
   -2.9393  -11.3515   14.0287 C   0  0  2  0  0  0  0  0  0  0  0  0
   -2.2788  -12.6891   14.1614 C   0  0  0  0  0  0  0  0  0  0  0  0
   -1.0317  -12.7506   14.2189 O   0  0  0  0  0  0  0  0  0  0  0  0
   -3.9459  -11.1411   15.1630 C   0  0  0  0  0  0  0  0  0  0  0  0
   -4.0483   -9.6513   15.5589 C   0  0  0  0  0  0  0  0  0  0  0  0
   -4.9591   -9.3281   16.9305 S   0  0  2  0  0  0  0  0  0  0  0  0
   -6.5739   -9.3907   16.5471 C   0  0  0  0  0  0  0  0  0  0  0  0
   -4.5490   -7.8095   17.5422 C   0  0  0  0  0  0  0  0  0  0  0  0
   -4.8226   -7.6448   19.0521 C   0  0  1  0  0  0  0  0  0  0  0  0
   -6.1430   -8.0622   19.4370 O   0  0  0  0  0  0  0  0  0  0  0  0
   -3.9456   -8.5244   19.9285 C   0  0  1  0  0  0  0  0  0  0  0  0
   -2.5692   -8.1297   20.0974 O   0  0  0  0  0  0  0  0  0  0  0  0
   -4.7432   -8.5200   21.2091 C   0  0  1  0  0  0  0  0  0  0  0  0
   -4.6415   -7.2491   21.8443 O   0  0  0  0  0  0  0  0  0  0  0  0
   -6.1471   -8.7049   20.7140 C   0  0  2  0  0  0  0  0  0  0  0  0
   -2.9884  -13.7201   14.2441 O   0  0  0  0  0  0  0  0  0  0  0  0
   -5.1568  -13.8015   21.8628 N   0  0  0  0  0  0  0  0  0  0  0  0
   -4.4258  -12.7009   22.1642 C   0  0  0  0  0  0  0  0  0  0  0  0
   -4.7948  -11.4610   21.8013 N   0  0  0  0  0  0  0  0  0  0  0  0
   -5.9291  -11.2292   21.1312 C   0  0  0  0  0  0  0  0  0  0  0  0
   -6.7694  -12.3693   20.7975 C   0  0  0  0  0  0  0  0  0  0  0  0
   -6.3459  -13.7345   21.1858 C   0  0  0  0  0  0  0  0  0  0  0  0
   -7.0975  -14.8535   20.8928 N   0  0  0  0  0  0  0  0  0  0  0  0
   -7.8084  -11.8735   20.1645 N   0  0  0  0  0  0  0  0  0  0  0  0
   -7.6646  -10.5446   20.0679 C   0  0  0  0  0  0  0  0  0  0  0  0
   -6.5355  -10.1473   20.6534 N   0  0  0  0  0  0  0  0  0  0  0  0
  2  1  1  6  0  0  0
  2  3  1  0  0  0  0
  2  5  1  0  0  0  0
  3  4  1  0  0  0  0
  3 17  1  0  0  0  0
  5  6  1  0  0  0  0
  7  6  1  6  0  0  0
  7  8  1  0  0  0  0
  7  9  1  0  0  0  0
 10  9  1  6  0  0  0
 10 11  1  0  0  0  0
 10 12  1  0  0  0  0
 11 16  1  0  0  0  0
 12 13  1  1  0  0  0
 12 14  1  0  0  0  0
 14 15  1  6  0  0  0
 14 16  1  0  0  0  0
 16 27  1  6  0  0  0
 18 19  2  0  0  0  0
 18 23  1  0  0  0  0
 19 20  1  0  0  0  0
 20 21  2  0  0  0  0
 21 22  1  0  0  0  0
 21 27  1  0  0  0  0
 22 23  2  0  0  0  0
 22 25  1  0  0  0  0
 23 24  1  0  0  0  0
 25 26  2  0  0  0  0
 26 27  1  0  0  0  0
M  END
>  <CHROM.1>
115.50206753,-93.47088346,-171.84238093,-78.19246234,-154.98753626,-49.24197187
127.77742293,-4.86088520,-10.58359570,18.52524086,0.31967188,-1.16834001
-2.93760582

>  <Name>
ligand

>  <RI>
0

>  <Rbt.Current_Directory>
/home/itssahil/PROJECTS/Mol_Feturizer/Test_systems_manuscript/rnas/4kqy

>  <Rbt.Executable>
rbdock ($Id: //depot/dev/client3/rdock/2013.1/src/exe/rbdock.cxx#4 $)

>  <Rbt.Library>
libRbt.so (2013.1, Build901 2013/11/27)

>  <Rbt.Parameter_File>
/export/apps/rDock/src/rDock_2013.1_src/data/scripts/dock_solv.prm

>  <Rbt.Receptor>
prm/pocket_docking_5.prm

>  <SCORE>
-13.6449

>  <SCORE.INTER>
-12.712

>  <SCORE.INTER.CONST>
1

>  <SCORE.INTER.POLAR>
0

>  <SCORE.INTER.ROT>
7

>  <SCORE.INTER.SOLV>
13.7333

>  <SCORE.INTER.VDW>
-21.3191

>  <SCORE.INTER.norm>
-0.470814

>  <SCORE.INTRA>
-0.932893

>  <SCORE.INTRA.DIHEDRAL>
-0.775914

>  <SCORE.INTRA.DIHEDRAL.0>
10.4103

>  <SCORE.INTRA.POLAR>
0

>  <SCORE.INTRA.POLAR.0>
0

>  <SCORE.INTRA.REPUL>
0

>  <SCORE.INTRA.REPUL.0>
0

>  <SCORE.INTRA.SOLV>
-0.0594842

>  <SCORE.INTRA.SOLV.lig_0>
-49.5008

>  <SCORE.INTRA.VDW>
-0.515193

>  <SCORE.INTRA.VDW.0>
-2.6946

>  <SCORE.INTRA.norm>
-0.0345516

>  <SCORE.RESTR>
0

>  <SCORE.RESTR.CAVITY>
0

>  <SCORE.RESTR.norm>
0

>  <SCORE.SYSTEM>
0

>  <SCORE.SYSTEM.CONST>
0

>  <SCORE.SYSTEM.DIHEDRAL>
0

>  <SCORE.SYSTEM.SOLV>
0

>  <SCORE.SYSTEM.norm>
0

>  <SCORE.heavy>
27

>  <SCORE.norm>
-0.505366

>  <RMSD>
5.332

$$$$
ligand
 OpenBabel02271912153D
libRbt.so/2013.1/901 2013/11/27
 27 29  0  0  0  0  0  0  0  0999 V2000
   -0.5084  -12.7471   16.2743 N   0  0  0  0  0  0  0  0  0  0  0  0
   -1.6347  -12.8560   17.1819 C   0  0  2  0  0  0  0  0  0  0  0  0
   -2.2704  -14.1912   16.9445 C   0  0  0  0  0  0  0  0  0  0  0  0
   -2.5156  -14.5503   15.7727 O   0  0  0  0  0  0  0  0  0  0  0  0
   -2.6428  -11.7336   16.9210 C   0  0  0  0  0  0  0  0  0  0  0  0
   -2.1374  -10.3809   17.4698 C   0  0  0  0  0  0  0  0  0  0  0  0
   -3.1959   -9.0902   17.3001 S   0  0  2  0  0  0  0  0  0  0  0  0
   -2.9606   -8.3755   15.8193 C   0  0  0  0  0  0  0  0  0  0  0  0
   -2.9449   -7.9795   18.5458 C   0  0  0  0  0  0  0  0  0  0  0  0
   -4.2409   -7.5071   19.2379 C   0  0  1  0  0  0  0  0  0  0  0  0
   -5.3940   -8.2825   18.8704 O   0  0  0  0  0  0  0  0  0  0  0  0
   -4.2183   -7.6720   20.7489 C   0  0  1  0  0  0  0  0  0  0  0  0
   -3.4281   -6.7338   21.5066 O   0  0  0  0  0  0  0  0  0  0  0  0
   -5.6945   -7.6133   21.0546 C   0  0  1  0  0  0  0  0  0  0  0  0
   -6.1745   -6.2817   20.8948 O   0  0  0  0  0  0  0  0  0  0  0  0
   -6.2808   -8.4742   19.9751 C   0  0  2  0  0  0  0  0  0  0  0  0
   -2.5163  -14.9379   17.9218 O   0  0  0  0  0  0  0  0  0  0  0  0
   -4.0803  -12.9242   21.8806 N   0  0  0  0  0  0  0  0  0  0  0  0
   -3.5020  -11.7235   21.6345 C   0  0  0  0  0  0  0  0  0  0  0  0
   -4.1830  -10.6759   21.1405 N   0  0  0  0  0  0  0  0  0  0  0  0
   -5.4926  -10.7454   20.8772 C   0  0  0  0  0  0  0  0  0  0  0  0
   -6.1759  -12.0026   21.1418 C   0  0  0  0  0  0  0  0  0  0  0  0
   -5.4136  -13.1578   21.6696 C   0  0  0  0  0  0  0  0  0  0  0  0
   -6.0051  -14.3754   21.9348 N   0  0  0  0  0  0  0  0  0  0  0  0
   -7.4326  -11.8011   20.8158 N   0  0  0  0  0  0  0  0  0  0  0  0
   -7.5677  -10.5477   20.3614 C   0  0  0  0  0  0  0  0  0  0  0  0
   -6.4026   -9.9023   20.4002 N   0  0  0  0  0  0  0  0  0  0  0  0
  2  1  1  6  0  0  0
  2  3  1  0  0  0  0
  2  5  1  0  0  0  0
  3  4  1  0  0  0  0
  3 17  1  0  0  0  0
  5  6  1  0  0  0  0
  7  6  1  1  0  0  0
  7  8  1  0  0  0  0
  7  9  1  0  0  0  0
 10  9  1  6  0  0  0
 10 11  1  0  0  0  0
 10 12  1  0  0  0  0
 11 16  1  0  0  0  0
 12 13  1  1  0  0  0
 12 14  1  0  0  0  0
 14 15  1  6  0  0  0
 14 16  1  0  0  0  0
 16 27  1  1  0  0  0
 18 19  2  0  0  0  0
 18 23  1  0  0  0  0
 19 20  1  0  0  0  0
 20 21  2  0  0  0  0
 21 22  1  0  0  0  0
 21 27  1  0  0  0  0
 22 23  2  0  0  0  0
 22 25  1  0  0  0  0
 23 24  1  0  0  0  0
 25 26  2  0  0  0  0
 26 27  1  0  0  0  0
M  END
>  <CHROM.1>
-47.98605010,-75.01672738,-177.35163871,-87.52734806,-132.64215063,11.12672857
62.39735936,-4.17358407,-10.52870218,19.26572410,-0.75556761,0.88943744,-0.08677833

>  <Name>
ligand

>  <RI>
0

>  <Rbt.Current_Directory>
/home/itssahil/PROJECTS/Mol_Feturizer/Test_systems_manuscript/rnas/4kqy

>  <Rbt.Executable>
rbdock ($Id: //depot/dev/client3/rdock/2013.1/src/exe/rbdock.cxx#4 $)

>  <Rbt.Library>
libRbt.so (2013.1, Build901 2013/11/27)

>  <Rbt.Parameter_File>
/export/apps/rDock/src/rDock_2013.1_src/data/scripts/dock_solv.prm

>  <Rbt.Receptor>
prm/pocket_docking_3.prm

>  <SCORE>
-14.5231

>  <SCORE.INTER>
-16.0845

>  <SCORE.INTER.CONST>
1

>  <SCORE.INTER.POLAR>
0

>  <SCORE.INTER.ROT>
7

>  <SCORE.INTER.SOLV>
16.7005

>  <SCORE.INTER.VDW>
-24.5565

>  <SCORE.INTER.norm>
-0.595723

>  <SCORE.INTRA>
1.56143

>  <SCORE.INTRA.DIHEDRAL>
4.39619

>  <SCORE.INTRA.DIHEDRAL.0>
10.4103

>  <SCORE.INTRA.POLAR>
0

>  <SCORE.INTRA.POLAR.0>
0

>  <SCORE.INTRA.REPUL>
0

>  <SCORE.INTRA.REPUL.0>
0

>  <SCORE.INTRA.SOLV>
0.0208933

>  <SCORE.INTRA.SOLV.lig_0>
-49.5008

>  <SCORE.INTRA.VDW>
-0.647109

>  <SCORE.INTRA.VDW.0>
-2.6946

>  <SCORE.INTRA.norm>
0.0578308

>  <SCORE.RESTR>
0

>  <SCORE.RESTR.CAVITY>
0

>  <SCORE.RESTR.norm>
0

>  <SCORE.SYSTEM>
0

>  <SCORE.SYSTEM.CONST>
0

>  <SCORE.SYSTEM.DIHEDRAL>
0

>  <SCORE.SYSTEM.SOLV>
0

>  <SCORE.SYSTEM.norm>
0

>  <SCORE.heavy>
27

>  <SCORE.norm>
-0.537892

>  <RMSD>
5.348

$$$$
ligand
 OpenBabel02271912153D
libRbt.so/2013.1/901 2013/11/27
 27 29  0  0  0  0  0  0  0  0999 V2000
    0.0988  -12.2429   14.1569 N   0  0  0  0  0  0  0  0  0  0  0  0
    0.1573  -11.4180   15.3487 C   0  0  2  0  0  0  0  0  0  0  0  0
    0.5545  -12.3071   16.4866 C   0  0  0  0  0  0  0  0  0  0  0  0
    1.3835  -11.8915   17.3246 O   0  0  0  0  0  0  0  0  0  0  0  0
   -1.2064  -10.7790   15.6247 C   0  0  0  0  0  0  0  0  0  0  0  0
   -1.1838   -9.9348   16.9183 C   0  0  0  0  0  0  0  0  0  0  0  0
   -2.5592   -9.0188   17.2087 S   0  0  2  0  0  0  0  0  0  0  0  0
   -2.5908   -7.7263   16.1660 C   0  0  0  0  0  0  0  0  0  0  0  0
   -2.5655   -8.4926   18.8123 C   0  0  0  0  0  0  0  0  0  0  0  0
   -3.8814   -7.8129   19.2461 C   0  0  1  0  0  0  0  0  0  0  0  0
   -5.0502   -8.4296   18.6810 O   0  0  0  0  0  0  0  0  0  0  0  0
   -4.1581   -7.9193   20.7370 C   0  0  1  0  0  0  0  0  0  0  0  0
   -3.3889   -7.0742   21.6162 O   0  0  0  0  0  0  0  0  0  0  0  0
   -5.6402   -7.6383   20.7630 C   0  0  1  0  0  0  0  0  0  0  0  0
   -5.8812   -6.2592   20.5002 O   0  0  0  0  0  0  0  0  0  0  0  0
   -6.1413   -8.4487   19.6045 C   0  0  2  0  0  0  0  0  0  0  0  0
    0.0258  -13.4391   16.5963 O   0  0  0  0  0  0  0  0  0  0  0  0
   -9.2291  -12.7317   18.9741 N   0  0  0  0  0  0  0  0  0  0  0  0
   -9.2218  -11.5736   18.2704 C   0  0  0  0  0  0  0  0  0  0  0  0
   -8.3833  -10.5605   18.5458 N   0  0  0  0  0  0  0  0  0  0  0  0
   -7.4790  -10.6393   19.5283 C   0  0  0  0  0  0  0  0  0  0  0  0
   -7.4222  -11.8675   20.3065 C   0  0  0  0  0  0  0  0  0  0  0  0
   -8.3625  -12.9723   20.0075 C   0  0  0  0  0  0  0  0  0  0  0  0
   -8.3598  -14.1573   20.7136 N   0  0  0  0  0  0  0  0  0  0  0  0
   -6.4575  -11.6917   21.1808 N   0  0  0  0  0  0  0  0  0  0  0  0
   -5.9404  -10.4664   21.0163 C   0  0  0  0  0  0  0  0  0  0  0  0
   -6.5478   -9.8268   20.0175 N   0  0  0  0  0  0  0  0  0  0  0  0
  2  1  1  6  0  0  0
  2  3  1  0  0  0  0
  2  5  1  0  0  0  0
  3  4  1  0  0  0  0
  3 17  1  0  0  0  0
  5  6  1  0  0  0  0
  7  6  1  6  0  0  0
  7  8  1  0  0  0  0
  7  9  1  0  0  0  0
 10  9  1  1  0  0  0
 10 11  1  0  0  0  0
 10 12  1  0  0  0  0
 11 16  1  0  0  0  0
 12 13  1  1  0  0  0
 12 14  1  0  0  0  0
 14 15  1  6  0  0  0
 14 16  1  0  0  0  0
 16 27  1  1  0  0  0
 18 19  2  0  0  0  0
 18 23  1  0  0  0  0
 19 20  1  0  0  0  0
 20 21  2  0  0  0  0
 21 22  1  0  0  0  0
 21 27  1  0  0  0  0
 22 23  2  0  0  0  0
 22 25  1  0  0  0  0
 23 24  1  0  0  0  0
 25 26  2  0  0  0  0
 26 27  1  0  0  0  0
M  END
>  <CHROM.1>
138.23207336,177.97247539,171.94939834,-73.35194417,-171.65136621,37.62296062
-93.73784594,-4.23316751,-10.16325428,18.58764538,0.21188241,-0.44241945
-2.77566246

>  <Name>
ligand

>  <RI>
0

>  <Rbt.Current_Directory>
/home/itssahil/PROJECTS/Mol_Feturizer/Test_systems_manuscript/rnas/4kqy

>  <Rbt.Executable>
rbdock ($Id: //depot/dev/client3/rdock/2013.1/src/exe/rbdock.cxx#4 $)

>  <Rbt.Library>
libRbt.so (2013.1, Build901 2013/11/27)

>  <Rbt.Parameter_File>
/export/apps/rDock/src/rDock_2013.1_src/data/scripts/dock_solv.prm

>  <Rbt.Receptor>
prm/pocket_docking_7.prm

>  <SCORE>
-20.5492

>  <SCORE.INTER>
-18.8646

>  <SCORE.INTER.CONST>
1

>  <SCORE.INTER.POLAR>
0

>  <SCORE.INTER.ROT>
7

>  <SCORE.INTER.SOLV>
12.8785

>  <SCORE.INTER.VDW>
-25.1359

>  <SCORE.INTER.norm>
-0.698691

>  <SCORE.INTRA>
-1.68458

>  <SCORE.INTRA.DIHEDRAL>
-5.14735

>  <SCORE.INTRA.DIHEDRAL.0>
10.4103

>  <SCORE.INTRA.POLAR>
0

>  <SCORE.INTRA.POLAR.0>
0

>  <SCORE.INTRA.REPUL>
0

>  <SCORE.INTRA.REPUL.0>
0

>  <SCORE.INTRA.SOLV>
-0.639455

>  <SCORE.INTRA.SOLV.lig_0>
-49.5008

>  <SCORE.INTRA.VDW>
1.20882

>  <SCORE.INTRA.VDW.0>
-2.6946

>  <SCORE.INTRA.norm>
-0.0623918

>  <SCORE.RESTR>
0

>  <SCORE.RESTR.CAVITY>
0

>  <SCORE.RESTR.norm>
0

>  <SCORE.SYSTEM>
0

>  <SCORE.SYSTEM.CONST>
0

>  <SCORE.SYSTEM.DIHEDRAL>
0

>  <SCORE.SYSTEM.SOLV>
0

>  <SCORE.SYSTEM.norm>
0

>  <SCORE.heavy>
27

>  <SCORE.norm>
-0.761082

>  <RMSD>
5.354

$$$$
ligand
 OpenBabel02271912153D
libRbt.so/2013.1/901 2013/11/27
 27 29  0  0  0  0  0  0  0  0999 V2000
   -3.2097   -7.4580   16.4231 N   0  0  0  0  0  0  0  0  0  0  0  0
   -2.6557   -8.4121   17.3648 C   0  0  2  0  0  0  0  0  0  0  0  0
   -2.9201   -9.7815   16.8188 C   0  0  0  0  0  0  0  0  0  0  0  0
   -2.1632  -10.7228   17.1401 O   0  0  0  0  0  0  0  0  0  0  0  0
   -3.3129   -8.2518   18.7383 C   0  0  0  0  0  0  0  0  0  0  0  0
   -4.8540   -8.2497   18.6309 C   0  0  0  0  0  0  0  0  0  0  0  0
   -5.6808   -8.3972   20.0834 S   0  0  2  0  0  0  0  0  0  0  0  0
   -5.2838   -7.1254   21.0751 C   0  0  0  0  0  0  0  0  0  0  0  0
   -5.2918   -9.8681   20.8139 C   0  0  0  0  0  0  0  0  0  0  0  0
   -6.2255  -11.0321   20.4204 C   0  0  1  0  0  0  0  0  0  0  0  0
   -6.6203  -10.9990   19.0387 O   0  0  0  0  0  0  0  0  0  0  0  0
   -5.5711  -12.3999   20.5288 C   0  0  1  0  0  0  0  0  0  0  0  0
   -5.3886  -12.9448   21.8511 O   0  0  0  0  0  0  0  0  0  0  0  0
   -6.4910  -13.2156   19.6543 C   0  0  1  0  0  0  0  0  0  0  0  0
   -7.7393  -13.4159   20.3105 O   0  0  0  0  0  0  0  0  0  0  0  0
   -6.7006  -12.3108   18.4763 C   0  0  2  0  0  0  0  0  0  0  0  0
   -3.9131   -9.9661   16.0751 O   0  0  0  0  0  0  0  0  0  0  0  0
   -1.8105  -13.7418   16.9547 N   0  0  0  0  0  0  0  0  0  0  0  0
   -2.3260  -13.6612   18.2054 C   0  0  0  0  0  0  0  0  0  0  0  0
   -3.5895  -13.2737   18.4477 N   0  0  0  0  0  0  0  0  0  0  0  0
   -4.4341  -12.9599   17.4590 C   0  0  0  0  0  0  0  0  0  0  0  0
   -3.9460  -13.0486   16.0910 C   0  0  0  0  0  0  0  0  0  0  0  0
   -2.5462  -13.4593   15.8341 C   0  0  0  0  0  0  0  0  0  0  0  0
   -2.0258  -13.5564   14.5603 N   0  0  0  0  0  0  0  0  0  0  0  0
   -4.9594  -12.7069   15.3279 N   0  0  0  0  0  0  0  0  0  0  0  0
   -6.0062  -12.4018   16.1069 C   0  0  0  0  0  0  0  0  0  0  0  0
   -5.6989  -12.5571   17.3941 N   0  0  0  0  0  0  0  0  0  0  0  0
  2  1  1  6  0  0  0
  2  3  1  0  0  0  0
  2  5  1  0  0  0  0
  3  4  1  0  0  0  0
  3 17  1  0  0  0  0
  5  6  1  0  0  0  0
  7  6  1  6  0  0  0
  7  8  1  0  0  0  0
  7  9  1  0  0  0  0
 10  9  1  6  0  0  0
 10 11  1  0  0  0  0
 10 12  1  0  0  0  0
 11 16  1  0  0  0  0
 12 13  1  1  0  0  0
 12 14  1  0  0  0  0
 14 15  1  1  0  0  0
 14 16  1  0  0  0  0
 16 27  1  6  0  0  0
 18 19  2  0  0  0  0
 18 23  1  0  0  0  0
 19 20  1  0  0  0  0
 20 21  2  0  0  0  0
 21 22  1  0  0  0  0
 21 27  1  0  0  0  0
 22 23  2  0  0  0  0
 22 25  1  0  0  0  0
 23 24  1  0  0  0  0
 25 26  2  0  0  0  0
 26 27  1  0  0  0  0
M  END
>  <CHROM.1>
153.91116335,50.47360278,167.94039880,60.26998176,-90.40187456,38.15817756
85.52071879,-4.58039746,-11.15101399,18.28639181,-2.27213470,-0.87432124
-2.87366956

>  <Name>
ligand

>  <RI>
0

>  <Rbt.Current_Directory>
/home/itssahil/PROJECTS/Mol_Feturizer/Test_systems_manuscript/rnas/4kqy

>  <Rbt.Executable>
rbdock ($Id: //depot/dev/client3/rdock/2013.1/src/exe/rbdock.cxx#4 $)

>  <Rbt.Library>
libRbt.so (2013.1, Build901 2013/11/27)

>  <Rbt.Parameter_File>
/export/apps/rDock/src/rDock_2013.1_src/data/scripts/dock_solv.prm

>  <Rbt.Receptor>
prm/pocket_docking_6.prm

>  <SCORE>
-11.9949

>  <SCORE.INTER>
-8.86426

>  <SCORE.INTER.CONST>
1

>  <SCORE.INTER.POLAR>
0

>  <SCORE.INTER.ROT>
7

>  <SCORE.INTER.SOLV>
11.9618

>  <SCORE.INTER.VDW>
-18.1634

>  <SCORE.INTER.norm>
-0.328306

>  <SCORE.INTRA>
-3.13065

>  <SCORE.INTRA.DIHEDRAL>
-2.86077

>  <SCORE.INTRA.DIHEDRAL.0>
10.4103

>  <SCORE.INTRA.POLAR>
0

>  <SCORE.INTRA.POLAR.0>
0

>  <SCORE.INTRA.REPUL>
0

>  <SCORE.INTRA.REPUL.0>
0

>  <SCORE.INTRA.SOLV>
0.441066

>  <SCORE.INTRA.SOLV.lig_0>
-49.5008

>  <SCORE.INTRA.VDW>
-1.9208

>  <SCORE.INTRA.VDW.0>
-2.6946

>  <SCORE.INTRA.norm>
-0.11595

>  <SCORE.RESTR>
0

>  <SCORE.RESTR.CAVITY>
0

>  <SCORE.RESTR.norm>
0

>  <SCORE.SYSTEM>
0

>  <SCORE.SYSTEM.CONST>
0

>  <SCORE.SYSTEM.DIHEDRAL>
0

>  <SCORE.SYSTEM.SOLV>
0

>  <SCORE.SYSTEM.norm>
0

>  <SCORE.heavy>
27

>  <SCORE.norm>
-0.444256

>  <RMSD>
5.360

$$$$
ligand
 OpenBabel02271912153D
libRbt.so/2013.1/901 2013/11/27
 27 29  0  0  0  0  0  0  0  0999 V2000
    0.1838  -12.4038   14.4191 N   0  0  0  0  0  0  0  0  0  0  0  0
    0.2338  -11.4566   15.5166 C   0  0  2  0  0  0  0  0  0  0  0  0
    0.6268  -12.2183   16.7448 C   0  0  0  0  0  0  0  0  0  0  0  0
   -0.0139  -13.2451   17.0567 O   0  0  0  0  0  0  0  0  0  0  0  0
   -1.1329  -10.7957   15.7157 C   0  0  0  0  0  0  0  0  0  0  0  0
   -1.1117   -9.7972   16.8943 C   0  0  0  0  0  0  0  0  0  0  0  0
   -2.5518   -8.9853   17.1808 S   0  0  2  0  0  0  0  0  0  0  0  0
   -2.6776   -7.7007   16.1355 C   0  0  0  0  0  0  0  0  0  0  0  0
   -2.5998   -8.4580   18.7834 C   0  0  0  0  0  0  0  0  0  0  0  0
   -3.9324   -7.7923   19.1868 C   0  0  1  0  0  0  0  0  0  0  0  0
   -5.0844   -8.4514   18.6350 O   0  0  0  0  0  0  0  0  0  0  0  0
   -4.2169   -7.8561   20.6787 C   0  0  1  0  0  0  0  0  0  0  0  0
   -3.4713   -6.9670   21.5345 O   0  0  0  0  0  0  0  0  0  0  0  0
   -5.7046   -7.6054   20.6865 C   0  0  1  0  0  0  0  0  0  0  0  0
   -5.9723   -6.2409   20.3775 O   0  0  0  0  0  0  0  0  0  0  0  0
   -6.1811   -8.4633   19.5520 C   0  0  2  0  0  0  0  0  0  0  0  0
    1.6101  -11.8311   17.4204 O   0  0  0  0  0  0  0  0  0  0  0  0
   -9.1645  -12.8343   19.0330 N   0  0  0  0  0  0  0  0  0  0  0  0
   -9.1744  -11.7009   18.2902 C   0  0  0  0  0  0  0  0  0  0  0  0
   -8.3621  -10.6602   18.5405 N   0  0  0  0  0  0  0  0  0  0  0  0
   -7.4684  -10.6850   19.5354 C   0  0  0  0  0  0  0  0  0  0  0  0
   -7.3937  -11.8846   20.3557 C   0  0  0  0  0  0  0  0  0  0  0  0
   -8.3054  -13.0200   20.0839 C   0  0  0  0  0  0  0  0  0  0  0  0
   -8.2849  -14.1800   20.8301 N   0  0  0  0  0  0  0  0  0  0  0  0
   -6.4440  -11.6573   21.2345 N   0  0  0  0  0  0  0  0  0  0  0  0
   -5.9524  -10.4268   21.0342 C   0  0  0  0  0  0  0  0  0  0  0  0
   -6.5617   -9.8355   20.0072 N   0  0  0  0  0  0  0  0  0  0  0  0
  2  1  1  6  0  0  0
  2  3  1  0  0  0  0
  2  5  1  0  0  0  0
  3  4  1  0  0  0  0
  3 17  1  0  0  0  0
  5  6  1  0  0  0  0
  7  6  1  6  0  0  0
  7  8  1  0  0  0  0
  7  9  1  0  0  0  0
 10  9  1  1  0  0  0
 10 11  1  0  0  0  0
 10 12  1  0  0  0  0
 11 16  1  0  0  0  0
 12 13  1  1  0  0  0
 12 14  1  0  0  0  0
 14 15  1  6  0  0  0
 14 16  1  0  0  0  0
 16 27  1  1  0  0  0
 18 19  2  0  0  0  0
 18 23  1  0  0  0  0
 19 20  1  0  0  0  0
 20 21  2  0  0  0  0
 21 22  1  0  0  0  0
 21 27  1  0  0  0  0
 22 23  2  0  0  0  0
 22 25  1  0  0  0  0
 23 24  1  0  0  0  0
 25 26  2  0  0  0  0
 26 27  1  0  0  0  0
M  END
>  <CHROM.1>
-52.22917475,179.12218817,178.60733171,-81.59749606,-175.48194781,39.73563671
-93.39733133,-4.22226205,-10.15343135,18.62572183,0.16625316,-0.43549778
-2.83385967

>  <Name>
ligand

>  <RI>
0

>  <Rbt.Current_Directory>
/home/itssahil/PROJECTS/Mol_Feturizer/Test_systems_manuscript/rnas/4kqy

>  <Rbt.Executable>
rbdock ($Id: //depot/dev/client3/rdock/2013.1/src/exe/rbdock.cxx#4 $)

>  <Rbt.Library>
libRbt.so (2013.1, Build901 2013/11/27)

>  <Rbt.Parameter_File>
/export/apps/rDock/src/rDock_2013.1_src/data/scripts/dock_solv.prm

>  <Rbt.Receptor>
prm/pocket_docking_4.prm

>  <SCORE>
-20.3236

>  <SCORE.INTER>
-18.6608

>  <SCORE.INTER.CONST>
1

>  <SCORE.INTER.POLAR>
0

>  <SCORE.INTER.ROT>
7

>  <SCORE.INTER.SOLV>
13.4647

>  <SCORE.INTER.VDW>
-25.1954

>  <SCORE.INTER.norm>
-0.691141

>  <SCORE.INTRA>
-1.66712

>  <SCORE.INTRA.DIHEDRAL>
-4.88741

>  <SCORE.INTRA.DIHEDRAL.0>
10.4103

>  <SCORE.INTRA.POLAR>
0

>  <SCORE.INTRA.POLAR.0>
0

>  <SCORE.INTRA.REPUL>
0

>  <SCORE.INTRA.REPUL.0>
0

>  <SCORE.INTRA.SOLV>
-0.636318

>  <SCORE.INTRA.SOLV.lig_0>
-49.5008

>  <SCORE.INTRA.VDW>
1.09474

>  <SCORE.INTRA.VDW.0>
-2.6946

>  <SCORE.INTRA.norm>
-0.0617453

>  <SCORE.RESTR>
0.00432323

>  <SCORE.RESTR.CAVITY>
0.00432323

>  <SCORE.RESTR.norm>
0.00016012

>  <SCORE.SYSTEM>
0

>  <SCORE.SYSTEM.CONST>
0

>  <SCORE.SYSTEM.DIHEDRAL>
0

>  <SCORE.SYSTEM.SOLV>
0

>  <SCORE.SYSTEM.norm>
0

>  <SCORE.heavy>
27

>  <SCORE.norm>
-0.752726

>  <RMSD>
5.367

$$$$
ligand
 OpenBabel02271912153D
libRbt.so/2013.1/901 2013/11/27
 27 29  0  0  0  0  0  0  0  0999 V2000
   -0.9606  -13.2591   14.9750 N   0  0  0  0  0  0  0  0  0  0  0  0
   -0.5354  -12.0567   15.6661 C   0  0  2  0  0  0  0  0  0  0  0  0
    0.2985  -12.4856   16.8340 C   0  0  0  0  0  0  0  0  0  0  0  0
    0.2957  -13.6876   17.1767 O   0  0  0  0  0  0  0  0  0  0  0  0
   -1.7499  -11.2571   16.1455 C   0  0  0  0  0  0  0  0  0  0  0  0
   -1.3996   -9.7669   16.3530 C   0  0  0  0  0  0  0  0  0  0  0  0
   -2.6779   -8.7795   16.8071 S   0  0  2  0  0  0  0  0  0  0  0  0
   -2.5492   -7.3181   16.0283 C   0  0  0  0  0  0  0  0  0  0  0  0
   -2.6672   -8.5669   18.4813 C   0  0  0  0  0  0  0  0  0  0  0  0
   -3.9255   -7.8650   19.0343 C   0  0  1  0  0  0  0  0  0  0  0  0
   -5.1520   -8.4490   18.5646 O   0  0  0  0  0  0  0  0  0  0  0  0
   -4.0759   -7.9855   20.5422 C   0  0  1  0  0  0  0  0  0  0  0  0
   -3.2154   -7.1691   21.3618 O   0  0  0  0  0  0  0  0  0  0  0  0
   -5.5436   -7.6732   20.6986 C   0  0  1  0  0  0  0  0  0  0  0  0
   -5.7751   -6.2859   20.4734 O   0  0  0  0  0  0  0  0  0  0  0  0
   -6.1602   -8.4571   19.5781 C   0  0  2  0  0  0  0  0  0  0  0  0
    1.0083  -11.6386   17.4271 O   0  0  0  0  0  0  0  0  0  0  0  0
   -9.2448  -12.7519   19.0166 N   0  0  0  0  0  0  0  0  0  0  0  0
   -9.2453  -11.6011   18.3009 C   0  0  0  0  0  0  0  0  0  0  0  0
   -8.4065  -10.5837   18.5592 N   0  0  0  0  0  0  0  0  0  0  0  0
   -7.4942  -10.6507   19.5352 C   0  0  0  0  0  0  0  0  0  0  0  0
   -7.4290  -11.8708   20.3255 C   0  0  0  0  0  0  0  0  0  0  0  0
   -8.3695  -12.9803   20.0455 C   0  0  0  0  0  0  0  0  0  0  0  0
   -8.3590  -14.1579   20.7638 N   0  0  0  0  0  0  0  0  0  0  0  0
   -6.4577  -11.6841   21.1903 N   0  0  0  0  0  0  0  0  0  0  0  0
   -5.9442  -10.4596   21.0090 C   0  0  0  0  0  0  0  0  0  0  0  0
   -6.5607   -9.8316   20.0086 N   0  0  0  0  0  0  0  0  0  0  0  0
  2  1  1  1  0  0  0
  2  3  1  0  0  0  0
  2  5  1  0  0  0  0
  3  4  1  0  0  0  0
  3 17  1  0  0  0  0
  5  6  1  0  0  0  0
  7  6  1  1  0  0  0
  7  8  1  0  0  0  0
  7  9  1  0  0  0  0
 10  9  1  6  0  0  0
 10 11  1  0  0  0  0
 10 12  1  0  0  0  0
 11 16  1  0  0  0  0
 12 13  1  1  0  0  0
 12 14  1  0  0  0  0
 14 15  1  6  0  0  0
 14 16  1  0  0  0  0
 16 27  1  1  0  0  0
 18 19  2  0  0  0  0
 18 23  1  0  0  0  0
 19 20  1  0  0  0  0
 20 21  2  0  0  0  0
 21 22  1  0  0  0  0
 21 27  1  0  0  0  0
 22 23  2  0  0  0  0
 22 25  1  0  0  0  0
 23 24  1  0  0  0  0
 25 26  2  0  0  0  0
 26 27  1  0  0  0  0
M  END
>  <CHROM.1>
-12.93884713,-156.91783257,177.13136972,-140.87602436,-170.66799605,49.84181764
-88.89083353,-4.33796748,-10.21875607,18.58810241,0.16160777,-0.44123733
-2.87004889

>  <Name>
ligand

>  <RI>
0

>  <Rbt.Current_Directory>
/home/itssahil/PROJECTS/Mol_Feturizer/Test_systems_manuscript/rnas/4kqy

>  <Rbt.Executable>
rbdock ($Id: //depot/dev/client3/rdock/2013.1/src/exe/rbdock.cxx#4 $)

>  <Rbt.Library>
libRbt.so (2013.1, Build901 2013/11/27)

>  <Rbt.Parameter_File>
/export/apps/rDock/src/rDock_2013.1_src/data/scripts/dock_solv.prm

>  <Rbt.Receptor>
prm/pocket_docking_7.prm

>  <SCORE>
-17.8268

>  <SCORE.INTER>
-17.5103

>  <SCORE.INTER.CONST>
1

>  <SCORE.INTER.POLAR>
0

>  <SCORE.INTER.ROT>
7

>  <SCORE.INTER.SOLV>
13.7613

>  <SCORE.INTER.VDW>
-24.5273

>  <SCORE.INTER.norm>
-0.648528

>  <SCORE.INTRA>
-0.316548

>  <SCORE.INTRA.DIHEDRAL>
-1.76212

>  <SCORE.INTRA.DIHEDRAL.0>
10.4103

>  <SCORE.INTRA.POLAR>
0

>  <SCORE.INTRA.POLAR.0>
0

>  <SCORE.INTRA.REPUL>
0

>  <SCORE.INTRA.REPUL.0>
0

>  <SCORE.INTRA.SOLV>
-0.621201

>  <SCORE.INTRA.SOLV.lig_0>
-49.5008

>  <SCORE.INTRA.VDW>
0.875114

>  <SCORE.INTRA.VDW.0>
-2.6946

>  <SCORE.INTRA.norm>
-0.011724

>  <SCORE.RESTR>
0

>  <SCORE.RESTR.CAVITY>
0

>  <SCORE.RESTR.norm>
0

>  <SCORE.SYSTEM>
0

>  <SCORE.SYSTEM.CONST>
0

>  <SCORE.SYSTEM.DIHEDRAL>
0

>  <SCORE.SYSTEM.SOLV>
0

>  <SCORE.SYSTEM.norm>
0

>  <SCORE.heavy>
27

>  <SCORE.norm>
-0.660252

>  <RMSD>
5.368

$$$$
ligand
 OpenBabel02271912153D
libRbt.so/2013.1/901 2013/11/27
 27 29  0  0  0  0  0  0  0  0999 V2000
   -5.4262   -8.1684   16.3303 N   0  0  0  0  0  0  0  0  0  0  0  0
   -4.9440   -9.1574   17.2756 C   0  0  2  0  0  0  0  0  0  0  0  0
   -6.1382   -9.7065   17.9937 C   0  0  0  0  0  0  0  0  0  0  0  0
   -7.0544   -8.9286   18.3368 O   0  0  0  0  0  0  0  0  0  0  0  0
   -3.9731   -8.5172   18.2714 C   0  0  0  0  0  0  0  0  0  0  0  0
   -4.6080   -7.2976   18.9756 C   0  0  0  0  0  0  0  0  0  0  0  0
   -5.2971   -7.6051   20.4742 S   0  0  2  0  0  0  0  0  0  0  0  0
   -5.8408   -6.1808   21.1335 C   0  0  0  0  0  0  0  0  0  0  0  0
   -4.1602   -8.3355   21.4853 C   0  0  0  0  0  0  0  0  0  0  0  0
   -4.3362   -9.8618   21.6305 C   0  0  1  0  0  0  0  0  0  0  0  0
   -4.6946  -10.5100   20.3987 O   0  0  0  0  0  0  0  0  0  0  0  0
   -3.0554  -10.5884   22.0083 C   0  0  1  0  0  0  0  0  0  0  0  0
   -2.6059  -10.4734   23.3734 O   0  0  0  0  0  0  0  0  0  0  0  0
   -3.4066  -11.9972   21.5981 C   0  0  1  0  0  0  0  0  0  0  0  0
   -4.3558  -12.5486   22.5059 O   0  0  0  0  0  0  0  0  0  0  0  0
   -4.0694  -11.7891   20.2687 C   0  0  2  0  0  0  0  0  0  0  0  0
   -6.2127  -10.9397   18.2099 O   0  0  0  0  0  0  0  0  0  0  0  0
   -2.7882  -13.4539   15.3837 N   0  0  0  0  0  0  0  0  0  0  0  0
   -3.9332  -13.6536   16.0807 C   0  0  0  0  0  0  0  0  0  0  0  0
   -4.1211  -13.1768   17.3227 N   0  0  0  0  0  0  0  0  0  0  0  0
   -3.1891  -12.4494   17.9487 C   0  0  0  0  0  0  0  0  0  0  0  0
   -1.9451  -12.1813   17.2429 C   0  0  0  0  0  0  0  0  0  0  0  0
   -1.7395  -12.7261   15.8809 C   0  0  0  0  0  0  0  0  0  0  0  0
   -0.5803  -12.5100   15.1651 N   0  0  0  0  0  0  0  0  0  0  0  0
   -1.2221  -11.4493   18.0598 N   0  0  0  0  0  0  0  0  0  0  0  0
   -1.9043  -11.2671   19.1988 C   0  0  0  0  0  0  0  0  0  0  0  0
   -3.0945  -11.8631   19.1377 N   0  0  0  0  0  0  0  0  0  0  0  0
  2  1  1  6  0  0  0
  2  3  1  0  0  0  0
  2  5  1  0  0  0  0
  3  4  1  0  0  0  0
  3 17  1  0  0  0  0
  5  6  1  0  0  0  0
  7  6  1  6  0  0  0
  7  8  1  0  0  0  0
  7  9  1  0  0  0  0
 10  9  1  6  0  0  0
 10 11  1  0  0  0  0
 10 12  1  0  0  0  0
 11 16  1  0  0  0  0
 12 13  1  1  0  0  0
 12 14  1  0  0  0  0
 14 15  1  1  0  0  0
 14 16  1  0  0  0  0
 16 27  1  6  0  0  0
 18 19  2  0  0  0  0
 18 23  1  0  0  0  0
 19 20  1  0  0  0  0
 20 21  2  0  0  0  0
 21 22  1  0  0  0  0
 21 27  1  0  0  0  0
 22 23  2  0  0  0  0
 22 25  1  0  0  0  0
 23 24  1  0  0  0  0
 25 26  2  0  0  0  0
 26 27  1  0  0  0  0
M  END
>  <CHROM.1>
-40.45210833,54.54353492,95.88190957,176.31602742,-101.70858605,39.59892201
-105.44870922,-3.99826747,-10.44840714,19.09652967,2.31085016,-0.96661414
1.43125728

>  <Name>
ligand

>  <RI>
0

>  <Rbt.Current_Directory>
/home/itssahil/PROJECTS/Mol_Feturizer/Test_systems_manuscript/rnas/4kqy

>  <Rbt.Executable>
rbdock ($Id: //depot/dev/client3/rdock/2013.1/src/exe/rbdock.cxx#4 $)

>  <Rbt.Library>
libRbt.so (2013.1, Build901 2013/11/27)

>  <Rbt.Parameter_File>
/export/apps/rDock/src/rDock_2013.1_src/data/scripts/dock_solv.prm

>  <Rbt.Receptor>
prm/pocket_docking_3.prm

>  <SCORE>
-14.8463

>  <SCORE.INTER>
-13.8091

>  <SCORE.INTER.CONST>
1

>  <SCORE.INTER.POLAR>
0

>  <SCORE.INTER.ROT>
7

>  <SCORE.INTER.SOLV>
11.6115

>  <SCORE.INTER.VDW>
-21.3433

>  <SCORE.INTER.norm>
-0.511449

>  <SCORE.INTRA>
-1.03713

>  <SCORE.INTRA.DIHEDRAL>
1.23485

>  <SCORE.INTRA.DIHEDRAL.0>
10.4103

>  <SCORE.INTRA.POLAR>
0

>  <SCORE.INTRA.POLAR.0>
0

>  <SCORE.INTRA.REPUL>
0

>  <SCORE.INTRA.REPUL.0>
0

>  <SCORE.INTRA.SOLV>
0.929787

>  <SCORE.INTRA.SOLV.lig_0>
-49.5008

>  <SCORE.INTRA.VDW>
-2.11945

>  <SCORE.INTRA.VDW.0>
-2.6946

>  <SCORE.INTRA.norm>
-0.0384122

>  <SCORE.RESTR>
0

>  <SCORE.RESTR.CAVITY>
0

>  <SCORE.RESTR.norm>
0

>  <SCORE.SYSTEM>
0

>  <SCORE.SYSTEM.CONST>
0

>  <SCORE.SYSTEM.DIHEDRAL>
0

>  <SCORE.SYSTEM.SOLV>
0

>  <SCORE.SYSTEM.norm>
0

>  <SCORE.heavy>
27

>  <SCORE.norm>
-0.549861

>  <RMSD>
5.378

$$$$
ligand
 OpenBabel02271912153D
libRbt.so/2013.1/901 2013/11/27
 27 29  0  0  0  0  0  0  0  0999 V2000
   -5.0236   -8.5035   19.1520 N   0  0  0  0  0  0  0  0  0  0  0  0
   -3.7885   -8.4389   18.3941 C   0  0  2  0  0  0  0  0  0  0  0  0
   -4.1574   -8.4145   16.9427 C   0  0  0  0  0  0  0  0  0  0  0  0
   -3.5618   -7.6281   16.1751 O   0  0  0  0  0  0  0  0  0  0  0  0
   -2.9096   -9.6550   18.6985 C   0  0  0  0  0  0  0  0  0  0  0  0
   -2.4043   -9.6361   20.1582 C   0  0  0  0  0  0  0  0  0  0  0  0
   -3.4885  -10.2024   21.3067 S   0  0  2  0  0  0  0  0  0  0  0  0
   -2.9615   -9.7720   22.8218 C   0  0  0  0  0  0  0  0  0  0  0  0
   -3.6310  -11.8793   21.1780 C   0  0  0  0  0  0  0  0  0  0  0  0
   -4.9383  -12.3497   20.5062 C   0  0  1  0  0  0  0  0  0  0  0  0
   -5.1678  -11.7397   19.2251 O   0  0  0  0  0  0  0  0  0  0  0  0
   -4.9443  -13.8291   20.1568 C   0  0  1  0  0  0  0  0  0  0  0  0
   -5.1203  -14.7654   21.2390 O   0  0  0  0  0  0  0  0  0  0  0  0
   -6.0510  -13.8659   19.1321 C   0  0  1  0  0  0  0  0  0  0  0  0
   -7.3132  -13.6922   19.7690 O   0  0  0  0  0  0  0  0  0  0  0  0
   -5.7568  -12.6545   18.2977 C   0  0  2  0  0  0  0  0  0  0  0  0
   -5.0340   -9.2043   16.5174 O   0  0  0  0  0  0  0  0  0  0  0  0
   -0.9537  -13.8191   16.3356 N   0  0  0  0  0  0  0  0  0  0  0  0
   -1.3173  -13.5845   17.6199 C   0  0  0  0  0  0  0  0  0  0  0  0
   -2.5790  -13.2912   17.9765 N   0  0  0  0  0  0  0  0  0  0  0  0
   -3.5707  -13.2321   17.0808 C   0  0  0  0  0  0  0  0  0  0  0  0
   -3.2477  -13.4969   15.6869 C   0  0  0  0  0  0  0  0  0  0  0  0
   -1.8506  -13.8018   15.3002 C   0  0  0  0  0  0  0  0  0  0  0  0
   -1.4831  -14.0559   13.9952 N   0  0  0  0  0  0  0  0  0  0  0  0
   -4.3812  -13.3900   15.0315 N   0  0  0  0  0  0  0  0  0  0  0  0
   -5.3535  -13.0668   15.8952 C   0  0  0  0  0  0  0  0  0  0  0  0
   -4.8735  -12.9748   17.1348 N   0  0  0  0  0  0  0  0  0  0  0  0
  2  1  1  1  0  0  0
  2  3  1  0  0  0  0
  2  5  1  0  0  0  0
  3  4  1  0  0  0  0
  3 17  1  0  0  0  0
  5  6  1  0  0  0  0
  7  6  1  6  0  0  0
  7  8  1  0  0  0  0
  7  9  1  0  0  0  0
 10  9  1  6  0  0  0
 10 11  1  0  0  0  0
 10 12  1  0  0  0  0
 11 16  1  0  0  0  0
 12 13  1  1  0  0  0
 12 14  1  0  0  0  0
 14 15  1  1  0  0  0
 14 16  1  0  0  0  0
 16 27  1  6  0  0  0
 18 19  2  0  0  0  0
 18 23  1  0  0  0  0
 19 20  1  0  0  0  0
 20 21  2  0  0  0  0
 21 22  1  0  0  0  0
 21 27  1  0  0  0  0
 22 23  2  0  0  0  0
 22 25  1  0  0  0  0
 23 24  1  0  0  0  0
 25 26  2  0  0  0  0
 26 27  1  0  0  0  0
M  END
>  <CHROM.1>
137.00611644,-66.86339444,81.46614708,-165.99868993,-104.46446470,53.37478274
42.40779784,-3.93755226,-11.76465953,18.41836905,-2.10876659,-1.22671114
-2.67781698

>  <Name>
ligand

>  <RI>
0

>  <Rbt.Current_Directory>
/home/itssahil/PROJECTS/Mol_Feturizer/Test_systems_manuscript/rnas/4kqy

>  <Rbt.Executable>
rbdock ($Id: //depot/dev/client3/rdock/2013.1/src/exe/rbdock.cxx#4 $)

>  <Rbt.Library>
libRbt.so (2013.1, Build901 2013/11/27)

>  <Rbt.Parameter_File>
/export/apps/rDock/src/rDock_2013.1_src/data/scripts/dock_solv.prm

>  <Rbt.Receptor>
prm/pocket_docking_3.prm

>  <SCORE>
-13.6

>  <SCORE.INTER>
-11.9697

>  <SCORE.INTER.CONST>
1

>  <SCORE.INTER.POLAR>
0

>  <SCORE.INTER.ROT>
7

>  <SCORE.INTER.SOLV>
11.1599

>  <SCORE.INTER.VDW>
-19.9664

>  <SCORE.INTER.norm>
-0.443323

>  <SCORE.INTRA>
-1.63028

>  <SCORE.INTRA.DIHEDRAL>
-1.26199

>  <SCORE.INTRA.DIHEDRAL.0>
10.4103

>  <SCORE.INTRA.POLAR>
0

>  <SCORE.INTRA.POLAR.0>
0

>  <SCORE.INTRA.REPUL>
0

>  <SCORE.INTRA.REPUL.0>
0

>  <SCORE.INTRA.SOLV>
3.09106

>  <SCORE.INTRA.SOLV.lig_0>
-49.5008

>  <SCORE.INTRA.VDW>
-2.54482

>  <SCORE.INTRA.VDW.0>
-2.6946

>  <SCORE.INTRA.norm>
-0.0603808

>  <SCORE.RESTR>
0

>  <SCORE.RESTR.CAVITY>
0

>  <SCORE.RESTR.norm>
0

>  <SCORE.SYSTEM>
0

>  <SCORE.SYSTEM.CONST>
0

>  <SCORE.SYSTEM.DIHEDRAL>
0

>  <SCORE.SYSTEM.SOLV>
0

>  <SCORE.SYSTEM.norm>
0

>  <SCORE.heavy>
27

>  <SCORE.norm>
-0.503704

>  <RMSD>
5.403

$$$$
ligand
 OpenBabel02271912153D
libRbt.so/2013.1/901 2013/11/27
 27 29  0  0  0  0  0  0  0  0999 V2000
   -3.8737   -7.1995   16.6003 N   0  0  0  0  0  0  0  0  0  0  0  0
   -2.5689   -7.7852   16.3582 C   0  0  2  0  0  0  0  0  0  0  0  0
   -2.7273   -8.7849   15.2542 C   0  0  0  0  0  0  0  0  0  0  0  0
   -1.7738   -8.9852   14.4713 O   0  0  0  0  0  0  0  0  0  0  0  0
   -2.0464   -8.4699   17.6241 C   0  0  0  0  0  0  0  0  0  0  0  0
   -3.1692   -9.2386   18.3555 C   0  0  0  0  0  0  0  0  0  0  0  0
   -2.6627  -10.2666   19.5811 S   0  0  2  0  0  0  0  0  0  0  0  0
   -2.1314  -11.6940   18.9186 C   0  0  0  0  0  0  0  0  0  0  0  0
   -3.9349  -10.5436   20.6549 C   0  0  0  0  0  0  0  0  0  0  0  0
   -5.1386  -11.2782   20.0279 C   0  0  1  0  0  0  0  0  0  0  0  0
   -4.9680  -12.7045   19.9780 O   0  0  0  0  0  0  0  0  0  0  0  0
   -6.4209  -11.1418   20.8328 C   0  0  1  0  0  0  0  0  0  0  0  0
   -7.1123   -9.8782   20.7696 O   0  0  0  0  0  0  0  0  0  0  0  0
   -7.2158  -12.3004   20.2834 C   0  0  1  0  0  0  0  0  0  0  0  0
   -7.6492  -12.0112   18.9577 O   0  0  0  0  0  0  0  0  0  0  0  0
   -6.1929  -13.3964   20.2321 C   0  0  2  0  0  0  0  0  0  0  0  0
   -3.8010   -9.4254   15.1538 O   0  0  0  0  0  0  0  0  0  0  0  0
   -8.6610  -16.5374   23.7420 N   0  0  0  0  0  0  0  0  0  0  0  0
   -9.1469  -15.9787   22.6069 C   0  0  0  0  0  0  0  0  0  0  0  0
   -8.4062  -15.1913   21.8090 N   0  0  0  0  0  0  0  0  0  0  0  0
   -7.1231  -14.9228   22.0756 C   0  0  0  0  0  0  0  0  0  0  0  0
   -6.5366  -15.5123   23.2696 C   0  0  0  0  0  0  0  0  0  0  0  0
   -7.3657  -16.3646   24.1531 C   0  0  0  0  0  0  0  0  0  0  0  0
   -6.8670  -16.9460   25.3003 N   0  0  0  0  0  0  0  0  0  0  0  0
   -5.2865  -15.1089   23.2895 N   0  0  0  0  0  0  0  0  0  0  0  0
   -5.0691  -14.3162   22.2310 C   0  0  0  0  0  0  0  0  0  0  0  0
   -6.1711  -14.2032   21.4906 N   0  0  0  0  0  0  0  0  0  0  0  0
  2  1  1  1  0  0  0
  2  3  1  0  0  0  0
  2  5  1  0  0  0  0
  3  4  1  0  0  0  0
  3 17  1  0  0  0  0
  5  6  1  0  0  0  0
  7  6  1  6  0  0  0
  7  8  1  0  0  0  0
  7  9  1  0  0  0  0
 10  9  1  1  0  0  0
 10 11  1  0  0  0  0
 10 12  1  0  0  0  0
 11 16  1  0  0  0  0
 12 13  1  6  0  0  0
 12 14  1  0  0  0  0
 14 15  1  6  0  0  0
 14 16  1  0  0  0  0
 16 27  1  1  0  0  0
 18 19  2  0  0  0  0
 18 23  1  0  0  0  0
 19 20  1  0  0  0  0
 20 21  2  0  0  0  0
 21 22  1  0  0  0  0
 21 27  1  0  0  0  0
 22 23  2  0  0  0  0
 22 25  1  0  0  0  0
 23 24  1  0  0  0  0
 25 26  2  0  0  0  0
 26 27  1  0  0  0  0
M  END
>  <CHROM.1>
148.47214387,40.82506337,168.59698625,-80.75209800,63.89481757,82.52685188
176.88581050,-5.16210071,-12.04424710,20.02410955,1.11135696,-0.14883833
-0.83868008

>  <Name>
ligand

>  <RI>
0

>  <Rbt.Current_Directory>
/home/itssahil/PROJECTS/Mol_Feturizer/Test_systems_manuscript/rnas/4kqy

>  <Rbt.Executable>
rbdock ($Id: //depot/dev/client3/rdock/2013.1/src/exe/rbdock.cxx#4 $)

>  <Rbt.Library>
libRbt.so (2013.1, Build901 2013/11/27)

>  <Rbt.Parameter_File>
/export/apps/rDock/src/rDock_2013.1_src/data/scripts/dock_solv.prm

>  <Rbt.Receptor>
prm/pocket_docking_8.prm

>  <SCORE>
-18.5831

>  <SCORE.INTER>
-18.1548

>  <SCORE.INTER.CONST>
1

>  <SCORE.INTER.POLAR>
0

>  <SCORE.INTER.ROT>
7

>  <SCORE.INTER.SOLV>
17.2788

>  <SCORE.INTER.VDW>
-26.1295

>  <SCORE.INTER.norm>
-0.672402

>  <SCORE.INTRA>
-0.428302

>  <SCORE.INTRA.DIHEDRAL>
-2.91739

>  <SCORE.INTRA.DIHEDRAL.0>
10.4103

>  <SCORE.INTRA.POLAR>
0

>  <SCORE.INTRA.POLAR.0>
0

>  <SCORE.INTRA.REPUL>
0

>  <SCORE.INTRA.REPUL.0>
0

>  <SCORE.INTRA.SOLV>
0.318686

>  <SCORE.INTRA.SOLV.lig_0>
-49.5008

>  <SCORE.INTRA.VDW>
0.871051

>  <SCORE.INTRA.VDW.0>
-2.6946

>  <SCORE.INTRA.norm>
-0.015863

>  <SCORE.RESTR>
0

>  <SCORE.RESTR.CAVITY>
0

>  <SCORE.RESTR.norm>
0

>  <SCORE.SYSTEM>
0

>  <SCORE.SYSTEM.CONST>
0

>  <SCORE.SYSTEM.DIHEDRAL>
0

>  <SCORE.SYSTEM.SOLV>
0

>  <SCORE.SYSTEM.norm>
0

>  <SCORE.heavy>
27

>  <SCORE.norm>
-0.688265

>  <RMSD>
5.412

$$$$
ligand
 OpenBabel02271912153D
libRbt.so/2013.1/901 2013/11/27
 27 29  0  0  0  0  0  0  0  0999 V2000
   -5.3905   -7.8702   19.8268 N   0  0  0  0  0  0  0  0  0  0  0  0
   -5.7894   -8.8834   18.8684 C   0  0  2  0  0  0  0  0  0  0  0  0
   -6.5744   -9.9178   19.6146 C   0  0  0  0  0  0  0  0  0  0  0  0
   -6.7149   -9.8023   20.8512 O   0  0  0  0  0  0  0  0  0  0  0  0
   -4.5578   -9.5184   18.2171 C   0  0  0  0  0  0  0  0  0  0  0  0
   -3.9070   -8.5657   17.1899 C   0  0  0  0  0  0  0  0  0  0  0  0
   -2.5345   -9.1546   16.4251 S   0  0  2  0  0  0  0  0  0  0  0  0
   -2.0942   -8.1157   15.2063 C   0  0  0  0  0  0  0  0  0  0  0  0
   -2.8406  -10.6974   15.8132 C   0  0  0  0  0  0  0  0  0  0  0  0
   -2.2520  -11.8407   16.6665 C   0  0  1  0  0  0  0  0  0  0  0  0
   -2.7208  -11.8322   18.0252 O   0  0  0  0  0  0  0  0  0  0  0  0
   -2.6681  -13.2256   16.1978 C   0  0  1  0  0  0  0  0  0  0  0  0
   -2.0377  -13.7400   15.0076 O   0  0  0  0  0  0  0  0  0  0  0  0
   -2.3807  -14.0343   17.4387 C   0  0  1  0  0  0  0  0  0  0  0  0
   -0.9744  -14.1759   17.6154 O   0  0  0  0  0  0  0  0  0  0  0  0
   -2.9214  -13.1555   18.5275 C   0  0  2  0  0  0  0  0  0  0  0  0
   -7.1028  -10.8635   18.9824 O   0  0  0  0  0  0  0  0  0  0  0  0
   -6.6677  -14.6535   21.9912 N   0  0  0  0  0  0  0  0  0  0  0  0
   -5.3371  -14.4906   22.1902 C   0  0  0  0  0  0  0  0  0  0  0  0
   -4.4967  -14.1109   21.2131 N   0  0  0  0  0  0  0  0  0  0  0  0
   -4.9270  -13.8463   19.9744 C   0  0  0  0  0  0  0  0  0  0  0  0
   -6.3503  -13.9815   19.7033 C   0  0  0  0  0  0  0  0  0  0  0  0
   -7.2668  -14.4180   20.7820 C   0  0  0  0  0  0  0  0  0  0  0  0
   -8.6236  -14.5689   20.5837 N   0  0  0  0  0  0  0  0  0  0  0  0
   -6.5052  -13.6559   18.4400 N   0  0  0  0  0  0  0  0  0  0  0  0
   -5.3076  -13.3562   17.9187 C   0  0  0  0  0  0  0  0  0  0  0  0
   -4.3507  -13.4635   18.8397 N   0  0  0  0  0  0  0  0  0  0  0  0
  2  1  1  1  0  0  0
  2  3  1  0  0  0  0
  2  5  1  0  0  0  0
  3  4  1  0  0  0  0
  3 17  1  0  0  0  0
  5  6  1  0  0  0  0
  7  6  1  6  0  0  0
  7  8  1  0  0  0  0
  7  9  1  0  0  0  0
 10  9  1  6  0  0  0
 10 11  1  0  0  0  0
 10 12  1  0  0  0  0
 11 16  1  0  0  0  0
 12 13  1  6  0  0  0
 12 14  1  0  0  0  0
 14 15  1  1  0  0  0
 14 16  1  0  0  0  0
 16 27  1  6  0  0  0
 18 19  2  0  0  0  0
 18 23  1  0  0  0  0
 19 20  1  0  0  0  0
 20 21  2  0  0  0  0
 21 22  1  0  0  0  0
 21 27  1  0  0  0  0
 22 23  2  0  0  0  0
 22 25  1  0  0  0  0
 23 24  1  0  0  0  0
 25 26  2  0  0  0  0
 26 27  1  0  0  0  0
M  END
>  <CHROM.1>
-2.69241293,-74.35165771,179.34487873,171.74476788,-102.24721955,57.62104823
-121.92334647,-4.42358687,-11.88563966,18.44368951,0.70424365,0.71304782
-0.22714783

>  <Name>
ligand

>  <RI>
0

>  <Rbt.Current_Directory>
/home/itssahil/PROJECTS/Mol_Feturizer/Test_systems_manuscript/rnas/4kqy

>  <Rbt.Executable>
rbdock ($Id: //depot/dev/client3/rdock/2013.1/src/exe/rbdock.cxx#4 $)

>  <Rbt.Library>
libRbt.so (2013.1, Build901 2013/11/27)

>  <Rbt.Parameter_File>
/export/apps/rDock/src/rDock_2013.1_src/data/scripts/dock_solv.prm

>  <Rbt.Receptor>
prm/pocket_docking_3.prm

>  <SCORE>
-12.1712

>  <SCORE.INTER>
-10.0269

>  <SCORE.INTER.CONST>
1

>  <SCORE.INTER.POLAR>
0

>  <SCORE.INTER.ROT>
7

>  <SCORE.INTER.SOLV>
12.4182

>  <SCORE.INTER.VDW>
-19.0907

>  <SCORE.INTER.norm>
-0.371366

>  <SCORE.INTRA>
-2.14432

>  <SCORE.INTRA.DIHEDRAL>
-2.75745

>  <SCORE.INTRA.DIHEDRAL.0>
10.4103

>  <SCORE.INTRA.POLAR>
0

>  <SCORE.INTRA.POLAR.0>
0

>  <SCORE.INTRA.REPUL>
0

>  <SCORE.INTRA.REPUL.0>
0

>  <SCORE.INTRA.SOLV>
0.0664778

>  <SCORE.INTRA.SOLV.lig_0>
-49.5008

>  <SCORE.INTRA.VDW>
-0.79883

>  <SCORE.INTRA.VDW.0>
-2.6946

>  <SCORE.INTRA.norm>
-0.0794192

>  <SCORE.RESTR>
0

>  <SCORE.RESTR.CAVITY>
0

>  <SCORE.RESTR.norm>
0

>  <SCORE.SYSTEM>
0

>  <SCORE.SYSTEM.CONST>
0

>  <SCORE.SYSTEM.DIHEDRAL>
0

>  <SCORE.SYSTEM.SOLV>
0

>  <SCORE.SYSTEM.norm>
0

>  <SCORE.heavy>
27

>  <SCORE.norm>
-0.450785

>  <RMSD>
5.413

$$$$
ligand
 OpenBabel02271912153D
libRbt.so/2013.1/901 2013/11/27
 27 29  0  0  0  0  0  0  0  0999 V2000
   -3.0065  -11.0869   15.0019 N   0  0  0  0  0  0  0  0  0  0  0  0
   -3.0109  -12.0779   13.9426 C   0  0  2  0  0  0  0  0  0  0  0  0
   -4.4349  -12.2734   13.5217 C   0  0  0  0  0  0  0  0  0  0  0  0
   -5.3227  -12.3636   14.3968 O   0  0  0  0  0  0  0  0  0  0  0  0
   -2.4185  -13.3982   14.4425 C   0  0  0  0  0  0  0  0  0  0  0  0
   -3.1837  -13.9307   15.6743 C   0  0  0  0  0  0  0  0  0  0  0  0
   -3.0238  -13.0203   17.0746 S   0  0  2  0  0  0  0  0  0  0  0  0
   -1.4129  -12.8555   17.4440 C   0  0  0  0  0  0  0  0  0  0  0  0
   -3.8528  -13.7696   18.3395 C   0  0  0  0  0  0  0  0  0  0  0  0
   -4.4010  -12.7908   19.3993 C   0  0  1  0  0  0  0  0  0  0  0  0
   -5.3844  -11.8825   18.8762 O   0  0  0  0  0  0  0  0  0  0  0  0
   -5.1675  -13.4747   20.5199 C   0  0  1  0  0  0  0  0  0  0  0  0
   -4.3986  -14.1796   21.5152 O   0  0  0  0  0  0  0  0  0  0  0  0
   -5.9526  -12.3088   21.0681 C   0  0  1  0  0  0  0  0  0  0  0  0
   -5.0875  -11.4267   21.7770 O   0  0  0  0  0  0  0  0  0  0  0  0
   -6.4270  -11.6254   19.8199 C   0  0  2  0  0  0  0  0  0  0  0  0
   -4.7154  -12.3115   12.2998 O   0  0  0  0  0  0  0  0  0  0  0  0
  -10.2790  -15.2855   20.0238 N   0  0  0  0  0  0  0  0  0  0  0  0
   -9.0978  -15.2514   20.6874 C   0  0  0  0  0  0  0  0  0  0  0  0
   -8.2055  -14.2587   20.5333 N   0  0  0  0  0  0  0  0  0  0  0  0
   -8.4374  -13.2198   19.7232 C   0  0  0  0  0  0  0  0  0  0  0  0
   -9.6993  -13.1876   18.9993 C   0  0  0  0  0  0  0  0  0  0  0  0
  -10.6694  -14.2952   19.1615 C   0  0  0  0  0  0  0  0  0  0  0  0
  -11.8785  -14.3224   18.4981 N   0  0  0  0  0  0  0  0  0  0  0  0
   -9.6807  -12.0759   18.2994 N   0  0  0  0  0  0  0  0  0  0  0  0
   -8.5189  -11.4447   18.5177 C   0  0  0  0  0  0  0  0  0  0  0  0
   -7.7653  -12.1259   19.3799 N   0  0  0  0  0  0  0  0  0  0  0  0
  2  1  1  1  0  0  0
  2  3  1  0  0  0  0
  2  5  1  0  0  0  0
  3  4  1  0  0  0  0
  3 17  1  0  0  0  0
  5  6  1  0  0  0  0
  7  6  1  6  0  0  0
  7  8  1  0  0  0  0
  7  9  1  0  0  0  0
 10  9  1  6  0  0  0
 10 11  1  0  0  0  0
 10 12  1  0  0  0  0
 11 16  1  0  0  0  0
 12 13  1  1  0  0  0
 12 14  1  0  0  0  0
 14 15  1  6  0  0  0
 14 16  1  0  0  0  0
 16 27  1  6  0  0  0
 18 19  2  0  0  0  0
 18 23  1  0  0  0  0
 19 20  1  0  0  0  0
 20 21  2  0  0  0  0
 21 22  1  0  0  0  0
 21 27  1  0  0  0  0
 22 23  2  0  0  0  0
 22 25  1  0  0  0  0
 23 24  1  0  0  0  0
 25 26  2  0  0  0  0
 26 27  1  0  0  0  0
M  END
>  <CHROM.1>
-43.45782762,57.12969551,-67.85975892,-55.63816671,-150.18945577,63.25246397
100.90410001,-5.88381146,-12.95737835,18.02967382,0.69947134,-0.11771622
-1.49771136

>  <Name>
ligand

>  <RI>
0

>  <Rbt.Current_Directory>
/home/itssahil/PROJECTS/Mol_Feturizer/Test_systems_manuscript/rnas/4kqy

>  <Rbt.Executable>
rbdock ($Id: //depot/dev/client3/rdock/2013.1/src/exe/rbdock.cxx#4 $)

>  <Rbt.Library>
libRbt.so (2013.1, Build901 2013/11/27)

>  <Rbt.Parameter_File>
/export/apps/rDock/src/rDock_2013.1_src/data/scripts/dock_solv.prm

>  <Rbt.Receptor>
prm/pocket_docking_8.prm

>  <SCORE>
-12.346

>  <SCORE.INTER>
-12.1255

>  <SCORE.INTER.CONST>
1

>  <SCORE.INTER.POLAR>
0

>  <SCORE.INTER.ROT>
7

>  <SCORE.INTER.SOLV>
6.2736

>  <SCORE.INTER.VDW>
-18.4415

>  <SCORE.INTER.norm>
-0.449093

>  <SCORE.INTRA>
-0.22187

>  <SCORE.INTRA.DIHEDRAL>
-4.97044

>  <SCORE.INTRA.DIHEDRAL.0>
10.4103

>  <SCORE.INTRA.POLAR>
0

>  <SCORE.INTRA.POLAR.0>
0

>  <SCORE.INTRA.REPUL>
0

>  <SCORE.INTRA.REPUL.0>
0

>  <SCORE.INTRA.SOLV>
2.5111

>  <SCORE.INTRA.SOLV.lig_0>
-49.5008

>  <SCORE.INTRA.VDW>
1.0078

>  <SCORE.INTRA.VDW.0>
-2.6946

>  <SCORE.INTRA.norm>
-0.00821742

>  <SCORE.RESTR>
0.00136332

>  <SCORE.RESTR.CAVITY>
0.00136332

>  <SCORE.RESTR.norm>
5.04933e-05

>  <SCORE.SYSTEM>
0

>  <SCORE.SYSTEM.CONST>
0

>  <SCORE.SYSTEM.DIHEDRAL>
0

>  <SCORE.SYSTEM.SOLV>
0

>  <SCORE.SYSTEM.norm>
0

>  <SCORE.heavy>
27

>  <SCORE.norm>
-0.45726

>  <RMSD>
5.414

$$$$
ligand
 OpenBabel02271912153D
libRbt.so/2013.1/901 2013/11/27
 27 29  0  0  0  0  0  0  0  0999 V2000
   -4.9267   -7.6360   21.3416 N   0  0  0  0  0  0  0  0  0  0  0  0
   -4.1686   -7.5447   20.1082 C   0  0  2  0  0  0  0  0  0  0  0  0
   -5.1035   -7.8743   18.9855 C   0  0  0  0  0  0  0  0  0  0  0  0
   -6.1867   -8.4432   19.2408 O   0  0  0  0  0  0  0  0  0  0  0  0
   -2.9944   -8.5270   20.1277 C   0  0  0  0  0  0  0  0  0  0  0  0
   -3.4829   -9.9904   20.2089 C   0  0  0  0  0  0  0  0  0  0  0  0
   -4.1077  -10.4634   21.6925 S   0  0  2  0  0  0  0  0  0  0  0  0
   -2.9772  -10.1917   22.8786 C   0  0  0  0  0  0  0  0  0  0  0  0
   -4.5347  -12.0953   21.6371 C   0  0  0  0  0  0  0  0  0  0  0  0
   -5.8052  -12.3852   20.8103 C   0  0  1  0  0  0  0  0  0  0  0  0
   -5.8494  -11.6634   19.5682 O   0  0  0  0  0  0  0  0  0  0  0  0
   -5.9093  -13.8274   20.3410 C   0  0  1  0  0  0  0  0  0  0  0  0
   -6.2765  -14.8189   21.3213 O   0  0  0  0  0  0  0  0  0  0  0  0
   -6.9067  -13.6806   19.2186 C   0  0  1  0  0  0  0  0  0  0  0  0
   -8.2055  -13.4318   19.7478 O   0  0  0  0  0  0  0  0  0  0  0  0
   -6.4225  -12.4457   18.5179 C   0  0  2  0  0  0  0  0  0  0  0  0
   -4.7980   -7.5460   17.8141 O   0  0  0  0  0  0  0  0  0  0  0  0
   -1.5143  -13.7064   16.9068 N   0  0  0  0  0  0  0  0  0  0  0  0
   -1.9711  -13.4917   18.1644 C   0  0  0  0  0  0  0  0  0  0  0  0
   -3.2484  -13.1694   18.4291 N   0  0  0  0  0  0  0  0  0  0  0  0
   -4.1644  -13.0594   17.4605 C   0  0  0  0  0  0  0  0  0  0  0  0
   -3.7401  -13.3004   16.0897 C   0  0  0  0  0  0  0  0  0  0  0  0
   -2.3261  -13.6376   15.8054 C   0  0  0  0  0  0  0  0  0  0  0  0
   -1.8642  -13.8715   14.5268 N   0  0  0  0  0  0  0  0  0  0  0  0
   -4.8151  -13.1441   15.3508 N   0  0  0  0  0  0  0  0  0  0  0  0
   -5.8430  -12.8126   16.1442 C   0  0  0  0  0  0  0  0  0  0  0  0
   -5.4597  -12.7646   17.4195 N   0  0  0  0  0  0  0  0  0  0  0  0
  2  1  1  1  0  0  0
  2  3  1  0  0  0  0
  2  5  1  0  0  0  0
  3  4  1  0  0  0  0
  3 17  1  0  0  0  0
  5  6  1  0  0  0  0
  7  6  1  6  0  0  0
  7  8  1  0  0  0  0
  7  9  1  0  0  0  0
 10  9  1  6  0  0  0
 10 11  1  0  0  0  0
 10 12  1  0  0  0  0
 11 16  1  0  0  0  0
 12 13  1  1  0  0  0
 12 14  1  0  0  0  0
 14 15  1  1  0  0  0
 14 16  1  0  0  0  0
 16 27  1  6  0  0  0
 18 19  2  0  0  0  0
 18 23  1  0  0  0  0
 19 20  1  0  0  0  0
 20 21  2  0  0  0  0
 21 22  1  0  0  0  0
 21 27  1  0  0  0  0
 22 23  2  0  0  0  0
 22 25  1  0  0  0  0
 23 24  1  0  0  0  0
 25 26  2  0  0  0  0
 26 27  1  0  0  0  0
M  END
>  <CHROM.1>
-16.18494867,62.88061762,-72.58722636,-56.01872601,-72.96859836,43.39217290
37.46749734,-4.60085743,-11.58797639,19.08388857,-1.76794360,-0.93521816
-2.56664921

>  <Name>
ligand

>  <RI>
0

>  <Rbt.Current_Directory>
/home/itssahil/PROJECTS/Mol_Feturizer/Test_systems_manuscript/rnas/4kqy

>  <Rbt.Executable>
rbdock ($Id: //depot/dev/client3/rdock/2013.1/src/exe/rbdock.cxx#4 $)

>  <Rbt.Library>
libRbt.so (2013.1, Build901 2013/11/27)

>  <Rbt.Parameter_File>
/export/apps/rDock/src/rDock_2013.1_src/data/scripts/dock_solv.prm

>  <Rbt.Receptor>
prm/pocket_docking_5.prm

>  <SCORE>
-16.1489

>  <SCORE.INTER>
-13.9796

>  <SCORE.INTER.CONST>
1

>  <SCORE.INTER.POLAR>
0

>  <SCORE.INTER.ROT>
7

>  <SCORE.INTER.SOLV>
12.7201

>  <SCORE.INTER.VDW>
-21.8264

>  <SCORE.INTER.norm>
-0.517763

>  <SCORE.INTRA>
-2.16928

>  <SCORE.INTRA.DIHEDRAL>
-5.58752

>  <SCORE.INTRA.DIHEDRAL.0>
10.4103

>  <SCORE.INTRA.POLAR>
0

>  <SCORE.INTRA.POLAR.0>
0

>  <SCORE.INTRA.REPUL>
0

>  <SCORE.INTRA.REPUL.0>
0

>  <SCORE.INTRA.SOLV>
2.40762

>  <SCORE.INTRA.SOLV.lig_0>
-49.5008

>  <SCORE.INTRA.VDW>
-0.579329

>  <SCORE.INTRA.VDW.0>
-2.6946

>  <SCORE.INTRA.norm>
-0.0803436

>  <SCORE.RESTR>
0

>  <SCORE.RESTR.CAVITY>
0

>  <SCORE.RESTR.norm>
0

>  <SCORE.SYSTEM>
0

>  <SCORE.SYSTEM.CONST>
0

>  <SCORE.SYSTEM.DIHEDRAL>
0

>  <SCORE.SYSTEM.SOLV>
0

>  <SCORE.SYSTEM.norm>
0

>  <SCORE.heavy>
27

>  <SCORE.norm>
-0.598106

>  <RMSD>
5.466

$$$$
ligand
 OpenBabel02271912153D
libRbt.so/2013.1/901 2013/11/27
 27 29  0  0  0  0  0  0  0  0999 V2000
   -7.1511  -11.6151   17.1488 N   0  0  0  0  0  0  0  0  0  0  0  0
   -6.1758  -11.7299   18.2164 C   0  0  2  0  0  0  0  0  0  0  0  0
   -5.1167  -12.6815   17.7516 C   0  0  0  0  0  0  0  0  0  0  0  0
   -5.3629  -13.4489   16.7963 O   0  0  0  0  0  0  0  0  0  0  0  0
   -6.8388  -12.2549   19.4927 C   0  0  0  0  0  0  0  0  0  0  0  0
   -6.2828  -11.5497   20.7498 C   0  0  0  0  0  0  0  0  0  0  0  0
   -4.6917  -11.9129   21.1390 S   0  0  2  0  0  0  0  0  0  0  0  0
   -4.6001  -13.4817   21.6768 C   0  0  0  0  0  0  0  0  0  0  0  0
   -4.1354  -10.8433   22.3201 C   0  0  0  0  0  0  0  0  0  0  0  0
   -3.8280   -9.4265   21.7910 C   0  0  1  0  0  0  0  0  0  0  0  0
   -2.5441   -9.3267   21.1526 O   0  0  0  0  0  0  0  0  0  0  0  0
   -4.7667   -8.9738   20.6843 C   0  0  1  0  0  0  0  0  0  0  0  0
   -6.1008   -8.5820   21.0653 O   0  0  0  0  0  0  0  0  0  0  0  0
   -3.9544   -7.8590   20.0729 C   0  0  1  0  0  0  0  0  0  0  0  0
   -3.9360   -6.7325   20.9445 O   0  0  0  0  0  0  0  0  0  0  0  0
   -2.5790   -8.4552   20.0200 C   0  0  2  0  0  0  0  0  0  0  0  0
   -3.9924  -12.6699   18.3075 O   0  0  0  0  0  0  0  0  0  0  0  0
   -2.0915   -8.3232   14.7265 N   0  0  0  0  0  0  0  0  0  0  0  0
   -2.3657   -7.3103   15.5840 C   0  0  0  0  0  0  0  0  0  0  0  0
   -2.4682   -7.4891   16.9117 N   0  0  0  0  0  0  0  0  0  0  0  0
   -2.2837   -8.6860   17.4797 C   0  0  0  0  0  0  0  0  0  0  0  0
   -1.9641   -9.8104   16.6130 C   0  0  0  0  0  0  0  0  0  0  0  0
   -1.8707   -9.6077   15.1487 C   0  0  0  0  0  0  0  0  0  0  0  0
   -1.5764  -10.6355   14.2770 N   0  0  0  0  0  0  0  0  0  0  0  0
   -1.8222  -10.8456   17.4094 N   0  0  0  0  0  0  0  0  0  0  0  0
   -2.0451  -10.4559   18.6721 C   0  0  0  0  0  0  0  0  0  0  0  0
   -2.3191   -9.1529   18.7235 N   0  0  0  0  0  0  0  0  0  0  0  0
  2  1  1  6  0  0  0
  2  3  1  0  0  0  0
  2  5  1  0  0  0  0
  3  4  1  0  0  0  0
  3 17  1  0  0  0  0
  5  6  1  0  0  0  0
  7  6  1  1  0  0  0
  7  8  1  0  0  0  0
  7  9  1  0  0  0  0
 10  9  1  6  0  0  0
 10 11  1  0  0  0  0
 10 12  1  0  0  0  0
 11 16  1  0  0  0  0
 12 13  1  1  0  0  0
 12 14  1  0  0  0  0
 14 15  1  1  0  0  0
 14 16  1  0  0  0  0
 16 27  1  6  0  0  0
 18 19  2  0  0  0  0
 18 23  1  0  0  0  0
 19 20  1  0  0  0  0
 20 21  2  0  0  0  0
 21 22  1  0  0  0  0
 21 27  1  0  0  0  0
 22 23  2  0  0  0  0
 22 25  1  0  0  0  0
 23 24  1  0  0  0  0
 25 26  2  0  0  0  0
 26 27  1  0  0  0  0
M  END
>  <CHROM.1>
-18.24307140,-140.91422203,-69.00321278,-70.01337503,-74.68651839,-80.88755300
179.27389135,-3.89884151,-10.25665103,18.88195342,2.63531831,0.96761488,1.03651910

>  <Name>
ligand

>  <RI>
0

>  <Rbt.Current_Directory>
/home/itssahil/PROJECTS/Mol_Feturizer/Test_systems_manuscript/rnas/4kqy

>  <Rbt.Executable>
rbdock ($Id: //depot/dev/client3/rdock/2013.1/src/exe/rbdock.cxx#4 $)

>  <Rbt.Library>
libRbt.so (2013.1, Build901 2013/11/27)

>  <Rbt.Parameter_File>
/export/apps/rDock/src/rDock_2013.1_src/data/scripts/dock_solv.prm

>  <Rbt.Receptor>
prm/pocket_docking_4.prm

>  <SCORE>
-17.8722

>  <SCORE.INTER>
-17.0098

>  <SCORE.INTER.CONST>
1

>  <SCORE.INTER.POLAR>
0

>  <SCORE.INTER.ROT>
7

>  <SCORE.INTER.SOLV>
8.92897

>  <SCORE.INTER.VDW>
-22.5828

>  <SCORE.INTER.norm>
-0.629991

>  <SCORE.INTRA>
-0.88273

>  <SCORE.INTRA.DIHEDRAL>
-0.606853

>  <SCORE.INTRA.DIHEDRAL.0>
10.4103

>  <SCORE.INTRA.POLAR>
0

>  <SCORE.INTRA.POLAR.0>
0

>  <SCORE.INTRA.REPUL>
0

>  <SCORE.INTRA.REPUL.0>
0

>  <SCORE.INTRA.SOLV>
0.139573

>  <SCORE.INTRA.SOLV.lig_0>
-49.5008

>  <SCORE.INTRA.VDW>
-0.64909

>  <SCORE.INTRA.VDW.0>
-2.6946

>  <SCORE.INTRA.norm>
-0.0326937

>  <SCORE.RESTR>
0.0203204

>  <SCORE.RESTR.CAVITY>
0.0203204

>  <SCORE.RESTR.norm>
0.000752608

>  <SCORE.SYSTEM>
0

>  <SCORE.SYSTEM.CONST>
0

>  <SCORE.SYSTEM.DIHEDRAL>
0

>  <SCORE.SYSTEM.SOLV>
0

>  <SCORE.SYSTEM.norm>
0

>  <SCORE.heavy>
27

>  <SCORE.norm>
-0.661932

>  <RMSD>
5.468

$$$$
ligand
 OpenBabel02271912153D
libRbt.so/2013.1/901 2013/11/27
 27 29  0  0  0  0  0  0  0  0999 V2000
   -3.9989   -7.3339   19.8642 N   0  0  0  0  0  0  0  0  0  0  0  0
   -5.3997   -7.0829   20.1449 C   0  0  2  0  0  0  0  0  0  0  0  0
   -5.4598   -6.1752   21.3347 C   0  0  0  0  0  0  0  0  0  0  0  0
   -4.4491   -6.0519   22.0595 O   0  0  0  0  0  0  0  0  0  0  0  0
   -6.1298   -8.3958   20.4408 C   0  0  0  0  0  0  0  0  0  0  0  0
   -5.1429   -9.5791   20.5514 C   0  0  0  0  0  0  0  0  0  0  0  0
   -4.4409   -9.7972   22.0596 S   0  0  2  0  0  0  0  0  0  0  0  0
   -3.0599   -8.8802   22.1627 C   0  0  0  0  0  0  0  0  0  0  0  0
   -4.0913  -11.4316   22.2946 C   0  0  0  0  0  0  0  0  0  0  0  0
   -4.9005  -12.3843   21.3895 C   0  0  1  0  0  0  0  0  0  0  0  0
   -4.8592  -12.0170   20.0005 O   0  0  0  0  0  0  0  0  0  0  0  0
   -4.3543  -13.8026   21.3572 C   0  0  1  0  0  0  0  0  0  0  0  0
   -4.5969  -14.6330   22.5106 O   0  0  0  0  0  0  0  0  0  0  0  0
   -4.9940  -14.3155   20.0907 C   0  0  1  0  0  0  0  0  0  0  0  0
   -6.3879  -14.5242   20.2966 O   0  0  0  0  0  0  0  0  0  0  0  0
   -4.8091  -13.1634   19.1479 C   0  0  2  0  0  0  0  0  0  0  0  0
   -6.5113   -5.5313   21.5646 O   0  0  0  0  0  0  0  0  0  0  0  0
   -0.5310  -10.8876   16.9583 N   0  0  0  0  0  0  0  0  0  0  0  0
   -1.5402  -10.3130   17.6568 C   0  0  0  0  0  0  0  0  0  0  0  0
   -2.5736  -11.0146   18.1518 N   0  0  0  0  0  0  0  0  0  0  0  0
   -2.6625  -12.3411   18.0036 C   0  0  0  0  0  0  0  0  0  0  0  0
   -1.5970  -13.0198   17.2815 C   0  0  0  0  0  0  0  0  0  0  0  0
   -0.4706  -12.2360   16.7236 C   0  0  0  0  0  0  0  0  0  0  0  0
    0.5647  -12.8226   16.0260 N   0  0  0  0  0  0  0  0  0  0  0  0
   -1.9153  -14.2944   17.2908 N   0  0  0  0  0  0  0  0  0  0  0  0
   -3.0816  -14.4460   17.9332 C   0  0  0  0  0  0  0  0  0  0  0  0
   -3.5364  -13.2726   18.3710 N   0  0  0  0  0  0  0  0  0  0  0  0
  2  1  1  1  0  0  0
  2  3  1  0  0  0  0
  2  5  1  0  0  0  0
  3  4  1  0  0  0  0
  3 17  1  0  0  0  0
  5  6  1  0  0  0  0
  7  6  1  6  0  0  0
  7  8  1  0  0  0  0
  7  9  1  0  0  0  0
 10  9  1  1  0  0  0
 10 11  1  0  0  0  0
 10 12  1  0  0  0  0
 11 16  1  0  0  0  0
 12 13  1  1  0  0  0
 12 14  1  0  0  0  0
 14 15  1  1  0  0  0
 14 16  1  0  0  0  0
 16 27  1  1  0  0  0
 18 19  2  0  0  0  0
 18 23  1  0  0  0  0
 19 20  1  0  0  0  0
 20 21  2  0  0  0  0
 21 22  1  0  0  0  0
 21 27  1  0  0  0  0
 22 23  2  0  0  0  0
 22 25  1  0  0  0  0
 23 24  1  0  0  0  0
 25 26  2  0  0  0  0
 26 27  1  0  0  0  0
M  END
>  <CHROM.1>
-17.03952999,7.92936652,85.07197066,-87.95460438,-20.72199261,50.26400107
-24.25756572,-3.83481619,-10.99823547,19.88613113,-2.15728052,-0.81822080
-3.07722340

>  <Name>
ligand

>  <RI>
0

>  <Rbt.Current_Directory>
/home/itssahil/PROJECTS/Mol_Feturizer/Test_systems_manuscript/rnas/4kqy

>  <Rbt.Executable>
rbdock ($Id: //depot/dev/client3/rdock/2013.1/src/exe/rbdock.cxx#4 $)

>  <Rbt.Library>
libRbt.so (2013.1, Build901 2013/11/27)

>  <Rbt.Parameter_File>
/export/apps/rDock/src/rDock_2013.1_src/data/scripts/dock_solv.prm

>  <Rbt.Receptor>
prm/pocket_docking_2.prm

>  <SCORE>
-8.22002

>  <SCORE.INTER>
-19.5305

>  <SCORE.INTER.CONST>
1

>  <SCORE.INTER.POLAR>
0

>  <SCORE.INTER.ROT>
7

>  <SCORE.INTER.SOLV>
15.4232

>  <SCORE.INTER.VDW>
-26.4281

>  <SCORE.INTER.norm>
-0.723353

>  <SCORE.INTRA>
9.61027

>  <SCORE.INTRA.DIHEDRAL>
6.07175

>  <SCORE.INTRA.DIHEDRAL.0>
10.4103

>  <SCORE.INTRA.POLAR>
0

>  <SCORE.INTRA.POLAR.0>
0

>  <SCORE.INTRA.REPUL>
0

>  <SCORE.INTRA.REPUL.0>
0

>  <SCORE.INTRA.SOLV>
2.77349

>  <SCORE.INTRA.SOLV.lig_0>
-49.5008

>  <SCORE.INTRA.VDW>
5.18765

>  <SCORE.INTRA.VDW.0>
-2.6946

>  <SCORE.INTRA.norm>
0.355936

>  <SCORE.RESTR>
1.70023

>  <SCORE.RESTR.CAVITY>
1.70023

>  <SCORE.RESTR.norm>
0.0629715

>  <SCORE.SYSTEM>
0

>  <SCORE.SYSTEM.CONST>
0

>  <SCORE.SYSTEM.DIHEDRAL>
0

>  <SCORE.SYSTEM.SOLV>
0

>  <SCORE.SYSTEM.norm>
0

>  <SCORE.heavy>
27

>  <SCORE.norm>
-0.304445

>  <RMSD>
5.469

$$$$
ligand
 OpenBabel02271912153D
libRbt.so/2013.1/901 2013/11/27
 27 29  0  0  0  0  0  0  0  0999 V2000
   -2.4475   -7.1883   16.1967 N   0  0  0  0  0  0  0  0  0  0  0  0
   -3.1635   -8.3190   16.7562 C   0  0  2  0  0  0  0  0  0  0  0  0
   -4.4645   -8.4296   16.0224 C   0  0  0  0  0  0  0  0  0  0  0  0
   -5.2894   -7.4937   16.0989 O   0  0  0  0  0  0  0  0  0  0  0  0
   -3.4135   -8.1072   18.2519 C   0  0  0  0  0  0  0  0  0  0  0  0
   -4.0847   -9.3419   18.8932 C   0  0  0  0  0  0  0  0  0  0  0  0
   -4.3523   -9.2429   20.5467 S   0  0  2  0  0  0  0  0  0  0  0  0
   -2.8961   -9.2870   21.3443 C   0  0  0  0  0  0  0  0  0  0  0  0
   -5.3428  -10.5169   21.0412 C   0  0  0  0  0  0  0  0  0  0  0  0
   -4.8841  -11.9019   20.5381 C   0  0  1  0  0  0  0  0  0  0  0  0
   -5.1467  -12.9600   21.4749 O   0  0  0  0  0  0  0  0  0  0  0  0
   -5.6331  -12.3796   19.3046 C   0  0  1  0  0  0  0  0  0  0  0  0
   -5.2927  -11.7682   18.0440 O   0  0  0  0  0  0  0  0  0  0  0  0
   -5.3446  -13.8593   19.3627 C   0  0  1  0  0  0  0  0  0  0  0  0
   -3.9854  -14.1066   19.0157 O   0  0  0  0  0  0  0  0  0  0  0  0
   -5.5386  -14.1676   20.8179 C   0  0  2  0  0  0  0  0  0  0  0  0
   -4.6900   -9.4437   15.3195 O   0  0  0  0  0  0  0  0  0  0  0  0
  -10.6894  -14.3224   19.5058 N   0  0  0  0  0  0  0  0  0  0  0  0
   -9.6530  -13.7675   18.8316 C   0  0  0  0  0  0  0  0  0  0  0  0
   -8.3897  -13.7959   19.2882 N   0  0  0  0  0  0  0  0  0  0  0  0
   -8.0677  -14.3980   20.4385 C   0  0  0  0  0  0  0  0  0  0  0  0
   -9.1343  -15.0326   21.1982 C   0  0  0  0  0  0  0  0  0  0  0  0
  -10.5269  -14.9808   20.6961 C   0  0  0  0  0  0  0  0  0  0  0  0
  -11.5797  -15.5590   21.3745 N   0  0  0  0  0  0  0  0  0  0  0  0
   -8.5572  -15.5517   22.2581 N   0  0  0  0  0  0  0  0  0  0  0  0
   -7.2468  -15.2735   22.2192 C   0  0  0  0  0  0  0  0  0  0  0  0
   -6.9426  -14.5821   21.1215 N   0  0  0  0  0  0  0  0  0  0  0  0
  2  1  1  6  0  0  0
  2  3  1  0  0  0  0
  2  5  1  0  0  0  0
  3  4  1  0  0  0  0
  3 17  1  0  0  0  0
  5  6  1  0  0  0  0
  7  6  1  6  0  0  0
  7  8  1  0  0  0  0
  7  9  1  0  0  0  0
 10  9  1  1  0  0  0
 10 11  1  0  0  0  0
 10 12  1  0  0  0  0
 11 16  1  0  0  0  0
 12 13  1  6  0  0  0
 12 14  1  0  0  0  0
 14 15  1  1  0  0  0
 14 16  1  0  0  0  0
 16 27  1  6  0  0  0
 18 19  2  0  0  0  0
 18 23  1  0  0  0  0
 19 20  1  0  0  0  0
 20 21  2  0  0  0  0
 21 22  1  0  0  0  0
 21 27  1  0  0  0  0
 22 23  2  0  0  0  0
 22 25  1  0  0  0  0
 23 24  1  0  0  0  0
 25 26  2  0  0  0  0
 26 27  1  0  0  0  0
M  END
>  <CHROM.1>
-62.92360030,-175.90957534,177.74286978,-69.10881837,49.41413796,145.68740641
97.56363036,-6.00428049,-11.85499024,19.48488516,0.80707786,-0.55802060,-0.94545658

>  <Name>
ligand

>  <RI>
0

>  <Rbt.Current_Directory>
/home/itssahil/PROJECTS/Mol_Feturizer/Test_systems_manuscript/rnas/4kqy

>  <Rbt.Executable>
rbdock ($Id: //depot/dev/client3/rdock/2013.1/src/exe/rbdock.cxx#4 $)

>  <Rbt.Library>
libRbt.so (2013.1, Build901 2013/11/27)

>  <Rbt.Parameter_File>
/export/apps/rDock/src/rDock_2013.1_src/data/scripts/dock_solv.prm

>  <Rbt.Receptor>
prm/pocket_docking_6.prm

>  <SCORE>
-14.7825

>  <SCORE.INTER>
-13.2638

>  <SCORE.INTER.CONST>
1

>  <SCORE.INTER.POLAR>
0

>  <SCORE.INTER.ROT>
7

>  <SCORE.INTER.SOLV>
14.7114

>  <SCORE.INTER.VDW>
-22.013

>  <SCORE.INTER.norm>
-0.491253

>  <SCORE.INTRA>
-1.52223

>  <SCORE.INTRA.DIHEDRAL>
-3.75082

>  <SCORE.INTRA.DIHEDRAL.0>
10.4103

>  <SCORE.INTRA.POLAR>
0

>  <SCORE.INTRA.POLAR.0>
0

>  <SCORE.INTRA.REPUL>
0

>  <SCORE.INTRA.REPUL.0>
0

>  <SCORE.INTRA.SOLV>
-0.217871

>  <SCORE.INTRA.SOLV.lig_0>
-49.5008

>  <SCORE.INTRA.VDW>
0.462114

>  <SCORE.INTRA.VDW.0>
-2.6946

>  <SCORE.INTRA.norm>
-0.0563789

>  <SCORE.RESTR>
0.00354575

>  <SCORE.RESTR.CAVITY>
0.00354575

>  <SCORE.RESTR.norm>
0.000131324

>  <SCORE.SYSTEM>
0

>  <SCORE.SYSTEM.CONST>
0

>  <SCORE.SYSTEM.DIHEDRAL>
0

>  <SCORE.SYSTEM.SOLV>
0

>  <SCORE.SYSTEM.norm>
0

>  <SCORE.heavy>
27

>  <SCORE.norm>
-0.5475

>  <RMSD>
5.479

$$$$
ligand
 OpenBabel02271912153D
libRbt.so/2013.1/901 2013/11/27
 27 29  0  0  0  0  0  0  0  0999 V2000
   -3.5504   -8.3338   16.2946 N   0  0  0  0  0  0  0  0  0  0  0  0
   -2.6791   -8.8232   17.3461 C   0  0  2  0  0  0  0  0  0  0  0  0
   -1.8456   -9.9204   16.7591 C   0  0  0  0  0  0  0  0  0  0  0  0
   -0.6649  -10.0619   17.1439 O   0  0  0  0  0  0  0  0  0  0  0  0
   -3.5045   -9.3537   18.5214 C   0  0  0  0  0  0  0  0  0  0  0  0
   -2.6392   -9.5204   19.7903 C   0  0  0  0  0  0  0  0  0  0  0  0
   -3.4238  -10.1770   21.1201 S   0  0  2  0  0  0  0  0  0  0  0  0
   -2.6075   -9.7574   22.5043 C   0  0  0  0  0  0  0  0  0  0  0  0
   -3.5071  -11.8553   20.9615 C   0  0  0  0  0  0  0  0  0  0  0  0
   -4.7884  -12.3582   20.2636 C   0  0  1  0  0  0  0  0  0  0  0  0
   -4.9806  -11.7923   18.9565 O   0  0  0  0  0  0  0  0  0  0  0  0
   -4.7722  -13.8483   19.9630 C   0  0  1  0  0  0  0  0  0  0  0  0
   -4.9765  -14.7502   21.0691 O   0  0  0  0  0  0  0  0  0  0  0  0
   -5.8447  -13.9276   18.9049 C   0  0  1  0  0  0  0  0  0  0  0  0
   -7.1282  -13.7439   19.4947 O   0  0  0  0  0  0  0  0  0  0  0  0
   -5.5324  -12.7416   18.0411 C   0  0  2  0  0  0  0  0  0  0  0  0
   -2.3557  -10.6967   15.9162 O   0  0  0  0  0  0  0  0  0  0  0  0
   -0.6278  -13.7227   16.2358 N   0  0  0  0  0  0  0  0  0  0  0  0
   -1.0286  -13.4112   17.4924 C   0  0  0  0  0  0  0  0  0  0  0  0
   -2.3134  -13.1788   17.8094 N   0  0  0  0  0  0  0  0  0  0  0  0
   -3.2913  -13.2616   16.9005 C   0  0  0  0  0  0  0  0  0  0  0  0
   -2.9271  -13.6147   15.5367 C   0  0  0  0  0  0  0  0  0  0  0  0
   -1.5060  -13.8515   15.1923 C   0  0  0  0  0  0  0  0  0  0  0  0
   -1.0997  -14.1838   13.9166 N   0  0  0  0  0  0  0  0  0  0  0  0
   -4.0539  -13.6404   14.8618 N   0  0  0  0  0  0  0  0  0  0  0  0
   -5.0607  -13.3172   15.6851 C   0  0  0  0  0  0  0  0  0  0  0  0
   -4.6095  -13.0923   16.9185 N   0  0  0  0  0  0  0  0  0  0  0  0
  2  1  1  6  0  0  0
  2  3  1  0  0  0  0
  2  5  1  0  0  0  0
  3  4  1  0  0  0  0
  3 17  1  0  0  0  0
  5  6  1  0  0  0  0
  7  6  1  6  0  0  0
  7  8  1  0  0  0  0
  7  9  1  0  0  0  0
 10  9  1  6  0  0  0
 10 11  1  0  0  0  0
 10 12  1  0  0  0  0
 11 16  1  0  0  0  0
 12 13  1  1  0  0  0
 12 14  1  0  0  0  0
 14 15  1  1  0  0  0
 14 16  1  0  0  0  0
 16 27  1  6  0  0  0
 18 19  2  0  0  0  0
 18 23  1  0  0  0  0
 19 20  1  0  0  0  0
 20 21  2  0  0  0  0
 21 22  1  0  0  0  0
 21 27  1  0  0  0  0
 22 23  2  0  0  0  0
 22 25  1  0  0  0  0
 23 24  1  0  0  0  0
 25 26  2  0  0  0  0
 26 27  1  0  0  0  0
M  END
>  <CHROM.1>
145.11820564,-164.51792191,-176.77042995,-158.05630993,-91.31883196,56.76619496
37.79890250,-3.40506209,-11.98841269,18.12537011,-1.04118877,0.87695120,0.83667417

>  <Name>
ligand

>  <RI>
0

>  <Rbt.Current_Directory>
/home/itssahil/PROJECTS/Mol_Feturizer/Test_systems_manuscript/rnas/4kqy

>  <Rbt.Executable>
rbdock ($Id: //depot/dev/client3/rdock/2013.1/src/exe/rbdock.cxx#4 $)

>  <Rbt.Library>
libRbt.so (2013.1, Build901 2013/11/27)

>  <Rbt.Parameter_File>
/export/apps/rDock/src/rDock_2013.1_src/data/scripts/dock_solv.prm

>  <Rbt.Receptor>
prm/pocket_docking_6.prm

>  <SCORE>
-16.2277

>  <SCORE.INTER>
-11.3188

>  <SCORE.INTER.CONST>
1

>  <SCORE.INTER.POLAR>
0

>  <SCORE.INTER.ROT>
7

>  <SCORE.INTER.SOLV>
11.9402

>  <SCORE.INTER.VDW>
-19.7926

>  <SCORE.INTER.norm>
-0.419216

>  <SCORE.INTRA>
-4.91116

>  <SCORE.INTRA.DIHEDRAL>
-2.87366

>  <SCORE.INTRA.DIHEDRAL.0>
10.4103

>  <SCORE.INTRA.POLAR>
0

>  <SCORE.INTRA.POLAR.0>
0

>  <SCORE.INTRA.REPUL>
0

>  <SCORE.INTRA.REPUL.0>
0

>  <SCORE.INTRA.SOLV>
-0.421431

>  <SCORE.INTRA.SOLV.lig_0>
-49.5008

>  <SCORE.INTRA.VDW>
-3.26361

>  <SCORE.INTRA.VDW.0>
-2.6946

>  <SCORE.INTRA.norm>
-0.181895

>  <SCORE.RESTR>
0.00229541

>  <SCORE.RESTR.CAVITY>
0.00229541

>  <SCORE.RESTR.norm>
8.50153e-05

>  <SCORE.SYSTEM>
0

>  <SCORE.SYSTEM.CONST>
0

>  <SCORE.SYSTEM.DIHEDRAL>
0

>  <SCORE.SYSTEM.SOLV>
0

>  <SCORE.SYSTEM.norm>
0

>  <SCORE.heavy>
27

>  <SCORE.norm>
-0.601026

>  <RMSD>
5.510

$$$$
ligand
 OpenBabel02271912153D
libRbt.so/2013.1/901 2013/11/27
 27 29  0  0  0  0  0  0  0  0999 V2000
   -4.1325   -7.5422   18.9526 N   0  0  0  0  0  0  0  0  0  0  0  0
   -4.4264   -7.9249   20.3206 C   0  0  2  0  0  0  0  0  0  0  0  0
   -4.7564   -6.6723   21.0724 C   0  0  0  0  0  0  0  0  0  0  0  0
   -5.8925   -6.5456   21.5777 O   0  0  0  0  0  0  0  0  0  0  0  0
   -3.2183   -8.6213   20.9528 C   0  0  0  0  0  0  0  0  0  0  0  0
   -3.6094   -9.3672   22.2479 C   0  0  0  0  0  0  0  0  0  0  0  0
   -4.2955  -10.8829   22.0308 S   0  0  2  0  0  0  0  0  0  0  0  0
   -3.1660  -11.9107   21.3777 C   0  0  0  0  0  0  0  0  0  0  0  0
   -5.6438  -10.7593   21.0231 C   0  0  0  0  0  0  0  0  0  0  0  0
   -6.4658  -12.0605   20.9100 C   0  0  1  0  0  0  0  0  0  0  0  0
   -7.8767  -11.8281   20.7639 O   0  0  0  0  0  0  0  0  0  0  0  0
   -6.1494  -12.8734   19.6650 C   0  0  1  0  0  0  0  0  0  0  0  0
   -4.9108  -13.6113   19.6519 O   0  0  0  0  0  0  0  0  0  0  0  0
   -7.3791  -13.7438   19.5843 C   0  0  1  0  0  0  0  0  0  0  0  0
   -7.3500  -14.7282   20.6135 O   0  0  0  0  0  0  0  0  0  0  0  0
   -8.4821  -12.7695   19.8746 C   0  0  2  0  0  0  0  0  0  0  0  0
   -3.8783   -5.7871   21.2085 O   0  0  0  0  0  0  0  0  0  0  0  0
   -8.2701   -8.9986   16.1315 N   0  0  0  0  0  0  0  0  0  0  0  0
   -7.4611   -9.1845   17.2028 C   0  0  0  0  0  0  0  0  0  0  0  0
   -7.6365  -10.1856   18.0815 N   0  0  0  0  0  0  0  0  0  0  0  0
   -8.6177  -11.0841   17.9421 C   0  0  0  0  0  0  0  0  0  0  0  0
   -9.5070  -10.9512   16.7981 C   0  0  0  0  0  0  0  0  0  0  0  0
   -9.3172   -9.8339   15.8442 C   0  0  0  0  0  0  0  0  0  0  0  0
  -10.1310   -9.6535   14.7452 N   0  0  0  0  0  0  0  0  0  0  0  0
  -10.3563  -11.9494   16.8886 N   0  0  0  0  0  0  0  0  0  0  0  0
  -10.0755  -12.6601   17.9895 C   0  0  0  0  0  0  0  0  0  0  0  0
   -9.0242  -12.1475   18.6279 N   0  0  0  0  0  0  0  0  0  0  0  0
  2  1  1  6  0  0  0
  2  3  1  0  0  0  0
  2  5  1  0  0  0  0
  3  4  1  0  0  0  0
  3 17  1  0  0  0  0
  5  6  1  0  0  0  0
  7  6  1  6  0  0  0
  7  8  1  0  0  0  0
  7  9  1  0  0  0  0
 10  9  1  6  0  0  0
 10 11  1  0  0  0  0
 10 12  1  0  0  0  0
 11 16  1  0  0  0  0
 12 13  1  1  0  0  0
 12 14  1  0  0  0  0
 14 15  1  1  0  0  0
 14 16  1  0  0  0  0
 16 27  1  6  0  0  0
 18 19  2  0  0  0  0
 18 23  1  0  0  0  0
 19 20  1  0  0  0  0
 20 21  2  0  0  0  0
 21 22  1  0  0  0  0
 21 27  1  0  0  0  0
 22 23  2  0  0  0  0
 22 25  1  0  0  0  0
 23 24  1  0  0  0  0
 25 26  2  0  0  0  0
 26 27  1  0  0  0  0
M  END
>  <CHROM.1>
118.18586321,-164.77847576,81.57813052,66.00251999,-172.07369909,146.03650228
31.10458212,-6.55406574,-10.54512505,19.54055666,0.21008814,-0.74721287,-0.32600540

>  <Name>
ligand

>  <RI>
0

>  <Rbt.Current_Directory>
/home/itssahil/PROJECTS/Mol_Feturizer/Test_systems_manuscript/rnas/4kqy

>  <Rbt.Executable>
rbdock ($Id: //depot/dev/client3/rdock/2013.1/src/exe/rbdock.cxx#4 $)

>  <Rbt.Library>
libRbt.so (2013.1, Build901 2013/11/27)

>  <Rbt.Parameter_File>
/export/apps/rDock/src/rDock_2013.1_src/data/scripts/dock_solv.prm

>  <Rbt.Receptor>
prm/pocket_docking_7.prm

>  <SCORE>
-21.1894

>  <SCORE.INTER>
-20.1109

>  <SCORE.INTER.CONST>
1

>  <SCORE.INTER.POLAR>
0

>  <SCORE.INTER.ROT>
7

>  <SCORE.INTER.SOLV>
13.4371

>  <SCORE.INTER.VDW>
-26.153

>  <SCORE.INTER.norm>
-0.744847

>  <SCORE.INTRA>
-1.07855

>  <SCORE.INTRA.DIHEDRAL>
-1.89337

>  <SCORE.INTRA.DIHEDRAL.0>
10.4103

>  <SCORE.INTRA.POLAR>
0

>  <SCORE.INTRA.POLAR.0>
0

>  <SCORE.INTRA.REPUL>
0

>  <SCORE.INTRA.REPUL.0>
0

>  <SCORE.INTRA.SOLV>
0.184667

>  <SCORE.INTRA.SOLV.lig_0>
-49.5008

>  <SCORE.INTRA.VDW>
-0.224197

>  <SCORE.INTRA.VDW.0>
-2.6946

>  <SCORE.INTRA.norm>
-0.0399463

>  <SCORE.RESTR>
0

>  <SCORE.RESTR.CAVITY>
0

>  <SCORE.RESTR.norm>
0

>  <SCORE.SYSTEM>
0

>  <SCORE.SYSTEM.CONST>
0

>  <SCORE.SYSTEM.DIHEDRAL>
0

>  <SCORE.SYSTEM.SOLV>
0

>  <SCORE.SYSTEM.norm>
0

>  <SCORE.heavy>
27

>  <SCORE.norm>
-0.784794

>  <RMSD>
5.525

$$$$
ligand
 OpenBabel02271912153D
libRbt.so/2013.1/901 2013/11/27
 27 29  0  0  0  0  0  0  0  0999 V2000
   -3.0743  -13.2973   17.4182 N   0  0  0  0  0  0  0  0  0  0  0  0
   -2.0056  -14.0293   16.7653 C   0  0  2  0  0  0  0  0  0  0  0  0
   -0.7168  -13.3654   17.1412 C   0  0  0  0  0  0  0  0  0  0  0  0
    0.3525  -14.0035   17.0327 O   0  0  0  0  0  0  0  0  0  0  0  0
   -2.1917  -14.0063   15.2458 C   0  0  0  0  0  0  0  0  0  0  0  0
   -2.0827  -12.5712   14.6845 C   0  0  0  0  0  0  0  0  0  0  0  0
   -3.3489  -11.5427   15.0769 S   0  0  2  0  0  0  0  0  0  0  0  0
   -4.6830  -11.9402   14.1708 C   0  0  0  0  0  0  0  0  0  0  0  0
   -2.8915   -9.9425   14.7962 C   0  0  0  0  0  0  0  0  0  0  0  0
   -3.6827   -8.9078   15.6239 C   0  0  1  0  0  0  0  0  0  0  0  0
   -5.1051   -9.0051   15.4417 O   0  0  0  0  0  0  0  0  0  0  0  0
   -3.5434   -9.0958   17.1259 C   0  0  1  0  0  0  0  0  0  0  0  0
   -2.3014   -8.6866   17.7331 O   0  0  0  0  0  0  0  0  0  0  0  0
   -4.7443   -8.3234   17.6129 C   0  0  1  0  0  0  0  0  0  0  0  0
   -4.5240   -6.9251   17.4534 O   0  0  0  0  0  0  0  0  0  0  0  0
   -5.8156   -8.7588   16.6575 C   0  0  2  0  0  0  0  0  0  0  0  0
   -0.7293  -12.1722   17.5278 O   0  0  0  0  0  0  0  0  0  0  0  0
   -7.9796  -11.4896   20.6744 N   0  0  0  0  0  0  0  0  0  0  0  0
   -7.3205  -10.3059   20.7042 C   0  0  0  0  0  0  0  0  0  0  0  0
   -6.8139   -9.7276   19.6023 N   0  0  0  0  0  0  0  0  0  0  0  0
   -6.9473  -10.2784   18.3906 C   0  0  0  0  0  0  0  0  0  0  0  0
   -7.6656  -11.5399   18.2900 C   0  0  0  0  0  0  0  0  0  0  0  0
   -8.2052  -12.1792   19.5124 C   0  0  0  0  0  0  0  0  0  0  0  0
   -8.8896  -13.3764   19.4804 N   0  0  0  0  0  0  0  0  0  0  0  0
   -7.6652  -11.8498   17.0133 N   0  0  0  0  0  0  0  0  0  0  0  0
   -6.9978  -10.9046   16.3371 C   0  0  0  0  0  0  0  0  0  0  0  0
   -6.5660   -9.9501   17.1605 N   0  0  0  0  0  0  0  0  0  0  0  0
  2  1  1  1  0  0  0
  2  3  1  0  0  0  0
  2  5  1  0  0  0  0
  3  4  1  0  0  0  0
  3 17  1  0  0  0  0
  5  6  1  0  0  0  0
  7  6  1  6  0  0  0
  7  8  1  0  0  0  0
  7  9  1  0  0  0  0
 10  9  1  6  0  0  0
 10 11  1  0  0  0  0
 10 12  1  0  0  0  0
 11 16  1  0  0  0  0
 12 13  1  1  0  0  0
 12 14  1  0  0  0  0
 14 15  1  6  0  0  0
 14 16  1  0  0  0  0
 16 27  1  1  0  0  0
 18 19  2  0  0  0  0
 18 23  1  0  0  0  0
 19 20  1  0  0  0  0
 20 21  2  0  0  0  0
 21 22  1  0  0  0  0
 21 27  1  0  0  0  0
 22 23  2  0  0  0  0
 22 25  1  0  0  0  0
 23 24  1  0  0  0  0
 25 26  2  0  0  0  0
 26 27  1  0  0  0  0
M  END
>  <CHROM.1>
159.75233586,64.07609666,-69.86563898,-74.75167981,-156.07567551,-55.79367038
154.46747118,-4.51267919,-11.05015510,17.06805768,0.16338243,-0.50178028
2.89175601

>  <Name>
ligand

>  <RI>
0

>  <Rbt.Current_Directory>
/home/itssahil/PROJECTS/Mol_Feturizer/Test_systems_manuscript/rnas/4kqy

>  <Rbt.Executable>
rbdock ($Id: //depot/dev/client3/rdock/2013.1/src/exe/rbdock.cxx#4 $)

>  <Rbt.Library>
libRbt.so (2013.1, Build901 2013/11/27)

>  <Rbt.Parameter_File>
/export/apps/rDock/src/rDock_2013.1_src/data/scripts/dock_solv.prm

>  <Rbt.Receptor>
prm/pocket_docking_5.prm

>  <SCORE>
-9.2996

>  <SCORE.INTER>
-7.79615

>  <SCORE.INTER.CONST>
1

>  <SCORE.INTER.POLAR>
0

>  <SCORE.INTER.ROT>
7

>  <SCORE.INTER.SOLV>
12.6746

>  <SCORE.INTER.VDW>
-17.689

>  <SCORE.INTER.norm>
-0.288746

>  <SCORE.INTRA>
-1.50345

>  <SCORE.INTRA.DIHEDRAL>
-4.95515

>  <SCORE.INTRA.DIHEDRAL.0>
10.4103

>  <SCORE.INTRA.POLAR>
0

>  <SCORE.INTRA.POLAR.0>
0

>  <SCORE.INTRA.REPUL>
0

>  <SCORE.INTRA.REPUL.0>
0

>  <SCORE.INTRA.SOLV>
2.61754

>  <SCORE.INTRA.SOLV.lig_0>
-49.5008

>  <SCORE.INTRA.VDW>
-0.334646

>  <SCORE.INTRA.VDW.0>
-2.6946

>  <SCORE.INTRA.norm>
-0.0556833

>  <SCORE.RESTR>
0

>  <SCORE.RESTR.CAVITY>
0

>  <SCORE.RESTR.norm>
0

>  <SCORE.SYSTEM>
0

>  <SCORE.SYSTEM.CONST>
0

>  <SCORE.SYSTEM.DIHEDRAL>
0

>  <SCORE.SYSTEM.SOLV>
0

>  <SCORE.SYSTEM.norm>
0

>  <SCORE.heavy>
27

>  <SCORE.norm>
-0.34443

>  <RMSD>
5.536

$$$$
ligand
 OpenBabel02271912153D
libRbt.so/2013.1/901 2013/11/27
 27 29  0  0  0  0  0  0  0  0999 V2000
  -10.4834  -12.2401   17.9192 N   0  0  0  0  0  0  0  0  0  0  0  0
   -9.7346  -11.0793   17.4765 C   0  0  2  0  0  0  0  0  0  0  0  0
   -9.2952  -11.3429   16.0692 C   0  0  0  0  0  0  0  0  0  0  0  0
   -9.4100  -12.4958   15.6002 O   0  0  0  0  0  0  0  0  0  0  0  0
   -8.5190  -10.8505   18.3788 C   0  0  0  0  0  0  0  0  0  0  0  0
   -7.6827  -12.1396   18.5382 C   0  0  0  0  0  0  0  0  0  0  0  0
   -6.1754  -11.9411   19.2480 S   0  0  2  0  0  0  0  0  0  0  0  0
   -5.3957  -13.4065   19.3049 C   0  0  0  0  0  0  0  0  0  0  0  0
   -6.3555  -11.2998   20.7988 C   0  0  0  0  0  0  0  0  0  0  0  0
   -5.1999  -10.3747   21.2349 C   0  0  1  0  0  0  0  0  0  0  0  0
   -3.9028  -10.9699   21.0641 O   0  0  0  0  0  0  0  0  0  0  0  0
   -5.0810   -9.1129   20.3954 C   0  0  1  0  0  0  0  0  0  0  0  0
   -6.0506   -8.0706   20.6239 O   0  0  0  0  0  0  0  0  0  0  0  0
   -3.6624   -8.7060   20.7087 C   0  0  1  0  0  0  0  0  0  0  0  0
   -3.5804   -8.2028   22.0388 O   0  0  0  0  0  0  0  0  0  0  0  0
   -2.9300  -10.0132   20.6375 C   0  0  2  0  0  0  0  0  0  0  0  0
   -8.8496  -10.3970   15.3764 O   0  0  0  0  0  0  0  0  0  0  0  0
   -1.8007   -8.3456   15.7162 N   0  0  0  0  0  0  0  0  0  0  0  0
   -2.3508   -7.6570   16.7456 C   0  0  0  0  0  0  0  0  0  0  0  0
   -2.5899   -8.2113   17.9460 N   0  0  0  0  0  0  0  0  0  0  0  0
   -2.2779   -9.4848   18.2107 C   0  0  0  0  0  0  0  0  0  0  0  0
   -1.6633  -10.2710   17.1517 C   0  0  0  0  0  0  0  0  0  0  0  0
   -1.4197   -9.6569   15.8259 C   0  0  0  0  0  0  0  0  0  0  0  0
   -0.8456  -10.3531   14.7826 N   0  0  0  0  0  0  0  0  0  0  0  0
   -1.4496  -11.4599   17.6682 N   0  0  0  0  0  0  0  0  0  0  0  0
   -1.8951  -11.4709   18.9320 C   0  0  0  0  0  0  0  0  0  0  0  0
   -2.3916  -10.2811   19.2688 N   0  0  0  0  0  0  0  0  0  0  0  0
  2  1  1  1  0  0  0
  2  3  1  0  0  0  0
  2  5  1  0  0  0  0
  3  4  1  0  0  0  0
  3 17  1  0  0  0  0
  5  6  1  0  0  0  0
  7  6  1  1  0  0  0
  7  8  1  0  0  0  0
  7  9  1  0  0  0  0
 10  9  1  6  0  0  0
 10 11  1  0  0  0  0
 10 12  1  0  0  0  0
 11 16  1  0  0  0  0
 12 13  1  1  0  0  0
 12 14  1  0  0  0  0
 14 15  1  1  0  0  0
 14 16  1  0  0  0  0
 16 27  1  6  0  0  0
 18 19  2  0  0  0  0
 18 23  1  0  0  0  0
 19 20  1  0  0  0  0
 20 21  2  0  0  0  0
 21 22  1  0  0  0  0
 21 27  1  0  0  0  0
 22 23  2  0  0  0  0
 22 25  1  0  0  0  0
 23 24  1  0  0  0  0
 25 26  2  0  0  0  0
 26 27  1  0  0  0  0
M  END
>  <CHROM.1>
-11.66763532,51.08017118,168.37282791,-178.43152872,-147.58030761,-51.42279322
128.92863434,-4.99935349,-10.45490855,18.50320365,-3.02188464,0.29679069
1.47250745

>  <Name>
ligand

>  <RI>
0

>  <Rbt.Current_Directory>
/home/itssahil/PROJECTS/Mol_Feturizer/Test_systems_manuscript/rnas/4kqy

>  <Rbt.Executable>
rbdock ($Id: //depot/dev/client3/rdock/2013.1/src/exe/rbdock.cxx#4 $)

>  <Rbt.Library>
libRbt.so (2013.1, Build901 2013/11/27)

>  <Rbt.Parameter_File>
/export/apps/rDock/src/rDock_2013.1_src/data/scripts/dock_solv.prm

>  <Rbt.Receptor>
prm/pocket_docking_6.prm

>  <SCORE>
-13.163

>  <SCORE.INTER>
-11.4288

>  <SCORE.INTER.CONST>
1

>  <SCORE.INTER.POLAR>
0

>  <SCORE.INTER.ROT>
7

>  <SCORE.INTER.SOLV>
9.91566

>  <SCORE.INTER.VDW>
-19.1911

>  <SCORE.INTER.norm>
-0.423289

>  <SCORE.INTRA>
-1.73915

>  <SCORE.INTRA.DIHEDRAL>
-3.96724

>  <SCORE.INTRA.DIHEDRAL.0>
10.4103

>  <SCORE.INTRA.POLAR>
0

>  <SCORE.INTRA.POLAR.0>
0

>  <SCORE.INTRA.REPUL>
0

>  <SCORE.INTRA.REPUL.0>
0

>  <SCORE.INTRA.SOLV>
0.425649

>  <SCORE.INTRA.SOLV.lig_0>
-49.5008

>  <SCORE.INTRA.VDW>
0.0316406

>  <SCORE.INTRA.VDW.0>
-2.6946

>  <SCORE.INTRA.norm>
-0.0644131

>  <SCORE.RESTR>
0.00494778

>  <SCORE.RESTR.CAVITY>
0.00494778

>  <SCORE.RESTR.norm>
0.000183251

>  <SCORE.SYSTEM>
0

>  <SCORE.SYSTEM.CONST>
0

>  <SCORE.SYSTEM.DIHEDRAL>
0

>  <SCORE.SYSTEM.SOLV>
0

>  <SCORE.SYSTEM.norm>
0

>  <SCORE.heavy>
27

>  <SCORE.norm>
-0.487519

>  <RMSD>
5.545

$$$$
ligand
 OpenBabel02271912153D
libRbt.so/2013.1/901 2013/11/27
 27 29  0  0  0  0  0  0  0  0999 V2000
   -4.5651   -6.0280   21.9300 N   0  0  0  0  0  0  0  0  0  0  0  0
   -3.9751   -6.7490   20.8181 C   0  0  2  0  0  0  0  0  0  0  0  0
   -5.0991   -7.2341   19.9553 C   0  0  0  0  0  0  0  0  0  0  0  0
   -4.9000   -7.4047   18.7332 O   0  0  0  0  0  0  0  0  0  0  0  0
   -3.1469   -7.9321   21.3267 C   0  0  0  0  0  0  0  0  0  0  0  0
   -3.9451   -8.7898   22.3335 C   0  0  0  0  0  0  0  0  0  0  0  0
   -4.3865  -10.3159   21.7938 S   0  0  2  0  0  0  0  0  0  0  0  0
   -3.1172  -11.3652   22.0092 C   0  0  0  0  0  0  0  0  0  0  0  0
   -4.8284  -10.2393   20.1667 C   0  0  0  0  0  0  0  0  0  0  0  0
   -5.7335  -11.4011   19.7054 C   0  0  1  0  0  0  0  0  0  0  0  0
   -6.3387  -11.1722   18.4220 O   0  0  0  0  0  0  0  0  0  0  0  0
   -4.9819  -12.7018   19.4722 C   0  0  1  0  0  0  0  0  0  0  0  0
   -4.5616  -13.4425   20.6356 O   0  0  0  0  0  0  0  0  0  0  0  0
   -5.9706  -13.4394   18.6036 C   0  0  1  0  0  0  0  0  0  0  0  0
   -7.0865  -13.8610   19.3822 O   0  0  0  0  0  0  0  0  0  0  0  0
   -6.4190  -12.3723   17.6494 C   0  0  2  0  0  0  0  0  0  0  0  0
   -6.2099   -7.4904   20.4784 O   0  0  0  0  0  0  0  0  0  0  0  0
   -3.5187   -9.6631   14.1105 N   0  0  0  0  0  0  0  0  0  0  0  0
   -4.1631   -9.2089   15.2128 C   0  0  0  0  0  0  0  0  0  0  0  0
   -4.8729  -10.0121   16.0230 N   0  0  0  0  0  0  0  0  0  0  0  0
   -4.9724  -11.3278   15.8029 C   0  0  0  0  0  0  0  0  0  0  0  0
   -4.2833  -11.8801   14.6464 C   0  0  0  0  0  0  0  0  0  0  0  0
   -3.5180  -10.9843   13.7486 C   0  0  0  0  0  0  0  0  0  0  0  0
   -2.8491  -11.4488   12.6351 N   0  0  0  0  0  0  0  0  0  0  0  0
   -4.5274  -13.1708   14.6685 N   0  0  0  0  0  0  0  0  0  0  0  0
   -5.3143  -13.4460   15.7177 C   0  0  0  0  0  0  0  0  0  0  0  0
   -5.5831  -12.3399   16.4104 N   0  0  0  0  0  0  0  0  0  0  0  0
  2  1  1  1  0  0  0
  2  3  1  0  0  0  0
  2  5  1  0  0  0  0
  3  4  1  0  0  0  0
  3 17  1  0  0  0  0
  5  6  1  0  0  0  0
  7  6  1  6  0  0  0
  7  8  1  0  0  0  0
  7  9  1  0  0  0  0
 10  9  1  6  0  0  0
 10 11  1  0  0  0  0
 10 12  1  0  0  0  0
 11 16  1  0  0  0  0
 12 13  1  1  0  0  0
 12 14  1  0  0  0  0
 14 15  1  1  0  0  0
 14 16  1  0  0  0  0
 16 27  1  6  0  0  0
 18 19  2  0  0  0  0
 18 23  1  0  0  0  0
 19 20  1  0  0  0  0
 20 21  2  0  0  0  0
 21 22  1  0  0  0  0
 21 27  1  0  0  0  0
 22 23  2  0  0  0  0
 22 25  1  0  0  0  0
 23 24  1  0  0  0  0
 25 26  2  0  0  0  0
 26 27  1  0  0  0  0
M  END
>  <CHROM.1>
152.16913053,49.89652999,110.63039931,83.07015872,-158.10499326,166.97330772
-12.83657504,-4.77567298,-10.55081484,18.50510758,-1.55292971,-1.31179750
-2.02145641

>  <Name>
ligand

>  <RI>
0

>  <Rbt.Current_Directory>
/home/itssahil/PROJECTS/Mol_Feturizer/Test_systems_manuscript/rnas/4kqy

>  <Rbt.Executable>
rbdock ($Id: //depot/dev/client3/rdock/2013.1/src/exe/rbdock.cxx#4 $)

>  <Rbt.Library>
libRbt.so (2013.1, Build901 2013/11/27)

>  <Rbt.Parameter_File>
/export/apps/rDock/src/rDock_2013.1_src/data/scripts/dock_solv.prm

>  <Rbt.Receptor>
prm/pocket_docking_5.prm

>  <SCORE>
-10.1998

>  <SCORE.INTER>
-12.1827

>  <SCORE.INTER.CONST>
1

>  <SCORE.INTER.POLAR>
0

>  <SCORE.INTER.ROT>
7

>  <SCORE.INTER.SOLV>
14.0626

>  <SCORE.INTER.VDW>
-21.076

>  <SCORE.INTER.norm>
-0.451211

>  <SCORE.INTRA>
1.98287

>  <SCORE.INTRA.DIHEDRAL>
1.21191

>  <SCORE.INTRA.DIHEDRAL.0>
10.4103

>  <SCORE.INTRA.POLAR>
0

>  <SCORE.INTRA.POLAR.0>
0

>  <SCORE.INTRA.REPUL>
0

>  <SCORE.INTRA.REPUL.0>
0

>  <SCORE.INTRA.SOLV>
0.834546

>  <SCORE.INTRA.SOLV.lig_0>
-49.5008

>  <SCORE.INTRA.VDW>
0.959643

>  <SCORE.INTRA.VDW.0>
-2.6946

>  <SCORE.INTRA.norm>
0.0734396

>  <SCORE.RESTR>
0

>  <SCORE.RESTR.CAVITY>
0

>  <SCORE.RESTR.norm>
0

>  <SCORE.SYSTEM>
0

>  <SCORE.SYSTEM.CONST>
0

>  <SCORE.SYSTEM.DIHEDRAL>
0

>  <SCORE.SYSTEM.SOLV>
0

>  <SCORE.SYSTEM.norm>
0

>  <SCORE.heavy>
27

>  <SCORE.norm>
-0.377772

>  <RMSD>
5.608

$$$$
ligand
 OpenBabel02271912153D
libRbt.so/2013.1/901 2013/11/27
 27 29  0  0  0  0  0  0  0  0999 V2000
   -3.5316   -7.6177   19.2296 N   0  0  0  0  0  0  0  0  0  0  0  0
   -4.9734   -7.7556   19.3104 C   0  0  2  0  0  0  0  0  0  0  0  0
   -5.4003   -7.2007   20.6344 C   0  0  0  0  0  0  0  0  0  0  0  0
   -4.9196   -7.6840   21.6820 O   0  0  0  0  0  0  0  0  0  0  0  0
   -5.3774   -9.2280   19.1962 C   0  0  0  0  0  0  0  0  0  0  0  0
   -6.8919   -9.3798   18.9318 C   0  0  0  0  0  0  0  0  0  0  0  0
   -7.4595  -10.9571   18.8605 S   0  0  2  0  0  0  0  0  0  0  0  0
   -8.9461  -10.9750   18.1201 C   0  0  0  0  0  0  0  0  0  0  0  0
   -7.5608  -11.5974   20.4189 C   0  0  0  0  0  0  0  0  0  0  0  0
   -6.3680  -12.4959   20.8085 C   0  0  1  0  0  0  0  0  0  0  0  0
   -6.1553  -13.5830   19.8927 O   0  0  0  0  0  0  0  0  0  0  0  0
   -5.0277  -11.7799   20.7650 C   0  0  1  0  0  0  0  0  0  0  0  0
   -4.7321  -10.8604   21.8355 O   0  0  0  0  0  0  0  0  0  0  0  0
   -4.0880  -12.9582   20.6958 C   0  0  1  0  0  0  0  0  0  0  0  0
   -4.0440  -13.6233   21.9546 O   0  0  0  0  0  0  0  0  0  0  0  0
   -4.7646  -13.8507   19.6978 C   0  0  2  0  0  0  0  0  0  0  0  0
   -6.2075   -6.2412   20.6678 O   0  0  0  0  0  0  0  0  0  0  0  0
   -0.8675  -13.7364   16.0818 N   0  0  0  0  0  0  0  0  0  0  0  0
   -0.8095  -14.0911   17.3885 C   0  0  0  0  0  0  0  0  0  0  0  0
   -1.8821  -14.0657   18.1973 N   0  0  0  0  0  0  0  0  0  0  0  0
   -3.0919  -13.7052   17.7550 C   0  0  0  0  0  0  0  0  0  0  0  0
   -3.2236  -13.3344   16.3541 C   0  0  0  0  0  0  0  0  0  0  0  0
   -2.0322  -13.3481   15.4740 C   0  0  0  0  0  0  0  0  0  0  0  0
   -2.0940  -13.0020   14.1401 N   0  0  0  0  0  0  0  0  0  0  0  0
   -4.4926  -13.0421   16.1802 N   0  0  0  0  0  0  0  0  0  0  0  0
   -5.1346  -13.1827   17.3480 C   0  0  0  0  0  0  0  0  0  0  0  0
   -4.2974  -13.5878   18.3022 N   0  0  0  0  0  0  0  0  0  0  0  0
  2  1  1  1  0  0  0
  2  3  1  0  0  0  0
  2  5  1  0  0  0  0
  3  4  1  0  0  0  0
  3 17  1  0  0  0  0
  5  6  1  0  0  0  0
  7  6  1  1  0  0  0
  7  8  1  0  0  0  0
  7  9  1  0  0  0  0
 10  9  1  6  0  0  0
 10 11  1  0  0  0  0
 10 12  1  0  0  0  0
 11 16  1  0  0  0  0
 12 13  1  1  0  0  0
 12 14  1  0  0  0  0
 14 15  1  1  0  0  0
 14 16  1  0  0  0  0
 16 27  1  6  0  0  0
 18 19  2  0  0  0  0
 18 23  1  0  0  0  0
 19 20  1  0  0  0  0
 20 21  2  0  0  0  0
 21 22  1  0  0  0  0
 21 27  1  0  0  0  0
 22 23  2  0  0  0  0
 22 25  1  0  0  0  0
 23 24  1  0  0  0  0
 25 26  2  0  0  0  0
 26 27  1  0  0  0  0
M  END
>  <CHROM.1>
-57.81098781,-166.06161540,-177.23054601,-162.49933768,-99.20616093,-55.88413998
179.24163823,-4.80063042,-11.49733020,18.96759516,-2.33491497,-0.74441999
-3.10364826

>  <Name>
ligand

>  <RI>
0

>  <Rbt.Current_Directory>
/home/itssahil/PROJECTS/Mol_Feturizer/Test_systems_manuscript/rnas/4kqy

>  <Rbt.Executable>
rbdock ($Id: //depot/dev/client3/rdock/2013.1/src/exe/rbdock.cxx#4 $)

>  <Rbt.Library>
libRbt.so (2013.1, Build901 2013/11/27)

>  <Rbt.Parameter_File>
/export/apps/rDock/src/rDock_2013.1_src/data/scripts/dock_solv.prm

>  <Rbt.Receptor>
prm/pocket_docking_6.prm

>  <SCORE>
-14.6931

>  <SCORE.INTER>
-12.4971

>  <SCORE.INTER.CONST>
1

>  <SCORE.INTER.POLAR>
0

>  <SCORE.INTER.ROT>
7

>  <SCORE.INTER.SOLV>
11.8885

>  <SCORE.INTER.VDW>
-20.5609

>  <SCORE.INTER.norm>
-0.462857

>  <SCORE.INTRA>
-2.20836

>  <SCORE.INTRA.DIHEDRAL>
-2.44581

>  <SCORE.INTRA.DIHEDRAL.0>
10.4103

>  <SCORE.INTRA.POLAR>
0

>  <SCORE.INTRA.POLAR.0>
0

>  <SCORE.INTRA.REPUL>
0

>  <SCORE.INTRA.REPUL.0>
0

>  <SCORE.INTRA.SOLV>
0.053062

>  <SCORE.INTRA.SOLV.lig_0>
-49.5008

>  <SCORE.INTRA.VDW>
-1.01199

>  <SCORE.INTRA.VDW.0>
-2.6946

>  <SCORE.INTRA.norm>
-0.0817913

>  <SCORE.RESTR>
0.0124388

>  <SCORE.RESTR.CAVITY>
0.0124388

>  <SCORE.RESTR.norm>
0.000460696

>  <SCORE.SYSTEM>
0

>  <SCORE.SYSTEM.CONST>
0

>  <SCORE.SYSTEM.DIHEDRAL>
0

>  <SCORE.SYSTEM.SOLV>
0

>  <SCORE.SYSTEM.norm>
0

>  <SCORE.heavy>
27

>  <SCORE.norm>
-0.544188

>  <RMSD>
5.625

$$$$
ligand
 OpenBabel02271912153D
libRbt.so/2013.1/901 2013/11/27
 27 29  0  0  0  0  0  0  0  0999 V2000
   -0.0339  -12.1878   15.4360 N   0  0  0  0  0  0  0  0  0  0  0  0
   -1.2782  -11.9484   16.1422 C   0  0  2  0  0  0  0  0  0  0  0  0
   -2.1383  -11.1024   15.2547 C   0  0  0  0  0  0  0  0  0  0  0  0
   -3.3485  -11.3874   15.1267 O   0  0  0  0  0  0  0  0  0  0  0  0
   -1.0118  -11.2285   17.4669 C   0  0  0  0  0  0  0  0  0  0  0  0
   -2.2849  -11.1603   18.3393 C   0  0  0  0  0  0  0  0  0  0  0  0
   -2.6999  -12.5829   19.1262 S   0  0  2  0  0  0  0  0  0  0  0  0
   -3.2261  -13.6960   18.0114 C   0  0  0  0  0  0  0  0  0  0  0  0
   -3.9000  -12.2716   20.2714 C   0  0  0  0  0  0  0  0  0  0  0  0
   -5.3133  -12.1089   19.6731 C   0  0  1  0  0  0  0  0  0  0  0  0
   -5.9381  -13.3618   19.3480 O   0  0  0  0  0  0  0  0  0  0  0  0
   -6.3157  -11.4977   20.6387 C   0  0  1  0  0  0  0  0  0  0  0  0
   -6.2179  -10.0808   20.8873 O   0  0  0  0  0  0  0  0  0  0  0  0
   -7.6125  -11.9153   19.9906 C   0  0  1  0  0  0  0  0  0  0  0  0
   -7.8292  -11.1630   18.8007 O   0  0  0  0  0  0  0  0  0  0  0  0
   -7.3414  -13.3434   19.6202 C   0  0  2  0  0  0  0  0  0  0  0  0
   -1.6374  -10.1058   14.6811 O   0  0  0  0  0  0  0  0  0  0  0  0
   -6.2317  -15.9976   24.0923 N   0  0  0  0  0  0  0  0  0  0  0  0
   -5.4484  -15.1434   23.3899 C   0  0  0  0  0  0  0  0  0  0  0  0
   -5.8586  -14.5423   22.2604 N   0  0  0  0  0  0  0  0  0  0  0  0
   -7.0856  -14.7342   21.7635 C   0  0  0  0  0  0  0  0  0  0  0  0
   -7.9825  -15.6241   22.4854 C   0  0  0  0  0  0  0  0  0  0  0  0
   -7.5158  -16.2964   23.7200 C   0  0  0  0  0  0  0  0  0  0  0  0
   -8.3181  -17.1540   24.4437 N   0  0  0  0  0  0  0  0  0  0  0  0
   -9.1065  -15.6264   21.8052 N   0  0  0  0  0  0  0  0  0  0  0  0
   -8.9656  -14.8376   20.7310 C   0  0  0  0  0  0  0  0  0  0  0  0
   -7.7507  -14.2912   20.7015 N   0  0  0  0  0  0  0  0  0  0  0  0
  2  1  1  6  0  0  0
  2  3  1  0  0  0  0
  2  5  1  0  0  0  0
  3  4  1  0  0  0  0
  3 17  1  0  0  0  0
  5  6  1  0  0  0  0
  7  6  1  6  0  0  0
  7  8  1  0  0  0  0
  7  9  1  0  0  0  0
 10  9  1  1  0  0  0
 10 11  1  0  0  0  0
 10 12  1  0  0  0  0
 11 16  1  0  0  0  0
 12 13  1  6  0  0  0
 12 14  1  0  0  0  0
 14 15  1  6  0  0  0
 14 16  1  0  0  0  0
 16 27  1  1  0  0  0
 18 19  2  0  0  0  0
 18 23  1  0  0  0  0
 19 20  1  0  0  0  0
 20 21  2  0  0  0  0
 21 22  1  0  0  0  0
 21 27  1  0  0  0  0
 22 23  2  0  0  0  0
 22 25  1  0  0  0  0
 23 24  1  0  0  0  0
 25 26  2  0  0  0  0
 26 27  1  0  0  0  0
M  END
>  <CHROM.1>
135.85124773,-170.99329537,76.65855814,-70.03076730,77.75484651,78.61541726
29.83569344,-5.09964441,-13.05517091,19.66177185,-0.88471229,-0.23539140
2.31346966

>  <Name>
ligand

>  <RI>
0

>  <Rbt.Current_Directory>
/home/itssahil/PROJECTS/Mol_Feturizer/Test_systems_manuscript/rnas/4kqy

>  <Rbt.Executable>
rbdock ($Id: //depot/dev/client3/rdock/2013.1/src/exe/rbdock.cxx#4 $)

>  <Rbt.Library>
libRbt.so (2013.1, Build901 2013/11/27)

>  <Rbt.Parameter_File>
/export/apps/rDock/src/rDock_2013.1_src/data/scripts/dock_solv.prm

>  <Rbt.Receptor>
prm/pocket_docking_6.prm

>  <SCORE>
-18.4051

>  <SCORE.INTER>
-16.2724

>  <SCORE.INTER.CONST>
1

>  <SCORE.INTER.POLAR>
0

>  <SCORE.INTER.ROT>
7

>  <SCORE.INTER.SOLV>
9.8367

>  <SCORE.INTER.VDW>
-22.3938

>  <SCORE.INTER.norm>
-0.602681

>  <SCORE.INTRA>
-2.13268

>  <SCORE.INTRA.DIHEDRAL>
-4.02428

>  <SCORE.INTRA.DIHEDRAL.0>
10.4103

>  <SCORE.INTRA.POLAR>
0

>  <SCORE.INTRA.POLAR.0>
0

>  <SCORE.INTRA.REPUL>
0

>  <SCORE.INTRA.REPUL.0>
0

>  <SCORE.INTRA.SOLV>
-0.170075

>  <SCORE.INTRA.SOLV.lig_0>
-49.5008

>  <SCORE.INTRA.VDW>
-0.0355041

>  <SCORE.INTRA.VDW.0>
-2.6946

>  <SCORE.INTRA.norm>
-0.0789882

>  <SCORE.RESTR>
0

>  <SCORE.RESTR.CAVITY>
0

>  <SCORE.RESTR.norm>
0

>  <SCORE.SYSTEM>
0

>  <SCORE.SYSTEM.CONST>
0

>  <SCORE.SYSTEM.DIHEDRAL>
0

>  <SCORE.SYSTEM.SOLV>
0

>  <SCORE.SYSTEM.norm>
0

>  <SCORE.heavy>
27

>  <SCORE.norm>
-0.681669

>  <RMSD>
5.649

$$$$
ligand
 OpenBabel02271912153D
libRbt.so/2013.1/901 2013/11/27
 27 29  0  0  0  0  0  0  0  0999 V2000
   -3.1529   -9.3560   17.2312 N   0  0  0  0  0  0  0  0  0  0  0  0
   -3.7116   -9.2292   15.8985 C   0  0  2  0  0  0  0  0  0  0  0  0
   -2.6313   -8.6901   15.0122 C   0  0  0  0  0  0  0  0  0  0  0  0
   -2.0445   -7.6357   15.3381 O   0  0  0  0  0  0  0  0  0  0  0  0
   -4.9127   -8.2798   15.9098 C   0  0  0  0  0  0  0  0  0  0  0  0
   -6.0751   -8.8488   16.7535 C   0  0  0  0  0  0  0  0  0  0  0  0
   -6.9029  -10.1376   16.0688 S   0  0  2  0  0  0  0  0  0  0  0  0
   -8.4714  -10.1380   16.6153 C   0  0  0  0  0  0  0  0  0  0  0  0
   -6.1320  -11.5856   16.4655 C   0  0  0  0  0  0  0  0  0  0  0  0
   -5.7824  -11.7224   17.9625 C   0  0  1  0  0  0  0  0  0  0  0  0
   -6.8976  -11.4607   18.8306 O   0  0  0  0  0  0  0  0  0  0  0  0
   -5.3906  -13.1339   18.3689 C   0  0  1  0  0  0  0  0  0  0  0  0
   -4.0804  -13.5955   17.9830 O   0  0  0  0  0  0  0  0  0  0  0  0
   -5.5955  -13.0576   19.8617 C   0  0  1  0  0  0  0  0  0  0  0  0
   -4.5703  -12.2675   20.4563 O   0  0  0  0  0  0  0  0  0  0  0  0
   -6.8993  -12.3238   19.9701 C   0  0  2  0  0  0  0  0  0  0  0  0
   -2.3130   -9.3217   13.9764 O   0  0  0  0  0  0  0  0  0  0  0  0
  -11.4701  -14.0823   17.8985 N   0  0  0  0  0  0  0  0  0  0  0  0
  -10.6597  -13.0891   17.4587 C   0  0  0  0  0  0  0  0  0  0  0  0
   -9.5263  -12.7415   18.0910 N   0  0  0  0  0  0  0  0  0  0  0  0
   -9.1103  -13.3738   19.1939 C   0  0  0  0  0  0  0  0  0  0  0  0
   -9.9265  -14.4654   19.7034 C   0  0  0  0  0  0  0  0  0  0  0  0
  -11.1838  -14.8300   19.0102 C   0  0  0  0  0  0  0  0  0  0  0  0
  -12.0009  -15.8512   19.4487 N   0  0  0  0  0  0  0  0  0  0  0  0
   -9.2979  -14.9152   20.7657 N   0  0  0  0  0  0  0  0  0  0  0  0
   -8.1901  -14.1855   20.9562 C   0  0  0  0  0  0  0  0  0  0  0  0
   -8.0669  -13.2567   20.0088 N   0  0  0  0  0  0  0  0  0  0  0  0
  2  1  1  1  0  0  0
  2  3  1  0  0  0  0
  2  5  1  0  0  0  0
  3  4  1  0  0  0  0
  3 17  1  0  0  0  0
  5  6  1  0  0  0  0
  7  6  1  1  0  0  0
  7  8  1  0  0  0  0
  7  9  1  0  0  0  0
 10  9  1  6  0  0  0
 10 11  1  0  0  0  0
 10 12  1  0  0  0  0
 11 16  1  0  0  0  0
 12 13  1  1  0  0  0
 12 14  1  0  0  0  0
 14 15  1  1  0  0  0
 14 16  1  0  0  0  0
 16 27  1  6  0  0  0
 18 19  2  0  0  0  0
 18 23  1  0  0  0  0
 19 20  1  0  0  0  0
 20 21  2  0  0  0  0
 21 22  1  0  0  0  0
 21 27  1  0  0  0  0
 22 23  2  0  0  0  0
 22 25  1  0  0  0  0
 23 24  1  0  0  0  0
 25 26  2  0  0  0  0
 26 27  1  0  0  0  0
M  END
>  <CHROM.1>
-53.84581415,-64.73854103,-72.67386809,-151.38903899,47.81794221,50.91474434
-2.85689309,-6.74813873,-11.75980657,17.83972522,-0.75456195,0.22483824,2.29610937

>  <Name>
ligand

>  <RI>
0

>  <Rbt.Current_Directory>
/home/itssahil/PROJECTS/Mol_Feturizer/Test_systems_manuscript/rnas/4kqy

>  <Rbt.Executable>
rbdock ($Id: //depot/dev/client3/rdock/2013.1/src/exe/rbdock.cxx#4 $)

>  <Rbt.Library>
libRbt.so (2013.1, Build901 2013/11/27)

>  <Rbt.Parameter_File>
/export/apps/rDock/src/rDock_2013.1_src/data/scripts/dock_solv.prm

>  <Rbt.Receptor>
prm/pocket_docking_6.prm

>  <SCORE>
-10.9869

>  <SCORE.INTER>
-9.15019

>  <SCORE.INTER.CONST>
1

>  <SCORE.INTER.POLAR>
0

>  <SCORE.INTER.ROT>
7

>  <SCORE.INTER.SOLV>
9.07133

>  <SCORE.INTER.VDW>
-17.3906

>  <SCORE.INTER.norm>
-0.338896

>  <SCORE.INTRA>
-1.83672

>  <SCORE.INTRA.DIHEDRAL>
-4.1192

>  <SCORE.INTRA.DIHEDRAL.0>
10.4103

>  <SCORE.INTRA.POLAR>
0

>  <SCORE.INTRA.POLAR.0>
0

>  <SCORE.INTRA.REPUL>
0

>  <SCORE.INTRA.REPUL.0>
0

>  <SCORE.INTRA.SOLV>
2.00734

>  <SCORE.INTRA.SOLV.lig_0>
-49.5008

>  <SCORE.INTRA.VDW>
-0.780787

>  <SCORE.INTRA.VDW.0>
-2.6946

>  <SCORE.INTRA.norm>
-0.0680267

>  <SCORE.RESTR>
0

>  <SCORE.RESTR.CAVITY>
0

>  <SCORE.RESTR.norm>
0

>  <SCORE.SYSTEM>
0

>  <SCORE.SYSTEM.CONST>
0

>  <SCORE.SYSTEM.DIHEDRAL>
0

>  <SCORE.SYSTEM.SOLV>
0

>  <SCORE.SYSTEM.norm>
0

>  <SCORE.heavy>
27

>  <SCORE.norm>
-0.406923

>  <RMSD>
5.667

$$$$
ligand
 OpenBabel02271912153D
libRbt.so/2013.1/901 2013/11/27
 27 29  0  0  0  0  0  0  0  0999 V2000
   -5.8267   -7.9360   19.3087 N   0  0  0  0  0  0  0  0  0  0  0  0
   -5.0757   -7.9241   20.5497 C   0  0  2  0  0  0  0  0  0  0  0  0
   -5.0481   -6.5091   21.0399 C   0  0  0  0  0  0  0  0  0  0  0  0
   -3.9892   -5.8517   20.9463 O   0  0  0  0  0  0  0  0  0  0  0  0
   -3.6508   -8.4340   20.3179 C   0  0  0  0  0  0  0  0  0  0  0  0
   -3.5750   -9.9726   20.4341 C   0  0  0  0  0  0  0  0  0  0  0  0
   -4.0786  -10.6131   21.9009 S   0  0  2  0  0  0  0  0  0  0  0  0
   -2.9082  -10.3478   23.0491 C   0  0  0  0  0  0  0  0  0  0  0  0
   -4.3818  -12.2644   21.7277 C   0  0  0  0  0  0  0  0  0  0  0  0
   -5.6302  -12.5892   20.8805 C   0  0  1  0  0  0  0  0  0  0  0  0
   -5.6514  -11.9033   19.6175 O   0  0  0  0  0  0  0  0  0  0  0  0
   -5.7112  -14.0449   20.4503 C   0  0  1  0  0  0  0  0  0  0  0  0
   -6.0928  -15.0115   21.4497 O   0  0  0  0  0  0  0  0  0  0  0  0
   -6.6832  -13.9391   19.3013 C   0  0  1  0  0  0  0  0  0  0  0  0
   -7.9961  -13.6871   19.7930 O   0  0  0  0  0  0  0  0  0  0  0  0
   -6.1932  -12.7202   18.5770 C   0  0  2  0  0  0  0  0  0  0  0  0
   -6.0948   -5.9991   21.5062 O   0  0  0  0  0  0  0  0  0  0  0  0
   -1.1585  -13.1013   16.9090 N   0  0  0  0  0  0  0  0  0  0  0  0
   -1.6307  -12.6924   18.1117 C   0  0  0  0  0  0  0  0  0  0  0  0
   -2.9424  -12.6380   18.3977 N   0  0  0  0  0  0  0  0  0  0  0  0
   -3.8744  -13.0076   17.5121 C   0  0  0  0  0  0  0  0  0  0  0  0
   -3.4290  -13.4780   16.2092 C   0  0  0  0  0  0  0  0  0  0  0  0
   -1.9817  -13.5177   15.8962 C   0  0  0  0  0  0  0  0  0  0  0  0
   -1.5001  -13.9486   14.6776 N   0  0  0  0  0  0  0  0  0  0  0  0
   -4.5220  -13.7850   15.5480 N   0  0  0  0  0  0  0  0  0  0  0  0
   -5.5849  -13.5258   16.3218 C   0  0  0  0  0  0  0  0  0  0  0  0
   -5.2024  -13.0614   17.5107 N   0  0  0  0  0  0  0  0  0  0  0  0
  2  1  1  6  0  0  0
  2  3  1  0  0  0  0
  2  5  1  0  0  0  0
  3  4  1  0  0  0  0
  3 17  1  0  0  0  0
  5  6  1  0  0  0  0
  7  6  1  6  0  0  0
  7  8  1  0  0  0  0
  7  9  1  0  0  0  0
 10  9  1  6  0  0  0
 10 11  1  0  0  0  0
 10 12  1  0  0  0  0
 11 16  1  0  0  0  0
 12 13  1  1  0  0  0
 12 14  1  0  0  0  0
 14 15  1  1  0  0  0
 14 16  1  0  0  0  0
 16 27  1  6  0  0  0
 18 19  2  0  0  0  0
 18 23  1  0  0  0  0
 19 20  1  0  0  0  0
 20 21  2  0  0  0  0
 21 22  1  0  0  0  0
 21 27  1  0  0  0  0
 22 23  2  0  0  0  0
 22 25  1  0  0  0  0
 23 24  1  0  0  0  0
 25 26  2  0  0  0  0
 26 27  1  0  0  0  0
M  END
>  <CHROM.1>
-106.28719083,-86.95229924,-58.20700057,-75.32337889,-69.96662683,50.43640911
17.69804189,-4.48529493,-11.47336486,19.39841996,-1.76089874,-0.82513023
-2.65538435

>  <Name>
ligand

>  <RI>
0

>  <Rbt.Current_Directory>
/home/itssahil/PROJECTS/Mol_Feturizer/Test_systems_manuscript/rnas/4kqy

>  <Rbt.Executable>
rbdock ($Id: //depot/dev/client3/rdock/2013.1/src/exe/rbdock.cxx#4 $)

>  <Rbt.Library>
libRbt.so (2013.1, Build901 2013/11/27)

>  <Rbt.Parameter_File>
/export/apps/rDock/src/rDock_2013.1_src/data/scripts/dock_solv.prm

>  <Rbt.Receptor>
prm/pocket_docking_2.prm

>  <SCORE>
-16.1254

>  <SCORE.INTER>
-15.1864

>  <SCORE.INTER.CONST>
1

>  <SCORE.INTER.POLAR>
0

>  <SCORE.INTER.ROT>
7

>  <SCORE.INTER.SOLV>
13.3918

>  <SCORE.INTER.VDW>
-22.8549

>  <SCORE.INTER.norm>
-0.562459

>  <SCORE.INTRA>
-1.7185

>  <SCORE.INTRA.DIHEDRAL>
-3.85854

>  <SCORE.INTRA.DIHEDRAL.0>
10.4103

>  <SCORE.INTRA.POLAR>
0

>  <SCORE.INTRA.POLAR.0>
0

>  <SCORE.INTRA.REPUL>
0

>  <SCORE.INTRA.REPUL.0>
0

>  <SCORE.INTRA.SOLV>
0.628076

>  <SCORE.INTRA.SOLV.lig_0>
-49.5008

>  <SCORE.INTRA.VDW>
-0.103271

>  <SCORE.INTRA.VDW.0>
-2.6946

>  <SCORE.INTRA.norm>
-0.0636482

>  <SCORE.RESTR>
0.779466

>  <SCORE.RESTR.CAVITY>
0.779466

>  <SCORE.RESTR.norm>
0.0288691

>  <SCORE.SYSTEM>
0

>  <SCORE.SYSTEM.CONST>
0

>  <SCORE.SYSTEM.DIHEDRAL>
0

>  <SCORE.SYSTEM.SOLV>
0

>  <SCORE.SYSTEM.norm>
0

>  <SCORE.heavy>
27

>  <SCORE.norm>
-0.597238

>  <RMSD>
5.681

$$$$
ligand
 OpenBabel02271912153D
libRbt.so/2013.1/901 2013/11/27
 27 29  0  0  0  0  0  0  0  0999 V2000
   -1.1135   -9.7122   13.4676 N   0  0  0  0  0  0  0  0  0  0  0  0
   -1.2693   -9.3235   14.8565 C   0  0  2  0  0  0  0  0  0  0  0  0
   -1.1654  -10.5690   15.6818 C   0  0  0  0  0  0  0  0  0  0  0  0
   -1.8844  -11.5510   15.3973 O   0  0  0  0  0  0  0  0  0  0  0  0
   -2.6281   -8.6529   15.0753 C   0  0  0  0  0  0  0  0  0  0  0  0
   -2.8214   -8.2351   16.5500 C   0  0  0  0  0  0  0  0  0  0  0  0
   -4.4044   -7.9276   17.0134 S   0  0  2  0  0  0  0  0  0  0  0  0
   -4.4760   -7.7797   18.6662 C   0  0  0  0  0  0  0  0  0  0  0  0
   -5.4069   -9.1771   16.4818 C   0  0  0  0  0  0  0  0  0  0  0  0
   -4.8630  -10.5901   16.7805 C   0  0  1  0  0  0  0  0  0  0  0  0
   -5.1767  -11.0490   18.1060 O   0  0  0  0  0  0  0  0  0  0  0  0
   -5.4831  -11.6757   15.9158 C   0  0  1  0  0  0  0  0  0  0  0  0
   -5.0493  -11.7589   14.5434 O   0  0  0  0  0  0  0  0  0  0  0  0
   -5.1563  -12.9002   16.7344 C   0  0  1  0  0  0  0  0  0  0  0  0
   -3.7646  -13.1903   16.6462 O   0  0  0  0  0  0  0  0  0  0  0  0
   -5.4711  -12.4477   18.1295 C   0  0  2  0  0  0  0  0  0  0  0  0
   -0.3376  -10.6161   16.6229 O   0  0  0  0  0  0  0  0  0  0  0  0
   -9.0080  -15.5219   20.6426 N   0  0  0  0  0  0  0  0  0  0  0  0
   -7.6616  -15.6563   20.5668 C   0  0  0  0  0  0  0  0  0  0  0  0
   -6.8826  -14.8008   19.8836 N   0  0  0  0  0  0  0  0  0  0  0  0
   -7.3890  -13.7396   19.2458 C   0  0  0  0  0  0  0  0  0  0  0  0
   -8.8273  -13.5280   19.3088 C   0  0  0  0  0  0  0  0  0  0  0  0
   -9.6804  -14.4862   20.0493 C   0  0  0  0  0  0  0  0  0  0  0  0
  -11.0492  -14.3410   20.1396 N   0  0  0  0  0  0  0  0  0  0  0  0
   -9.0567  -12.4305   18.6242 N   0  0  0  0  0  0  0  0  0  0  0  0
   -7.8954  -11.9711   18.1381 C   0  0  0  0  0  0  0  0  0  0  0  0
   -6.8835  -12.7526   18.5132 N   0  0  0  0  0  0  0  0  0  0  0  0
  2  1  1  6  0  0  0
  2  3  1  0  0  0  0
  2  5  1  0  0  0  0
  3  4  1  0  0  0  0
  3 17  1  0  0  0  0
  5  6  1  0  0  0  0
  7  6  1  1  0  0  0
  7  8  1  0  0  0  0
  7  9  1  0  0  0  0
 10  9  1  6  0  0  0
 10 11  1  0  0  0  0
 10 12  1  0  0  0  0
 11 16  1  0  0  0  0
 12 13  1  6  0  0  0
 12 14  1  0  0  0  0
 14 15  1  1  0  0  0
 14 16  1  0  0  0  0
 16 27  1  6  0  0  0
 18 19  2  0  0  0  0
 18 23  1  0  0  0  0
 19 20  1  0  0  0  0
 20 21  2  0  0  0  0
 21 22  1  0  0  0  0
 21 27  1  0  0  0  0
 22 23  2  0  0  0  0
 22 25  1  0  0  0  0
 23 24  1  0  0  0  0
 25 26  2  0  0  0  0
 26 27  1  0  0  0  0
M  END
>  <CHROM.1>
-52.11131468,179.72896155,-162.15901974,169.28476425,47.16150767,84.18584402
-142.85101140,-5.22026721,-11.48452472,17.39497862,-0.58691406,-0.53894693
3.09295875

>  <Name>
ligand

>  <RI>
0

>  <Rbt.Current_Directory>
/home/itssahil/PROJECTS/Mol_Feturizer/Test_systems_manuscript/rnas/4kqy

>  <Rbt.Executable>
rbdock ($Id: //depot/dev/client3/rdock/2013.1/src/exe/rbdock.cxx#4 $)

>  <Rbt.Library>
libRbt.so (2013.1, Build901 2013/11/27)

>  <Rbt.Parameter_File>
/export/apps/rDock/src/rDock_2013.1_src/data/scripts/dock_solv.prm

>  <Rbt.Receptor>
prm/pocket_docking_8.prm

>  <SCORE>
-12.5993

>  <SCORE.INTER>
-9.88974

>  <SCORE.INTER.CONST>
1

>  <SCORE.INTER.POLAR>
0

>  <SCORE.INTER.ROT>
7

>  <SCORE.INTER.SOLV>
10.9469

>  <SCORE.INTER.VDW>
-18.5088

>  <SCORE.INTER.norm>
-0.366287

>  <SCORE.INTRA>
-2.70959

>  <SCORE.INTRA.DIHEDRAL>
-3.71691

>  <SCORE.INTRA.DIHEDRAL.0>
10.4103

>  <SCORE.INTRA.POLAR>
0

>  <SCORE.INTRA.POLAR.0>
0

>  <SCORE.INTRA.REPUL>
0

>  <SCORE.INTRA.REPUL.0>
0

>  <SCORE.INTRA.SOLV>
-0.264846

>  <SCORE.INTRA.SOLV.lig_0>
-49.5008

>  <SCORE.INTRA.VDW>
-0.718715

>  <SCORE.INTRA.VDW.0>
-2.6946

>  <SCORE.INTRA.norm>
-0.100355

>  <SCORE.RESTR>
0

>  <SCORE.RESTR.CAVITY>
0

>  <SCORE.RESTR.norm>
0

>  <SCORE.SYSTEM>
0

>  <SCORE.SYSTEM.CONST>
0

>  <SCORE.SYSTEM.DIHEDRAL>
0

>  <SCORE.SYSTEM.SOLV>
0

>  <SCORE.SYSTEM.norm>
0

>  <SCORE.heavy>
27

>  <SCORE.norm>
-0.466642

>  <RMSD>
5.690

$$$$
ligand
 OpenBabel02271912153D
libRbt.so/2013.1/901 2013/11/27
 27 29  0  0  0  0  0  0  0  0999 V2000
   -7.8172  -13.5534   19.9372 N   0  0  0  0  0  0  0  0  0  0  0  0
   -8.1207  -12.1349   19.9465 C   0  0  2  0  0  0  0  0  0  0  0  0
   -8.2015  -11.6874   18.5195 C   0  0  0  0  0  0  0  0  0  0  0  0
   -8.9532  -10.7345   18.2208 O   0  0  0  0  0  0  0  0  0  0  0  0
   -7.0275  -11.3586   20.6858 C   0  0  0  0  0  0  0  0  0  0  0  0
   -5.6568  -11.5111   19.9899 C   0  0  0  0  0  0  0  0  0  0  0  0
   -4.3479  -11.7456   21.0132 S   0  0  2  0  0  0  0  0  0  0  0  0
   -4.4916  -13.2209   21.7626 C   0  0  0  0  0  0  0  0  0  0  0  0
   -4.2843  -10.5012   22.1517 C   0  0  0  0  0  0  0  0  0  0  0  0
   -3.9068   -9.1266   21.5605 C   0  0  1  0  0  0  0  0  0  0  0  0
   -2.7131   -9.1628   20.7607 O   0  0  0  0  0  0  0  0  0  0  0  0
   -4.9305   -8.5866   20.5750 C   0  0  1  0  0  0  0  0  0  0  0  0
   -6.1576   -8.0577   21.1166 O   0  0  0  0  0  0  0  0  0  0  0  0
   -4.0962   -7.5646   19.8431 C   0  0  1  0  0  0  0  0  0  0  0  0
   -3.8513   -6.4408   20.6834 O   0  0  0  0  0  0  0  0  0  0  0  0
   -2.8064   -8.2990   19.6254 C   0  0  2  0  0  0  0  0  0  0  0  0
   -7.4909  -12.2549   17.6557 O   0  0  0  0  0  0  0  0  0  0  0  0
   -5.3916  -10.6888   15.6402 N   0  0  0  0  0  0  0  0  0  0  0  0
   -5.8948  -10.0959   16.7502 C   0  0  0  0  0  0  0  0  0  0  0  0
   -5.1170   -9.5315   17.6892 N   0  0  0  0  0  0  0  0  0  0  0  0
   -3.7844   -9.4998   17.5773 C   0  0  0  0  0  0  0  0  0  0  0  0
   -3.1847  -10.1008   16.3955 C   0  0  0  0  0  0  0  0  0  0  0  0
   -4.0486  -10.7366   15.3740 C   0  0  0  0  0  0  0  0  0  0  0  0
   -3.5377  -11.3265   14.2366 N   0  0  0  0  0  0  0  0  0  0  0  0
   -1.8891   -9.9249   16.5243 N   0  0  0  0  0  0  0  0  0  0  0  0
   -1.6497   -9.2921   17.6811 C   0  0  0  0  0  0  0  0  0  0  0  0
   -2.7887   -9.0274   18.3199 N   0  0  0  0  0  0  0  0  0  0  0  0
  2  1  1  6  0  0  0
  2  3  1  0  0  0  0
  2  5  1  0  0  0  0
  3  4  1  0  0  0  0
  3 17  1  0  0  0  0
  5  6  1  0  0  0  0
  7  6  1  6  0  0  0
  7  8  1  0  0  0  0
  7  9  1  0  0  0  0
 10  9  1  6  0  0  0
 10 11  1  0  0  0  0
 10 12  1  0  0  0  0
 11 16  1  0  0  0  0
 12 13  1  1  0  0  0
 12 14  1  0  0  0  0
 14 15  1  1  0  0  0
 14 16  1  0  0  0  0
 16 27  1  6  0  0  0
 18 19  2  0  0  0  0
 18 23  1  0  0  0  0
 19 20  1  0  0  0  0
 20 21  2  0  0  0  0
 21 22  1  0  0  0  0
 21 27  1  0  0  0  0
 22 23  2  0  0  0  0
 22 25  1  0  0  0  0
 23 24  1  0  0  0  0
 25 26  2  0  0  0  0
 26 27  1  0  0  0  0
M  END
>  <CHROM.1>
150.40482273,61.72684018,-137.87519036,66.79109045,-69.22174965,-51.44549136
91.49217451,-4.90668028,-10.29710327,19.06230287,2.90764951,0.65360257,1.39122079

>  <Name>
ligand

>  <RI>
0

>  <Rbt.Current_Directory>
/home/itssahil/PROJECTS/Mol_Feturizer/Test_systems_manuscript/rnas/4kqy

>  <Rbt.Executable>
rbdock ($Id: //depot/dev/client3/rdock/2013.1/src/exe/rbdock.cxx#4 $)

>  <Rbt.Library>
libRbt.so (2013.1, Build901 2013/11/27)

>  <Rbt.Parameter_File>
/export/apps/rDock/src/rDock_2013.1_src/data/scripts/dock_solv.prm

>  <Rbt.Receptor>
prm/pocket_docking_5.prm

>  <SCORE>
-12.5482

>  <SCORE.INTER>
-10.8938

>  <SCORE.INTER.CONST>
1

>  <SCORE.INTER.POLAR>
0

>  <SCORE.INTER.ROT>
7

>  <SCORE.INTER.SOLV>
10.3706

>  <SCORE.INTER.VDW>
-18.986

>  <SCORE.INTER.norm>
-0.403473

>  <SCORE.INTRA>
-1.65442

>  <SCORE.INTRA.DIHEDRAL>
-2.64841

>  <SCORE.INTRA.DIHEDRAL.0>
10.4103

>  <SCORE.INTRA.POLAR>
0

>  <SCORE.INTRA.POLAR.0>
0

>  <SCORE.INTRA.REPUL>
0

>  <SCORE.INTRA.REPUL.0>
0

>  <SCORE.INTRA.SOLV>
1.63802

>  <SCORE.INTRA.SOLV.lig_0>
-49.5008

>  <SCORE.INTRA.VDW>
-1.14922

>  <SCORE.INTRA.VDW.0>
-2.6946

>  <SCORE.INTRA.norm>
-0.0612747

>  <SCORE.RESTR>
0

>  <SCORE.RESTR.CAVITY>
0

>  <SCORE.RESTR.norm>
0

>  <SCORE.SYSTEM>
0

>  <SCORE.SYSTEM.CONST>
0

>  <SCORE.SYSTEM.DIHEDRAL>
0

>  <SCORE.SYSTEM.SOLV>
0

>  <SCORE.SYSTEM.norm>
0

>  <SCORE.heavy>
27

>  <SCORE.norm>
-0.464748

>  <RMSD>
5.691

$$$$
ligand
 OpenBabel02271912153D
libRbt.so/2013.1/901 2013/11/27
 27 29  0  0  0  0  0  0  0  0999 V2000
   -8.6034  -12.5094   19.1282 N   0  0  0  0  0  0  0  0  0  0  0  0
   -8.1084  -11.1460   19.1412 C   0  0  2  0  0  0  0  0  0  0  0  0
   -8.4108  -10.5497   17.8010 C   0  0  0  0  0  0  0  0  0  0  0  0
   -9.6019  -10.4273   17.4426 O   0  0  0  0  0  0  0  0  0  0  0  0
   -6.6000  -11.1268   19.4032 C   0  0  0  0  0  0  0  0  0  0  0  0
   -6.2568  -11.7460   20.7762 C   0  0  0  0  0  0  0  0  0  0  0  0
   -4.6206  -11.8602   21.1298 S   0  0  2  0  0  0  0  0  0  0  0  0
   -4.2781  -13.3949   21.6648 C   0  0  0  0  0  0  0  0  0  0  0  0
   -4.2086  -10.7145   22.2986 C   0  0  0  0  0  0  0  0  0  0  0  0
   -3.9269   -9.3081   21.7290 C   0  0  1  0  0  0  0  0  0  0  0  0
   -2.6224   -9.1876   21.1378 O   0  0  0  0  0  0  0  0  0  0  0  0
   -4.8347   -8.9283   20.5703 C   0  0  1  0  0  0  0  0  0  0  0  0
   -6.1953   -8.5689   20.8841 O   0  0  0  0  0  0  0  0  0  0  0  0
   -4.0357   -7.8092   19.9495 C   0  0  1  0  0  0  0  0  0  0  0  0
   -4.0893   -6.6519   20.7782 O   0  0  0  0  0  0  0  0  0  0  0  0
   -2.6403   -8.3594   19.9727 C   0  0  2  0  0  0  0  0  0  0  0  0
   -7.4664  -10.1551   17.0759 O   0  0  0  0  0  0  0  0  0  0  0  0
   -1.9603  -12.9300   17.3414 N   0  0  0  0  0  0  0  0  0  0  0  0
   -2.3119  -12.7341   18.6355 C   0  0  0  0  0  0  0  0  0  0  0  0
   -2.4415  -11.5112   19.1768 N   0  0  0  0  0  0  0  0  0  0  0  0
   -2.2505  -10.3977   18.4605 C   0  0  0  0  0  0  0  0  0  0  0  0
   -1.8926  -10.5421   17.0575 C   0  0  0  0  0  0  0  0  0  0  0  0
   -1.7343  -11.8943   16.4737 C   0  0  0  0  0  0  0  0  0  0  0  0
   -1.3916  -12.0939   15.1525 N   0  0  0  0  0  0  0  0  0  0  0  0
   -1.7790   -9.3194   16.5906 N   0  0  0  0  0  0  0  0  0  0  0  0
   -2.0153   -8.4515   17.5841 C   0  0  0  0  0  0  0  0  0  0  0  0
   -2.3058   -9.0944   18.7145 N   0  0  0  0  0  0  0  0  0  0  0  0
  2  1  1  6  0  0  0
  2  3  1  0  0  0  0
  2  5  1  0  0  0  0
  3  4  1  0  0  0  0
  3 17  1  0  0  0  0
  5  6  1  0  0  0  0
  7  6  1  1  0  0  0
  7  8  1  0  0  0  0
  7  9  1  0  0  0  0
 10  9  1  6  0  0  0
 10 11  1  0  0  0  0
 10 12  1  0  0  0  0
 11 16  1  0  0  0  0
 12 13  1  1  0  0  0
 12 14  1  0  0  0  0
 14 15  1  1  0  0  0
 14 16  1  0  0  0  0
 16 27  1  6  0  0  0
 18 19  2  0  0  0  0
 18 23  1  0  0  0  0
 19 20  1  0  0  0  0
 20 21  2  0  0  0  0
 21 22  1  0  0  0  0
 21 27  1  0  0  0  0
 22 23  2  0  0  0  0
 22 25  1  0  0  0  0
 23 24  1  0  0  0  0
 25 26  2  0  0  0  0
 26 27  1  0  0  0  0
M  END
>  <CHROM.1>
62.80560700,-61.13473755,176.51772274,-131.08876052,-83.35464482,-78.52826672
14.64766190,-4.40712194,-10.46694481,19.25251883,2.95727501,0.18243580,1.00322051

>  <Name>
ligand

>  <RI>
0

>  <Rbt.Current_Directory>
/home/itssahil/PROJECTS/Mol_Feturizer/Test_systems_manuscript/rnas/4kqy

>  <Rbt.Executable>
rbdock ($Id: //depot/dev/client3/rdock/2013.1/src/exe/rbdock.cxx#4 $)

>  <Rbt.Library>
libRbt.so (2013.1, Build901 2013/11/27)

>  <Rbt.Parameter_File>
/export/apps/rDock/src/rDock_2013.1_src/data/scripts/dock_solv.prm

>  <Rbt.Receptor>
prm/pocket_docking_6.prm

>  <SCORE>
-14.983

>  <SCORE.INTER>
-15.3747

>  <SCORE.INTER.CONST>
1

>  <SCORE.INTER.POLAR>
0

>  <SCORE.INTER.ROT>
7

>  <SCORE.INTER.SOLV>
8.74822

>  <SCORE.INTER.VDW>
-21.4326

>  <SCORE.INTER.norm>
-0.569434

>  <SCORE.INTRA>
0.391777

>  <SCORE.INTRA.DIHEDRAL>
-0.601796

>  <SCORE.INTRA.DIHEDRAL.0>
10.4103

>  <SCORE.INTRA.POLAR>
0

>  <SCORE.INTRA.POLAR.0>
0

>  <SCORE.INTRA.REPUL>
0

>  <SCORE.INTRA.REPUL.0>
0

>  <SCORE.INTRA.SOLV>
0.945387

>  <SCORE.INTRA.SOLV.lig_0>
-49.5008

>  <SCORE.INTRA.VDW>
0.219981

>  <SCORE.INTRA.VDW.0>
-2.6946

>  <SCORE.INTRA.norm>
0.0145103

>  <SCORE.RESTR>
0

>  <SCORE.RESTR.CAVITY>
0

>  <SCORE.RESTR.norm>
0

>  <SCORE.SYSTEM>
0

>  <SCORE.SYSTEM.CONST>
0

>  <SCORE.SYSTEM.DIHEDRAL>
0

>  <SCORE.SYSTEM.SOLV>
0

>  <SCORE.SYSTEM.norm>
0

>  <SCORE.heavy>
27

>  <SCORE.norm>
-0.554924

>  <RMSD>
5.715

$$$$
ligand
 OpenBabel02271912153D
libRbt.so/2013.1/901 2013/11/27
 27 29  0  0  0  0  0  0  0  0999 V2000
   -0.2964  -12.3053   14.8377 N   0  0  0  0  0  0  0  0  0  0  0  0
   -1.4259  -12.1624   15.7367 C   0  0  2  0  0  0  0  0  0  0  0  0
   -1.8325  -10.7211   15.7153 C   0  0  0  0  0  0  0  0  0  0  0  0
   -3.0379  -10.4297   15.5589 O   0  0  0  0  0  0  0  0  0  0  0  0
   -1.0367  -12.5837   17.1562 C   0  0  0  0  0  0  0  0  0  0  0  0
   -2.2384  -12.4920   18.1227 C   0  0  0  0  0  0  0  0  0  0  0  0
   -3.4438  -13.6356   17.8890 S   0  0  2  0  0  0  0  0  0  0  0  0
   -4.3180  -13.2455   16.5317 C   0  0  0  0  0  0  0  0  0  0  0  0
   -4.4442  -13.6949   19.2470 C   0  0  0  0  0  0  0  0  0  0  0  0
   -5.3047  -12.4298   19.4500 C   0  0  1  0  0  0  0  0  0  0  0  0
   -6.4624  -12.3900   18.5991 O   0  0  0  0  0  0  0  0  0  0  0  0
   -5.9266  -12.3331   20.8337 C   0  0  1  0  0  0  0  0  0  0  0  0
   -5.0605  -11.9639   21.9257 O   0  0  0  0  0  0  0  0  0  0  0  0
   -7.0326  -11.3414   20.5700 C   0  0  1  0  0  0  0  0  0  0  0  0
   -6.4872  -10.0388   20.3830 O   0  0  0  0  0  0  0  0  0  0  0  0
   -7.5939  -11.8252   19.2658 C   0  0  2  0  0  0  0  0  0  0  0  0
   -0.9625   -9.8339   15.8861 O   0  0  0  0  0  0  0  0  0  0  0  0
  -11.7958  -14.4678   17.3589 N   0  0  0  0  0  0  0  0  0  0  0  0
  -10.9835  -13.5860   16.7272 C   0  0  0  0  0  0  0  0  0  0  0  0
   -9.9519  -12.9803   17.3390 N   0  0  0  0  0  0  0  0  0  0  0  0
   -9.6450  -13.2274   18.6174 C   0  0  0  0  0  0  0  0  0  0  0  0
  -10.4672  -14.1831   19.3440 C   0  0  0  0  0  0  0  0  0  0  0  0
  -11.6134  -14.8325   18.6667 C   0  0  0  0  0  0  0  0  0  0  0  0
  -12.4311  -15.7419   19.3049 N   0  0  0  0  0  0  0  0  0  0  0  0
   -9.9527  -14.2514   20.5509 N   0  0  0  0  0  0  0  0  0  0  0  0
   -8.9101  -13.4128   20.6266 C   0  0  0  0  0  0  0  0  0  0  0  0
   -8.7146  -12.7950   19.4622 N   0  0  0  0  0  0  0  0  0  0  0  0
  2  1  1  6  0  0  0
  2  3  1  0  0  0  0
  2  5  1  0  0  0  0
  3  4  1  0  0  0  0
  3 17  1  0  0  0  0
  5  6  1  0  0  0  0
  7  6  1  1  0  0  0
  7  8  1  0  0  0  0
  7  9  1  0  0  0  0
 10  9  1  1  0  0  0
 10 11  1  0  0  0  0
 10 12  1  0  0  0  0
 11 16  1  0  0  0  0
 12 13  1  1  0  0  0
 12 14  1  0  0  0  0
 14 15  1  6  0  0  0
 14 16  1  0  0  0  0
 16 27  1  1  0  0  0
 18 19  2  0  0  0  0
 18 23  1  0  0  0  0
 19 20  1  0  0  0  0
 20 21  2  0  0  0  0
 21 22  1  0  0  0  0
 21 27  1  0  0  0  0
 22 23  2  0  0  0  0
 22 25  1  0  0  0  0
 23 24  1  0  0  0  0
 25 26  2  0  0  0  0
 26 27  1  0  0  0  0
M  END
>  <CHROM.1>
131.40542083,-177.82548855,70.37643154,-74.25347725,68.56632330,78.98754559
-79.16597151,-6.08986829,-12.68913533,18.32780648,0.21429251,-0.29822495
-1.78606284

>  <Name>
ligand

>  <RI>
0

>  <Rbt.Current_Directory>
/home/itssahil/PROJECTS/Mol_Feturizer/Test_systems_manuscript/rnas/4kqy

>  <Rbt.Executable>
rbdock ($Id: //depot/dev/client3/rdock/2013.1/src/exe/rbdock.cxx#4 $)

>  <Rbt.Library>
libRbt.so (2013.1, Build901 2013/11/27)

>  <Rbt.Parameter_File>
/export/apps/rDock/src/rDock_2013.1_src/data/scripts/dock_solv.prm

>  <Rbt.Receptor>
prm/pocket_docking_8.prm

>  <SCORE>
-11.9886

>  <SCORE.INTER>
-10.4049

>  <SCORE.INTER.CONST>
1

>  <SCORE.INTER.POLAR>
0

>  <SCORE.INTER.ROT>
7

>  <SCORE.INTER.SOLV>
7.97459

>  <SCORE.INTER.VDW>
-17.8614

>  <SCORE.INTER.norm>
-0.385366

>  <SCORE.INTRA>
-1.58368

>  <SCORE.INTRA.DIHEDRAL>
-5.2342

>  <SCORE.INTRA.DIHEDRAL.0>
10.4103

>  <SCORE.INTRA.POLAR>
0

>  <SCORE.INTRA.POLAR.0>
0

>  <SCORE.INTRA.REPUL>
0

>  <SCORE.INTRA.REPUL.0>
0

>  <SCORE.INTRA.SOLV>
-0.283209

>  <SCORE.INTRA.SOLV.lig_0>
-49.5008

>  <SCORE.INTRA.VDW>
1.17503

>  <SCORE.INTRA.VDW.0>
-2.6946

>  <SCORE.INTRA.norm>
-0.0586548

>  <SCORE.RESTR>
0

>  <SCORE.RESTR.CAVITY>
0

>  <SCORE.RESTR.norm>
0

>  <SCORE.SYSTEM>
0

>  <SCORE.SYSTEM.CONST>
0

>  <SCORE.SYSTEM.DIHEDRAL>
0

>  <SCORE.SYSTEM.SOLV>
0

>  <SCORE.SYSTEM.norm>
0

>  <SCORE.heavy>
27

>  <SCORE.norm>
-0.444021

>  <RMSD>
5.722

$$$$
ligand
 OpenBabel02271912153D
libRbt.so/2013.1/901 2013/11/27
 27 29  0  0  0  0  0  0  0  0999 V2000
   -3.8840   -8.9613   20.4229 N   0  0  0  0  0  0  0  0  0  0  0  0
   -4.9655   -9.9084   20.2288 C   0  0  2  0  0  0  0  0  0  0  0  0
   -6.2320   -9.2312   20.6535 C   0  0  0  0  0  0  0  0  0  0  0  0
   -7.2825   -9.9027   20.7423 O   0  0  0  0  0  0  0  0  0  0  0  0
   -4.7301  -11.1685   21.0660 C   0  0  0  0  0  0  0  0  0  0  0  0
   -3.6413  -12.0680   20.4400 C   0  0  0  0  0  0  0  0  0  0  0  0
   -3.9933  -12.6764   18.9164 S   0  0  2  0  0  0  0  0  0  0  0  0
   -5.1297  -13.8801   19.0528 C   0  0  0  0  0  0  0  0  0  0  0  0
   -2.5839  -13.2644   18.1978 C   0  0  0  0  0  0  0  0  0  0  0  0
   -2.5712  -13.1578   16.6583 C   0  0  1  0  0  0  0  0  0  0  0  0
   -3.7484  -13.7071   16.0430 O   0  0  0  0  0  0  0  0  0  0  0  0
   -2.5873  -11.7261   16.1477 C   0  0  1  0  0  0  0  0  0  0  0  0
   -1.3618  -10.9730   16.2466 O   0  0  0  0  0  0  0  0  0  0  0  0
   -3.0568  -11.9441   14.7306 C   0  0  1  0  0  0  0  0  0  0  0  0
   -2.0184  -12.5379   13.9572 O   0  0  0  0  0  0  0  0  0  0  0  0
   -4.1622  -12.9425   14.9082 C   0  0  2  0  0  0  0  0  0  0  0  0
   -6.2101   -8.0110   20.9427 O   0  0  0  0  0  0  0  0  0  0  0  0
   -7.0767   -8.8125   16.5589 N   0  0  0  0  0  0  0  0  0  0  0  0
   -5.7330   -8.9824   16.6065 C   0  0  0  0  0  0  0  0  0  0  0  0
   -5.1238  -10.0917   16.1552 N   0  0  0  0  0  0  0  0  0  0  0  0
   -5.8094  -11.1002   15.6055 C   0  0  0  0  0  0  0  0  0  0  0  0
   -7.2550  -10.9677   15.5053 C   0  0  0  0  0  0  0  0  0  0  0  0
   -7.9200   -9.7490   16.0217 C   0  0  0  0  0  0  0  0  0  0  0  0
   -9.2862   -9.5691   15.9593 N   0  0  0  0  0  0  0  0  0  0  0  0
   -7.6749  -12.0697   14.9262 N   0  0  0  0  0  0  0  0  0  0  0  0
   -6.6215  -12.8624   14.6855 C   0  0  0  0  0  0  0  0  0  0  0  0
   -5.4914  -12.2822   15.0877 N   0  0  0  0  0  0  0  0  0  0  0  0
  2  1  1  1  0  0  0
  2  3  1  0  0  0  0
  2  5  1  0  0  0  0
  3  4  1  0  0  0  0
  3 17  1  0  0  0  0
  5  6  1  0  0  0  0
  7  6  1  1  0  0  0
  7  8  1  0  0  0  0
  7  9  1  0  0  0  0
 10  9  1  1  0  0  0
 10 11  1  0  0  0  0
 10 12  1  0  0  0  0
 11 16  1  0  0  0  0
 12 13  1  6  0  0  0
 12 14  1  0  0  0  0
 14 15  1  6  0  0  0
 14 16  1  0  0  0  0
 16 27  1  1  0  0  0
 18 19  2  0  0  0  0
 18 23  1  0  0  0  0
 19 20  1  0  0  0  0
 20 21  2  0  0  0  0
 21 22  1  0  0  0  0
 21 27  1  0  0  0  0
 22 23  2  0  0  0  0
 22 25  1  0  0  0  0
 23 24  1  0  0  0  0
 25 26  2  0  0  0  0
 26 27  1  0  0  0  0
M  END
>  <CHROM.1>
-170.83269675,-75.45296822,-62.46583309,-73.85990232,-149.60613876,-50.92843548
88.01271988,-4.94293469,-11.28904450,17.39818375,-2.05397480,0.54104160,-1.86421396

>  <Name>
ligand

>  <RI>
0

>  <Rbt.Current_Directory>
/home/itssahil/PROJECTS/Mol_Feturizer/Test_systems_manuscript/rnas/4kqy

>  <Rbt.Executable>
rbdock ($Id: //depot/dev/client3/rdock/2013.1/src/exe/rbdock.cxx#4 $)

>  <Rbt.Library>
libRbt.so (2013.1, Build901 2013/11/27)

>  <Rbt.Parameter_File>
/export/apps/rDock/src/rDock_2013.1_src/data/scripts/dock_solv.prm

>  <Rbt.Receptor>
prm/pocket_docking_6.prm

>  <SCORE>
-10.2698

>  <SCORE.INTER>
-7.64261

>  <SCORE.INTER.CONST>
1

>  <SCORE.INTER.POLAR>
0

>  <SCORE.INTER.ROT>
7

>  <SCORE.INTER.SOLV>
7.47488

>  <SCORE.INTER.VDW>
-15.8534

>  <SCORE.INTER.norm>
-0.28306

>  <SCORE.INTRA>
-2.6272

>  <SCORE.INTRA.DIHEDRAL>
-3.36119

>  <SCORE.INTRA.DIHEDRAL.0>
10.4103

>  <SCORE.INTRA.POLAR>
0

>  <SCORE.INTRA.POLAR.0>
0

>  <SCORE.INTRA.REPUL>
0

>  <SCORE.INTRA.REPUL.0>
0

>  <SCORE.INTRA.SOLV>
0.66393

>  <SCORE.INTRA.SOLV.lig_0>
-49.5008

>  <SCORE.INTRA.VDW>
-1.27857

>  <SCORE.INTRA.VDW.0>
-2.6946

>  <SCORE.INTRA.norm>
-0.0973037

>  <SCORE.RESTR>
0

>  <SCORE.RESTR.CAVITY>
0

>  <SCORE.RESTR.norm>
0

>  <SCORE.SYSTEM>
0

>  <SCORE.SYSTEM.CONST>
0

>  <SCORE.SYSTEM.DIHEDRAL>
0

>  <SCORE.SYSTEM.SOLV>
0

>  <SCORE.SYSTEM.norm>
0

>  <SCORE.heavy>
27

>  <SCORE.norm>
-0.380363

>  <RMSD>
5.733

$$$$
ligand
 OpenBabel02271912153D
libRbt.so/2013.1/901 2013/11/27
 27 29  0  0  0  0  0  0  0  0999 V2000
    0.3193  -12.2140   15.7927 N   0  0  0  0  0  0  0  0  0  0  0  0
   -1.0017  -12.2130   16.3920 C   0  0  2  0  0  0  0  0  0  0  0  0
   -1.9861  -11.9293   15.2995 C   0  0  0  0  0  0  0  0  0  0  0  0
   -1.8090  -10.9361   14.5617 O   0  0  0  0  0  0  0  0  0  0  0  0
   -1.0941  -11.1417   17.4819 C   0  0  0  0  0  0  0  0  0  0  0  0
   -2.4505  -11.2006   18.2189 C   0  0  0  0  0  0  0  0  0  0  0  0
   -2.7127  -12.5762   19.1431 S   0  0  2  0  0  0  0  0  0  0  0  0
   -3.1495  -13.8330   18.1490 C   0  0  0  0  0  0  0  0  0  0  0  0
   -3.9163  -12.2735   20.2870 C   0  0  0  0  0  0  0  0  0  0  0  0
   -5.3294  -12.1169   19.6867 C   0  0  1  0  0  0  0  0  0  0  0  0
   -5.9488  -13.3726   19.3617 O   0  0  0  0  0  0  0  0  0  0  0  0
   -6.3356  -11.5089   20.6504 C   0  0  1  0  0  0  0  0  0  0  0  0
   -6.2437  -10.0915   20.8981 O   0  0  0  0  0  0  0  0  0  0  0  0
   -7.6298  -11.9323   20.0010 C   0  0  1  0  0  0  0  0  0  0  0  0
   -7.8479  -11.1817   18.8101 O   0  0  0  0  0  0  0  0  0  0  0  0
   -7.3525  -13.3596   19.6320 C   0  0  2  0  0  0  0  0  0  0  0  0
   -2.9523  -12.7097   15.1241 O   0  0  0  0  0  0  0  0  0  0  0  0
   -6.2350  -16.0128   24.1028 N   0  0  0  0  0  0  0  0  0  0  0  0
   -5.4537  -15.1572   23.3999 C   0  0  0  0  0  0  0  0  0  0  0  0
   -5.8656  -14.5566   22.2708 N   0  0  0  0  0  0  0  0  0  0  0  0
   -7.0928  -14.7503   21.7749 C   0  0  0  0  0  0  0  0  0  0  0  0
   -7.9877  -15.6416   22.4975 C   0  0  0  0  0  0  0  0  0  0  0  0
   -7.5190  -16.3134   23.7316 C   0  0  0  0  0  0  0  0  0  0  0  0
   -8.3194  -17.1723   24.4557 N   0  0  0  0  0  0  0  0  0  0  0  0
   -9.1123  -15.6455   21.8182 N   0  0  0  0  0  0  0  0  0  0  0  0
   -8.9736  -14.8563   20.7440 C   0  0  0  0  0  0  0  0  0  0  0  0
   -7.7594  -14.3081   20.7135 N   0  0  0  0  0  0  0  0  0  0  0  0
  2  1  1  6  0  0  0
  2  3  1  0  0  0  0
  2  5  1  0  0  0  0
  3  4  1  0  0  0  0
  3 17  1  0  0  0  0
  5  6  1  0  0  0  0
  7  6  1  6  0  0  0
  7  8  1  0  0  0  0
  7  9  1  0  0  0  0
 10  9  1  1  0  0  0
 10 11  1  0  0  0  0
 10 12  1  0  0  0  0
 11 16  1  0  0  0  0
 12 13  1  6  0  0  0
 12 14  1  0  0  0  0
 14 15  1  6  0  0  0
 14 16  1  0  0  0  0
 16 27  1  1  0  0  0
 18 19  2  0  0  0  0
 18 23  1  0  0  0  0
 19 20  1  0  0  0  0
 20 21  2  0  0  0  0
 21 22  1  0  0  0  0
 21 27  1  0  0  0  0
 22 23  2  0  0  0  0
 22 25  1  0  0  0  0
 23 24  1  0  0  0  0
 25 26  2  0  0  0  0
 26 27  1  0  0  0  0
M  END
>  <CHROM.1>
-51.61535309,-175.10987804,66.86215937,-78.55325339,70.14329802,78.79369380
29.63891836,-5.07769066,-13.19067921,19.68957769,-0.83694048,-0.28884832
2.32871720

>  <Name>
ligand

>  <RI>
0

>  <Rbt.Current_Directory>
/home/itssahil/PROJECTS/Mol_Feturizer/Test_systems_manuscript/rnas/4kqy

>  <Rbt.Executable>
rbdock ($Id: //depot/dev/client3/rdock/2013.1/src/exe/rbdock.cxx#4 $)

>  <Rbt.Library>
libRbt.so (2013.1, Build901 2013/11/27)

>  <Rbt.Parameter_File>
/export/apps/rDock/src/rDock_2013.1_src/data/scripts/dock_solv.prm

>  <Rbt.Receptor>
prm/pocket_docking_6.prm

>  <SCORE>
-18.467

>  <SCORE.INTER>
-15.6749

>  <SCORE.INTER.CONST>
1

>  <SCORE.INTER.POLAR>
0

>  <SCORE.INTER.ROT>
7

>  <SCORE.INTER.SOLV>
10.7459

>  <SCORE.INTER.VDW>
-22.2986

>  <SCORE.INTER.norm>
-0.580553

>  <SCORE.INTRA>
-2.79207

>  <SCORE.INTRA.DIHEDRAL>
-4.83503

>  <SCORE.INTRA.DIHEDRAL.0>
10.4103

>  <SCORE.INTRA.POLAR>
0

>  <SCORE.INTRA.POLAR.0>
0

>  <SCORE.INTRA.REPUL>
0

>  <SCORE.INTRA.REPUL.0>
0

>  <SCORE.INTRA.SOLV>
-0.213242

>  <SCORE.INTRA.SOLV.lig_0>
-49.5008

>  <SCORE.INTRA.VDW>
-0.267939

>  <SCORE.INTRA.VDW.0>
-2.6946

>  <SCORE.INTRA.norm>
-0.10341

>  <SCORE.RESTR>
0

>  <SCORE.RESTR.CAVITY>
0

>  <SCORE.RESTR.norm>
0

>  <SCORE.SYSTEM>
0

>  <SCORE.SYSTEM.CONST>
0

>  <SCORE.SYSTEM.DIHEDRAL>
0

>  <SCORE.SYSTEM.SOLV>
0

>  <SCORE.SYSTEM.norm>
0

>  <SCORE.heavy>
27

>  <SCORE.norm>
-0.683963

>  <RMSD>
5.736

$$$$
ligand
 OpenBabel02271912153D
libRbt.so/2013.1/901 2013/11/27
 27 29  0  0  0  0  0  0  0  0999 V2000
   -8.8105   -9.6220   15.1510 N   0  0  0  0  0  0  0  0  0  0  0  0
   -8.0076  -10.4317   16.0476 C   0  0  2  0  0  0  0  0  0  0  0  0
   -7.8564  -11.7806   15.4146 C   0  0  0  0  0  0  0  0  0  0  0  0
   -8.8742  -12.3801   15.0061 O   0  0  0  0  0  0  0  0  0  0  0  0
   -8.6915  -10.5583   17.4115 C   0  0  0  0  0  0  0  0  0  0  0  0
   -7.8055  -11.3236   18.4194 C   0  0  0  0  0  0  0  0  0  0  0  0
   -6.3587  -10.5763   18.8240 S   0  0  2  0  0  0  0  0  0  0  0  0
   -5.0940  -11.5882   18.4563 C   0  0  0  0  0  0  0  0  0  0  0  0
   -6.3564  -10.1904   20.4671 C   0  0  0  0  0  0  0  0  0  0  0  0
   -5.1957   -9.2676   20.8948 C   0  0  1  0  0  0  0  0  0  0  0  0
   -3.8996   -9.8475   20.6715 O   0  0  0  0  0  0  0  0  0  0  0  0
   -5.1103   -7.9833   20.0861 C   0  0  1  0  0  0  0  0  0  0  0  0
   -6.0807   -6.9554   20.3696 O   0  0  0  0  0  0  0  0  0  0  0  0
   -3.6864   -7.5732   20.3698 C   0  0  1  0  0  0  0  0  0  0  0  0
   -3.5702   -7.1045   21.7099 O   0  0  0  0  0  0  0  0  0  0  0  0
   -2.9465   -8.8719   20.2432 C   0  0  2  0  0  0  0  0  0  0  0  0
   -6.7100  -12.2706   15.2771 O   0  0  0  0  0  0  0  0  0  0  0  0
   -1.0033  -12.1269   16.5142 N   0  0  0  0  0  0  0  0  0  0  0  0
   -1.3572  -12.4074   17.7920 C   0  0  0  0  0  0  0  0  0  0  0  0
   -1.8323  -11.4763   18.6362 N   0  0  0  0  0  0  0  0  0  0  0  0
   -2.0079  -10.2049   18.2593 C   0  0  0  0  0  0  0  0  0  0  0  0
   -1.6670   -9.8456   16.8911 C   0  0  0  0  0  0  0  0  0  0  0  0
   -1.1269  -10.8746   15.9726 C   0  0  0  0  0  0  0  0  0  0  0  0
   -0.7812  -10.5928   14.6673 N   0  0  0  0  0  0  0  0  0  0  0  0
   -1.9416   -8.5657   16.7794 N   0  0  0  0  0  0  0  0  0  0  0  0
   -2.3974   -8.1150   17.9563 C   0  0  0  0  0  0  0  0  0  0  0  0
   -2.4454   -9.0993   18.8531 N   0  0  0  0  0  0  0  0  0  0  0  0
  2  1  1  6  0  0  0
  2  3  1  0  0  0  0
  2  5  1  0  0  0  0
  3  4  1  0  0  0  0
  3 17  1  0  0  0  0
  5  6  1  0  0  0  0
  7  6  1  1  0  0  0
  7  8  1  0  0  0  0
  7  9  1  0  0  0  0
 10  9  1  6  0  0  0
 10 11  1  0  0  0  0
 10 12  1  0  0  0  0
 11 16  1  0  0  0  0
 12 13  1  1  0  0  0
 12 14  1  0  0  0  0
 14 15  1  1  0  0  0
 14 16  1  0  0  0  0
 16 27  1  6  0  0  0
 18 19  2  0  0  0  0
 18 23  1  0  0  0  0
 19 20  1  0  0  0  0
 20 21  2  0  0  0  0
 21 22  1  0  0  0  0
 21 27  1  0  0  0  0
 22 23  2  0  0  0  0
 22 25  1  0  0  0  0
 23 24  1  0  0  0  0
 25 26  2  0  0  0  0
 26 27  1  0  0  0  0
M  END
>  <CHROM.1>
-50.49447100,-175.57011601,64.23053916,-121.99776803,-169.09433533,-61.32417500
-47.00281276,-4.67392559,-10.08055400,18.10573161,-2.67693742,0.03213595
0.98808419

>  <Name>
ligand

>  <RI>
0

>  <Rbt.Current_Directory>
/home/itssahil/PROJECTS/Mol_Feturizer/Test_systems_manuscript/rnas/4kqy

>  <Rbt.Executable>
rbdock ($Id: //depot/dev/client3/rdock/2013.1/src/exe/rbdock.cxx#4 $)

>  <Rbt.Library>
libRbt.so (2013.1, Build901 2013/11/27)

>  <Rbt.Parameter_File>
/export/apps/rDock/src/rDock_2013.1_src/data/scripts/dock_solv.prm

>  <Rbt.Receptor>
prm/pocket_docking_7.prm

>  <SCORE>
-12.7106

>  <SCORE.INTER>
-10.8894

>  <SCORE.INTER.CONST>
1

>  <SCORE.INTER.POLAR>
0

>  <SCORE.INTER.ROT>
7

>  <SCORE.INTER.SOLV>
10.9405

>  <SCORE.INTER.VDW>
-19.1731

>  <SCORE.INTER.norm>
-0.403311

>  <SCORE.INTRA>
-1.82124

>  <SCORE.INTRA.DIHEDRAL>
-2.38968

>  <SCORE.INTRA.DIHEDRAL.0>
10.4103

>  <SCORE.INTRA.POLAR>
0

>  <SCORE.INTRA.POLAR.0>
0

>  <SCORE.INTRA.REPUL>
0

>  <SCORE.INTRA.REPUL.0>
0

>  <SCORE.INTRA.SOLV>
-0.266676

>  <SCORE.INTRA.SOLV.lig_0>
-49.5008

>  <SCORE.INTRA.VDW>
-0.493061

>  <SCORE.INTRA.VDW.0>
-2.6946

>  <SCORE.INTRA.norm>
-0.0674533

>  <SCORE.RESTR>
0

>  <SCORE.RESTR.CAVITY>
0

>  <SCORE.RESTR.norm>
0

>  <SCORE.SYSTEM>
0

>  <SCORE.SYSTEM.CONST>
0

>  <SCORE.SYSTEM.DIHEDRAL>
0

>  <SCORE.SYSTEM.SOLV>
0

>  <SCORE.SYSTEM.norm>
0

>  <SCORE.heavy>
27

>  <SCORE.norm>
-0.470764

>  <RMSD>
5.736

$$$$
ligand
 OpenBabel02271912153D
libRbt.so/2013.1/901 2013/11/27
 27 29  0  0  0  0  0  0  0  0999 V2000
   -5.0145  -15.0897   19.7569 N   0  0  0  0  0  0  0  0  0  0  0  0
   -4.8718  -13.6469   19.8015 C   0  0  2  0  0  0  0  0  0  0  0  0
   -5.6490  -13.1589   20.9852 C   0  0  0  0  0  0  0  0  0  0  0  0
   -5.0337  -12.7047   21.9738 O   0  0  0  0  0  0  0  0  0  0  0  0
   -5.4109  -13.0157   18.5150 C   0  0  0  0  0  0  0  0  0  0  0  0
   -5.0781  -11.5089   18.4419 C   0  0  0  0  0  0  0  0  0  0  0  0
   -6.3645  -10.4693   18.7241 S   0  0  2  0  0  0  0  0  0  0  0  0
   -6.1085   -9.0428   17.9128 C   0  0  0  0  0  0  0  0  0  0  0  0
   -6.5216  -10.1936   20.3818 C   0  0  0  0  0  0  0  0  0  0  0  0
   -5.2627   -9.5920   21.0413 C   0  0  1  0  0  0  0  0  0  0  0  0
   -4.0758  -10.3687   20.8092 O   0  0  0  0  0  0  0  0  0  0  0  0
   -4.8687   -8.2370   20.4760 C   0  0  1  0  0  0  0  0  0  0  0  0
   -5.6625   -7.0989   20.8674 O   0  0  0  0  0  0  0  0  0  0  0  0
   -3.4297   -8.1599   20.9229 C   0  0  1  0  0  0  0  0  0  0  0  0
   -3.3653   -7.9404   22.3288 O   0  0  0  0  0  0  0  0  0  0  0  0
   -2.9256   -9.5405   20.6229 C   0  0  2  0  0  0  0  0  0  0  0  0
   -6.9026  -13.1851   20.9513 O   0  0  0  0  0  0  0  0  0  0  0  0
   -1.0938  -12.4777   16.5863 N   0  0  0  0  0  0  0  0  0  0  0  0
   -1.5912  -12.8829   17.7801 C   0  0  0  0  0  0  0  0  0  0  0  0
   -2.0159  -12.0227   18.7208 N   0  0  0  0  0  0  0  0  0  0  0  0
   -1.9943  -10.6990   18.5291 C   0  0  0  0  0  0  0  0  0  0  0  0
   -1.4917  -10.2020   17.2571 C   0  0  0  0  0  0  0  0  0  0  0  0
   -1.0088  -11.1569   16.2328 C   0  0  0  0  0  0  0  0  0  0  0  0
   -0.5169  -10.7453   15.0115 N   0  0  0  0  0  0  0  0  0  0  0  0
   -1.5901   -8.8935   17.3214 N   0  0  0  0  0  0  0  0  0  0  0  0
   -2.0861   -8.5536   18.5191 C   0  0  0  0  0  0  0  0  0  0  0  0
   -2.3376   -9.6378   19.2518 N   0  0  0  0  0  0  0  0  0  0  0  0
  2  1  1  6  0  0  0
  2  3  1  0  0  0  0
  2  5  1  0  0  0  0
  3  4  1  0  0  0  0
  3 17  1  0  0  0  0
  5  6  1  0  0  0  0
  7  6  1  1  0  0  0
  7  8  1  0  0  0  0
  7  9  1  0  0  0  0
 10  9  1  6  0  0  0
 10 11  1  0  0  0  0
 10 12  1  0  0  0  0
 11 16  1  0  0  0  0
 12 13  1  1  0  0  0
 12 14  1  0  0  0  0
 14 15  1  1  0  0  0
 14 16  1  0  0  0  0
 16 27  1  6  0  0  0
 18 19  2  0  0  0  0
 18 23  1  0  0  0  0
 19 20  1  0  0  0  0
 20 21  2  0  0  0  0
 21 22  1  0  0  0  0
 21 27  1  0  0  0  0
 22 23  2  0  0  0  0
 22 25  1  0  0  0  0
 23 24  1  0  0  0  0
 25 26  2  0  0  0  0
 26 27  1  0  0  0  0
M  END
>  <CHROM.1>
110.29847648,-171.34621777,-105.63110389,-151.91936994,58.46161797,-54.76454049
-50.35365327,-3.98396961,-10.71979049,19.29063227,2.94426113,0.67894698,0.29332994

>  <Name>
ligand

>  <RI>
0

>  <Rbt.Current_Directory>
/home/itssahil/PROJECTS/Mol_Feturizer/Test_systems_manuscript/rnas/4kqy

>  <Rbt.Executable>
rbdock ($Id: //depot/dev/client3/rdock/2013.1/src/exe/rbdock.cxx#4 $)

>  <Rbt.Library>
libRbt.so (2013.1, Build901 2013/11/27)

>  <Rbt.Parameter_File>
/export/apps/rDock/src/rDock_2013.1_src/data/scripts/dock_solv.prm

>  <Rbt.Receptor>
prm/pocket_docking_5.prm

>  <SCORE>
-11.6551

>  <SCORE.INTER>
-10.4748

>  <SCORE.INTER.CONST>
1

>  <SCORE.INTER.POLAR>
0

>  <SCORE.INTER.ROT>
7

>  <SCORE.INTER.SOLV>
14.3448

>  <SCORE.INTER.VDW>
-20.0315

>  <SCORE.INTER.norm>
-0.387954

>  <SCORE.INTRA>
-1.18036

>  <SCORE.INTRA.DIHEDRAL>
-0.416322

>  <SCORE.INTRA.DIHEDRAL.0>
10.4103

>  <SCORE.INTRA.POLAR>
0

>  <SCORE.INTRA.POLAR.0>
0

>  <SCORE.INTRA.REPUL>
0

>  <SCORE.INTRA.REPUL.0>
0

>  <SCORE.INTRA.SOLV>
0.191034

>  <SCORE.INTRA.SOLV.lig_0>
-49.5008

>  <SCORE.INTRA.VDW>
-1.06772

>  <SCORE.INTRA.VDW.0>
-2.6946

>  <SCORE.INTRA.norm>
-0.0437172

>  <SCORE.RESTR>
0

>  <SCORE.RESTR.CAVITY>
0

>  <SCORE.RESTR.norm>
0

>  <SCORE.SYSTEM>
0

>  <SCORE.SYSTEM.CONST>
0

>  <SCORE.SYSTEM.DIHEDRAL>
0

>  <SCORE.SYSTEM.SOLV>
0

>  <SCORE.SYSTEM.norm>
0

>  <SCORE.heavy>
27

>  <SCORE.norm>
-0.431671

>  <RMSD>
5.738

$$$$
ligand
 OpenBabel02271912153D
libRbt.so/2013.1/901 2013/11/27
 27 29  0  0  0  0  0  0  0  0999 V2000
   -5.6494   -7.1836   21.0450 N   0  0  0  0  0  0  0  0  0  0  0  0
   -4.5469   -8.1254   21.0872 C   0  0  2  0  0  0  0  0  0  0  0  0
   -3.7061   -7.8815   19.8720 C   0  0  0  0  0  0  0  0  0  0  0  0
   -2.5385   -8.3262   19.8390 O   0  0  0  0  0  0  0  0  0  0  0  0
   -5.0716   -9.5637   21.0906 C   0  0  0  0  0  0  0  0  0  0  0  0
   -5.9275   -9.8562   19.8382 C   0  0  0  0  0  0  0  0  0  0  0  0
   -6.3068  -11.4704   19.5819 S   0  0  2  0  0  0  0  0  0  0  0  0
   -7.3740  -11.9778   20.7490 C   0  0  0  0  0  0  0  0  0  0  0  0
   -4.8981  -12.3994   19.6163 C   0  0  0  0  0  0  0  0  0  0  0  0
   -4.2550  -12.6181   18.2305 C   0  0  1  0  0  0  0  0  0  0  0  0
   -5.1147  -13.3110   17.3103 O   0  0  0  0  0  0  0  0  0  0  0  0
   -3.9682  -11.3262   17.4825 C   0  0  1  0  0  0  0  0  0  0  0  0
   -2.8414  -10.5415   17.9223 O   0  0  0  0  0  0  0  0  0  0  0  0
   -3.8357  -11.8475   16.0729 C   0  0  1  0  0  0  0  0  0  0  0  0
   -2.6144  -12.5666   15.9302 O   0  0  0  0  0  0  0  0  0  0  0  0
   -4.9812  -12.8112   15.9777 C   0  0  2  0  0  0  0  0  0  0  0  0
   -4.1980   -7.2638   18.8975 O   0  0  0  0  0  0  0  0  0  0  0  0
   -8.4899   -8.8176   16.1019 N   0  0  0  0  0  0  0  0  0  0  0  0
   -7.3792   -9.0018   16.8561 C   0  0  0  0  0  0  0  0  0  0  0  0
   -6.5784  -10.0724   16.7221 N   0  0  0  0  0  0  0  0  0  0  0  0
   -6.8171  -11.0236   15.8124 C   0  0  0  0  0  0  0  0  0  0  0  0
   -7.9836  -10.8712   14.9560 C   0  0  0  0  0  0  0  0  0  0  0  0
   -8.8709   -9.6969   15.1228 C   0  0  0  0  0  0  0  0  0  0  0  0
   -9.9930   -9.5012   14.3448 N   0  0  0  0  0  0  0  0  0  0  0  0
   -7.9793  -11.9151   14.1583 N   0  0  0  0  0  0  0  0  0  0  0  0
   -6.9317  -12.6922   14.4656 C   0  0  0  0  0  0  0  0  0  0  0  0
   -6.2223  -12.1585   15.4593 N   0  0  0  0  0  0  0  0  0  0  0  0
  2  1  1  6  0  0  0
  2  3  1  0  0  0  0
  2  5  1  0  0  0  0
  3  4  1  0  0  0  0
  3 17  1  0  0  0  0
  5  6  1  0  0  0  0
  7  6  1  1  0  0  0
  7  8  1  0  0  0  0
  7  9  1  0  0  0  0
 10  9  1  1  0  0  0
 10 11  1  0  0  0  0
 10 12  1  0  0  0  0
 11 16  1  0  0  0  0
 12 13  1  1  0  0  0
 12 14  1  0  0  0  0
 14 15  1  1  0  0  0
 14 16  1  0  0  0  0
 16 27  1  1  0  0  0
 18 19  2  0  0  0  0
 18 23  1  0  0  0  0
 19 20  1  0  0  0  0
 20 21  2  0  0  0  0
 21 22  1  0  0  0  0
 21 27  1  0  0  0  0
 22 23  2  0  0  0  0
 22 25  1  0  0  0  0
 23 24  1  0  0  0  0
 25 26  2  0  0  0  0
 26 27  1  0  0  0  0
M  END
>  <CHROM.1>
162.57372437,58.94851269,168.61414728,69.44015651,-92.78143548,-60.95711189
68.86099598,-5.69655944,-10.59232436,17.72782674,0.95482857,-0.57212333,0.78986251

>  <Name>
ligand

>  <RI>
0

>  <Rbt.Current_Directory>
/home/itssahil/PROJECTS/Mol_Feturizer/Test_systems_manuscript/rnas/4kqy

>  <Rbt.Executable>
rbdock ($Id: //depot/dev/client3/rdock/2013.1/src/exe/rbdock.cxx#4 $)

>  <Rbt.Library>
libRbt.so (2013.1, Build901 2013/11/27)

>  <Rbt.Parameter_File>
/export/apps/rDock/src/rDock_2013.1_src/data/scripts/dock_solv.prm

>  <Rbt.Receptor>
prm/pocket_docking_7.prm

>  <SCORE>
-9.13624

>  <SCORE.INTER>
-5.96788

>  <SCORE.INTER.CONST>
1

>  <SCORE.INTER.POLAR>
0

>  <SCORE.INTER.ROT>
7

>  <SCORE.INTER.SOLV>
12.707

>  <SCORE.INTER.VDW>
-16.4809

>  <SCORE.INTER.norm>
-0.221033

>  <SCORE.INTRA>
-3.22103

>  <SCORE.INTRA.DIHEDRAL>
-4.22978

>  <SCORE.INTRA.DIHEDRAL.0>
10.4103

>  <SCORE.INTRA.POLAR>
0

>  <SCORE.INTRA.POLAR.0>
0

>  <SCORE.INTRA.REPUL>
0

>  <SCORE.INTRA.REPUL.0>
0

>  <SCORE.INTRA.SOLV>
0.734021

>  <SCORE.INTRA.SOLV.lig_0>
-49.5008

>  <SCORE.INTRA.VDW>
-1.47315

>  <SCORE.INTRA.VDW.0>
-2.6946

>  <SCORE.INTRA.norm>
-0.119297

>  <SCORE.RESTR>
0.0526721

>  <SCORE.RESTR.CAVITY>
0.0526721

>  <SCORE.RESTR.norm>
0.00195082

>  <SCORE.SYSTEM>
0

>  <SCORE.SYSTEM.CONST>
0

>  <SCORE.SYSTEM.DIHEDRAL>
0

>  <SCORE.SYSTEM.SOLV>
0

>  <SCORE.SYSTEM.norm>
0

>  <SCORE.heavy>
27

>  <SCORE.norm>
-0.338379

>  <RMSD>
5.738

$$$$
ligand
 OpenBabel02271912153D
libRbt.so/2013.1/901 2013/11/27
 27 29  0  0  0  0  0  0  0  0999 V2000
   -8.8134  -13.2301   18.7014 N   0  0  0  0  0  0  0  0  0  0  0  0
   -7.9759  -12.1325   19.1465 C   0  0  2  0  0  0  0  0  0  0  0  0
   -7.4799  -11.4261   17.9225 C   0  0  0  0  0  0  0  0  0  0  0  0
   -7.6437  -10.1910   17.8227 O   0  0  0  0  0  0  0  0  0  0  0  0
   -6.7975  -12.6585   19.9706 C   0  0  0  0  0  0  0  0  0  0  0  0
   -6.0572  -11.5119   20.6943 C   0  0  0  0  0  0  0  0  0  0  0  0
   -4.5148  -11.8793   21.2431 S   0  0  2  0  0  0  0  0  0  0  0  0
   -4.5182  -13.3947   21.9230 C   0  0  0  0  0  0  0  0  0  0  0  0
   -4.0189  -10.7218   22.3668 C   0  0  0  0  0  0  0  0  0  0  0  0
   -3.6500   -9.3586   21.7443 C   0  0  1  0  0  0  0  0  0  0  0  0
   -2.4386   -9.3982   20.9717 O   0  0  0  0  0  0  0  0  0  0  0  0
   -4.6602   -8.8636   20.7220 C   0  0  1  0  0  0  0  0  0  0  0  0
   -5.9070   -8.3394   21.2217 O   0  0  0  0  0  0  0  0  0  0  0  0
   -3.8261   -7.8495   19.9790 C   0  0  1  0  0  0  0  0  0  0  0  0
   -3.6172   -6.6983   20.7915 O   0  0  0  0  0  0  0  0  0  0  0  0
   -2.5206   -8.5688   19.8102 C   0  0  2  0  0  0  0  0  0  0  0  0
   -6.8819  -12.0798   17.0347 O   0  0  0  0  0  0  0  0  0  0  0  0
   -2.5010  -13.1995   17.1965 N   0  0  0  0  0  0  0  0  0  0  0  0
   -2.5828  -12.9723   18.5300 C   0  0  0  0  0  0  0  0  0  0  0  0
   -2.5691  -11.7375   19.0595 N   0  0  0  0  0  0  0  0  0  0  0  0
   -2.4944  -10.6420   18.2955 C   0  0  0  0  0  0  0  0  0  0  0  0
   -2.4267  -10.8198   16.8529 C   0  0  0  0  0  0  0  0  0  0  0  0
   -2.4242  -12.1853   16.2788 C   0  0  0  0  0  0  0  0  0  0  0  0
   -2.3566  -12.4165   14.9206 N   0  0  0  0  0  0  0  0  0  0  0  0
   -2.3753   -9.6087   16.3463 N   0  0  0  0  0  0  0  0  0  0  0  0
   -2.3858   -8.7182   17.3477 C   0  0  0  0  0  0  0  0  0  0  0  0
   -2.4629   -9.3337   18.5270 N   0  0  0  0  0  0  0  0  0  0  0  0
  2  1  1  6  0  0  0
  2  3  1  0  0  0  0
  2  5  1  0  0  0  0
  3  4  1  0  0  0  0
  3 17  1  0  0  0  0
  5  6  1  0  0  0  0
  7  6  1  1  0  0  0
  7  8  1  0  0  0  0
  7  9  1  0  0  0  0
 10  9  1  6  0  0  0
 10 11  1  0  0  0  0
 10 12  1  0  0  0  0
 11 16  1  0  0  0  0
 12 13  1  1  0  0  0
 12 14  1  0  0  0  0
 14 15  1  1  0  0  0
 14 16  1  0  0  0  0
 16 27  1  6  0  0  0
 18 19  2  0  0  0  0
 18 23  1  0  0  0  0
 19 20  1  0  0  0  0
 20 21  2  0  0  0  0
 21 22  1  0  0  0  0
 21 27  1  0  0  0  0
 22 23  2  0  0  0  0
 22 25  1  0  0  0  0
 23 24  1  0  0  0  0
 25 26  2  0  0  0  0
 26 27  1  0  0  0  0
M  END
>  <CHROM.1>
127.07943067,-168.39379597,-162.53363513,-42.30328895,-73.56236034,-69.81039456
8.24625225,-4.35685077,-10.76816951,19.24176223,-2.87752369,0.50883257,0.95081593

>  <Name>
ligand

>  <RI>
0

>  <Rbt.Current_Directory>
/home/itssahil/PROJECTS/Mol_Feturizer/Test_systems_manuscript/rnas/4kqy

>  <Rbt.Executable>
rbdock ($Id: //depot/dev/client3/rdock/2013.1/src/exe/rbdock.cxx#4 $)

>  <Rbt.Library>
libRbt.so (2013.1, Build901 2013/11/27)

>  <Rbt.Parameter_File>
/export/apps/rDock/src/rDock_2013.1_src/data/scripts/dock_solv.prm

>  <Rbt.Receptor>
prm/pocket_docking_4.prm

>  <SCORE>
-14.7688

>  <SCORE.INTER>
-12.2879

>  <SCORE.INTER.CONST>
1

>  <SCORE.INTER.POLAR>
0

>  <SCORE.INTER.ROT>
7

>  <SCORE.INTER.SOLV>
10.2427

>  <SCORE.INTER.VDW>
-19.8729

>  <SCORE.INTER.norm>
-0.455109

>  <SCORE.INTRA>
-2.48088

>  <SCORE.INTRA.DIHEDRAL>
-4.32665

>  <SCORE.INTRA.DIHEDRAL.0>
10.4103

>  <SCORE.INTRA.POLAR>
0

>  <SCORE.INTRA.POLAR.0>
0

>  <SCORE.INTRA.REPUL>
0

>  <SCORE.INTRA.REPUL.0>
0

>  <SCORE.INTRA.SOLV>
-0.166043

>  <SCORE.INTRA.SOLV.lig_0>
-49.5008

>  <SCORE.INTRA.VDW>
-0.234537

>  <SCORE.INTRA.VDW.0>
-2.6946

>  <SCORE.INTRA.norm>
-0.0918845

>  <SCORE.RESTR>
0

>  <SCORE.RESTR.CAVITY>
0

>  <SCORE.RESTR.norm>
0

>  <SCORE.SYSTEM>
0

>  <SCORE.SYSTEM.CONST>
0

>  <SCORE.SYSTEM.DIHEDRAL>
0

>  <SCORE.SYSTEM.SOLV>
0

>  <SCORE.SYSTEM.norm>
0

>  <SCORE.heavy>
27

>  <SCORE.norm>
-0.546994

>  <RMSD>
5.781

$$$$
ligand
 OpenBabel02271912153D
libRbt.so/2013.1/901 2013/11/27
 27 29  0  0  0  0  0  0  0  0999 V2000
   -8.3205  -14.5386   20.0032 N   0  0  0  0  0  0  0  0  0  0  0  0
   -7.4267  -13.6660   20.7406 C   0  0  2  0  0  0  0  0  0  0  0  0
   -7.4838  -12.3179   20.0905 C   0  0  0  0  0  0  0  0  0  0  0  0
   -7.3095  -12.2281   18.8561 O   0  0  0  0  0  0  0  0  0  0  0  0
   -5.9968  -14.2123   20.7064 C   0  0  0  0  0  0  0  0  0  0  0  0
   -5.0417  -13.3503   21.5616 C   0  0  0  0  0  0  0  0  0  0  0  0
   -4.5739  -11.8919   20.8763 S   0  0  2  0  0  0  0  0  0  0  0  0
   -3.2312  -12.1336   19.9290 C   0  0  0  0  0  0  0  0  0  0  0  0
   -4.2516  -10.7677   22.0932 C   0  0  0  0  0  0  0  0  0  0  0  0
   -4.0309   -9.3296   21.5784 C   0  0  1  0  0  0  0  0  0  0  0  0
   -2.7850   -9.1627   20.8814 O   0  0  0  0  0  0  0  0  0  0  0  0
   -5.0408   -8.8983   20.5273 C   0  0  1  0  0  0  0  0  0  0  0  0
   -6.3702   -8.5716   20.9796 O   0  0  0  0  0  0  0  0  0  0  0  0
   -4.3074   -7.7385   19.9001 C   0  0  1  0  0  0  0  0  0  0  0  0
   -4.2944   -6.6281   20.7922 O   0  0  0  0  0  0  0  0  0  0  0  0
   -2.9121   -8.2734   19.7694 C   0  0  2  0  0  0  0  0  0  0  0  0
   -7.7363  -11.3079   20.7900 O   0  0  0  0  0  0  0  0  0  0  0  0
   -4.6409  -11.3646   15.8031 N   0  0  0  0  0  0  0  0  0  0  0  0
   -5.2815  -10.9951   16.9388 C   0  0  0  0  0  0  0  0  0  0  0  0
   -4.7164  -10.2071   17.8689 N   0  0  0  0  0  0  0  0  0  0  0  0
   -3.4812   -9.7151   17.7222 C   0  0  0  0  0  0  0  0  0  0  0  0
   -2.7496  -10.0581   16.5120 C   0  0  0  0  0  0  0  0  0  0  0  0
   -3.3735  -10.9419   15.5003 C   0  0  0  0  0  0  0  0  0  0  0  0
   -2.7276  -11.3057   14.3369 N   0  0  0  0  0  0  0  0  0  0  0  0
   -1.5911   -9.4463   16.6101 N   0  0  0  0  0  0  0  0  0  0  0  0
   -1.5474   -8.7829   17.7737 C   0  0  0  0  0  0  0  0  0  0  0  0
   -2.6863   -8.9358   18.4483 N   0  0  0  0  0  0  0  0  0  0  0  0
  2  1  1  6  0  0  0
  2  3  1  0  0  0  0
  2  5  1  0  0  0  0
  3  4  1  0  0  0  0
  3 17  1  0  0  0  0
  5  6  1  0  0  0  0
  7  6  1  1  0  0  0
  7  8  1  0  0  0  0
  7  9  1  0  0  0  0
 10  9  1  6  0  0  0
 10 11  1  0  0  0  0
 10 12  1  0  0  0  0
 11 16  1  0  0  0  0
 12 13  1  1  0  0  0
 12 14  1  0  0  0  0
 14 15  1  1  0  0  0
 14 16  1  0  0  0  0
 16 27  1  6  0  0  0
 18 19  2  0  0  0  0
 18 23  1  0  0  0  0
 19 20  1  0  0  0  0
 20 21  2  0  0  0  0
 21 22  1  0  0  0  0
 21 27  1  0  0  0  0
 22 23  2  0  0  0  0
 22 25  1  0  0  0  0
 23 24  1  0  0  0  0
 25 26  2  0  0  0  0
 26 27  1  0  0  0  0
M  END
>  <CHROM.1>
-51.56864678,-176.29828758,-76.32911901,-87.28754291,-170.76081922,-71.42705368
77.83486960,-4.62986860,-10.67541275,19.32089196,3.01373839,0.87414573,0.99164203

>  <Name>
ligand

>  <RI>
0

>  <Rbt.Current_Directory>
/home/itssahil/PROJECTS/Mol_Feturizer/Test_systems_manuscript/rnas/4kqy

>  <Rbt.Executable>
rbdock ($Id: //depot/dev/client3/rdock/2013.1/src/exe/rbdock.cxx#4 $)

>  <Rbt.Library>
libRbt.so (2013.1, Build901 2013/11/27)

>  <Rbt.Parameter_File>
/export/apps/rDock/src/rDock_2013.1_src/data/scripts/dock_solv.prm

>  <Rbt.Receptor>
prm/pocket_docking_4.prm

>  <SCORE>
-17.3901

>  <SCORE.INTER>
-12.8775

>  <SCORE.INTER.CONST>
1

>  <SCORE.INTER.POLAR>
0

>  <SCORE.INTER.ROT>
7

>  <SCORE.INTER.SOLV>
9.8343

>  <SCORE.INTER.VDW>
-20.1298

>  <SCORE.INTER.norm>
-0.476945

>  <SCORE.INTRA>
-4.51254

>  <SCORE.INTRA.DIHEDRAL>
-3.80785

>  <SCORE.INTRA.DIHEDRAL.0>
10.4103

>  <SCORE.INTRA.POLAR>
0

>  <SCORE.INTRA.POLAR.0>
0

>  <SCORE.INTRA.REPUL>
0

>  <SCORE.INTRA.REPUL.0>
0

>  <SCORE.INTRA.SOLV>
-0.1234

>  <SCORE.INTRA.SOLV.lig_0>
-49.5008

>  <SCORE.INTRA.VDW>
-2.54692

>  <SCORE.INTRA.VDW.0>
-2.6946

>  <SCORE.INTRA.norm>
-0.167131

>  <SCORE.RESTR>
0

>  <SCORE.RESTR.CAVITY>
0

>  <SCORE.RESTR.norm>
0

>  <SCORE.SYSTEM>
0

>  <SCORE.SYSTEM.CONST>
0

>  <SCORE.SYSTEM.DIHEDRAL>
0

>  <SCORE.SYSTEM.SOLV>
0

>  <SCORE.SYSTEM.norm>
0

>  <SCORE.heavy>
27

>  <SCORE.norm>
-0.644076

>  <RMSD>
5.793

$$$$
ligand
 OpenBabel02271912153D
libRbt.so/2013.1/901 2013/11/27
 27 29  0  0  0  0  0  0  0  0999 V2000
   -4.8345   -6.0626   19.5098 N   0  0  0  0  0  0  0  0  0  0  0  0
   -4.9071   -7.4987   19.7015 C   0  0  2  0  0  0  0  0  0  0  0  0
   -5.9335   -7.7551   20.7617 C   0  0  0  0  0  0  0  0  0  0  0  0
   -6.1178   -6.8977   21.6523 O   0  0  0  0  0  0  0  0  0  0  0  0
   -3.5462   -8.0502   20.1350 C   0  0  0  0  0  0  0  0  0  0  0  0
   -3.5546   -9.5938   20.1941 C   0  0  0  0  0  0  0  0  0  0  0  0
   -4.0564  -10.2595   21.6503 S   0  0  2  0  0  0  0  0  0  0  0  0
   -2.8743  -10.0353   22.7952 C   0  0  0  0  0  0  0  0  0  0  0  0
   -4.3836  -11.9022   21.4434 C   0  0  0  0  0  0  0  0  0  0  0  0
   -5.6661  -12.1912   20.6351 C   0  0  1  0  0  0  0  0  0  0  0  0
   -5.6744  -11.5625   19.3426 O   0  0  0  0  0  0  0  0  0  0  0  0
   -5.8398  -13.6576   20.2738 C   0  0  1  0  0  0  0  0  0  0  0  0
   -6.2552  -14.5544   21.3235 O   0  0  0  0  0  0  0  0  0  0  0  0
   -6.8281  -13.5467   19.1393 C   0  0  1  0  0  0  0  0  0  0  0  0
   -8.1137  -13.1967   19.6430 O   0  0  0  0  0  0  0  0  0  0  0  0
   -6.2842  -12.3922   18.3509 C   0  0  2  0  0  0  0  0  0  0  0  0
   -6.6113   -8.8096   20.7195 O   0  0  0  0  0  0  0  0  0  0  0  0
   -1.4457  -14.0187   16.8610 N   0  0  0  0  0  0  0  0  0  0  0  0
   -1.8931  -13.6917   18.0978 C   0  0  0  0  0  0  0  0  0  0  0  0
   -3.1522  -13.2852   18.3317 N   0  0  0  0  0  0  0  0  0  0  0  0
   -4.0593  -13.1965   17.3525 C   0  0  0  0  0  0  0  0  0  0  0  0
   -3.6455  -13.5560   16.0046 C   0  0  0  0  0  0  0  0  0  0  0  0
   -2.2505  -13.9859   15.7529 C   0  0  0  0  0  0  0  0  0  0  0  0
   -1.7990  -14.3337   14.4968 N   0  0  0  0  0  0  0  0  0  0  0  0
   -4.7094  -13.3966   15.2504 N   0  0  0  0  0  0  0  0  0  0  0  0
   -5.7200  -12.9564   16.0125 C   0  0  0  0  0  0  0  0  0  0  0  0
   -5.3373  -12.8381   17.2833 N   0  0  0  0  0  0  0  0  0  0  0  0
  2  1  1  1  0  0  0
  2  3  1  0  0  0  0
  2  5  1  0  0  0  0
  3  4  1  0  0  0  0
  3 17  1  0  0  0  0
  5  6  1  0  0  0  0
  7  6  1  6  0  0  0
  7  8  1  0  0  0  0
  7  9  1  0  0  0  0
 10  9  1  6  0  0  0
 10 11  1  0  0  0  0
 10 12  1  0  0  0  0
 11 16  1  0  0  0  0
 12 13  1  1  0  0  0
 12 14  1  0  0  0  0
 14 15  1  1  0  0  0
 14 16  1  0  0  0  0
 16 27  1  6  0  0  0
 18 19  2  0  0  0  0
 18 23  1  0  0  0  0
 19 20  1  0  0  0  0
 20 21  2  0  0  0  0
 21 22  1  0  0  0  0
 21 27  1  0  0  0  0
 22 23  2  0  0  0  0
 22 25  1  0  0  0  0
 23 24  1  0  0  0  0
 25 26  2  0  0  0  0
 26 27  1  0  0  0  0
M  END
>  <CHROM.1>
-29.87875918,-173.68373446,-87.60470422,-72.53719480,-71.73985598,55.54177152
37.78198351,-4.67091118,-11.48770717,19.20513949,-1.84876393,-0.73334403
-2.64056027

>  <Name>
ligand

>  <RI>
0

>  <Rbt.Current_Directory>
/home/itssahil/PROJECTS/Mol_Feturizer/Test_systems_manuscript/rnas/4kqy

>  <Rbt.Executable>
rbdock ($Id: //depot/dev/client3/rdock/2013.1/src/exe/rbdock.cxx#4 $)

>  <Rbt.Library>
libRbt.so (2013.1, Build901 2013/11/27)

>  <Rbt.Parameter_File>
/export/apps/rDock/src/rDock_2013.1_src/data/scripts/dock_solv.prm

>  <Rbt.Receptor>
prm/pocket_docking_4.prm

>  <SCORE>
-17.5671

>  <SCORE.INTER>
-13.7251

>  <SCORE.INTER.CONST>
1

>  <SCORE.INTER.POLAR>
0

>  <SCORE.INTER.ROT>
7

>  <SCORE.INTER.SOLV>
19.3028

>  <SCORE.INTER.VDW>
-23.851

>  <SCORE.INTER.norm>
-0.508338

>  <SCORE.INTRA>
-3.84198

>  <SCORE.INTRA.DIHEDRAL>
-4.00975

>  <SCORE.INTRA.DIHEDRAL.0>
10.4103

>  <SCORE.INTRA.POLAR>
0

>  <SCORE.INTRA.POLAR.0>
0

>  <SCORE.INTRA.REPUL>
0

>  <SCORE.INTRA.REPUL.0>
0

>  <SCORE.INTRA.SOLV>
-0.348659

>  <SCORE.INTRA.SOLV.lig_0>
-49.5008

>  <SCORE.INTRA.VDW>
-1.66277

>  <SCORE.INTRA.VDW.0>
-2.6946

>  <SCORE.INTRA.norm>
-0.142295

>  <SCORE.RESTR>
0

>  <SCORE.RESTR.CAVITY>
0

>  <SCORE.RESTR.norm>
0

>  <SCORE.SYSTEM>
0

>  <SCORE.SYSTEM.CONST>
0

>  <SCORE.SYSTEM.DIHEDRAL>
0

>  <SCORE.SYSTEM.SOLV>
0

>  <SCORE.SYSTEM.norm>
0

>  <SCORE.heavy>
27

>  <SCORE.norm>
-0.650633

>  <RMSD>
5.810

$$$$
ligand
 OpenBabel02271912153D
libRbt.so/2013.1/901 2013/11/27
 27 29  0  0  0  0  0  0  0  0999 V2000
   -7.8129  -14.3124   21.1752 N   0  0  0  0  0  0  0  0  0  0  0  0
   -6.5550  -13.7073   20.7805 C   0  0  2  0  0  0  0  0  0  0  0  0
   -6.1127  -14.3823   19.5188 C   0  0  0  0  0  0  0  0  0  0  0  0
   -6.1659  -13.7537   18.4398 O   0  0  0  0  0  0  0  0  0  0  0  0
   -5.5043  -13.8924   21.8786 C   0  0  0  0  0  0  0  0  0  0  0  0
   -4.1433  -13.2890   21.4663 C   0  0  0  0  0  0  0  0  0  0  0  0
   -4.2007  -11.7315   20.8450 S   0  0  2  0  0  0  0  0  0  0  0  0
   -2.8363  -11.4480   19.9412 C   0  0  0  0  0  0  0  0  0  0  0  0
   -4.3224  -10.6183   22.1078 C   0  0  0  0  0  0  0  0  0  0  0  0
   -4.5656   -9.1663   21.6449 C   0  0  1  0  0  0  0  0  0  0  0  0
   -3.3938   -8.5445   21.0917 O   0  0  0  0  0  0  0  0  0  0  0  0
   -5.5553   -9.0518   20.4967 C   0  0  1  0  0  0  0  0  0  0  0  0
   -6.9527   -9.2263   20.8059 O   0  0  0  0  0  0  0  0  0  0  0  0
   -5.2129   -7.6787   19.9736 C   0  0  1  0  0  0  0  0  0  0  0  0
   -5.6728   -6.6812   20.8805 O   0  0  0  0  0  0  0  0  0  0  0  0
   -3.7130   -7.6942   19.9878 C   0  0  2  0  0  0  0  0  0  0  0  0
   -5.6677  -15.5538   19.5713 O   0  0  0  0  0  0  0  0  0  0  0  0
   -4.2512   -8.6112   14.7776 N   0  0  0  0  0  0  0  0  0  0  0  0
   -5.1547   -8.1084   15.6537 C   0  0  0  0  0  0  0  0  0  0  0  0
   -4.8839   -7.9348   16.9583 N   0  0  0  0  0  0  0  0  0  0  0  0
   -3.6867   -8.2302   17.4767 C   0  0  0  0  0  0  0  0  0  0  0  0
   -2.6659   -8.7533   16.5814 C   0  0  0  0  0  0  0  0  0  0  0  0
   -2.9788   -8.9584   15.1481 C   0  0  0  0  0  0  0  0  0  0  0  0
   -2.0544   -9.4555   14.2531 N   0  0  0  0  0  0  0  0  0  0  0  0
   -1.6010   -8.9434   17.3269 N   0  0  0  0  0  0  0  0  0  0  0  0
   -1.8891   -8.6030   18.5906 C   0  0  0  0  0  0  0  0  0  0  0  0
   -3.1443   -8.1665   18.6883 N   0  0  0  0  0  0  0  0  0  0  0  0
  2  1  1  1  0  0  0
  2  3  1  0  0  0  0
  2  5  1  0  0  0  0
  3  4  1  0  0  0  0
  3 17  1  0  0  0  0
  5  6  1  0  0  0  0
  7  6  1  1  0  0  0
  7  8  1  0  0  0  0
  7  9  1  0  0  0  0
 10  9  1  6  0  0  0
 10 11  1  0  0  0  0
 10 12  1  0  0  0  0
 11 16  1  0  0  0  0
 12 13  1  1  0  0  0
 12 14  1  0  0  0  0
 14 15  1  1  0  0  0
 14 16  1  0  0  0  0
 16 27  1  6  0  0  0
 18 19  2  0  0  0  0
 18 23  1  0  0  0  0
 19 20  1  0  0  0  0
 20 21  2  0  0  0  0
 21 22  1  0  0  0  0
 21 27  1  0  0  0  0
 22 23  2  0  0  0  0
 22 25  1  0  0  0  0
 23 24  1  0  0  0  0
 25 26  2  0  0  0  0
 26 27  1  0  0  0  0
M  END
>  <CHROM.1>
108.37236163,178.47820776,48.25455461,-158.61603036,-172.50681005,-74.66739428
136.80179048,-4.49554841,-10.35855834,19.26403863,-2.87555631,1.20779261
0.65500644

>  <Name>
ligand

>  <RI>
0

>  <Rbt.Current_Directory>
/home/itssahil/PROJECTS/Mol_Feturizer/Test_systems_manuscript/rnas/4kqy

>  <Rbt.Executable>
rbdock ($Id: //depot/dev/client3/rdock/2013.1/src/exe/rbdock.cxx#4 $)

>  <Rbt.Library>
libRbt.so (2013.1, Build901 2013/11/27)

>  <Rbt.Parameter_File>
/export/apps/rDock/src/rDock_2013.1_src/data/scripts/dock_solv.prm

>  <Rbt.Receptor>
prm/pocket_docking_4.prm

>  <SCORE>
-18.9497

>  <SCORE.INTER>
-16.2213

>  <SCORE.INTER.CONST>
1

>  <SCORE.INTER.POLAR>
0

>  <SCORE.INTER.ROT>
7

>  <SCORE.INTER.SOLV>
15.4728

>  <SCORE.INTER.VDW>
-24.2385

>  <SCORE.INTER.norm>
-0.600789

>  <SCORE.INTRA>
-2.72836

>  <SCORE.INTRA.DIHEDRAL>
-5.05722

>  <SCORE.INTRA.DIHEDRAL.0>
10.4103

>  <SCORE.INTRA.POLAR>
0

>  <SCORE.INTRA.POLAR.0>
0

>  <SCORE.INTRA.REPUL>
0

>  <SCORE.INTRA.REPUL.0>
0

>  <SCORE.INTRA.SOLV>
-0.176235

>  <SCORE.INTRA.SOLV.lig_0>
-49.5008

>  <SCORE.INTRA.VDW>
-0.111635

>  <SCORE.INTRA.VDW.0>
-2.6946

>  <SCORE.INTRA.norm>
-0.10105

>  <SCORE.RESTR>
0

>  <SCORE.RESTR.CAVITY>
0

>  <SCORE.RESTR.norm>
0

>  <SCORE.SYSTEM>
0

>  <SCORE.SYSTEM.CONST>
0

>  <SCORE.SYSTEM.DIHEDRAL>
0

>  <SCORE.SYSTEM.SOLV>
0

>  <SCORE.SYSTEM.norm>
0

>  <SCORE.heavy>
27

>  <SCORE.norm>
-0.701839

>  <RMSD>
5.815

$$$$
ligand
 OpenBabel02271912153D
libRbt.so/2013.1/901 2013/11/27
 27 29  0  0  0  0  0  0  0  0999 V2000
   -9.0302  -13.6251   18.9998 N   0  0  0  0  0  0  0  0  0  0  0  0
   -8.3600  -12.4798   19.5858 C   0  0  2  0  0  0  0  0  0  0  0  0
   -8.3906  -11.3787   18.5711 C   0  0  0  0  0  0  0  0  0  0  0  0
   -8.0728  -10.2207   18.9179 O   0  0  0  0  0  0  0  0  0  0  0  0
   -6.9137  -12.8319   19.9444 C   0  0  0  0  0  0  0  0  0  0  0  0
   -6.2794  -11.7571   20.8550 C   0  0  0  0  0  0  0  0  0  0  0  0
   -4.6715  -12.0107   21.2617 S   0  0  2  0  0  0  0  0  0  0  0  0
   -4.4932  -13.5440   21.8747 C   0  0  0  0  0  0  0  0  0  0  0  0
   -4.1799  -10.8557   22.3900 C   0  0  0  0  0  0  0  0  0  0  0  0
   -3.9375   -9.4543   21.7906 C   0  0  1  0  0  0  0  0  0  0  0  0
   -2.6182   -9.2930   21.2437 O   0  0  0  0  0  0  0  0  0  0  0  0
   -4.8169   -9.1463   20.5895 C   0  0  1  0  0  0  0  0  0  0  0  0
   -6.2023   -8.8383   20.8435 O   0  0  0  0  0  0  0  0  0  0  0  0
   -4.0437   -8.0106   19.9660 C   0  0  1  0  0  0  0  0  0  0  0  0
   -4.1776   -6.8346   20.7586 O   0  0  0  0  0  0  0  0  0  0  0  0
   -2.6280   -8.4984   20.0553 C   0  0  2  0  0  0  0  0  0  0  0  0
   -8.7037  -11.6431   17.3857 O   0  0  0  0  0  0  0  0  0  0  0  0
   -1.8939  -13.1052   17.5030 N   0  0  0  0  0  0  0  0  0  0  0  0
   -2.3455  -12.8896   18.7625 C   0  0  0  0  0  0  0  0  0  0  0  0
   -2.4762  -11.6598   19.2876 N   0  0  0  0  0  0  0  0  0  0  0  0
   -2.1860  -10.5579   18.5868 C   0  0  0  0  0  0  0  0  0  0  0  0
   -1.7171  -10.7230   17.2192 C   0  0  0  0  0  0  0  0  0  0  0  0
   -1.5590  -12.0832   16.6545 C   0  0  0  0  0  0  0  0  0  0  0  0
   -1.1141  -12.3024   15.3673 N   0  0  0  0  0  0  0  0  0  0  0  0
   -1.5210   -9.5077   16.7602 N   0  0  0  0  0  0  0  0  0  0  0  0
   -1.8086   -8.6263   17.7279 C   0  0  0  0  0  0  0  0  0  0  0  0
   -2.2157   -9.2519   18.8317 N   0  0  0  0  0  0  0  0  0  0  0  0
  2  1  1  6  0  0  0
  2  3  1  0  0  0  0
  2  5  1  0  0  0  0
  3  4  1  0  0  0  0
  3 17  1  0  0  0  0
  5  6  1  0  0  0  0
  7  6  1  1  0  0  0
  7  8  1  0  0  0  0
  7  9  1  0  0  0  0
 10  9  1  6  0  0  0
 10 11  1  0  0  0  0
 10 12  1  0  0  0  0
 11 16  1  0  0  0  0
 12 13  1  1  0  0  0
 12 14  1  0  0  0  0
 14 15  1  1  0  0  0
 14 16  1  0  0  0  0
 16 27  1  6  0  0  0
 18 19  2  0  0  0  0
 18 23  1  0  0  0  0
 19 20  1  0  0  0  0
 20 21  2  0  0  0  0
 21 22  1  0  0  0  0
 21 27  1  0  0  0  0
 22 23  2  0  0  0  0
 22 25  1  0  0  0  0
 23 24  1  0  0  0  0
 25 26  2  0  0  0  0
 26 27  1  0  0  0  0
M  END
>  <CHROM.1>
168.25948072,-166.87640539,-177.66257584,-52.02187407,-75.27703478,-85.16328347
20.09363039,-4.40341737,-10.81863879,19.46249104,-3.13399643,0.37059076,0.73659499

>  <Name>
ligand

>  <RI>
0

>  <Rbt.Current_Directory>
/home/itssahil/PROJECTS/Mol_Feturizer/Test_systems_manuscript/rnas/4kqy

>  <Rbt.Executable>
rbdock ($Id: //depot/dev/client3/rdock/2013.1/src/exe/rbdock.cxx#4 $)

>  <Rbt.Library>
libRbt.so (2013.1, Build901 2013/11/27)

>  <Rbt.Parameter_File>
/export/apps/rDock/src/rDock_2013.1_src/data/scripts/dock_solv.prm

>  <Rbt.Receptor>
prm/pocket_docking_5.prm

>  <SCORE>
-18.0011

>  <SCORE.INTER>
-16.3819

>  <SCORE.INTER.CONST>
1

>  <SCORE.INTER.POLAR>
0

>  <SCORE.INTER.ROT>
7

>  <SCORE.INTER.SOLV>
10.2392

>  <SCORE.INTER.VDW>
-22.601

>  <SCORE.INTER.norm>
-0.606736

>  <SCORE.INTRA>
-1.61918

>  <SCORE.INTRA.DIHEDRAL>
-4.2385

>  <SCORE.INTRA.DIHEDRAL.0>
10.4103

>  <SCORE.INTRA.POLAR>
0

>  <SCORE.INTRA.POLAR.0>
0

>  <SCORE.INTRA.REPUL>
0

>  <SCORE.INTRA.REPUL.0>
0

>  <SCORE.INTRA.SOLV>
0.0589284

>  <SCORE.INTRA.SOLV.lig_0>
-49.5008

>  <SCORE.INTRA.VDW>
0.470611

>  <SCORE.INTRA.VDW.0>
-2.6946

>  <SCORE.INTRA.norm>
-0.0599695

>  <SCORE.RESTR>
0

>  <SCORE.RESTR.CAVITY>
0

>  <SCORE.RESTR.norm>
0

>  <SCORE.SYSTEM>
0

>  <SCORE.SYSTEM.CONST>
0

>  <SCORE.SYSTEM.DIHEDRAL>
0

>  <SCORE.SYSTEM.SOLV>
0

>  <SCORE.SYSTEM.norm>
0

>  <SCORE.heavy>
27

>  <SCORE.norm>
-0.666706

>  <RMSD>
5.893

$$$$
ligand
 OpenBabel02271912153D
libRbt.so/2013.1/901 2013/11/27
 27 29  0  0  0  0  0  0  0  0999 V2000
   -5.1211   -8.1544   19.1130 N   0  0  0  0  0  0  0  0  0  0  0  0
   -3.8538   -8.1189   18.4081 C   0  0  2  0  0  0  0  0  0  0  0  0
   -4.1499   -7.7983   16.9754 C   0  0  0  0  0  0  0  0  0  0  0  0
   -3.2369   -7.3490   16.2496 O   0  0  0  0  0  0  0  0  0  0  0  0
   -3.1443   -9.4715   18.5143 C   0  0  0  0  0  0  0  0  0  0  0  0
   -2.5468   -9.6874   19.9224 C   0  0  0  0  0  0  0  0  0  0  0  0
   -3.6524  -10.0606   21.1281 S   0  0  2  0  0  0  0  0  0  0  0  0
   -2.9370   -9.8590   22.6135 C   0  0  0  0  0  0  0  0  0  0  0  0
   -4.1915  -11.6483   20.9356 C   0  0  0  0  0  0  0  0  0  0  0  0
   -5.4078  -11.7899   19.9962 C   0  0  1  0  0  0  0  0  0  0  0  0
   -5.7157  -13.1555   19.6705 O   0  0  0  0  0  0  0  0  0  0  0  0
   -6.7119  -11.3110   20.6133 C   0  0  1  0  0  0  0  0  0  0  0  0
   -6.9122   -9.8870   20.7183 O   0  0  0  0  0  0  0  0  0  0  0  0
   -7.7105  -12.0034   19.7193 C   0  0  1  0  0  0  0  0  0  0  0  0
   -7.7290  -11.3855   18.4360 O   0  0  0  0  0  0  0  0  0  0  0  0
   -7.1254  -13.3784   19.5883 C   0  0  2  0  0  0  0  0  0  0  0  0
   -5.2987   -8.0157   16.5211 O   0  0  0  0  0  0  0  0  0  0  0  0
   -6.4172  -16.0920   24.1061 N   0  0  0  0  0  0  0  0  0  0  0  0
   -5.5549  -15.2703   23.4597 C   0  0  0  0  0  0  0  0  0  0  0  0
   -5.8662  -14.6485   22.3100 N   0  0  0  0  0  0  0  0  0  0  0  0
   -7.0664  -14.7855   21.7354 C   0  0  0  0  0  0  0  0  0  0  0  0
   -8.0448  -15.6379   22.3938 C   0  0  0  0  0  0  0  0  0  0  0  0
   -7.6868  -16.3337   23.6516 C   0  0  0  0  0  0  0  0  0  0  0  0
   -8.5697  -17.1578   24.3180 N   0  0  0  0  0  0  0  0  0  0  0  0
   -9.1223  -15.5894   21.6439 N   0  0  0  0  0  0  0  0  0  0  0  0
   -8.8797  -14.8042   20.5853 C   0  0  0  0  0  0  0  0  0  0  0  0
   -7.6429  -14.3109   20.6360 N   0  0  0  0  0  0  0  0  0  0  0  0
  2  1  1  1  0  0  0
  2  3  1  0  0  0  0
  2  5  1  0  0  0  0
  3  4  1  0  0  0  0
  3 17  1  0  0  0  0
  5  6  1  0  0  0  0
  7  6  1  6  0  0  0
  7  8  1  0  0  0  0
  7  9  1  0  0  0  0
 10  9  1  1  0  0  0
 10 11  1  0  0  0  0
 10 12  1  0  0  0  0
 11 16  1  0  0  0  0
 12 13  1  6  0  0  0
 12 14  1  0  0  0  0
 14 15  1  6  0  0  0
 14 16  1  0  0  0  0
 16 27  1  1  0  0  0
 18 19  2  0  0  0  0
 18 23  1  0  0  0  0
 19 20  1  0  0  0  0
 20 21  2  0  0  0  0
 21 22  1  0  0  0  0
 21 27  1  0  0  0  0
 22 23  2  0  0  0  0
 22 25  1  0  0  0  0
 23 24  1  0  0  0  0
 25 26  2  0  0  0  0
 26 27  1  0  0  0  0
M  END
>  <CHROM.1>
160.18590353,-74.27094643,75.03299309,-164.89014545,-87.64247625,170.38330268
12.22629606,-5.78658571,-11.92921548,20.47634026,1.07440513,-0.57751241,-0.83661650

>  <Name>
ligand

>  <RI>
0

>  <Rbt.Current_Directory>
/home/itssahil/PROJECTS/Mol_Feturizer/Test_systems_manuscript/rnas/4kqy

>  <Rbt.Executable>
rbdock ($Id: //depot/dev/client3/rdock/2013.1/src/exe/rbdock.cxx#4 $)

>  <Rbt.Library>
libRbt.so (2013.1, Build901 2013/11/27)

>  <Rbt.Parameter_File>
/export/apps/rDock/src/rDock_2013.1_src/data/scripts/dock_solv.prm

>  <Rbt.Receptor>
prm/pocket_docking_8.prm

>  <SCORE>
-22.8333

>  <SCORE.INTER>
-21.9609

>  <SCORE.INTER.CONST>
1

>  <SCORE.INTER.POLAR>
0

>  <SCORE.INTER.ROT>
7

>  <SCORE.INTER.SOLV>
12.1312

>  <SCORE.INTER.VDW>
-26.951

>  <SCORE.INTER.norm>
-0.813368

>  <SCORE.INTRA>
-0.872376

>  <SCORE.INTRA.DIHEDRAL>
-3.10226

>  <SCORE.INTRA.DIHEDRAL.0>
10.4103

>  <SCORE.INTRA.POLAR>
0

>  <SCORE.INTRA.POLAR.0>
0

>  <SCORE.INTRA.REPUL>
0

>  <SCORE.INTRA.REPUL.0>
0

>  <SCORE.INTRA.SOLV>
3.9179

>  <SCORE.INTRA.SOLV.lig_0>
-49.5008

>  <SCORE.INTRA.VDW>
-1.28019

>  <SCORE.INTRA.VDW.0>
-2.6946

>  <SCORE.INTRA.norm>
-0.0323102

>  <SCORE.RESTR>
0

>  <SCORE.RESTR.CAVITY>
0

>  <SCORE.RESTR.norm>
0

>  <SCORE.SYSTEM>
0

>  <SCORE.SYSTEM.CONST>
0

>  <SCORE.SYSTEM.DIHEDRAL>
0

>  <SCORE.SYSTEM.SOLV>
0

>  <SCORE.SYSTEM.norm>
0

>  <SCORE.heavy>
27

>  <SCORE.norm>
-0.845678

>  <RMSD>
5.903

$$$$
ligand
 OpenBabel02271912153D
libRbt.so/2013.1/901 2013/11/27
 27 29  0  0  0  0  0  0  0  0999 V2000
   -3.5888  -11.5454   20.1497 N   0  0  0  0  0  0  0  0  0  0  0  0
   -4.5672  -10.7784   20.8972 C   0  0  2  0  0  0  0  0  0  0  0  0
   -3.9110  -10.3397   22.1700 C   0  0  0  0  0  0  0  0  0  0  0  0
   -3.4616  -11.2034   22.9538 O   0  0  0  0  0  0  0  0  0  0  0  0
   -5.7990  -11.6349   21.2023 C   0  0  0  0  0  0  0  0  0  0  0  0
   -6.5196  -12.0705   19.9071 C   0  0  0  0  0  0  0  0  0  0  0  0
   -8.0095  -12.8116   20.1221 S   0  0  2  0  0  0  0  0  0  0  0  0
   -7.7931  -14.2755   20.8764 C   0  0  0  0  0  0  0  0  0  0  0  0
   -8.7655  -13.0162   18.6271 C   0  0  0  0  0  0  0  0  0  0  0  0
   -9.1460  -11.6937   17.9285 C   0  0  1  0  0  0  0  0  0  0  0  0
   -8.2317  -10.6210   18.2103 O   0  0  0  0  0  0  0  0  0  0  0  0
   -9.0867  -11.7684   16.4114 C   0  0  1  0  0  0  0  0  0  0  0  0
  -10.1511  -12.4720   15.7400 O   0  0  0  0  0  0  0  0  0  0  0  0
   -9.0119  -10.3016   16.0660 C   0  0  1  0  0  0  0  0  0  0  0  0
  -10.2724   -9.6798   16.2972 O   0  0  0  0  0  0  0  0  0  0  0  0
   -8.0238   -9.7851   17.0694 C   0  0  2  0  0  0  0  0  0  0  0  0
   -3.7957   -9.1144   22.4121 O   0  0  0  0  0  0  0  0  0  0  0  0
   -2.9886   -8.0840   17.2416 N   0  0  0  0  0  0  0  0  0  0  0  0
   -4.0409   -7.7158   18.0121 C   0  0  0  0  0  0  0  0  0  0  0  0
   -5.2732   -8.2269   17.8526 N   0  0  0  0  0  0  0  0  0  0  0  0
   -5.5382   -9.1565   16.9279 C   0  0  0  0  0  0  0  0  0  0  0  0
   -4.4435   -9.6099   16.0832 C   0  0  0  0  0  0  0  0  0  0  0  0
   -3.0921   -9.0278   16.2541 C   0  0  0  0  0  0  0  0  0  0  0  0
   -2.0174   -9.4137   15.4802 N   0  0  0  0  0  0  0  0  0  0  0  0
   -4.9605  -10.5166   15.2853 N   0  0  0  0  0  0  0  0  0  0  0  0
   -6.2674  -10.6386   15.5558 C   0  0  0  0  0  0  0  0  0  0  0  0
   -6.6227   -9.8250   16.5494 N   0  0  0  0  0  0  0  0  0  0  0  0
  2  1  1  6  0  0  0
  2  3  1  0  0  0  0
  2  5  1  0  0  0  0
  3  4  1  0  0  0  0
  3 17  1  0  0  0  0
  5  6  1  0  0  0  0
  7  6  1  6  0  0  0
  7  8  1  0  0  0  0
  7  9  1  0  0  0  0
 10  9  1  1  0  0  0
 10 11  1  0  0  0  0
 10 12  1  0  0  0  0
 11 16  1  0  0  0  0
 12 13  1  6  0  0  0
 12 14  1  0  0  0  0
 14 15  1  1  0  0  0
 14 16  1  0  0  0  0
 16 27  1  6  0  0  0
 18 19  2  0  0  0  0
 18 23  1  0  0  0  0
 19 20  1  0  0  0  0
 20 21  2  0  0  0  0
 21 22  1  0  0  0  0
 21 27  1  0  0  0  0
 22 23  2  0  0  0  0
 22 25  1  0  0  0  0
 23 24  1  0  0  0  0
 25 26  2  0  0  0  0
 26 27  1  0  0  0  0
M  END
>  <CHROM.1>
-58.95294827,-63.10174699,-170.97561357,-66.74011752,-65.58989859,32.28667309
-83.87393328,-6.26885436,-10.71432480,18.37953395,0.35589699,0.46402337,1.98149518

>  <Name>
ligand

>  <RI>
0

>  <Rbt.Current_Directory>
/home/itssahil/PROJECTS/Mol_Feturizer/Test_systems_manuscript/rnas/4kqy

>  <Rbt.Executable>
rbdock ($Id: //depot/dev/client3/rdock/2013.1/src/exe/rbdock.cxx#4 $)

>  <Rbt.Library>
libRbt.so (2013.1, Build901 2013/11/27)

>  <Rbt.Parameter_File>
/export/apps/rDock/src/rDock_2013.1_src/data/scripts/dock_solv.prm

>  <Rbt.Receptor>
prm/pocket_docking_8.prm

>  <SCORE>
-12.482

>  <SCORE.INTER>
-10.9029

>  <SCORE.INTER.CONST>
1

>  <SCORE.INTER.POLAR>
0

>  <SCORE.INTER.ROT>
7

>  <SCORE.INTER.SOLV>
9.41731

>  <SCORE.INTER.VDW>
-18.6744

>  <SCORE.INTER.norm>
-0.403812

>  <SCORE.INTRA>
-1.57908

>  <SCORE.INTRA.DIHEDRAL>
-4.84928

>  <SCORE.INTRA.DIHEDRAL.0>
10.4103

>  <SCORE.INTRA.POLAR>
0

>  <SCORE.INTRA.POLAR.0>
0

>  <SCORE.INTRA.REPUL>
0

>  <SCORE.INTRA.REPUL.0>
0

>  <SCORE.INTRA.SOLV>
0.160526

>  <SCORE.INTRA.SOLV.lig_0>
-49.5008

>  <SCORE.INTRA.VDW>
0.765294

>  <SCORE.INTRA.VDW.0>
-2.6946

>  <SCORE.INTRA.norm>
-0.0584845

>  <SCORE.RESTR>
0

>  <SCORE.RESTR.CAVITY>
0

>  <SCORE.RESTR.norm>
0

>  <SCORE.SYSTEM>
0

>  <SCORE.SYSTEM.CONST>
0

>  <SCORE.SYSTEM.DIHEDRAL>
0

>  <SCORE.SYSTEM.SOLV>
0

>  <SCORE.SYSTEM.norm>
0

>  <SCORE.heavy>
27

>  <SCORE.norm>
-0.462297

>  <RMSD>
5.919

$$$$
ligand
 OpenBabel02271912153D
libRbt.so/2013.1/901 2013/11/27
 27 29  0  0  0  0  0  0  0  0999 V2000
   -4.4644   -7.7612   16.0290 N   0  0  0  0  0  0  0  0  0  0  0  0
   -4.1926   -8.2982   17.3489 C   0  0  2  0  0  0  0  0  0  0  0  0
   -2.7529   -8.0207   17.6547 C   0  0  0  0  0  0  0  0  0  0  0  0
   -2.2942   -8.3408   18.7725 O   0  0  0  0  0  0  0  0  0  0  0  0
   -4.4614   -9.8052   17.3793 C   0  0  0  0  0  0  0  0  0  0  0  0
   -4.5200  -10.3399   18.8274 C   0  0  0  0  0  0  0  0  0  0  0  0
   -5.9759  -10.1042   19.6275 S   0  0  2  0  0  0  0  0  0  0  0  0
   -6.0862   -8.5206   20.1160 C   0  0  0  0  0  0  0  0  0  0  0  0
   -6.0737  -11.1459   20.9518 C   0  0  0  0  0  0  0  0  0  0  0  0
   -5.6056  -12.5862   20.6550 C   0  0  1  0  0  0  0  0  0  0  0  0
   -5.7125  -13.4615   21.7901 O   0  0  0  0  0  0  0  0  0  0  0  0
   -6.4606  -13.3028   19.6224 C   0  0  1  0  0  0  0  0  0  0  0  0
   -6.2900  -12.9236   18.2418 O   0  0  0  0  0  0  0  0  0  0  0  0
   -6.0956  -14.7381   19.9105 C   0  0  1  0  0  0  0  0  0  0  0  0
   -4.7719  -15.0064   19.4579 O   0  0  0  0  0  0  0  0  0  0  0  0
   -6.1143  -14.7797   21.4099 C   0  0  2  0  0  0  0  0  0  0  0  0
   -2.0259   -7.5017   16.7743 O   0  0  0  0  0  0  0  0  0  0  0  0
  -11.4202  -14.6945   21.0687 N   0  0  0  0  0  0  0  0  0  0  0  0
  -10.5028  -14.1282   20.2476 C   0  0  0  0  0  0  0  0  0  0  0  0
   -9.1795  -14.2241   20.4596 N   0  0  0  0  0  0  0  0  0  0  0  0
   -8.6775  -14.9091   21.4932 C   0  0  0  0  0  0  0  0  0  0  0  0
   -9.6122  -15.5595   22.3991 C   0  0  0  0  0  0  0  0  0  0  0  0
  -11.0699  -15.4334   22.1678 C   0  0  0  0  0  0  0  0  0  0  0  0
  -12.0036  -16.0227   22.9947 N   0  0  0  0  0  0  0  0  0  0  0  0
   -8.8727  -16.1634   23.3015 N   0  0  0  0  0  0  0  0  0  0  0  0
   -7.5813  -15.9226   23.0367 C   0  0  0  0  0  0  0  0  0  0  0  0
   -7.4549  -15.1707   21.9438 N   0  0  0  0  0  0  0  0  0  0  0  0
  2  1  1  6  0  0  0
  2  3  1  0  0  0  0
  2  5  1  0  0  0  0
  3  4  1  0  0  0  0
  3 17  1  0  0  0  0
  5  6  1  0  0  0  0
  7  6  1  1  0  0  0
  7  8  1  0  0  0  0
  7  9  1  0  0  0  0
 10  9  1  1  0  0  0
 10 11  1  0  0  0  0
 10 12  1  0  0  0  0
 11 16  1  0  0  0  0
 12 13  1  6  0  0  0
 12 14  1  0  0  0  0
 14 15  1  1  0  0  0
 14 16  1  0  0  0  0
 16 27  1  6  0  0  0
 18 19  2  0  0  0  0
 18 23  1  0  0  0  0
 19 20  1  0  0  0  0
 20 21  2  0  0  0  0
 21 22  1  0  0  0  0
 21 27  1  0  0  0  0
 22 23  2  0  0  0  0
 22 25  1  0  0  0  0
 23 24  1  0  0  0  0
 25 26  2  0  0  0  0
 26 27  1  0  0  0  0
M  END
>  <CHROM.1>
176.87262796,-166.00398690,80.79901953,-76.76622338,-43.48687028,-179.25649477
82.35108168,-6.54039354,-12.35156004,20.05657486,0.93845896,0.09924271,-0.47787983

>  <Name>
ligand

>  <RI>
0

>  <Rbt.Current_Directory>
/home/itssahil/PROJECTS/Mol_Feturizer/Test_systems_manuscript/rnas/4kqy

>  <Rbt.Executable>
rbdock ($Id: //depot/dev/client3/rdock/2013.1/src/exe/rbdock.cxx#4 $)

>  <Rbt.Library>
libRbt.so (2013.1, Build901 2013/11/27)

>  <Rbt.Parameter_File>
/export/apps/rDock/src/rDock_2013.1_src/data/scripts/dock_solv.prm

>  <Rbt.Receptor>
prm/pocket_docking_7.prm

>  <SCORE>
-15.1884

>  <SCORE.INTER>
-13.6004

>  <SCORE.INTER.CONST>
1

>  <SCORE.INTER.POLAR>
0

>  <SCORE.INTER.ROT>
7

>  <SCORE.INTER.SOLV>
12.4746

>  <SCORE.INTER.VDW>
-21.4918

>  <SCORE.INTER.norm>
-0.50372

>  <SCORE.INTRA>
-1.588

>  <SCORE.INTRA.DIHEDRAL>
-3.69851

>  <SCORE.INTRA.DIHEDRAL.0>
10.4103

>  <SCORE.INTRA.POLAR>
0

>  <SCORE.INTRA.POLAR.0>
0

>  <SCORE.INTRA.REPUL>
0

>  <SCORE.INTRA.REPUL.0>
0

>  <SCORE.INTRA.SOLV>
0.188326

>  <SCORE.INTRA.SOLV.lig_0>
-49.5008

>  <SCORE.INTRA.VDW>
0.167091

>  <SCORE.INTRA.VDW.0>
-2.6946

>  <SCORE.INTRA.norm>
-0.0588149

>  <SCORE.RESTR>
0

>  <SCORE.RESTR.CAVITY>
0

>  <SCORE.RESTR.norm>
0

>  <SCORE.SYSTEM>
0

>  <SCORE.SYSTEM.CONST>
0

>  <SCORE.SYSTEM.DIHEDRAL>
0

>  <SCORE.SYSTEM.SOLV>
0

>  <SCORE.SYSTEM.norm>
0

>  <SCORE.heavy>
27

>  <SCORE.norm>
-0.562535

>  <RMSD>
5.923

$$$$
ligand
 OpenBabel02271912153D
libRbt.so/2013.1/901 2013/11/27
 27 29  0  0  0  0  0  0  0  0999 V2000
   -3.2920   -9.4350   17.4328 N   0  0  0  0  0  0  0  0  0  0  0  0
   -4.5318   -9.2653   18.1665 C   0  0  2  0  0  0  0  0  0  0  0  0
   -5.5410   -8.7053   17.2121 C   0  0  0  0  0  0  0  0  0  0  0  0
   -5.1550   -7.9687   16.2790 O   0  0  0  0  0  0  0  0  0  0  0  0
   -4.3291   -8.3107   19.3462 C   0  0  0  0  0  0  0  0  0  0  0  0
   -3.3417   -8.8932   20.3817 C   0  0  0  0  0  0  0  0  0  0  0  0
   -4.0023   -9.9715   21.4845 S   0  0  2  0  0  0  0  0  0  0  0  0
   -3.0017  -10.0917   22.8048 C   0  0  0  0  0  0  0  0  0  0  0  0
   -4.2103  -11.4785   20.7537 C   0  0  0  0  0  0  0  0  0  0  0  0
   -5.4940  -11.5940   19.9048 C   0  0  1  0  0  0  0  0  0  0  0  0
   -5.8155  -12.9482   19.5460 O   0  0  0  0  0  0  0  0  0  0  0  0
   -6.7504  -11.1556   20.6397 C   0  0  1  0  0  0  0  0  0  0  0  0
   -6.9531   -9.7396   20.8201 O   0  0  0  0  0  0  0  0  0  0  0  0
   -7.8095  -11.8210   19.7960 C   0  0  1  0  0  0  0  0  0  0  0  0
   -7.9313  -11.1502   18.5453 O   0  0  0  0  0  0  0  0  0  0  0  0
   -7.2255  -13.1829   19.5623 C   0  0  2  0  0  0  0  0  0  0  0  0
   -6.7502   -9.0100   17.3466 O   0  0  0  0  0  0  0  0  0  0  0  0
   -6.2173  -15.9311   24.0015 N   0  0  0  0  0  0  0  0  0  0  0  0
   -5.4260  -15.0473   23.3464 C   0  0  0  0  0  0  0  0  0  0  0  0
   -5.8092  -14.4244   22.2193 N   0  0  0  0  0  0  0  0  0  0  0  0
   -7.0163  -14.6230   21.6779 C   0  0  0  0  0  0  0  0  0  0  0  0
   -7.9212  -15.5447   22.3479 C   0  0  0  0  0  0  0  0  0  0  0  0
   -7.4836  -16.2406   23.5802 C   0  0  0  0  0  0  0  0  0  0  0  0
   -8.2947  -17.1285   24.2558 N   0  0  0  0  0  0  0  0  0  0  0  0
   -9.0224  -15.5475   21.6315 N   0  0  0  0  0  0  0  0  0  0  0  0
   -8.8600  -14.7298   20.5822 C   0  0  0  0  0  0  0  0  0  0  0  0
   -7.6539  -14.1639   20.6059 N   0  0  0  0  0  0  0  0  0  0  0  0
  2  1  1  6  0  0  0
  2  3  1  0  0  0  0
  2  5  1  0  0  0  0
  3  4  1  0  0  0  0
  3 17  1  0  0  0  0
  5  6  1  0  0  0  0
  7  6  1  6  0  0  0
  7  8  1  0  0  0  0
  7  9  1  0  0  0  0
 10  9  1  1  0  0  0
 10 11  1  0  0  0  0
 10 12  1  0  0  0  0
 11 16  1  0  0  0  0
 12 13  1  6  0  0  0
 12 14  1  0  0  0  0
 14 15  1  6  0  0  0
 14 16  1  0  0  0  0
 16 27  1  1  0  0  0
 18 19  2  0  0  0  0
 18 23  1  0  0  0  0
 19 20  1  0  0  0  0
 20 21  2  0  0  0  0
 21 22  1  0  0  0  0
 21 27  1  0  0  0  0
 22 23  2  0  0  0  0
 22 25  1  0  0  0  0
 23 24  1  0  0  0  0
 25 26  2  0  0  0  0
 26 27  1  0  0  0  0
M  END
>  <CHROM.1>
-30.54358675,-64.21599063,-82.87144651,-160.45109056,-81.73464547,-166.56929067
16.37605710,-6.01391986,-11.94274209,20.51016452,-1.14809335,0.63783412,2.31785652

>  <Name>
ligand

>  <RI>
0

>  <Rbt.Current_Directory>
/home/itssahil/PROJECTS/Mol_Feturizer/Test_systems_manuscript/rnas/4kqy

>  <Rbt.Executable>
rbdock ($Id: //depot/dev/client3/rdock/2013.1/src/exe/rbdock.cxx#4 $)

>  <Rbt.Library>
libRbt.so (2013.1, Build901 2013/11/27)

>  <Rbt.Parameter_File>
/export/apps/rDock/src/rDock_2013.1_src/data/scripts/dock_solv.prm

>  <Rbt.Receptor>
prm/pocket_docking_6.prm

>  <SCORE>
-22.7402

>  <SCORE.INTER>
-20.9177

>  <SCORE.INTER.CONST>
1

>  <SCORE.INTER.POLAR>
0

>  <SCORE.INTER.ROT>
7

>  <SCORE.INTER.SOLV>
11.0241

>  <SCORE.INTER.VDW>
-25.8865

>  <SCORE.INTER.norm>
-0.774729

>  <SCORE.INTRA>
-1.82254

>  <SCORE.INTRA.DIHEDRAL>
-2.7199

>  <SCORE.INTRA.DIHEDRAL.0>
10.4103

>  <SCORE.INTRA.POLAR>
0

>  <SCORE.INTRA.POLAR.0>
0

>  <SCORE.INTRA.REPUL>
0

>  <SCORE.INTRA.REPUL.0>
0

>  <SCORE.INTRA.SOLV>
2.3928

>  <SCORE.INTRA.SOLV.lig_0>
-49.5008

>  <SCORE.INTRA.VDW>
-1.65898

>  <SCORE.INTRA.VDW.0>
-2.6946

>  <SCORE.INTRA.norm>
-0.0675014

>  <SCORE.RESTR>
0

>  <SCORE.RESTR.CAVITY>
0

>  <SCORE.RESTR.norm>
0

>  <SCORE.SYSTEM>
0

>  <SCORE.SYSTEM.CONST>
0

>  <SCORE.SYSTEM.DIHEDRAL>
0

>  <SCORE.SYSTEM.SOLV>
0

>  <SCORE.SYSTEM.norm>
0

>  <SCORE.heavy>
27

>  <SCORE.norm>
-0.842231

>  <RMSD>
5.949

$$$$
ligand
 OpenBabel02271912153D
libRbt.so/2013.1/901 2013/11/27
 27 29  0  0  0  0  0  0  0  0999 V2000
   -6.4669  -12.7229   18.8232 N   0  0  0  0  0  0  0  0  0  0  0  0
   -6.9374  -13.8357   19.6259 C   0  0  2  0  0  0  0  0  0  0  0  0
   -8.0180  -13.3132   20.5217 C   0  0  0  0  0  0  0  0  0  0  0  0
   -8.8609  -14.1091   20.9890 O   0  0  0  0  0  0  0  0  0  0  0  0
   -5.7917  -14.4170   20.4587 C   0  0  0  0  0  0  0  0  0  0  0  0
   -5.2758  -13.3985   21.4994 C   0  0  0  0  0  0  0  0  0  0  0  0
   -4.5400  -12.0289   20.8683 S   0  0  2  0  0  0  0  0  0  0  0  0
   -3.1811  -12.4733   20.0230 C   0  0  0  0  0  0  0  0  0  0  0  0
   -4.1446  -10.9668   22.1189 C   0  0  0  0  0  0  0  0  0  0  0  0
   -3.8897   -9.5169   21.6557 C   0  0  1  0  0  0  0  0  0  0  0  0
   -2.5901   -9.3295   21.0710 O   0  0  0  0  0  0  0  0  0  0  0  0
   -4.8091   -9.0671   20.5317 C   0  0  1  0  0  0  0  0  0  0  0  0
   -6.1742   -8.7560   20.8760 O   0  0  0  0  0  0  0  0  0  0  0  0
   -4.0322   -7.8908   19.9942 C   0  0  1  0  0  0  0  0  0  0  0  0
   -4.1019   -6.8000   20.9077 O   0  0  0  0  0  0  0  0  0  0  0  0
   -2.6275   -8.4167   19.9714 C   0  0  2  0  0  0  0  0  0  0  0  0
   -8.0398  -12.0933   20.8124 O   0  0  0  0  0  0  0  0  0  0  0  0
   -1.9489   -8.0505   14.7101 N   0  0  0  0  0  0  0  0  0  0  0  0
   -2.3032   -7.0865   15.5943 C   0  0  0  0  0  0  0  0  0  0  0  0
   -2.4468   -7.3228   16.9092 N   0  0  0  0  0  0  0  0  0  0  0  0
   -2.2266   -8.5317   17.4378 C   0  0  0  0  0  0  0  0  0  0  0  0
   -1.8212   -9.6044   16.5420 C   0  0  0  0  0  0  0  0  0  0  0  0
   -1.6828   -9.3392   15.0913 C   0  0  0  0  0  0  0  0  0  0  0  0
   -1.3072  -10.3165   14.1932 N   0  0  0  0  0  0  0  0  0  0  0  0
   -1.6598  -10.6630   17.3032 N   0  0  0  0  0  0  0  0  0  0  0  0
   -1.9484  -10.3349   18.5701 C   0  0  0  0  0  0  0  0  0  0  0  0
   -2.2861   -9.0491   18.6605 N   0  0  0  0  0  0  0  0  0  0  0  0
  2  1  1  1  0  0  0
  2  3  1  0  0  0  0
  2  5  1  0  0  0  0
  3  4  1  0  0  0  0
  3 17  1  0  0  0  0
  5  6  1  0  0  0  0
  7  6  1  1  0  0  0
  7  8  1  0  0  0  0
  7  9  1  0  0  0  0
 10  9  1  6  0  0  0
 10 11  1  0  0  0  0
 10 12  1  0  0  0  0
 11 16  1  0  0  0  0
 12 13  1  1  0  0  0
 12 14  1  0  0  0  0
 14 15  1  1  0  0  0
 14 16  1  0  0  0  0
 16 27  1  6  0  0  0
 18 19  2  0  0  0  0
 18 23  1  0  0  0  0
 19 20  1  0  0  0  0
 20 21  2  0  0  0  0
 21 22  1  0  0  0  0
 21 27  1  0  0  0  0
 22 23  2  0  0  0  0
 22 25  1  0  0  0  0
 23 24  1  0  0  0  0
 25 26  2  0  0  0  0
 26 27  1  0  0  0  0
M  END
>  <CHROM.1>
157.33843386,64.94237165,-65.80659824,-62.79395864,-161.37501711,-78.44732522
179.42530502,-4.13760232,-10.45722887,19.27300179,3.12773696,0.91564831,0.81442565

>  <Name>
ligand

>  <RI>
0

>  <Rbt.Current_Directory>
/home/itssahil/PROJECTS/Mol_Feturizer/Test_systems_manuscript/rnas/4kqy

>  <Rbt.Executable>
rbdock ($Id: //depot/dev/client3/rdock/2013.1/src/exe/rbdock.cxx#4 $)

>  <Rbt.Library>
libRbt.so (2013.1, Build901 2013/11/27)

>  <Rbt.Parameter_File>
/export/apps/rDock/src/rDock_2013.1_src/data/scripts/dock_solv.prm

>  <Rbt.Receptor>
prm/pocket_docking_5.prm

>  <SCORE>
-19.484

>  <SCORE.INTER>
-19.7936

>  <SCORE.INTER.CONST>
1

>  <SCORE.INTER.POLAR>
0

>  <SCORE.INTER.ROT>
7

>  <SCORE.INTER.SOLV>
10.1113

>  <SCORE.INTER.VDW>
-24.8328

>  <SCORE.INTER.norm>
-0.733096

>  <SCORE.INTRA>
0.309603

>  <SCORE.INTRA.DIHEDRAL>
-5.39867

>  <SCORE.INTRA.DIHEDRAL.0>
10.4103

>  <SCORE.INTRA.POLAR>
0

>  <SCORE.INTRA.POLAR.0>
0

>  <SCORE.INTRA.REPUL>
0

>  <SCORE.INTRA.REPUL.0>
0

>  <SCORE.INTRA.SOLV>
2.77328

>  <SCORE.INTRA.SOLV.lig_0>
-49.5008

>  <SCORE.INTRA.VDW>
1.6223

>  <SCORE.INTRA.VDW.0>
-2.6946

>  <SCORE.INTRA.norm>
0.0114668

>  <SCORE.RESTR>
0

>  <SCORE.RESTR.CAVITY>
0

>  <SCORE.RESTR.norm>
0

>  <SCORE.SYSTEM>
0

>  <SCORE.SYSTEM.CONST>
0

>  <SCORE.SYSTEM.DIHEDRAL>
0

>  <SCORE.SYSTEM.SOLV>
0

>  <SCORE.SYSTEM.norm>
0

>  <SCORE.heavy>
27

>  <SCORE.norm>
-0.721629

>  <RMSD>
5.968

$$$$
ligand
 OpenBabel02271912153D
libRbt.so/2013.1/901 2013/11/27
 27 29  0  0  0  0  0  0  0  0999 V2000
   -7.1362  -12.7080   19.7996 N   0  0  0  0  0  0  0  0  0  0  0  0
   -6.7418  -14.0360   20.2299 C   0  0  2  0  0  0  0  0  0  0  0  0
   -7.9945  -14.7870   20.5614 C   0  0  0  0  0  0  0  0  0  0  0  0
   -7.9480  -16.0309   20.6744 O   0  0  0  0  0  0  0  0  0  0  0  0
   -5.8316  -13.9523   21.4582 C   0  0  0  0  0  0  0  0  0  0  0  0
   -4.4186  -13.4538   21.0819 C   0  0  0  0  0  0  0  0  0  0  0  0
   -4.3162  -11.8402   20.6337 S   0  0  2  0  0  0  0  0  0  0  0  0
   -2.9171  -11.5950   19.7729 C   0  0  0  0  0  0  0  0  0  0  0  0
   -4.3498  -10.8632   22.0095 C   0  0  0  0  0  0  0  0  0  0  0  0
   -4.5043   -9.3575   21.7081 C   0  0  1  0  0  0  0  0  0  0  0  0
   -3.3076   -8.7597   21.1822 O   0  0  0  0  0  0  0  0  0  0  0  0
   -5.5146   -9.0572   20.6126 C   0  0  1  0  0  0  0  0  0  0  0  0
   -6.9118   -9.1706   20.9499 O   0  0  0  0  0  0  0  0  0  0  0  0
   -5.0922   -7.6622   20.2231 C   0  0  1  0  0  0  0  0  0  0  0  0
   -5.4569   -6.7379   21.2436 O   0  0  0  0  0  0  0  0  0  0  0  0
   -3.5971   -7.7782   20.1839 C   0  0  2  0  0  0  0  0  0  0  0  0
   -9.0600  -14.1530   20.7507 O   0  0  0  0  0  0  0  0  0  0  0  0
   -4.4505   -8.4249   14.9753 N   0  0  0  0  0  0  0  0  0  0  0  0
   -5.3136   -8.0184   15.9378 C   0  0  0  0  0  0  0  0  0  0  0  0
   -4.9618   -7.9054   17.2296 N   0  0  0  0  0  0  0  0  0  0  0  0
   -3.7194   -8.1694   17.6491 C   0  0  0  0  0  0  0  0  0  0  0  0
   -2.7396   -8.5892   16.6585 C   0  0  0  0  0  0  0  0  0  0  0  0
   -3.1409   -8.7283   15.2394 C   0  0  0  0  0  0  0  0  0  0  0  0
   -2.2585   -9.1271   14.2570 N   0  0  0  0  0  0  0  0  0  0  0  0
   -1.6182   -8.7676   17.3192 N   0  0  0  0  0  0  0  0  0  0  0  0
   -1.8339   -8.5141   18.6173 C   0  0  0  0  0  0  0  0  0  0  0  0
   -3.0982   -8.1472   18.8238 N   0  0  0  0  0  0  0  0  0  0  0  0
  2  1  1  1  0  0  0
  2  3  1  0  0  0  0
  2  5  1  0  0  0  0
  3  4  1  0  0  0  0
  3 17  1  0  0  0  0
  5  6  1  0  0  0  0
  7  6  1  1  0  0  0
  7  8  1  0  0  0  0
  7  9  1  0  0  0  0
 10  9  1  6  0  0  0
 10 11  1  0  0  0  0
 10 12  1  0  0  0  0
 11 16  1  0  0  0  0
 12 13  1  1  0  0  0
 12 14  1  0  0  0  0
 14 15  1  1  0  0  0
 14 16  1  0  0  0  0
 16 27  1  6  0  0  0
 18 19  2  0  0  0  0
 18 23  1  0  0  0  0
 19 20  1  0  0  0  0
 20 21  2  0  0  0  0
 21 22  1  0  0  0  0
 21 27  1  0  0  0  0
 22 23  2  0  0  0  0
 22 25  1  0  0  0  0
 23 24  1  0  0  0  0
 25 26  2  0  0  0  0
 26 27  1  0  0  0  0
M  END
>  <CHROM.1>
164.46282736,-73.54947639,70.28468745,-160.28894434,-170.08596482,-73.77521432
129.33300192,-4.78504163,-10.36344319,19.39896173,3.01364889,1.07765723,1.13995506

>  <Name>
ligand

>  <RI>
0

>  <Rbt.Current_Directory>
/home/itssahil/PROJECTS/Mol_Feturizer/Test_systems_manuscript/rnas/4kqy

>  <Rbt.Executable>
rbdock ($Id: //depot/dev/client3/rdock/2013.1/src/exe/rbdock.cxx#4 $)

>  <Rbt.Library>
libRbt.so (2013.1, Build901 2013/11/27)

>  <Rbt.Parameter_File>
/export/apps/rDock/src/rDock_2013.1_src/data/scripts/dock_solv.prm

>  <Rbt.Receptor>
prm/pocket_docking_6.prm

>  <SCORE>
-19.3569

>  <SCORE.INTER>
-17.8666

>  <SCORE.INTER.CONST>
1

>  <SCORE.INTER.POLAR>
0

>  <SCORE.INTER.ROT>
7

>  <SCORE.INTER.SOLV>
13.7079

>  <SCORE.INTER.VDW>
-24.747

>  <SCORE.INTER.norm>
-0.661724

>  <SCORE.INTRA>
-1.49032

>  <SCORE.INTRA.DIHEDRAL>
-4.69091

>  <SCORE.INTRA.DIHEDRAL.0>
10.4103

>  <SCORE.INTRA.POLAR>
0

>  <SCORE.INTRA.POLAR.0>
0

>  <SCORE.INTRA.REPUL>
0

>  <SCORE.INTRA.REPUL.0>
0

>  <SCORE.INTRA.SOLV>
2.83275

>  <SCORE.INTRA.SOLV.lig_0>
-49.5008

>  <SCORE.INTRA.VDW>
-0.561247

>  <SCORE.INTRA.VDW.0>
-2.6946

>  <SCORE.INTRA.norm>
-0.0551972

>  <SCORE.RESTR>
0

>  <SCORE.RESTR.CAVITY>
0

>  <SCORE.RESTR.norm>
0

>  <SCORE.SYSTEM>
0

>  <SCORE.SYSTEM.CONST>
0

>  <SCORE.SYSTEM.DIHEDRAL>
0

>  <SCORE.SYSTEM.SOLV>
0

>  <SCORE.SYSTEM.norm>
0

>  <SCORE.heavy>
27

>  <SCORE.norm>
-0.716921

>  <RMSD>
5.982

$$$$
ligand
 OpenBabel02271912153D
libRbt.so/2013.1/901 2013/11/27
 27 29  0  0  0  0  0  0  0  0999 V2000
   -7.2999  -10.8547   14.7599 N   0  0  0  0  0  0  0  0  0  0  0  0
   -7.8938  -11.3910   15.9698 C   0  0  2  0  0  0  0  0  0  0  0  0
   -9.0305  -12.2734   15.5547 C   0  0  0  0  0  0  0  0  0  0  0  0
   -9.8471  -12.6625   16.4173 O   0  0  0  0  0  0  0  0  0  0  0  0
   -8.4008  -10.2571   16.8651 C   0  0  0  0  0  0  0  0  0  0  0  0
   -8.6313  -10.7409   18.3140 C   0  0  0  0  0  0  0  0  0  0  0  0
   -7.2463  -10.9357   19.2409 S   0  0  2  0  0  0  0  0  0  0  0  0
   -7.6220  -11.7759   20.6235 C   0  0  0  0  0  0  0  0  0  0  0  0
   -6.5959   -9.4248   19.6184 C   0  0  0  0  0  0  0  0  0  0  0  0
   -5.3665   -9.4841   20.5495 C   0  0  1  0  0  0  0  0  0  0  0  0
   -4.4682  -10.5607   20.2332 O   0  0  0  0  0  0  0  0  0  0  0  0
   -4.4577   -8.2709   20.4348 C   0  0  1  0  0  0  0  0  0  0  0  0
   -4.9077   -7.0452   21.0463 O   0  0  0  0  0  0  0  0  0  0  0  0
   -3.1869   -8.8209   21.0337 C   0  0  1  0  0  0  0  0  0  0  0  0
   -3.3336   -8.9668   22.4430 O   0  0  0  0  0  0  0  0  0  0  0  0
   -3.1009  -10.1827   20.4104 C   0  0  2  0  0  0  0  0  0  0  0  0
   -9.1613  -12.5802   14.3456 O   0  0  0  0  0  0  0  0  0  0  0  0
   -0.6492  -12.7839   16.4736 N   0  0  0  0  0  0  0  0  0  0  0  0
   -1.3088  -13.2843   17.5465 C   0  0  0  0  0  0  0  0  0  0  0  0
   -1.8810  -12.5029   18.4777 N   0  0  0  0  0  0  0  0  0  0  0  0
   -1.8540  -11.1681   18.3936 C   0  0  0  0  0  0  0  0  0  0  0  0
   -1.1793  -10.5701   17.2514 C   0  0  0  0  0  0  0  0  0  0  0  0
   -0.5358  -11.4390   16.2389 C   0  0  0  0  0  0  0  0  0  0  0  0
    0.1224  -10.9302   15.1386 N   0  0  0  0  0  0  0  0  0  0  0  0
   -1.3082   -9.2713   17.4009 N   0  0  0  0  0  0  0  0  0  0  0  0
   -1.9796   -9.0291   18.5351 C   0  0  0  0  0  0  0  0  0  0  0  0
   -2.3173  -10.1688   19.1373 N   0  0  0  0  0  0  0  0  0  0  0  0
  2  1  1  6  0  0  0
  2  3  1  0  0  0  0
  2  5  1  0  0  0  0
  3  4  1  0  0  0  0
  3 17  1  0  0  0  0
  5  6  1  0  0  0  0
  7  6  1  6  0  0  0
  7  8  1  0  0  0  0
  7  9  1  0  0  0  0
 10  9  1  6  0  0  0
 10 11  1  0  0  0  0
 10 12  1  0  0  0  0
 11 16  1  0  0  0  0
 12 13  1  1  0  0  0
 12 14  1  0  0  0  0
 14 15  1  1  0  0  0
 14 16  1  0  0  0  0
 16 27  1  6  0  0  0
 18 19  2  0  0  0  0
 18 23  1  0  0  0  0
 19 20  1  0  0  0  0
 20 21  2  0  0  0  0
 21 22  1  0  0  0  0
 21 27  1  0  0  0  0
 22 23  2  0  0  0  0
 22 25  1  0  0  0  0
 23 24  1  0  0  0  0
 25 26  2  0  0  0  0
 26 27  1  0  0  0  0
M  END
>  <CHROM.1>
-167.33387517,-162.43053332,76.63180550,-167.15582311,176.18873968,40.37758674
-73.74705018,-4.80545863,-10.64565817,18.32043738,-2.86344086,0.02333227
1.06428769

>  <Name>
ligand

>  <RI>
0

>  <Rbt.Current_Directory>
/home/itssahil/PROJECTS/Mol_Feturizer/Test_systems_manuscript/rnas/4kqy

>  <Rbt.Executable>
rbdock ($Id: //depot/dev/client3/rdock/2013.1/src/exe/rbdock.cxx#4 $)

>  <Rbt.Library>
libRbt.so (2013.1, Build901 2013/11/27)

>  <Rbt.Parameter_File>
/export/apps/rDock/src/rDock_2013.1_src/data/scripts/dock_solv.prm

>  <Rbt.Receptor>
prm/pocket_docking_8.prm

>  <SCORE>
-11.7509

>  <SCORE.INTER>
-11.4134

>  <SCORE.INTER.CONST>
1

>  <SCORE.INTER.POLAR>
0

>  <SCORE.INTER.ROT>
7

>  <SCORE.INTER.SOLV>
12.2124

>  <SCORE.INTER.VDW>
-19.9464

>  <SCORE.INTER.norm>
-0.422718

>  <SCORE.INTRA>
-0.337561

>  <SCORE.INTRA.DIHEDRAL>
-3.80539

>  <SCORE.INTRA.DIHEDRAL.0>
10.4103

>  <SCORE.INTRA.POLAR>
0

>  <SCORE.INTRA.POLAR.0>
0

>  <SCORE.INTRA.REPUL>
0

>  <SCORE.INTRA.REPUL.0>
0

>  <SCORE.INTRA.SOLV>
-0.431631

>  <SCORE.INTRA.SOLV.lig_0>
-49.5008

>  <SCORE.INTRA.VDW>
1.78095

>  <SCORE.INTRA.VDW.0>
-2.6946

>  <SCORE.INTRA.norm>
-0.0125022

>  <SCORE.RESTR>
0

>  <SCORE.RESTR.CAVITY>
0

>  <SCORE.RESTR.norm>
0

>  <SCORE.SYSTEM>
0

>  <SCORE.SYSTEM.CONST>
0

>  <SCORE.SYSTEM.DIHEDRAL>
0

>  <SCORE.SYSTEM.SOLV>
0

>  <SCORE.SYSTEM.norm>
0

>  <SCORE.heavy>
27

>  <SCORE.norm>
-0.43522

>  <RMSD>
5.984

$$$$
ligand
 OpenBabel02271912153D
libRbt.so/2013.1/901 2013/11/27
 27 29  0  0  0  0  0  0  0  0999 V2000
   -4.5610   -7.0736   19.0221 N   0  0  0  0  0  0  0  0  0  0  0  0
   -5.6388   -7.0990   19.9926 C   0  0  2  0  0  0  0  0  0  0  0  0
   -5.2028   -6.2740   21.1641 C   0  0  0  0  0  0  0  0  0  0  0  0
   -3.9815   -6.1207   21.3813 O   0  0  0  0  0  0  0  0  0  0  0  0
   -5.9285   -8.5364   20.4333 C   0  0  0  0  0  0  0  0  0  0  0  0
   -4.6612   -9.2238   20.9882 C   0  0  0  0  0  0  0  0  0  0  0  0
   -4.8867  -10.7679   21.6047 S   0  0  2  0  0  0  0  0  0  0  0  0
   -3.4894  -11.2750   22.3458 C   0  0  0  0  0  0  0  0  0  0  0  0
   -5.3181  -11.8217   20.3589 C   0  0  0  0  0  0  0  0  0  0  0  0
   -6.1854  -13.0138   20.8155 C   0  0  1  0  0  0  0  0  0  0  0  0
   -7.5812  -12.6891   20.9256 O   0  0  0  0  0  0  0  0  0  0  0  0
   -6.2067  -14.1655   19.8235 C   0  0  1  0  0  0  0  0  0  0  0  0
   -5.0330  -14.9998   19.7508 O   0  0  0  0  0  0  0  0  0  0  0  0
   -7.4472  -14.8956   20.2755 C   0  0  1  0  0  0  0  0  0  0  0  0
   -7.2022  -15.5564   21.5133 O   0  0  0  0  0  0  0  0  0  0  0  0
   -8.4145  -13.7727   20.5071 C   0  0  2  0  0  0  0  0  0  0  0  0
   -6.0689   -5.7262   21.8872 O   0  0  0  0  0  0  0  0  0  0  0  0
   -9.5696  -10.5667   16.4250 N   0  0  0  0  0  0  0  0  0  0  0  0
   -8.6379  -10.4099   17.3966 C   0  0  0  0  0  0  0  0  0  0  0  0
   -8.4570  -11.3051   18.3820 N   0  0  0  0  0  0  0  0  0  0  0  0
   -9.1777  -12.4296   18.4560 C   0  0  0  0  0  0  0  0  0  0  0  0
  -10.1799  -12.6664   17.4279 C   0  0  0  0  0  0  0  0  0  0  0  0
  -10.3848  -11.6655   16.3553 C   0  0  0  0  0  0  0  0  0  0  0  0
  -11.3225  -11.8323   15.3574 N   0  0  0  0  0  0  0  0  0  0  0  0
  -10.7250  -13.8252   17.7213 N   0  0  0  0  0  0  0  0  0  0  0  0
  -10.1601  -14.3001   18.8399 C   0  0  0  0  0  0  0  0  0  0  0  0
   -9.2216  -13.4662   19.2865 N   0  0  0  0  0  0  0  0  0  0  0  0
  2  1  1  6  0  0  0
  2  3  1  0  0  0  0
  2  5  1  0  0  0  0
  3  4  1  0  0  0  0
  3 17  1  0  0  0  0
  5  6  1  0  0  0  0
  7  6  1  6  0  0  0
  7  8  1  0  0  0  0
  7  9  1  0  0  0  0
 10  9  1  6  0  0  0
 10 11  1  0  0  0  0
 10 12  1  0  0  0  0
 11 16  1  0  0  0  0
 12 13  1  1  0  0  0
 12 14  1  0  0  0  0
 14 15  1  1  0  0  0
 14 16  1  0  0  0  0
 16 27  1  6  0  0  0
 18 19  2  0  0  0  0
 18 23  1  0  0  0  0
 19 20  1  0  0  0  0
 20 21  2  0  0  0  0
 21 22  1  0  0  0  0
 21 27  1  0  0  0  0
 22 23  2  0  0  0  0
 22 25  1  0  0  0  0
 23 24  1  0  0  0  0
 25 26  2  0  0  0  0
 26 27  1  0  0  0  0
M  END
>  <CHROM.1>
-24.72000552,55.85974698,175.75419626,-172.15138220,-151.79370260,82.47957487
8.67210868,-7.04768762,-11.26545263,19.74285758,0.70850368,-0.70730580,-0.19254776

>  <Name>
ligand

>  <RI>
0

>  <Rbt.Current_Directory>
/home/itssahil/PROJECTS/Mol_Feturizer/Test_systems_manuscript/rnas/4kqy

>  <Rbt.Executable>
rbdock ($Id: //depot/dev/client3/rdock/2013.1/src/exe/rbdock.cxx#4 $)

>  <Rbt.Library>
libRbt.so (2013.1, Build901 2013/11/27)

>  <Rbt.Parameter_File>
/export/apps/rDock/src/rDock_2013.1_src/data/scripts/dock_solv.prm

>  <Rbt.Receptor>
prm/pocket_docking_8.prm

>  <SCORE>
-21.6009

>  <SCORE.INTER>
-19.8854

>  <SCORE.INTER.CONST>
1

>  <SCORE.INTER.POLAR>
0

>  <SCORE.INTER.ROT>
7

>  <SCORE.INTER.SOLV>
12.541

>  <SCORE.INTER.VDW>
-25.704

>  <SCORE.INTER.norm>
-0.736497

>  <SCORE.INTRA>
-1.71551

>  <SCORE.INTRA.DIHEDRAL>
-3.62887

>  <SCORE.INTRA.DIHEDRAL.0>
10.4103

>  <SCORE.INTRA.POLAR>
0

>  <SCORE.INTRA.POLAR.0>
0

>  <SCORE.INTRA.REPUL>
0

>  <SCORE.INTRA.REPUL.0>
0

>  <SCORE.INTRA.SOLV>
0.0872312

>  <SCORE.INTRA.SOLV.lig_0>
-49.5008

>  <SCORE.INTRA.VDW>
0.0553149

>  <SCORE.INTRA.VDW.0>
-2.6946

>  <SCORE.INTRA.norm>
-0.0635372

>  <SCORE.RESTR>
0

>  <SCORE.RESTR.CAVITY>
0

>  <SCORE.RESTR.norm>
0

>  <SCORE.SYSTEM>
0

>  <SCORE.SYSTEM.CONST>
0

>  <SCORE.SYSTEM.DIHEDRAL>
0

>  <SCORE.SYSTEM.SOLV>
0

>  <SCORE.SYSTEM.norm>
0

>  <SCORE.heavy>
27

>  <SCORE.norm>
-0.800034

>  <RMSD>
5.992

$$$$
ligand
 OpenBabel02271912153D
libRbt.so/2013.1/901 2013/11/27
 27 29  0  0  0  0  0  0  0  0999 V2000
   -6.2088  -14.0914   18.9915 N   0  0  0  0  0  0  0  0  0  0  0  0
   -6.4666  -13.4213   20.2519 C   0  0  2  0  0  0  0  0  0  0  0  0
   -7.8661  -13.7643   20.6605 C   0  0  0  0  0  0  0  0  0  0  0  0
   -8.0476  -14.5313   21.6306 O   0  0  0  0  0  0  0  0  0  0  0  0
   -6.3158  -11.9060   20.0930 C   0  0  0  0  0  0  0  0  0  0  0  0
   -4.8487  -11.5100   19.8150 C   0  0  0  0  0  0  0  0  0  0  0  0
   -3.8460  -11.4582   21.1593 S   0  0  2  0  0  0  0  0  0  0  0  0
   -3.9279  -12.9088   21.9641 C   0  0  0  0  0  0  0  0  0  0  0  0
   -4.3111  -10.1881   22.1688 C   0  0  0  0  0  0  0  0  0  0  0  0
   -4.3105   -8.8061   21.4819 C   0  0  1  0  0  0  0  0  0  0  0  0
   -3.0956   -8.5307   20.7650 O   0  0  0  0  0  0  0  0  0  0  0  0
   -5.3591   -8.6694   20.3898 C   0  0  1  0  0  0  0  0  0  0  0  0
   -6.7302   -8.5038   20.8040 O   0  0  0  0  0  0  0  0  0  0  0  0
   -4.8069   -7.4931   19.6233 C   0  0  1  0  0  0  0  0  0  0  0  0
   -4.9819   -6.2949   20.3734 O   0  0  0  0  0  0  0  0  0  0  0  0
   -3.3432   -7.8135   19.5534 C   0  0  2  0  0  0  0  0  0  0  0  0
   -8.8303  -13.2521   20.0431 O   0  0  0  0  0  0  0  0  0  0  0  0
   -4.8207  -10.8222   15.4255 N   0  0  0  0  0  0  0  0  0  0  0  0
   -5.5859  -10.2802   16.4040 C   0  0  0  0  0  0  0  0  0  0  0  0
   -5.0740   -9.5391   17.4009 N   0  0  0  0  0  0  0  0  0  0  0  0
   -3.7664   -9.2686   17.4805 C   0  0  0  0  0  0  0  0  0  0  0  0
   -2.8947   -9.8042   16.4457 C   0  0  0  0  0  0  0  0  0  0  0  0
   -3.4652  -10.6352   15.3603 C   0  0  0  0  0  0  0  0  0  0  0  0
   -2.6888  -11.1741   14.3556 N   0  0  0  0  0  0  0  0  0  0  0  0
   -1.6857   -9.3875   16.7468 N   0  0  0  0  0  0  0  0  0  0  0  0
   -1.7430   -8.6678   17.8758 C   0  0  0  0  0  0  0  0  0  0  0  0
   -2.9960   -8.5869   18.3220 N   0  0  0  0  0  0  0  0  0  0  0  0
  2  1  1  6  0  0  0
  2  3  1  0  0  0  0
  2  5  1  0  0  0  0
  3  4  1  0  0  0  0
  3 17  1  0  0  0  0
  5  6  1  0  0  0  0
  7  6  1  6  0  0  0
  7  8  1  0  0  0  0
  7  9  1  0  0  0  0
 10  9  1  6  0  0  0
 10 11  1  0  0  0  0
 10 12  1  0  0  0  0
 11 16  1  0  0  0  0
 12 13  1  1  0  0  0
 12 14  1  0  0  0  0
 14 15  1  1  0  0  0
 14 16  1  0  0  0  0
 16 27  1  6  0  0  0
 18 19  2  0  0  0  0
 18 23  1  0  0  0  0
 19 20  1  0  0  0  0
 20 21  2  0  0  0  0
 21 22  1  0  0  0  0
 21 27  1  0  0  0  0
 22 23  2  0  0  0  0
 22 25  1  0  0  0  0
 23 24  1  0  0  0  0
 25 26  2  0  0  0  0
 26 27  1  0  0  0  0
M  END
>  <CHROM.1>
109.02511091,-67.42740730,-79.60396615,53.93851909,-57.14050125,-49.27172948
99.92581468,-4.75313087,-10.48394922,19.27871730,3.02354134,0.97372299,1.02102603

>  <Name>
ligand

>  <RI>
0

>  <Rbt.Current_Directory>
/home/itssahil/PROJECTS/Mol_Feturizer/Test_systems_manuscript/rnas/4kqy

>  <Rbt.Executable>
rbdock ($Id: //depot/dev/client3/rdock/2013.1/src/exe/rbdock.cxx#4 $)

>  <Rbt.Library>
libRbt.so (2013.1, Build901 2013/11/27)

>  <Rbt.Parameter_File>
/export/apps/rDock/src/rDock_2013.1_src/data/scripts/dock_solv.prm

>  <Rbt.Receptor>
prm/pocket_docking_3.prm

>  <SCORE>
-11.9382

>  <SCORE.INTER>
-10.0585

>  <SCORE.INTER.CONST>
1

>  <SCORE.INTER.POLAR>
0

>  <SCORE.INTER.ROT>
7

>  <SCORE.INTER.SOLV>
10.548

>  <SCORE.INTER.VDW>
-18.4884

>  <SCORE.INTER.norm>
-0.372538

>  <SCORE.INTRA>
-1.92413

>  <SCORE.INTRA.DIHEDRAL>
-5.51533

>  <SCORE.INTRA.DIHEDRAL.0>
10.4103

>  <SCORE.INTRA.POLAR>
0

>  <SCORE.INTRA.POLAR.0>
0

>  <SCORE.INTRA.REPUL>
0

>  <SCORE.INTRA.REPUL.0>
0

>  <SCORE.INTRA.SOLV>
1.49248

>  <SCORE.INTRA.SOLV.lig_0>
-49.5008

>  <SCORE.INTRA.VDW>
0.0872933

>  <SCORE.INTRA.VDW.0>
-2.6946

>  <SCORE.INTRA.norm>
-0.0712642

>  <SCORE.RESTR>
0.0444266

>  <SCORE.RESTR.CAVITY>
0.0444266

>  <SCORE.RESTR.norm>
0.00164543

>  <SCORE.SYSTEM>
0

>  <SCORE.SYSTEM.CONST>
0

>  <SCORE.SYSTEM.DIHEDRAL>
0

>  <SCORE.SYSTEM.SOLV>
0

>  <SCORE.SYSTEM.norm>
0

>  <SCORE.heavy>
27

>  <SCORE.norm>
-0.442157

>  <RMSD>
6.011

$$$$
ligand
 OpenBabel02271912153D
libRbt.so/2013.1/901 2013/11/27
 27 29  0  0  0  0  0  0  0  0999 V2000
   -2.2121   -7.7222   17.3423 N   0  0  0  0  0  0  0  0  0  0  0  0
   -1.9543   -8.9113   18.1321 C   0  0  2  0  0  0  0  0  0  0  0  0
   -2.1828  -10.0947   17.2429 C   0  0  0  0  0  0  0  0  0  0  0  0
   -3.1974  -10.1225   16.5134 O   0  0  0  0  0  0  0  0  0  0  0  0
   -2.8933   -8.9653   19.3403 C   0  0  0  0  0  0  0  0  0  0  0  0
   -2.7460  -10.2956   20.1117 C   0  0  0  0  0  0  0  0  0  0  0  0
   -3.6989  -10.4452   21.4846 S   0  0  2  0  0  0  0  0  0  0  0  0
   -2.8926   -9.8046   22.7877 C   0  0  0  0  0  0  0  0  0  0  0  0
   -4.0655  -12.0712   21.7496 C   0  0  0  0  0  0  0  0  0  0  0  0
   -4.9037  -12.7181   20.6268 C   0  0  1  0  0  0  0  0  0  0  0  0
   -5.0943  -14.1315   20.8052 O   0  0  0  0  0  0  0  0  0  0  0  0
   -6.3358  -12.2116   20.5684 C   0  0  1  0  0  0  0  0  0  0  0  0
   -6.5518  -10.8951   20.0215 O   0  0  0  0  0  0  0  0  0  0  0  0
   -6.9868  -13.3167   19.7739 C   0  0  1  0  0  0  0  0  0  0  0  0
   -6.5768  -13.2465   18.4116 O   0  0  0  0  0  0  0  0  0  0  0  0
   -6.3988  -14.5487   20.3956 C   0  0  2  0  0  0  0  0  0  0  0  0
   -1.3375  -11.0210   17.2223 O   0  0  0  0  0  0  0  0  0  0  0  0
  -11.1695  -15.7381   22.4209 N   0  0  0  0  0  0  0  0  0  0  0  0
  -10.8619  -15.2290   21.2032 C   0  0  0  0  0  0  0  0  0  0  0  0
   -9.6004  -14.9676   20.8218 N   0  0  0  0  0  0  0  0  0  0  0  0
   -8.5555  -15.2152   21.6195 C   0  0  0  0  0  0  0  0  0  0  0  0
   -8.8195  -15.7837   22.9327 C   0  0  0  0  0  0  0  0  0  0  0  0
  -10.2147  -16.0520   23.3517 C   0  0  0  0  0  0  0  0  0  0  0  0
  -10.5271  -16.5847   24.5852 N   0  0  0  0  0  0  0  0  0  0  0  0
   -7.6434  -15.9387   23.4973 N   0  0  0  0  0  0  0  0  0  0  0  0
   -6.6968  -15.4994   22.6566 C   0  0  0  0  0  0  0  0  0  0  0  0
   -7.2387  -15.0661   21.5190 N   0  0  0  0  0  0  0  0  0  0  0  0
  2  1  1  6  0  0  0
  2  3  1  0  0  0  0
  2  5  1  0  0  0  0
  3  4  1  0  0  0  0
  3 17  1  0  0  0  0
  5  6  1  0  0  0  0
  7  6  1  6  0  0  0
  7  8  1  0  0  0  0
  7  9  1  0  0  0  0
 10  9  1  1  0  0  0
 10 11  1  0  0  0  0
 10 12  1  0  0  0  0
 11 16  1  0  0  0  0
 12 13  1  6  0  0  0
 12 14  1  0  0  0  0
 14 15  1  6  0  0  0
 14 16  1  0  0  0  0
 16 27  1  1  0  0  0
 18 19  2  0  0  0  0
 18 23  1  0  0  0  0
 19 20  1  0  0  0  0
 20 21  2  0  0  0  0
 21 22  1  0  0  0  0
 21 27  1  0  0  0  0
 22 23  2  0  0  0  0
 22 25  1  0  0  0  0
 23 24  1  0  0  0  0
 25 26  2  0  0  0  0
 26 27  1  0  0  0  0
M  END
>  <CHROM.1>
-45.04705990,173.79619886,178.30196845,-87.50093952,-63.23962360,174.26154186
160.50718524,-5.77561297,-12.64438994,20.61032215,0.49207977,-0.67051830
-1.43294015

>  <Name>
ligand

>  <RI>
0

>  <Rbt.Current_Directory>
/home/itssahil/PROJECTS/Mol_Feturizer/Test_systems_manuscript/rnas/4kqy

>  <Rbt.Executable>
rbdock ($Id: //depot/dev/client3/rdock/2013.1/src/exe/rbdock.cxx#4 $)

>  <Rbt.Library>
libRbt.so (2013.1, Build901 2013/11/27)

>  <Rbt.Parameter_File>
/export/apps/rDock/src/rDock_2013.1_src/data/scripts/dock_solv.prm

>  <Rbt.Receptor>
prm/pocket_docking_7.prm

>  <SCORE>
-20.2745

>  <SCORE.INTER>
-17.784

>  <SCORE.INTER.CONST>
1

>  <SCORE.INTER.POLAR>
0

>  <SCORE.INTER.ROT>
7

>  <SCORE.INTER.SOLV>
13.9877

>  <SCORE.INTER.VDW>
-24.7852

>  <SCORE.INTER.norm>
-0.658665

>  <SCORE.INTRA>
-2.50009

>  <SCORE.INTRA.DIHEDRAL>
-5.20452

>  <SCORE.INTRA.DIHEDRAL.0>
10.4103

>  <SCORE.INTRA.POLAR>
0

>  <SCORE.INTRA.POLAR.0>
0

>  <SCORE.INTRA.REPUL>
0

>  <SCORE.INTRA.REPUL.0>
0

>  <SCORE.INTRA.SOLV>
-0.391987

>  <SCORE.INTRA.SOLV.lig_0>
-49.5008

>  <SCORE.INTRA.VDW>
0.29816

>  <SCORE.INTRA.VDW.0>
-2.6946

>  <SCORE.INTRA.norm>
-0.0925961

>  <SCORE.RESTR>
0.00955495

>  <SCORE.RESTR.CAVITY>
0.00955495

>  <SCORE.RESTR.norm>
0.000353887

>  <SCORE.SYSTEM>
0

>  <SCORE.SYSTEM.CONST>
0

>  <SCORE.SYSTEM.DIHEDRAL>
0

>  <SCORE.SYSTEM.SOLV>
0

>  <SCORE.SYSTEM.norm>
0

>  <SCORE.heavy>
27

>  <SCORE.norm>
-0.750907

>  <RMSD>
6.060

$$$$
ligand
 OpenBabel02271912153D
libRbt.so/2013.1/901 2013/11/27
 27 29  0  0  0  0  0  0  0  0999 V2000
   -0.9481  -13.3484   12.1413 N   0  0  0  0  0  0  0  0  0  0  0  0
   -2.2924  -13.0575   12.6024 C   0  0  2  0  0  0  0  0  0  0  0  0
   -2.7463  -11.8167   11.8970 C   0  0  0  0  0  0  0  0  0  0  0  0
   -3.8995  -11.7754   11.4168 O   0  0  0  0  0  0  0  0  0  0  0  0
   -2.3031  -12.8411   14.1181 C   0  0  0  0  0  0  0  0  0  0  0  0
   -3.7447  -12.7767   14.6697 C   0  0  0  0  0  0  0  0  0  0  0  0
   -4.6020  -11.3845   14.2932 S   0  0  2  0  0  0  0  0  0  0  0  0
   -3.7157  -10.0533   14.7417 C   0  0  0  0  0  0  0  0  0  0  0  0
   -6.0936  -11.4025   15.0827 C   0  0  0  0  0  0  0  0  0  0  0  0
   -6.0212  -11.0080   16.5730 C   0  0  1  0  0  0  0  0  0  0  0  0
   -7.2720  -10.5273   17.0929 O   0  0  0  0  0  0  0  0  0  0  0  0
   -5.7236  -12.1772   17.4978 C   0  0  1  0  0  0  0  0  0  0  0  0
   -4.3701  -12.6731   17.5254 O   0  0  0  0  0  0  0  0  0  0  0  0
   -6.1937  -11.6127   18.8156 C   0  0  1  0  0  0  0  0  0  0  0  0
   -5.2845  -10.6161   19.2729 O   0  0  0  0  0  0  0  0  0  0  0  0
   -7.4881  -10.9543   18.4399 C   0  0  2  0  0  0  0  0  0  0  0  0
   -1.9740  -10.8308   11.8279 O   0  0  0  0  0  0  0  0  0  0  0  0
   -9.8209  -15.0779   20.8545 N   0  0  0  0  0  0  0  0  0  0  0  0
   -8.6042  -14.5286   21.0881 C   0  0  0  0  0  0  0  0  0  0  0  0
   -8.1327  -13.4819   20.3899 N   0  0  0  0  0  0  0  0  0  0  0  0
   -8.8495  -12.8962   19.4243 C   0  0  0  0  0  0  0  0  0  0  0  0
  -10.1746  -13.4267   19.1412 C   0  0  0  0  0  0  0  0  0  0  0  0
  -10.6792  -14.5921   19.9036 C   0  0  0  0  0  0  0  0  0  0  0  0
  -11.9238  -15.1418   19.6766 N   0  0  0  0  0  0  0  0  0  0  0  0
  -10.6609  -12.6766   18.1785 N   0  0  0  0  0  0  0  0  0  0  0  0
   -9.7469  -11.7565   17.8410 C   0  0  0  0  0  0  0  0  0  0  0  0
   -8.6530  -11.8789   18.5919 N   0  0  0  0  0  0  0  0  0  0  0  0
  2  1  1  6  0  0  0
  2  3  1  0  0  0  0
  2  5  1  0  0  0  0
  3  4  1  0  0  0  0
  3 17  1  0  0  0  0
  5  6  1  0  0  0  0
  7  6  1  1  0  0  0
  7  8  1  0  0  0  0
  7  9  1  0  0  0  0
 10  9  1  6  0  0  0
 10 11  1  0  0  0  0
 10 12  1  0  0  0  0
 11 16  1  0  0  0  0
 12 13  1  1  0  0  0
 12 14  1  0  0  0  0
 14 15  1  6  0  0  0
 14 16  1  0  0  0  0
 16 27  1  6  0  0  0
 18 19  2  0  0  0  0
 18 23  1  0  0  0  0
 19 20  1  0  0  0  0
 20 21  2  0  0  0  0
 21 22  1  0  0  0  0
 21 27  1  0  0  0  0
 22 23  2  0  0  0  0
 22 25  1  0  0  0  0
 23 24  1  0  0  0  0
 25 26  2  0  0  0  0
 26 27  1  0  0  0  0
M  END
>  <CHROM.1>
135.50348362,-169.99331193,-72.02612684,-53.08701738,78.85318538,157.27367700
146.74246913,-6.17825325,-12.28535511,16.58200191,0.49032783,-0.65357719
-2.18498849

>  <Name>
ligand

>  <RI>
0

>  <Rbt.Current_Directory>
/home/itssahil/PROJECTS/Mol_Feturizer/Test_systems_manuscript/rnas/4kqy

>  <Rbt.Executable>
rbdock ($Id: //depot/dev/client3/rdock/2013.1/src/exe/rbdock.cxx#4 $)

>  <Rbt.Library>
libRbt.so (2013.1, Build901 2013/11/27)

>  <Rbt.Parameter_File>
/export/apps/rDock/src/rDock_2013.1_src/data/scripts/dock_solv.prm

>  <Rbt.Receptor>
prm/pocket_docking_6.prm

>  <SCORE>
-8.76282

>  <SCORE.INTER>
-7.1226

>  <SCORE.INTER.CONST>
1

>  <SCORE.INTER.POLAR>
0

>  <SCORE.INTER.ROT>
7

>  <SCORE.INTER.SOLV>
8.59013

>  <SCORE.INTER.VDW>
-15.8784

>  <SCORE.INTER.norm>
-0.2638

>  <SCORE.INTRA>
-1.64022

>  <SCORE.INTRA.DIHEDRAL>
-4.10443

>  <SCORE.INTRA.DIHEDRAL.0>
10.4103

>  <SCORE.INTRA.POLAR>
0

>  <SCORE.INTRA.POLAR.0>
0

>  <SCORE.INTRA.REPUL>
0

>  <SCORE.INTRA.REPUL.0>
0

>  <SCORE.INTRA.SOLV>
-0.0446176

>  <SCORE.INTRA.SOLV.lig_0>
-49.5008

>  <SCORE.INTRA.VDW>
0.434298

>  <SCORE.INTRA.VDW.0>
-2.6946

>  <SCORE.INTRA.norm>
-0.060749

>  <SCORE.RESTR>
0

>  <SCORE.RESTR.CAVITY>
0

>  <SCORE.RESTR.norm>
0

>  <SCORE.SYSTEM>
0

>  <SCORE.SYSTEM.CONST>
0

>  <SCORE.SYSTEM.DIHEDRAL>
0

>  <SCORE.SYSTEM.SOLV>
0

>  <SCORE.SYSTEM.norm>
0

>  <SCORE.heavy>
27

>  <SCORE.norm>
-0.324549

>  <RMSD>
6.132

$$$$
ligand
 OpenBabel02271912153D
libRbt.so/2013.1/901 2013/11/27
 27 29  0  0  0  0  0  0  0  0999 V2000
   -5.8772  -14.3274   22.0797 N   0  0  0  0  0  0  0  0  0  0  0  0
   -5.8159  -13.5198   20.8762 C   0  0  2  0  0  0  0  0  0  0  0  0
   -6.4681  -14.3044   19.7798 C   0  0  0  0  0  0  0  0  0  0  0  0
   -6.2749  -13.9687   18.5914 O   0  0  0  0  0  0  0  0  0  0  0  0
   -4.3613  -13.2086   20.5140 C   0  0  0  0  0  0  0  0  0  0  0  0
   -3.6792  -12.3495   21.6018 C   0  0  0  0  0  0  0  0  0  0  0  0
   -3.6176  -10.7021   21.2898 S   0  0  2  0  0  0  0  0  0  0  0  0
   -2.6842   -9.9571   22.4442 C   0  0  0  0  0  0  0  0  0  0  0  0
   -5.1802  -10.0645   21.2826 C   0  0  0  0  0  0  0  0  0  0  0  0
   -5.6446   -9.5535   19.9024 C   0  0  1  0  0  0  0  0  0  0  0  0
   -4.6343   -8.8043   19.2067 O   0  0  0  0  0  0  0  0  0  0  0  0
   -5.9493  -10.6666   18.9129 C   0  0  1  0  0  0  0  0  0  0  0  0
   -7.1778  -11.3988   19.0961 O   0  0  0  0  0  0  0  0  0  0  0  0
   -5.8809   -9.9053   17.6121 C   0  0  1  0  0  0  0  0  0  0  0  0
   -7.0165   -9.0553   17.4825 O   0  0  0  0  0  0  0  0  0  0  0  0
   -4.6579   -9.0573   17.7999 C   0  0  2  0  0  0  0  0  0  0  0  0
   -7.1702  -15.3022   20.0710 O   0  0  0  0  0  0  0  0  0  0  0  0
   -2.0739  -13.4820   16.3783 N   0  0  0  0  0  0  0  0  0  0  0  0
   -3.3454  -13.3424   16.8259 C   0  0  0  0  0  0  0  0  0  0  0  0
   -3.8725  -12.1524   17.1595 N   0  0  0  0  0  0  0  0  0  0  0  0
   -3.1759  -11.0157   17.0502 C   0  0  0  0  0  0  0  0  0  0  0  0
   -1.8106  -11.0973   16.5536 C   0  0  0  0  0  0  0  0  0  0  0  0
   -1.2317  -12.4155   16.2051 C   0  0  0  0  0  0  0  0  0  0  0  0
    0.0574  -12.5561   15.7348 N   0  0  0  0  0  0  0  0  0  0  0  0
   -1.3648   -9.8617   16.5308 N   0  0  0  0  0  0  0  0  0  0  0  0
   -2.3253   -9.0450   16.9852 C   0  0  0  0  0  0  0  0  0  0  0  0
   -3.4233   -9.7331   17.2957 N   0  0  0  0  0  0  0  0  0  0  0  0
  2  1  1  1  0  0  0
  2  3  1  0  0  0  0
  2  5  1  0  0  0  0
  3  4  1  0  0  0  0
  3 17  1  0  0  0  0
  5  6  1  0  0  0  0
  7  6  1  1  0  0  0
  7  8  1  0  0  0  0
  7  9  1  0  0  0  0
 10  9  1  1  0  0  0
 10 11  1  0  0  0  0
 10 12  1  0  0  0  0
 11 16  1  0  0  0  0
 12 13  1  1  0  0  0
 12 14  1  0  0  0  0
 14 15  1  1  0  0  0
 14 16  1  0  0  0  0
 16 27  1  1  0  0  0
 18 19  2  0  0  0  0
 18 23  1  0  0  0  0
 19 20  1  0  0  0  0
 20 21  2  0  0  0  0
 21 22  1  0  0  0  0
 21 27  1  0  0  0  0
 22 23  2  0  0  0  0
 22 25  1  0  0  0  0
 23 24  1  0  0  0  0
 25 26  2  0  0  0  0
 26 27  1  0  0  0  0
M  END
>  <CHROM.1>
-163.66784485,-63.87657436,-98.26510967,-172.49956111,-113.49794455,-43.15452384
97.41470273,-4.28913711,-11.47756843,18.88877012,-2.90552709,0.84367183,0.11210528

>  <Name>
ligand

>  <RI>
0

>  <Rbt.Current_Directory>
/home/itssahil/PROJECTS/Mol_Feturizer/Test_systems_manuscript/rnas/4kqy

>  <Rbt.Executable>
rbdock ($Id: //depot/dev/client3/rdock/2013.1/src/exe/rbdock.cxx#4 $)

>  <Rbt.Library>
libRbt.so (2013.1, Build901 2013/11/27)

>  <Rbt.Parameter_File>
/export/apps/rDock/src/rDock_2013.1_src/data/scripts/dock_solv.prm

>  <Rbt.Receptor>
prm/pocket_docking_4.prm

>  <SCORE>
-9.13988

>  <SCORE.INTER>
-8.70661

>  <SCORE.INTER.CONST>
1

>  <SCORE.INTER.POLAR>
0

>  <SCORE.INTER.ROT>
7

>  <SCORE.INTER.SOLV>
9.55572

>  <SCORE.INTER.VDW>
-17.2563

>  <SCORE.INTER.norm>
-0.322467

>  <SCORE.INTRA>
-0.433271

>  <SCORE.INTRA.DIHEDRAL>
2.12876

>  <SCORE.INTRA.DIHEDRAL.0>
10.4103

>  <SCORE.INTRA.POLAR>
0

>  <SCORE.INTRA.POLAR.0>
0

>  <SCORE.INTRA.REPUL>
0

>  <SCORE.INTRA.REPUL.0>
0

>  <SCORE.INTRA.SOLV>
1.33183

>  <SCORE.INTRA.SOLV.lig_0>
-49.5008

>  <SCORE.INTRA.VDW>
-2.16357

>  <SCORE.INTRA.VDW.0>
-2.6946

>  <SCORE.INTRA.norm>
-0.0160471

>  <SCORE.RESTR>
0

>  <SCORE.RESTR.CAVITY>
0

>  <SCORE.RESTR.norm>
0

>  <SCORE.SYSTEM>
0

>  <SCORE.SYSTEM.CONST>
0

>  <SCORE.SYSTEM.DIHEDRAL>
0

>  <SCORE.SYSTEM.SOLV>
0

>  <SCORE.SYSTEM.norm>
0

>  <SCORE.heavy>
27

>  <SCORE.norm>
-0.338514

>  <RMSD>
6.144

$$$$
ligand
 OpenBabel02271912153D
libRbt.so/2013.1/901 2013/11/27
 27 29  0  0  0  0  0  0  0  0999 V2000
   -6.6167  -15.0828   22.6643 N   0  0  0  0  0  0  0  0  0  0  0  0
   -6.2643  -14.2620   21.5213 C   0  0  2  0  0  0  0  0  0  0  0  0
   -6.8676  -14.9034   20.3097 C   0  0  0  0  0  0  0  0  0  0  0  0
   -7.5746  -15.9247   20.4483 O   0  0  0  0  0  0  0  0  0  0  0  0
   -4.7428  -14.1742   21.3741 C   0  0  0  0  0  0  0  0  0  0  0  0
   -4.1781  -12.9211   22.0792 C   0  0  0  0  0  0  0  0  0  0  0  0
   -4.3199  -11.4843   21.2244 S   0  0  2  0  0  0  0  0  0  0  0  0
   -3.1812  -11.4472   20.0158 C   0  0  0  0  0  0  0  0  0  0  0  0
   -4.1216  -10.1759   22.2719 C   0  0  0  0  0  0  0  0  0  0  0  0
   -4.4748   -8.8100   21.6462 C   0  0  1  0  0  0  0  0  0  0  0  0
   -3.3535   -8.1694   21.0151 O   0  0  0  0  0  0  0  0  0  0  0  0
   -5.4696   -8.9050   20.5006 C   0  0  1  0  0  0  0  0  0  0  0  0
   -6.8498   -9.1481   20.8394 O   0  0  0  0  0  0  0  0  0  0  0  0
   -5.2328   -7.5799   19.8194 C   0  0  1  0  0  0  0  0  0  0  0  0
   -5.7681   -6.5217   20.6085 O   0  0  0  0  0  0  0  0  0  0  0  0
   -3.7361   -7.4796   19.8229 C   0  0  2  0  0  0  0  0  0  0  0  0
   -6.6791  -14.3872   19.1822 O   0  0  0  0  0  0  0  0  0  0  0  0
   -4.1098   -8.7599   14.6754 N   0  0  0  0  0  0  0  0  0  0  0  0
   -5.0328   -8.1786   15.4797 C   0  0  0  0  0  0  0  0  0  0  0  0
   -4.8045   -7.9164   16.7775 N   0  0  0  0  0  0  0  0  0  0  0  0
   -3.6328   -8.1958   17.3592 C   0  0  0  0  0  0  0  0  0  0  0  0
   -2.5923   -8.8009   16.5415 C   0  0  0  0  0  0  0  0  0  0  0  0
   -2.8589   -9.1030   15.1160 C   0  0  0  0  0  0  0  0  0  0  0  0
   -1.9143   -9.6805   14.2932 N   0  0  0  0  0  0  0  0  0  0  0  0
   -1.5585   -8.9565   17.3372 N   0  0  0  0  0  0  0  0  0  0  0  0
   -1.8837   -8.5205   18.5619 C   0  0  0  0  0  0  0  0  0  0  0  0
   -3.1321   -8.0549   18.5822 N   0  0  0  0  0  0  0  0  0  0  0  0
  2  1  1  1  0  0  0
  2  3  1  0  0  0  0
  2  5  1  0  0  0  0
  3  4  1  0  0  0  0
  3 17  1  0  0  0  0
  5  6  1  0  0  0  0
  7  6  1  1  0  0  0
  7  8  1  0  0  0  0
  7  9  1  0  0  0  0
 10  9  1  6  0  0  0
 10 11  1  0  0  0  0
 10 12  1  0  0  0  0
 11 16  1  0  0  0  0
 12 13  1  1  0  0  0
 12 14  1  0  0  0  0
 14 15  1  1  0  0  0
 14 16  1  0  0  0  0
 16 27  1  6  0  0  0
 18 19  2  0  0  0  0
 18 23  1  0  0  0  0
 19 20  1  0  0  0  0
 20 21  2  0  0  0  0
 21 22  1  0  0  0  0
 21 27  1  0  0  0  0
 22 23  2  0  0  0  0
 22 25  1  0  0  0  0
 23 24  1  0  0  0  0
 25 26  2  0  0  0  0
 26 27  1  0  0  0  0
M  END
>  <CHROM.1>
2.99980887,-93.96048234,-80.14026704,-75.96180507,-169.87076327,-90.28302793
143.28596401,-4.52224262,-10.38392631,19.42909847,-3.02200928,1.21434917
0.80868928

>  <Name>
ligand

>  <RI>
0

>  <Rbt.Current_Directory>
/home/itssahil/PROJECTS/Mol_Feturizer/Test_systems_manuscript/rnas/4kqy

>  <Rbt.Executable>
rbdock ($Id: //depot/dev/client3/rdock/2013.1/src/exe/rbdock.cxx#4 $)

>  <Rbt.Library>
libRbt.so (2013.1, Build901 2013/11/27)

>  <Rbt.Parameter_File>
/export/apps/rDock/src/rDock_2013.1_src/data/scripts/dock_solv.prm

>  <Rbt.Receptor>
prm/pocket_docking_7.prm

>  <SCORE>
-16.8111

>  <SCORE.INTER>
-17.8615

>  <SCORE.INTER.CONST>
1

>  <SCORE.INTER.POLAR>
0

>  <SCORE.INTER.ROT>
7

>  <SCORE.INTER.SOLV>
17.7392

>  <SCORE.INTER.VDW>
-26.0874

>  <SCORE.INTER.norm>
-0.661537

>  <SCORE.INTRA>
1.0504

>  <SCORE.INTRA.DIHEDRAL>
0.942206

>  <SCORE.INTRA.DIHEDRAL.0>
10.4103

>  <SCORE.INTRA.POLAR>
0

>  <SCORE.INTRA.POLAR.0>
0

>  <SCORE.INTRA.REPUL>
0

>  <SCORE.INTRA.REPUL.0>
0

>  <SCORE.INTRA.SOLV>
0.206199

>  <SCORE.INTRA.SOLV.lig_0>
-49.5008

>  <SCORE.INTRA.VDW>
0.476197

>  <SCORE.INTRA.VDW.0>
-2.6946

>  <SCORE.INTRA.norm>
0.0389037

>  <SCORE.RESTR>
0

>  <SCORE.RESTR.CAVITY>
0

>  <SCORE.RESTR.norm>
0

>  <SCORE.SYSTEM>
0

>  <SCORE.SYSTEM.CONST>
0

>  <SCORE.SYSTEM.DIHEDRAL>
0

>  <SCORE.SYSTEM.SOLV>
0

>  <SCORE.SYSTEM.norm>
0

>  <SCORE.heavy>
27

>  <SCORE.norm>
-0.622634

>  <RMSD>
6.149

$$$$
ligand
 OpenBabel02271912153D
libRbt.so/2013.1/901 2013/11/27
 27 29  0  0  0  0  0  0  0  0999 V2000
   -6.4425  -13.2316   20.0409 N   0  0  0  0  0  0  0  0  0  0  0  0
   -5.9621  -14.3326   20.8541 C   0  0  2  0  0  0  0  0  0  0  0  0
   -7.1627  -15.0878   21.3352 C   0  0  0  0  0  0  0  0  0  0  0  0
   -7.0911  -15.7294   22.4054 O   0  0  0  0  0  0  0  0  0  0  0  0
   -5.1536  -13.8067   22.0432 C   0  0  0  0  0  0  0  0  0  0  0  0
   -3.8742  -13.0763   21.5781 C   0  0  0  0  0  0  0  0  0  0  0  0
   -4.1112  -11.5548   20.9118 S   0  0  2  0  0  0  0  0  0  0  0  0
   -2.8365  -11.1859   19.9130 C   0  0  0  0  0  0  0  0  0  0  0  0
   -4.2559  -10.4096   22.1431 C   0  0  0  0  0  0  0  0  0  0  0  0
   -4.5299   -8.9765   21.6401 C   0  0  1  0  0  0  0  0  0  0  0  0
   -3.3720   -8.3466   21.0669 O   0  0  0  0  0  0  0  0  0  0  0  0
   -5.5237   -8.9148   20.4915 C   0  0  1  0  0  0  0  0  0  0  0  0
   -6.9167   -9.1092   20.8087 O   0  0  0  0  0  0  0  0  0  0  0  0
   -5.2106   -7.5503   19.9292 C   0  0  1  0  0  0  0  0  0  0  0  0
   -5.6894   -6.5372   20.8087 O   0  0  0  0  0  0  0  0  0  0  0  0
   -3.7107   -7.5345   19.9403 C   0  0  2  0  0  0  0  0  0  0  0  0
   -8.2269  -15.0377   20.6732 O   0  0  0  0  0  0  0  0  0  0  0  0
   -4.2475   -8.6353   14.7657 N   0  0  0  0  0  0  0  0  0  0  0  0
   -5.1612   -8.1316   15.6306 C   0  0  0  0  0  0  0  0  0  0  0  0
   -4.8892   -7.9078   16.9272 N   0  0  0  0  0  0  0  0  0  0  0  0
   -3.6810   -8.1505   17.4476 C   0  0  0  0  0  0  0  0  0  0  0  0
   -2.6495   -8.6716   16.5635 C   0  0  0  0  0  0  0  0  0  0  0  0
   -2.9634   -8.9322   15.1395 C   0  0  0  0  0  0  0  0  0  0  0  0
   -2.0291   -9.4303   14.2554 N   0  0  0  0  0  0  0  0  0  0  0  0
   -1.5756   -8.8057   17.3083 N   0  0  0  0  0  0  0  0  0  0  0  0
   -1.8674   -8.4332   18.5621 C   0  0  0  0  0  0  0  0  0  0  0  0
   -3.1346   -8.0314   18.6533 N   0  0  0  0  0  0  0  0  0  0  0  0
  2  1  1  6  0  0  0
  2  3  1  0  0  0  0
  2  5  1  0  0  0  0
  3  4  1  0  0  0  0
  3 17  1  0  0  0  0
  5  6  1  0  0  0  0
  7  6  1  1  0  0  0
  7  8  1  0  0  0  0
  7  9  1  0  0  0  0
 10  9  1  6  0  0  0
 10 11  1  0  0  0  0
 10 12  1  0  0  0  0
 11 16  1  0  0  0  0
 12 13  1  1  0  0  0
 12 14  1  0  0  0  0
 14 15  1  1  0  0  0
 14 16  1  0  0  0  0
 16 27  1  6  0  0  0
 18 19  2  0  0  0  0
 18 23  1  0  0  0  0
 19 20  1  0  0  0  0
 20 21  2  0  0  0  0
 21 22  1  0  0  0  0
 21 27  1  0  0  0  0
 22 23  2  0  0  0  0
 22 25  1  0  0  0  0
 23 24  1  0  0  0  0
 25 26  2  0  0  0  0
 26 27  1  0  0  0  0
M  END
>  <CHROM.1>
-153.14630483,-64.07352341,74.14794846,-156.16738287,-177.86241786,-74.58150261
136.18412071,-4.56189407,-10.31894097,19.49106696,-3.00280651,1.19063916
0.75732977

>  <Name>
ligand

>  <RI>
0

>  <Rbt.Current_Directory>
/home/itssahil/PROJECTS/Mol_Feturizer/Test_systems_manuscript/rnas/4kqy

>  <Rbt.Executable>
rbdock ($Id: //depot/dev/client3/rdock/2013.1/src/exe/rbdock.cxx#4 $)

>  <Rbt.Library>
libRbt.so (2013.1, Build901 2013/11/27)

>  <Rbt.Parameter_File>
/export/apps/rDock/src/rDock_2013.1_src/data/scripts/dock_solv.prm

>  <Rbt.Receptor>
prm/pocket_docking_3.prm

>  <SCORE>
-17.9621

>  <SCORE.INTER>
-17.5308

>  <SCORE.INTER.CONST>
1

>  <SCORE.INTER.POLAR>
0

>  <SCORE.INTER.ROT>
7

>  <SCORE.INTER.SOLV>
13.3964

>  <SCORE.INTER.VDW>
-24.4193

>  <SCORE.INTER.norm>
-0.649289

>  <SCORE.INTRA>
-0.4538

>  <SCORE.INTRA.DIHEDRAL>
-4.64221

>  <SCORE.INTRA.DIHEDRAL.0>
10.4103

>  <SCORE.INTRA.POLAR>
0

>  <SCORE.INTRA.POLAR.0>
0

>  <SCORE.INTRA.REPUL>
0

>  <SCORE.INTRA.REPUL.0>
0

>  <SCORE.INTRA.SOLV>
2.45537

>  <SCORE.INTRA.SOLV.lig_0>
-49.5008

>  <SCORE.INTRA.VDW>
0.639622

>  <SCORE.INTRA.VDW.0>
-2.6946

>  <SCORE.INTRA.norm>
-0.0168074

>  <SCORE.RESTR>
0.0224562

>  <SCORE.RESTR.CAVITY>
0.0224562

>  <SCORE.RESTR.norm>
0.000831709

>  <SCORE.SYSTEM>
0

>  <SCORE.SYSTEM.CONST>
0

>  <SCORE.SYSTEM.DIHEDRAL>
0

>  <SCORE.SYSTEM.SOLV>
0

>  <SCORE.SYSTEM.norm>
0

>  <SCORE.heavy>
27

>  <SCORE.norm>
-0.665265

>  <RMSD>
6.155

$$$$
ligand
 OpenBabel02271912153D
libRbt.so/2013.1/901 2013/11/27
 27 29  0  0  0  0  0  0  0  0999 V2000
   -4.8177   -8.4775   17.5665 N   0  0  0  0  0  0  0  0  0  0  0  0
   -3.8423   -7.6524   18.2535 C   0  0  2  0  0  0  0  0  0  0  0  0
   -2.5163   -7.8930   17.5999 C   0  0  0  0  0  0  0  0  0  0  0  0
   -1.6692   -8.6038   18.1824 O   0  0  0  0  0  0  0  0  0  0  0  0
   -3.7782   -8.0231   19.7376 C   0  0  0  0  0  0  0  0  0  0  0  0
   -3.6470   -9.5498   19.9339 C   0  0  0  0  0  0  0  0  0  0  0  0
   -4.0762  -10.1238   21.4510 S   0  0  2  0  0  0  0  0  0  0  0  0
   -2.7885   -9.9593   22.4871 C   0  0  0  0  0  0  0  0  0  0  0  0
   -4.5476  -11.7403   21.3364 C   0  0  0  0  0  0  0  0  0  0  0  0
   -5.6718  -11.9964   20.3105 C   0  0  1  0  0  0  0  0  0  0  0  0
   -5.9019  -13.3928   20.0595 O   0  0  0  0  0  0  0  0  0  0  0  0
   -7.0407  -11.5303   20.7794 C   0  0  1  0  0  0  0  0  0  0  0  0
   -7.2994  -10.1121   20.7640 O   0  0  0  0  0  0  0  0  0  0  0  0
   -7.9328  -12.3234   19.8566 C   0  0  1  0  0  0  0  0  0  0  0  0
   -7.8613  -11.7966   18.5351 O   0  0  0  0  0  0  0  0  0  0  0  0
   -7.2904  -13.6788   19.8750 C   0  0  2  0  0  0  0  0  0  0  0  0
   -2.2911   -7.4038   16.4671 O   0  0  0  0  0  0  0  0  0  0  0  0
   -6.7405  -16.3671   24.4299 N   0  0  0  0  0  0  0  0  0  0  0  0
   -5.8279  -15.6168   23.7659 C   0  0  0  0  0  0  0  0  0  0  0  0
   -6.1034  -14.9923   22.6086 N   0  0  0  0  0  0  0  0  0  0  0  0
   -7.3140  -15.0544   22.0431 C   0  0  0  0  0  0  0  0  0  0  0  0
   -8.3445  -15.8270   22.7203 C   0  0  0  0  0  0  0  0  0  0  0  0
   -8.0268  -16.5270   23.9865 C   0  0  0  0  0  0  0  0  0  0  0  0
   -8.9600  -17.2781   24.6706 N   0  0  0  0  0  0  0  0  0  0  0  0
   -9.4212  -15.7152   21.9760 N   0  0  0  0  0  0  0  0  0  0  0  0
   -9.1322  -14.9646   20.9041 C   0  0  0  0  0  0  0  0  0  0  0  0
   -7.8640  -14.5575   20.9399 N   0  0  0  0  0  0  0  0  0  0  0  0
  2  1  1  6  0  0  0
  2  3  1  0  0  0  0
  2  5  1  0  0  0  0
  3  4  1  0  0  0  0
  3 17  1  0  0  0  0
  5  6  1  0  0  0  0
  7  6  1  6  0  0  0
  7  8  1  0  0  0  0
  7  9  1  0  0  0  0
 10  9  1  1  0  0  0
 10 11  1  0  0  0  0
 10 12  1  0  0  0  0
 11 16  1  0  0  0  0
 12 13  1  6  0  0  0
 12 14  1  0  0  0  0
 14 15  1  6  0  0  0
 14 16  1  0  0  0  0
 16 27  1  1  0  0  0
 18 19  2  0  0  0  0
 18 23  1  0  0  0  0
 19 20  1  0  0  0  0
 20 21  2  0  0  0  0
 21 22  1  0  0  0  0
 21 27  1  0  0  0  0
 22 23  2  0  0  0  0
 22 25  1  0  0  0  0
 23 24  1  0  0  0  0
 25 26  2  0  0  0  0
 26 27  1  0  0  0  0
M  END
>  <CHROM.1>
-104.44816860,48.94055621,-160.35030493,-83.53143775,-54.79038163,169.98678694
3.50746168,-5.79956805,-12.05609993,20.75121760,0.96207911,-0.55878649,-0.87980107

>  <Name>
ligand

>  <RI>
0

>  <Rbt.Current_Directory>
/home/itssahil/PROJECTS/Mol_Feturizer/Test_systems_manuscript/rnas/4kqy

>  <Rbt.Executable>
rbdock ($Id: //depot/dev/client3/rdock/2013.1/src/exe/rbdock.cxx#4 $)

>  <Rbt.Library>
libRbt.so (2013.1, Build901 2013/11/27)

>  <Rbt.Parameter_File>
/export/apps/rDock/src/rDock_2013.1_src/data/scripts/dock_solv.prm

>  <Rbt.Receptor>
prm/pocket_docking_6.prm

>  <SCORE>
-23.8641

>  <SCORE.INTER>
-23.6835

>  <SCORE.INTER.CONST>
1

>  <SCORE.INTER.POLAR>
0

>  <SCORE.INTER.ROT>
7

>  <SCORE.INTER.SOLV>
11.6116

>  <SCORE.INTER.VDW>
-27.9262

>  <SCORE.INTER.norm>
-0.877165

>  <SCORE.INTRA>
-0.180637

>  <SCORE.INTRA.DIHEDRAL>
-3.84805

>  <SCORE.INTRA.DIHEDRAL.0>
10.4103

>  <SCORE.INTRA.POLAR>
0

>  <SCORE.INTRA.POLAR.0>
0

>  <SCORE.INTRA.REPUL>
0

>  <SCORE.INTRA.REPUL.0>
0

>  <SCORE.INTRA.SOLV>
0.666457

>  <SCORE.INTRA.SOLV.lig_0>
-49.5008

>  <SCORE.INTRA.VDW>
1.41016

>  <SCORE.INTRA.VDW.0>
-2.6946

>  <SCORE.INTRA.norm>
-0.00669026

>  <SCORE.RESTR>
0

>  <SCORE.RESTR.CAVITY>
0

>  <SCORE.RESTR.norm>
0

>  <SCORE.SYSTEM>
0

>  <SCORE.SYSTEM.CONST>
0

>  <SCORE.SYSTEM.DIHEDRAL>
0

>  <SCORE.SYSTEM.SOLV>
0

>  <SCORE.SYSTEM.norm>
0

>  <SCORE.heavy>
27

>  <SCORE.norm>
-0.883855

>  <RMSD>
6.163

$$$$
ligand
 OpenBabel02271912153D
libRbt.so/2013.1/901 2013/11/27
 27 29  0  0  0  0  0  0  0  0999 V2000
   -2.6953   -9.8654   23.2639 N   0  0  0  0  0  0  0  0  0  0  0  0
   -3.1579   -9.9054   21.8896 C   0  0  2  0  0  0  0  0  0  0  0  0
   -3.3570   -8.4890   21.4454 C   0  0  0  0  0  0  0  0  0  0  0  0
   -3.8341   -7.6590   22.2490 O   0  0  0  0  0  0  0  0  0  0  0  0
   -4.4729  -10.6833   21.7900 C   0  0  0  0  0  0  0  0  0  0  0  0
   -4.9099  -10.8688   20.3199 C   0  0  0  0  0  0  0  0  0  0  0  0
   -6.3197  -11.7491   20.0898 S   0  0  2  0  0  0  0  0  0  0  0  0
   -6.1270  -13.2733   20.7210 C   0  0  0  0  0  0  0  0  0  0  0  0
   -6.6812  -11.8260   18.4430 C   0  0  0  0  0  0  0  0  0  0  0  0
   -7.0178  -10.4601   17.8085 C   0  0  1  0  0  0  0  0  0  0  0  0
   -5.9313   -9.5216   17.8754 O   0  0  0  0  0  0  0  0  0  0  0  0
   -7.2805  -10.5325   16.3129 C   0  0  1  0  0  0  0  0  0  0  0  0
   -8.5434  -11.0828   15.8874 O   0  0  0  0  0  0  0  0  0  0  0  0
   -7.0842   -9.0869   15.9283 C   0  0  1  0  0  0  0  0  0  0  0  0
   -8.1770   -8.3031   16.3979 O   0  0  0  0  0  0  0  0  0  0  0  0
   -5.8521   -8.7139   16.6985 C   0  0  2  0  0  0  0  0  0  0  0  0
   -3.0127   -8.1534   20.2869 O   0  0  0  0  0  0  0  0  0  0  0  0
   -3.0852  -11.5569   13.1576 N   0  0  0  0  0  0  0  0  0  0  0  0
   -4.3411  -11.7627   13.6236 C   0  0  0  0  0  0  0  0  0  0  0  0
   -4.9200  -10.9607   14.5328 N   0  0  0  0  0  0  0  0  0  0  0  0
   -4.2956   -9.8851   15.0254 C   0  0  0  0  0  0  0  0  0  0  0  0
   -2.9518   -9.5976   14.5470 C   0  0  0  0  0  0  0  0  0  0  0  0
   -2.3145  -10.4974   13.5579 C   0  0  0  0  0  0  0  0  0  0  0  0
   -1.0421  -10.2794   13.0718 N   0  0  0  0  0  0  0  0  0  0  0  0
   -2.5793   -8.5010   15.1672 N   0  0  0  0  0  0  0  0  0  0  0  0
   -3.5635   -8.1111   15.9888 C   0  0  0  0  0  0  0  0  0  0  0  0
   -4.6049   -8.9381   15.9052 N   0  0  0  0  0  0  0  0  0  0  0  0
  2  1  1  1  0  0  0
  2  3  1  0  0  0  0
  2  5  1  0  0  0  0
  3  4  1  0  0  0  0
  3 17  1  0  0  0  0
  5  6  1  0  0  0  0
  7  6  1  6  0  0  0
  7  8  1  0  0  0  0
  7  9  1  0  0  0  0
 10  9  1  6  0  0  0
 10 11  1  0  0  0  0
 10 12  1  0  0  0  0
 11 16  1  0  0  0  0
 12 13  1  1  0  0  0
 12 14  1  0  0  0  0
 14 15  1  1  0  0  0
 14 16  1  0  0  0  0
 16 27  1  6  0  0  0
 18 19  2  0  0  0  0
 18 23  1  0  0  0  0
 19 20  1  0  0  0  0
 20 21  2  0  0  0  0
 21 22  1  0  0  0  0
 21 27  1  0  0  0  0
 22 23  2  0  0  0  0
 22 25  1  0  0  0  0
 23 24  1  0  0  0  0
 25 26  2  0  0  0  0
 26 27  1  0  0  0  0
M  END
>  <CHROM.1>
-38.65638143,-173.99553838,178.29416701,-59.86091617,-65.06797123,61.72120335
81.35505516,-4.87457787,-10.08393742,17.68909652,-1.62969428,-0.35309576
-1.60660649

>  <Name>
ligand

>  <RI>
0

>  <Rbt.Current_Directory>
/home/itssahil/PROJECTS/Mol_Feturizer/Test_systems_manuscript/rnas/4kqy

>  <Rbt.Executable>
rbdock ($Id: //depot/dev/client3/rdock/2013.1/src/exe/rbdock.cxx#4 $)

>  <Rbt.Library>
libRbt.so (2013.1, Build901 2013/11/27)

>  <Rbt.Parameter_File>
/export/apps/rDock/src/rDock_2013.1_src/data/scripts/dock_solv.prm

>  <Rbt.Receptor>
prm/pocket_docking_5.prm

>  <SCORE>
-13.0199

>  <SCORE.INTER>
-9.25657

>  <SCORE.INTER.CONST>
1

>  <SCORE.INTER.POLAR>
0

>  <SCORE.INTER.ROT>
7

>  <SCORE.INTER.SOLV>
15.8464

>  <SCORE.INTER.VDW>
-19.7198

>  <SCORE.INTER.norm>
-0.342836

>  <SCORE.INTRA>
-3.81362

>  <SCORE.INTRA.DIHEDRAL>
-7.35539

>  <SCORE.INTRA.DIHEDRAL.0>
10.4103

>  <SCORE.INTRA.POLAR>
0

>  <SCORE.INTRA.POLAR.0>
0

>  <SCORE.INTRA.REPUL>
0

>  <SCORE.INTRA.REPUL.0>
0

>  <SCORE.INTRA.SOLV>
-0.554357

>  <SCORE.INTRA.SOLV.lig_0>
-49.5008

>  <SCORE.INTRA.VDW>
0.14125

>  <SCORE.INTRA.VDW.0>
-2.6946

>  <SCORE.INTRA.norm>
-0.141245

>  <SCORE.RESTR>
0.0502947

>  <SCORE.RESTR.CAVITY>
0.0502947

>  <SCORE.RESTR.norm>
0.00186277

>  <SCORE.SYSTEM>
0

>  <SCORE.SYSTEM.CONST>
0

>  <SCORE.SYSTEM.DIHEDRAL>
0

>  <SCORE.SYSTEM.SOLV>
0

>  <SCORE.SYSTEM.norm>
0

>  <SCORE.heavy>
27

>  <SCORE.norm>
-0.482218

>  <RMSD>
6.165

$$$$
ligand
 OpenBabel02271912153D
libRbt.so/2013.1/901 2013/11/27
 27 29  0  0  0  0  0  0  0  0999 V2000
   -5.8436   -9.1847   17.5142 N   0  0  0  0  0  0  0  0  0  0  0  0
   -5.0567   -8.8907   18.6968 C   0  0  2  0  0  0  0  0  0  0  0  0
   -4.6616   -7.4481   18.6215 C   0  0  0  0  0  0  0  0  0  0  0  0
   -4.6051   -6.7754   19.6735 O   0  0  0  0  0  0  0  0  0  0  0  0
   -3.8119   -9.7808   18.7463 C   0  0  0  0  0  0  0  0  0  0  0  0
   -3.0773   -9.6507   20.0990 C   0  0  0  0  0  0  0  0  0  0  0  0
   -3.9185  -10.2158   21.4364 S   0  0  2  0  0  0  0  0  0  0  0  0
   -2.9615  -10.0800   22.7871 C   0  0  0  0  0  0  0  0  0  0  0  0
   -4.3742  -11.8215   21.1865 C   0  0  0  0  0  0  0  0  0  0  0  0
   -5.5466  -11.9960   20.1981 C   0  0  1  0  0  0  0  0  0  0  0  0
   -5.8447  -13.3724   19.9107 O   0  0  0  0  0  0  0  0  0  0  0  0
   -6.8757  -11.4910   20.7361 C   0  0  1  0  0  0  0  0  0  0  0  0
   -7.0750  -10.0637   20.7776 O   0  0  0  0  0  0  0  0  0  0  0  0
   -7.8351  -12.2147   19.8239 C   0  0  1  0  0  0  0  0  0  0  0  0
   -7.7922  -11.6460   18.5186 O   0  0  0  0  0  0  0  0  0  0  0  0
   -7.2500  -13.5950   19.7721 C   0  0  2  0  0  0  0  0  0  0  0  0
   -4.3641   -6.9489   17.5099 O   0  0  0  0  0  0  0  0  0  0  0  0
   -6.6905  -16.3061   24.3123 N   0  0  0  0  0  0  0  0  0  0  0  0
   -5.7828  -15.5429   23.6563 C   0  0  0  0  0  0  0  0  0  0  0  0
   -6.0601  -14.9139   22.5019 N   0  0  0  0  0  0  0  0  0  0  0  0
   -7.2681  -14.9842   21.9316 C   0  0  0  0  0  0  0  0  0  0  0  0
   -8.2934  -15.7710   22.6003 C   0  0  0  0  0  0  0  0  0  0  0  0
   -7.9736  -16.4757   23.8633 C   0  0  0  0  0  0  0  0  0  0  0  0
   -8.9018  -17.2400   24.5393 N   0  0  0  0  0  0  0  0  0  0  0  0
   -9.3686  -15.6650   21.8527 N   0  0  0  0  0  0  0  0  0  0  0  0
   -9.0830  -14.9049   20.7865 C   0  0  0  0  0  0  0  0  0  0  0  0
   -7.8189  -14.4858   20.8295 N   0  0  0  0  0  0  0  0  0  0  0  0
  2  1  1  6  0  0  0
  2  3  1  0  0  0  0
  2  5  1  0  0  0  0
  3  4  1  0  0  0  0
  3 17  1  0  0  0  0
  5  6  1  0  0  0  0
  7  6  1  6  0  0  0
  7  8  1  0  0  0  0
  7  9  1  0  0  0  0
 10  9  1  1  0  0  0
 10 11  1  0  0  0  0
 10 12  1  0  0  0  0
 11 16  1  0  0  0  0
 12 13  1  6  0  0  0
 12 14  1  0  0  0  0
 14 15  1  6  0  0  0
 14 16  1  0  0  0  0
 16 27  1  1  0  0  0
 18 19  2  0  0  0  0
 18 23  1  0  0  0  0
 19 20  1  0  0  0  0
 20 21  2  0  0  0  0
 21 22  1  0  0  0  0
 21 27  1  0  0  0  0
 22 23  2  0  0  0  0
 22 25  1  0  0  0  0
 23 24  1  0  0  0  0
 25 26  2  0  0  0  0
 26 27  1  0  0  0  0
M  END
>  <CHROM.1>
144.05282271,-170.91731377,65.82032560,176.91877384,-74.53736980,174.98255951
7.63593435,-6.07128045,-12.06035330,20.81971546,1.08249232,-0.61586194,-0.76135260

>  <Name>
ligand

>  <RI>
0

>  <Rbt.Current_Directory>
/home/itssahil/PROJECTS/Mol_Feturizer/Test_systems_manuscript/rnas/4kqy

>  <Rbt.Executable>
rbdock ($Id: //depot/dev/client3/rdock/2013.1/src/exe/rbdock.cxx#4 $)

>  <Rbt.Library>
libRbt.so (2013.1, Build901 2013/11/27)

>  <Rbt.Parameter_File>
/export/apps/rDock/src/rDock_2013.1_src/data/scripts/dock_solv.prm

>  <Rbt.Receptor>
prm/pocket_docking_7.prm

>  <SCORE>
-24.6019

>  <SCORE.INTER>
-21.2266

>  <SCORE.INTER.CONST>
1

>  <SCORE.INTER.POLAR>
0

>  <SCORE.INTER.ROT>
7

>  <SCORE.INTER.SOLV>
10.8119

>  <SCORE.INTER.VDW>
-26.0217

>  <SCORE.INTER.norm>
-0.786169

>  <SCORE.INTRA>
-3.37536

>  <SCORE.INTRA.DIHEDRAL>
-6.49654

>  <SCORE.INTRA.DIHEDRAL.0>
10.4103

>  <SCORE.INTRA.POLAR>
0

>  <SCORE.INTRA.POLAR.0>
0

>  <SCORE.INTRA.REPUL>
0

>  <SCORE.INTRA.REPUL.0>
0

>  <SCORE.INTRA.SOLV>
2.63673

>  <SCORE.INTRA.SOLV.lig_0>
-49.5008

>  <SCORE.INTRA.VDW>
-1.44545

>  <SCORE.INTRA.VDW.0>
-2.6946

>  <SCORE.INTRA.norm>
-0.125013

>  <SCORE.RESTR>
0

>  <SCORE.RESTR.CAVITY>
0

>  <SCORE.RESTR.norm>
0

>  <SCORE.SYSTEM>
0

>  <SCORE.SYSTEM.CONST>
0

>  <SCORE.SYSTEM.DIHEDRAL>
0

>  <SCORE.SYSTEM.SOLV>
0

>  <SCORE.SYSTEM.norm>
0

>  <SCORE.heavy>
27

>  <SCORE.norm>
-0.911182

>  <RMSD>
6.171

$$$$
ligand
 OpenBabel02271912153D
libRbt.so/2013.1/901 2013/11/27
 27 29  0  0  0  0  0  0  0  0999 V2000
  -11.1507  -11.5231   17.7418 N   0  0  0  0  0  0  0  0  0  0  0  0
  -10.0014  -11.8091   16.9043 C   0  0  2  0  0  0  0  0  0  0  0  0
  -10.3251  -13.0352   16.1075 C   0  0  0  0  0  0  0  0  0  0  0  0
   -9.9520  -13.1048   14.9166 O   0  0  0  0  0  0  0  0  0  0  0  0
   -8.7580  -12.0479   17.7653 C   0  0  0  0  0  0  0  0  0  0  0  0
   -8.3164  -10.7575   18.4908 C   0  0  0  0  0  0  0  0  0  0  0  0
   -6.9261  -10.8899   19.4208 S   0  0  2  0  0  0  0  0  0  0  0  0
   -7.1509  -12.0523   20.5857 C   0  0  0  0  0  0  0  0  0  0  0  0
   -6.5681   -9.3990   20.1262 C   0  0  0  0  0  0  0  0  0  0  0  0
   -5.2058   -9.3567   20.8502 C   0  0  1  0  0  0  0  0  0  0  0  0
   -4.3778  -10.4965   20.5655 O   0  0  0  0  0  0  0  0  0  0  0  0
   -4.3183   -8.2040   20.4091 C   0  0  1  0  0  0  0  0  0  0  0  0
   -4.6554   -6.8866   20.8884 O   0  0  0  0  0  0  0  0  0  0  0  0
   -2.9720   -8.6978   20.8778 C   0  0  1  0  0  0  0  0  0  0  0  0
   -2.8918   -8.6255   22.2982 O   0  0  0  0  0  0  0  0  0  0  0  0
   -2.9971  -10.1398   20.4652 C   0  0  2  0  0  0  0  0  0  0  0  0
  -10.9363  -13.9825   16.6571 O   0  0  0  0  0  0  0  0  0  0  0  0
   -1.8907   -8.2828   15.6068 N   0  0  0  0  0  0  0  0  0  0  0  0
   -2.4891   -7.6517   16.6461 C   0  0  0  0  0  0  0  0  0  0  0  0
   -2.7151   -8.2501   17.8277 N   0  0  0  0  0  0  0  0  0  0  0  0
   -2.3413   -9.5127   18.0630 C   0  0  0  0  0  0  0  0  0  0  0  0
   -1.6729  -10.2371   16.9926 C   0  0  0  0  0  0  0  0  0  0  0  0
   -1.4440   -9.5754   15.6872 C   0  0  0  0  0  0  0  0  0  0  0  0
   -0.8209  -10.2125   14.6343 N   0  0  0  0  0  0  0  0  0  0  0  0
   -1.4049  -11.4272   17.4803 N   0  0  0  0  0  0  0  0  0  0  0  0
   -1.8659  -11.4955   18.7368 C   0  0  0  0  0  0  0  0  0  0  0  0
   -2.4276  -10.3423   19.0978 N   0  0  0  0  0  0  0  0  0  0  0  0
  2  1  1  1  0  0  0
  2  3  1  0  0  0  0
  2  5  1  0  0  0  0
  3  4  1  0  0  0  0
  3 17  1  0  0  0  0
  5  6  1  0  0  0  0
  7  6  1  1  0  0  0
  7  8  1  0  0  0  0
  7  9  1  0  0  0  0
 10  9  1  6  0  0  0
 10 11  1  0  0  0  0
 10 12  1  0  0  0  0
 11 16  1  0  0  0  0
 12 13  1  1  0  0  0
 12 14  1  0  0  0  0
 14 15  1  1  0  0  0
 14 16  1  0  0  0  0
 16 27  1  6  0  0  0
 18 19  2  0  0  0  0
 18 23  1  0  0  0  0
 19 20  1  0  0  0  0
 20 21  2  0  0  0  0
 21 22  1  0  0  0  0
 21 27  1  0  0  0  0
 22 23  2  0  0  0  0
 22 25  1  0  0  0  0
 23 24  1  0  0  0  0
 25 26  2  0  0  0  0
 26 27  1  0  0  0  0
M  END
>  <CHROM.1>
141.52989098,-67.24470710,-177.83142198,-59.10662211,-172.21943289,11.80786380
91.09794064,-5.24077423,-10.34619546,18.45842492,2.86840529,-0.33013130,-1.91278792

>  <Name>
ligand

>  <RI>
0

>  <Rbt.Current_Directory>
/home/itssahil/PROJECTS/Mol_Feturizer/Test_systems_manuscript/rnas/4kqy

>  <Rbt.Executable>
rbdock ($Id: //depot/dev/client3/rdock/2013.1/src/exe/rbdock.cxx#4 $)

>  <Rbt.Library>
libRbt.so (2013.1, Build901 2013/11/27)

>  <Rbt.Parameter_File>
/export/apps/rDock/src/rDock_2013.1_src/data/scripts/dock_solv.prm

>  <Rbt.Receptor>
prm/pocket_docking_8.prm

>  <SCORE>
-15.4533

>  <SCORE.INTER>
-14.8501

>  <SCORE.INTER.CONST>
1

>  <SCORE.INTER.POLAR>
0

>  <SCORE.INTER.ROT>
7

>  <SCORE.INTER.SOLV>
11.2314

>  <SCORE.INTER.VDW>
-21.9106

>  <SCORE.INTER.norm>
-0.550005

>  <SCORE.INTRA>
-0.603141

>  <SCORE.INTRA.DIHEDRAL>
-2.64455

>  <SCORE.INTRA.DIHEDRAL.0>
10.4103

>  <SCORE.INTRA.POLAR>
0

>  <SCORE.INTRA.POLAR.0>
0

>  <SCORE.INTRA.REPUL>
0

>  <SCORE.INTRA.REPUL.0>
0

>  <SCORE.INTRA.SOLV>
0.106259

>  <SCORE.INTRA.SOLV.lig_0>
-49.5008

>  <SCORE.INTRA.VDW>
0.666005

>  <SCORE.INTRA.VDW.0>
-2.6946

>  <SCORE.INTRA.norm>
-0.0223385

>  <SCORE.RESTR>
0

>  <SCORE.RESTR.CAVITY>
0

>  <SCORE.RESTR.norm>
0

>  <SCORE.SYSTEM>
0

>  <SCORE.SYSTEM.CONST>
0

>  <SCORE.SYSTEM.DIHEDRAL>
0

>  <SCORE.SYSTEM.SOLV>
0

>  <SCORE.SYSTEM.norm>
0

>  <SCORE.heavy>
27

>  <SCORE.norm>
-0.572344

>  <RMSD>
6.220

$$$$
ligand
 OpenBabel02271912153D
libRbt.so/2013.1/901 2013/11/27
 27 29  0  0  0  0  0  0  0  0999 V2000
   -4.5915   -6.8893   17.8971 N   0  0  0  0  0  0  0  0  0  0  0  0
   -4.2889   -8.1870   17.3237 C   0  0  2  0  0  0  0  0  0  0  0  0
   -4.8483   -8.2014   15.9344 C   0  0  0  0  0  0  0  0  0  0  0  0
   -5.8842   -7.5473   15.6872 O   0  0  0  0  0  0  0  0  0  0  0  0
   -4.9192   -9.3025   18.1618 C   0  0  0  0  0  0  0  0  0  0  0  0
   -4.2634   -9.4007   19.5571 C   0  0  0  0  0  0  0  0  0  0  0  0
   -4.9475  -10.5221   20.6009 S   0  0  2  0  0  0  0  0  0  0  0  0
   -4.0172  -10.6381   21.9720 C   0  0  0  0  0  0  0  0  0  0  0  0
   -5.0657  -12.0194   19.8311 C   0  0  0  0  0  0  0  0  0  0  0  0
   -5.9135  -13.0559   20.5983 C   0  0  1  0  0  0  0  0  0  0  0  0
   -7.2659  -12.6252   20.8246 O   0  0  0  0  0  0  0  0  0  0  0  0
   -6.1196  -14.3558   19.8376 C   0  0  1  0  0  0  0  0  0  0  0  0
   -5.0041  -15.2665   19.7664 O   0  0  0  0  0  0  0  0  0  0  0  0
   -7.3175  -14.9141   20.5653 C   0  0  1  0  0  0  0  0  0  0  0  0
   -6.9350  -15.3692   21.8598 O   0  0  0  0  0  0  0  0  0  0  0  0
   -8.1946  -13.7064   20.7143 C   0  0  2  0  0  0  0  0  0  0  0  0
   -4.2508   -8.8429   15.0374 O   0  0  0  0  0  0  0  0  0  0  0  0
  -12.5446  -15.2926   18.0994 N   0  0  0  0  0  0  0  0  0  0  0  0
  -12.0032  -15.7914   19.2372 C   0  0  0  0  0  0  0  0  0  0  0  0
  -10.8845  -15.2927   19.7897 N   0  0  0  0  0  0  0  0  0  0  0  0
  -10.2392  -14.2484   19.2584 C   0  0  0  0  0  0  0  0  0  0  0  0
  -10.7844  -13.6537   18.0474 C   0  0  0  0  0  0  0  0  0  0  0  0
  -12.0081  -14.2213   17.4352 C   0  0  0  0  0  0  0  0  0  0  0  0
  -12.5682  -13.7040   16.2857 N   0  0  0  0  0  0  0  0  0  0  0  0
   -9.9838  -12.6560   17.7482 N   0  0  0  0  0  0  0  0  0  0  0  0
   -8.9965  -12.6051   18.6530 C   0  0  0  0  0  0  0  0  0  0  0  0
   -9.1464  -13.5594   19.5707 N   0  0  0  0  0  0  0  0  0  0  0  0
  2  1  1  1  0  0  0
  2  3  1  0  0  0  0
  2  5  1  0  0  0  0
  3  4  1  0  0  0  0
  3 17  1  0  0  0  0
  5  6  1  0  0  0  0
  7  6  1  6  0  0  0
  7  8  1  0  0  0  0
  7  9  1  0  0  0  0
 10  9  1  6  0  0  0
 10 11  1  0  0  0  0
 10 12  1  0  0  0  0
 11 16  1  0  0  0  0
 12 13  1  1  0  0  0
 12 14  1  0  0  0  0
 14 15  1  1  0  0  0
 14 16  1  0  0  0  0
 16 27  1  6  0  0  0
 18 19  2  0  0  0  0
 18 23  1  0  0  0  0
 19 20  1  0  0  0  0
 20 21  2  0  0  0  0
 21 22  1  0  0  0  0
 21 27  1  0  0  0  0
 22 23  2  0  0  0  0
 22 25  1  0  0  0  0
 23 24  1  0  0  0  0
 25 26  2  0  0  0  0
 26 27  1  0  0  0  0
M  END
>  <CHROM.1>
-31.84026675,-67.08292665,175.97087610,172.94458829,-169.27516952,58.99378222
-169.92788568,-7.29151638,-12.16329006,18.99304062,0.60528823,-0.50819656
-0.76884214

>  <Name>
ligand

>  <RI>
0

>  <Rbt.Current_Directory>
/home/itssahil/PROJECTS/Mol_Feturizer/Test_systems_manuscript/rnas/4kqy

>  <Rbt.Executable>
rbdock ($Id: //depot/dev/client3/rdock/2013.1/src/exe/rbdock.cxx#4 $)

>  <Rbt.Library>
libRbt.so (2013.1, Build901 2013/11/27)

>  <Rbt.Parameter_File>
/export/apps/rDock/src/rDock_2013.1_src/data/scripts/dock_solv.prm

>  <Rbt.Receptor>
prm/pocket_docking_8.prm

>  <SCORE>
-14.3893

>  <SCORE.INTER>
-11.4324

>  <SCORE.INTER.CONST>
1

>  <SCORE.INTER.POLAR>
0

>  <SCORE.INTER.ROT>
7

>  <SCORE.INTER.SOLV>
13.1513

>  <SCORE.INTER.VDW>
-20.272

>  <SCORE.INTER.norm>
-0.423421

>  <SCORE.INTRA>
-2.9634

>  <SCORE.INTRA.DIHEDRAL>
-6.83572

>  <SCORE.INTRA.DIHEDRAL.0>
10.4103

>  <SCORE.INTRA.POLAR>
0

>  <SCORE.INTRA.POLAR.0>
0

>  <SCORE.INTRA.REPUL>
0

>  <SCORE.INTRA.REPUL.0>
0

>  <SCORE.INTRA.SOLV>
0.00345509

>  <SCORE.INTRA.SOLV.lig_0>
-49.5008

>  <SCORE.INTRA.VDW>
0.452735

>  <SCORE.INTRA.VDW.0>
-2.6946

>  <SCORE.INTRA.norm>
-0.109756

>  <SCORE.RESTR>
0.00650229

>  <SCORE.RESTR.CAVITY>
0.00650229

>  <SCORE.RESTR.norm>
0.000240826

>  <SCORE.SYSTEM>
0

>  <SCORE.SYSTEM.CONST>
0

>  <SCORE.SYSTEM.DIHEDRAL>
0

>  <SCORE.SYSTEM.SOLV>
0

>  <SCORE.SYSTEM.norm>
0

>  <SCORE.heavy>
27

>  <SCORE.norm>
-0.532936

>  <RMSD>
6.232

$$$$
ligand
 OpenBabel02271912153D
libRbt.so/2013.1/901 2013/11/27
 27 29  0  0  0  0  0  0  0  0999 V2000
   -6.6867  -12.3367   20.1013 N   0  0  0  0  0  0  0  0  0  0  0  0
   -5.5293  -11.9135   19.3361 C   0  0  2  0  0  0  0  0  0  0  0  0
   -5.7424  -12.3601   17.9225 C   0  0  0  0  0  0  0  0  0  0  0  0
   -6.8956  -12.3321   17.4413 O   0  0  0  0  0  0  0  0  0  0  0  0
   -4.2534  -12.5404   19.9048 C   0  0  0  0  0  0  0  0  0  0  0  0
   -3.8193  -11.8483   21.2159 C   0  0  0  0  0  0  0  0  0  0  0  0
   -3.2680  -10.2719   21.0537 S   0  0  2  0  0  0  0  0  0  0  0  0
   -2.4801   -9.8178   22.4435 C   0  0  0  0  0  0  0  0  0  0  0  0
   -4.5685   -9.2425   20.7411 C   0  0  0  0  0  0  0  0  0  0  0  0
   -4.3725   -8.3387   19.5056 C   0  0  1  0  0  0  0  0  0  0  0  0
   -2.9921   -8.1645   19.1449 O   0  0  0  0  0  0  0  0  0  0  0  0
   -4.9614   -8.9175   18.2292 C   0  0  1  0  0  0  0  0  0  0  0  0
   -6.3948   -8.8724   18.0804 O   0  0  0  0  0  0  0  0  0  0  0  0
   -4.2148   -8.1148   17.1926 C   0  0  1  0  0  0  0  0  0  0  0  0
   -4.6934   -6.7733   17.1749 O   0  0  0  0  0  0  0  0  0  0  0  0
   -2.8133   -8.1239   17.7272 C   0  0  2  0  0  0  0  0  0  0  0  0
   -4.7570  -12.7239   17.2371 O   0  0  0  0  0  0  0  0  0  0  0  0
   -0.0987  -10.4123   13.7686 N   0  0  0  0  0  0  0  0  0  0  0  0
   -0.7215   -9.2089   13.7926 C   0  0  0  0  0  0  0  0  0  0  0  0
   -1.3836   -8.7540   14.8696 N   0  0  0  0  0  0  0  0  0  0  0  0
   -1.4533   -9.4575   16.0052 C   0  0  0  0  0  0  0  0  0  0  0  0
   -0.7847  -10.7492   16.0496 C   0  0  0  0  0  0  0  0  0  0  0  0
   -0.0723  -11.2508   14.8516 C   0  0  0  0  0  0  0  0  0  0  0  0
    0.5749  -12.4688   14.8320 N   0  0  0  0  0  0  0  0  0  0  0  0
   -0.9920  -11.2168   17.2597 N   0  0  0  0  0  0  0  0  0  0  0  0
   -1.7387  -10.3383   17.9427 C   0  0  0  0  0  0  0  0  0  0  0  0
   -2.0168   -9.2714   17.1944 N   0  0  0  0  0  0  0  0  0  0  0  0
  2  1  1  1  0  0  0
  2  3  1  0  0  0  0
  2  5  1  0  0  0  0
  3  4  1  0  0  0  0
  3 17  1  0  0  0  0
  5  6  1  0  0  0  0
  7  6  1  1  0  0  0
  7  8  1  0  0  0  0
  7  9  1  0  0  0  0
 10  9  1  1  0  0  0
 10 11  1  0  0  0  0
 10 12  1  0  0  0  0
 11 16  1  0  0  0  0
 12 13  1  1  0  0  0
 12 14  1  0  0  0  0
 14 15  1  1  0  0  0
 14 16  1  0  0  0  0
 16 27  1  6  0  0  0
 18 19  2  0  0  0  0
 18 23  1  0  0  0  0
 19 20  1  0  0  0  0
 20 21  2  0  0  0  0
 21 22  1  0  0  0  0
 21 27  1  0  0  0  0
 22 23  2  0  0  0  0
 22 25  1  0  0  0  0
 23 24  1  0  0  0  0
 25 26  2  0  0  0  0
 26 27  1  0  0  0  0
M  END
>  <CHROM.1>
36.29570793,-75.34374148,-68.72680705,-165.20182881,-128.21405487,-21.65285153
-166.70842477,-3.30676418,-10.20974144,18.02330183,3.04491962,0.87160466
0.22312962

>  <Name>
ligand

>  <RI>
0

>  <Rbt.Current_Directory>
/home/itssahil/PROJECTS/Mol_Feturizer/Test_systems_manuscript/rnas/4kqy

>  <Rbt.Executable>
rbdock ($Id: //depot/dev/client3/rdock/2013.1/src/exe/rbdock.cxx#4 $)

>  <Rbt.Library>
libRbt.so (2013.1, Build901 2013/11/27)

>  <Rbt.Parameter_File>
/export/apps/rDock/src/rDock_2013.1_src/data/scripts/dock_solv.prm

>  <Rbt.Receptor>
prm/pocket_docking_6.prm

>  <SCORE>
-10.9199

>  <SCORE.INTER>
-11.8405

>  <SCORE.INTER.CONST>
1

>  <SCORE.INTER.POLAR>
0

>  <SCORE.INTER.ROT>
7

>  <SCORE.INTER.SOLV>
8.90363

>  <SCORE.INTER.VDW>
-19.1282

>  <SCORE.INTER.norm>
-0.438536

>  <SCORE.INTRA>
0.920591

>  <SCORE.INTRA.DIHEDRAL>
2.30481

>  <SCORE.INTRA.DIHEDRAL.0>
10.4103

>  <SCORE.INTRA.POLAR>
0

>  <SCORE.INTRA.POLAR.0>
0

>  <SCORE.INTRA.REPUL>
0

>  <SCORE.INTRA.REPUL.0>
0

>  <SCORE.INTRA.SOLV>
1.93179

>  <SCORE.INTRA.SOLV.lig_0>
-49.5008

>  <SCORE.INTRA.VDW>
-1.19771

>  <SCORE.INTRA.VDW.0>
-2.6946

>  <SCORE.INTRA.norm>
0.034096

>  <SCORE.RESTR>
0

>  <SCORE.RESTR.CAVITY>
0

>  <SCORE.RESTR.norm>
0

>  <SCORE.SYSTEM>
0

>  <SCORE.SYSTEM.CONST>
0

>  <SCORE.SYSTEM.DIHEDRAL>
0

>  <SCORE.SYSTEM.SOLV>
0

>  <SCORE.SYSTEM.norm>
0

>  <SCORE.heavy>
27

>  <SCORE.norm>
-0.40444

>  <RMSD>
6.257

$$$$
ligand
 OpenBabel02271912153D
libRbt.so/2013.1/901 2013/11/27
 27 29  0  0  0  0  0  0  0  0999 V2000
   -6.0800  -14.0097   20.5481 N   0  0  0  0  0  0  0  0  0  0  0  0
   -6.8654  -12.7948   20.6547 C   0  0  2  0  0  0  0  0  0  0  0  0
   -7.9023  -12.8386   19.5748 C   0  0  0  0  0  0  0  0  0  0  0  0
   -7.5529  -12.6708   18.3865 O   0  0  0  0  0  0  0  0  0  0  0  0
   -5.9720  -11.5632   20.4837 C   0  0  0  0  0  0  0  0  0  0  0  0
   -4.9313  -11.4576   21.6205 C   0  0  0  0  0  0  0  0  0  0  0  0
   -3.7780  -10.2529   21.4362 S   0  0  2  0  0  0  0  0  0  0  0  0
   -2.7771  -10.2407   22.7616 C   0  0  0  0  0  0  0  0  0  0  0  0
   -4.5397   -8.7585   21.2493 C   0  0  0  0  0  0  0  0  0  0  0  0
   -4.3534   -8.1278   19.8531 C   0  0  1  0  0  0  0  0  0  0  0  0
   -2.9821   -8.0986   19.4235 O   0  0  0  0  0  0  0  0  0  0  0  0
   -5.0172   -8.9167   18.7360 C   0  0  1  0  0  0  0  0  0  0  0  0
   -6.4520   -8.8292   18.6245 O   0  0  0  0  0  0  0  0  0  0  0  0
   -4.2779   -8.3737   17.5382 C   0  0  1  0  0  0  0  0  0  0  0  0
   -4.6975   -7.0396   17.2679 O   0  0  0  0  0  0  0  0  0  0  0  0
   -2.8580   -8.3482   18.0213 C   0  0  2  0  0  0  0  0  0  0  0  0
   -9.0965  -13.0740   19.8778 O   0  0  0  0  0  0  0  0  0  0  0  0
   -2.5729  -13.6562   18.1652 N   0  0  0  0  0  0  0  0  0  0  0  0
   -3.5466  -12.8404   18.6375 C   0  0  0  0  0  0  0  0  0  0  0  0
   -3.4852  -11.5019   18.5390 N   0  0  0  0  0  0  0  0  0  0  0  0
   -2.4590  -10.8837   17.9439 C   0  0  0  0  0  0  0  0  0  0  0  0
   -1.3915  -11.7069   17.3961 C   0  0  0  0  0  0  0  0  0  0  0  0
   -1.4588  -13.1810   17.5251 C   0  0  0  0  0  0  0  0  0  0  0  0
   -0.4753  -14.0123   17.0307 N   0  0  0  0  0  0  0  0  0  0  0  0
   -0.5308  -10.8681   16.8655 N   0  0  0  0  0  0  0  0  0  0  0  0
   -0.9685   -9.6163   17.0587 C   0  0  0  0  0  0  0  0  0  0  0  0
   -2.1343   -9.6174   17.7042 N   0  0  0  0  0  0  0  0  0  0  0  0
  2  1  1  6  0  0  0
  2  3  1  0  0  0  0
  2  5  1  0  0  0  0
  3  4  1  0  0  0  0
  3 17  1  0  0  0  0
  5  6  1  0  0  0  0
  7  6  1  1  0  0  0
  7  8  1  0  0  0  0
  7  9  1  0  0  0  0
 10  9  1  1  0  0  0
 10 11  1  0  0  0  0
 10 12  1  0  0  0  0
 11 16  1  0  0  0  0
 12 13  1  6  0  0  0
 12 14  1  0  0  0  0
 14 15  1  1  0  0  0
 14 16  1  0  0  0  0
 16 27  1  1  0  0  0
 18 19  2  0  0  0  0
 18 23  1  0  0  0  0
 19 20  1  0  0  0  0
 20 21  2  0  0  0  0
 21 22  1  0  0  0  0
 21 27  1  0  0  0  0
 22 23  2  0  0  0  0
 22 25  1  0  0  0  0
 23 24  1  0  0  0  0
 25 26  2  0  0  0  0
 26 27  1  0  0  0  0
M  END
>  <CHROM.1>
-72.26522900,-64.06591395,172.81998561,177.99115556,-113.16822386,-49.95582363
65.20460300,-4.10675934,-10.79832562,19.14337376,-2.86368462,0.47365138,0.09129727

>  <Name>
ligand

>  <RI>
0

>  <Rbt.Current_Directory>
/home/itssahil/PROJECTS/Mol_Feturizer/Test_systems_manuscript/rnas/4kqy

>  <Rbt.Executable>
rbdock ($Id: //depot/dev/client3/rdock/2013.1/src/exe/rbdock.cxx#4 $)

>  <Rbt.Library>
libRbt.so (2013.1, Build901 2013/11/27)

>  <Rbt.Parameter_File>
/export/apps/rDock/src/rDock_2013.1_src/data/scripts/dock_solv.prm

>  <Rbt.Receptor>
prm/pocket_docking_4.prm

>  <SCORE>
-14.2643

>  <SCORE.INTER>
-11.1288

>  <SCORE.INTER.CONST>
1

>  <SCORE.INTER.POLAR>
0

>  <SCORE.INTER.ROT>
7

>  <SCORE.INTER.SOLV>
17.6759

>  <SCORE.INTER.VDW>
-21.5779

>  <SCORE.INTER.norm>
-0.412179

>  <SCORE.INTRA>
-3.13551

>  <SCORE.INTRA.DIHEDRAL>
-2.43497

>  <SCORE.INTRA.DIHEDRAL.0>
10.4103

>  <SCORE.INTRA.POLAR>
0

>  <SCORE.INTRA.POLAR.0>
0

>  <SCORE.INTRA.REPUL>
0

>  <SCORE.INTRA.REPUL.0>
0

>  <SCORE.INTRA.SOLV>
0.932055

>  <SCORE.INTRA.SOLV.lig_0>
-49.5008

>  <SCORE.INTRA.VDW>
-2.38405

>  <SCORE.INTRA.VDW.0>
-2.6946

>  <SCORE.INTRA.norm>
-0.11613

>  <SCORE.RESTR>
0

>  <SCORE.RESTR.CAVITY>
0

>  <SCORE.RESTR.norm>
0

>  <SCORE.SYSTEM>
0

>  <SCORE.SYSTEM.CONST>
0

>  <SCORE.SYSTEM.DIHEDRAL>
0

>  <SCORE.SYSTEM.SOLV>
0

>  <SCORE.SYSTEM.norm>
0

>  <SCORE.heavy>
27

>  <SCORE.norm>
-0.528309

>  <RMSD>
6.269

$$$$
ligand
 OpenBabel02271912153D
libRbt.so/2013.1/901 2013/11/27
 27 29  0  0  0  0  0  0  0  0999 V2000
   -7.0224  -13.6259   18.9154 N   0  0  0  0  0  0  0  0  0  0  0  0
   -5.8628  -12.9198   19.4261 C   0  0  2  0  0  0  0  0  0  0  0  0
   -4.6988  -13.8589   19.3464 C   0  0  0  0  0  0  0  0  0  0  0  0
   -4.8566  -15.0549   19.6734 O   0  0  0  0  0  0  0  0  0  0  0  0
   -6.0965  -12.4850   20.8755 C   0  0  0  0  0  0  0  0  0  0  0  0
   -4.9342  -11.6119   21.3981 C   0  0  0  0  0  0  0  0  0  0  0  0
   -4.6382  -10.2065   20.5307 S   0  0  2  0  0  0  0  0  0  0  0  0
   -3.3780   -9.3817   21.2309 C   0  0  0  0  0  0  0  0  0  0  0  0
   -6.0305   -9.2532   20.4974 C   0  0  0  0  0  0  0  0  0  0  0  0
   -6.5051   -8.8825   19.0764 C   0  0  1  0  0  0  0  0  0  0  0  0
   -5.4619   -8.3280   18.2578 O   0  0  0  0  0  0  0  0  0  0  0  0
   -6.9501  -10.0799   18.2522 C   0  0  1  0  0  0  0  0  0  0  0  0
   -8.2304  -10.6629   18.5675 O   0  0  0  0  0  0  0  0  0  0  0  0
   -6.8686   -9.5022   16.8608 C   0  0  1  0  0  0  0  0  0  0  0  0
   -7.9278   -8.5724   16.6545 O   0  0  0  0  0  0  0  0  0  0  0  0
   -5.5676   -8.7565   16.8980 C   0  0  2  0  0  0  0  0  0  0  0  0
   -3.5959  -13.4371   18.9237 O   0  0  0  0  0  0  0  0  0  0  0  0
   -0.9235   -9.2713   14.3596 N   0  0  0  0  0  0  0  0  0  0  0  0
   -1.6865   -8.1639   14.5273 C   0  0  0  0  0  0  0  0  0  0  0  0
   -2.8542   -8.1791   15.1919 N   0  0  0  0  0  0  0  0  0  0  0  0
   -3.3326   -9.2947   15.7539 C   0  0  0  0  0  0  0  0  0  0  0  0
   -2.5473  -10.5132   15.6276 C   0  0  0  0  0  0  0  0  0  0  0  0
   -1.2699  -10.4911   14.8779 C   0  0  0  0  0  0  0  0  0  0  0  0
   -0.4854  -11.6147   14.7202 N   0  0  0  0  0  0  0  0  0  0  0  0
   -3.2222  -11.4406   16.2682 N   0  0  0  0  0  0  0  0  0  0  0  0
   -4.3496  -10.9012   16.7520 C   0  0  0  0  0  0  0  0  0  0  0  0
   -4.4211   -9.6053   16.4505 N   0  0  0  0  0  0  0  0  0  0  0  0
  2  1  1  1  0  0  0
  2  3  1  0  0  0  0
  2  5  1  0  0  0  0
  3  4  1  0  0  0  0
  3 17  1  0  0  0  0
  5  6  1  0  0  0  0
  7  6  1  1  0  0  0
  7  8  1  0  0  0  0
  7  9  1  0  0  0  0
 10  9  1  1  0  0  0
 10 11  1  0  0  0  0
 10 12  1  0  0  0  0
 11 16  1  0  0  0  0
 12 13  1  1  0  0  0
 12 14  1  0  0  0  0
 14 15  1  1  0  0  0
 14 16  1  0  0  0  0
 16 27  1  1  0  0  0
 18 19  2  0  0  0  0
 18 23  1  0  0  0  0
 19 20  1  0  0  0  0
 20 21  2  0  0  0  0
 21 22  1  0  0  0  0
 21 27  1  0  0  0  0
 22 23  2  0  0  0  0
 22 25  1  0  0  0  0
 23 24  1  0  0  0  0
 25 26  2  0  0  0  0
 26 27  1  0  0  0  0
M  END
>  <CHROM.1>
-41.96542902,-174.42514926,58.69499577,179.34663474,-124.37663411,-50.83443384
-98.94612347,-4.64504069,-10.59965464,17.97374487,-2.35329131,0.62089190
-0.62378570

>  <Name>
ligand

>  <RI>
0

>  <Rbt.Current_Directory>
/home/itssahil/PROJECTS/Mol_Feturizer/Test_systems_manuscript/rnas/4kqy

>  <Rbt.Executable>
rbdock ($Id: //depot/dev/client3/rdock/2013.1/src/exe/rbdock.cxx#4 $)

>  <Rbt.Library>
libRbt.so (2013.1, Build901 2013/11/27)

>  <Rbt.Parameter_File>
/export/apps/rDock/src/rDock_2013.1_src/data/scripts/dock_solv.prm

>  <Rbt.Receptor>
prm/pocket_docking_5.prm

>  <SCORE>
-11.7442

>  <SCORE.INTER>
-9.56435

>  <SCORE.INTER.CONST>
1

>  <SCORE.INTER.POLAR>
0

>  <SCORE.INTER.ROT>
7

>  <SCORE.INTER.SOLV>
8.91873

>  <SCORE.INTER.VDW>
-17.6158

>  <SCORE.INTER.norm>
-0.354235

>  <SCORE.INTRA>
-2.17987

>  <SCORE.INTRA.DIHEDRAL>
-2.5265

>  <SCORE.INTRA.DIHEDRAL.0>
10.4103

>  <SCORE.INTRA.POLAR>
0

>  <SCORE.INTRA.POLAR.0>
0

>  <SCORE.INTRA.REPUL>
0

>  <SCORE.INTRA.REPUL.0>
0

>  <SCORE.INTRA.SOLV>
1.72197

>  <SCORE.INTRA.SOLV.lig_0>
-49.5008

>  <SCORE.INTRA.VDW>
-1.7776

>  <SCORE.INTRA.VDW.0>
-2.6946

>  <SCORE.INTRA.norm>
-0.0807359

>  <SCORE.RESTR>
0

>  <SCORE.RESTR.CAVITY>
0

>  <SCORE.RESTR.norm>
0

>  <SCORE.SYSTEM>
0

>  <SCORE.SYSTEM.CONST>
0

>  <SCORE.SYSTEM.DIHEDRAL>
0

>  <SCORE.SYSTEM.SOLV>
0

>  <SCORE.SYSTEM.norm>
0

>  <SCORE.heavy>
27

>  <SCORE.norm>
-0.434971

>  <RMSD>
6.273

$$$$
ligand
 OpenBabel02271912153D
libRbt.so/2013.1/901 2013/11/27
 27 29  0  0  0  0  0  0  0  0999 V2000
   -4.5500  -14.1322   21.8381 N   0  0  0  0  0  0  0  0  0  0  0  0
   -5.7837  -13.5854   21.3057 C   0  0  2  0  0  0  0  0  0  0  0  0
   -6.3142  -14.5705   20.3101 C   0  0  0  0  0  0  0  0  0  0  0  0
   -5.5567  -14.9993   19.4131 O   0  0  0  0  0  0  0  0  0  0  0  0
   -5.5237  -12.2358   20.6311 C   0  0  0  0  0  0  0  0  0  0  0  0
   -4.8645  -11.2344   21.6054 C   0  0  0  0  0  0  0  0  0  0  0  0
   -4.5087   -9.7263   20.9619 S   0  0  2  0  0  0  0  0  0  0  0  0
   -3.6055   -8.8602   22.0541 C   0  0  0  0  0  0  0  0  0  0  0  0
   -5.9401   -8.9122   20.5919 C   0  0  0  0  0  0  0  0  0  0  0  0
   -6.1240   -8.6147   19.0888 C   0  0  1  0  0  0  0  0  0  0  0  0
   -5.0125   -7.9099   18.5110 O   0  0  0  0  0  0  0  0  0  0  0  0
   -6.1887   -9.8640   18.2251 C   0  0  1  0  0  0  0  0  0  0  0  0
   -7.4085  -10.6318   18.2600 O   0  0  0  0  0  0  0  0  0  0  0  0
   -5.8744   -9.2791   16.8704 C   0  0  1  0  0  0  0  0  0  0  0  0
   -6.9813   -8.5173   16.3978 O   0  0  0  0  0  0  0  0  0  0  0  0
   -4.7393   -8.3478   17.1779 C   0  0  2  0  0  0  0  0  0  0  0  0
   -7.4983  -14.9715   20.4124 O   0  0  0  0  0  0  0  0  0  0  0  0
   -1.5361  -12.4961   18.0765 N   0  0  0  0  0  0  0  0  0  0  0  0
   -2.8276  -12.3188   18.4470 C   0  0  0  0  0  0  0  0  0  0  0  0
   -3.5214  -11.2056   18.1561 N   0  0  0  0  0  0  0  0  0  0  0  0
   -2.9830  -10.2001   17.4571 C   0  0  0  0  0  0  0  0  0  0  0  0
   -1.6051  -10.3405   17.0109 C   0  0  0  0  0  0  0  0  0  0  0  0
   -0.8421  -11.5636   17.3517 C   0  0  0  0  0  0  0  0  0  0  0  0
    0.4676  -11.7510   16.9614 N   0  0  0  0  0  0  0  0  0  0  0  0
   -1.3311   -9.2402   16.3475 N   0  0  0  0  0  0  0  0  0  0  0  0
   -2.4069   -8.4413   16.3681 C   0  0  0  0  0  0  0  0  0  0  0  0
   -3.4098   -9.0157   17.0312 N   0  0  0  0  0  0  0  0  0  0  0  0
  2  1  1  6  0  0  0
  2  3  1  0  0  0  0
  2  5  1  0  0  0  0
  3  4  1  0  0  0  0
  3 17  1  0  0  0  0
  5  6  1  0  0  0  0
  7  6  1  1  0  0  0
  7  8  1  0  0  0  0
  7  9  1  0  0  0  0
 10  9  1  1  0  0  0
 10 11  1  0  0  0  0
 10 12  1  0  0  0  0
 11 16  1  0  0  0  0
 12 13  1  6  0  0  0
 12 14  1  0  0  0  0
 14 15  1  1  0  0  0
 14 16  1  0  0  0  0
 16 27  1  1  0  0  0
 18 19  2  0  0  0  0
 18 23  1  0  0  0  0
 19 20  1  0  0  0  0
 20 21  2  0  0  0  0
 21 22  1  0  0  0  0
 21 27  1  0  0  0  0
 22 23  2  0  0  0  0
 22 25  1  0  0  0  0
 23 24  1  0  0  0  0
 25 26  2  0  0  0  0
 26 27  1  0  0  0  0
M  END
>  <CHROM.1>
-50.82661439,-56.76042779,178.95718271,-171.44802711,-116.52853914,-54.13925590
71.18896586,-4.40404230,-10.80713208,18.91057587,-2.16446695,0.45056701,-0.44722741

>  <Name>
ligand

>  <RI>
0

>  <Rbt.Current_Directory>
/home/itssahil/PROJECTS/Mol_Feturizer/Test_systems_manuscript/rnas/4kqy

>  <Rbt.Executable>
rbdock ($Id: //depot/dev/client3/rdock/2013.1/src/exe/rbdock.cxx#4 $)

>  <Rbt.Library>
libRbt.so (2013.1, Build901 2013/11/27)

>  <Rbt.Parameter_File>
/export/apps/rDock/src/rDock_2013.1_src/data/scripts/dock_solv.prm

>  <Rbt.Receptor>
prm/pocket_docking_4.prm

>  <SCORE>
-13.6219

>  <SCORE.INTER>
-10.373

>  <SCORE.INTER.CONST>
1

>  <SCORE.INTER.POLAR>
0

>  <SCORE.INTER.ROT>
7

>  <SCORE.INTER.SOLV>
16.2632

>  <SCORE.INTER.VDW>
-20.6031

>  <SCORE.INTER.norm>
-0.384184

>  <SCORE.INTRA>
-3.24889

>  <SCORE.INTRA.DIHEDRAL>
-2.52935

>  <SCORE.INTRA.DIHEDRAL.0>
10.4103

>  <SCORE.INTRA.POLAR>
0

>  <SCORE.INTRA.POLAR.0>
0

>  <SCORE.INTRA.REPUL>
0

>  <SCORE.INTRA.REPUL.0>
0

>  <SCORE.INTRA.SOLV>
0.610099

>  <SCORE.INTRA.SOLV.lig_0>
-49.5008

>  <SCORE.INTRA.VDW>
-2.28926

>  <SCORE.INTRA.VDW.0>
-2.6946

>  <SCORE.INTRA.norm>
-0.120329

>  <SCORE.RESTR>
0

>  <SCORE.RESTR.CAVITY>
0

>  <SCORE.RESTR.norm>
0

>  <SCORE.SYSTEM>
0

>  <SCORE.SYSTEM.CONST>
0

>  <SCORE.SYSTEM.DIHEDRAL>
0

>  <SCORE.SYSTEM.SOLV>
0

>  <SCORE.SYSTEM.norm>
0

>  <SCORE.heavy>
27

>  <SCORE.norm>
-0.504513

>  <RMSD>
6.278

$$$$
ligand
 OpenBabel02271912153D
libRbt.so/2013.1/901 2013/11/27
 27 29  0  0  0  0  0  0  0  0999 V2000
   -4.4119  -14.6569   22.0013 N   0  0  0  0  0  0  0  0  0  0  0  0
   -5.5766  -13.8508   21.6881 C   0  0  2  0  0  0  0  0  0  0  0  0
   -6.4443  -14.6588   20.7730 C   0  0  0  0  0  0  0  0  0  0  0  0
   -7.6749  -14.7088   20.9858 O   0  0  0  0  0  0  0  0  0  0  0  0
   -5.1565  -12.5455   21.0070 C   0  0  0  0  0  0  0  0  0  0  0  0
   -4.2125  -11.7169   21.9063 C   0  0  0  0  0  0  0  0  0  0  0  0
   -3.7791  -10.2109   21.3068 S   0  0  2  0  0  0  0  0  0  0  0  0
   -2.5944   -9.5550   22.2685 C   0  0  0  0  0  0  0  0  0  0  0  0
   -5.1337   -9.2053   21.2584 C   0  0  0  0  0  0  0  0  0  0  0  0
   -5.6670   -8.9365   19.8353 C   0  0  1  0  0  0  0  0  0  0  0  0
   -4.7034   -8.2984   18.9808 O   0  0  0  0  0  0  0  0  0  0  0  0
   -5.9892  -10.2023   19.0575 C   0  0  1  0  0  0  0  0  0  0  0  0
   -7.1927  -10.9115   19.4143 O   0  0  0  0  0  0  0  0  0  0  0  0
   -5.9922   -9.6659   17.6474 C   0  0  1  0  0  0  0  0  0  0  0  0
   -7.1504   -8.8654   17.4312 O   0  0  0  0  0  0  0  0  0  0  0  0
   -4.7810   -8.7811   17.6374 C   0  0  2  0  0  0  0  0  0  0  0  0
   -5.9264  -15.2445   19.7922 O   0  0  0  0  0  0  0  0  0  0  0  0
   -1.5897  -13.0252   17.9191 N   0  0  0  0  0  0  0  0  0  0  0  0
   -2.7383  -12.7745   18.5933 C   0  0  0  0  0  0  0  0  0  0  0  0
   -3.4471  -11.6451   18.4278 N   0  0  0  0  0  0  0  0  0  0  0  0
   -3.0719  -10.6960   17.5630 C   0  0  0  0  0  0  0  0  0  0  0  0
   -1.8578  -10.9170   16.7920 C   0  0  0  0  0  0  0  0  0  0  0  0
   -1.0730  -12.1569   16.9940 C   0  0  0  0  0  0  0  0  0  0  0  0
    0.0878  -12.4193   16.2966 N   0  0  0  0  0  0  0  0  0  0  0  0
   -1.7261   -9.8598   16.0232 N   0  0  0  0  0  0  0  0  0  0  0  0
   -2.7351   -9.0136   16.2718 C   0  0  0  0  0  0  0  0  0  0  0  0
   -3.5546   -9.5133   17.1961 N   0  0  0  0  0  0  0  0  0  0  0  0
  2  1  1  6  0  0  0
  2  3  1  0  0  0  0
  2  5  1  0  0  0  0
  3  4  1  0  0  0  0
  3 17  1  0  0  0  0
  5  6  1  0  0  0  0
  7  6  1  1  0  0  0
  7  8  1  0  0  0  0
  7  9  1  0  0  0  0
 10  9  1  1  0  0  0
 10 11  1  0  0  0  0
 10 12  1  0  0  0  0
 11 16  1  0  0  0  0
 12 13  1  1  0  0  0
 12 14  1  0  0  0  0
 14 15  1  1  0  0  0
 14 16  1  0  0  0  0
 16 27  1  1  0  0  0
 18 19  2  0  0  0  0
 18 23  1  0  0  0  0
 19 20  1  0  0  0  0
 20 21  2  0  0  0  0
 21 22  1  0  0  0  0
 21 27  1  0  0  0  0
 22 23  2  0  0  0  0
 22 25  1  0  0  0  0
 23 24  1  0  0  0  0
 25 26  2  0  0  0  0
 26 27  1  0  0  0  0
M  END
>  <CHROM.1>
134.71901801,-59.21928460,-175.63270945,-171.45671318,-107.53145728,-60.20908619
69.93875988,-4.28018454,-11.21507349,19.23171288,-2.29745893,0.63424202,-0.40713155

>  <Name>
ligand

>  <RI>
0

>  <Rbt.Current_Directory>
/home/itssahil/PROJECTS/Mol_Feturizer/Test_systems_manuscript/rnas/4kqy

>  <Rbt.Executable>
rbdock ($Id: //depot/dev/client3/rdock/2013.1/src/exe/rbdock.cxx#4 $)

>  <Rbt.Library>
libRbt.so (2013.1, Build901 2013/11/27)

>  <Rbt.Parameter_File>
/export/apps/rDock/src/rDock_2013.1_src/data/scripts/dock_solv.prm

>  <Rbt.Receptor>
prm/pocket_docking_3.prm

>  <SCORE>
-13.5219

>  <SCORE.INTER>
-10.2015

>  <SCORE.INTER.CONST>
1

>  <SCORE.INTER.POLAR>
0

>  <SCORE.INTER.ROT>
7

>  <SCORE.INTER.SOLV>
13.9452

>  <SCORE.INTER.VDW>
-19.7161

>  <SCORE.INTER.norm>
-0.377835

>  <SCORE.INTRA>
-3.32041

>  <SCORE.INTRA.DIHEDRAL>
-3.13444

>  <SCORE.INTRA.DIHEDRAL.0>
10.4103

>  <SCORE.INTRA.POLAR>
0

>  <SCORE.INTRA.POLAR.0>
0

>  <SCORE.INTRA.REPUL>
0

>  <SCORE.INTRA.REPUL.0>
0

>  <SCORE.INTRA.SOLV>
0.728756

>  <SCORE.INTRA.SOLV.lig_0>
-49.5008

>  <SCORE.INTRA.VDW>
-2.11757

>  <SCORE.INTRA.VDW.0>
-2.6946

>  <SCORE.INTRA.norm>
-0.122978

>  <SCORE.RESTR>
0

>  <SCORE.RESTR.CAVITY>
0

>  <SCORE.RESTR.norm>
0

>  <SCORE.SYSTEM>
0

>  <SCORE.SYSTEM.CONST>
0

>  <SCORE.SYSTEM.DIHEDRAL>
0

>  <SCORE.SYSTEM.SOLV>
0

>  <SCORE.SYSTEM.norm>
0

>  <SCORE.heavy>
27

>  <SCORE.norm>
-0.500813

>  <RMSD>
6.299

$$$$
ligand
 OpenBabel02271912153D
libRbt.so/2013.1/901 2013/11/27
 27 29  0  0  0  0  0  0  0  0999 V2000
   -3.2796  -13.2541   16.9493 N   0  0  0  0  0  0  0  0  0  0  0  0
   -3.6953  -12.9088   18.2954 C   0  0  2  0  0  0  0  0  0  0  0  0
   -5.1805  -13.0891   18.3630 C   0  0  0  0  0  0  0  0  0  0  0  0
   -5.9062  -12.4844   17.5444 O   0  0  0  0  0  0  0  0  0  0  0  0
   -3.3208  -11.4592   18.6159 C   0  0  0  0  0  0  0  0  0  0  0  0
   -3.6354  -11.1059   20.0865 C   0  0  0  0  0  0  0  0  0  0  0  0
   -3.1406   -9.5826   20.5865 S   0  0  2  0  0  0  0  0  0  0  0  0
   -2.6993   -9.6441   22.1865 C   0  0  0  0  0  0  0  0  0  0  0  0
   -4.3905   -8.4725   20.3541 C   0  0  0  0  0  0  0  0  0  0  0  0
   -4.5069   -7.9505   18.9064 C   0  0  1  0  0  0  0  0  0  0  0  0
   -3.2394   -7.5967   18.3284 O   0  0  0  0  0  0  0  0  0  0  0  0
   -5.0221   -8.9904   17.9246 C   0  0  1  0  0  0  0  0  0  0  0  0
   -6.4295   -9.3006   17.9650 O   0  0  0  0  0  0  0  0  0  0  0  0
   -4.5677   -8.3858   16.6191 C   0  0  1  0  0  0  0  0  0  0  0  0
   -5.3604   -7.2444   16.3067 O   0  0  0  0  0  0  0  0  0  0  0  0
   -3.1735   -7.9360   16.9413 C   0  0  2  0  0  0  0  0  0  0  0  0
   -5.6676  -13.8669   19.2180 O   0  0  0  0  0  0  0  0  0  0  0  0
   -0.8798  -11.2631   13.4850 N   0  0  0  0  0  0  0  0  0  0  0  0
   -1.8904  -10.3835   13.2810 C   0  0  0  0  0  0  0  0  0  0  0  0
   -2.3820   -9.6014   14.2568 N   0  0  0  0  0  0  0  0  0  0  0  0
   -1.8864   -9.6261   15.4990 C   0  0  0  0  0  0  0  0  0  0  0  0
   -0.7839  -10.5347   15.7757 C   0  0  0  0  0  0  0  0  0  0  0  0
   -0.2602  -11.4061   14.6984 C   0  0  0  0  0  0  0  0  0  0  0  0
    0.7788  -12.2904   14.9019 N   0  0  0  0  0  0  0  0  0  0  0  0
   -0.4826  -10.3548   17.0417 N   0  0  0  0  0  0  0  0  0  0  0  0
   -1.3118   -9.4382   17.5595 C   0  0  0  0  0  0  0  0  0  0  0  0
   -2.1585   -8.9896   16.6335 N   0  0  0  0  0  0  0  0  0  0  0  0
  2  1  1  6  0  0  0
  2  3  1  0  0  0  0
  2  5  1  0  0  0  0
  3  4  1  0  0  0  0
  3 17  1  0  0  0  0
  5  6  1  0  0  0  0
  7  6  1  1  0  0  0
  7  8  1  0  0  0  0
  7  9  1  0  0  0  0
 10  9  1  1  0  0  0
 10 11  1  0  0  0  0
 10 12  1  0  0  0  0
 11 16  1  0  0  0  0
 12 13  1  6  0  0  0
 12 14  1  0  0  0  0
 14 15  1  1  0  0  0
 14 16  1  0  0  0  0
 16 27  1  1  0  0  0
 18 19  2  0  0  0  0
 18 23  1  0  0  0  0
 19 20  1  0  0  0  0
 20 21  2  0  0  0  0
 21 22  1  0  0  0  0
 21 27  1  0  0  0  0
 22 23  2  0  0  0  0
 22 25  1  0  0  0  0
 23 24  1  0  0  0  0
 25 26  2  0  0  0  0
 26 27  1  0  0  0  0
M  END
>  <CHROM.1>
-55.55577624,-174.78795907,174.82578772,-146.69780997,-81.14435617,-44.72726129
174.12797220,-3.20875267,-10.22602961,17.56229173,0.09459406,-0.98010221
3.09165967

>  <Name>
ligand

>  <RI>
0

>  <Rbt.Current_Directory>
/home/itssahil/PROJECTS/Mol_Feturizer/Test_systems_manuscript/rnas/4kqy

>  <Rbt.Executable>
rbdock ($Id: //depot/dev/client3/rdock/2013.1/src/exe/rbdock.cxx#4 $)

>  <Rbt.Library>
libRbt.so (2013.1, Build901 2013/11/27)

>  <Rbt.Parameter_File>
/export/apps/rDock/src/rDock_2013.1_src/data/scripts/dock_solv.prm

>  <Rbt.Receptor>
prm/pocket_docking_6.prm

>  <SCORE>
-12.1751

>  <SCORE.INTER>
-8.7956

>  <SCORE.INTER.CONST>
1

>  <SCORE.INTER.POLAR>
0

>  <SCORE.INTER.ROT>
7

>  <SCORE.INTER.SOLV>
9.83318

>  <SCORE.INTER.VDW>
-17.4081

>  <SCORE.INTER.norm>
-0.325763

>  <SCORE.INTRA>
-3.37952

>  <SCORE.INTRA.DIHEDRAL>
-2.61467

>  <SCORE.INTRA.DIHEDRAL.0>
10.4103

>  <SCORE.INTRA.POLAR>
0

>  <SCORE.INTRA.POLAR.0>
0

>  <SCORE.INTRA.REPUL>
0

>  <SCORE.INTRA.REPUL.0>
0

>  <SCORE.INTRA.SOLV>
0.0172047

>  <SCORE.INTRA.SOLV.lig_0>
-49.5008

>  <SCORE.INTRA.VDW>
-2.08079

>  <SCORE.INTRA.VDW.0>
-2.6946

>  <SCORE.INTRA.norm>
-0.125167

>  <SCORE.RESTR>
0

>  <SCORE.RESTR.CAVITY>
0

>  <SCORE.RESTR.norm>
0

>  <SCORE.SYSTEM>
0

>  <SCORE.SYSTEM.CONST>
0

>  <SCORE.SYSTEM.DIHEDRAL>
0

>  <SCORE.SYSTEM.SOLV>
0

>  <SCORE.SYSTEM.norm>
0

>  <SCORE.heavy>
27

>  <SCORE.norm>
-0.45093

>  <RMSD>
6.303

$$$$
ligand
 OpenBabel02271912153D
libRbt.so/2013.1/901 2013/11/27
 27 29  0  0  0  0  0  0  0  0999 V2000
   -4.4270  -14.0077   21.7273 N   0  0  0  0  0  0  0  0  0  0  0  0
   -5.5455  -13.2959   21.1386 C   0  0  2  0  0  0  0  0  0  0  0  0
   -6.1782  -14.2114   20.1363 C   0  0  0  0  0  0  0  0  0  0  0  0
   -7.4151  -14.1646   19.9629 O   0  0  0  0  0  0  0  0  0  0  0  0
   -5.0638  -12.0126   20.4564 C   0  0  0  0  0  0  0  0  0  0  0  0
   -4.4314  -11.0355   21.4722 C   0  0  0  0  0  0  0  0  0  0  0  0
   -4.2129   -9.4644   20.9253 S   0  0  2  0  0  0  0  0  0  0  0  0
   -3.2492   -8.6372   21.9956 C   0  0  0  0  0  0  0  0  0  0  0  0
   -5.7110   -8.7047   20.7605 C   0  0  0  0  0  0  0  0  0  0  0  0
   -6.1984   -8.5850   19.3010 C   0  0  1  0  0  0  0  0  0  0  0  0
   -5.2042   -8.0449   18.4146 O   0  0  0  0  0  0  0  0  0  0  0  0
   -6.5064   -9.9243   18.6511 C   0  0  1  0  0  0  0  0  0  0  0  0
   -7.7257  -10.5865   19.0427 O   0  0  0  0  0  0  0  0  0  0  0  0
   -6.4622   -9.5395   17.1929 C   0  0  1  0  0  0  0  0  0  0  0  0
   -7.6069   -8.7611   16.8575 O   0  0  0  0  0  0  0  0  0  0  0  0
   -5.2443   -8.6662   17.1277 C   0  0  2  0  0  0  0  0  0  0  0  0
   -5.4533  -14.9857   19.4668 O   0  0  0  0  0  0  0  0  0  0  0  0
   -2.8738  -13.2900   15.9975 N   0  0  0  0  0  0  0  0  0  0  0  0
   -4.1829  -13.0393   16.2427 C   0  0  0  0  0  0  0  0  0  0  0  0
   -4.6476  -11.8106   16.5251 N   0  0  0  0  0  0  0  0  0  0  0  0
   -3.8433  -10.7424   16.5620 C   0  0  0  0  0  0  0  0  0  0  0  0
   -2.4290  -10.9434   16.2849 C   0  0  0  0  0  0  0  0  0  0  0  0
   -1.9225  -12.3042   15.9922 C   0  0  0  0  0  0  0  0  0  0  0  0
   -0.5926  -12.5573   15.7273 N   0  0  0  0  0  0  0  0  0  0  0  0
   -1.8763   -9.7547   16.3707 N   0  0  0  0  0  0  0  0  0  0  0  0
   -2.8199   -8.8591   16.6924 C   0  0  0  0  0  0  0  0  0  0  0  0
   -4.0107   -9.4464   16.8044 N   0  0  0  0  0  0  0  0  0  0  0  0
  2  1  1  6  0  0  0
  2  3  1  0  0  0  0
  2  5  1  0  0  0  0
  3  4  1  0  0  0  0
  3 17  1  0  0  0  0
  5  6  1  0  0  0  0
  7  6  1  1  0  0  0
  7  8  1  0  0  0  0
  7  9  1  0  0  0  0
 10  9  1  1  0  0  0
 10 11  1  0  0  0  0
 10 12  1  0  0  0  0
 11 16  1  0  0  0  0
 12 13  1  1  0  0  0
 12 14  1  0  0  0  0
 14 15  1  1  0  0  0
 14 16  1  0  0  0  0
 16 27  1  1  0  0  0
 18 19  2  0  0  0  0
 18 23  1  0  0  0  0
 19 20  1  0  0  0  0
 20 21  2  0  0  0  0
 21 22  1  0  0  0  0
 21 27  1  0  0  0  0
 22 23  2  0  0  0  0
 22 25  1  0  0  0  0
 23 24  1  0  0  0  0
 25 26  2  0  0  0  0
 26 27  1  0  0  0  0
M  END
>  <CHROM.1>
146.21341423,-62.69088201,-165.58346412,-168.21436928,-103.59835395,-49.49899841
117.83553544,-4.70458520,-10.93568160,18.61227074,-2.79535552,0.97166748
-0.21891415

>  <Name>
ligand

>  <RI>
0

>  <Rbt.Current_Directory>
/home/itssahil/PROJECTS/Mol_Feturizer/Test_systems_manuscript/rnas/4kqy

>  <Rbt.Executable>
rbdock ($Id: //depot/dev/client3/rdock/2013.1/src/exe/rbdock.cxx#4 $)

>  <Rbt.Library>
libRbt.so (2013.1, Build901 2013/11/27)

>  <Rbt.Parameter_File>
/export/apps/rDock/src/rDock_2013.1_src/data/scripts/dock_solv.prm

>  <Rbt.Receptor>
prm/pocket_docking_4.prm

>  <SCORE>
-10.4324

>  <SCORE.INTER>
-8.35638

>  <SCORE.INTER.CONST>
1

>  <SCORE.INTER.POLAR>
0

>  <SCORE.INTER.ROT>
7

>  <SCORE.INTER.SOLV>
9.53009

>  <SCORE.INTER.VDW>
-17.0143

>  <SCORE.INTER.norm>
-0.309496

>  <SCORE.INTRA>
-2.07603

>  <SCORE.INTRA.DIHEDRAL>
-2.20662

>  <SCORE.INTRA.DIHEDRAL.0>
10.4103

>  <SCORE.INTRA.POLAR>
0

>  <SCORE.INTRA.POLAR.0>
0

>  <SCORE.INTRA.REPUL>
0

>  <SCORE.INTRA.REPUL.0>
0

>  <SCORE.INTRA.SOLV>
0.591715

>  <SCORE.INTRA.SOLV.lig_0>
-49.5008

>  <SCORE.INTRA.VDW>
-1.26857

>  <SCORE.INTRA.VDW.0>
-2.6946

>  <SCORE.INTRA.norm>
-0.0768899

>  <SCORE.RESTR>
0

>  <SCORE.RESTR.CAVITY>
0

>  <SCORE.RESTR.norm>
0

>  <SCORE.SYSTEM>
0

>  <SCORE.SYSTEM.CONST>
0

>  <SCORE.SYSTEM.DIHEDRAL>
0

>  <SCORE.SYSTEM.SOLV>
0

>  <SCORE.SYSTEM.norm>
0

>  <SCORE.heavy>
27

>  <SCORE.norm>
-0.386385

>  <RMSD>
6.309

$$$$
ligand
 OpenBabel02271912153D
libRbt.so/2013.1/901 2013/11/27
 27 29  0  0  0  0  0  0  0  0999 V2000
   -3.5655   -8.8501   22.4283 N   0  0  0  0  0  0  0  0  0  0  0  0
   -3.5074   -7.8535   21.3759 C   0  0  2  0  0  0  0  0  0  0  0  0
   -4.9162   -7.4513   21.0651 C   0  0  0  0  0  0  0  0  0  0  0  0
   -5.1689   -6.2511   20.8243 O   0  0  0  0  0  0  0  0  0  0  0  0
   -2.8321   -8.4307   20.1289 C   0  0  0  0  0  0  0  0  0  0  0  0
   -3.5883   -9.6690   19.5985 C   0  0  0  0  0  0  0  0  0  0  0  0
   -3.4412  -11.0590   20.5266 S   0  0  2  0  0  0  0  0  0  0  0  0
   -2.9539  -12.3184   19.5595 C   0  0  0  0  0  0  0  0  0  0  0  0
   -4.9176  -11.4100   21.2653 C   0  0  0  0  0  0  0  0  0  0  0  0
   -6.0298  -11.8284   20.2806 C   0  0  1  0  0  0  0  0  0  0  0  0
   -6.0758  -13.2460   20.0475 O   0  0  0  0  0  0  0  0  0  0  0  0
   -7.4331  -11.5473   20.7931 C   0  0  1  0  0  0  0  0  0  0  0  0
   -7.8830  -10.1777   20.7767 O   0  0  0  0  0  0  0  0  0  0  0  0
   -8.2390  -12.4650   19.9073 C   0  0  1  0  0  0  0  0  0  0  0  0
   -8.2839  -11.9488   18.5804 O   0  0  0  0  0  0  0  0  0  0  0  0
   -7.4177  -13.7202   19.9130 C   0  0  2  0  0  0  0  0  0  0  0  0
   -5.8110   -8.3291   21.0209 O   0  0  0  0  0  0  0  0  0  0  0  0
   -6.3505  -16.2666   24.4575 N   0  0  0  0  0  0  0  0  0  0  0  0
   -5.5701  -15.4092   23.7558 C   0  0  0  0  0  0  0  0  0  0  0  0
   -5.9680  -14.8380   22.6066 N   0  0  0  0  0  0  0  0  0  0  0  0
   -7.1797  -15.0651   22.0874 C   0  0  0  0  0  0  0  0  0  0  0  0
   -8.0733  -15.9602   22.8068 C   0  0  0  0  0  0  0  0  0  0  0  0
   -7.6197  -16.5995   24.0637 C   0  0  0  0  0  0  0  0  0  0  0  0
   -8.4195  -17.4602   24.7862 N   0  0  0  0  0  0  0  0  0  0  0  0
   -9.1820  -15.9990   22.1030 N   0  0  0  0  0  0  0  0  0  0  0  0
   -9.0343  -15.2275   21.0172 C   0  0  0  0  0  0  0  0  0  0  0  0
   -7.8306  -14.6562   21.0032 N   0  0  0  0  0  0  0  0  0  0  0  0
  2  1  1  1  0  0  0
  2  3  1  0  0  0  0
  2  5  1  0  0  0  0
  3  4  1  0  0  0  0
  3 17  1  0  0  0  0
  5  6  1  0  0  0  0
  7  6  1  6  0  0  0
  7  8  1  0  0  0  0
  7  9  1  0  0  0  0
 10  9  1  1  0  0  0
 10 11  1  0  0  0  0
 10 12  1  0  0  0  0
 11 16  1  0  0  0  0
 12 13  1  6  0  0  0
 12 14  1  0  0  0  0
 14 15  1  6  0  0  0
 14 16  1  0  0  0  0
 16 27  1  1  0  0  0
 18 19  2  0  0  0  0
 18 23  1  0  0  0  0
 19 20  1  0  0  0  0
 20 21  2  0  0  0  0
 21 22  1  0  0  0  0
 21 27  1  0  0  0  0
 22 23  2  0  0  0  0
 22 25  1  0  0  0  0
 23 24  1  0  0  0  0
 25 26  2  0  0  0  0
 26 27  1  0  0  0  0
M  END
>  <CHROM.1>
140.85287567,58.99166059,-72.15221081,-127.74075039,67.48532259,90.10877012
3.19500263,-6.04030526,-12.20225908,21.26788095,-1.08735137,0.42993033,2.63671417

>  <Name>
ligand

>  <RI>
0

>  <Rbt.Current_Directory>
/home/itssahil/PROJECTS/Mol_Feturizer/Test_systems_manuscript/rnas/4kqy

>  <Rbt.Executable>
rbdock ($Id: //depot/dev/client3/rdock/2013.1/src/exe/rbdock.cxx#4 $)

>  <Rbt.Library>
libRbt.so (2013.1, Build901 2013/11/27)

>  <Rbt.Parameter_File>
/export/apps/rDock/src/rDock_2013.1_src/data/scripts/dock_solv.prm

>  <Rbt.Receptor>
prm/pocket_docking_8.prm

>  <SCORE>
-19.9421

>  <SCORE.INTER>
-21.1139

>  <SCORE.INTER.CONST>
1

>  <SCORE.INTER.POLAR>
0

>  <SCORE.INTER.ROT>
7

>  <SCORE.INTER.SOLV>
16.0098

>  <SCORE.INTER.VDW>
-27.6792

>  <SCORE.INTER.norm>
-0.781998

>  <SCORE.INTRA>
1.17186

>  <SCORE.INTRA.DIHEDRAL>
0.125999

>  <SCORE.INTRA.DIHEDRAL.0>
10.4103

>  <SCORE.INTRA.POLAR>
0

>  <SCORE.INTRA.POLAR.0>
0

>  <SCORE.INTRA.REPUL>
0

>  <SCORE.INTRA.REPUL.0>
0

>  <SCORE.INTRA.SOLV>
2.83912

>  <SCORE.INTRA.SOLV.lig_0>
-49.5008

>  <SCORE.INTRA.VDW>
-0.3107

>  <SCORE.INTRA.VDW.0>
-2.6946

>  <SCORE.INTRA.norm>
0.0434022

>  <SCORE.RESTR>
0

>  <SCORE.RESTR.CAVITY>
0

>  <SCORE.RESTR.norm>
0

>  <SCORE.SYSTEM>
0

>  <SCORE.SYSTEM.CONST>
0

>  <SCORE.SYSTEM.DIHEDRAL>
0

>  <SCORE.SYSTEM.SOLV>
0

>  <SCORE.SYSTEM.norm>
0

>  <SCORE.heavy>
27

>  <SCORE.norm>
-0.738595

>  <RMSD>
6.317

$$$$
ligand
 OpenBabel02271912153D
libRbt.so/2013.1/901 2013/11/27
 27 29  0  0  0  0  0  0  0  0999 V2000
   -2.7781  -10.6879   22.4160 N   0  0  0  0  0  0  0  0  0  0  0  0
   -3.4887  -10.0732   21.3108 C   0  0  2  0  0  0  0  0  0  0  0  0
   -3.3874   -8.5893   21.4865 C   0  0  0  0  0  0  0  0  0  0  0  0
   -3.9019   -8.0578   22.4940 O   0  0  0  0  0  0  0  0  0  0  0  0
   -4.9564  -10.5091   21.3096 C   0  0  0  0  0  0  0  0  0  0  0  0
   -5.0931  -12.0339   21.1025 C   0  0  0  0  0  0  0  0  0  0  0  0
   -4.5911  -12.6090   19.6083 S   0  0  2  0  0  0  0  0  0  0  0  0
   -5.1086  -14.1758   19.4186 C   0  0  0  0  0  0  0  0  0  0  0  0
   -2.9094  -12.5180   19.4981 C   0  0  0  0  0  0  0  0  0  0  0  0
   -2.3652  -12.6525   18.0602 C   0  0  1  0  0  0  0  0  0  0  0  0
   -3.1483  -13.5341   17.2385 O   0  0  0  0  0  0  0  0  0  0  0  0
   -2.4142  -11.3561   17.2678 C   0  0  1  0  0  0  0  0  0  0  0  0
   -1.4331  -10.3480   17.5842 O   0  0  0  0  0  0  0  0  0  0  0  0
   -2.3091  -11.8893   15.8604 C   0  0  1  0  0  0  0  0  0  0  0  0
   -0.9864  -12.3556   15.6115 O   0  0  0  0  0  0  0  0  0  0  0  0
   -3.2409  -13.0645   15.8915 C   0  0  2  0  0  0  0  0  0  0  0  0
   -2.7619   -7.9105   20.6372 O   0  0  0  0  0  0  0  0  0  0  0  0
   -6.6984  -11.5204   12.1583 N   0  0  0  0  0  0  0  0  0  0  0  0
   -5.3712  -11.7686   12.0423 C   0  0  0  0  0  0  0  0  0  0  0  0
   -4.6090  -12.1490   13.0813 N   0  0  0  0  0  0  0  0  0  0  0  0
   -5.1206  -12.3293   14.3041 C   0  0  0  0  0  0  0  0  0  0  0  0
   -6.5457  -12.1002   14.4880 C   0  0  0  0  0  0  0  0  0  0  0  0
   -7.3750  -11.6635   13.3409 C   0  0  0  0  0  0  0  0  0  0  0  0
   -8.7290  -11.4258   13.4551 N   0  0  0  0  0  0  0  0  0  0  0  0
   -6.7878  -12.3560   15.7536 N   0  0  0  0  0  0  0  0  0  0  0  0
   -5.6401  -12.6987   16.3547 C   0  0  0  0  0  0  0  0  0  0  0  0
   -4.6302  -12.6902   15.4855 N   0  0  0  0  0  0  0  0  0  0  0  0
  2  1  1  1  0  0  0
  2  3  1  0  0  0  0
  2  5  1  0  0  0  0
  3  4  1  0  0  0  0
  3 17  1  0  0  0  0
  5  6  1  0  0  0  0
  7  6  1  1  0  0  0
  7  8  1  0  0  0  0
  7  9  1  0  0  0  0
 10  9  1  1  0  0  0
 10 11  1  0  0  0  0
 10 12  1  0  0  0  0
 11 16  1  0  0  0  0
 12 13  1  1  0  0  0
 12 14  1  0  0  0  0
 14 15  1  1  0  0  0
 14 16  1  0  0  0  0
 16 27  1  1  0  0  0
 18 19  2  0  0  0  0
 18 23  1  0  0  0  0
 19 20  1  0  0  0  0
 20 21  2  0  0  0  0
 21 22  1  0  0  0  0
 21 27  1  0  0  0  0
 22 23  2  0  0  0  0
 22 25  1  0  0  0  0
 23 24  1  0  0  0  0
 25 26  2  0  0  0  0
 26 27  1  0  0  0  0
M  END
>  <CHROM.1>
-63.07257581,-62.64584502,-65.64261882,-167.48051002,-164.28754490,-33.59051322
-173.55085584,-4.25872408,-11.61876319,17.51010150,1.26646195,-0.14202533
1.27481571

>  <Name>
ligand

>  <RI>
0

>  <Rbt.Current_Directory>
/home/itssahil/PROJECTS/Mol_Feturizer/Test_systems_manuscript/rnas/4kqy

>  <Rbt.Executable>
rbdock ($Id: //depot/dev/client3/rdock/2013.1/src/exe/rbdock.cxx#4 $)

>  <Rbt.Library>
libRbt.so (2013.1, Build901 2013/11/27)

>  <Rbt.Parameter_File>
/export/apps/rDock/src/rDock_2013.1_src/data/scripts/dock_solv.prm

>  <Rbt.Receptor>
prm/pocket_docking_7.prm

>  <SCORE>
-13.5687

>  <SCORE.INTER>
-12.0698

>  <SCORE.INTER.CONST>
1

>  <SCORE.INTER.POLAR>
0

>  <SCORE.INTER.ROT>
7

>  <SCORE.INTER.SOLV>
13.0787

>  <SCORE.INTER.VDW>
-20.6728

>  <SCORE.INTER.norm>
-0.447029

>  <SCORE.INTRA>
-1.49887

>  <SCORE.INTRA.DIHEDRAL>
-4.27061

>  <SCORE.INTRA.DIHEDRAL.0>
10.4103

>  <SCORE.INTRA.POLAR>
0

>  <SCORE.INTRA.POLAR.0>
0

>  <SCORE.INTRA.REPUL>
0

>  <SCORE.INTRA.REPUL.0>
0

>  <SCORE.INTRA.SOLV>
1.76712

>  <SCORE.INTRA.SOLV.lig_0>
-49.5008

>  <SCORE.INTRA.VDW>
-0.247118

>  <SCORE.INTRA.VDW.0>
-2.6946

>  <SCORE.INTRA.norm>
-0.0555135

>  <SCORE.RESTR>
0

>  <SCORE.RESTR.CAVITY>
0

>  <SCORE.RESTR.norm>
0

>  <SCORE.SYSTEM>
0

>  <SCORE.SYSTEM.CONST>
0

>  <SCORE.SYSTEM.DIHEDRAL>
0

>  <SCORE.SYSTEM.SOLV>
0

>  <SCORE.SYSTEM.norm>
0

>  <SCORE.heavy>
27

>  <SCORE.norm>
-0.502543

>  <RMSD>
6.320

$$$$
ligand
 OpenBabel02271912153D
libRbt.so/2013.1/901 2013/11/27
 27 29  0  0  0  0  0  0  0  0999 V2000
   -1.9961   -7.7033   17.6517 N   0  0  0  0  0  0  0  0  0  0  0  0
   -2.5723   -8.9925   17.9838 C   0  0  2  0  0  0  0  0  0  0  0  0
   -3.8176   -9.1476   17.1664 C   0  0  0  0  0  0  0  0  0  0  0  0
   -4.5433   -8.1501   16.9650 O   0  0  0  0  0  0  0  0  0  0  0  0
   -2.9046   -9.0615   19.4768 C   0  0  0  0  0  0  0  0  0  0  0  0
   -3.4023  -10.4671   19.8808 C   0  0  0  0  0  0  0  0  0  0  0  0
   -4.1404  -10.5688   21.3841 S   0  0  2  0  0  0  0  0  0  0  0  0
   -3.0082  -10.3144   22.5724 C   0  0  0  0  0  0  0  0  0  0  0  0
   -4.8635  -12.0834   21.5628 C   0  0  0  0  0  0  0  0  0  0  0  0
   -5.9134  -12.4107   20.4800 C   0  0  1  0  0  0  0  0  0  0  0  0
   -6.1781  -13.8179   20.3551 O   0  0  0  0  0  0  0  0  0  0  0  0
   -7.2952  -11.8556   20.7854 C   0  0  1  0  0  0  0  0  0  0  0  0
   -7.4959  -10.4394   20.6041 O   0  0  0  0  0  0  0  0  0  0  0  0
   -8.1432  -12.7131   19.8787 C   0  0  1  0  0  0  0  0  0  0  0  0
   -7.9481  -12.3305   18.5206 O   0  0  0  0  0  0  0  0  0  0  0  0
   -7.5581  -14.0784   20.0880 C   0  0  2  0  0  0  0  0  0  0  0  0
   -4.0938  -10.2670   16.6724 O   0  0  0  0  0  0  0  0  0  0  0  0
   -7.3614  -16.7425   24.6858 N   0  0  0  0  0  0  0  0  0  0  0  0
   -6.3498  -16.1787   23.9819 C   0  0  0  0  0  0  0  0  0  0  0  0
   -6.5437  -15.5351   22.8185 N   0  0  0  0  0  0  0  0  0  0  0  0
   -7.7622  -15.3900   22.2860 C   0  0  0  0  0  0  0  0  0  0  0  0
   -8.8933  -15.9545   23.0067 C   0  0  0  0  0  0  0  0  0  0  0  0
   -8.6681  -16.6780   24.2795 C   0  0  0  0  0  0  0  0  0  0  0  0
   -9.6994  -17.2386   25.0041 N   0  0  0  0  0  0  0  0  0  0  0  0
   -9.9544  -15.6653   22.2882 N   0  0  0  0  0  0  0  0  0  0  0  0
   -9.5682  -14.9969   21.1927 C   0  0  0  0  0  0  0  0  0  0  0  0
   -8.2472  -14.8221   21.1866 N   0  0  0  0  0  0  0  0  0  0  0  0
  2  1  1  1  0  0  0
  2  3  1  0  0  0  0
  2  5  1  0  0  0  0
  3  4  1  0  0  0  0
  3 17  1  0  0  0  0
  5  6  1  0  0  0  0
  7  6  1  6  0  0  0
  7  8  1  0  0  0  0
  7  9  1  0  0  0  0
 10  9  1  1  0  0  0
 10 11  1  0  0  0  0
 10 12  1  0  0  0  0
 11 16  1  0  0  0  0
 12 13  1  6  0  0  0
 12 14  1  0  0  0  0
 14 15  1  6  0  0  0
 14 16  1  0  0  0  0
 16 27  1  1  0  0  0
 18 19  2  0  0  0  0
 18 23  1  0  0  0  0
 19 20  1  0  0  0  0
 20 21  2  0  0  0  0
 21 22  1  0  0  0  0
 21 27  1  0  0  0  0
 22 23  2  0  0  0  0
 22 25  1  0  0  0  0
 23 24  1  0  0  0  0
 25 26  2  0  0  0  0
 26 27  1  0  0  0  0
M  END
>  <CHROM.1>
-37.55478346,-174.92737963,-165.82812901,-68.28182177,-58.10913399,159.79912587
-7.85561062,-6.10539096,-12.52331285,20.79333094,-0.92518151,0.54869734,2.16157289

>  <Name>
ligand

>  <RI>
0

>  <Rbt.Current_Directory>
/home/itssahil/PROJECTS/Mol_Feturizer/Test_systems_manuscript/rnas/4kqy

>  <Rbt.Executable>
rbdock ($Id: //depot/dev/client3/rdock/2013.1/src/exe/rbdock.cxx#4 $)

>  <Rbt.Library>
libRbt.so (2013.1, Build901 2013/11/27)

>  <Rbt.Parameter_File>
/export/apps/rDock/src/rDock_2013.1_src/data/scripts/dock_solv.prm

>  <Rbt.Receptor>
prm/pocket_docking_8.prm

>  <SCORE>
-21.3294

>  <SCORE.INTER>
-18.5418

>  <SCORE.INTER.CONST>
1

>  <SCORE.INTER.POLAR>
0

>  <SCORE.INTER.ROT>
7

>  <SCORE.INTER.SOLV>
15.1995

>  <SCORE.INTER.VDW>
-25.6944

>  <SCORE.INTER.norm>
-0.686735

>  <SCORE.INTRA>
-2.78758

>  <SCORE.INTRA.DIHEDRAL>
-5.23831

>  <SCORE.INTRA.DIHEDRAL.0>
10.4103

>  <SCORE.INTRA.POLAR>
0

>  <SCORE.INTRA.POLAR.0>
0

>  <SCORE.INTRA.REPUL>
0

>  <SCORE.INTRA.REPUL.0>
0

>  <SCORE.INTRA.SOLV>
-0.487444

>  <SCORE.INTRA.SOLV.lig_0>
-49.5008

>  <SCORE.INTRA.VDW>
0.0752934

>  <SCORE.INTRA.VDW.0>
-2.6946

>  <SCORE.INTRA.norm>
-0.103244

>  <SCORE.RESTR>
0

>  <SCORE.RESTR.CAVITY>
0

>  <SCORE.RESTR.norm>
0

>  <SCORE.SYSTEM>
0

>  <SCORE.SYSTEM.CONST>
0

>  <SCORE.SYSTEM.DIHEDRAL>
0

>  <SCORE.SYSTEM.SOLV>
0

>  <SCORE.SYSTEM.norm>
0

>  <SCORE.heavy>
27

>  <SCORE.norm>
-0.789978

>  <RMSD>
6.320

$$$$
ligand
 OpenBabel02271912153D
libRbt.so/2013.1/901 2013/11/27
 27 29  0  0  0  0  0  0  0  0999 V2000
   -3.4550  -12.3769   21.5997 N   0  0  0  0  0  0  0  0  0  0  0  0
   -3.4278  -11.0286   21.0653 C   0  0  2  0  0  0  0  0  0  0  0  0
   -2.6796  -11.0785   19.7688 C   0  0  0  0  0  0  0  0  0  0  0  0
   -2.5156  -12.1799   19.2012 O   0  0  0  0  0  0  0  0  0  0  0  0
   -2.7320  -10.0789   22.0441 C   0  0  0  0  0  0  0  0  0  0  0  0
   -3.5580   -8.7928   22.2678 C   0  0  0  0  0  0  0  0  0  0  0  0
   -3.8546   -7.8753   20.8946 S   0  0  2  0  0  0  0  0  0  0  0  0
   -4.3975   -6.3712   21.3434 C   0  0  0  0  0  0  0  0  0  0  0  0
   -4.9926   -8.6555   19.9226 C   0  0  0  0  0  0  0  0  0  0  0  0
   -5.0333   -8.1435   18.4673 C   0  0  1  0  0  0  0  0  0  0  0  0
   -3.7295   -8.0119   17.8768 O   0  0  0  0  0  0  0  0  0  0  0  0
   -5.7203   -9.0995   17.5054 C   0  0  1  0  0  0  0  0  0  0  0  0
   -7.1592   -9.1734   17.5585 O   0  0  0  0  0  0  0  0  0  0  0  0
   -5.1832   -8.5978   16.1878 C   0  0  1  0  0  0  0  0  0  0  0  0
   -5.7800   -7.3464   15.8610 O   0  0  0  0  0  0  0  0  0  0  0  0
   -3.7314   -8.3785   16.4950 C   0  0  2  0  0  0  0  0  0  0  0  0
   -2.2586  -10.0121   19.2601 O   0  0  0  0  0  0  0  0  0  0  0  0
   -3.2514  -13.6630   16.1483 N   0  0  0  0  0  0  0  0  0  0  0  0
   -4.3326  -12.9252   16.4996 C   0  0  0  0  0  0  0  0  0  0  0  0
   -4.3109  -11.5828   16.5527 N   0  0  0  0  0  0  0  0  0  0  0  0
   -3.2162  -10.8810   16.2389 C   0  0  0  0  0  0  0  0  0  0  0  0
   -2.0282  -11.6159   15.8317 C   0  0  0  0  0  0  0  0  0  0  0  0
   -2.0557  -13.0964   15.7932 C   0  0  0  0  0  0  0  0  0  0  0  0
   -0.9600  -13.8471   15.4207 N   0  0  0  0  0  0  0  0  0  0  0  0
   -1.1177  -10.7056   15.5706 N   0  0  0  0  0  0  0  0  0  0  0  0
   -1.6381   -9.4923   15.8005 C   0  0  0  0  0  0  0  0  0  0  0  0
   -2.9059   -9.5893   16.1990 N   0  0  0  0  0  0  0  0  0  0  0  0
  2  1  1  1  0  0  0
  2  3  1  0  0  0  0
  2  5  1  0  0  0  0
  3  4  1  0  0  0  0
  3 17  1  0  0  0  0
  5  6  1  0  0  0  0
  7  6  1  1  0  0  0
  7  8  1  0  0  0  0
  7  9  1  0  0  0  0
 10  9  1  1  0  0  0
 10 11  1  0  0  0  0
 10 12  1  0  0  0  0
 11 16  1  0  0  0  0
 12 13  1  6  0  0  0
 12 14  1  0  0  0  0
 14 15  1  1  0  0  0
 14 16  1  0  0  0  0
 16 27  1  1  0  0  0
 18 19  2  0  0  0  0
 18 23  1  0  0  0  0
 19 20  1  0  0  0  0
 20 21  2  0  0  0  0
 21 22  1  0  0  0  0
 21 27  1  0  0  0  0
 22 23  2  0  0  0  0
 22 25  1  0  0  0  0
 23 24  1  0  0  0  0
 25 26  2  0  0  0  0
 26 27  1  0  0  0  0
M  END
>  <CHROM.1>
17.58796338,-131.91979846,-59.81348051,-165.70572076,-162.59154513,46.48682804
86.76551552,-3.60530807,-10.00591043,18.23322900,-2.11488145,1.01599305,-1.77559257

>  <Name>
ligand

>  <RI>
0

>  <Rbt.Current_Directory>
/home/itssahil/PROJECTS/Mol_Feturizer/Test_systems_manuscript/rnas/4kqy

>  <Rbt.Executable>
rbdock ($Id: //depot/dev/client3/rdock/2013.1/src/exe/rbdock.cxx#4 $)

>  <Rbt.Library>
libRbt.so (2013.1, Build901 2013/11/27)

>  <Rbt.Parameter_File>
/export/apps/rDock/src/rDock_2013.1_src/data/scripts/dock_solv.prm

>  <Rbt.Receptor>
prm/pocket_docking_3.prm

>  <SCORE>
-14.4332

>  <SCORE.INTER>
-11.9004

>  <SCORE.INTER.CONST>
1

>  <SCORE.INTER.POLAR>
0

>  <SCORE.INTER.ROT>
7

>  <SCORE.INTER.SOLV>
15.6715

>  <SCORE.INTER.VDW>
-21.4241

>  <SCORE.INTER.norm>
-0.440757

>  <SCORE.INTRA>
-2.53276

>  <SCORE.INTRA.DIHEDRAL>
-0.339943

>  <SCORE.INTRA.DIHEDRAL.0>
10.4103

>  <SCORE.INTRA.POLAR>
0

>  <SCORE.INTRA.POLAR.0>
0

>  <SCORE.INTRA.REPUL>
0

>  <SCORE.INTRA.REPUL.0>
0

>  <SCORE.INTRA.SOLV>
0.0590003

>  <SCORE.INTRA.SOLV.lig_0>
-49.5008

>  <SCORE.INTRA.VDW>
-2.39229

>  <SCORE.INTRA.VDW.0>
-2.6946

>  <SCORE.INTRA.norm>
-0.093806

>  <SCORE.RESTR>
0

>  <SCORE.RESTR.CAVITY>
0

>  <SCORE.RESTR.norm>
0

>  <SCORE.SYSTEM>
0

>  <SCORE.SYSTEM.CONST>
0

>  <SCORE.SYSTEM.DIHEDRAL>
0

>  <SCORE.SYSTEM.SOLV>
0

>  <SCORE.SYSTEM.norm>
0

>  <SCORE.heavy>
27

>  <SCORE.norm>
-0.534563

>  <RMSD>
6.328

$$$$
ligand
 OpenBabel02271912153D
libRbt.so/2013.1/901 2013/11/27
 27 29  0  0  0  0  0  0  0  0999 V2000
  -10.4842  -13.6035   19.7911 N   0  0  0  0  0  0  0  0  0  0  0  0
   -9.1365  -14.1193   19.6428 C   0  0  2  0  0  0  0  0  0  0  0  0
   -8.9572  -15.1976   20.6667 C   0  0  0  0  0  0  0  0  0  0  0  0
   -8.1130  -16.0968   20.4641 O   0  0  0  0  0  0  0  0  0  0  0  0
   -8.1099  -13.0044   19.8600 C   0  0  0  0  0  0  0  0  0  0  0  0
   -6.6674  -13.5146   19.6466 C   0  0  0  0  0  0  0  0  0  0  0  0
   -5.4666  -12.3458   19.7306 S   0  0  2  0  0  0  0  0  0  0  0  0
   -4.0151  -13.0133   19.2763 C   0  0  0  0  0  0  0  0  0  0  0  0
   -5.3766  -11.7329   21.3006 C   0  0  0  0  0  0  0  0  0  0  0  0
   -4.4521  -10.5055   21.4445 C   0  0  1  0  0  0  0  0  0  0  0  0
   -3.0873  -10.7797   21.0865 O   0  0  0  0  0  0  0  0  0  0  0  0
   -4.8029   -9.3660   20.5015 C   0  0  1  0  0  0  0  0  0  0  0  0
   -5.9647   -8.5744   20.8212 O   0  0  0  0  0  0  0  0  0  0  0  0
   -3.5107   -8.5874   20.5175 C   0  0  1  0  0  0  0  0  0  0  0  0
   -3.3570   -7.9204   21.7667 O   0  0  0  0  0  0  0  0  0  0  0  0
   -2.4802   -9.6728   20.4159 C   0  0  2  0  0  0  0  0  0  0  0  0
   -9.6337  -15.1622   21.7223 O   0  0  0  0  0  0  0  0  0  0  0  0
   -1.9728   -8.0991   15.3620 N   0  0  0  0  0  0  0  0  0  0  0  0
   -2.3977   -7.3925   16.4376 C   0  0  0  0  0  0  0  0  0  0  0  0
   -2.4844   -7.9237   17.6687 N   0  0  0  0  0  0  0  0  0  0  0  0
   -2.1335   -9.1903   17.9179 C   0  0  0  0  0  0  0  0  0  0  0  0
   -1.6474   -9.9947   16.8070 C   0  0  0  0  0  0  0  0  0  0  0  0
   -1.5721   -9.4062   15.4497 C   0  0  0  0  0  0  0  0  0  0  0  0
   -1.1249  -10.1206   14.3576 N   0  0  0  0  0  0  0  0  0  0  0  0
   -1.3639  -11.1720   17.3163 N   0  0  0  0  0  0  0  0  0  0  0  0
   -1.6514  -11.1596   18.6252 C   0  0  0  0  0  0  0  0  0  0  0  0
   -2.1113   -9.9656   18.9971 N   0  0  0  0  0  0  0  0  0  0  0  0
  2  1  1  1  0  0  0
  2  3  1  0  0  0  0
  2  5  1  0  0  0  0
  3  4  1  0  0  0  0
  3 17  1  0  0  0  0
  5  6  1  0  0  0  0
  7  6  1  1  0  0  0
  7  8  1  0  0  0  0
  7  9  1  0  0  0  0
 10  9  1  6  0  0  0
 10 11  1  0  0  0  0
 10 12  1  0  0  0  0
 11 16  1  0  0  0  0
 12 13  1  1  0  0  0
 12 14  1  0  0  0  0
 14 15  1  1  0  0  0
 14 16  1  0  0  0  0
 16 27  1  6  0  0  0
 18 19  2  0  0  0  0
 18 23  1  0  0  0  0
 19 20  1  0  0  0  0
 20 21  2  0  0  0  0
 21 22  1  0  0  0  0
 21 27  1  0  0  0  0
 22 23  2  0  0  0  0
 22 25  1  0  0  0  0
 23 24  1  0  0  0  0
 25 26  2  0  0  0  0
 26 27  1  0  0  0  0
M  END
>  <CHROM.1>
154.91257498,-177.51386702,175.00254075,-172.27524607,-171.35229609,-60.69126762
144.46250768,-4.64287530,-11.13379885,19.27734562,-3.10460255,0.74978191
0.96729993

>  <Name>
ligand

>  <RI>
0

>  <Rbt.Current_Directory>
/home/itssahil/PROJECTS/Mol_Feturizer/Test_systems_manuscript/rnas/4kqy

>  <Rbt.Executable>
rbdock ($Id: //depot/dev/client3/rdock/2013.1/src/exe/rbdock.cxx#4 $)

>  <Rbt.Library>
libRbt.so (2013.1, Build901 2013/11/27)

>  <Rbt.Parameter_File>
/export/apps/rDock/src/rDock_2013.1_src/data/scripts/dock_solv.prm

>  <Rbt.Receptor>
prm/pocket_docking_7.prm

>  <SCORE>
-20.3636

>  <SCORE.INTER>
-16.8729

>  <SCORE.INTER.CONST>
1

>  <SCORE.INTER.POLAR>
0

>  <SCORE.INTER.ROT>
7

>  <SCORE.INTER.SOLV>
12.1003

>  <SCORE.INTER.VDW>
-23.5487

>  <SCORE.INTER.norm>
-0.624921

>  <SCORE.INTRA>
-3.49071

>  <SCORE.INTRA.DIHEDRAL>
-7.3152

>  <SCORE.INTRA.DIHEDRAL.0>
10.4103

>  <SCORE.INTRA.POLAR>
0

>  <SCORE.INTRA.POLAR.0>
0

>  <SCORE.INTRA.REPUL>
0

>  <SCORE.INTRA.REPUL.0>
0

>  <SCORE.INTRA.SOLV>
-0.403947

>  <SCORE.INTRA.SOLV.lig_0>
-49.5008

>  <SCORE.INTRA.VDW>
0.368866

>  <SCORE.INTRA.VDW.0>
-2.6946

>  <SCORE.INTRA.norm>
-0.129286

>  <SCORE.RESTR>
0

>  <SCORE.RESTR.CAVITY>
0

>  <SCORE.RESTR.norm>
0

>  <SCORE.SYSTEM>
0

>  <SCORE.SYSTEM.CONST>
0

>  <SCORE.SYSTEM.DIHEDRAL>
0

>  <SCORE.SYSTEM.SOLV>
0

>  <SCORE.SYSTEM.norm>
0

>  <SCORE.heavy>
27

>  <SCORE.norm>
-0.754207

>  <RMSD>
6.340

$$$$
ligand
 OpenBabel02271912153D
libRbt.so/2013.1/901 2013/11/27
 27 29  0  0  0  0  0  0  0  0999 V2000
  -11.2898  -13.8864   17.6995 N   0  0  0  0  0  0  0  0  0  0  0  0
  -10.7948  -12.6360   18.2433 C   0  0  2  0  0  0  0  0  0  0  0  0
  -11.1135  -11.5613   17.2501 C   0  0  0  0  0  0  0  0  0  0  0  0
  -11.5459  -10.4620   17.6586 O   0  0  0  0  0  0  0  0  0  0  0  0
   -9.2833  -12.7143   18.4750 C   0  0  0  0  0  0  0  0  0  0  0  0
   -8.9370  -13.6889   19.6224 C   0  0  0  0  0  0  0  0  0  0  0  0
   -7.3341  -13.6824   20.1182 S   0  0  2  0  0  0  0  0  0  0  0  0
   -7.1514  -14.7153   21.4061 C   0  0  0  0  0  0  0  0  0  0  0  0
   -6.8743  -12.1144   20.5404 C   0  0  0  0  0  0  0  0  0  0  0  0
   -5.4386  -12.0081   21.0966 C   0  0  1  0  0  0  0  0  0  0  0  0
   -4.5283  -12.9449   20.4968 O   0  0  0  0  0  0  0  0  0  0  0  0
   -4.7667  -10.6782   20.7954 C   0  0  1  0  0  0  0  0  0  0  0  0
   -5.1883   -9.5332   21.5635 O   0  0  0  0  0  0  0  0  0  0  0  0
   -3.3184  -11.0491   20.9980 C   0  0  1  0  0  0  0  0  0  0  0  0
   -3.0483  -11.2262   22.3853 O   0  0  0  0  0  0  0  0  0  0  0  0
   -3.2283  -12.3798   20.3115 C   0  0  2  0  0  0  0  0  0  0  0  0
  -10.9114  -11.7715   16.0302 O   0  0  0  0  0  0  0  0  0  0  0  0
   -4.3326  -13.0192   15.1494 N   0  0  0  0  0  0  0  0  0  0  0  0
   -5.0925  -13.3248   16.2291 C   0  0  0  0  0  0  0  0  0  0  0  0
   -4.6813  -13.1142   17.4908 N   0  0  0  0  0  0  0  0  0  0  0  0
   -3.4927  -12.5647   17.7641 C   0  0  0  0  0  0  0  0  0  0  0  0
   -2.6394  -12.1936   16.6454 C   0  0  0  0  0  0  0  0  0  0  0  0
   -3.0932  -12.4458   15.2581 C   0  0  0  0  0  0  0  0  0  0  0  0
   -2.3265  -12.1206   14.1585 N   0  0  0  0  0  0  0  0  0  0  0  0
   -1.5577  -11.6731   17.1792 N   0  0  0  0  0  0  0  0  0  0  0  0
   -1.6697  -11.7132   18.5141 C   0  0  0  0  0  0  0  0  0  0  0  0
   -2.8369  -12.2450   18.8749 N   0  0  0  0  0  0  0  0  0  0  0  0
  2  1  1  6  0  0  0
  2  3  1  0  0  0  0
  2  5  1  0  0  0  0
  3  4  1  0  0  0  0
  3 17  1  0  0  0  0
  5  6  1  0  0  0  0
  7  6  1  1  0  0  0
  7  8  1  0  0  0  0
  7  9  1  0  0  0  0
 10  9  1  6  0  0  0
 10 11  1  0  0  0  0
 10 12  1  0  0  0  0
 11 16  1  0  0  0  0
 12 13  1  1  0  0  0
 12 14  1  0  0  0  0
 14 15  1  1  0  0  0
 14 16  1  0  0  0  0
 16 27  1  6  0  0  0
 18 19  2  0  0  0  0
 18 23  1  0  0  0  0
 19 20  1  0  0  0  0
 20 21  2  0  0  0  0
 21 22  1  0  0  0  0
 21 27  1  0  0  0  0
 22 23  2  0  0  0  0
 22 25  1  0  0  0  0
 23 24  1  0  0  0  0
 25 26  2  0  0  0  0
 26 27  1  0  0  0  0
M  END
>  <CHROM.1>
137.80835901,-68.69608733,-171.20484092,176.82424867,176.39178234,33.74885440
-0.20163461,-5.94520877,-12.32617718,18.72458867,-3.09120399,0.06740315,1.49567526

>  <Name>
ligand

>  <RI>
0

>  <Rbt.Current_Directory>
/home/itssahil/PROJECTS/Mol_Feturizer/Test_systems_manuscript/rnas/4kqy

>  <Rbt.Executable>
rbdock ($Id: //depot/dev/client3/rdock/2013.1/src/exe/rbdock.cxx#4 $)

>  <Rbt.Library>
libRbt.so (2013.1, Build901 2013/11/27)

>  <Rbt.Parameter_File>
/export/apps/rDock/src/rDock_2013.1_src/data/scripts/dock_solv.prm

>  <Rbt.Receptor>
prm/pocket_docking_7.prm

>  <SCORE>
-13.0596

>  <SCORE.INTER>
-10.6397

>  <SCORE.INTER.CONST>
1

>  <SCORE.INTER.POLAR>
0

>  <SCORE.INTER.ROT>
7

>  <SCORE.INTER.SOLV>
8.50719

>  <SCORE.INTER.VDW>
-18.1955

>  <SCORE.INTER.norm>
-0.394061

>  <SCORE.INTRA>
-2.41996

>  <SCORE.INTRA.DIHEDRAL>
-5.01464

>  <SCORE.INTRA.DIHEDRAL.0>
10.4103

>  <SCORE.INTRA.POLAR>
0

>  <SCORE.INTRA.POLAR.0>
0

>  <SCORE.INTRA.REPUL>
0

>  <SCORE.INTRA.REPUL.0>
0

>  <SCORE.INTRA.SOLV>
0.0667452

>  <SCORE.INTRA.SOLV.lig_0>
-49.5008

>  <SCORE.INTRA.VDW>
0.0539858

>  <SCORE.INTRA.VDW.0>
-2.6946

>  <SCORE.INTRA.norm>
-0.0896282

>  <SCORE.RESTR>
0

>  <SCORE.RESTR.CAVITY>
0

>  <SCORE.RESTR.norm>
0

>  <SCORE.SYSTEM>
0

>  <SCORE.SYSTEM.CONST>
0

>  <SCORE.SYSTEM.DIHEDRAL>
0

>  <SCORE.SYSTEM.SOLV>
0

>  <SCORE.SYSTEM.norm>
0

>  <SCORE.heavy>
27

>  <SCORE.norm>
-0.48369

>  <RMSD>
6.341

$$$$
ligand
 OpenBabel02271912153D
libRbt.so/2013.1/901 2013/11/27
 27 29  0  0  0  0  0  0  0  0999 V2000
   -4.6135   -8.4181   20.9124 N   0  0  0  0  0  0  0  0  0  0  0  0
   -4.5394   -9.5561   21.8089 C   0  0  2  0  0  0  0  0  0  0  0  0
   -3.1227   -9.6571   22.2841 C   0  0  0  0  0  0  0  0  0  0  0  0
   -2.3512   -8.6889   22.1121 O   0  0  0  0  0  0  0  0  0  0  0  0
   -4.9482  -10.8390   21.0801 C   0  0  0  0  0  0  0  0  0  0  0  0
   -6.4808  -10.9272   20.9073 C   0  0  0  0  0  0  0  0  0  0  0  0
   -7.0318  -12.2140   19.9822 S   0  0  2  0  0  0  0  0  0  0  0  0
   -6.4270  -13.6335   20.5968 C   0  0  0  0  0  0  0  0  0  0  0  0
   -6.5546  -12.0072   18.3766 C   0  0  0  0  0  0  0  0  0  0  0  0
   -6.9503  -10.6428   17.7736 C   0  0  1  0  0  0  0  0  0  0  0  0
   -5.8927   -9.6710   17.8295 O   0  0  0  0  0  0  0  0  0  0  0  0
   -7.2481  -10.6996   16.2840 C   0  0  1  0  0  0  0  0  0  0  0  0
   -8.5032  -11.2833   15.8805 O   0  0  0  0  0  0  0  0  0  0  0  0
   -7.1075   -9.2425   15.9190 C   0  0  1  0  0  0  0  0  0  0  0  0
   -8.2124   -8.5019   16.4285 O   0  0  0  0  0  0  0  0  0  0  0  0
   -5.8689   -8.8424   16.6648 C   0  0  2  0  0  0  0  0  0  0  0  0
   -2.7442  -10.6976   22.8735 O   0  0  0  0  0  0  0  0  0  0  0  0
   -3.1173  -11.5180   12.9842 N   0  0  0  0  0  0  0  0  0  0  0  0
   -4.3564  -11.7678   13.4728 C   0  0  0  0  0  0  0  0  0  0  0  0
   -4.9333  -11.0055   14.4169 N   0  0  0  0  0  0  0  0  0  0  0  0
   -4.3239   -9.9284   14.9248 C   0  0  0  0  0  0  0  0  0  0  0  0
   -2.9992   -9.5944   14.4240 C   0  0  0  0  0  0  0  0  0  0  0  0
   -2.3635  -10.4507   13.3960 C   0  0  0  0  0  0  0  0  0  0  0  0
   -1.1085  -10.1878   12.8873 N   0  0  0  0  0  0  0  0  0  0  0  0
   -2.6391   -8.5060   15.0657 N   0  0  0  0  0  0  0  0  0  0  0  0
   -3.6130   -8.1634   15.9201 C   0  0  0  0  0  0  0  0  0  0  0  0
   -4.6356   -9.0137   15.8373 N   0  0  0  0  0  0  0  0  0  0  0  0
  2  1  1  6  0  0  0
  2  3  1  0  0  0  0
  2  5  1  0  0  0  0
  3  4  1  0  0  0  0
  3 17  1  0  0  0  0
  5  6  1  0  0  0  0
  7  6  1  1  0  0  0
  7  8  1  0  0  0  0
  7  9  1  0  0  0  0
 10  9  1  6  0  0  0
 10 11  1  0  0  0  0
 10 12  1  0  0  0  0
 11 16  1  0  0  0  0
 12 13  1  1  0  0  0
 12 14  1  0  0  0  0
 14 15  1  1  0  0  0
 14 16  1  0  0  0  0
 16 27  1  6  0  0  0
 18 19  2  0  0  0  0
 18 23  1  0  0  0  0
 19 20  1  0  0  0  0
 20 21  2  0  0  0  0
 21 22  1  0  0  0  0
 21 27  1  0  0  0  0
 22 23  2  0  0  0  0
 22 25  1  0  0  0  0
 23 24  1  0  0  0  0
 25 26  2  0  0  0  0
 26 27  1  0  0  0  0
M  END
>  <CHROM.1>
14.65198086,-76.54155426,173.92393853,54.27673263,-53.10542633,96.38648013
82.11568767,-5.05881034,-10.31405658,17.66166946,-1.71705324,-0.34882474
-1.55476190

>  <Name>
ligand

>  <RI>
0

>  <Rbt.Current_Directory>
/home/itssahil/PROJECTS/Mol_Feturizer/Test_systems_manuscript/rnas/4kqy

>  <Rbt.Executable>
rbdock ($Id: //depot/dev/client3/rdock/2013.1/src/exe/rbdock.cxx#4 $)

>  <Rbt.Library>
libRbt.so (2013.1, Build901 2013/11/27)

>  <Rbt.Parameter_File>
/export/apps/rDock/src/rDock_2013.1_src/data/scripts/dock_solv.prm

>  <Rbt.Receptor>
prm/pocket_docking_5.prm

>  <SCORE>
-12.2374

>  <SCORE.INTER>
-11.761

>  <SCORE.INTER.CONST>
1

>  <SCORE.INTER.POLAR>
0

>  <SCORE.INTER.ROT>
7

>  <SCORE.INTER.SOLV>
9.83322

>  <SCORE.INTER.VDW>
-19.3851

>  <SCORE.INTER.norm>
-0.435594

>  <SCORE.INTRA>
-0.498559

>  <SCORE.INTRA.DIHEDRAL>
-2.81601

>  <SCORE.INTRA.DIHEDRAL.0>
10.4103

>  <SCORE.INTRA.POLAR>
0

>  <SCORE.INTRA.POLAR.0>
0

>  <SCORE.INTRA.REPUL>
0

>  <SCORE.INTRA.REPUL.0>
0

>  <SCORE.INTRA.SOLV>
0.709734

>  <SCORE.INTRA.SOLV.lig_0>
-49.5008

>  <SCORE.INTRA.VDW>
0.55458

>  <SCORE.INTRA.VDW.0>
-2.6946

>  <SCORE.INTRA.norm>
-0.0184651

>  <SCORE.RESTR>
0.0222411

>  <SCORE.RESTR.CAVITY>
0.0222411

>  <SCORE.RESTR.norm>
0.000823746

>  <SCORE.SYSTEM>
0

>  <SCORE.SYSTEM.CONST>
0

>  <SCORE.SYSTEM.DIHEDRAL>
0

>  <SCORE.SYSTEM.SOLV>
0

>  <SCORE.SYSTEM.norm>
0

>  <SCORE.heavy>
27

>  <SCORE.norm>
-0.453236

>  <RMSD>
6.346

$$$$
ligand
 OpenBabel02271912153D
libRbt.so/2013.1/901 2013/11/27
 27 29  0  0  0  0  0  0  0  0999 V2000
   -5.4612   -8.6481   20.5914 N   0  0  0  0  0  0  0  0  0  0  0  0
   -4.6047   -7.8665   21.4631 C   0  0  2  0  0  0  0  0  0  0  0  0
   -4.5320   -6.4836   20.8927 C   0  0  0  0  0  0  0  0  0  0  0  0
   -3.7619   -5.6485   21.4140 O   0  0  0  0  0  0  0  0  0  0  0  0
   -3.2064   -8.4859   21.5351 C   0  0  0  0  0  0  0  0  0  0  0  0
   -3.2463   -9.9019   22.1513 C   0  0  0  0  0  0  0  0  0  0  0  0
   -4.0954  -11.0505   21.2708 S   0  0  2  0  0  0  0  0  0  0  0  0
   -3.9044  -12.5403   21.9798 C   0  0  0  0  0  0  0  0  0  0  0  0
   -3.5401  -11.0720   19.6772 C   0  0  0  0  0  0  0  0  0  0  0  0
   -4.6193  -11.4480   18.6401 C   0  0  1  0  0  0  0  0  0  0  0  0
   -4.3696  -10.8949   17.3371 O   0  0  0  0  0  0  0  0  0  0  0  0
   -4.6849  -12.9374   18.3433 C   0  0  1  0  0  0  0  0  0  0  0  0
   -5.2929  -13.7856   19.3380 O   0  0  0  0  0  0  0  0  0  0  0  0
   -5.4161  -12.9236   17.0237 C   0  0  1  0  0  0  0  0  0  0  0  0
   -6.7852  -12.5870   17.2268 O   0  0  0  0  0  0  0  0  0  0  0  0
   -4.7421  -11.7992   16.2945 C   0  0  2  0  0  0  0  0  0  0  0  0
   -5.2203   -6.1972   19.8840 O   0  0  0  0  0  0  0  0  0  0  0  0
    0.1362  -13.8924   15.9836 N   0  0  0  0  0  0  0  0  0  0  0  0
   -0.6029  -13.6096   17.0838 C   0  0  0  0  0  0  0  0  0  0  0  0
   -1.8312  -13.0695   17.0156 N   0  0  0  0  0  0  0  0  0  0  0  0
   -2.4175  -12.7931   15.8454 C   0  0  0  0  0  0  0  0  0  0  0  0
   -1.6829  -13.0952   14.6262 C   0  0  0  0  0  0  0  0  0  0  0  0
   -0.3220  -13.6740   14.7111 C   0  0  0  0  0  0  0  0  0  0  0  0
    0.4243  -13.9764   13.5911 N   0  0  0  0  0  0  0  0  0  0  0  0
   -2.4745  -12.7470   13.6372 N   0  0  0  0  0  0  0  0  0  0  0  0
   -3.6088  -12.2454   14.1448 C   0  0  0  0  0  0  0  0  0  0  0  0
   -3.5844  -12.2747   15.4768 N   0  0  0  0  0  0  0  0  0  0  0  0
  2  1  1  6  0  0  0
  2  3  1  0  0  0  0
  2  5  1  0  0  0  0
  3  4  1  0  0  0  0
  3 17  1  0  0  0  0
  5  6  1  0  0  0  0
  7  6  1  1  0  0  0
  7  8  1  0  0  0  0
  7  9  1  0  0  0  0
 10  9  1  1  0  0  0
 10 11  1  0  0  0  0
 10 12  1  0  0  0  0
 11 16  1  0  0  0  0
 12 13  1  1  0  0  0
 12 14  1  0  0  0  0
 14 15  1  1  0  0  0
 14 16  1  0  0  0  0
 16 27  1  1  0  0  0
 18 19  2  0  0  0  0
 18 23  1  0  0  0  0
 19 20  1  0  0  0  0
 20 21  2  0  0  0  0
 21 22  1  0  0  0  0
 21 27  1  0  0  0  0
 22 23  2  0  0  0  0
 22 25  1  0  0  0  0
 23 24  1  0  0  0  0
 25 26  2  0  0  0  0
 26 27  1  0  0  0  0
M  END
>  <CHROM.1>
-174.34659898,-62.88487851,64.02245493,173.96856866,-148.85453525,152.97121362
50.29710141,-3.55469329,-11.25126068,18.28127459,-2.09842259,-0.90827637
-2.69414125

>  <Name>
ligand

>  <RI>
0

>  <Rbt.Current_Directory>
/home/itssahil/PROJECTS/Mol_Feturizer/Test_systems_manuscript/rnas/4kqy

>  <Rbt.Executable>
rbdock ($Id: //depot/dev/client3/rdock/2013.1/src/exe/rbdock.cxx#4 $)

>  <Rbt.Library>
libRbt.so (2013.1, Build901 2013/11/27)

>  <Rbt.Parameter_File>
/export/apps/rDock/src/rDock_2013.1_src/data/scripts/dock_solv.prm

>  <Rbt.Receptor>
prm/pocket_docking_5.prm

>  <SCORE>
-13.795

>  <SCORE.INTER>
-14.319

>  <SCORE.INTER.CONST>
1

>  <SCORE.INTER.POLAR>
0

>  <SCORE.INTER.ROT>
7

>  <SCORE.INTER.SOLV>
9.54279

>  <SCORE.INTER.VDW>
-20.9936

>  <SCORE.INTER.norm>
-0.530332

>  <SCORE.INTRA>
0.523952

>  <SCORE.INTRA.DIHEDRAL>
-2.81661

>  <SCORE.INTRA.DIHEDRAL.0>
10.4103

>  <SCORE.INTRA.POLAR>
0

>  <SCORE.INTRA.POLAR.0>
0

>  <SCORE.INTRA.REPUL>
0

>  <SCORE.INTRA.REPUL.0>
0

>  <SCORE.INTRA.SOLV>
3.6176

>  <SCORE.INTRA.SOLV.lig_0>
-49.5008

>  <SCORE.INTRA.VDW>
0.123457

>  <SCORE.INTRA.VDW.0>
-2.6946

>  <SCORE.INTRA.norm>
0.0194056

>  <SCORE.RESTR>
0

>  <SCORE.RESTR.CAVITY>
0

>  <SCORE.RESTR.norm>
0

>  <SCORE.SYSTEM>
0

>  <SCORE.SYSTEM.CONST>
0

>  <SCORE.SYSTEM.DIHEDRAL>
0

>  <SCORE.SYSTEM.SOLV>
0

>  <SCORE.SYSTEM.norm>
0

>  <SCORE.heavy>
27

>  <SCORE.norm>
-0.510926

>  <RMSD>
6.351

$$$$
ligand
 OpenBabel02271912153D
libRbt.so/2013.1/901 2013/11/27
 27 29  0  0  0  0  0  0  0  0999 V2000
   -5.7741  -14.5491   21.7205 N   0  0  0  0  0  0  0  0  0  0  0  0
   -5.9583  -13.1980   21.2258 C   0  0  2  0  0  0  0  0  0  0  0  0
   -6.3760  -13.3020   19.7913 C   0  0  0  0  0  0  0  0  0  0  0  0
   -7.1924  -12.4743   19.3323 O   0  0  0  0  0  0  0  0  0  0  0  0
   -4.6552  -12.4027   21.3435 C   0  0  0  0  0  0  0  0  0  0  0  0
   -4.8978  -10.8888   21.1548 C   0  0  0  0  0  0  0  0  0  0  0  0
   -3.5294   -9.9212   21.2345 S   0  0  2  0  0  0  0  0  0  0  0  0
   -2.7697  -10.1600   22.6921 C   0  0  0  0  0  0  0  0  0  0  0  0
   -3.9648   -8.3015   21.0464 C   0  0  0  0  0  0  0  0  0  0  0  0
   -4.0691   -7.8449   19.5758 C   0  0  1  0  0  0  0  0  0  0  0  0
   -2.8139   -7.8947   18.8772 O   0  0  0  0  0  0  0  0  0  0  0  0
   -4.9428   -8.7472   18.7195 C   0  0  1  0  0  0  0  0  0  0  0  0
   -6.3707   -8.6445   18.8910 O   0  0  0  0  0  0  0  0  0  0  0  0
   -4.4649   -8.3654   17.3404 C   0  0  1  0  0  0  0  0  0  0  0  0
   -4.9365   -7.0646   17.0021 O   0  0  0  0  0  0  0  0  0  0  0  0
   -2.9765   -8.3115   17.5194 C   0  0  2  0  0  0  0  0  0  0  0  0
   -5.8763  -14.1969   19.0684 O   0  0  0  0  0  0  0  0  0  0  0  0
   -3.3264  -13.5570   16.7204 N   0  0  0  0  0  0  0  0  0  0  0  0
   -4.3113  -12.6680   16.9966 C   0  0  0  0  0  0  0  0  0  0  0  0
   -4.0772  -11.3582   17.1841 N   0  0  0  0  0  0  0  0  0  0  0  0
   -2.8479  -10.8396   17.0885 C   0  0  0  0  0  0  0  0  0  0  0  0
   -1.7501  -11.7405   16.7716 C   0  0  0  0  0  0  0  0  0  0  0  0
   -2.0147  -13.1858   16.5842 C   0  0  0  0  0  0  0  0  0  0  0  0
   -1.0146  -14.0885   16.2877 N   0  0  0  0  0  0  0  0  0  0  0  0
   -0.6738  -10.9885   16.7241 N   0  0  0  0  0  0  0  0  0  0  0  0
   -1.0158   -9.7228   17.0016 C   0  0  0  0  0  0  0  0  0  0  0  0
   -2.3269   -9.6237   17.2175 N   0  0  0  0  0  0  0  0  0  0  0  0
  2  1  1  6  0  0  0
  2  3  1  0  0  0  0
  2  5  1  0  0  0  0
  3  4  1  0  0  0  0
  3 17  1  0  0  0  0
  5  6  1  0  0  0  0
  7  6  1  1  0  0  0
  7  8  1  0  0  0  0
  7  9  1  0  0  0  0
 10  9  1  1  0  0  0
 10 11  1  0  0  0  0
 10 12  1  0  0  0  0
 11 16  1  0  0  0  0
 12 13  1  6  0  0  0
 12 14  1  0  0  0  0
 14 15  1  1  0  0  0
 14 16  1  0  0  0  0
 16 27  1  1  0  0  0
 18 19  2  0  0  0  0
 18 23  1  0  0  0  0
 19 20  1  0  0  0  0
 20 21  2  0  0  0  0
 21 22  1  0  0  0  0
 21 27  1  0  0  0  0
 22 23  2  0  0  0  0
 22 25  1  0  0  0  0
 23 24  1  0  0  0  0
 25 26  2  0  0  0  0
 26 27  1  0  0  0  0
M  END
>  <CHROM.1>
144.66578677,-166.13203305,-178.86159974,-57.03992559,-85.50214032,-64.23282916
101.92446277,-3.92448343,-10.81118778,18.87249812,-2.47374405,0.93457684
0.17987748

>  <Name>
ligand

>  <RI>
0

>  <Rbt.Current_Directory>
/home/itssahil/PROJECTS/Mol_Feturizer/Test_systems_manuscript/rnas/4kqy

>  <Rbt.Executable>
rbdock ($Id: //depot/dev/client3/rdock/2013.1/src/exe/rbdock.cxx#4 $)

>  <Rbt.Library>
libRbt.so (2013.1, Build901 2013/11/27)

>  <Rbt.Parameter_File>
/export/apps/rDock/src/rDock_2013.1_src/data/scripts/dock_solv.prm

>  <Rbt.Receptor>
prm/pocket_docking_4.prm

>  <SCORE>
-12.2194

>  <SCORE.INTER>
-8.40864

>  <SCORE.INTER.CONST>
1

>  <SCORE.INTER.POLAR>
0

>  <SCORE.INTER.ROT>
7

>  <SCORE.INTER.SOLV>
15.466

>  <SCORE.INTER.VDW>
-19.0278

>  <SCORE.INTER.norm>
-0.311431

>  <SCORE.INTRA>
-3.81073

>  <SCORE.INTRA.DIHEDRAL>
-5.02645

>  <SCORE.INTRA.DIHEDRAL.0>
10.4103

>  <SCORE.INTRA.POLAR>
0

>  <SCORE.INTRA.POLAR.0>
0

>  <SCORE.INTRA.REPUL>
0

>  <SCORE.INTRA.REPUL.0>
0

>  <SCORE.INTRA.SOLV>
-0.291324

>  <SCORE.INTRA.SOLV.lig_0>
-49.5008

>  <SCORE.INTRA.VDW>
-1.15184

>  <SCORE.INTRA.VDW.0>
-2.6946

>  <SCORE.INTRA.norm>
-0.141138

>  <SCORE.RESTR>
0

>  <SCORE.RESTR.CAVITY>
0

>  <SCORE.RESTR.norm>
0

>  <SCORE.SYSTEM>
0

>  <SCORE.SYSTEM.CONST>
0

>  <SCORE.SYSTEM.DIHEDRAL>
0

>  <SCORE.SYSTEM.SOLV>
0

>  <SCORE.SYSTEM.norm>
0

>  <SCORE.heavy>
27

>  <SCORE.norm>
-0.452569

>  <RMSD>
6.359

$$$$
ligand
 OpenBabel02271912153D
libRbt.so/2013.1/901 2013/11/27
 27 29  0  0  0  0  0  0  0  0999 V2000
   -6.8275  -13.6538   21.1848 N   0  0  0  0  0  0  0  0  0  0  0  0
   -5.5526  -13.3575   20.5596 C   0  0  2  0  0  0  0  0  0  0  0  0
   -5.4420  -14.2225   19.3419 C   0  0  0  0  0  0  0  0  0  0  0  0
   -5.0686  -13.7128   18.2635 O   0  0  0  0  0  0  0  0  0  0  0  0
   -4.4017  -13.6505   21.5259 C   0  0  0  0  0  0  0  0  0  0  0  0
   -4.1467  -12.4615   22.4786 C   0  0  0  0  0  0  0  0  0  0  0  0
   -3.6491  -11.0382   21.7424 S   0  0  2  0  0  0  0  0  0  0  0  0
   -3.1054   -9.9794   22.9008 C   0  0  0  0  0  0  0  0  0  0  0  0
   -4.9315  -10.3668   20.8745 C   0  0  0  0  0  0  0  0  0  0  0  0
   -4.6147   -8.9935   20.2457 C   0  0  1  0  0  0  0  0  0  0  0  0
   -3.2704   -8.8960   19.7463 O   0  0  0  0  0  0  0  0  0  0  0  0
   -5.4357   -8.6897   19.0030 C   0  0  1  0  0  0  0  0  0  0  0  0
   -6.8174   -8.3247   19.1939 O   0  0  0  0  0  0  0  0  0  0  0  0
   -4.5979   -7.6016   18.3783 C   0  0  1  0  0  0  0  0  0  0  0  0
   -4.7180   -6.3986   19.1315 O   0  0  0  0  0  0  0  0  0  0  0  0
   -3.2056   -8.1372   18.5365 C   0  0  2  0  0  0  0  0  0  0  0  0
   -5.6953  -15.4476   19.4326 O   0  0  0  0  0  0  0  0  0  0  0  0
   -1.7620  -12.7841   16.3922 N   0  0  0  0  0  0  0  0  0  0  0  0
   -2.1079  -12.5055   17.6725 C   0  0  0  0  0  0  0  0  0  0  0  0
   -2.4473  -11.2717   18.0822 N   0  0  0  0  0  0  0  0  0  0  0  0
   -2.4862  -10.2334   17.2397 C   0  0  0  0  0  0  0  0  0  0  0  0
   -2.1467  -10.4733   15.8452 C   0  0  0  0  0  0  0  0  0  0  0  0
   -1.7563  -11.8331   15.4061 C   0  0  0  0  0  0  0  0  0  0  0  0
   -1.4192  -12.1201   14.0997 N   0  0  0  0  0  0  0  0  0  0  0  0
   -2.2750   -9.3132   15.2422 N   0  0  0  0  0  0  0  0  0  0  0  0
   -2.6407   -8.3926   16.1448 C   0  0  0  0  0  0  0  0  0  0  0  0
   -2.7754   -8.9411   17.3517 N   0  0  0  0  0  0  0  0  0  0  0  0
  2  1  1  1  0  0  0
  2  3  1  0  0  0  0
  2  5  1  0  0  0  0
  3  4  1  0  0  0  0
  3 17  1  0  0  0  0
  5  6  1  0  0  0  0
  7  6  1  1  0  0  0
  7  8  1  0  0  0  0
  7  9  1  0  0  0  0
 10  9  1  6  0  0  0
 10 11  1  0  0  0  0
 10 12  1  0  0  0  0
 11 16  1  0  0  0  0
 12 13  1  1  0  0  0
 12 14  1  0  0  0  0
 14 15  1  1  0  0  0
 14 16  1  0  0  0  0
 16 27  1  6  0  0  0
 18 19  2  0  0  0  0
 18 23  1  0  0  0  0
 19 20  1  0  0  0  0
 20 21  2  0  0  0  0
 21 22  1  0  0  0  0
 21 27  1  0  0  0  0
 22 23  2  0  0  0  0
 22 25  1  0  0  0  0
 23 24  1  0  0  0  0
 25 26  2  0  0  0  0
 26 27  1  0  0  0  0
M  END
>  <CHROM.1>
133.41188672,-83.97701482,-63.53795048,-167.74768062,175.46301065,37.54940645
2.15771774,-3.87049399,-10.84955161,18.94961510,-2.67247809,1.10738085,0.05635831

>  <Name>
ligand

>  <RI>
0

>  <Rbt.Current_Directory>
/home/itssahil/PROJECTS/Mol_Feturizer/Test_systems_manuscript/rnas/4kqy

>  <Rbt.Executable>
rbdock ($Id: //depot/dev/client3/rdock/2013.1/src/exe/rbdock.cxx#4 $)

>  <Rbt.Library>
libRbt.so (2013.1, Build901 2013/11/27)

>  <Rbt.Parameter_File>
/export/apps/rDock/src/rDock_2013.1_src/data/scripts/dock_solv.prm

>  <Rbt.Receptor>
prm/pocket_docking_3.prm

>  <SCORE>
-13.8736

>  <SCORE.INTER>
-11.9059

>  <SCORE.INTER.CONST>
1

>  <SCORE.INTER.POLAR>
0

>  <SCORE.INTER.ROT>
7

>  <SCORE.INTER.SOLV>
10.1381

>  <SCORE.INTER.VDW>
-19.5833

>  <SCORE.INTER.norm>
-0.440959

>  <SCORE.INTRA>
-1.96769

>  <SCORE.INTRA.DIHEDRAL>
-3.63187

>  <SCORE.INTRA.DIHEDRAL.0>
10.4103

>  <SCORE.INTRA.POLAR>
0

>  <SCORE.INTRA.POLAR.0>
0

>  <SCORE.INTRA.REPUL>
0

>  <SCORE.INTRA.REPUL.0>
0

>  <SCORE.INTRA.SOLV>
0.971338

>  <SCORE.INTRA.SOLV.lig_0>
-49.5008

>  <SCORE.INTRA.VDW>
-0.637424

>  <SCORE.INTRA.VDW.0>
-2.6946

>  <SCORE.INTRA.norm>
-0.0728774

>  <SCORE.RESTR>
0

>  <SCORE.RESTR.CAVITY>
0

>  <SCORE.RESTR.norm>
0

>  <SCORE.SYSTEM>
0

>  <SCORE.SYSTEM.CONST>
0

>  <SCORE.SYSTEM.DIHEDRAL>
0

>  <SCORE.SYSTEM.SOLV>
0

>  <SCORE.SYSTEM.norm>
0

>  <SCORE.heavy>
27

>  <SCORE.norm>
-0.513836

>  <RMSD>
6.368

$$$$
ligand
 OpenBabel02271912153D
libRbt.so/2013.1/901 2013/11/27
 27 29  0  0  0  0  0  0  0  0999 V2000
   -6.0320   -5.9134   21.2520 N   0  0  0  0  0  0  0  0  0  0  0  0
   -5.4346   -7.2311   21.3575 C   0  0  2  0  0  0  0  0  0  0  0  0
   -4.0365   -7.1297   20.8303 C   0  0  0  0  0  0  0  0  0  0  0  0
   -3.0762   -7.2435   21.6223 O   0  0  0  0  0  0  0  0  0  0  0  0
   -6.2371   -8.2493   20.5429 C   0  0  0  0  0  0  0  0  0  0  0  0
   -5.7358   -9.6899   20.7872 C   0  0  0  0  0  0  0  0  0  0  0  0
   -6.5162  -10.8866   19.9073 S   0  0  2  0  0  0  0  0  0  0  0  0
   -6.1821  -12.3695   20.5768 C   0  0  0  0  0  0  0  0  0  0  0  0
   -6.0122  -10.8309   18.2976 C   0  0  0  0  0  0  0  0  0  0  0  0
   -5.3882   -9.4825   17.8802 C   0  0  1  0  0  0  0  0  0  0  0  0
   -4.0169   -9.3429   18.2876 O   0  0  0  0  0  0  0  0  0  0  0  0
   -5.2903   -9.2979   16.3744 C   0  0  1  0  0  0  0  0  0  0  0  0
   -6.5076   -8.9969   15.6628 O   0  0  0  0  0  0  0  0  0  0  0  0
   -4.2525   -8.2056   16.2976 C   0  0  1  0  0  0  0  0  0  0  0  0
   -4.8124   -6.9680   16.7263 O   0  0  0  0  0  0  0  0  0  0  0  0
   -3.2373   -8.6552   17.3063 C   0  0  2  0  0  0  0  0  0  0  0  0
   -3.8532   -6.9642   19.6005 O   0  0  0  0  0  0  0  0  0  0  0  0
    0.0105   -9.7550   13.2420 N   0  0  0  0  0  0  0  0  0  0  0  0
   -0.8951   -8.7542   13.3644 C   0  0  0  0  0  0  0  0  0  0  0  0
   -1.6626   -8.5974   14.4561 N   0  0  0  0  0  0  0  0  0  0  0  0
   -1.5661   -9.4146   15.5107 C   0  0  0  0  0  0  0  0  0  0  0  0
   -0.5949  -10.4963   15.4490 C   0  0  0  0  0  0  0  0  0  0  0  0
    0.2344  -10.6725   14.2344 C   0  0  0  0  0  0  0  0  0  0  0  0
    1.1673  -11.6818   14.1157 N   0  0  0  0  0  0  0  0  0  0  0  0
   -0.6918  -11.1287   16.5965 N   0  0  0  0  0  0  0  0  0  0  0  0
   -1.6431  -10.5425   17.3364 C   0  0  0  0  0  0  0  0  0  0  0  0
   -2.1719   -9.5040   16.6903 N   0  0  0  0  0  0  0  0  0  0  0  0
  2  1  1  6  0  0  0
  2  3  1  0  0  0  0
  2  5  1  0  0  0  0
  3  4  1  0  0  0  0
  3 17  1  0  0  0  0
  5  6  1  0  0  0  0
  7  6  1  1  0  0  0
  7  8  1  0  0  0  0
  7  9  1  0  0  0  0
 10  9  1  6  0  0  0
 10 11  1  0  0  0  0
 10 12  1  0  0  0  0
 11 16  1  0  0  0  0
 12 13  1  1  0  0  0
 12 14  1  0  0  0  0
 14 15  1  1  0  0  0
 14 16  1  0  0  0  0
 16 27  1  6  0  0  0
 18 19  2  0  0  0  0
 18 23  1  0  0  0  0
 19 20  1  0  0  0  0
 20 21  2  0  0  0  0
 21 22  1  0  0  0  0
 21 27  1  0  0  0  0
 22 23  2  0  0  0  0
 22 25  1  0  0  0  0
 23 24  1  0  0  0  0
 25 26  2  0  0  0  0
 26 27  1  0  0  0  0
M  END
>  <CHROM.1>
111.10193455,-172.43292076,-178.23861498,-164.08864657,-20.13708029,80.21033539
155.04677712,-3.71737521,-9.23774932,17.74498435,-2.64598509,-0.74034927
-2.69349058

>  <Name>
ligand

>  <RI>
0

>  <Rbt.Current_Directory>
/home/itssahil/PROJECTS/Mol_Feturizer/Test_systems_manuscript/rnas/4kqy

>  <Rbt.Executable>
rbdock ($Id: //depot/dev/client3/rdock/2013.1/src/exe/rbdock.cxx#4 $)

>  <Rbt.Library>
libRbt.so (2013.1, Build901 2013/11/27)

>  <Rbt.Parameter_File>
/export/apps/rDock/src/rDock_2013.1_src/data/scripts/dock_solv.prm

>  <Rbt.Receptor>
prm/pocket_docking_6.prm

>  <SCORE>
-12.5249

>  <SCORE.INTER>
-11.6599

>  <SCORE.INTER.CONST>
1

>  <SCORE.INTER.POLAR>
0

>  <SCORE.INTER.ROT>
7

>  <SCORE.INTER.SOLV>
17.0559

>  <SCORE.INTER.VDW>
-21.7252

>  <SCORE.INTER.norm>
-0.431848

>  <SCORE.INTRA>
-0.864963

>  <SCORE.INTRA.DIHEDRAL>
-1.88101

>  <SCORE.INTRA.DIHEDRAL.0>
10.4103

>  <SCORE.INTRA.POLAR>
0

>  <SCORE.INTRA.POLAR.0>
0

>  <SCORE.INTRA.REPUL>
0

>  <SCORE.INTRA.REPUL.0>
0

>  <SCORE.INTRA.SOLV>
-0.191775

>  <SCORE.INTRA.SOLV.lig_0>
-49.5008

>  <SCORE.INTRA.VDW>
0.17143

>  <SCORE.INTRA.VDW.0>
-2.6946

>  <SCORE.INTRA.norm>
-0.0320357

>  <SCORE.RESTR>
0

>  <SCORE.RESTR.CAVITY>
0

>  <SCORE.RESTR.norm>
0

>  <SCORE.SYSTEM>
0

>  <SCORE.SYSTEM.CONST>
0

>  <SCORE.SYSTEM.DIHEDRAL>
0

>  <SCORE.SYSTEM.SOLV>
0

>  <SCORE.SYSTEM.norm>
0

>  <SCORE.heavy>
27

>  <SCORE.norm>
-0.463884

>  <RMSD>
6.381

$$$$
ligand
 OpenBabel02271912153D
libRbt.so/2013.1/901 2013/11/27
 27 29  0  0  0  0  0  0  0  0999 V2000
   -6.4938  -15.0451   20.0428 N   0  0  0  0  0  0  0  0  0  0  0  0
   -7.3668  -13.9989   20.5405 C   0  0  2  0  0  0  0  0  0  0  0  0
   -8.7720  -14.3950   20.2064 C   0  0  0  0  0  0  0  0  0  0  0  0
   -9.0808  -14.5986   19.0125 O   0  0  0  0  0  0  0  0  0  0  0  0
   -7.0226  -12.6583   19.8858 C   0  0  0  0  0  0  0  0  0  0  0  0
   -6.3707  -11.6872   20.8950 C   0  0  0  0  0  0  0  0  0  0  0  0
   -4.7453  -11.9569   21.2122 S   0  0  2  0  0  0  0  0  0  0  0  0
   -4.5477  -13.4950   21.8070 C   0  0  0  0  0  0  0  0  0  0  0  0
   -4.1827  -10.8123   22.3175 C   0  0  0  0  0  0  0  0  0  0  0  0
   -3.9390   -9.4157   21.7077 C   0  0  1  0  0  0  0  0  0  0  0  0
   -2.6213   -9.2613   21.1549 O   0  0  0  0  0  0  0  0  0  0  0  0
   -4.8219   -9.1138   20.5076 C   0  0  1  0  0  0  0  0  0  0  0  0
   -6.2057   -8.8008   20.7644 O   0  0  0  0  0  0  0  0  0  0  0  0
   -4.0483   -7.9843   19.8735 C   0  0  1  0  0  0  0  0  0  0  0  0
   -4.1766   -6.8026   20.6584 O   0  0  0  0  0  0  0  0  0  0  0  0
   -2.6334   -8.4749   19.9611 C   0  0  2  0  0  0  0  0  0  0  0  0
   -9.6051  -14.5460   21.1318 O   0  0  0  0  0  0  0  0  0  0  0  0
   -1.9142  -13.1012   17.4400 N   0  0  0  0  0  0  0  0  0  0  0  0
   -2.3598  -12.8758   18.6999 C   0  0  0  0  0  0  0  0  0  0  0  0
   -2.4873  -11.6421   19.2164 N   0  0  0  0  0  0  0  0  0  0  0  0
   -2.1996  -10.5457   18.5061 C   0  0  0  0  0  0  0  0  0  0  0  0
   -1.7372  -10.7213   17.1376 C   0  0  0  0  0  0  0  0  0  0  0  0
   -1.5826  -12.0858   16.5823 C   0  0  0  0  0  0  0  0  0  0  0  0
   -1.1438  -12.3150   15.2948 N   0  0  0  0  0  0  0  0  0  0  0  0
   -1.5425   -9.5096   16.6686 N   0  0  0  0  0  0  0  0  0  0  0  0
   -1.8249   -8.6208   17.6310 C   0  0  0  0  0  0  0  0  0  0  0  0
   -2.2273   -9.2379   18.7413 N   0  0  0  0  0  0  0  0  0  0  0  0
  2  1  1  6  0  0  0
  2  3  1  0  0  0  0
  2  5  1  0  0  0  0
  3  4  1  0  0  0  0
  3 17  1  0  0  0  0
  5  6  1  0  0  0  0
  7  6  1  1  0  0  0
  7  8  1  0  0  0  0
  7  9  1  0  0  0  0
 10  9  1  6  0  0  0
 10 11  1  0  0  0  0
 10 12  1  0  0  0  0
 11 16  1  0  0  0  0
 12 13  1  1  0  0  0
 12 14  1  0  0  0  0
 14 15  1  1  0  0  0
 14 16  1  0  0  0  0
 16 27  1  6  0  0  0
 18 19  2  0  0  0  0
 18 23  1  0  0  0  0
 19 20  1  0  0  0  0
 20 21  2  0  0  0  0
 21 22  1  0  0  0  0
 21 27  1  0  0  0  0
 22 23  2  0  0  0  0
 22 25  1  0  0  0  0
 23 24  1  0  0  0  0
 25 26  2  0  0  0  0
 26 27  1  0  0  0  0
M  END
>  <CHROM.1>
-57.99836406,-109.81999320,78.89914233,-58.78724304,-76.21024707,-87.68488734
19.97217299,-4.39159545,-11.28497906,19.68074170,-2.80337893,0.62093030,0.54487999

>  <Name>
ligand

>  <RI>
0

>  <Rbt.Current_Directory>
/home/itssahil/PROJECTS/Mol_Feturizer/Test_systems_manuscript/rnas/4kqy

>  <Rbt.Executable>
rbdock ($Id: //depot/dev/client3/rdock/2013.1/src/exe/rbdock.cxx#4 $)

>  <Rbt.Library>
libRbt.so (2013.1, Build901 2013/11/27)

>  <Rbt.Parameter_File>
/export/apps/rDock/src/rDock_2013.1_src/data/scripts/dock_solv.prm

>  <Rbt.Receptor>
prm/pocket_docking_6.prm

>  <SCORE>
-15.7499

>  <SCORE.INTER>
-18.4662

>  <SCORE.INTER.CONST>
1

>  <SCORE.INTER.POLAR>
0

>  <SCORE.INTER.ROT>
7

>  <SCORE.INTER.SOLV>
10.5413

>  <SCORE.INTER.VDW>
-24.0912

>  <SCORE.INTER.norm>
-0.683934

>  <SCORE.INTRA>
2.71629

>  <SCORE.INTRA.DIHEDRAL>
2.06254

>  <SCORE.INTRA.DIHEDRAL.0>
10.4103

>  <SCORE.INTRA.POLAR>
0

>  <SCORE.INTRA.POLAR.0>
0

>  <SCORE.INTRA.REPUL>
0

>  <SCORE.INTRA.REPUL.0>
0

>  <SCORE.INTRA.SOLV>
2.18936

>  <SCORE.INTRA.SOLV.lig_0>
-49.5008

>  <SCORE.INTRA.VDW>
0.590338

>  <SCORE.INTRA.VDW.0>
-2.6946

>  <SCORE.INTRA.norm>
0.100603

>  <SCORE.RESTR>
0

>  <SCORE.RESTR.CAVITY>
0

>  <SCORE.RESTR.norm>
0

>  <SCORE.SYSTEM>
0

>  <SCORE.SYSTEM.CONST>
0

>  <SCORE.SYSTEM.DIHEDRAL>
0

>  <SCORE.SYSTEM.SOLV>
0

>  <SCORE.SYSTEM.norm>
0

>  <SCORE.heavy>
27

>  <SCORE.norm>
-0.583331

>  <RMSD>
6.382

$$$$
ligand
 OpenBabel02271912153D
libRbt.so/2013.1/901 2013/11/27
 27 29  0  0  0  0  0  0  0  0999 V2000
   -4.5885   -7.8533   19.5756 N   0  0  0  0  0  0  0  0  0  0  0  0
   -4.6921   -7.8145   21.0220 C   0  0  2  0  0  0  0  0  0  0  0  0
   -4.8857   -6.3827   21.4164 C   0  0  0  0  0  0  0  0  0  0  0  0
   -6.0159   -6.0000   21.7884 O   0  0  0  0  0  0  0  0  0  0  0  0
   -3.4207   -8.3754   21.6648 C   0  0  0  0  0  0  0  0  0  0  0  0
   -3.2279   -9.8702   21.3256 C   0  0  0  0  0  0  0  0  0  0  0  0
   -4.3956  -10.9077   21.9383 S   0  0  2  0  0  0  0  0  0  0  0  0
   -3.8083  -12.4613   21.9361 C   0  0  0  0  0  0  0  0  0  0  0  0
   -5.7996  -10.7987   21.0079 C   0  0  0  0  0  0  0  0  0  0  0  0
   -5.7842  -11.6794   19.7407 C   0  0  1  0  0  0  0  0  0  0  0  0
   -6.9233  -12.5504   19.6427 O   0  0  0  0  0  0  0  0  0  0  0  0
   -5.8816  -10.8860   18.4476 C   0  0  1  0  0  0  0  0  0  0  0  0
   -4.7032  -10.1774   18.0141 O   0  0  0  0  0  0  0  0  0  0  0  0
   -6.3292  -11.9664   17.4944 C   0  0  1  0  0  0  0  0  0  0  0  0
   -5.2531  -12.8612   17.2293 O   0  0  0  0  0  0  0  0  0  0  0  0
   -7.3748  -12.6867   18.2932 C   0  0  2  0  0  0  0  0  0  0  0  0
   -3.9048   -5.6012   21.3968 O   0  0  0  0  0  0  0  0  0  0  0  0
  -12.5858  -13.4080   17.5175 N   0  0  0  0  0  0  0  0  0  0  0  0
  -11.6142  -14.3343   17.7036 C   0  0  0  0  0  0  0  0  0  0  0  0
  -10.3230  -14.0081   17.8823 N   0  0  0  0  0  0  0  0  0  0  0  0
   -9.9133  -12.7350   17.9092 C   0  0  0  0  0  0  0  0  0  0  0  0
  -10.9138  -11.6925   17.7374 C   0  0  0  0  0  0  0  0  0  0  0  0
  -12.3322  -12.0618   17.5231 C   0  0  0  0  0  0  0  0  0  0  0  0
  -13.3238  -11.1187   17.3491 N   0  0  0  0  0  0  0  0  0  0  0  0
  -10.2612  -10.5551   17.8171 N   0  0  0  0  0  0  0  0  0  0  0  0
   -8.9591  -10.8134   18.0011 C   0  0  0  0  0  0  0  0  0  0  0  0
   -8.7417  -12.1266   18.0631 N   0  0  0  0  0  0  0  0  0  0  0  0
  2  1  1  6  0  0  0
  2  3  1  0  0  0  0
  2  5  1  0  0  0  0
  3  4  1  0  0  0  0
  3 17  1  0  0  0  0
  5  6  1  0  0  0  0
  7  6  1  6  0  0  0
  7  8  1  0  0  0  0
  7  9  1  0  0  0  0
 10  9  1  1  0  0  0
 10 11  1  0  0  0  0
 10 12  1  0  0  0  0
 11 16  1  0  0  0  0
 12 13  1  6  0  0  0
 12 14  1  0  0  0  0
 14 15  1  1  0  0  0
 14 16  1  0  0  0  0
 16 27  1  1  0  0  0
 18 19  2  0  0  0  0
 18 23  1  0  0  0  0
 19 20  1  0  0  0  0
 20 21  2  0  0  0  0
 21 22  1  0  0  0  0
 21 27  1  0  0  0  0
 22 23  2  0  0  0  0
 22 25  1  0  0  0  0
 23 24  1  0  0  0  0
 25 26  2  0  0  0  0
 26 27  1  0  0  0  0
M  END
>  <CHROM.1>
105.61998481,-64.04387244,-64.92353916,-161.34491444,83.88540335,126.32377049
-104.28522789,-7.00598358,-10.75985461,19.40958576,0.59878509,-0.34884390
0.25129267

>  <Name>
ligand

>  <RI>
0

>  <Rbt.Current_Directory>
/home/itssahil/PROJECTS/Mol_Feturizer/Test_systems_manuscript/rnas/4kqy

>  <Rbt.Executable>
rbdock ($Id: //depot/dev/client3/rdock/2013.1/src/exe/rbdock.cxx#4 $)

>  <Rbt.Library>
libRbt.so (2013.1, Build901 2013/11/27)

>  <Rbt.Parameter_File>
/export/apps/rDock/src/rDock_2013.1_src/data/scripts/dock_solv.prm

>  <Rbt.Receptor>
prm/pocket_docking_8.prm

>  <SCORE>
-13.7609

>  <SCORE.INTER>
-16.2985

>  <SCORE.INTER.CONST>
1

>  <SCORE.INTER.POLAR>
0

>  <SCORE.INTER.ROT>
7

>  <SCORE.INTER.SOLV>
6.62276

>  <SCORE.INTER.VDW>
-21.3399

>  <SCORE.INTER.norm>
-0.603648

>  <SCORE.INTRA>
2.53754

>  <SCORE.INTRA.DIHEDRAL>
0.0627925

>  <SCORE.INTRA.DIHEDRAL.0>
10.4103

>  <SCORE.INTRA.POLAR>
0

>  <SCORE.INTRA.POLAR.0>
0

>  <SCORE.INTRA.REPUL>
0

>  <SCORE.INTRA.REPUL.0>
0

>  <SCORE.INTRA.SOLV>
3.83913

>  <SCORE.INTRA.SOLV.lig_0>
-49.5008

>  <SCORE.INTRA.VDW>
0.586584

>  <SCORE.INTRA.VDW.0>
-2.6946

>  <SCORE.INTRA.norm>
0.0939831

>  <SCORE.RESTR>
0

>  <SCORE.RESTR.CAVITY>
0

>  <SCORE.RESTR.norm>
0

>  <SCORE.SYSTEM>
0

>  <SCORE.SYSTEM.CONST>
0

>  <SCORE.SYSTEM.DIHEDRAL>
0

>  <SCORE.SYSTEM.SOLV>
0

>  <SCORE.SYSTEM.norm>
0

>  <SCORE.heavy>
27

>  <SCORE.norm>
-0.509664

>  <RMSD>
6.396

$$$$
ligand
 OpenBabel02271912153D
libRbt.so/2013.1/901 2013/11/27
 27 29  0  0  0  0  0  0  0  0999 V2000
   -3.1008  -12.4743   21.6366 N   0  0  0  0  0  0  0  0  0  0  0  0
   -4.1712  -11.6025   22.0820 C   0  0  2  0  0  0  0  0  0  0  0  0
   -5.2175  -11.5987   21.0104 C   0  0  0  0  0  0  0  0  0  0  0  0
   -4.9989  -12.2099   19.9423 O   0  0  0  0  0  0  0  0  0  0  0  0
   -3.6442  -10.1840   22.3151 C   0  0  0  0  0  0  0  0  0  0  0  0
   -2.7200   -9.7281   21.1643 C   0  0  0  0  0  0  0  0  0  0  0  0
   -3.4534   -9.5810   19.6623 S   0  0  2  0  0  0  0  0  0  0  0  0
   -2.3456   -9.0167   18.5610 C   0  0  0  0  0  0  0  0  0  0  0  0
   -4.7727   -8.5342   19.7722 C   0  0  0  0  0  0  0  0  0  0  0  0
   -5.5400   -8.3480   18.4462 C   0  0  1  0  0  0  0  0  0  0  0  0
   -4.8817   -7.4558   17.5316 O   0  0  0  0  0  0  0  0  0  0  0  0
   -5.6481   -9.6210   17.6223 C   0  0  1  0  0  0  0  0  0  0  0  0
   -6.5862  -10.6212   18.0674 O   0  0  0  0  0  0  0  0  0  0  0  0
   -5.9686   -9.0446   16.2654 C   0  0  1  0  0  0  0  0  0  0  0  0
   -7.3039   -8.5490   16.2475 O   0  0  0  0  0  0  0  0  0  0  0  0
   -5.0191   -7.8868   16.1755 C   0  0  2  0  0  0  0  0  0  0  0  0
   -6.3058  -11.0098   21.2153 O   0  0  0  0  0  0  0  0  0  0  0  0
   -2.1889  -11.1659   13.0910 N   0  0  0  0  0  0  0  0  0  0  0  0
   -3.5025  -11.2239   13.4191 C   0  0  0  0  0  0  0  0  0  0  0  0
   -4.0918  -10.3231   14.2232 N   0  0  0  0  0  0  0  0  0  0  0  0
   -3.4178   -9.2894   14.7394 C   0  0  0  0  0  0  0  0  0  0  0  0
   -2.0075   -9.1594   14.4056 C   0  0  0  0  0  0  0  0  0  0  0  0
   -1.3618  -10.1672   13.5329 C   0  0  0  0  0  0  0  0  0  0  0  0
   -0.0283  -10.0997   13.1862 N   0  0  0  0  0  0  0  0  0  0  0  0
   -1.5943   -8.0736   15.0190 N   0  0  0  0  0  0  0  0  0  0  0  0
   -2.6170   -7.5475   15.7068 C   0  0  0  0  0  0  0  0  0  0  0  0
   -3.7224   -8.2724   15.5390 N   0  0  0  0  0  0  0  0  0  0  0  0
  2  1  1  6  0  0  0
  2  3  1  0  0  0  0
  2  5  1  0  0  0  0
  3  4  1  0  0  0  0
  3 17  1  0  0  0  0
  5  6  1  0  0  0  0
  7  6  1  1  0  0  0
  7  8  1  0  0  0  0
  7  9  1  0  0  0  0
 10  9  1  1  0  0  0
 10 11  1  0  0  0  0
 10 12  1  0  0  0  0
 11 16  1  0  0  0  0
 12 13  1  1  0  0  0
 12 14  1  0  0  0  0
 14 15  1  1  0  0  0
 14 16  1  0  0  0  0
 16 27  1  1  0  0  0
 18 19  2  0  0  0  0
 18 23  1  0  0  0  0
 19 20  1  0  0  0  0
 20 21  2  0  0  0  0
 21 22  1  0  0  0  0
 21 27  1  0  0  0  0
 22 23  2  0  0  0  0
 22 25  1  0  0  0  0
 23 24  1  0  0  0  0
 25 26  2  0  0  0  0
 26 27  1  0  0  0  0
M  END
>  <CHROM.1>
-4.78132319,44.61032448,64.35511350,177.33536015,-178.86829794,-77.97317838
138.36077443,-3.97151731,-9.73241952,17.61701609,-1.86636498,0.33944447,-1.29561443

>  <Name>
ligand

>  <RI>
0

>  <Rbt.Current_Directory>
/home/itssahil/PROJECTS/Mol_Feturizer/Test_systems_manuscript/rnas/4kqy

>  <Rbt.Executable>
rbdock ($Id: //depot/dev/client3/rdock/2013.1/src/exe/rbdock.cxx#4 $)

>  <Rbt.Library>
libRbt.so (2013.1, Build901 2013/11/27)

>  <Rbt.Parameter_File>
/export/apps/rDock/src/rDock_2013.1_src/data/scripts/dock_solv.prm

>  <Rbt.Receptor>
prm/pocket_docking_5.prm

>  <SCORE>
-14.435

>  <SCORE.INTER>
-12.2498

>  <SCORE.INTER.CONST>
1

>  <SCORE.INTER.POLAR>
0

>  <SCORE.INTER.ROT>
7

>  <SCORE.INTER.SOLV>
16.197

>  <SCORE.INTER.VDW>
-21.8322

>  <SCORE.INTER.norm>
-0.453696

>  <SCORE.INTRA>
-2.18523

>  <SCORE.INTRA.DIHEDRAL>
-5.67638

>  <SCORE.INTRA.DIHEDRAL.0>
10.4103

>  <SCORE.INTRA.POLAR>
0

>  <SCORE.INTRA.POLAR.0>
0

>  <SCORE.INTRA.REPUL>
0

>  <SCORE.INTRA.REPUL.0>
0

>  <SCORE.INTRA.SOLV>
1.71763

>  <SCORE.INTRA.SOLV.lig_0>
-49.5008

>  <SCORE.INTRA.VDW>
-0.205856

>  <SCORE.INTRA.VDW.0>
-2.6946

>  <SCORE.INTRA.norm>
-0.0809344

>  <SCORE.RESTR>
0

>  <SCORE.RESTR.CAVITY>
0

>  <SCORE.RESTR.norm>
0

>  <SCORE.SYSTEM>
0

>  <SCORE.SYSTEM.CONST>
0

>  <SCORE.SYSTEM.DIHEDRAL>
0

>  <SCORE.SYSTEM.SOLV>
0

>  <SCORE.SYSTEM.norm>
0

>  <SCORE.heavy>
27

>  <SCORE.norm>
-0.53463

>  <RMSD>
6.475

$$$$
ligand
 OpenBabel02271912153D
libRbt.so/2013.1/901 2013/11/27
 27 29  0  0  0  0  0  0  0  0999 V2000
  -10.0408  -13.8219   19.9383 N   0  0  0  0  0  0  0  0  0  0  0  0
   -8.6654  -14.2285   20.1553 C   0  0  2  0  0  0  0  0  0  0  0  0
   -8.6323  -15.0303   21.4199 C   0  0  0  0  0  0  0  0  0  0  0  0
   -7.5281  -15.3508   21.9101 O   0  0  0  0  0  0  0  0  0  0  0  0
   -7.7580  -13.0016   20.2802 C   0  0  0  0  0  0  0  0  0  0  0  0
   -6.2665  -13.3875   20.1656 C   0  0  0  0  0  0  0  0  0  0  0  0
   -5.1963  -12.1038   20.0169 S   0  0  2  0  0  0  0  0  0  0  0  0
   -3.7069  -12.6783   19.5582 C   0  0  0  0  0  0  0  0  0  0  0  0
   -5.0912  -11.2765   21.4842 C   0  0  0  0  0  0  0  0  0  0  0  0
   -4.3641   -9.9184   21.3898 C   0  0  1  0  0  0  0  0  0  0  0  0
   -2.9899  -10.0389   20.9863 O   0  0  0  0  0  0  0  0  0  0  0  0
   -4.9283   -8.9999   20.3179 C   0  0  1  0  0  0  0  0  0  0  0  0
   -6.1846   -8.3495   20.5961 O   0  0  0  0  0  0  0  0  0  0  0  0
   -3.7739   -8.0454   20.1375 C   0  0  1  0  0  0  0  0  0  0  0  0
   -3.6729   -7.1812   21.2653 O   0  0  0  0  0  0  0  0  0  0  0  0
   -2.5920   -8.9691   20.1256 C   0  0  2  0  0  0  0  0  0  0  0  0
   -9.7107  -15.3389   21.9810 O   0  0  0  0  0  0  0  0  0  0  0  0
   -2.0594   -7.9300   14.9379 N   0  0  0  0  0  0  0  0  0  0  0  0
   -2.4516   -7.1039   15.9381 C   0  0  0  0  0  0  0  0  0  0  0  0
   -2.5499   -7.5054   17.2165 N   0  0  0  0  0  0  0  0  0  0  0  0
   -2.2436   -8.7526   17.5908 C   0  0  0  0  0  0  0  0  0  0  0  0
   -1.7940   -9.6817   16.5651 C   0  0  0  0  0  0  0  0  0  0  0  0
   -1.7059   -9.2355   15.1554 C   0  0  0  0  0  0  0  0  0  0  0  0
   -1.2918  -10.0717   14.1394 N   0  0  0  0  0  0  0  0  0  0  0  0
   -1.5503  -10.8117   17.1894 N   0  0  0  0  0  0  0  0  0  0  0  0
   -1.8289  -10.6575   18.4911 C   0  0  0  0  0  0  0  0  0  0  0  0
   -2.2429   -9.4162   18.7424 N   0  0  0  0  0  0  0  0  0  0  0  0
  2  1  1  1  0  0  0
  2  3  1  0  0  0  0
  2  5  1  0  0  0  0
  3  4  1  0  0  0  0
  3 17  1  0  0  0  0
  5  6  1  0  0  0  0
  7  6  1  1  0  0  0
  7  8  1  0  0  0  0
  7  9  1  0  0  0  0
 10  9  1  6  0  0  0
 10 11  1  0  0  0  0
 10 12  1  0  0  0  0
 11 16  1  0  0  0  0
 12 13  1  1  0  0  0
 12 14  1  0  0  0  0
 14 15  1  1  0  0  0
 14 16  1  0  0  0  0
 16 27  1  6  0  0  0
 18 19  2  0  0  0  0
 18 23  1  0  0  0  0
 19 20  1  0  0  0  0
 20 21  2  0  0  0  0
 21 22  1  0  0  0  0
 21 27  1  0  0  0  0
 22 23  2  0  0  0  0
 22 25  1  0  0  0  0
 23 24  1  0  0  0  0
 25 26  2  0  0  0  0
 26 27  1  0  0  0  0
M  END
>  <CHROM.1>
-170.98540219,-166.11025989,169.66610182,-167.06807193,-168.24081184,-62.61362931
156.03757528,-4.58278859,-10.81159691,19.30427374,-3.08688943,0.84369316
0.85169411

>  <Name>
ligand

>  <RI>
0

>  <Rbt.Current_Directory>
/home/itssahil/PROJECTS/Mol_Feturizer/Test_systems_manuscript/rnas/4kqy

>  <Rbt.Executable>
rbdock ($Id: //depot/dev/client3/rdock/2013.1/src/exe/rbdock.cxx#4 $)

>  <Rbt.Library>
libRbt.so (2013.1, Build901 2013/11/27)

>  <Rbt.Parameter_File>
/export/apps/rDock/src/rDock_2013.1_src/data/scripts/dock_solv.prm

>  <Rbt.Receptor>
prm/pocket_docking_6.prm

>  <SCORE>
-18.8799

>  <SCORE.INTER>
-16.9641

>  <SCORE.INTER.CONST>
1

>  <SCORE.INTER.POLAR>
0

>  <SCORE.INTER.ROT>
7

>  <SCORE.INTER.SOLV>
11.8407

>  <SCORE.INTER.VDW>
-23.523

>  <SCORE.INTER.norm>
-0.6283

>  <SCORE.INTRA>
-1.91577

>  <SCORE.INTRA.DIHEDRAL>
-5.68033

>  <SCORE.INTRA.DIHEDRAL.0>
10.4103

>  <SCORE.INTRA.POLAR>
0

>  <SCORE.INTRA.POLAR.0>
0

>  <SCORE.INTRA.REPUL>
0

>  <SCORE.INTRA.REPUL.0>
0

>  <SCORE.INTRA.SOLV>
-0.383496

>  <SCORE.INTRA.SOLV.lig_0>
-49.5008

>  <SCORE.INTRA.VDW>
1.11615

>  <SCORE.INTRA.VDW.0>
-2.6946

>  <SCORE.INTRA.norm>
-0.0709544

>  <SCORE.RESTR>
0

>  <SCORE.RESTR.CAVITY>
0

>  <SCORE.RESTR.norm>
0

>  <SCORE.SYSTEM>
0

>  <SCORE.SYSTEM.CONST>
0

>  <SCORE.SYSTEM.DIHEDRAL>
0

>  <SCORE.SYSTEM.SOLV>
0

>  <SCORE.SYSTEM.norm>
0

>  <SCORE.heavy>
27

>  <SCORE.norm>
-0.699255

>  <RMSD>
6.478

$$$$
ligand
 OpenBabel02271912153D
libRbt.so/2013.1/901 2013/11/27
 27 29  0  0  0  0  0  0  0  0999 V2000
   -2.0519   -8.1479   17.8327 N   0  0  0  0  0  0  0  0  0  0  0  0
   -2.4373   -9.4748   18.2742 C   0  0  2  0  0  0  0  0  0  0  0  0
   -3.5026   -9.9627   17.3413 C   0  0  0  0  0  0  0  0  0  0  0  0
   -3.5399  -11.1748   17.0386 O   0  0  0  0  0  0  0  0  0  0  0  0
   -2.9685   -9.4280   19.7094 C   0  0  0  0  0  0  0  0  0  0  0  0
   -3.2563  -10.8454   20.2522 C   0  0  0  0  0  0  0  0  0  0  0  0
   -4.0297  -10.9073   21.7399 S   0  0  2  0  0  0  0  0  0  0  0  0
   -3.0200  -10.3020   22.9116 C   0  0  0  0  0  0  0  0  0  0  0  0
   -4.4641  -12.5000   22.0907 C   0  0  0  0  0  0  0  0  0  0  0  0
   -5.2427  -13.2034   20.9589 C   0  0  1  0  0  0  0  0  0  0  0  0
   -5.4802  -14.5974   21.2165 O   0  0  0  0  0  0  0  0  0  0  0  0
   -6.6546  -12.6723   20.7708 C   0  0  1  0  0  0  0  0  0  0  0  0
   -6.8007  -11.3914   20.1253 O   0  0  0  0  0  0  0  0  0  0  0  0
   -7.2794  -13.8146   20.0086 C   0  0  1  0  0  0  0  0  0  0  0  0
   -6.7790  -13.8447   18.6754 O   0  0  0  0  0  0  0  0  0  0  0  0
   -6.7650  -15.0140   20.7482 C   0  0  2  0  0  0  0  0  0  0  0  0
   -4.3563   -9.1537   16.9055 O   0  0  0  0  0  0  0  0  0  0  0  0
   -7.5415  -16.9441   25.6418 N   0  0  0  0  0  0  0  0  0  0  0  0
   -6.3756  -16.6983   24.9961 C   0  0  0  0  0  0  0  0  0  0  0  0
   -6.3258  -16.2117   23.7447 N   0  0  0  0  0  0  0  0  0  0  0  0
   -7.4345  -15.9160   23.0572 C   0  0  0  0  0  0  0  0  0  0  0  0
   -8.7185  -16.1370   23.7053 C   0  0  0  0  0  0  0  0  0  0  0  0
   -8.7642  -16.6906   25.0784 C   0  0  0  0  0  0  0  0  0  0  0  0
   -9.9505  -16.9263   25.7417 N   0  0  0  0  0  0  0  0  0  0  0  0
   -9.6272  -15.7599   22.8346 N   0  0  0  0  0  0  0  0  0  0  0  0
   -9.0133  -15.3509   21.7158 C   0  0  0  0  0  0  0  0  0  0  0  0
   -7.6898  -15.4370   21.8440 N   0  0  0  0  0  0  0  0  0  0  0  0
  2  1  1  6  0  0  0
  2  3  1  0  0  0  0
  2  5  1  0  0  0  0
  3  4  1  0  0  0  0
  3 17  1  0  0  0  0
  5  6  1  0  0  0  0
  7  6  1  6  0  0  0
  7  8  1  0  0  0  0
  7  9  1  0  0  0  0
 10  9  1  1  0  0  0
 10 11  1  0  0  0  0
 10 12  1  0  0  0  0
 11 16  1  0  0  0  0
 12 13  1  6  0  0  0
 12 14  1  0  0  0  0
 14 15  1  6  0  0  0
 14 16  1  0  0  0  0
 16 27  1  1  0  0  0
 18 19  2  0  0  0  0
 18 23  1  0  0  0  0
 19 20  1  0  0  0  0
 20 21  2  0  0  0  0
 21 22  1  0  0  0  0
 21 27  1  0  0  0  0
 22 23  2  0  0  0  0
 22 25  1  0  0  0  0
 23 24  1  0  0  0  0
 25 26  2  0  0  0  0
 26 27  1  0  0  0  0
M  END
>  <CHROM.1>
144.24000117,-174.43680080,-172.32338174,-66.24564619,-51.20592976,173.81377590
-25.71837218,-5.78001524,-13.07729200,21.22857410,-0.83786118,0.71579606
1.92102642

>  <Name>
ligand

>  <RI>
0

>  <Rbt.Current_Directory>
/home/itssahil/PROJECTS/Mol_Feturizer/Test_systems_manuscript/rnas/4kqy

>  <Rbt.Executable>
rbdock ($Id: //depot/dev/client3/rdock/2013.1/src/exe/rbdock.cxx#4 $)

>  <Rbt.Library>
libRbt.so (2013.1, Build901 2013/11/27)

>  <Rbt.Parameter_File>
/export/apps/rDock/src/rDock_2013.1_src/data/scripts/dock_solv.prm

>  <Rbt.Receptor>
prm/pocket_docking_8.prm

>  <SCORE>
-22.5524

>  <SCORE.INTER>
-19.362

>  <SCORE.INTER.CONST>
1

>  <SCORE.INTER.POLAR>
0

>  <SCORE.INTER.ROT>
7

>  <SCORE.INTER.SOLV>
13.3736

>  <SCORE.INTER.VDW>
-25.6325

>  <SCORE.INTER.norm>
-0.717109

>  <SCORE.INTRA>
-3.19045

>  <SCORE.INTRA.DIHEDRAL>
-6.875

>  <SCORE.INTRA.DIHEDRAL.0>
10.4103

>  <SCORE.INTRA.POLAR>
0

>  <SCORE.INTRA.POLAR.0>
0

>  <SCORE.INTRA.REPUL>
0

>  <SCORE.INTRA.REPUL.0>
0

>  <SCORE.INTRA.SOLV>
-0.351225

>  <SCORE.INTRA.SOLV.lig_0>
-49.5008

>  <SCORE.INTRA.VDW>
0.422659

>  <SCORE.INTRA.VDW.0>
-2.6946

>  <SCORE.INTRA.norm>
-0.118165

>  <SCORE.RESTR>
0

>  <SCORE.RESTR.CAVITY>
0

>  <SCORE.RESTR.norm>
0

>  <SCORE.SYSTEM>
0

>  <SCORE.SYSTEM.CONST>
0

>  <SCORE.SYSTEM.DIHEDRAL>
0

>  <SCORE.SYSTEM.SOLV>
0

>  <SCORE.SYSTEM.norm>
0

>  <SCORE.heavy>
27

>  <SCORE.norm>
-0.835274

>  <RMSD>
6.479

$$$$
ligand
 OpenBabel02271912153D
libRbt.so/2013.1/901 2013/11/27
 27 29  0  0  0  0  0  0  0  0999 V2000
   -3.1852   -9.9010   18.8560 N   0  0  0  0  0  0  0  0  0  0  0  0
   -2.5426  -10.3275   20.0845 C   0  0  2  0  0  0  0  0  0  0  0  0
   -2.7366  -11.8083   20.1978 C   0  0  0  0  0  0  0  0  0  0  0  0
   -2.7338  -12.5049   19.1600 O   0  0  0  0  0  0  0  0  0  0  0  0
   -3.1652   -9.6164   21.2890 C   0  0  0  0  0  0  0  0  0  0  0  0
   -4.6454  -10.0158   21.4783 C   0  0  0  0  0  0  0  0  0  0  0  0
   -5.6964   -9.4866   20.2822 S   0  0  2  0  0  0  0  0  0  0  0  0
   -5.8439   -7.8345   20.3697 C   0  0  0  0  0  0  0  0  0  0  0  0
   -7.1989  -10.2312   20.4734 C   0  0  0  0  0  0  0  0  0  0  0  0
   -7.1266  -11.7662   20.6163 C   0  0  1  0  0  0  0  0  0  0  0  0
   -8.3957  -12.3666   20.9241 O   0  0  0  0  0  0  0  0  0  0  0  0
   -6.7439  -12.4793   19.3294 C   0  0  1  0  0  0  0  0  0  0  0  0
   -5.3626  -12.4153   18.9214 O   0  0  0  0  0  0  0  0  0  0  0  0
   -7.2260  -13.8760   19.6346 C   0  0  1  0  0  0  0  0  0  0  0  0
   -6.3716  -14.4893   20.5953 O   0  0  0  0  0  0  0  0  0  0  0  0
   -8.5638  -13.6238   20.2646 C   0  0  2  0  0  0  0  0  0  0  0  0
   -2.8666  -12.3267   21.3325 O   0  0  0  0  0  0  0  0  0  0  0  0
  -11.2121  -11.2346   16.3208 N   0  0  0  0  0  0  0  0  0  0  0  0
  -10.1359  -10.7935   17.0163 C   0  0  0  0  0  0  0  0  0  0  0  0
   -9.5662  -11.5053   18.0033 N   0  0  0  0  0  0  0  0  0  0  0  0
  -10.0162  -12.7158   18.3517 C   0  0  0  0  0  0  0  0  0  0  0  0
  -11.1566  -13.2545   17.6260 C   0  0  0  0  0  0  0  0  0  0  0  0
  -11.7896  -12.4552   16.5515 C   0  0  0  0  0  0  0  0  0  0  0  0
  -12.8755  -12.9106   15.8329 N   0  0  0  0  0  0  0  0  0  0  0  0
  -11.3832  -14.4394   18.1464 N   0  0  0  0  0  0  0  0  0  0  0  0
  -10.4998  -14.6578   19.1301 C   0  0  0  0  0  0  0  0  0  0  0  0
   -9.6680  -13.6246   19.2568 N   0  0  0  0  0  0  0  0  0  0  0  0
  2  1  1  6  0  0  0
  2  3  1  0  0  0  0
  2  5  1  0  0  0  0
  3  4  1  0  0  0  0
  3 17  1  0  0  0  0
  5  6  1  0  0  0  0
  7  6  1  1  0  0  0
  7  8  1  0  0  0  0
  7  9  1  0  0  0  0
 10  9  1  6  0  0  0
 10 11  1  0  0  0  0
 10 12  1  0  0  0  0
 11 16  1  0  0  0  0
 12 13  1  1  0  0  0
 12 14  1  0  0  0  0
 14 15  1  1  0  0  0
 14 16  1  0  0  0  0
 16 27  1  6  0  0  0
 18 19  2  0  0  0  0
 18 23  1  0  0  0  0
 19 20  1  0  0  0  0
 20 21  2  0  0  0  0
 21 22  1  0  0  0  0
 21 27  1  0  0  0  0
 22 23  2  0  0  0  0
 22 25  1  0  0  0  0
 23 24  1  0  0  0  0
 25 26  2  0  0  0  0
 26 27  1  0  0  0  0
M  END
>  <CHROM.1>
34.90692232,64.70246968,-67.79148980,-68.72881951,-50.49791277,173.56958335
42.06130585,-7.17115473,-11.82128000,19.36002012,0.21764699,-0.41094238,-0.17703155

>  <Name>
ligand

>  <RI>
0

>  <Rbt.Current_Directory>
/home/itssahil/PROJECTS/Mol_Feturizer/Test_systems_manuscript/rnas/4kqy

>  <Rbt.Executable>
rbdock ($Id: //depot/dev/client3/rdock/2013.1/src/exe/rbdock.cxx#4 $)

>  <Rbt.Library>
libRbt.so (2013.1, Build901 2013/11/27)

>  <Rbt.Parameter_File>
/export/apps/rDock/src/rDock_2013.1_src/data/scripts/dock_solv.prm

>  <Rbt.Receptor>
prm/pocket_docking_8.prm

>  <SCORE>
-16.5653

>  <SCORE.INTER>
-15.1618

>  <SCORE.INTER.CONST>
1

>  <SCORE.INTER.POLAR>
0

>  <SCORE.INTER.ROT>
7

>  <SCORE.INTER.SOLV>
6.74155

>  <SCORE.INTER.VDW>
-20.6217

>  <SCORE.INTER.norm>
-0.561548

>  <SCORE.INTRA>
-1.40346

>  <SCORE.INTRA.DIHEDRAL>
-6.79097

>  <SCORE.INTRA.DIHEDRAL.0>
10.4103

>  <SCORE.INTRA.POLAR>
0

>  <SCORE.INTRA.POLAR.0>
0

>  <SCORE.INTRA.REPUL>
0

>  <SCORE.INTRA.REPUL.0>
0

>  <SCORE.INTRA.SOLV>
3.68126

>  <SCORE.INTRA.SOLV.lig_0>
-49.5008

>  <SCORE.INTRA.VDW>
0.151392

>  <SCORE.INTRA.VDW.0>
-2.6946

>  <SCORE.INTRA.norm>
-0.0519802

>  <SCORE.RESTR>
0

>  <SCORE.RESTR.CAVITY>
0

>  <SCORE.RESTR.norm>
0

>  <SCORE.SYSTEM>
0

>  <SCORE.SYSTEM.CONST>
0

>  <SCORE.SYSTEM.DIHEDRAL>
0

>  <SCORE.SYSTEM.SOLV>
0

>  <SCORE.SYSTEM.norm>
0

>  <SCORE.heavy>
27

>  <SCORE.norm>
-0.613528

>  <RMSD>
6.490

$$$$
ligand
 OpenBabel02271912153D
libRbt.so/2013.1/901 2013/11/27
 27 29  0  0  0  0  0  0  0  0999 V2000
   -6.2450  -14.2248   20.2815 N   0  0  0  0  0  0  0  0  0  0  0  0
   -7.5520  -13.8620   20.7957 C   0  0  2  0  0  0  0  0  0  0  0  0
   -8.5045  -14.9465   20.3963 C   0  0  0  0  0  0  0  0  0  0  0  0
   -9.1761  -14.8138   19.3506 O   0  0  0  0  0  0  0  0  0  0  0  0
   -8.0018  -12.5189   20.2143 C   0  0  0  0  0  0  0  0  0  0  0  0
   -7.0972  -11.3630   20.6958 C   0  0  0  0  0  0  0  0  0  0  0  0
   -7.1490   -9.9678   19.7651 S   0  0  2  0  0  0  0  0  0  0  0  0
   -6.5910  -10.3035   18.2372 C   0  0  0  0  0  0  0  0  0  0  0  0
   -6.2151   -8.7636   20.4907 C   0  0  0  0  0  0  0  0  0  0  0  0
   -4.9504   -9.2908   21.2009 C   0  0  1  0  0  0  0  0  0  0  0  0
   -4.3640  -10.4267   20.5438 O   0  0  0  0  0  0  0  0  0  0  0  0
   -3.7980   -8.2995   21.2060 C   0  0  1  0  0  0  0  0  0  0  0  0
   -3.8874   -7.1833   22.1142 O   0  0  0  0  0  0  0  0  0  0  0  0
   -2.6400   -9.2246   21.4882 C   0  0  1  0  0  0  0  0  0  0  0  0
   -2.6810   -9.6599   22.8439 O   0  0  0  0  0  0  0  0  0  0  0  0
   -2.9357  -10.3919   20.5937 C   0  0  2  0  0  0  0  0  0  0  0  0
   -8.5885  -15.9814   21.1000 O   0  0  0  0  0  0  0  0  0  0  0  0
   -0.7707  -12.5707   16.2530 N   0  0  0  0  0  0  0  0  0  0  0  0
   -1.2792  -13.1805   17.3513 C   0  0  0  0  0  0  0  0  0  0  0  0
   -1.7937  -12.4992   18.3888 N   0  0  0  0  0  0  0  0  0  0  0  0
   -1.8566  -11.1630   18.3950 C   0  0  0  0  0  0  0  0  0  0  0  0
   -1.3466  -10.4506   17.2332 C   0  0  0  0  0  0  0  0  0  0  0  0
   -0.7648  -11.2091   16.1017 C   0  0  0  0  0  0  0  0  0  0  0  0
   -0.2613  -10.5893   14.9769 N   0  0  0  0  0  0  0  0  0  0  0  0
   -1.5368   -9.1753   17.4849 N   0  0  0  0  0  0  0  0  0  0  0  0
   -2.0952   -9.0504   18.6967 C   0  0  0  0  0  0  0  0  0  0  0  0
   -2.2964  -10.2456   19.2503 N   0  0  0  0  0  0  0  0  0  0  0  0
  2  1  1  6  0  0  0
  2  3  1  0  0  0  0
  2  5  1  0  0  0  0
  3  4  1  0  0  0  0
  3 17  1  0  0  0  0
  5  6  1  0  0  0  0
  7  6  1  1  0  0  0
  7  8  1  0  0  0  0
  7  9  1  0  0  0  0
 10  9  1  6  0  0  0
 10 11  1  0  0  0  0
 10 12  1  0  0  0  0
 11 16  1  0  0  0  0
 12 13  1  1  0  0  0
 12 14  1  0  0  0  0
 14 15  1  1  0  0  0
 14 16  1  0  0  0  0
 16 27  1  6  0  0  0
 18 19  2  0  0  0  0
 18 23  1  0  0  0  0
 19 20  1  0  0  0  0
 20 21  2  0  0  0  0
 21 22  1  0  0  0  0
 21 27  1  0  0  0  0
 22 23  2  0  0  0  0
 22 25  1  0  0  0  0
 23 24  1  0  0  0  0
 25 26  2  0  0  0  0
 26 27  1  0  0  0  0
M  END
>  <CHROM.1>
-94.75072721,-65.76824517,160.45573477,-63.15554315,35.21475028,34.08780075
-92.59743770,-4.46310962,-11.11184853,19.53998542,-2.98503125,0.52272508
0.59296584

>  <Name>
ligand

>  <RI>
0

>  <Rbt.Current_Directory>
/home/itssahil/PROJECTS/Mol_Feturizer/Test_systems_manuscript/rnas/4kqy

>  <Rbt.Executable>
rbdock ($Id: //depot/dev/client3/rdock/2013.1/src/exe/rbdock.cxx#4 $)

>  <Rbt.Library>
libRbt.so (2013.1, Build901 2013/11/27)

>  <Rbt.Parameter_File>
/export/apps/rDock/src/rDock_2013.1_src/data/scripts/dock_solv.prm

>  <Rbt.Receptor>
prm/pocket_docking_4.prm

>  <SCORE>
-17.2841

>  <SCORE.INTER>
-18.3763

>  <SCORE.INTER.CONST>
1

>  <SCORE.INTER.POLAR>
0

>  <SCORE.INTER.ROT>
7

>  <SCORE.INTER.SOLV>
14.2383

>  <SCORE.INTER.VDW>
-25.2636

>  <SCORE.INTER.norm>
-0.680603

>  <SCORE.INTRA>
1.09218

>  <SCORE.INTRA.DIHEDRAL>
-2.48681

>  <SCORE.INTRA.DIHEDRAL.0>
10.4103

>  <SCORE.INTRA.POLAR>
0

>  <SCORE.INTRA.POLAR.0>
0

>  <SCORE.INTRA.REPUL>
0

>  <SCORE.INTRA.REPUL.0>
0

>  <SCORE.INTRA.SOLV>
0.6562

>  <SCORE.INTRA.SOLV.lig_0>
-49.5008

>  <SCORE.INTRA.VDW>
2.00748

>  <SCORE.INTRA.VDW.0>
-2.6946

>  <SCORE.INTRA.norm>
0.0404509

>  <SCORE.RESTR>
0

>  <SCORE.RESTR.CAVITY>
0

>  <SCORE.RESTR.norm>
0

>  <SCORE.SYSTEM>
0

>  <SCORE.SYSTEM.CONST>
0

>  <SCORE.SYSTEM.DIHEDRAL>
0

>  <SCORE.SYSTEM.SOLV>
0

>  <SCORE.SYSTEM.norm>
0

>  <SCORE.heavy>
27

>  <SCORE.norm>
-0.640152

>  <RMSD>
6.491

$$$$
ligand
 OpenBabel02271912153D
libRbt.so/2013.1/901 2013/11/27
 27 29  0  0  0  0  0  0  0  0999 V2000
   -5.1912  -14.2067   21.5945 N   0  0  0  0  0  0  0  0  0  0  0  0
   -5.6588  -12.8516   21.3730 C   0  0  2  0  0  0  0  0  0  0  0  0
   -6.6978  -12.9096   20.2958 C   0  0  0  0  0  0  0  0  0  0  0  0
   -7.7219  -12.2002   20.3974 O   0  0  0  0  0  0  0  0  0  0  0  0
   -4.4991  -11.9485   20.9445 C   0  0  0  0  0  0  0  0  0  0  0  0
   -4.9644  -10.4898   20.7393 C   0  0  0  0  0  0  0  0  0  0  0  0
   -3.7483   -9.3822   20.4082 S   0  0  2  0  0  0  0  0  0  0  0  0
   -2.7529   -9.2448   21.7308 C   0  0  0  0  0  0  0  0  0  0  0  0
   -4.4291   -7.8886   20.0156 C   0  0  0  0  0  0  0  0  0  0  0  0
   -4.8364   -7.7533   18.5332 C   0  0  1  0  0  0  0  0  0  0  0  0
   -3.7630   -7.3034   17.6899 O   0  0  0  0  0  0  0  0  0  0  0  0
   -5.2155   -9.0744   17.8836 C   0  0  1  0  0  0  0  0  0  0  0  0
   -6.4992   -9.6361   18.2232 O   0  0  0  0  0  0  0  0  0  0  0  0
   -5.0730   -8.7154   16.4252 C   0  0  1  0  0  0  0  0  0  0  0  0
   -6.1375   -7.8568   16.0267 O   0  0  0  0  0  0  0  0  0  0  0  0
   -3.7900   -7.9384   16.4093 C   0  0  2  0  0  0  0  0  0  0  0  0
   -6.5080  -13.6438   19.2968 O   0  0  0  0  0  0  0  0  0  0  0  0
   -0.5547  -11.8776   17.9231 N   0  0  0  0  0  0  0  0  0  0  0  0
   -1.6352  -11.3671   18.5622 C   0  0  0  0  0  0  0  0  0  0  0  0
   -2.3650  -10.3557   18.0625 N   0  0  0  0  0  0  0  0  0  0  0  0
   -2.0816   -9.7965   16.8808 C   0  0  0  0  0  0  0  0  0  0  0  0
   -0.9454  -10.3164   16.1351 C   0  0  0  0  0  0  0  0  0  0  0  0
   -0.1356  -11.4197   16.7019 C   0  0  0  0  0  0  0  0  0  0  0  0
    0.9550  -11.9499   16.0444 N   0  0  0  0  0  0  0  0  0  0  0  0
   -0.8959   -9.6150   15.0254 N   0  0  0  0  0  0  0  0  0  0  0  0
   -1.8827   -8.7084   15.0403 C   0  0  0  0  0  0  0  0  0  0  0  0
   -2.6061   -8.8150   16.1543 N   0  0  0  0  0  0  0  0  0  0  0  0
  2  1  1  6  0  0  0
  2  3  1  0  0  0  0
  2  5  1  0  0  0  0
  3  4  1  0  0  0  0
  3 17  1  0  0  0  0
  5  6  1  0  0  0  0
  7  6  1  1  0  0  0
  7  8  1  0  0  0  0
  7  9  1  0  0  0  0
 10  9  1  1  0  0  0
 10 11  1  0  0  0  0
 10 12  1  0  0  0  0
 11 16  1  0  0  0  0
 12 13  1  6  0  0  0
 12 14  1  0  0  0  0
 14 15  1  1  0  0  0
 14 16  1  0  0  0  0
 16 27  1  1  0  0  0
 18 19  2  0  0  0  0
 18 23  1  0  0  0  0
 19 20  1  0  0  0  0
 20 21  2  0  0  0  0
 21 22  1  0  0  0  0
 21 27  1  0  0  0  0
 22 23  2  0  0  0  0
 22 25  1  0  0  0  0
 23 24  1  0  0  0  0
 25 26  2  0  0  0  0
 26 27  1  0  0  0  0
M  END
>  <CHROM.1>
139.83063373,-178.45026385,174.49256027,-65.62567627,-84.56028882,-86.69911546
51.91147924,-3.78196485,-10.21957485,18.45635893,-2.38465499,0.46466307,-0.62916695

>  <Name>
ligand

>  <RI>
0

>  <Rbt.Current_Directory>
/home/itssahil/PROJECTS/Mol_Feturizer/Test_systems_manuscript/rnas/4kqy

>  <Rbt.Executable>
rbdock ($Id: //depot/dev/client3/rdock/2013.1/src/exe/rbdock.cxx#4 $)

>  <Rbt.Library>
libRbt.so (2013.1, Build901 2013/11/27)

>  <Rbt.Parameter_File>
/export/apps/rDock/src/rDock_2013.1_src/data/scripts/dock_solv.prm

>  <Rbt.Receptor>
prm/pocket_docking_4.prm

>  <SCORE>
-13.6298

>  <SCORE.INTER>
-11.0622

>  <SCORE.INTER.CONST>
1

>  <SCORE.INTER.POLAR>
0

>  <SCORE.INTER.ROT>
7

>  <SCORE.INTER.SOLV>
15.263

>  <SCORE.INTER.VDW>
-20.7292

>  <SCORE.INTER.norm>
-0.409711

>  <SCORE.INTRA>
-2.56762

>  <SCORE.INTRA.DIHEDRAL>
-3.62555

>  <SCORE.INTRA.DIHEDRAL.0>
10.4103

>  <SCORE.INTRA.POLAR>
0

>  <SCORE.INTRA.POLAR.0>
0

>  <SCORE.INTRA.REPUL>
0

>  <SCORE.INTRA.REPUL.0>
0

>  <SCORE.INTRA.SOLV>
-0.0536743

>  <SCORE.INTRA.SOLV.lig_0>
-49.5008

>  <SCORE.INTRA.VDW>
-0.728007

>  <SCORE.INTRA.VDW.0>
-2.6946

>  <SCORE.INTRA.norm>
-0.095097

>  <SCORE.RESTR>
0

>  <SCORE.RESTR.CAVITY>
0

>  <SCORE.RESTR.norm>
0

>  <SCORE.SYSTEM>
0

>  <SCORE.SYSTEM.CONST>
0

>  <SCORE.SYSTEM.DIHEDRAL>
0

>  <SCORE.SYSTEM.SOLV>
0

>  <SCORE.SYSTEM.norm>
0

>  <SCORE.heavy>
27

>  <SCORE.norm>
-0.504808

>  <RMSD>
6.496

$$$$
ligand
 OpenBabel02271912153D
libRbt.so/2013.1/901 2013/11/27
 27 29  0  0  0  0  0  0  0  0999 V2000
   -4.8610   -8.2799   19.8562 N   0  0  0  0  0  0  0  0  0  0  0  0
   -3.9268   -9.2943   20.3061 C   0  0  2  0  0  0  0  0  0  0  0  0
   -4.0177   -9.3524   21.7999 C   0  0  0  0  0  0  0  0  0  0  0  0
   -4.1832  -10.4582   22.3584 O   0  0  0  0  0  0  0  0  0  0  0  0
   -2.5017   -8.9388   19.8739 C   0  0  0  0  0  0  0  0  0  0  0  0
   -2.3944   -8.8001   18.3391 C   0  0  0  0  0  0  0  0  0  0  0  0
   -2.5943  -10.2204   17.4684 S   0  0  2  0  0  0  0  0  0  0  0  0
   -1.3352  -11.2517   17.7996 C   0  0  0  0  0  0  0  0  0  0  0  0
   -2.6631   -9.8726   15.8183 C   0  0  0  0  0  0  0  0  0  0  0  0
   -3.0498  -11.0789   14.9369 C   0  0  1  0  0  0  0  0  0  0  0  0
   -4.1998  -11.7905   15.4238 O   0  0  0  0  0  0  0  0  0  0  0  0
   -3.4894  -10.6911   13.5343 C   0  0  1  0  0  0  0  0  0  0  0  0
   -2.4624  -10.2935   12.6037 O   0  0  0  0  0  0  0  0  0  0  0  0
   -4.2347  -11.9373   13.1246 C   0  0  1  0  0  0  0  0  0  0  0  0
   -3.3163  -12.9982   12.8799 O   0  0  0  0  0  0  0  0  0  0  0  0
   -5.0289  -12.2563   14.3565 C   0  0  2  0  0  0  0  0  0  0  0  0
   -3.8949   -8.2962   22.4652 O   0  0  0  0  0  0  0  0  0  0  0  0
   -8.5668   -8.8586   16.4094 N   0  0  0  0  0  0  0  0  0  0  0  0
   -7.3040   -9.1280   16.8206 C   0  0  0  0  0  0  0  0  0  0  0  0
   -6.5149  -10.0254   16.2063 N   0  0  0  0  0  0  0  0  0  0  0  0
   -6.9220  -10.7015   15.1262 C   0  0  0  0  0  0  0  0  0  0  0  0
   -8.2617  -10.4396   14.6222 C   0  0  0  0  0  0  0  0  0  0  0  0
   -9.1311   -9.4618   15.3165 C   0  0  0  0  0  0  0  0  0  0  0  0
  -10.4111   -9.1759   14.8889 N   0  0  0  0  0  0  0  0  0  0  0  0
   -8.4028  -11.2096   13.5671 N   0  0  0  0  0  0  0  0  0  0  0  0
   -7.2823  -11.9252   13.3988 C   0  0  0  0  0  0  0  0  0  0  0  0
   -6.3818  -11.6205   14.3325 N   0  0  0  0  0  0  0  0  0  0  0  0
  2  1  1  1  0  0  0
  2  3  1  0  0  0  0
  2  5  1  0  0  0  0
  3  4  1  0  0  0  0
  3 17  1  0  0  0  0
  5  6  1  0  0  0  0
  7  6  1  1  0  0  0
  7  8  1  0  0  0  0
  7  9  1  0  0  0  0
 10  9  1  1  0  0  0
 10 11  1  0  0  0  0
 10 12  1  0  0  0  0
 11 16  1  0  0  0  0
 12 13  1  6  0  0  0
 12 14  1  0  0  0  0
 14 15  1  1  0  0  0
 14 16  1  0  0  0  0
 16 27  1  6  0  0  0
 18 19  2  0  0  0  0
 18 23  1  0  0  0  0
 19 20  1  0  0  0  0
 20 21  2  0  0  0  0
 21 22  1  0  0  0  0
 21 27  1  0  0  0  0
 22 23  2  0  0  0  0
 22 25  1  0  0  0  0
 23 24  1  0  0  0  0
 25 26  2  0  0  0  0
 26 27  1  0  0  0  0
M  END
>  <CHROM.1>
129.22246640,-58.61251287,-67.68559105,-66.13777178,-171.58107719,48.04225336
0.50186632,-4.87422936,-10.31432708,16.52355625,1.15506406,-0.17725833,1.23595862

>  <Name>
ligand

>  <RI>
0

>  <Rbt.Current_Directory>
/home/itssahil/PROJECTS/Mol_Feturizer/Test_systems_manuscript/rnas/4kqy

>  <Rbt.Executable>
rbdock ($Id: //depot/dev/client3/rdock/2013.1/src/exe/rbdock.cxx#4 $)

>  <Rbt.Library>
libRbt.so (2013.1, Build901 2013/11/27)

>  <Rbt.Parameter_File>
/export/apps/rDock/src/rDock_2013.1_src/data/scripts/dock_solv.prm

>  <Rbt.Receptor>
prm/pocket_docking_7.prm

>  <SCORE>
-12.8943

>  <SCORE.INTER>
-9.77702

>  <SCORE.INTER.CONST>
1

>  <SCORE.INTER.POLAR>
0

>  <SCORE.INTER.ROT>
7

>  <SCORE.INTER.SOLV>
11.1002

>  <SCORE.INTER.VDW>
-18.4847

>  <SCORE.INTER.norm>
-0.362112

>  <SCORE.INTRA>
-3.12141

>  <SCORE.INTRA.DIHEDRAL>
-6.67072

>  <SCORE.INTRA.DIHEDRAL.0>
10.4103

>  <SCORE.INTRA.POLAR>
0

>  <SCORE.INTRA.POLAR.0>
0

>  <SCORE.INTRA.REPUL>
0

>  <SCORE.INTRA.REPUL.0>
0

>  <SCORE.INTRA.SOLV>
0.705881

>  <SCORE.INTRA.SOLV.lig_0>
-49.5008

>  <SCORE.INTRA.VDW>
-0.138987

>  <SCORE.INTRA.VDW.0>
-2.6946

>  <SCORE.INTRA.norm>
-0.115608

>  <SCORE.RESTR>
0.00413531

>  <SCORE.RESTR.CAVITY>
0.00413531

>  <SCORE.RESTR.norm>
0.00015316

>  <SCORE.SYSTEM>
0

>  <SCORE.SYSTEM.CONST>
0

>  <SCORE.SYSTEM.DIHEDRAL>
0

>  <SCORE.SYSTEM.SOLV>
0

>  <SCORE.SYSTEM.norm>
0

>  <SCORE.heavy>
27

>  <SCORE.norm>
-0.477566

>  <RMSD>
6.523

$$$$
ligand
 OpenBabel02271912153D
libRbt.so/2013.1/901 2013/11/27
 27 29  0  0  0  0  0  0  0  0999 V2000
   -6.1670  -12.2556   19.7868 N   0  0  0  0  0  0  0  0  0  0  0  0
   -4.9004  -12.9553   19.6857 C   0  0  2  0  0  0  0  0  0  0  0  0
   -5.0991  -14.3221   20.2648 C   0  0  0  0  0  0  0  0  0  0  0  0
   -5.0872  -15.3142   19.5047 O   0  0  0  0  0  0  0  0  0  0  0  0
   -3.8113  -12.2047   20.4568 C   0  0  0  0  0  0  0  0  0  0  0  0
   -4.0406  -10.6775   20.4166 C   0  0  0  0  0  0  0  0  0  0  0  0
   -2.8606   -9.7487   21.1650 S   0  0  2  0  0  0  0  0  0  0  0  0
   -2.7298  -10.2023   22.7574 C   0  0  0  0  0  0  0  0  0  0  0  0
   -3.2586   -8.1132   21.0408 C   0  0  0  0  0  0  0  0  0  0  0  0
   -3.5908   -7.6540   19.6054 C   0  0  1  0  0  0  0  0  0  0  0  0
   -2.6760   -8.1650   18.6215 O   0  0  0  0  0  0  0  0  0  0  0  0
   -4.9254   -8.1723   19.0946 C   0  0  1  0  0  0  0  0  0  0  0  0
   -6.1195   -7.5497   19.6094 O   0  0  0  0  0  0  0  0  0  0  0  0
   -4.7383   -7.9971   17.6078 C   0  0  1  0  0  0  0  0  0  0  0  0
   -4.7914   -6.6149   17.2678 O   0  0  0  0  0  0  0  0  0  0  0  0
   -3.3390   -8.4957   17.3990 C   0  0  2  0  0  0  0  0  0  0  0  0
   -5.2422  -14.4502   21.5043 O   0  0  0  0  0  0  0  0  0  0  0  0
   -0.7132  -13.1153   17.2000 N   0  0  0  0  0  0  0  0  0  0  0  0
   -0.2769  -11.9028   17.6195 C   0  0  0  0  0  0  0  0  0  0  0  0
   -1.0537  -10.8065   17.6083 N   0  0  0  0  0  0  0  0  0  0  0  0
   -2.3263  -10.8468   17.1982 C   0  0  0  0  0  0  0  0  0  0  0  0
   -2.8606  -12.1261   16.7563 C   0  0  0  0  0  0  0  0  0  0  0  0
   -1.9916  -13.3257   16.7551 C   0  0  0  0  0  0  0  0  0  0  0  0
   -2.4401  -14.5633   16.3428 N   0  0  0  0  0  0  0  0  0  0  0  0
   -4.1111  -11.8955   16.4260 N   0  0  0  0  0  0  0  0  0  0  0  0
   -4.3756  -10.5945   16.6083 C   0  0  0  0  0  0  0  0  0  0  0  0
   -3.3052   -9.9557   17.0792 N   0  0  0  0  0  0  0  0  0  0  0  0
  2  1  1  1  0  0  0
  2  3  1  0  0  0  0
  2  5  1  0  0  0  0
  3  4  1  0  0  0  0
  3 17  1  0  0  0  0
  5  6  1  0  0  0  0
  7  6  1  1  0  0  0
  7  8  1  0  0  0  0
  7  9  1  0  0  0  0
 10  9  1  1  0  0  0
 10 11  1  0  0  0  0
 10 12  1  0  0  0  0
 11 16  1  0  0  0  0
 12 13  1  1  0  0  0
 12 14  1  0  0  0  0
 14 15  1  1  0  0  0
 14 16  1  0  0  0  0
 16 27  1  1  0  0  0
 18 19  2  0  0  0  0
 18 23  1  0  0  0  0
 19 20  1  0  0  0  0
 20 21  2  0  0  0  0
 21 22  1  0  0  0  0
 21 27  1  0  0  0  0
 22 23  2  0  0  0  0
 22 25  1  0  0  0  0
 23 24  1  0  0  0  0
 25 26  2  0  0  0  0
 26 27  1  0  0  0  0
M  END
>  <CHROM.1>
110.25157752,-32.84301012,-176.98614013,-58.09999364,-51.15229484,-43.90064206
-41.22754153,-3.59555337,-10.80655926,18.89367834,1.39251687,-1.10028703
3.05243972

>  <Name>
ligand

>  <RI>
0

>  <Rbt.Current_Directory>
/home/itssahil/PROJECTS/Mol_Feturizer/Test_systems_manuscript/rnas/4kqy

>  <Rbt.Executable>
rbdock ($Id: //depot/dev/client3/rdock/2013.1/src/exe/rbdock.cxx#4 $)

>  <Rbt.Library>
libRbt.so (2013.1, Build901 2013/11/27)

>  <Rbt.Parameter_File>
/export/apps/rDock/src/rDock_2013.1_src/data/scripts/dock_solv.prm

>  <Rbt.Receptor>
prm/pocket_docking_2.prm

>  <SCORE>
-7.41101

>  <SCORE.INTER>
-7.97201

>  <SCORE.INTER.CONST>
1

>  <SCORE.INTER.POLAR>
0

>  <SCORE.INTER.ROT>
7

>  <SCORE.INTER.SOLV>
14.1017

>  <SCORE.INTER.VDW>
-18.2819

>  <SCORE.INTER.norm>
-0.29526

>  <SCORE.INTRA>
-1.50582

>  <SCORE.INTRA.DIHEDRAL>
-3.98306

>  <SCORE.INTRA.DIHEDRAL.0>
10.4103

>  <SCORE.INTRA.POLAR>
0

>  <SCORE.INTRA.POLAR.0>
0

>  <SCORE.INTRA.REPUL>
0

>  <SCORE.INTRA.REPUL.0>
0

>  <SCORE.INTRA.SOLV>
1.14525

>  <SCORE.INTRA.SOLV.lig_0>
-49.5008

>  <SCORE.INTRA.VDW>
-0.086911

>  <SCORE.INTRA.VDW.0>
-2.6946

>  <SCORE.INTRA.norm>
-0.055771

>  <SCORE.RESTR>
2.06681

>  <SCORE.RESTR.CAVITY>
2.06681

>  <SCORE.RESTR.norm>
0.0765486

>  <SCORE.SYSTEM>
0

>  <SCORE.SYSTEM.CONST>
0

>  <SCORE.SYSTEM.DIHEDRAL>
0

>  <SCORE.SYSTEM.SOLV>
0

>  <SCORE.SYSTEM.norm>
0

>  <SCORE.heavy>
27

>  <SCORE.norm>
-0.274482

>  <RMSD>
6.533

$$$$
ligand
 OpenBabel02271912153D
libRbt.so/2013.1/901 2013/11/27
 27 29  0  0  0  0  0  0  0  0999 V2000
   -0.2619  -12.1804   14.3417 N   0  0  0  0  0  0  0  0  0  0  0  0
   -0.1651  -11.1941   15.4010 C   0  0  2  0  0  0  0  0  0  0  0  0
    0.0144  -11.9390   16.6879 C   0  0  0  0  0  0  0  0  0  0  0  0
   -0.6321  -12.9915   16.8788 O   0  0  0  0  0  0  0  0  0  0  0  0
   -1.4345  -10.3397   15.4542 C   0  0  0  0  0  0  0  0  0  0  0  0
   -2.6925  -11.2092   15.6728 C   0  0  0  0  0  0  0  0  0  0  0  0
   -4.1498  -10.3781   15.7052 S   0  0  2  0  0  0  0  0  0  0  0  0
   -4.1381   -9.2940   16.9634 C   0  0  0  0  0  0  0  0  0  0  0  0
   -5.4255  -11.4708   15.8703 C   0  0  0  0  0  0  0  0  0  0  0  0
   -6.7927  -10.9141   15.4199 C   0  0  1  0  0  0  0  0  0  0  0  0
   -7.7480  -11.9420   15.1092 O   0  0  0  0  0  0  0  0  0  0  0  0
   -7.5155  -10.1282   16.5020 C   0  0  1  0  0  0  0  0  0  0  0  0
   -7.0307   -8.8023   16.7946 O   0  0  0  0  0  0  0  0  0  0  0  0
   -8.9264  -10.1580   15.9683 C   0  0  1  0  0  0  0  0  0  0  0  0
   -9.0388   -9.3020   14.8353 O   0  0  0  0  0  0  0  0  0  0  0  0
   -9.0696  -11.5817   15.5180 C   0  0  2  0  0  0  0  0  0  0  0  0
    0.8325  -11.5114   17.5372 O   0  0  0  0  0  0  0  0  0  0  0  0
   -9.0086  -13.2921   20.5525 N   0  0  0  0  0  0  0  0  0  0  0  0
   -8.2216  -12.3634   19.9568 C   0  0  0  0  0  0  0  0  0  0  0  0
   -8.3431  -12.0305   18.6608 N   0  0  0  0  0  0  0  0  0  0  0  0
   -9.2715  -12.5846   17.8732 C   0  0  0  0  0  0  0  0  0  0  0  0
  -10.1627  -13.5735   18.4607 C   0  0  0  0  0  0  0  0  0  0  0  0
  -10.0099  -13.9475   19.8858 C   0  0  0  0  0  0  0  0  0  0  0  0
  -10.8209  -14.8815   20.4964 N   0  0  0  0  0  0  0  0  0  0  0  0
  -10.9726  -13.9427   17.4944 N   0  0  0  0  0  0  0  0  0  0  0  0
  -10.6415  -13.2845   16.3750 C   0  0  0  0  0  0  0  0  0  0  0  0
   -9.6193  -12.4590   16.5966 N   0  0  0  0  0  0  0  0  0  0  0  0
  2  1  1  6  0  0  0
  2  3  1  0  0  0  0
  2  5  1  0  0  0  0
  3  4  1  0  0  0  0
  3 17  1  0  0  0  0
  5  6  1  0  0  0  0
  7  6  1  1  0  0  0
  7  8  1  0  0  0  0
  7  9  1  0  0  0  0
 10  9  1  1  0  0  0
 10 11  1  0  0  0  0
 10 12  1  0  0  0  0
 11 16  1  0  0  0  0
 12 13  1  6  0  0  0
 12 14  1  0  0  0  0
 14 15  1  6  0  0  0
 14 16  1  0  0  0  0
 16 27  1  1  0  0  0
 18 19  2  0  0  0  0
 18 23  1  0  0  0  0
 19 20  1  0  0  0  0
 20 21  2  0  0  0  0
 21 22  1  0  0  0  0
 21 27  1  0  0  0  0
 22 23  2  0  0  0  0
 22 25  1  0  0  0  0
 23 24  1  0  0  0  0
 25 26  2  0  0  0  0
 26 27  1  0  0  0  0
M  END
>  <CHROM.1>
-39.75900693,58.03398601,-178.38322081,-61.27323284,-159.43496426,159.01809831
68.85008106,-6.13916104,-11.64983732,16.82751107,-0.28227980,-0.02951299
2.30646493

>  <Name>
ligand

>  <RI>
0

>  <Rbt.Current_Directory>
/home/itssahil/PROJECTS/Mol_Feturizer/Test_systems_manuscript/rnas/4kqy

>  <Rbt.Executable>
rbdock ($Id: //depot/dev/client3/rdock/2013.1/src/exe/rbdock.cxx#4 $)

>  <Rbt.Library>
libRbt.so (2013.1, Build901 2013/11/27)

>  <Rbt.Parameter_File>
/export/apps/rDock/src/rDock_2013.1_src/data/scripts/dock_solv.prm

>  <Rbt.Receptor>
prm/pocket_docking_7.prm

>  <SCORE>
-8.62716

>  <SCORE.INTER>
-7.13499

>  <SCORE.INTER.CONST>
1

>  <SCORE.INTER.POLAR>
0

>  <SCORE.INTER.ROT>
7

>  <SCORE.INTER.SOLV>
8.30823

>  <SCORE.INTER.VDW>
-15.7927

>  <SCORE.INTER.norm>
-0.264259

>  <SCORE.INTRA>
-1.49217

>  <SCORE.INTRA.DIHEDRAL>
-5.002

>  <SCORE.INTRA.DIHEDRAL.0>
10.4103

>  <SCORE.INTRA.POLAR>
0

>  <SCORE.INTRA.POLAR.0>
0

>  <SCORE.INTRA.REPUL>
0

>  <SCORE.INTRA.REPUL.0>
0

>  <SCORE.INTRA.SOLV>
0.443221

>  <SCORE.INTRA.SOLV.lig_0>
-49.5008

>  <SCORE.INTRA.VDW>
0.787219

>  <SCORE.INTRA.VDW.0>
-2.6946

>  <SCORE.INTRA.norm>
-0.0552655

>  <SCORE.RESTR>
0

>  <SCORE.RESTR.CAVITY>
0

>  <SCORE.RESTR.norm>
0

>  <SCORE.SYSTEM>
0

>  <SCORE.SYSTEM.CONST>
0

>  <SCORE.SYSTEM.DIHEDRAL>
0

>  <SCORE.SYSTEM.SOLV>
0

>  <SCORE.SYSTEM.norm>
0

>  <SCORE.heavy>
27

>  <SCORE.norm>
-0.319524

>  <RMSD>
6.553

$$$$
ligand
 OpenBabel02271912153D
libRbt.so/2013.1/901 2013/11/27
 27 29  0  0  0  0  0  0  0  0999 V2000
   -8.5064  -11.5484   15.4582 N   0  0  0  0  0  0  0  0  0  0  0  0
   -9.0172  -10.2916   15.9715 C   0  0  2  0  0  0  0  0  0  0  0  0
   -9.2248   -9.3831   14.7990 C   0  0  0  0  0  0  0  0  0  0  0  0
   -9.2598   -9.8704   13.6486 O   0  0  0  0  0  0  0  0  0  0  0  0
   -8.0213   -9.6708   16.9549 C   0  0  0  0  0  0  0  0  0  0  0  0
   -7.8458  -10.5504   18.2127 C   0  0  0  0  0  0  0  0  0  0  0  0
   -6.9162   -9.8820   19.4392 S   0  0  2  0  0  0  0  0  0  0  0  0
   -5.4131   -9.4993   18.8453 C   0  0  0  0  0  0  0  0  0  0  0  0
   -6.7919  -10.9741   20.7200 C   0  0  0  0  0  0  0  0  0  0  0  0
   -5.8596  -12.1711   20.4376 C   0  0  1  0  0  0  0  0  0  0  0  0
   -5.3426  -12.7802   21.6324 O   0  0  0  0  0  0  0  0  0  0  0  0
   -6.5588  -13.3409   19.7642 C   0  0  1  0  0  0  0  0  0  0  0  0
   -6.8733  -13.2083   18.3634 O   0  0  0  0  0  0  0  0  0  0  0  0
   -5.5877  -14.4547   20.0688 C   0  0  1  0  0  0  0  0  0  0  0  0
   -4.4088  -14.3040   19.2837 O   0  0  0  0  0  0  0  0  0  0  0  0
   -5.2491  -14.2013   21.5079 C   0  0  2  0  0  0  0  0  0  0  0  0
   -9.3912   -8.1553   14.9940 O   0  0  0  0  0  0  0  0  0  0  0  0
  -10.0970  -15.9782   22.7793 N   0  0  0  0  0  0  0  0  0  0  0  0
   -9.7070  -15.2618   21.6970 C   0  0  0  0  0  0  0  0  0  0  0  0
   -8.4366  -14.8691   21.5039 N   0  0  0  0  0  0  0  0  0  0  0  0
   -7.4621  -15.1813   22.3655 C   0  0  0  0  0  0  0  0  0  0  0  0
   -7.8139  -15.9691   23.5372 C   0  0  0  0  0  0  0  0  0  0  0  0
   -9.2202  -16.3823   23.7512 C   0  0  0  0  0  0  0  0  0  0  0  0
   -9.6147  -17.1248   24.8448 N   0  0  0  0  0  0  0  0  0  0  0  0
   -6.6926  -16.1447   24.1989 N   0  0  0  0  0  0  0  0  0  0  0  0
   -5.7016  -15.5208   23.5472 C   0  0  0  0  0  0  0  0  0  0  0  0
   -6.1568  -14.9415   22.4370 N   0  0  0  0  0  0  0  0  0  0  0  0
  2  1  1  6  0  0  0
  2  3  1  0  0  0  0
  2  5  1  0  0  0  0
  3  4  1  0  0  0  0
  3 17  1  0  0  0  0
  5  6  1  0  0  0  0
  7  6  1  6  0  0  0
  7  8  1  0  0  0  0
  7  9  1  0  0  0  0
 10  9  1  1  0  0  0
 10 11  1  0  0  0  0
 10 12  1  0  0  0  0
 11 16  1  0  0  0  0
 12 13  1  6  0  0  0
 12 14  1  0  0  0  0
 14 15  1  6  0  0  0
 14 16  1  0  0  0  0
 16 27  1  1  0  0  0
 18 19  2  0  0  0  0
 18 23  1  0  0  0  0
 19 20  1  0  0  0  0
 20 21  2  0  0  0  0
 21 22  1  0  0  0  0
 21 27  1  0  0  0  0
 22 23  2  0  0  0  0
 22 25  1  0  0  0  0
 23 24  1  0  0  0  0
 25 26  2  0  0  0  0
 26 27  1  0  0  0  0
M  END
>  <CHROM.1>
16.56960753,-64.66096605,-173.10592457,-57.07471300,73.39626035,156.71971951
78.38113000,-7.40056263,-12.78752655,19.89265353,1.65073363,-0.33220430,-0.84308624

>  <Name>
ligand

>  <RI>
0

>  <Rbt.Current_Directory>
/home/itssahil/PROJECTS/Mol_Feturizer/Test_systems_manuscript/rnas/4kqy

>  <Rbt.Executable>
rbdock ($Id: //depot/dev/client3/rdock/2013.1/src/exe/rbdock.cxx#4 $)

>  <Rbt.Library>
libRbt.so (2013.1, Build901 2013/11/27)

>  <Rbt.Parameter_File>
/export/apps/rDock/src/rDock_2013.1_src/data/scripts/dock_solv.prm

>  <Rbt.Receptor>
prm/pocket_docking_8.prm

>  <SCORE>
-19.6276

>  <SCORE.INTER>
-18.7075

>  <SCORE.INTER.CONST>
1

>  <SCORE.INTER.POLAR>
0

>  <SCORE.INTER.ROT>
7

>  <SCORE.INTER.SOLV>
9.44211

>  <SCORE.INTER.VDW>
-23.8857

>  <SCORE.INTER.norm>
-0.69287

>  <SCORE.INTRA>
-0.920059

>  <SCORE.INTRA.DIHEDRAL>
-5.24819

>  <SCORE.INTRA.DIHEDRAL.0>
10.4103

>  <SCORE.INTRA.POLAR>
0

>  <SCORE.INTRA.POLAR.0>
0

>  <SCORE.INTRA.REPUL>
0

>  <SCORE.INTRA.REPUL.0>
0

>  <SCORE.INTRA.SOLV>
0.987934

>  <SCORE.INTRA.SOLV.lig_0>
-49.5008

>  <SCORE.INTRA.VDW>
1.21007

>  <SCORE.INTRA.VDW.0>
-2.6946

>  <SCORE.INTRA.norm>
-0.0340763

>  <SCORE.RESTR>
0

>  <SCORE.RESTR.CAVITY>
0

>  <SCORE.RESTR.norm>
0

>  <SCORE.SYSTEM>
0

>  <SCORE.SYSTEM.CONST>
0

>  <SCORE.SYSTEM.DIHEDRAL>
0

>  <SCORE.SYSTEM.SOLV>
0

>  <SCORE.SYSTEM.norm>
0

>  <SCORE.heavy>
27

>  <SCORE.norm>
-0.726947

>  <RMSD>
6.554

$$$$
ligand
 OpenBabel02271912153D
libRbt.so/2013.1/901 2013/11/27
 27 29  0  0  0  0  0  0  0  0999 V2000
   -3.2566   -7.6006   20.1488 N   0  0  0  0  0  0  0  0  0  0  0  0
   -4.3034   -7.9465   21.0916 C   0  0  2  0  0  0  0  0  0  0  0  0
   -4.9496   -6.6679   21.5283 C   0  0  0  0  0  0  0  0  0  0  0  0
   -4.2324   -5.6725   21.7671 O   0  0  0  0  0  0  0  0  0  0  0  0
   -3.7151   -8.6835   22.2977 C   0  0  0  0  0  0  0  0  0  0  0  0
   -2.9994   -9.9845   21.8713 C   0  0  0  0  0  0  0  0  0  0  0  0
   -3.9339  -11.0722   21.0000 S   0  0  2  0  0  0  0  0  0  0  0  0
   -3.8706  -12.5623   21.7310 C   0  0  0  0  0  0  0  0  0  0  0  0
   -3.3714  -11.1620   19.4113 C   0  0  0  0  0  0  0  0  0  0  0  0
   -3.5539   -9.8588   18.6049 C   0  0  1  0  0  0  0  0  0  0  0  0
   -2.3091   -9.2563   18.2134 O   0  0  0  0  0  0  0  0  0  0  0  0
   -4.2403  -10.0644   17.2642 C   0  0  1  0  0  0  0  0  0  0  0  0
   -5.6628  -10.2993   17.2766 O   0  0  0  0  0  0  0  0  0  0  0  0
   -3.8372   -8.7975   16.5511 C   0  0  1  0  0  0  0  0  0  0  0  0
   -4.5427   -7.6853   17.0937 O   0  0  0  0  0  0  0  0  0  0  0  0
   -2.3859   -8.6745   16.9098 C   0  0  2  0  0  0  0  0  0  0  0  0
   -6.1994   -6.6090   21.6162 O   0  0  0  0  0  0  0  0  0  0  0  0
    1.1534  -12.4424   15.6641 N   0  0  0  0  0  0  0  0  0  0  0  0
    0.5521  -12.1957   16.8533 C   0  0  0  0  0  0  0  0  0  0  0  0
   -0.3266  -11.1947   17.0301 N   0  0  0  0  0  0  0  0  0  0  0  0
   -0.6833  -10.3828   16.0287 C   0  0  0  0  0  0  0  0  0  0  0  0
   -0.0885  -10.6110   14.7205 C   0  0  0  0  0  0  0  0  0  0  0  0
    0.8928  -11.7057   14.5389 C   0  0  0  0  0  0  0  0  0  0  0  0
    1.4933  -11.9669   13.3249 N   0  0  0  0  0  0  0  0  0  0  0  0
   -0.6092   -9.7016   13.9282 N   0  0  0  0  0  0  0  0  0  0  0  0
   -1.4468   -8.9343   14.6393 C   0  0  0  0  0  0  0  0  0  0  0  0
   -1.5012   -9.3423   15.9067 N   0  0  0  0  0  0  0  0  0  0  0  0
  2  1  1  6  0  0  0
  2  3  1  0  0  0  0
  2  5  1  0  0  0  0
  3  4  1  0  0  0  0
  3 17  1  0  0  0  0
  5  6  1  0  0  0  0
  7  6  1  1  0  0  0
  7  8  1  0  0  0  0
  7  9  1  0  0  0  0
 10  9  1  6  0  0  0
 10 11  1  0  0  0  0
 10 12  1  0  0  0  0
 11 16  1  0  0  0  0
 12 13  1  1  0  0  0
 12 14  1  0  0  0  0
 14 15  1  1  0  0  0
 14 16  1  0  0  0  0
 16 27  1  6  0  0  0
 18 19  2  0  0  0  0
 18 23  1  0  0  0  0
 19 20  1  0  0  0  0
 20 21  2  0  0  0  0
 21 22  1  0  0  0  0
 21 27  1  0  0  0  0
 22 23  2  0  0  0  0
 22 25  1  0  0  0  0
 23 24  1  0  0  0  0
 25 26  2  0  0  0  0
 26 27  1  0  0  0  0
M  END
>  <CHROM.1>
-41.42699172,-59.63281682,-56.05672062,-126.69894183,-66.13118464,115.56020190
0.99777594,-2.67143303,-9.69181732,18.26429551,2.73956680,-0.92220617,2.24325560

>  <Name>
ligand

>  <RI>
0

>  <Rbt.Current_Directory>
/home/itssahil/PROJECTS/Mol_Feturizer/Test_systems_manuscript/rnas/4kqy

>  <Rbt.Executable>
rbdock ($Id: //depot/dev/client3/rdock/2013.1/src/exe/rbdock.cxx#4 $)

>  <Rbt.Library>
libRbt.so (2013.1, Build901 2013/11/27)

>  <Rbt.Parameter_File>
/export/apps/rDock/src/rDock_2013.1_src/data/scripts/dock_solv.prm

>  <Rbt.Receptor>
prm/pocket_docking_8.prm

>  <SCORE>
-14.0174

>  <SCORE.INTER>
-17.4447

>  <SCORE.INTER.CONST>
1

>  <SCORE.INTER.POLAR>
0

>  <SCORE.INTER.ROT>
7

>  <SCORE.INTER.SOLV>
9.42708

>  <SCORE.INTER.VDW>
-23.0389

>  <SCORE.INTER.norm>
-0.646102

>  <SCORE.INTRA>
3.42737

>  <SCORE.INTRA.DIHEDRAL>
2.27073

>  <SCORE.INTRA.DIHEDRAL.0>
10.4103

>  <SCORE.INTRA.POLAR>
0

>  <SCORE.INTRA.POLAR.0>
0

>  <SCORE.INTRA.REPUL>
0

>  <SCORE.INTRA.REPUL.0>
0

>  <SCORE.INTRA.SOLV>
5.81877

>  <SCORE.INTRA.SOLV.lig_0>
-49.5008

>  <SCORE.INTRA.VDW>
-0.61738

>  <SCORE.INTRA.VDW.0>
-2.6946

>  <SCORE.INTRA.norm>
0.126939

>  <SCORE.RESTR>
0

>  <SCORE.RESTR.CAVITY>
0

>  <SCORE.RESTR.norm>
0

>  <SCORE.SYSTEM>
0

>  <SCORE.SYSTEM.CONST>
0

>  <SCORE.SYSTEM.DIHEDRAL>
0

>  <SCORE.SYSTEM.SOLV>
0

>  <SCORE.SYSTEM.norm>
0

>  <SCORE.heavy>
27

>  <SCORE.norm>
-0.519162

>  <RMSD>
6.563

$$$$
ligand
 OpenBabel02271912153D
libRbt.so/2013.1/901 2013/11/27
 27 29  0  0  0  0  0  0  0  0999 V2000
   -5.8352  -11.7708   21.0723 N   0  0  0  0  0  0  0  0  0  0  0  0
   -4.6195  -11.0318   20.7891 C   0  0  2  0  0  0  0  0  0  0  0  0
   -3.6501  -11.9901   20.1686 C   0  0  0  0  0  0  0  0  0  0  0  0
   -2.6158  -11.5455   19.6256 O   0  0  0  0  0  0  0  0  0  0  0  0
   -4.0366  -10.4462   22.0781 C   0  0  0  0  0  0  0  0  0  0  0  0
   -2.8353   -9.5200   21.7856 C   0  0  0  0  0  0  0  0  0  0  0  0
   -3.2013   -8.0907   20.9867 S   0  0  2  0  0  0  0  0  0  0  0  0
   -4.1854   -7.1590   21.9470 C   0  0  0  0  0  0  0  0  0  0  0  0
   -3.9551   -8.4363   19.5167 C   0  0  0  0  0  0  0  0  0  0  0  0
   -3.1069   -8.0834   18.2766 C   0  0  1  0  0  0  0  0  0  0  0  0
   -1.9277   -8.8950   18.1476 O   0  0  0  0  0  0  0  0  0  0  0  0
   -3.8173   -8.3473   16.9588 C   0  0  1  0  0  0  0  0  0  0  0  0
   -4.8478   -7.4195   16.5636 O   0  0  0  0  0  0  0  0  0  0  0  0
   -2.6408   -8.3906   16.0154 C   0  0  1  0  0  0  0  0  0  0  0  0
   -2.1156   -7.0799   15.8280 O   0  0  0  0  0  0  0  0  0  0  0  0
   -1.6441   -9.2086   16.7820 C   0  0  2  0  0  0  0  0  0  0  0  0
   -3.8768  -13.2220   20.2322 O   0  0  0  0  0  0  0  0  0  0  0  0
   -4.5715  -13.6297   16.3825 N   0  0  0  0  0  0  0  0  0  0  0  0
   -4.9550  -12.3819   16.7466 C   0  0  0  0  0  0  0  0  0  0  0  0
   -4.0992  -11.3482   16.8124 N   0  0  0  0  0  0  0  0  0  0  0  0
   -2.8055  -11.4812   16.4994 C   0  0  0  0  0  0  0  0  0  0  0  0
   -2.3367  -12.7930   16.0790 C   0  0  0  0  0  0  0  0  0  0  0  0
   -3.2834  -13.9310   16.0266 C   0  0  0  0  0  0  0  0  0  0  0  0
   -2.8966  -15.1978   15.6412 N   0  0  0  0  0  0  0  0  0  0  0  0
   -1.0565  -12.6487   15.8217 N   0  0  0  0  0  0  0  0  0  0  0  0
   -0.7048  -11.3788   16.0659 C   0  0  0  0  0  0  0  0  0  0  0  0
   -1.7559  -10.6665   16.4702 N   0  0  0  0  0  0  0  0  0  0  0  0
  2  1  1  1  0  0  0
  2  3  1  0  0  0  0
  2  5  1  0  0  0  0
  3  4  1  0  0  0  0
  3 17  1  0  0  0  0
  5  6  1  0  0  0  0
  7  6  1  1  0  0  0
  7  8  1  0  0  0  0
  7  9  1  0  0  0  0
 10  9  1  1  0  0  0
 10 11  1  0  0  0  0
 10 12  1  0  0  0  0
 11 16  1  0  0  0  0
 12 13  1  6  0  0  0
 12 14  1  0  0  0  0
 14 15  1  1  0  0  0
 14 16  1  0  0  0  0
 16 27  1  1  0  0  0
 18 19  2  0  0  0  0
 18 23  1  0  0  0  0
 19 20  1  0  0  0  0
 20 21  2  0  0  0  0
 21 22  1  0  0  0  0
 21 27  1  0  0  0  0
 22 23  2  0  0  0  0
 22 25  1  0  0  0  0
 23 24  1  0  0  0  0
 25 26  2  0  0  0  0
 26 27  1  0  0  0  0
M  END
>  <CHROM.1>
167.75497579,-173.41881495,67.89302164,63.71078328,-111.84907853,66.61670133
64.16093927,-3.24253014,-10.41333967,18.30589887,2.04821534,1.24648739,0.36202509

>  <Name>
ligand

>  <RI>
0

>  <Rbt.Current_Directory>
/home/itssahil/PROJECTS/Mol_Feturizer/Test_systems_manuscript/rnas/4kqy

>  <Rbt.Executable>
rbdock ($Id: //depot/dev/client3/rdock/2013.1/src/exe/rbdock.cxx#4 $)

>  <Rbt.Library>
libRbt.so (2013.1, Build901 2013/11/27)

>  <Rbt.Parameter_File>
/export/apps/rDock/src/rDock_2013.1_src/data/scripts/dock_solv.prm

>  <Rbt.Receptor>
prm/pocket_docking_2.prm

>  <SCORE>
-8.95773

>  <SCORE.INTER>
-6.90085

>  <SCORE.INTER.CONST>
1

>  <SCORE.INTER.POLAR>
0

>  <SCORE.INTER.ROT>
7

>  <SCORE.INTER.SOLV>
23.2317

>  <SCORE.INTER.VDW>
-20.6111

>  <SCORE.INTER.norm>
-0.255587

>  <SCORE.INTRA>
-2.64243

>  <SCORE.INTRA.DIHEDRAL>
-2.54275

>  <SCORE.INTRA.DIHEDRAL.0>
10.4103

>  <SCORE.INTRA.POLAR>
0

>  <SCORE.INTRA.POLAR.0>
0

>  <SCORE.INTRA.REPUL>
0

>  <SCORE.INTRA.REPUL.0>
0

>  <SCORE.INTRA.SOLV>
0.043341

>  <SCORE.INTRA.SOLV.lig_0>
-49.5008

>  <SCORE.INTRA.VDW>
-1.39273

>  <SCORE.INTRA.VDW.0>
-2.6946

>  <SCORE.INTRA.norm>
-0.0978679

>  <SCORE.RESTR>
0.585553

>  <SCORE.RESTR.CAVITY>
0.585553

>  <SCORE.RESTR.norm>
0.0216871

>  <SCORE.SYSTEM>
0

>  <SCORE.SYSTEM.CONST>
0

>  <SCORE.SYSTEM.DIHEDRAL>
0

>  <SCORE.SYSTEM.SOLV>
0

>  <SCORE.SYSTEM.norm>
0

>  <SCORE.heavy>
27

>  <SCORE.norm>
-0.331768

>  <RMSD>
6.589

$$$$
ligand
 OpenBabel02271912153D
libRbt.so/2013.1/901 2013/11/27
 27 29  0  0  0  0  0  0  0  0999 V2000
   -3.1183  -12.3861   21.6935 N   0  0  0  0  0  0  0  0  0  0  0  0
   -3.4846  -11.0632   21.2243 C   0  0  2  0  0  0  0  0  0  0  0  0
   -3.0983  -10.9804   19.7796 C   0  0  0  0  0  0  0  0  0  0  0  0
   -3.9303  -11.3075   18.9061 O   0  0  0  0  0  0  0  0  0  0  0  0
   -2.7538   -9.9874   22.0323 C   0  0  0  0  0  0  0  0  0  0  0  0
   -3.6226   -8.7217   22.2040 C   0  0  0  0  0  0  0  0  0  0  0  0
   -3.8685   -7.8184   20.8116 S   0  0  2  0  0  0  0  0  0  0  0  0
   -4.4536   -6.3194   21.2232 C   0  0  0  0  0  0  0  0  0  0  0  0
   -4.9488   -8.6223   19.7940 C   0  0  0  0  0  0  0  0  0  0  0  0
   -5.0458   -8.0187   18.3770 C   0  0  1  0  0  0  0  0  0  0  0  0
   -3.7685   -7.6525   17.8289 O   0  0  0  0  0  0  0  0  0  0  0  0
   -5.5682   -8.9943   17.3349 C   0  0  1  0  0  0  0  0  0  0  0  0
   -6.9804   -9.2849   17.3476 O   0  0  0  0  0  0  0  0  0  0  0  0
   -5.0945   -8.3249   16.0686 C   0  0  1  0  0  0  0  0  0  0  0  0
   -5.8677   -7.1558   15.8146 O   0  0  0  0  0  0  0  0  0  0  0  0
   -3.6963   -7.9149   16.4255 C   0  0  2  0  0  0  0  0  0  0  0  0
   -1.9596  -10.5549   19.4707 O   0  0  0  0  0  0  0  0  0  0  0  0
   -1.9285  -11.6551   13.0845 N   0  0  0  0  0  0  0  0  0  0  0  0
   -3.0181  -10.8569   12.9732 C   0  0  0  0  0  0  0  0  0  0  0  0
   -3.3539   -9.9503   13.9063 N   0  0  0  0  0  0  0  0  0  0  0  0
   -2.6154   -9.7611   15.0054 C   0  0  0  0  0  0  0  0  0  0  0  0
   -1.4194  -10.5730   15.1718 C   0  0  0  0  0  0  0  0  0  0  0  0
   -1.0666  -11.5825   14.1469 C   0  0  0  0  0  0  0  0  0  0  0  0
    0.0509  -12.3844   14.2524 N   0  0  0  0  0  0  0  0  0  0  0  0
   -0.8801  -10.1855   16.3054 N   0  0  0  0  0  0  0  0  0  0  0  0
   -1.6481   -9.2306   16.8477 C   0  0  0  0  0  0  0  0  0  0  0  0
   -2.6946   -8.9650   16.0667 N   0  0  0  0  0  0  0  0  0  0  0  0
  2  1  1  1  0  0  0
  2  3  1  0  0  0  0
  2  5  1  0  0  0  0
  3  4  1  0  0  0  0
  3 17  1  0  0  0  0
  5  6  1  0  0  0  0
  7  6  1  1  0  0  0
  7  8  1  0  0  0  0
  7  9  1  0  0  0  0
 10  9  1  1  0  0  0
 10 11  1  0  0  0  0
 10 12  1  0  0  0  0
 11 16  1  0  0  0  0
 12 13  1  6  0  0  0
 12 14  1  0  0  0  0
 14 15  1  1  0  0  0
 14 16  1  0  0  0  0
 16 27  1  1  0  0  0
 18 19  2  0  0  0  0
 18 23  1  0  0  0  0
 19 20  1  0  0  0  0
 20 21  2  0  0  0  0
 21 22  1  0  0  0  0
 21 27  1  0  0  0  0
 22 23  2  0  0  0  0
 22 25  1  0  0  0  0
 23 24  1  0  0  0  0
 25 26  2  0  0  0  0
 26 27  1  0  0  0  0
M  END
>  <CHROM.1>
90.71084145,-146.29131460,-69.98077733,-164.97916400,-169.13395525,42.30864276
156.39148276,-3.40567513,-9.51798810,17.78211215,-1.96246234,0.80576309,-1.54419561

>  <Name>
ligand

>  <RI>
0

>  <Rbt.Current_Directory>
/home/itssahil/PROJECTS/Mol_Feturizer/Test_systems_manuscript/rnas/4kqy

>  <Rbt.Executable>
rbdock ($Id: //depot/dev/client3/rdock/2013.1/src/exe/rbdock.cxx#4 $)

>  <Rbt.Library>
libRbt.so (2013.1, Build901 2013/11/27)

>  <Rbt.Parameter_File>
/export/apps/rDock/src/rDock_2013.1_src/data/scripts/dock_solv.prm

>  <Rbt.Receptor>
prm/pocket_docking_5.prm

>  <SCORE>
-15.4384

>  <SCORE.INTER>
-13.3457

>  <SCORE.INTER.CONST>
1

>  <SCORE.INTER.POLAR>
0

>  <SCORE.INTER.ROT>
7

>  <SCORE.INTER.SOLV>
14.8223

>  <SCORE.INTER.VDW>
-22.1046

>  <SCORE.INTER.norm>
-0.494286

>  <SCORE.INTRA>
-2.09266

>  <SCORE.INTRA.DIHEDRAL>
-1.80782

>  <SCORE.INTRA.DIHEDRAL.0>
10.4103

>  <SCORE.INTRA.POLAR>
0

>  <SCORE.INTRA.POLAR.0>
0

>  <SCORE.INTRA.REPUL>
0

>  <SCORE.INTRA.REPUL.0>
0

>  <SCORE.INTRA.SOLV>
-0.331149

>  <SCORE.INTRA.SOLV.lig_0>
-49.5008

>  <SCORE.INTRA.VDW>
-1.02318

>  <SCORE.INTRA.VDW.0>
-2.6946

>  <SCORE.INTRA.norm>
-0.077506

>  <SCORE.RESTR>
0

>  <SCORE.RESTR.CAVITY>
0

>  <SCORE.RESTR.norm>
0

>  <SCORE.SYSTEM>
0

>  <SCORE.SYSTEM.CONST>
0

>  <SCORE.SYSTEM.DIHEDRAL>
0

>  <SCORE.SYSTEM.SOLV>
0

>  <SCORE.SYSTEM.norm>
0

>  <SCORE.heavy>
27

>  <SCORE.norm>
-0.571792

>  <RMSD>
6.599

$$$$
ligand
 OpenBabel02271912153D
libRbt.so/2013.1/901 2013/11/27
 27 29  0  0  0  0  0  0  0  0999 V2000
   -4.9227  -13.6838   21.7675 N   0  0  0  0  0  0  0  0  0  0  0  0
   -4.5498  -12.3723   21.2724 C   0  0  2  0  0  0  0  0  0  0  0  0
   -4.2437  -12.5174   19.8135 C   0  0  0  0  0  0  0  0  0  0  0  0
   -5.1192  -12.2167   18.9737 O   0  0  0  0  0  0  0  0  0  0  0  0
   -3.3236  -11.8457   22.0229 C   0  0  0  0  0  0  0  0  0  0  0  0
   -3.5352  -10.3925   22.5024 C   0  0  0  0  0  0  0  0  0  0  0  0
   -3.2864   -9.2047   21.3437 S   0  0  2  0  0  0  0  0  0  0  0  0
   -3.6279   -7.7166   21.9978 C   0  0  0  0  0  0  0  0  0  0  0  0
   -4.2633   -9.5050   20.0006 C   0  0  0  0  0  0  0  0  0  0  0  0
   -4.2184   -8.3949   18.9294 C   0  0  1  0  0  0  0  0  0  0  0  0
   -2.8843   -8.0758   18.5003 O   0  0  0  0  0  0  0  0  0  0  0  0
   -4.8859   -8.7854   17.6207 C   0  0  1  0  0  0  0  0  0  0  0  0
   -6.3272   -8.8060   17.5917 O   0  0  0  0  0  0  0  0  0  0  0  0
   -4.2712   -7.7738   16.6853 C   0  0  1  0  0  0  0  0  0  0  0  0
   -4.8144   -6.4814   16.9372 O   0  0  0  0  0  0  0  0  0  0  0  0
   -2.8301   -7.7851   17.1017 C   0  0  2  0  0  0  0  0  0  0  0  0
   -3.1053  -12.9075   19.4597 O   0  0  0  0  0  0  0  0  0  0  0  0
   -0.2947  -12.4482   16.7802 N   0  0  0  0  0  0  0  0  0  0  0  0
   -0.9660  -11.9119   17.8283 C   0  0  0  0  0  0  0  0  0  0  0  0
   -1.5595  -10.7078   17.7725 N   0  0  0  0  0  0  0  0  0  0  0  0
   -1.5436   -9.9632   16.6613 C   0  0  0  0  0  0  0  0  0  0  0  0
   -0.8571  -10.4949   15.4936 C   0  0  0  0  0  0  0  0  0  0  0  0
   -0.1902  -11.8154   15.5697 C   0  0  0  0  0  0  0  0  0  0  0  0
    0.4799  -12.3683   14.4983 N   0  0  0  0  0  0  0  0  0  0  0  0
   -1.0002   -9.5893   14.5526 N   0  0  0  0  0  0  0  0  0  0  0  0
   -1.6910   -8.5535   15.0482 C   0  0  0  0  0  0  0  0  0  0  0  0
   -2.0273   -8.7737   16.3186 N   0  0  0  0  0  0  0  0  0  0  0  0
  2  1  1  1  0  0  0
  2  3  1  0  0  0  0
  2  5  1  0  0  0  0
  3  4  1  0  0  0  0
  3 17  1  0  0  0  0
  5  6  1  0  0  0  0
  7  6  1  1  0  0  0
  7  8  1  0  0  0  0
  7  9  1  0  0  0  0
 10  9  1  1  0  0  0
 10 11  1  0  0  0  0
 10 12  1  0  0  0  0
 11 16  1  0  0  0  0
 12 13  1  1  0  0  0
 12 14  1  0  0  0  0
 14 15  1  1  0  0  0
 14 16  1  0  0  0  0
 16 27  1  6  0  0  0
 18 19  2  0  0  0  0
 18 23  1  0  0  0  0
 19 20  1  0  0  0  0
 20 21  2  0  0  0  0
 21 22  1  0  0  0  0
 21 27  1  0  0  0  0
 22 23  2  0  0  0  0
 22 25  1  0  0  0  0
 23 24  1  0  0  0  0
 25 26  2  0  0  0  0
 26 27  1  0  0  0  0
M  END
>  <CHROM.1>
98.39652485,-131.82459973,-80.81438246,177.16556899,174.23155212,53.46542771
11.92085397,-3.03997977,-10.11774036,18.46061636,-2.44664301,0.92413271,-0.70140314

>  <Name>
ligand

>  <RI>
0

>  <Rbt.Current_Directory>
/home/itssahil/PROJECTS/Mol_Feturizer/Test_systems_manuscript/rnas/4kqy

>  <Rbt.Executable>
rbdock ($Id: //depot/dev/client3/rdock/2013.1/src/exe/rbdock.cxx#4 $)

>  <Rbt.Library>
libRbt.so (2013.1, Build901 2013/11/27)

>  <Rbt.Parameter_File>
/export/apps/rDock/src/rDock_2013.1_src/data/scripts/dock_solv.prm

>  <Rbt.Receptor>
prm/pocket_docking_3.prm

>  <SCORE>
-15.0143

>  <SCORE.INTER>
-14.6231

>  <SCORE.INTER.CONST>
1

>  <SCORE.INTER.POLAR>
0

>  <SCORE.INTER.ROT>
7

>  <SCORE.INTER.SOLV>
12.9323

>  <SCORE.INTER.VDW>
-22.3262

>  <SCORE.INTER.norm>
-0.541598

>  <SCORE.INTRA>
-1.1129

>  <SCORE.INTRA.DIHEDRAL>
-0.553477

>  <SCORE.INTRA.DIHEDRAL.0>
10.4103

>  <SCORE.INTRA.POLAR>
0

>  <SCORE.INTRA.POLAR.0>
0

>  <SCORE.INTRA.REPUL>
0

>  <SCORE.INTRA.REPUL.0>
0

>  <SCORE.INTRA.SOLV>
-0.300629

>  <SCORE.INTRA.SOLV.lig_0>
-49.5008

>  <SCORE.INTRA.VDW>
-0.685842

>  <SCORE.INTRA.VDW.0>
-2.6946

>  <SCORE.INTRA.norm>
-0.0412183

>  <SCORE.RESTR>
0.721713

>  <SCORE.RESTR.CAVITY>
0.721713

>  <SCORE.RESTR.norm>
0.0267301

>  <SCORE.SYSTEM>
0

>  <SCORE.SYSTEM.CONST>
0

>  <SCORE.SYSTEM.DIHEDRAL>
0

>  <SCORE.SYSTEM.SOLV>
0

>  <SCORE.SYSTEM.norm>
0

>  <SCORE.heavy>
27

>  <SCORE.norm>
-0.556086

>  <RMSD>
6.608

$$$$
ligand
 OpenBabel02271912153D
libRbt.so/2013.1/901 2013/11/27
 27 29  0  0  0  0  0  0  0  0999 V2000
   -3.6215  -12.0187   22.3321 N   0  0  0  0  0  0  0  0  0  0  0  0
   -3.5120  -10.8930   21.4237 C   0  0  2  0  0  0  0  0  0  0  0  0
   -2.7238  -11.3539   20.2365 C   0  0  0  0  0  0  0  0  0  0  0  0
   -1.9846  -10.5401   19.6419 O   0  0  0  0  0  0  0  0  0  0  0  0
   -2.8050   -9.7199   22.1081 C   0  0  0  0  0  0  0  0  0  0  0  0
   -3.6918   -8.4550   22.1206 C   0  0  0  0  0  0  0  0  0  0  0  0
   -3.8773   -7.6868   20.6405 S   0  0  2  0  0  0  0  0  0  0  0  0
   -4.8718   -6.3692   20.8243 C   0  0  0  0  0  0  0  0  0  0  0  0
   -4.5196   -8.7671   19.5141 C   0  0  0  0  0  0  0  0  0  0  0  0
   -4.8220   -8.1358   18.1387 C   0  0  1  0  0  0  0  0  0  0  0  0
   -3.6694   -7.5339   17.5262 O   0  0  0  0  0  0  0  0  0  0  0  0
   -5.2470   -9.1466   17.0858 C   0  0  1  0  0  0  0  0  0  0  0  0
   -6.5846   -9.6770   17.1776 O   0  0  0  0  0  0  0  0  0  0  0  0
   -4.9885   -8.3576   15.8261 C   0  0  1  0  0  0  0  0  0  0  0  0
   -5.9654   -7.3309   15.6830 O   0  0  0  0  0  0  0  0  0  0  0  0
   -3.6577   -7.7262   16.1097 C   0  0  2  0  0  0  0  0  0  0  0  0
   -2.7946  -12.5541   19.8793 O   0  0  0  0  0  0  0  0  0  0  0  0
   -0.7321  -12.1515   16.4753 N   0  0  0  0  0  0  0  0  0  0  0  0
   -1.8022  -11.7721   17.2153 C   0  0  0  0  0  0  0  0  0  0  0  0
   -2.4486  -10.6110   17.0170 N   0  0  0  0  0  0  0  0  0  0  0  0
   -2.0868   -9.7566   16.0534 C   0  0  0  0  0  0  0  0  0  0  0  0
   -0.9577  -10.1182   15.2097 C   0  0  0  0  0  0  0  0  0  0  0  0
   -0.2397  -11.3920   15.4471 C   0  0  0  0  0  0  0  0  0  0  0  0
    0.8399  -11.7857   14.6840 N   0  0  0  0  0  0  0  0  0  0  0  0
   -0.8230   -9.1323   14.3520 N   0  0  0  0  0  0  0  0  0  0  0  0
   -1.7516   -8.2014   14.6111 C   0  0  0  0  0  0  0  0  0  0  0  0
   -2.5216   -8.5731   15.6331 N   0  0  0  0  0  0  0  0  0  0  0  0
  2  1  1  1  0  0  0
  2  3  1  0  0  0  0
  2  5  1  0  0  0  0
  3  4  1  0  0  0  0
  3 17  1  0  0  0  0
  5  6  1  0  0  0  0
  7  6  1  1  0  0  0
  7  8  1  0  0  0  0
  7  9  1  0  0  0  0
 10  9  1  1  0  0  0
 10 11  1  0  0  0  0
 10 12  1  0  0  0  0
 11 16  1  0  0  0  0
 12 13  1  1  0  0  0
 12 14  1  0  0  0  0
 14 15  1  1  0  0  0
 14 16  1  0  0  0  0
 16 27  1  1  0  0  0
 18 19  2  0  0  0  0
 18 23  1  0  0  0  0
 19 20  1  0  0  0  0
 20 21  2  0  0  0  0
 21 22  1  0  0  0  0
 21 27  1  0  0  0  0
 22 23  2  0  0  0  0
 22 25  1  0  0  0  0
 23 24  1  0  0  0  0
 25 26  2  0  0  0  0
 26 27  1  0  0  0  0
M  END
>  <CHROM.1>
-147.48201144,-121.76830543,-72.51111175,179.10732295,176.04614939,57.63461783
49.59027960,-3.13194504,-9.50507994,18.07148394,-2.19491549,0.80496969,-1.26501019

>  <Name>
ligand

>  <RI>
0

>  <Rbt.Current_Directory>
/home/itssahil/PROJECTS/Mol_Feturizer/Test_systems_manuscript/rnas/4kqy

>  <Rbt.Executable>
rbdock ($Id: //depot/dev/client3/rdock/2013.1/src/exe/rbdock.cxx#4 $)

>  <Rbt.Library>
libRbt.so (2013.1, Build901 2013/11/27)

>  <Rbt.Parameter_File>
/export/apps/rDock/src/rDock_2013.1_src/data/scripts/dock_solv.prm

>  <Rbt.Receptor>
prm/pocket_docking_7.prm

>  <SCORE>
-16.9415

>  <SCORE.INTER>
-16.2305

>  <SCORE.INTER.CONST>
1

>  <SCORE.INTER.POLAR>
0

>  <SCORE.INTER.ROT>
7

>  <SCORE.INTER.SOLV>
18.1164

>  <SCORE.INTER.VDW>
-25.1258

>  <SCORE.INTER.norm>
-0.60113

>  <SCORE.INTRA>
-0.726298

>  <SCORE.INTRA.DIHEDRAL>
-1.15659

>  <SCORE.INTRA.DIHEDRAL.0>
10.4103

>  <SCORE.INTRA.POLAR>
0

>  <SCORE.INTRA.POLAR.0>
0

>  <SCORE.INTRA.REPUL>
0

>  <SCORE.INTRA.REPUL.0>
0

>  <SCORE.INTRA.SOLV>
-0.0610254

>  <SCORE.INTRA.SOLV.lig_0>
-49.5008

>  <SCORE.INTRA.VDW>
-0.117492

>  <SCORE.INTRA.VDW.0>
-2.6946

>  <SCORE.INTRA.norm>
-0.0268999

>  <SCORE.RESTR>
0.0153646

>  <SCORE.RESTR.CAVITY>
0.0153646

>  <SCORE.RESTR.norm>
0.000569059

>  <SCORE.SYSTEM>
0

>  <SCORE.SYSTEM.CONST>
0

>  <SCORE.SYSTEM.DIHEDRAL>
0

>  <SCORE.SYSTEM.SOLV>
0

>  <SCORE.SYSTEM.norm>
0

>  <SCORE.heavy>
27

>  <SCORE.norm>
-0.627461

>  <RMSD>
6.619

$$$$
ligand
 OpenBabel02271912153D
libRbt.so/2013.1/901 2013/11/27
 27 29  0  0  0  0  0  0  0  0999 V2000
   -5.1737  -13.1907   18.9945 N   0  0  0  0  0  0  0  0  0  0  0  0
   -4.4928  -13.5473   20.2248 C   0  0  2  0  0  0  0  0  0  0  0  0
   -5.5445  -13.7669   21.2683 C   0  0  0  0  0  0  0  0  0  0  0  0
   -6.7414  -13.5462   20.9839 O   0  0  0  0  0  0  0  0  0  0  0  0
   -3.5432  -12.4261   20.6552 C   0  0  0  0  0  0  0  0  0  0  0  0
   -4.2768  -11.0701   20.7525 C   0  0  0  0  0  0  0  0  0  0  0  0
   -3.3317   -9.7688   21.2308 S   0  0  2  0  0  0  0  0  0  0  0  0
   -2.9188   -9.9457   22.8298 C   0  0  0  0  0  0  0  0  0  0  0  0
   -4.1790   -8.3294   20.9886 C   0  0  0  0  0  0  0  0  0  0  0  0
   -4.2266   -7.8676   19.5168 C   0  0  1  0  0  0  0  0  0  0  0  0
   -2.9255   -7.7531   18.9169 O   0  0  0  0  0  0  0  0  0  0  0  0
   -4.9149   -8.8575   18.5908 C   0  0  1  0  0  0  0  0  0  0  0  0
   -6.3534   -8.9330   18.6521 O   0  0  0  0  0  0  0  0  0  0  0  0
   -4.3842   -8.3998   17.2547 C   0  0  1  0  0  0  0  0  0  0  0  0
   -4.9854   -7.1618   16.8877 O   0  0  0  0  0  0  0  0  0  0  0  0
   -2.9318   -8.1667   17.5485 C   0  0  2  0  0  0  0  0  0  0  0  0
   -5.2100  -14.1980   22.3976 O   0  0  0  0  0  0  0  0  0  0  0  0
    0.0907  -11.0863   14.2903 N   0  0  0  0  0  0  0  0  0  0  0  0
   -0.5191   -9.8993   14.0541 C   0  0  0  0  0  0  0  0  0  0  0  0
   -1.2671   -9.2699   14.9759 N   0  0  0  0  0  0  0  0  0  0  0  0
   -1.4421   -9.7691   16.2045 C   0  0  0  0  0  0  0  0  0  0  0  0
   -0.7936  -11.0312   16.5268 C   0  0  0  0  0  0  0  0  0  0  0  0
    0.0145  -11.7271   15.4987 C   0  0  0  0  0  0  0  0  0  0  0  0
    0.6481  -12.9277   15.7437 N   0  0  0  0  0  0  0  0  0  0  0  0
   -1.1097  -11.2859   17.7762 N   0  0  0  0  0  0  0  0  0  0  0  0
   -1.9033  -10.3068   18.2317 C   0  0  0  0  0  0  0  0  0  0  0  0
   -2.1043   -9.3849   17.2909 N   0  0  0  0  0  0  0  0  0  0  0  0
  2  1  1  6  0  0  0
  2  3  1  0  0  0  0
  2  5  1  0  0  0  0
  3  4  1  0  0  0  0
  3 17  1  0  0  0  0
  5  6  1  0  0  0  0
  7  6  1  1  0  0  0
  7  8  1  0  0  0  0
  7  9  1  0  0  0  0
 10  9  1  1  0  0  0
 10 11  1  0  0  0  0
 10 12  1  0  0  0  0
 11 16  1  0  0  0  0
 12 13  1  6  0  0  0
 12 14  1  0  0  0  0
 14 15  1  1  0  0  0
 14 16  1  0  0  0  0
 16 27  1  1  0  0  0
 18 19  2  0  0  0  0
 18 23  1  0  0  0  0
 19 20  1  0  0  0  0
 20 21  2  0  0  0  0
 21 22  1  0  0  0  0
 21 27  1  0  0  0  0
 22 23  2  0  0  0  0
 22 25  1  0  0  0  0
 23 24  1  0  0  0  0
 25 26  2  0  0  0  0
 26 27  1  0  0  0  0
M  END
>  <CHROM.1>
-4.34005332,53.94511827,179.49081038,-69.79185125,-76.90184906,-54.52069423
-150.32416733,-3.22370685,-10.46072822,18.66725399,-2.62357085,0.86688483
-0.34152067

>  <Name>
ligand

>  <RI>
0

>  <Rbt.Current_Directory>
/home/itssahil/PROJECTS/Mol_Feturizer/Test_systems_manuscript/rnas/4kqy

>  <Rbt.Executable>
rbdock ($Id: //depot/dev/client3/rdock/2013.1/src/exe/rbdock.cxx#4 $)

>  <Rbt.Library>
libRbt.so (2013.1, Build901 2013/11/27)

>  <Rbt.Parameter_File>
/export/apps/rDock/src/rDock_2013.1_src/data/scripts/dock_solv.prm

>  <Rbt.Receptor>
prm/pocket_docking_4.prm

>  <SCORE>
-15.9307

>  <SCORE.INTER>
-12.9918

>  <SCORE.INTER.CONST>
1

>  <SCORE.INTER.POLAR>
0

>  <SCORE.INTER.ROT>
7

>  <SCORE.INTER.SOLV>
12.1735

>  <SCORE.INTER.VDW>
-20.9857

>  <SCORE.INTER.norm>
-0.481178

>  <SCORE.INTRA>
-2.93894

>  <SCORE.INTRA.DIHEDRAL>
-6.12338

>  <SCORE.INTRA.DIHEDRAL.0>
10.4103

>  <SCORE.INTRA.POLAR>
0

>  <SCORE.INTRA.POLAR.0>
0

>  <SCORE.INTRA.REPUL>
0

>  <SCORE.INTRA.REPUL.0>
0

>  <SCORE.INTRA.SOLV>
0.687946

>  <SCORE.INTRA.SOLV.lig_0>
-49.5008

>  <SCORE.INTRA.VDW>
-0.221222

>  <SCORE.INTRA.VDW.0>
-2.6946

>  <SCORE.INTRA.norm>
-0.10885

>  <SCORE.RESTR>
0

>  <SCORE.RESTR.CAVITY>
0

>  <SCORE.RESTR.norm>
0

>  <SCORE.SYSTEM>
0

>  <SCORE.SYSTEM.CONST>
0

>  <SCORE.SYSTEM.DIHEDRAL>
0

>  <SCORE.SYSTEM.SOLV>
0

>  <SCORE.SYSTEM.norm>
0

>  <SCORE.heavy>
27

>  <SCORE.norm>
-0.590027

>  <RMSD>
6.644

$$$$
ligand
 OpenBabel02271912153D
libRbt.so/2013.1/901 2013/11/27
 27 29  0  0  0  0  0  0  0  0999 V2000
   -4.9579  -14.8074   22.3671 N   0  0  0  0  0  0  0  0  0  0  0  0
   -5.4027  -13.6190   21.6643 C   0  0  2  0  0  0  0  0  0  0  0  0
   -5.7498  -14.0316   20.2670 C   0  0  0  0  0  0  0  0  0  0  0  0
   -6.7794  -13.5671   19.7319 O   0  0  0  0  0  0  0  0  0  0  0  0
   -4.2953  -12.5618   21.6466 C   0  0  0  0  0  0  0  0  0  0  0  0
   -4.8418  -11.1776   21.2320 C   0  0  0  0  0  0  0  0  0  0  0  0
   -3.7157   -9.9340   21.2036 S   0  0  2  0  0  0  0  0  0  0  0  0
   -2.8569   -9.9356   22.6252 C   0  0  0  0  0  0  0  0  0  0  0  0
   -4.5027   -8.4573   20.9831 C   0  0  0  0  0  0  0  0  0  0  0  0
   -4.4280   -7.9141   19.5405 C   0  0  1  0  0  0  0  0  0  0  0  0
   -3.0823   -7.7905   19.0510 O   0  0  0  0  0  0  0  0  0  0  0  0
   -5.0551   -8.8384   18.5094 C   0  0  1  0  0  0  0  0  0  0  0  0
   -6.4949   -8.8907   18.4543 O   0  0  0  0  0  0  0  0  0  0  0  0
   -4.4147   -8.3175   17.2466 C   0  0  1  0  0  0  0  0  0  0  0  0
   -4.9678   -7.0502   16.9046 O   0  0  0  0  0  0  0  0  0  0  0  0
   -2.9868   -8.1277   17.6651 C   0  0  2  0  0  0  0  0  0  0  0  0
   -4.9858  -14.8101   19.6477 O   0  0  0  0  0  0  0  0  0  0  0  0
    0.0702  -11.0171   14.4121 N   0  0  0  0  0  0  0  0  0  0  0  0
   -0.5340   -9.8261   14.1818 C   0  0  0  0  0  0  0  0  0  0  0  0
   -1.2921   -9.2054   15.1012 N   0  0  0  0  0  0  0  0  0  0  0  0
   -1.4837   -9.7182   16.3217 C   0  0  0  0  0  0  0  0  0  0  0  0
   -0.8421  -10.9854   16.6377 C   0  0  0  0  0  0  0  0  0  0  0  0
   -0.0227  -11.6715   15.6121 C   0  0  0  0  0  0  0  0  0  0  0  0
    0.6052  -12.8762   15.8513 N   0  0  0  0  0  0  0  0  0  0  0  0
   -1.1745  -11.2535   17.8802 N   0  0  0  0  0  0  0  0  0  0  0  0
   -1.9717  -10.2778   18.3367 C   0  0  0  0  0  0  0  0  0  0  0  0
   -2.1588   -9.3448   17.4040 N   0  0  0  0  0  0  0  0  0  0  0  0
  2  1  1  1  0  0  0
  2  3  1  0  0  0  0
  2  5  1  0  0  0  0
  3  4  1  0  0  0  0
  3 17  1  0  0  0  0
  5  6  1  0  0  0  0
  7  6  1  1  0  0  0
  7  8  1  0  0  0  0
  7  9  1  0  0  0  0
 10  9  1  1  0  0  0
 10 11  1  0  0  0  0
 10 12  1  0  0  0  0
 11 16  1  0  0  0  0
 12 13  1  6  0  0  0
 12 14  1  0  0  0  0
 14 15  1  1  0  0  0
 14 16  1  0  0  0  0
 16 27  1  1  0  0  0
 18 19  2  0  0  0  0
 18 23  1  0  0  0  0
 19 20  1  0  0  0  0
 20 21  2  0  0  0  0
 21 22  1  0  0  0  0
 21 27  1  0  0  0  0
 22 23  2  0  0  0  0
 22 25  1  0  0  0  0
 23 24  1  0  0  0  0
 25 26  2  0  0  0  0
 26 27  1  0  0  0  0
M  END
>  <CHROM.1>
138.00910683,-165.64075434,179.01836157,-49.15777921,-101.51419214,-55.33425112
-154.94325540,-3.37278430,-10.55674667,18.72193156,-2.56686287,0.84613302
-0.28200526

>  <Name>
ligand

>  <RI>
0

>  <Rbt.Current_Directory>
/home/itssahil/PROJECTS/Mol_Feturizer/Test_systems_manuscript/rnas/4kqy

>  <Rbt.Executable>
rbdock ($Id: //depot/dev/client3/rdock/2013.1/src/exe/rbdock.cxx#4 $)

>  <Rbt.Library>
libRbt.so (2013.1, Build901 2013/11/27)

>  <Rbt.Parameter_File>
/export/apps/rDock/src/rDock_2013.1_src/data/scripts/dock_solv.prm

>  <Rbt.Receptor>
prm/pocket_docking_5.prm

>  <SCORE>
-15.1917

>  <SCORE.INTER>
-13.4044

>  <SCORE.INTER.CONST>
1

>  <SCORE.INTER.POLAR>
0

>  <SCORE.INTER.ROT>
7

>  <SCORE.INTER.SOLV>
18.1541

>  <SCORE.INTER.VDW>
-23.2543

>  <SCORE.INTER.norm>
-0.496457

>  <SCORE.INTRA>
-1.78734

>  <SCORE.INTRA.DIHEDRAL>
-2.71593

>  <SCORE.INTRA.DIHEDRAL.0>
10.4103

>  <SCORE.INTRA.POLAR>
0

>  <SCORE.INTRA.POLAR.0>
0

>  <SCORE.INTRA.REPUL>
0

>  <SCORE.INTRA.REPUL.0>
0

>  <SCORE.INTRA.SOLV>
-0.37471

>  <SCORE.INTRA.SOLV.lig_0>
-49.5008

>  <SCORE.INTRA.VDW>
-0.242019

>  <SCORE.INTRA.VDW.0>
-2.6946

>  <SCORE.INTRA.norm>
-0.0661977

>  <SCORE.RESTR>
0

>  <SCORE.RESTR.CAVITY>
0

>  <SCORE.RESTR.norm>
0

>  <SCORE.SYSTEM>
0

>  <SCORE.SYSTEM.CONST>
0

>  <SCORE.SYSTEM.DIHEDRAL>
0

>  <SCORE.SYSTEM.SOLV>
0

>  <SCORE.SYSTEM.norm>
0

>  <SCORE.heavy>
27

>  <SCORE.norm>
-0.562655

>  <RMSD>
6.683

$$$$
ligand
 OpenBabel02271912153D
libRbt.so/2013.1/901 2013/11/27
 27 29  0  0  0  0  0  0  0  0999 V2000
   -4.6635  -14.7893   22.2323 N   0  0  0  0  0  0  0  0  0  0  0  0
   -5.1981  -13.5807   21.6340 C   0  0  2  0  0  0  0  0  0  0  0  0
   -5.6808  -13.9387   20.2622 C   0  0  0  0  0  0  0  0  0  0  0  0
   -6.6652  -13.3343   19.7849 O   0  0  0  0  0  0  0  0  0  0  0  0
   -4.1161  -12.5006   21.5516 C   0  0  0  0  0  0  0  0  0  0  0  0
   -4.7247  -11.1123   21.2539 C   0  0  0  0  0  0  0  0  0  0  0  0
   -3.6227   -9.8556   21.1065 S   0  0  2  0  0  0  0  0  0  0  0  0
   -2.6768   -9.7893   22.4702 C   0  0  0  0  0  0  0  0  0  0  0  0
   -4.4455   -8.3997   20.8791 C   0  0  0  0  0  0  0  0  0  0  0  0
   -4.4078   -7.8760   19.4278 C   0  0  1  0  0  0  0  0  0  0  0  0
   -3.0736   -7.7256   18.9146 O   0  0  0  0  0  0  0  0  0  0  0  0
   -5.0275   -8.8310   18.4204 C   0  0  1  0  0  0  0  0  0  0  0  0
   -6.4662   -8.9206   18.3897 O   0  0  0  0  0  0  0  0  0  0  0  0
   -4.4209   -8.3127   17.1400 C   0  0  1  0  0  0  0  0  0  0  0  0
   -5.0116   -7.0650   16.7890 O   0  0  0  0  0  0  0  0  0  0  0  0
   -2.9918   -8.0806   17.5323 C   0  0  2  0  0  0  0  0  0  0  0  0
   -5.0705  -14.8153   19.6046 O   0  0  0  0  0  0  0  0  0  0  0  0
    0.1442  -10.9027   14.2954 N   0  0  0  0  0  0  0  0  0  0  0  0
   -0.4831   -9.7242   14.0626 C   0  0  0  0  0  0  0  0  0  0  0  0
   -1.2595   -9.1203   14.9779 N   0  0  0  0  0  0  0  0  0  0  0  0
   -1.4480   -9.6383   16.1967 C   0  0  0  0  0  0  0  0  0  0  0  0
   -0.7822  -10.8923   16.5154 C   0  0  0  0  0  0  0  0  0  0  0  0
    0.0575  -11.5602   15.4941 C   0  0  0  0  0  0  0  0  0  0  0  0
    0.7086  -12.7519   15.7361 N   0  0  0  0  0  0  0  0  0  0  0  0
   -1.1166  -11.1686   17.7555 N   0  0  0  0  0  0  0  0  0  0  0  0
   -1.9366  -10.2100   18.2081 C   0  0  0  0  0  0  0  0  0  0  0  0
   -2.1372   -9.2801   17.2751 N   0  0  0  0  0  0  0  0  0  0  0  0
  2  1  1  6  0  0  0
  2  3  1  0  0  0  0
  2  5  1  0  0  0  0
  3  4  1  0  0  0  0
  3 17  1  0  0  0  0
  5  6  1  0  0  0  0
  7  6  1  1  0  0  0
  7  8  1  0  0  0  0
  7  9  1  0  0  0  0
 10  9  1  1  0  0  0
 10 11  1  0  0  0  0
 10 12  1  0  0  0  0
 11 16  1  0  0  0  0
 12 13  1  6  0  0  0
 12 14  1  0  0  0  0
 14 15  1  1  0  0  0
 14 16  1  0  0  0  0
 16 27  1  1  0  0  0
 18 19  2  0  0  0  0
 18 23  1  0  0  0  0
 19 20  1  0  0  0  0
 20 21  2  0  0  0  0
 21 22  1  0  0  0  0
 21 27  1  0  0  0  0
 22 23  2  0  0  0  0
 22 25  1  0  0  0  0
 23 24  1  0  0  0  0
 25 26  2  0  0  0  0
 26 27  1  0  0  0  0
M  END
>  <CHROM.1>
147.83936579,-165.85184318,-178.64844048,-54.86860094,-104.49427594,-55.56260697
-153.35995235,-3.30538178,-10.48891939,18.62765708,-2.53559477,0.84085571
-0.32189338

>  <Name>
ligand

>  <RI>
0

>  <Rbt.Current_Directory>
/home/itssahil/PROJECTS/Mol_Feturizer/Test_systems_manuscript/rnas/4kqy

>  <Rbt.Executable>
rbdock ($Id: //depot/dev/client3/rdock/2013.1/src/exe/rbdock.cxx#4 $)

>  <Rbt.Library>
libRbt.so (2013.1, Build901 2013/11/27)

>  <Rbt.Parameter_File>
/export/apps/rDock/src/rDock_2013.1_src/data/scripts/dock_solv.prm

>  <Rbt.Receptor>
prm/pocket_docking_6.prm

>  <SCORE>
-15.226

>  <SCORE.INTER>
-13.3466

>  <SCORE.INTER.CONST>
1

>  <SCORE.INTER.POLAR>
0

>  <SCORE.INTER.ROT>
7

>  <SCORE.INTER.SOLV>
17.9302

>  <SCORE.INTER.VDW>
-23.1411

>  <SCORE.INTER.norm>
-0.494318

>  <SCORE.INTRA>
-1.87945

>  <SCORE.INTRA.DIHEDRAL>
-2.731

>  <SCORE.INTRA.DIHEDRAL.0>
10.4103

>  <SCORE.INTRA.POLAR>
0

>  <SCORE.INTRA.POLAR.0>
0

>  <SCORE.INTRA.REPUL>
0

>  <SCORE.INTRA.REPUL.0>
0

>  <SCORE.INTRA.SOLV>
-0.375377

>  <SCORE.INTRA.SOLV.lig_0>
-49.5008

>  <SCORE.INTRA.VDW>
-0.326263

>  <SCORE.INTRA.VDW.0>
-2.6946

>  <SCORE.INTRA.norm>
-0.0696093

>  <SCORE.RESTR>
0

>  <SCORE.RESTR.CAVITY>
0

>  <SCORE.RESTR.norm>
0

>  <SCORE.SYSTEM>
0

>  <SCORE.SYSTEM.CONST>
0

>  <SCORE.SYSTEM.DIHEDRAL>
0

>  <SCORE.SYSTEM.SOLV>
0

>  <SCORE.SYSTEM.norm>
0

>  <SCORE.heavy>
27

>  <SCORE.norm>
-0.563927

>  <RMSD>
6.692

$$$$
ligand
 OpenBabel02271912153D
libRbt.so/2013.1/901 2013/11/27
 27 29  0  0  0  0  0  0  0  0999 V2000
    1.9932  -12.9000   11.2167 N   0  0  0  0  0  0  0  0  0  0  0  0
    1.1849  -13.5488   12.2316 C   0  0  2  0  0  0  0  0  0  0  0  0
    1.7208  -14.9362   12.4080 C   0  0  0  0  0  0  0  0  0  0  0  0
    1.7182  -15.4507   13.5471 O   0  0  0  0  0  0  0  0  0  0  0  0
   -0.2824  -13.5972   11.7968 C   0  0  0  0  0  0  0  0  0  0  0  0
   -1.1918  -14.1157   12.9329 C   0  0  0  0  0  0  0  0  0  0  0  0
   -1.3934  -13.0727   14.2316 S   0  0  2  0  0  0  0  0  0  0  0  0
   -0.0019  -13.0461   15.1382 C   0  0  0  0  0  0  0  0  0  0  0  0
   -2.7059  -13.5738   15.1668 C   0  0  0  0  0  0  0  0  0  0  0  0
   -3.2362  -12.4956   16.1353 C   0  0  1  0  0  0  0  0  0  0  0  0
   -3.8312  -11.3734   15.4624 O   0  0  0  0  0  0  0  0  0  0  0  0
   -4.3782  -12.9774   17.0154 C   0  0  1  0  0  0  0  0  0  0  0  0
   -4.0464  -13.8520   18.1125 O   0  0  0  0  0  0  0  0  0  0  0  0
   -4.9709  -11.6581   17.4446 C   0  0  1  0  0  0  0  0  0  0  0  0
   -4.1088  -11.0154   18.3788 O   0  0  0  0  0  0  0  0  0  0  0  0
   -4.9717  -10.8747   16.1653 C   0  0  2  0  0  0  0  0  0  0  0  0
    2.1329  -15.5685   11.4063 O   0  0  0  0  0  0  0  0  0  0  0  0
   -9.7232   -8.9943   14.6945 N   0  0  0  0  0  0  0  0  0  0  0  0
   -8.7864   -8.4204   15.4881 C   0  0  0  0  0  0  0  0  0  0  0  0
   -7.6204   -9.0181   15.7859 N   0  0  0  0  0  0  0  0  0  0  0  0
   -7.2977  -10.2204   15.2963 C   0  0  0  0  0  0  0  0  0  0  0  0
   -8.2538  -10.8789   14.4189 C   0  0  0  0  0  0  0  0  0  0  0  0
   -9.5443  -10.2205   14.1105 C   0  0  0  0  0  0  0  0  0  0  0  0
  -10.4915  -10.7975   13.2903 N   0  0  0  0  0  0  0  0  0  0  0  0
   -7.6959  -12.0171   14.0736 N   0  0  0  0  0  0  0  0  0  0  0  0
   -6.5025  -12.1160   14.6753 C   0  0  0  0  0  0  0  0  0  0  0  0
   -6.2525  -11.0334   15.4107 N   0  0  0  0  0  0  0  0  0  0  0  0
  2  1  1  6  0  0  0
  2  3  1  0  0  0  0
  2  5  1  0  0  0  0
  3  4  1  0  0  0  0
  3 17  1  0  0  0  0
  5  6  1  0  0  0  0
  7  6  1  6  0  0  0
  7  8  1  0  0  0  0
  7  9  1  0  0  0  0
 10  9  1  6  0  0  0
 10 11  1  0  0  0  0
 10 12  1  0  0  0  0
 11 16  1  0  0  0  0
 12 13  1  1  0  0  0
 12 14  1  0  0  0  0
 14 15  1  1  0  0  0
 14 16  1  0  0  0  0
 16 27  1  6  0  0  0
 18 19  2  0  0  0  0
 18 23  1  0  0  0  0
 19 20  1  0  0  0  0
 20 21  2  0  0  0  0
 21 22  1  0  0  0  0
 21 27  1  0  0  0  0
 22 23  2  0  0  0  0
 22 25  1  0  0  0  0
 23 24  1  0  0  0  0
 25 26  2  0  0  0  0
 26 27  1  0  0  0  0
M  END
>  <CHROM.1>
144.41044530,-172.62910762,70.36676083,-73.60548631,-163.39709001,66.86168021
-140.78657319,-3.76142825,-12.24775513,14.66093056,0.24204115,0.40896640
-1.58527813

>  <Name>
ligand

>  <RI>
0

>  <Rbt.Current_Directory>
/home/itssahil/PROJECTS/Mol_Feturizer/Test_systems_manuscript/rnas/4kqy

>  <Rbt.Executable>
rbdock ($Id: //depot/dev/client3/rdock/2013.1/src/exe/rbdock.cxx#4 $)

>  <Rbt.Library>
libRbt.so (2013.1, Build901 2013/11/27)

>  <Rbt.Parameter_File>
/export/apps/rDock/src/rDock_2013.1_src/data/scripts/dock_solv.prm

>  <Rbt.Receptor>
prm/pocket_docking_8.prm

>  <SCORE>
-12.2631

>  <SCORE.INTER>
-9.52007

>  <SCORE.INTER.CONST>
1

>  <SCORE.INTER.POLAR>
0

>  <SCORE.INTER.ROT>
7

>  <SCORE.INTER.SOLV>
5.93424

>  <SCORE.INTER.VDW>
-16.5915

>  <SCORE.INTER.norm>
-0.352595

>  <SCORE.INTRA>
-2.74305

>  <SCORE.INTRA.DIHEDRAL>
-5.48513

>  <SCORE.INTRA.DIHEDRAL.0>
10.4103

>  <SCORE.INTRA.POLAR>
0

>  <SCORE.INTRA.POLAR.0>
0

>  <SCORE.INTRA.REPUL>
0

>  <SCORE.INTRA.REPUL.0>
0

>  <SCORE.INTRA.SOLV>
-0.292763

>  <SCORE.INTRA.SOLV.lig_0>
-49.5008

>  <SCORE.INTRA.VDW>
0.1459

>  <SCORE.INTRA.VDW.0>
-2.6946

>  <SCORE.INTRA.norm>
-0.101594

>  <SCORE.RESTR>
0

>  <SCORE.RESTR.CAVITY>
0

>  <SCORE.RESTR.norm>
0

>  <SCORE.SYSTEM>
0

>  <SCORE.SYSTEM.CONST>
0

>  <SCORE.SYSTEM.DIHEDRAL>
0

>  <SCORE.SYSTEM.SOLV>
0

>  <SCORE.SYSTEM.norm>
0

>  <SCORE.heavy>
27

>  <SCORE.norm>
-0.45419

>  <RMSD>
6.711

$$$$
ligand
 OpenBabel02271912153D
libRbt.so/2013.1/901 2013/11/27
 27 29  0  0  0  0  0  0  0  0999 V2000
   -5.3318  -13.2178   18.7863 N   0  0  0  0  0  0  0  0  0  0  0  0
   -4.8783  -13.5603   20.1209 C   0  0  2  0  0  0  0  0  0  0  0  0
   -6.0542  -13.4269   21.0388 C   0  0  0  0  0  0  0  0  0  0  0  0
   -6.8461  -12.4729   20.8808 O   0  0  0  0  0  0  0  0  0  0  0  0
   -3.7517  -12.6214   20.5607 C   0  0  0  0  0  0  0  0  0  0  0  0
   -4.1275  -11.1408   20.3304 C   0  0  0  0  0  0  0  0  0  0  0  0
   -3.0095  -10.0166   20.8797 S   0  0  2  0  0  0  0  0  0  0  0  0
   -2.9651  -10.0492   22.5397 C   0  0  0  0  0  0  0  0  0  0  0  0
   -3.4271   -8.4788   20.3236 C   0  0  0  0  0  0  0  0  0  0  0  0
   -2.8559   -8.1369   18.9312 C   0  0  1  0  0  0  0  0  0  0  0  0
   -1.7372   -8.9598   18.5606 O   0  0  0  0  0  0  0  0  0  0  0  0
   -3.8299   -8.3976   17.7936 C   0  0  1  0  0  0  0  0  0  0  0  0
   -4.9125   -7.4613   17.6199 O   0  0  0  0  0  0  0  0  0  0  0  0
   -2.8787   -8.4542   16.6239 C   0  0  1  0  0  0  0  0  0  0  0  0
   -2.3935   -7.1489   16.3244 O   0  0  0  0  0  0  0  0  0  0  0  0
   -1.7499   -9.2795   17.1673 C   0  0  2  0  0  0  0  0  0  0  0  0
   -6.2412  -14.2910   21.9285 O   0  0  0  0  0  0  0  0  0  0  0  0
   -3.8007  -13.1891   14.2033 N   0  0  0  0  0  0  0  0  0  0  0  0
   -3.9114  -11.8480   14.0424 C   0  0  0  0  0  0  0  0  0  0  0  0
   -3.3412  -10.9656   14.8800 N   0  0  0  0  0  0  0  0  0  0  0  0
   -2.6032  -11.3581   15.9243 C   0  0  0  0  0  0  0  0  0  0  0  0
   -2.4283  -12.7868   16.1376 C   0  0  0  0  0  0  0  0  0  0  0  0
   -3.0754  -13.7526   15.2196 C   0  0  0  0  0  0  0  0  0  0  0  0
   -2.9501  -15.1177   15.3741 N   0  0  0  0  0  0  0  0  0  0  0  0
   -1.6650  -12.8979   17.2010 N   0  0  0  0  0  0  0  0  0  0  0  0
   -1.3792  -11.6719   17.6605 C   0  0  0  0  0  0  0  0  0  0  0  0
   -1.9373  -10.7370   16.8925 N   0  0  0  0  0  0  0  0  0  0  0  0
  2  1  1  6  0  0  0
  2  3  1  0  0  0  0
  2  5  1  0  0  0  0
  3  4  1  0  0  0  0
  3 17  1  0  0  0  0
  5  6  1  0  0  0  0
  7  6  1  1  0  0  0
  7  8  1  0  0  0  0
  7  9  1  0  0  0  0
 10  9  1  1  0  0  0
 10 11  1  0  0  0  0
 10 12  1  0  0  0  0
 11 16  1  0  0  0  0
 12 13  1  6  0  0  0
 12 14  1  0  0  0  0
 14 15  1  1  0  0  0
 14 16  1  0  0  0  0
 16 27  1  1  0  0  0
 18 19  2  0  0  0  0
 18 23  1  0  0  0  0
 19 20  1  0  0  0  0
 20 21  2  0  0  0  0
 21 22  1  0  0  0  0
 21 27  1  0  0  0  0
 22 23  2  0  0  0  0
 22 25  1  0  0  0  0
 23 24  1  0  0  0  0
 25 26  2  0  0  0  0
 26 27  1  0  0  0  0
M  END
>  <CHROM.1>
-39.86232385,49.40163226,175.76566085,-68.10643043,-87.47313738,-19.79452450
143.52940193,-3.49580893,-11.06034799,18.28160672,2.61556681,1.15382513,0.77357220

>  <Name>
ligand

>  <RI>
0

>  <Rbt.Current_Directory>
/home/itssahil/PROJECTS/Mol_Feturizer/Test_systems_manuscript/rnas/4kqy

>  <Rbt.Executable>
rbdock ($Id: //depot/dev/client3/rdock/2013.1/src/exe/rbdock.cxx#4 $)

>  <Rbt.Library>
libRbt.so (2013.1, Build901 2013/11/27)

>  <Rbt.Parameter_File>
/export/apps/rDock/src/rDock_2013.1_src/data/scripts/dock_solv.prm

>  <Rbt.Receptor>
prm/pocket_docking_5.prm

>  <SCORE>
-8.45289

>  <SCORE.INTER>
-7.70753

>  <SCORE.INTER.CONST>
1

>  <SCORE.INTER.POLAR>
0

>  <SCORE.INTER.ROT>
7

>  <SCORE.INTER.SOLV>
19.8881

>  <SCORE.INTER.VDW>
-20.0344

>  <SCORE.INTER.norm>
-0.285464

>  <SCORE.INTRA>
-0.745368

>  <SCORE.INTRA.DIHEDRAL>
-0.864164

>  <SCORE.INTRA.DIHEDRAL.0>
10.4103

>  <SCORE.INTRA.POLAR>
0

>  <SCORE.INTRA.POLAR.0>
0

>  <SCORE.INTRA.REPUL>
0

>  <SCORE.INTRA.REPUL.0>
0

>  <SCORE.INTRA.SOLV>
0.377452

>  <SCORE.INTRA.SOLV.lig_0>
-49.5008

>  <SCORE.INTRA.VDW>
-0.502012

>  <SCORE.INTRA.VDW.0>
-2.6946

>  <SCORE.INTRA.norm>
-0.0276062

>  <SCORE.RESTR>
0

>  <SCORE.RESTR.CAVITY>
0

>  <SCORE.RESTR.norm>
0

>  <SCORE.SYSTEM>
0

>  <SCORE.SYSTEM.CONST>
0

>  <SCORE.SYSTEM.DIHEDRAL>
0

>  <SCORE.SYSTEM.SOLV>
0

>  <SCORE.SYSTEM.norm>
0

>  <SCORE.heavy>
27

>  <SCORE.norm>
-0.31307

>  <RMSD>
6.716

$$$$
ligand
 OpenBabel02271912153D
libRbt.so/2013.1/901 2013/11/27
 27 29  0  0  0  0  0  0  0  0999 V2000
   -3.5797  -12.0155   21.4399 N   0  0  0  0  0  0  0  0  0  0  0  0
   -3.0281  -10.8094   20.8523 C   0  0  2  0  0  0  0  0  0  0  0  0
   -3.3139   -9.6829   21.7969 C   0  0  0  0  0  0  0  0  0  0  0  0
   -4.5010   -9.3712   22.0331 O   0  0  0  0  0  0  0  0  0  0  0  0
   -3.6703  -10.5361   19.4895 C   0  0  0  0  0  0  0  0  0  0  0  0
   -2.9735   -9.3657   18.7607 C   0  0  0  0  0  0  0  0  0  0  0  0
   -3.5178   -9.0558   17.2041 S   0  0  2  0  0  0  0  0  0  0  0  0
   -2.5880   -7.8599   16.5230 C   0  0  0  0  0  0  0  0  0  0  0  0
   -5.1415   -8.5974   17.2487 C   0  0  0  0  0  0  0  0  0  0  0  0
   -6.1117   -9.6653   16.7010 C   0  0  1  0  0  0  0  0  0  0  0  0
   -5.7645  -10.1233   15.3836 O   0  0  0  0  0  0  0  0  0  0  0  0
   -6.1035  -10.9601   17.4974 C   0  0  1  0  0  0  0  0  0  0  0  0
   -6.7706  -10.9566   18.7756 O   0  0  0  0  0  0  0  0  0  0  0  0
   -6.7145  -11.9054   16.4928 C   0  0  1  0  0  0  0  0  0  0  0  0
   -8.1062  -11.6366   16.3517 O   0  0  0  0  0  0  0  0  0  0  0  0
   -6.0140  -11.5217   15.2231 C   0  0  2  0  0  0  0  0  0  0  0  0
   -2.3595   -9.0933   22.3579 O   0  0  0  0  0  0  0  0  0  0  0  0
   -1.8924  -12.8938   12.1562 N   0  0  0  0  0  0  0  0  0  0  0  0
   -2.8847  -12.0055   11.9054 C   0  0  0  0  0  0  0  0  0  0  0  0
   -3.8780  -11.7596   12.7762 N   0  0  0  0  0  0  0  0  0  0  0  0
   -3.9399  -12.3662   13.9668 C   0  0  0  0  0  0  0  0  0  0  0  0
   -2.8898  -13.3153   14.3043 C   0  0  0  0  0  0  0  0  0  0  0  0
   -1.8085  -13.5936   13.3310 C   0  0  0  0  0  0  0  0  0  0  0  0
   -0.7898  -14.4862   13.5923 N   0  0  0  0  0  0  0  0  0  0  0  0
   -3.1755  -13.7491   15.5111 N   0  0  0  0  0  0  0  0  0  0  0  0
   -4.3089  -13.1662   15.9251 C   0  0  0  0  0  0  0  0  0  0  0  0
   -4.7737  -12.3262   15.0010 N   0  0  0  0  0  0  0  0  0  0  0  0
  2  1  1  1  0  0  0
  2  3  1  0  0  0  0
  2  5  1  0  0  0  0
  3  4  1  0  0  0  0
  3 17  1  0  0  0  0
  5  6  1  0  0  0  0
  7  6  1  1  0  0  0
  7  8  1  0  0  0  0
  7  9  1  0  0  0  0
 10  9  1  1  0  0  0
 10 11  1  0  0  0  0
 10 12  1  0  0  0  0
 11 16  1  0  0  0  0
 12 13  1  1  0  0  0
 12 14  1  0  0  0  0
 14 15  1  6  0  0  0
 14 16  1  0  0  0  0
 16 27  1  1  0  0  0
 18 19  2  0  0  0  0
 18 23  1  0  0  0  0
 19 20  1  0  0  0  0
 20 21  2  0  0  0  0
 21 22  1  0  0  0  0
 21 27  1  0  0  0  0
 22 23  2  0  0  0  0
 22 25  1  0  0  0  0
 23 24  1  0  0  0  0
 25 26  2  0  0  0  0
 26 27  1  0  0  0  0
M  END
>  <CHROM.1>
-63.21900502,-172.58001259,175.39602801,-175.41091515,-108.15235276,-53.12529625
-68.70711862,-4.11018355,-11.04962726,16.87995428,-1.66438604,0.21370083
-1.95058802

>  <Name>
ligand

>  <RI>
0

>  <Rbt.Current_Directory>
/home/itssahil/PROJECTS/Mol_Feturizer/Test_systems_manuscript/rnas/4kqy

>  <Rbt.Executable>
rbdock ($Id: //depot/dev/client3/rdock/2013.1/src/exe/rbdock.cxx#4 $)

>  <Rbt.Library>
libRbt.so (2013.1, Build901 2013/11/27)

>  <Rbt.Parameter_File>
/export/apps/rDock/src/rDock_2013.1_src/data/scripts/dock_solv.prm

>  <Rbt.Receptor>
prm/pocket_docking_5.prm

>  <SCORE>
-9.16769

>  <SCORE.INTER>
-7.7072

>  <SCORE.INTER.CONST>
1

>  <SCORE.INTER.POLAR>
0

>  <SCORE.INTER.ROT>
7

>  <SCORE.INTER.SOLV>
13.5446

>  <SCORE.INTER.VDW>
-17.9197

>  <SCORE.INTER.norm>
-0.285452

>  <SCORE.INTRA>
-1.46049

>  <SCORE.INTRA.DIHEDRAL>
-2.83709

>  <SCORE.INTRA.DIHEDRAL.0>
10.4103

>  <SCORE.INTRA.POLAR>
0

>  <SCORE.INTRA.POLAR.0>
0

>  <SCORE.INTRA.REPUL>
0

>  <SCORE.INTRA.REPUL.0>
0

>  <SCORE.INTRA.SOLV>
-0.125078

>  <SCORE.INTRA.SOLV.lig_0>
-49.5008

>  <SCORE.INTRA.VDW>
0.0205948

>  <SCORE.INTRA.VDW.0>
-2.6946

>  <SCORE.INTRA.norm>
-0.0540923

>  <SCORE.RESTR>
0

>  <SCORE.RESTR.CAVITY>
0

>  <SCORE.RESTR.norm>
0

>  <SCORE.SYSTEM>
0

>  <SCORE.SYSTEM.CONST>
0

>  <SCORE.SYSTEM.DIHEDRAL>
0

>  <SCORE.SYSTEM.SOLV>
0

>  <SCORE.SYSTEM.norm>
0

>  <SCORE.heavy>
27

>  <SCORE.norm>
-0.339544

>  <RMSD>
6.717

$$$$
ligand
 OpenBabel02271912153D
libRbt.so/2013.1/901 2013/11/27
 27 29  0  0  0  0  0  0  0  0999 V2000
   -5.2198   -8.2015   20.2993 N   0  0  0  0  0  0  0  0  0  0  0  0
   -4.8197   -7.6846   21.5942 C   0  0  2  0  0  0  0  0  0  0  0  0
   -4.9209   -6.1917   21.5285 C   0  0  0  0  0  0  0  0  0  0  0  0
   -6.0038   -5.6404   21.8212 O   0  0  0  0  0  0  0  0  0  0  0  0
   -3.3839   -8.1060   21.9183 C   0  0  0  0  0  0  0  0  0  0  0  0
   -3.3006   -9.6090   22.2656 C   0  0  0  0  0  0  0  0  0  0  0  0
   -3.5960  -10.6630   20.9940 S   0  0  2  0  0  0  0  0  0  0  0  0
   -3.4101  -12.2273   21.5202 C   0  0  0  0  0  0  0  0  0  0  0  0
   -2.5382  -10.3314   19.7213 C   0  0  0  0  0  0  0  0  0  0  0  0
   -2.9698   -9.1414   18.8386 C   0  0  1  0  0  0  0  0  0  0  0  0
   -1.8772   -8.5424   18.1220 O   0  0  0  0  0  0  0  0  0  0  0  0
   -3.9111   -9.5311   17.7104 C   0  0  1  0  0  0  0  0  0  0  0  0
   -5.2807   -9.8171   18.0585 O   0  0  0  0  0  0  0  0  0  0  0  0
   -3.7497   -8.3434   16.7941 C   0  0  1  0  0  0  0  0  0  0  0  0
   -4.3924   -7.2024   17.3545 O   0  0  0  0  0  0  0  0  0  0  0  0
   -2.2660   -8.1232   16.8118 C   0  0  2  0  0  0  0  0  0  0  0  0
   -3.9102   -5.5200   21.2118 O   0  0  0  0  0  0  0  0  0  0  0  0
    0.7410  -12.2004   15.1960 N   0  0  0  0  0  0  0  0  0  0  0  0
    0.3145  -11.8969   16.4461 C   0  0  0  0  0  0  0  0  0  0  0  0
   -0.4423  -10.8198   16.7148 N   0  0  0  0  0  0  0  0  0  0  0  0
   -0.8446   -9.9814   15.7533 C   0  0  0  0  0  0  0  0  0  0  0  0
   -0.4375  -10.2661   14.3856 C   0  0  0  0  0  0  0  0  0  0  0  0
    0.4118  -11.4459   14.1009 C   0  0  0  0  0  0  0  0  0  0  0  0
    0.8332  -11.7637   12.8265 N   0  0  0  0  0  0  0  0  0  0  0  0
   -0.9675   -9.3151   13.6503 N   0  0  0  0  0  0  0  0  0  0  0  0
   -1.6393   -8.4731   14.4476 C   0  0  0  0  0  0  0  0  0  0  0  0
   -1.5744   -8.8712   15.7175 N   0  0  0  0  0  0  0  0  0  0  0  0
  2  1  1  6  0  0  0
  2  3  1  0  0  0  0
  2  5  1  0  0  0  0
  3  4  1  0  0  0  0
  3 17  1  0  0  0  0
  5  6  1  0  0  0  0
  7  6  1  1  0  0  0
  7  8  1  0  0  0  0
  7  9  1  0  0  0  0
 10  9  1  6  0  0  0
 10 11  1  0  0  0  0
 10 12  1  0  0  0  0
 11 16  1  0  0  0  0
 12 13  1  1  0  0  0
 12 14  1  0  0  0  0
 14 15  1  1  0  0  0
 14 16  1  0  0  0  0
 16 27  1  6  0  0  0
 18 19  2  0  0  0  0
 18 23  1  0  0  0  0
 19 20  1  0  0  0  0
 20 21  2  0  0  0  0
 21 22  1  0  0  0  0
 21 27  1  0  0  0  0
 22 23  2  0  0  0  0
 22 25  1  0  0  0  0
 23 24  1  0  0  0  0
 25 26  2  0  0  0  0
 26 27  1  0  0  0  0
M  END
>  <CHROM.1>
88.77688036,-72.71817793,68.30181311,177.83783623,-80.67495279,157.18310313
12.52343710,-2.68542552,-9.27485754,18.22824034,2.71568370,-0.97676734,2.23850911

>  <Name>
ligand

>  <RI>
0

>  <Rbt.Current_Directory>
/home/itssahil/PROJECTS/Mol_Feturizer/Test_systems_manuscript/rnas/4kqy

>  <Rbt.Executable>
rbdock ($Id: //depot/dev/client3/rdock/2013.1/src/exe/rbdock.cxx#4 $)

>  <Rbt.Library>
libRbt.so (2013.1, Build901 2013/11/27)

>  <Rbt.Parameter_File>
/export/apps/rDock/src/rDock_2013.1_src/data/scripts/dock_solv.prm

>  <Rbt.Receptor>
prm/pocket_docking_7.prm

>  <SCORE>
-20.9842

>  <SCORE.INTER>
-21.5915

>  <SCORE.INTER.CONST>
1

>  <SCORE.INTER.POLAR>
0

>  <SCORE.INTER.ROT>
7

>  <SCORE.INTER.SOLV>
9.23907

>  <SCORE.INTER.VDW>
-25.7407

>  <SCORE.INTER.norm>
-0.799684

>  <SCORE.INTRA>
0.607283

>  <SCORE.INTRA.DIHEDRAL>
-3.83279

>  <SCORE.INTRA.DIHEDRAL.0>
10.4103

>  <SCORE.INTRA.POLAR>
0

>  <SCORE.INTRA.POLAR.0>
0

>  <SCORE.INTRA.REPUL>
0

>  <SCORE.INTRA.REPUL.0>
0

>  <SCORE.INTRA.SOLV>
6.34573

>  <SCORE.INTRA.SOLV.lig_0>
-49.5008

>  <SCORE.INTRA.VDW>
-0.649186

>  <SCORE.INTRA.VDW.0>
-2.6946

>  <SCORE.INTRA.norm>
0.022492

>  <SCORE.RESTR>
0

>  <SCORE.RESTR.CAVITY>
0

>  <SCORE.RESTR.norm>
0

>  <SCORE.SYSTEM>
0

>  <SCORE.SYSTEM.CONST>
0

>  <SCORE.SYSTEM.DIHEDRAL>
0

>  <SCORE.SYSTEM.SOLV>
0

>  <SCORE.SYSTEM.norm>
0

>  <SCORE.heavy>
27

>  <SCORE.norm>
-0.777192

>  <RMSD>
6.723

$$$$
ligand
 OpenBabel02271912153D
libRbt.so/2013.1/901 2013/11/27
 27 29  0  0  0  0  0  0  0  0999 V2000
   -3.4754  -10.1336   21.4642 N   0  0  0  0  0  0  0  0  0  0  0  0
   -4.2690  -11.2584   21.9216 C   0  0  2  0  0  0  0  0  0  0  0  0
   -3.5662  -12.5065   21.4839 C   0  0  0  0  0  0  0  0  0  0  0  0
   -2.6593  -12.4275   20.6275 O   0  0  0  0  0  0  0  0  0  0  0  0
   -5.6754  -11.2014   21.3192 C   0  0  0  0  0  0  0  0  0  0  0  0
   -5.6289  -11.1871   19.7751 C   0  0  0  0  0  0  0  0  0  0  0  0
   -7.0919  -10.8885   19.0099 S   0  0  2  0  0  0  0  0  0  0  0  0
   -7.9861  -12.2874   18.9653 C   0  0  0  0  0  0  0  0  0  0  0  0
   -6.8113  -10.3091   17.4497 C   0  0  0  0  0  0  0  0  0  0  0  0
   -5.7841   -9.1594   17.3810 C   0  0  1  0  0  0  0  0  0  0  0  0
   -4.4529   -9.5674   17.7375 O   0  0  0  0  0  0  0  0  0  0  0  0
   -5.5805   -8.6088   15.9787 C   0  0  1  0  0  0  0  0  0  0  0  0
   -6.6175   -7.7637   15.4411 O   0  0  0  0  0  0  0  0  0  0  0  0
   -4.2521   -7.9135   16.1459 C   0  0  1  0  0  0  0  0  0  0  0  0
   -4.4135   -6.7309   16.9233 O   0  0  0  0  0  0  0  0  0  0  0  0
   -3.4637   -8.9130   16.9394 C   0  0  2  0  0  0  0  0  0  0  0  0
   -3.8778  -13.6034   22.0065 O   0  0  0  0  0  0  0  0  0  0  0  0
    0.4749  -12.4211   16.2645 N   0  0  0  0  0  0  0  0  0  0  0  0
    0.1115  -11.7508   17.3848 C   0  0  0  0  0  0  0  0  0  0  0  0
   -0.9105  -10.8790   17.4114 N   0  0  0  0  0  0  0  0  0  0  0  0
   -1.6551  -10.6302   16.3283 C   0  0  0  0  0  0  0  0  0  0  0  0
   -1.3283  -11.3366   15.0988 C   0  0  0  0  0  0  0  0  0  0  0  0
   -0.1887  -12.2825   15.0741 C   0  0  0  0  0  0  0  0  0  0  0  0
    0.1718  -12.9766   13.9378 N   0  0  0  0  0  0  0  0  0  0  0  0
   -2.2043  -10.9281   14.2090 N   0  0  0  0  0  0  0  0  0  0  0  0
   -3.0161  -10.0277   14.7804 C   0  0  0  0  0  0  0  0  0  0  0  0
   -2.6945   -9.8463   16.0607 N   0  0  0  0  0  0  0  0  0  0  0  0
  2  1  1  6  0  0  0
  2  3  1  0  0  0  0
  2  5  1  0  0  0  0
  3  4  1  0  0  0  0
  3 17  1  0  0  0  0
  5  6  1  0  0  0  0
  7  6  1  6  0  0  0
  7  8  1  0  0  0  0
  7  9  1  0  0  0  0
 10  9  1  6  0  0  0
 10 11  1  0  0  0  0
 10 12  1  0  0  0  0
 11 16  1  0  0  0  0
 12 13  1  1  0  0  0
 12 14  1  0  0  0  0
 14 15  1  1  0  0  0
 14 16  1  0  0  0  0
 16 27  1  6  0  0  0
 18 19  2  0  0  0  0
 18 23  1  0  0  0  0
 19 20  1  0  0  0  0
 20 21  2  0  0  0  0
 21 22  1  0  0  0  0
 21 27  1  0  0  0  0
 22 23  2  0  0  0  0
 22 25  1  0  0  0  0
 23 24  1  0  0  0  0
 25 26  2  0  0  0  0
 26 27  1  0  0  0  0
M  END
>  <CHROM.1>
-14.40487895,57.63334579,-170.96812225,-80.51443556,-48.89434097,66.60604297
-81.64074163,-3.82879734,-10.64387415,17.78907777,-2.46813392,0.46554689
-1.05374810

>  <Name>
ligand

>  <RI>
0

>  <Rbt.Current_Directory>
/home/itssahil/PROJECTS/Mol_Feturizer/Test_systems_manuscript/rnas/4kqy

>  <Rbt.Executable>
rbdock ($Id: //depot/dev/client3/rdock/2013.1/src/exe/rbdock.cxx#4 $)

>  <Rbt.Library>
libRbt.so (2013.1, Build901 2013/11/27)

>  <Rbt.Parameter_File>
/export/apps/rDock/src/rDock_2013.1_src/data/scripts/dock_solv.prm

>  <Rbt.Receptor>
prm/pocket_docking_6.prm

>  <SCORE>
-8.85899

>  <SCORE.INTER>
-8.02285

>  <SCORE.INTER.CONST>
1

>  <SCORE.INTER.POLAR>
0

>  <SCORE.INTER.ROT>
7

>  <SCORE.INTER.SOLV>
9.52139

>  <SCORE.INTER.VDW>
-16.789

>  <SCORE.INTER.norm>
-0.297143

>  <SCORE.INTRA>
-0.840921

>  <SCORE.INTRA.DIHEDRAL>
-5.50346

>  <SCORE.INTRA.DIHEDRAL.0>
10.4103

>  <SCORE.INTRA.POLAR>
0

>  <SCORE.INTRA.POLAR.0>
0

>  <SCORE.INTRA.REPUL>
0

>  <SCORE.INTRA.REPUL.0>
0

>  <SCORE.INTRA.SOLV>
0.550598

>  <SCORE.INTRA.SOLV.lig_0>
-49.5008

>  <SCORE.INTRA.VDW>
1.63551

>  <SCORE.INTRA.VDW.0>
-2.6946

>  <SCORE.INTRA.norm>
-0.0311452

>  <SCORE.RESTR>
0.00477692

>  <SCORE.RESTR.CAVITY>
0.00477692

>  <SCORE.RESTR.norm>
0.000176923

>  <SCORE.SYSTEM>
0

>  <SCORE.SYSTEM.CONST>
0

>  <SCORE.SYSTEM.DIHEDRAL>
0

>  <SCORE.SYSTEM.SOLV>
0

>  <SCORE.SYSTEM.norm>
0

>  <SCORE.heavy>
27

>  <SCORE.norm>
-0.328111

>  <RMSD>
6.741

$$$$
ligand
 OpenBabel02271912153D
libRbt.so/2013.1/901 2013/11/27
 27 29  0  0  0  0  0  0  0  0999 V2000
   -2.8952   -8.7121   17.8191 N   0  0  0  0  0  0  0  0  0  0  0  0
   -3.5402   -9.8656   18.4173 C   0  0  2  0  0  0  0  0  0  0  0  0
   -4.7087   -9.3624   19.2076 C   0  0  0  0  0  0  0  0  0  0  0  0
   -5.8098   -9.9452   19.1067 O   0  0  0  0  0  0  0  0  0  0  0  0
   -2.5632  -10.6117   19.3299 C   0  0  0  0  0  0  0  0  0  0  0  0
   -3.1466  -11.9635   19.7977 C   0  0  0  0  0  0  0  0  0  0  0  0
   -4.2742  -11.8748   21.0371 S   0  0  2  0  0  0  0  0  0  0  0  0
   -3.5699  -11.1868   22.3747 C   0  0  0  0  0  0  0  0  0  0  0  0
   -4.8513  -13.4200   21.3943 C   0  0  0  0  0  0  0  0  0  0  0  0
   -6.0808  -13.8403   20.5615 C   0  0  1  0  0  0  0  0  0  0  0  0
   -6.5009  -15.1914   20.8142 O   0  0  0  0  0  0  0  0  0  0  0  0
   -7.3378  -13.0520   20.8926 C   0  0  1  0  0  0  0  0  0  0  0  0
   -7.4210  -11.6993   20.4007 O   0  0  0  0  0  0  0  0  0  0  0  0
   -8.3950  -13.9711   20.3324 C   0  0  1  0  0  0  0  0  0  0  0  0
   -8.3711  -13.9336   18.9087 O   0  0  0  0  0  0  0  0  0  0  0  0
   -7.9245  -15.3195   20.7912 C   0  0  2  0  0  0  0  0  0  0  0  0
   -4.5545   -8.3860   19.9797 O   0  0  0  0  0  0  0  0  0  0  0  0
   -7.3022  -16.9342   25.8193 N   0  0  0  0  0  0  0  0  0  0  0  0
   -6.3584  -16.6929   24.8772 C   0  0  0  0  0  0  0  0  0  0  0  0
   -6.6607  -16.2921   23.6308 N   0  0  0  0  0  0  0  0  0  0  0  0
   -7.9237  -16.0834   23.2428 C   0  0  0  0  0  0  0  0  0  0  0  0
   -8.9820  -16.3039   24.2168 C   0  0  0  0  0  0  0  0  0  0  0  0
   -8.6408  -16.7630   25.5832 C   0  0  0  0  0  0  0  0  0  0  0  0
   -9.6002  -16.9937   26.5470 N   0  0  0  0  0  0  0  0  0  0  0  0
  -10.1039  -16.0195   23.5951 N   0  0  0  0  0  0  0  0  0  0  0  0
   -9.8237  -15.6673   22.3328 C   0  0  0  0  0  0  0  0  0  0  0  0
   -8.5097  -15.6982   22.1138 N   0  0  0  0  0  0  0  0  0  0  0  0
  2  1  1  1  0  0  0
  2  3  1  0  0  0  0
  2  5  1  0  0  0  0
  3  4  1  0  0  0  0
  3 17  1  0  0  0  0
  5  6  1  0  0  0  0
  7  6  1  6  0  0  0
  7  8  1  0  0  0  0
  7  9  1  0  0  0  0
 10  9  1  1  0  0  0
 10 11  1  0  0  0  0
 10 12  1  0  0  0  0
 11 16  1  0  0  0  0
 12 13  1  6  0  0  0
 12 14  1  0  0  0  0
 14 15  1  6  0  0  0
 14 16  1  0  0  0  0
 16 27  1  1  0  0  0
 18 19  2  0  0  0  0
 18 23  1  0  0  0  0
 19 20  1  0  0  0  0
 20 21  2  0  0  0  0
 21 22  1  0  0  0  0
 21 27  1  0  0  0  0
 22 23  2  0  0  0  0
 22 25  1  0  0  0  0
 23 24  1  0  0  0  0
 25 26  2  0  0  0  0
 26 27  1  0  0  0  0
M  END
>  <CHROM.1>
134.49812427,-170.77837081,-78.16789522,-60.29438921,-88.98611355,175.97763727
-9.05675860,-6.36225473,-13.37516390,21.49550813,-0.98182780,0.46671054,2.19963560

>  <Name>
ligand

>  <RI>
0

>  <Rbt.Current_Directory>
/home/itssahil/PROJECTS/Mol_Feturizer/Test_systems_manuscript/rnas/4kqy

>  <Rbt.Executable>
rbdock ($Id: //depot/dev/client3/rdock/2013.1/src/exe/rbdock.cxx#4 $)

>  <Rbt.Library>
libRbt.so (2013.1, Build901 2013/11/27)

>  <Rbt.Parameter_File>
/export/apps/rDock/src/rDock_2013.1_src/data/scripts/dock_solv.prm

>  <Rbt.Receptor>
prm/pocket_docking_8.prm

>  <SCORE>
-20.567

>  <SCORE.INTER>
-17.7574

>  <SCORE.INTER.CONST>
1

>  <SCORE.INTER.POLAR>
0

>  <SCORE.INTER.ROT>
7

>  <SCORE.INTER.SOLV>
9.87465

>  <SCORE.INTER.VDW>
-23.3965

>  <SCORE.INTER.norm>
-0.657681

>  <SCORE.INTRA>
-2.84967

>  <SCORE.INTRA.DIHEDRAL>
-3.85832

>  <SCORE.INTRA.DIHEDRAL.0>
10.4103

>  <SCORE.INTRA.POLAR>
0

>  <SCORE.INTRA.POLAR.0>
0

>  <SCORE.INTRA.REPUL>
0

>  <SCORE.INTRA.REPUL.0>
0

>  <SCORE.INTRA.SOLV>
-0.191565

>  <SCORE.INTRA.SOLV.lig_0>
-49.5008

>  <SCORE.INTRA.VDW>
-0.824723

>  <SCORE.INTRA.VDW.0>
-2.6946

>  <SCORE.INTRA.norm>
-0.105543

>  <SCORE.RESTR>
0.0400379

>  <SCORE.RESTR.CAVITY>
0.0400379

>  <SCORE.RESTR.norm>
0.00148289

>  <SCORE.SYSTEM>
0

>  <SCORE.SYSTEM.CONST>
0

>  <SCORE.SYSTEM.DIHEDRAL>
0

>  <SCORE.SYSTEM.SOLV>
0

>  <SCORE.SYSTEM.norm>
0

>  <SCORE.heavy>
27

>  <SCORE.norm>
-0.761741

>  <RMSD>
6.743

$$$$
ligand
 OpenBabel02271912153D
libRbt.so/2013.1/901 2013/11/27
 27 29  0  0  0  0  0  0  0  0999 V2000
   -8.8733  -14.2447   19.6514 N   0  0  0  0  0  0  0  0  0  0  0  0
   -7.9773  -14.9543   20.5445 C   0  0  2  0  0  0  0  0  0  0  0  0
   -8.8072  -15.5047   21.6632 C   0  0  0  0  0  0  0  0  0  0  0  0
  -10.0191  -15.2057   21.7277 O   0  0  0  0  0  0  0  0  0  0  0  0
   -6.9072  -14.0067   21.0931 C   0  0  0  0  0  0  0  0  0  0  0  0
   -6.0195  -13.4410   19.9624 C   0  0  0  0  0  0  0  0  0  0  0  0
   -4.9051  -12.2774   20.4308 S   0  0  2  0  0  0  0  0  0  0  0  0
   -3.9317  -12.8962   21.6260 C   0  0  0  0  0  0  0  0  0  0  0  0
   -5.7139  -10.8991   20.9733 C   0  0  0  0  0  0  0  0  0  0  0  0
   -4.7978   -9.6758   21.1878 C   0  0  1  0  0  0  0  0  0  0  0  0
   -3.4184   -9.9412   20.8835 O   0  0  0  0  0  0  0  0  0  0  0  0
   -5.1079   -8.5134   20.2584 C   0  0  1  0  0  0  0  0  0  0  0  0
   -6.2834   -7.7298   20.5461 O   0  0  0  0  0  0  0  0  0  0  0  0
   -3.8184   -7.7356   20.3502 C   0  0  1  0  0  0  0  0  0  0  0  0
   -3.7204   -7.0994   21.6209 O   0  0  0  0  0  0  0  0  0  0  0  0
   -2.7834   -8.8182   20.2675 C   0  0  2  0  0  0  0  0  0  0  0  0
   -8.2801  -16.2799   22.4964 O   0  0  0  0  0  0  0  0  0  0  0  0
   -1.2002  -12.1887   16.4716 N   0  0  0  0  0  0  0  0  0  0  0  0
   -1.5215  -12.4468   17.7626 C   0  0  0  0  0  0  0  0  0  0  0  0
   -1.9025  -11.4877   18.6230 N   0  0  0  0  0  0  0  0  0  0  0  0
   -2.0103  -10.2073   18.2510 C   0  0  0  0  0  0  0  0  0  0  0  0
   -1.7003   -9.8697   16.8700 C   0  0  0  0  0  0  0  0  0  0  0  0
   -1.2637  -10.9307   15.9331 C   0  0  0  0  0  0  0  0  0  0  0  0
   -0.9515  -10.6707   14.6149 N   0  0  0  0  0  0  0  0  0  0  0  0
   -1.8959   -8.5746   16.7669 N   0  0  0  0  0  0  0  0  0  0  0  0
   -2.2757   -8.0964   17.9598 C   0  0  0  0  0  0  0  0  0  0  0  0
   -2.3523   -9.0763   18.8595 N   0  0  0  0  0  0  0  0  0  0  0  0
  2  1  1  6  0  0  0
  2  3  1  0  0  0  0
  2  5  1  0  0  0  0
  3  4  1  0  0  0  0
  3 17  1  0  0  0  0
  5  6  1  0  0  0  0
  7  6  1  1  0  0  0
  7  8  1  0  0  0  0
  7  9  1  0  0  0  0
 10  9  1  6  0  0  0
 10 11  1  0  0  0  0
 10 12  1  0  0  0  0
 11 16  1  0  0  0  0
 12 13  1  1  0  0  0
 12 14  1  0  0  0  0
 14 15  1  1  0  0  0
 14 16  1  0  0  0  0
 16 27  1  6  0  0  0
 18 19  2  0  0  0  0
 18 23  1  0  0  0  0
 19 20  1  0  0  0  0
 20 21  2  0  0  0  0
 21 22  1  0  0  0  0
 21 27  1  0  0  0  0
 22 23  2  0  0  0  0
 22 25  1  0  0  0  0
 23 24  1  0  0  0  0
 25 26  2  0  0  0  0
 26 27  1  0  0  0  0
M  END
>  <CHROM.1>
-5.69449924,-62.48618799,174.42255967,56.52177063,-169.49231717,-0.00515741
-27.49155040,-4.49785122,-11.28588162,19.66169580,-2.74920569,0.71954501
0.41748521

>  <Name>
ligand

>  <RI>
0

>  <Rbt.Current_Directory>
/home/itssahil/PROJECTS/Mol_Feturizer/Test_systems_manuscript/rnas/4kqy

>  <Rbt.Executable>
rbdock ($Id: //depot/dev/client3/rdock/2013.1/src/exe/rbdock.cxx#4 $)

>  <Rbt.Library>
libRbt.so (2013.1, Build901 2013/11/27)

>  <Rbt.Parameter_File>
/export/apps/rDock/src/rDock_2013.1_src/data/scripts/dock_solv.prm

>  <Rbt.Receptor>
prm/pocket_docking_6.prm

>  <SCORE>
-16.9747

>  <SCORE.INTER>
-17.378

>  <SCORE.INTER.CONST>
1

>  <SCORE.INTER.POLAR>
0

>  <SCORE.INTER.ROT>
7

>  <SCORE.INTER.SOLV>
11.4176

>  <SCORE.INTER.VDW>
-23.6579

>  <SCORE.INTER.norm>
-0.64363

>  <SCORE.INTRA>
0.403322

>  <SCORE.INTRA.DIHEDRAL>
-1.94169

>  <SCORE.INTRA.DIHEDRAL.0>
10.4103

>  <SCORE.INTRA.POLAR>
0

>  <SCORE.INTRA.POLAR.0>
0

>  <SCORE.INTRA.REPUL>
0

>  <SCORE.INTRA.REPUL.0>
0

>  <SCORE.INTRA.SOLV>
0.260194

>  <SCORE.INTRA.SOLV.lig_0>
-49.5008

>  <SCORE.INTRA.VDW>
1.24407

>  <SCORE.INTRA.VDW.0>
-2.6946

>  <SCORE.INTRA.norm>
0.0149378

>  <SCORE.RESTR>
0

>  <SCORE.RESTR.CAVITY>
0

>  <SCORE.RESTR.norm>
0

>  <SCORE.SYSTEM>
0

>  <SCORE.SYSTEM.CONST>
0

>  <SCORE.SYSTEM.DIHEDRAL>
0

>  <SCORE.SYSTEM.SOLV>
0

>  <SCORE.SYSTEM.norm>
0

>  <SCORE.heavy>
27

>  <SCORE.norm>
-0.628692

>  <RMSD>
6.744

$$$$
ligand
 OpenBabel02271912153D
libRbt.so/2013.1/901 2013/11/27
 27 29  0  0  0  0  0  0  0  0999 V2000
   -5.1831  -13.2770   19.0148 N   0  0  0  0  0  0  0  0  0  0  0  0
   -4.4512  -13.4913   20.2488 C   0  0  2  0  0  0  0  0  0  0  0  0
   -5.4593  -13.6036   21.3507 C   0  0  0  0  0  0  0  0  0  0  0  0
   -6.6016  -13.1247   21.1835 O   0  0  0  0  0  0  0  0  0  0  0  0
   -3.4994  -12.3223   20.5164 C   0  0  0  0  0  0  0  0  0  0  0  0
   -4.2487  -10.9713   20.5144 C   0  0  0  0  0  0  0  0  0  0  0  0
   -3.2967   -9.6155   20.7804 S   0  0  2  0  0  0  0  0  0  0  0  0
   -2.6967   -9.6585   22.3286 C   0  0  0  0  0  0  0  0  0  0  0  0
   -4.2118   -8.2191   20.5332 C   0  0  0  0  0  0  0  0  0  0  0  0
   -4.3666   -7.8230   19.0497 C   0  0  1  0  0  0  0  0  0  0  0  0
   -3.1115   -7.5629   18.3992 O   0  0  0  0  0  0  0  0  0  0  0  0
   -4.9482   -8.9280   18.1827 C   0  0  1  0  0  0  0  0  0  0  0  0
   -6.3616   -9.1875   18.2990 O   0  0  0  0  0  0  0  0  0  0  0  0
   -4.5251   -8.4558   16.8137 C   0  0  1  0  0  0  0  0  0  0  0  0
   -5.2950   -7.3210   16.4283 O   0  0  0  0  0  0  0  0  0  0  0  0
   -3.1072   -8.0249   17.0463 C   0  0  2  0  0  0  0  0  0  0  0  0
   -5.1504  -14.2030   22.4083 O   0  0  0  0  0  0  0  0  0  0  0  0
    0.3540  -10.5007   13.8579 N   0  0  0  0  0  0  0  0  0  0  0  0
   -0.3790   -9.3859   13.6202 C   0  0  0  0  0  0  0  0  0  0  0  0
   -1.2292   -8.8684   14.5228 N   0  0  0  0  0  0  0  0  0  0  0  0
   -1.3925   -9.4138   15.7333 C   0  0  0  0  0  0  0  0  0  0  0  0
   -0.6158  -10.6009   16.0571 C   0  0  0  0  0  0  0  0  0  0  0  0
    0.3058  -11.1750   15.0495 C   0  0  0  0  0  0  0  0  0  0  0  0
    1.0636  -12.3008   15.2967 N   0  0  0  0  0  0  0  0  0  0  0  0
   -0.9481  -10.9200   17.2874 N   0  0  0  0  0  0  0  0  0  0  0  0
   -1.8660  -10.0492   17.7291 C   0  0  0  0  0  0  0  0  0  0  0  0
   -2.1357   -9.1340   16.7990 N   0  0  0  0  0  0  0  0  0  0  0  0
  2  1  1  6  0  0  0
  2  3  1  0  0  0  0
  2  5  1  0  0  0  0
  3  4  1  0  0  0  0
  3 17  1  0  0  0  0
  5  6  1  0  0  0  0
  7  6  1  1  0  0  0
  7  8  1  0  0  0  0
  7  9  1  0  0  0  0
 10  9  1  1  0  0  0
 10 11  1  0  0  0  0
 10 12  1  0  0  0  0
 11 16  1  0  0  0  0
 12 13  1  6  0  0  0
 12 14  1  0  0  0  0
 14 15  1  1  0  0  0
 14 16  1  0  0  0  0
 16 27  1  1  0  0  0
 18 19  2  0  0  0  0
 18 23  1  0  0  0  0
 19 20  1  0  0  0  0
 20 21  2  0  0  0  0
 21 22  1  0  0  0  0
 21 27  1  0  0  0  0
 22 23  2  0  0  0  0
 22 25  1  0  0  0  0
 23 24  1  0  0  0  0
 25 26  2  0  0  0  0
 26 27  1  0  0  0  0
M  END
>  <CHROM.1>
-21.26067375,54.77236202,-179.29868186,-66.29670609,-80.65681901,-60.13779515
-144.88714262,-3.18420149,-10.26722203,18.32399824,-2.46109171,0.78888765
-0.49383970

>  <Name>
ligand

>  <RI>
0

>  <Rbt.Current_Directory>
/home/itssahil/PROJECTS/Mol_Feturizer/Test_systems_manuscript/rnas/4kqy

>  <Rbt.Executable>
rbdock ($Id: //depot/dev/client3/rdock/2013.1/src/exe/rbdock.cxx#4 $)

>  <Rbt.Library>
libRbt.so (2013.1, Build901 2013/11/27)

>  <Rbt.Parameter_File>
/export/apps/rDock/src/rDock_2013.1_src/data/scripts/dock_solv.prm

>  <Rbt.Receptor>
prm/pocket_docking_8.prm

>  <SCORE>
-16.7847

>  <SCORE.INTER>
-13.9712

>  <SCORE.INTER.CONST>
1

>  <SCORE.INTER.POLAR>
0

>  <SCORE.INTER.ROT>
7

>  <SCORE.INTER.SOLV>
11.4939

>  <SCORE.INTER.VDW>
-21.4121

>  <SCORE.INTER.norm>
-0.517452

>  <SCORE.INTRA>
-2.81352

>  <SCORE.INTRA.DIHEDRAL>
-6.03153

>  <SCORE.INTRA.DIHEDRAL.0>
10.4103

>  <SCORE.INTRA.POLAR>
0

>  <SCORE.INTRA.POLAR.0>
0

>  <SCORE.INTRA.REPUL>
0

>  <SCORE.INTRA.REPUL.0>
0

>  <SCORE.INTRA.SOLV>
0.645119

>  <SCORE.INTRA.SOLV.lig_0>
-49.5008

>  <SCORE.INTRA.VDW>
-0.120317

>  <SCORE.INTRA.VDW.0>
-2.6946

>  <SCORE.INTRA.norm>
-0.104205

>  <SCORE.RESTR>
0

>  <SCORE.RESTR.CAVITY>
0

>  <SCORE.RESTR.norm>
0

>  <SCORE.SYSTEM>
0

>  <SCORE.SYSTEM.CONST>
0

>  <SCORE.SYSTEM.DIHEDRAL>
0

>  <SCORE.SYSTEM.SOLV>
0

>  <SCORE.SYSTEM.norm>
0

>  <SCORE.heavy>
27

>  <SCORE.norm>
-0.621656

>  <RMSD>
6.748

$$$$
ligand
 OpenBabel02271912153D
libRbt.so/2013.1/901 2013/11/27
 27 29  0  0  0  0  0  0  0  0999 V2000
   -7.9572  -14.9034   21.4863 N   0  0  0  0  0  0  0  0  0  0  0  0
   -6.6791  -14.7334   20.8215 C   0  0  2  0  0  0  0  0  0  0  0  0
   -5.6631  -14.4325   21.8800 C   0  0  0  0  0  0  0  0  0  0  0  0
   -5.8402  -14.8699   23.0374 O   0  0  0  0  0  0  0  0  0  0  0  0
   -6.7499  -13.5853   19.8111 C   0  0  0  0  0  0  0  0  0  0  0  0
   -7.1407  -12.2554   20.4931 C   0  0  0  0  0  0  0  0  0  0  0  0
   -7.3157  -10.9398   19.4664 S   0  0  2  0  0  0  0  0  0  0  0  0
   -8.5764  -11.2198   18.4219 C   0  0  0  0  0  0  0  0  0  0  0  0
   -5.8804  -10.6859   18.6156 C   0  0  0  0  0  0  0  0  0  0  0  0
   -4.6182  -10.6650   19.5034 C   0  0  1  0  0  0  0  0  0  0  0  0
   -3.8672  -11.8893   19.4487 O   0  0  0  0  0  0  0  0  0  0  0  0
   -3.5839   -9.6406   19.0658 C   0  0  1  0  0  0  0  0  0  0  0  0
   -3.8574   -8.2555   19.3583 O   0  0  0  0  0  0  0  0  0  0  0  0
   -2.3544  -10.1786   19.7551 C   0  0  1  0  0  0  0  0  0  0  0  0
   -2.4418   -9.9515   21.1586 O   0  0  0  0  0  0  0  0  0  0  0  0
   -2.4582  -11.6520   19.4937 C   0  0  2  0  0  0  0  0  0  0  0  0
   -4.6384  -13.7745   21.5797 O   0  0  0  0  0  0  0  0  0  0  0  0
   -2.3794  -14.2761   14.8695 N   0  0  0  0  0  0  0  0  0  0  0  0
   -3.3734  -14.1927   15.7868 C   0  0  0  0  0  0  0  0  0  0  0  0
   -3.2536  -13.4927   16.9274 N   0  0  0  0  0  0  0  0  0  0  0  0
   -2.1423  -12.8095   17.2235 C   0  0  0  0  0  0  0  0  0  0  0  0
   -1.0465  -12.8416   16.2667 C   0  0  0  0  0  0  0  0  0  0  0  0
   -1.1805  -13.6305   15.0202 C   0  0  0  0  0  0  0  0  0  0  0  0
   -0.1747  -13.7030   14.0790 N   0  0  0  0  0  0  0  0  0  0  0  0
   -0.0993  -12.0923   16.7839 N   0  0  0  0  0  0  0  0  0  0  0  0
   -0.5128  -11.6274   17.9708 C   0  0  0  0  0  0  0  0  0  0  0  0
   -1.7468  -12.0513   18.2409 N   0  0  0  0  0  0  0  0  0  0  0  0
  2  1  1  1  0  0  0
  2  3  1  0  0  0  0
  2  5  1  0  0  0  0
  3  4  1  0  0  0  0
  3 17  1  0  0  0  0
  5  6  1  0  0  0  0
  7  6  1  1  0  0  0
  7  8  1  0  0  0  0
  7  9  1  0  0  0  0
 10  9  1  6  0  0  0
 10 11  1  0  0  0  0
 10 12  1  0  0  0  0
 11 16  1  0  0  0  0
 12 13  1  1  0  0  0
 12 14  1  0  0  0  0
 14 15  1  1  0  0  0
 14 16  1  0  0  0  0
 16 27  1  6  0  0  0
 18 19  2  0  0  0  0
 18 23  1  0  0  0  0
 19 20  1  0  0  0  0
 20 21  2  0  0  0  0
 21 22  1  0  0  0  0
 21 27  1  0  0  0  0
 22 23  2  0  0  0  0
 22 25  1  0  0  0  0
 23 24  1  0  0  0  0
 25 26  2  0  0  0  0
 26 27  1  0  0  0  0
M  END
>  <CHROM.1>
28.08489595,58.75672994,-177.36491901,63.94781218,-48.96275636,102.02364886
-14.90204368,-4.13283013,-12.28326424,18.87935552,2.92149475,0.66049317,0.36984004

>  <Name>
ligand

>  <RI>
0

>  <Rbt.Current_Directory>
/home/itssahil/PROJECTS/Mol_Feturizer/Test_systems_manuscript/rnas/4kqy

>  <Rbt.Executable>
rbdock ($Id: //depot/dev/client3/rdock/2013.1/src/exe/rbdock.cxx#4 $)

>  <Rbt.Library>
libRbt.so (2013.1, Build901 2013/11/27)

>  <Rbt.Parameter_File>
/export/apps/rDock/src/rDock_2013.1_src/data/scripts/dock_solv.prm

>  <Rbt.Receptor>
prm/pocket_docking_6.prm

>  <SCORE>
-11.9134

>  <SCORE.INTER>
-11.5561

>  <SCORE.INTER.CONST>
1

>  <SCORE.INTER.POLAR>
0

>  <SCORE.INTER.ROT>
7

>  <SCORE.INTER.SOLV>
10.6915

>  <SCORE.INTER.VDW>
-19.5346

>  <SCORE.INTER.norm>
-0.428005

>  <SCORE.INTRA>
-0.357271

>  <SCORE.INTRA.DIHEDRAL>
-3.18256

>  <SCORE.INTRA.DIHEDRAL.0>
10.4103

>  <SCORE.INTRA.POLAR>
0

>  <SCORE.INTRA.POLAR.0>
0

>  <SCORE.INTRA.REPUL>
0

>  <SCORE.INTRA.REPUL.0>
0

>  <SCORE.INTRA.SOLV>
0.298804

>  <SCORE.INTRA.SOLV.lig_0>
-49.5008

>  <SCORE.INTRA.VDW>
1.0846

>  <SCORE.INTRA.VDW.0>
-2.6946

>  <SCORE.INTRA.norm>
-0.0132323

>  <SCORE.RESTR>
0

>  <SCORE.RESTR.CAVITY>
0

>  <SCORE.RESTR.norm>
0

>  <SCORE.SYSTEM>
0

>  <SCORE.SYSTEM.CONST>
0

>  <SCORE.SYSTEM.DIHEDRAL>
0

>  <SCORE.SYSTEM.SOLV>
0

>  <SCORE.SYSTEM.norm>
0

>  <SCORE.heavy>
27

>  <SCORE.norm>
-0.441237

>  <RMSD>
6.749

$$$$
ligand
 OpenBabel02271912153D
libRbt.so/2013.1/901 2013/11/27
 27 29  0  0  0  0  0  0  0  0999 V2000
   -6.7911  -14.3115   20.2275 N   0  0  0  0  0  0  0  0  0  0  0  0
   -6.5463  -13.0696   20.9360 C   0  0  2  0  0  0  0  0  0  0  0  0
   -7.3941  -12.0156   20.2930 C   0  0  0  0  0  0  0  0  0  0  0  0
   -7.8769  -11.1055   21.0007 O   0  0  0  0  0  0  0  0  0  0  0  0
   -5.0663  -12.6869   20.8496 C   0  0  0  0  0  0  0  0  0  0  0  0
   -4.7972  -11.3167   21.5103 C   0  0  0  0  0  0  0  0  0  0  0  0
   -3.1839  -10.8677   21.6139 S   0  0  2  0  0  0  0  0  0  0  0  0
   -3.0492   -9.5108   22.5623 C   0  0  0  0  0  0  0  0  0  0  0  0
   -2.5722  -10.5786   20.0677 C   0  0  0  0  0  0  0  0  0  0  0  0
   -3.0792   -9.2702   19.4253 C   0  0  1  0  0  0  0  0  0  0  0  0
   -2.0555   -8.5553   18.7133 O   0  0  0  0  0  0  0  0  0  0  0  0
   -4.1227   -9.4893   18.3418 C   0  0  1  0  0  0  0  0  0  0  0  0
   -5.4552   -9.8406   18.7658 O   0  0  0  0  0  0  0  0  0  0  0  0
   -4.0423   -8.1717   17.6113 C   0  0  1  0  0  0  0  0  0  0  0  0
   -4.6257   -7.1389   18.3999 O   0  0  0  0  0  0  0  0  0  0  0  0
   -2.5625   -7.9412   17.5261 C   0  0  2  0  0  0  0  0  0  0  0  0
   -7.5786  -12.0464   19.0527 O   0  0  0  0  0  0  0  0  0  0  0  0
    0.1929  -11.7291   15.0092 N   0  0  0  0  0  0  0  0  0  0  0  0
   -0.1280  -11.6369   16.3226 C   0  0  0  0  0  0  0  0  0  0  0  0
   -0.8305  -10.6097   16.8293 N   0  0  0  0  0  0  0  0  0  0  0  0
   -1.2806   -9.6133   16.0585 C   0  0  0  0  0  0  0  0  0  0  0  0
   -0.9874   -9.6668   14.6342 C   0  0  0  0  0  0  0  0  0  0  0  0
   -0.1969  -10.7937   14.0873 C   0  0  0  0  0  0  0  0  0  0  0  0
    0.1167  -10.8958   12.7478 N   0  0  0  0  0  0  0  0  0  0  0  0
   -1.5441   -8.5960   14.1150 N   0  0  0  0  0  0  0  0  0  0  0  0
   -2.1284   -7.8921   15.0943 C   0  0  0  0  0  0  0  0  0  0  0  0
   -1.9784   -8.5021   16.2694 N   0  0  0  0  0  0  0  0  0  0  0  0
  2  1  1  6  0  0  0
  2  3  1  0  0  0  0
  2  5  1  0  0  0  0
  3  4  1  0  0  0  0
  3 17  1  0  0  0  0
  5  6  1  0  0  0  0
  7  6  1  6  0  0  0
  7  8  1  0  0  0  0
  7  9  1  0  0  0  0
 10  9  1  6  0  0  0
 10 11  1  0  0  0  0
 10 12  1  0  0  0  0
 11 16  1  0  0  0  0
 12 13  1  1  0  0  0
 12 14  1  0  0  0  0
 14 15  1  1  0  0  0
 14 16  1  0  0  0  0
 16 27  1  6  0  0  0
 18 19  2  0  0  0  0
 18 23  1  0  0  0  0
 19 20  1  0  0  0  0
 20 21  2  0  0  0  0
 21 22  1  0  0  0  0
 21 27  1  0  0  0  0
 22 23  2  0  0  0  0
 22 25  1  0  0  0  0
 23 24  1  0  0  0  0
 25 26  2  0  0  0  0
 26 27  1  0  0  0  0
M  END
>  <CHROM.1>
145.84654250,175.94590856,173.99026337,-170.66231813,72.92381555,139.32697435
14.39412486,-3.39690040,-10.31105515,18.33307334,2.96290443,0.87342027,0.54207899

>  <Name>
ligand

>  <RI>
0

>  <Rbt.Current_Directory>
/home/itssahil/PROJECTS/Mol_Feturizer/Test_systems_manuscript/rnas/4kqy

>  <Rbt.Executable>
rbdock ($Id: //depot/dev/client3/rdock/2013.1/src/exe/rbdock.cxx#4 $)

>  <Rbt.Library>
libRbt.so (2013.1, Build901 2013/11/27)

>  <Rbt.Parameter_File>
/export/apps/rDock/src/rDock_2013.1_src/data/scripts/dock_solv.prm

>  <Rbt.Receptor>
prm/pocket_docking_8.prm

>  <SCORE>
-19.9823

>  <SCORE.INTER>
-17.9578

>  <SCORE.INTER.CONST>
1

>  <SCORE.INTER.POLAR>
0

>  <SCORE.INTER.ROT>
7

>  <SCORE.INTER.SOLV>
9.74221

>  <SCORE.INTER.VDW>
-23.4859

>  <SCORE.INTER.norm>
-0.665104

>  <SCORE.INTRA>
-2.02719

>  <SCORE.INTRA.DIHEDRAL>
-2.92381

>  <SCORE.INTRA.DIHEDRAL.0>
10.4103

>  <SCORE.INTRA.POLAR>
0

>  <SCORE.INTRA.POLAR.0>
0

>  <SCORE.INTRA.REPUL>
0

>  <SCORE.INTRA.REPUL.0>
0

>  <SCORE.INTRA.SOLV>
0.0286355

>  <SCORE.INTRA.SOLV.lig_0>
-49.5008

>  <SCORE.INTRA.VDW>
-0.579596

>  <SCORE.INTRA.VDW.0>
-2.6946

>  <SCORE.INTRA.norm>
-0.075081

>  <SCORE.RESTR>
0.00265324

>  <SCORE.RESTR.CAVITY>
0.00265324

>  <SCORE.RESTR.norm>
9.82683e-05

>  <SCORE.SYSTEM>
0

>  <SCORE.SYSTEM.CONST>
0

>  <SCORE.SYSTEM.DIHEDRAL>
0

>  <SCORE.SYSTEM.SOLV>
0

>  <SCORE.SYSTEM.norm>
0

>  <SCORE.heavy>
27

>  <SCORE.norm>
-0.740087

>  <RMSD>
6.767

$$$$
ligand
 OpenBabel02271912153D
libRbt.so/2013.1/901 2013/11/27
 27 29  0  0  0  0  0  0  0  0999 V2000
   -8.4358  -13.0890   19.4948 N   0  0  0  0  0  0  0  0  0  0  0  0
   -7.0025  -13.2899   19.5924 C   0  0  2  0  0  0  0  0  0  0  0  0
   -6.7747  -14.7430   19.8748 C   0  0  0  0  0  0  0  0  0  0  0  0
   -5.6701  -15.2538   19.5902 O   0  0  0  0  0  0  0  0  0  0  0  0
   -6.4172  -12.4319   20.7173 C   0  0  0  0  0  0  0  0  0  0  0  0
   -6.6383  -10.9259   20.4531 C   0  0  0  0  0  0  0  0  0  0  0  0
   -5.3941  -10.1429   19.6443 S   0  0  2  0  0  0  0  0  0  0  0  0
   -5.6796   -8.5067   19.6460 C   0  0  0  0  0  0  0  0  0  0  0  0
   -5.2836  -10.7282   18.0652 C   0  0  0  0  0  0  0  0  0  0  0  0
   -4.6346  -12.1241   17.9558 C   0  0  1  0  0  0  0  0  0  0  0  0
   -4.6334  -12.6446   16.6160 O   0  0  0  0  0  0  0  0  0  0  0  0
   -3.1539  -12.1350   18.2998 C   0  0  1  0  0  0  0  0  0  0  0  0
   -2.7961  -12.0373   19.6930 O   0  0  0  0  0  0  0  0  0  0  0  0
   -2.7296  -13.4288   17.6501 C   0  0  1  0  0  0  0  0  0  0  0  0
   -3.2291  -14.5363   18.3936 O   0  0  0  0  0  0  0  0  0  0  0  0
   -3.4368  -13.3719   16.3284 C   0  0  2  0  0  0  0  0  0  0  0  0
   -7.6837  -15.4136   20.4201 O   0  0  0  0  0  0  0  0  0  0  0  0
   -1.4323   -9.0237   14.0152 N   0  0  0  0  0  0  0  0  0  0  0  0
   -2.2508   -9.1179   15.0912 C   0  0  0  0  0  0  0  0  0  0  0  0
   -2.6911  -10.2939   15.5693 N   0  0  0  0  0  0  0  0  0  0  0  0
   -2.3292  -11.4593   15.0213 C   0  0  0  0  0  0  0  0  0  0  0  0
   -1.4327  -11.4253   13.8757 C   0  0  0  0  0  0  0  0  0  0  0  0
   -0.9666  -10.1236   13.3442 C   0  0  0  0  0  0  0  0  0  0  0  0
   -0.1211  -10.0280   12.2585 N   0  0  0  0  0  0  0  0  0  0  0  0
   -1.2282  -12.6803   13.5454 N   0  0  0  0  0  0  0  0  0  0  0  0
   -1.9319  -13.4669   14.3711 C   0  0  0  0  0  0  0  0  0  0  0  0
   -2.5949  -12.7379   15.2681 N   0  0  0  0  0  0  0  0  0  0  0  0
  2  1  1  1  0  0  0
  2  3  1  0  0  0  0
  2  5  1  0  0  0  0
  3  4  1  0  0  0  0
  3 17  1  0  0  0  0
  5  6  1  0  0  0  0
  7  6  1  6  0  0  0
  7  8  1  0  0  0  0
  7  9  1  0  0  0  0
 10  9  1  6  0  0  0
 10 11  1  0  0  0  0
 10 12  1  0  0  0  0
 11 16  1  0  0  0  0
 12 13  1  1  0  0  0
 12 14  1  0  0  0  0
 14 15  1  1  0  0  0
 14 16  1  0  0  0  0
 16 27  1  6  0  0  0
 18 19  2  0  0  0  0
 18 23  1  0  0  0  0
 19 20  1  0  0  0  0
 20 21  2  0  0  0  0
 21 22  1  0  0  0  0
 21 27  1  0  0  0  0
 22 23  2  0  0  0  0
 22 25  1  0  0  0  0
 23 24  1  0  0  0  0
 25 26  2  0  0  0  0
 26 27  1  0  0  0  0
M  END
>  <CHROM.1>
157.41074512,-61.51476262,-92.25602163,-171.44563440,-75.59759524,175.94189772
38.44042007,-4.07854812,-11.99439703,17.42825707,2.92195881,-0.87249625,-3.08585540

>  <Name>
ligand

>  <RI>
0

>  <Rbt.Current_Directory>
/home/itssahil/PROJECTS/Mol_Feturizer/Test_systems_manuscript/rnas/4kqy

>  <Rbt.Executable>
rbdock ($Id: //depot/dev/client3/rdock/2013.1/src/exe/rbdock.cxx#4 $)

>  <Rbt.Library>
libRbt.so (2013.1, Build901 2013/11/27)

>  <Rbt.Parameter_File>
/export/apps/rDock/src/rDock_2013.1_src/data/scripts/dock_solv.prm

>  <Rbt.Receptor>
prm/pocket_docking_6.prm

>  <SCORE>
-9.57653

>  <SCORE.INTER>
-6.77755

>  <SCORE.INTER.CONST>
1

>  <SCORE.INTER.POLAR>
0

>  <SCORE.INTER.ROT>
7

>  <SCORE.INTER.SOLV>
7.96602

>  <SCORE.INTER.VDW>
-15.4404

>  <SCORE.INTER.norm>
-0.25102

>  <SCORE.INTRA>
-2.79898

>  <SCORE.INTRA.DIHEDRAL>
-3.67195

>  <SCORE.INTRA.DIHEDRAL.0>
10.4103

>  <SCORE.INTRA.POLAR>
0

>  <SCORE.INTRA.POLAR.0>
0

>  <SCORE.INTRA.REPUL>
0

>  <SCORE.INTRA.REPUL.0>
0

>  <SCORE.INTRA.SOLV>
1.71937

>  <SCORE.INTRA.SOLV.lig_0>
-49.5008

>  <SCORE.INTRA.VDW>
-1.82269

>  <SCORE.INTRA.VDW.0>
-2.6946

>  <SCORE.INTRA.norm>
-0.103666

>  <SCORE.RESTR>
0

>  <SCORE.RESTR.CAVITY>
0

>  <SCORE.RESTR.norm>
0

>  <SCORE.SYSTEM>
0

>  <SCORE.SYSTEM.CONST>
0

>  <SCORE.SYSTEM.DIHEDRAL>
0

>  <SCORE.SYSTEM.SOLV>
0

>  <SCORE.SYSTEM.norm>
0

>  <SCORE.heavy>
27

>  <SCORE.norm>
-0.354686

>  <RMSD>
6.773

$$$$
ligand
 OpenBabel02271912153D
libRbt.so/2013.1/901 2013/11/27
 27 29  0  0  0  0  0  0  0  0999 V2000
   -3.1108   -9.3290   21.5990 N   0  0  0  0  0  0  0  0  0  0  0  0
   -2.9867   -8.5497   20.3818 C   0  0  2  0  0  0  0  0  0  0  0  0
   -4.1932   -7.6668   20.2934 C   0  0  0  0  0  0  0  0  0  0  0  0
   -5.3051   -8.1772   20.0378 O   0  0  0  0  0  0  0  0  0  0  0  0
   -2.9121   -9.4714   19.1616 C   0  0  0  0  0  0  0  0  0  0  0  0
   -2.5320   -8.6893   17.8847 C   0  0  0  0  0  0  0  0  0  0  0  0
   -2.9312   -9.4333   16.4347 S   0  0  2  0  0  0  0  0  0  0  0  0
   -2.0860   -8.7175   15.1970 C   0  0  0  0  0  0  0  0  0  0  0  0
   -4.5938   -9.3123   16.1707 C   0  0  0  0  0  0  0  0  0  0  0  0
   -5.2044  -10.5263   15.4391 C   0  0  1  0  0  0  0  0  0  0  0  0
   -4.6447  -10.7402   14.1327 O   0  0  0  0  0  0  0  0  0  0  0  0
   -4.9229  -11.8538   16.1242 C   0  0  1  0  0  0  0  0  0  0  0  0
   -5.6686  -12.1535   17.3213 O   0  0  0  0  0  0  0  0  0  0  0  0
   -5.1830  -12.8111   14.9876 C   0  0  1  0  0  0  0  0  0  0  0  0
   -6.5805  -12.8883   14.7233 O   0  0  0  0  0  0  0  0  0  0  0  0
   -4.5069  -12.1314   13.8338 C   0  0  2  0  0  0  0  0  0  0  0  0
   -4.0725   -6.4369   20.5080 O   0  0  0  0  0  0  0  0  0  0  0  0
    0.0942  -13.7115   15.9806 N   0  0  0  0  0  0  0  0  0  0  0  0
   -1.0684  -13.3872   16.5967 C   0  0  0  0  0  0  0  0  0  0  0  0
   -2.1627  -12.9929   15.9240 N   0  0  0  0  0  0  0  0  0  0  0  0
   -2.1810  -12.9147   14.5887 C   0  0  0  0  0  0  0  0  0  0  0  0
   -0.9686  -13.2720   13.8677 C   0  0  0  0  0  0  0  0  0  0  0  0
    0.2385  -13.6883   14.6184 C   0  0  0  0  0  0  0  0  0  0  0  0
    1.4174  -14.0334   13.9907 N   0  0  0  0  0  0  0  0  0  0  0  0
   -1.2545  -13.1244   12.5940 N   0  0  0  0  0  0  0  0  0  0  0  0
   -2.5182  -12.6932   12.4796 C   0  0  0  0  0  0  0  0  0  0  0  0
   -3.0859  -12.5693   13.6787 N   0  0  0  0  0  0  0  0  0  0  0  0
  2  1  1  1  0  0  0
  2  3  1  0  0  0  0
  2  5  1  0  0  0  0
  3  4  1  0  0  0  0
  3 17  1  0  0  0  0
  5  6  1  0  0  0  0
  7  6  1  1  0  0  0
  7  8  1  0  0  0  0
  7  9  1  0  0  0  0
 10  9  1  1  0  0  0
 10 11  1  0  0  0  0
 10 12  1  0  0  0  0
 11 16  1  0  0  0  0
 12 13  1  1  0  0  0
 12 14  1  0  0  0  0
 14 15  1  6  0  0  0
 14 16  1  0  0  0  0
 16 27  1  1  0  0  0
 18 19  2  0  0  0  0
 18 23  1  0  0  0  0
 19 20  1  0  0  0  0
 20 21  2  0  0  0  0
 21 22  1  0  0  0  0
 21 27  1  0  0  0  0
 22 23  2  0  0  0  0
 22 25  1  0  0  0  0
 23 24  1  0  0  0  0
 25 26  2  0  0  0  0
 26 27  1  0  0  0  0
M  END
>  <CHROM.1>
-71.16572917,-169.98940937,-159.46337612,-163.53552695,-146.27852084,-60.55826683
83.02991103,-3.13865083,-11.00995528,16.30383308,-1.86616207,0.22264741,-2.21636876

>  <Name>
ligand

>  <RI>
0

>  <Rbt.Current_Directory>
/home/itssahil/PROJECTS/Mol_Feturizer/Test_systems_manuscript/rnas/4kqy

>  <Rbt.Executable>
rbdock ($Id: //depot/dev/client3/rdock/2013.1/src/exe/rbdock.cxx#4 $)

>  <Rbt.Library>
libRbt.so (2013.1, Build901 2013/11/27)

>  <Rbt.Parameter_File>
/export/apps/rDock/src/rDock_2013.1_src/data/scripts/dock_solv.prm

>  <Rbt.Receptor>
prm/pocket_docking_6.prm

>  <SCORE>
-12.0761

>  <SCORE.INTER>
-9.35667

>  <SCORE.INTER.CONST>
1

>  <SCORE.INTER.POLAR>
0

>  <SCORE.INTER.ROT>
7

>  <SCORE.INTER.SOLV>
12.8602

>  <SCORE.INTER.VDW>
-18.7912

>  <SCORE.INTER.norm>
-0.346543

>  <SCORE.INTRA>
-2.71943

>  <SCORE.INTRA.DIHEDRAL>
-2.29712

>  <SCORE.INTRA.DIHEDRAL.0>
10.4103

>  <SCORE.INTRA.POLAR>
0

>  <SCORE.INTRA.POLAR.0>
0

>  <SCORE.INTRA.REPUL>
0

>  <SCORE.INTRA.REPUL.0>
0

>  <SCORE.INTRA.SOLV>
-0.328646

>  <SCORE.INTRA.SOLV.lig_0>
-49.5008

>  <SCORE.INTRA.VDW>
-1.40654

>  <SCORE.INTRA.VDW.0>
-2.6946

>  <SCORE.INTRA.norm>
-0.10072

>  <SCORE.RESTR>
0

>  <SCORE.RESTR.CAVITY>
0

>  <SCORE.RESTR.norm>
0

>  <SCORE.SYSTEM>
0

>  <SCORE.SYSTEM.CONST>
0

>  <SCORE.SYSTEM.DIHEDRAL>
0

>  <SCORE.SYSTEM.SOLV>
0

>  <SCORE.SYSTEM.norm>
0

>  <SCORE.heavy>
27

>  <SCORE.norm>
-0.447263

>  <RMSD>
6.799

$$$$
ligand
 OpenBabel02271912153D
libRbt.so/2013.1/901 2013/11/27
 27 29  0  0  0  0  0  0  0  0999 V2000
   -8.7254  -15.0613   19.7047 N   0  0  0  0  0  0  0  0  0  0  0  0
   -7.6914  -15.5875   20.5754 C   0  0  2  0  0  0  0  0  0  0  0  0
   -8.2252  -15.5496   21.9742 C   0  0  0  0  0  0  0  0  0  0  0  0
   -9.4386  -15.3122   22.1578 O   0  0  0  0  0  0  0  0  0  0  0  0
   -6.4201  -14.7409   20.4688 C   0  0  0  0  0  0  0  0  0  0  0  0
   -6.7167  -13.2433   20.7045 C   0  0  0  0  0  0  0  0  0  0  0  0
   -5.3736  -12.2389   20.7559 S   0  0  2  0  0  0  0  0  0  0  0  0
   -4.4456  -12.6269   22.0776 C   0  0  0  0  0  0  0  0  0  0  0  0
   -5.8694  -10.6272   20.8268 C   0  0  0  0  0  0  0  0  0  0  0  0
   -4.7203   -9.6257   21.0685 C   0  0  1  0  0  0  0  0  0  0  0  0
   -3.4643  -10.0627   20.5231 O   0  0  0  0  0  0  0  0  0  0  0  0
   -4.9202   -8.2906   20.3697 C   0  0  1  0  0  0  0  0  0  0  0  0
   -5.8823   -7.3809   20.9405 O   0  0  0  0  0  0  0  0  0  0  0  0
   -3.5064   -7.7639   20.3720 C   0  0  1  0  0  0  0  0  0  0  0  0
   -3.1327   -7.3720   21.6895 O   0  0  0  0  0  0  0  0  0  0  0  0
   -2.7118   -8.9747   19.9813 C   0  0  2  0  0  0  0  0  0  0  0  0
   -7.4534  -15.7875   22.9339 O   0  0  0  0  0  0  0  0  0  0  0  0
   -2.2447  -11.8882   15.5576 N   0  0  0  0  0  0  0  0  0  0  0  0
   -2.4389  -12.2996   16.8341 C   0  0  0  0  0  0  0  0  0  0  0  0
   -2.5321  -11.4456   17.8672 N   0  0  0  0  0  0  0  0  0  0  0  0
   -2.4593  -10.1208   17.6974 C   0  0  0  0  0  0  0  0  0  0  0  0
   -2.2736   -9.6155   16.3455 C   0  0  0  0  0  0  0  0  0  0  0  0
   -2.1539  -10.5650   15.2148 C   0  0  0  0  0  0  0  0  0  0  0  0
   -1.9717  -10.1459   13.9133 N   0  0  0  0  0  0  0  0  0  0  0  0
   -2.2497   -8.3065   16.4540 N   0  0  0  0  0  0  0  0  0  0  0  0
   -2.3838   -7.9753   17.7456 C   0  0  0  0  0  0  0  0  0  0  0  0
   -2.5162   -9.0644   18.5018 N   0  0  0  0  0  0  0  0  0  0  0  0
  2  1  1  6  0  0  0
  2  3  1  0  0  0  0
  2  5  1  0  0  0  0
  3  4  1  0  0  0  0
  3 17  1  0  0  0  0
  5  6  1  0  0  0  0
  7  6  1  1  0  0  0
  7  8  1  0  0  0  0
  7  9  1  0  0  0  0
 10  9  1  6  0  0  0
 10 11  1  0  0  0  0
 10 12  1  0  0  0  0
 11 16  1  0  0  0  0
 12 13  1  1  0  0  0
 12 14  1  0  0  0  0
 14 15  1  1  0  0  0
 14 16  1  0  0  0  0
 16 27  1  6  0  0  0
 18 19  2  0  0  0  0
 18 23  1  0  0  0  0
 19 20  1  0  0  0  0
 20 21  2  0  0  0  0
 21 22  1  0  0  0  0
 21 27  1  0  0  0  0
 22 23  2  0  0  0  0
 22 25  1  0  0  0  0
 23 24  1  0  0  0  0
 25 26  2  0  0  0  0
 26 27  1  0  0  0  0
M  END
>  <CHROM.1>
11.07975156,52.99392876,174.41829073,-65.31944413,172.20525235,30.46310041
-28.19696425,-4.62421605,-11.24560092,19.54838525,-2.95028610,0.91489098
0.69409251

>  <Name>
ligand

>  <RI>
0

>  <Rbt.Current_Directory>
/home/itssahil/PROJECTS/Mol_Feturizer/Test_systems_manuscript/rnas/4kqy

>  <Rbt.Executable>
rbdock ($Id: //depot/dev/client3/rdock/2013.1/src/exe/rbdock.cxx#4 $)

>  <Rbt.Library>
libRbt.so (2013.1, Build901 2013/11/27)

>  <Rbt.Parameter_File>
/export/apps/rDock/src/rDock_2013.1_src/data/scripts/dock_solv.prm

>  <Rbt.Receptor>
prm/pocket_docking_5.prm

>  <SCORE>
-15.211

>  <SCORE.INTER>
-14.8809

>  <SCORE.INTER.CONST>
1

>  <SCORE.INTER.POLAR>
0

>  <SCORE.INTER.ROT>
7

>  <SCORE.INTER.SOLV>
13.6777

>  <SCORE.INTER.VDW>
-22.7465

>  <SCORE.INTER.norm>
-0.551146

>  <SCORE.INTRA>
-0.335839

>  <SCORE.INTRA.DIHEDRAL>
-4.55775

>  <SCORE.INTRA.DIHEDRAL.0>
10.4103

>  <SCORE.INTRA.POLAR>
0

>  <SCORE.INTRA.POLAR.0>
0

>  <SCORE.INTRA.REPUL>
0

>  <SCORE.INTRA.REPUL.0>
0

>  <SCORE.INTRA.SOLV>
0.260497

>  <SCORE.INTRA.SOLV.lig_0>
-49.5008

>  <SCORE.INTRA.VDW>
1.81279

>  <SCORE.INTRA.VDW.0>
-2.6946

>  <SCORE.INTRA.norm>
-0.0124385

>  <SCORE.RESTR>
0.00581842

>  <SCORE.RESTR.CAVITY>
0.00581842

>  <SCORE.RESTR.norm>
0.000215497

>  <SCORE.SYSTEM>
0

>  <SCORE.SYSTEM.CONST>
0

>  <SCORE.SYSTEM.DIHEDRAL>
0

>  <SCORE.SYSTEM.SOLV>
0

>  <SCORE.SYSTEM.norm>
0

>  <SCORE.heavy>
27

>  <SCORE.norm>
-0.563369

>  <RMSD>
6.805

$$$$
ligand
 OpenBabel02271912153D
libRbt.so/2013.1/901 2013/11/27
 27 29  0  0  0  0  0  0  0  0999 V2000
    0.1257  -11.7126    9.9604 N   0  0  0  0  0  0  0  0  0  0  0  0
   -0.3951  -12.0293   11.2767 C   0  0  2  0  0  0  0  0  0  0  0  0
   -0.1006  -13.4746   11.5363 C   0  0  0  0  0  0  0  0  0  0  0  0
    0.9891  -13.7903   12.0609 O   0  0  0  0  0  0  0  0  0  0  0  0
   -1.9043  -11.7766   11.3301 C   0  0  0  0  0  0  0  0  0  0  0  0
   -2.4404  -11.8585   12.7767 C   0  0  0  0  0  0  0  0  0  0  0  0
   -2.3813  -10.4284   13.6522 S   0  0  2  0  0  0  0  0  0  0  0  0
   -0.8127   -9.8864   13.7173 C   0  0  0  0  0  0  0  0  0  0  0  0
   -2.9892  -10.6856   15.2056 C   0  0  0  0  0  0  0  0  0  0  0  0
   -3.5203   -9.4096   15.8923 C   0  0  1  0  0  0  0  0  0  0  0  0
   -4.5241   -8.7279   15.1218 O   0  0  0  0  0  0  0  0  0  0  0  0
   -4.2536   -9.6810   17.1960 C   0  0  1  0  0  0  0  0  0  0  0  0
   -3.4548  -10.0136   18.3493 O   0  0  0  0  0  0  0  0  0  0  0  0
   -5.0356   -8.3994   17.3443 C   0  0  1  0  0  0  0  0  0  0  0  0
   -4.1615   -7.3311   17.6964 O   0  0  0  0  0  0  0  0  0  0  0  0
   -5.5459   -8.1712   15.9523 C   0  0  2  0  0  0  0  0  0  0  0  0
   -0.9639  -14.3390   11.2524 O   0  0  0  0  0  0  0  0  0  0  0  0
   -8.5387  -12.3894   14.7168 N   0  0  0  0  0  0  0  0  0  0  0  0
   -7.1891  -12.2935   14.7946 C   0  0  0  0  0  0  0  0  0  0  0  0
   -6.5583  -11.1511   15.1143 N   0  0  0  0  0  0  0  0  0  0  0  0
   -7.2294  -10.0297   15.3997 C   0  0  0  0  0  0  0  0  0  0  0  0
   -8.6832  -10.0745   15.3552 C   0  0  0  0  0  0  0  0  0  0  0  0
   -9.3697  -11.3336   14.9843 C   0  0  0  0  0  0  0  0  0  0  0  0
  -10.7438  -11.4356   14.9201 N   0  0  0  0  0  0  0  0  0  0  0  0
   -9.0875   -8.8685   15.6836 N   0  0  0  0  0  0  0  0  0  0  0  0
   -8.0150   -8.0955   15.9028 C   0  0  0  0  0  0  0  0  0  0  0  0
   -6.8898   -8.7902   15.7387 N   0  0  0  0  0  0  0  0  0  0  0  0
  2  1  1  6  0  0  0
  2  3  1  0  0  0  0
  2  5  1  0  0  0  0
  3  4  1  0  0  0  0
  3 17  1  0  0  0  0
  5  6  1  0  0  0  0
  7  6  1  6  0  0  0
  7  8  1  0  0  0  0
  7  9  1  0  0  0  0
 10  9  1  6  0  0  0
 10 11  1  0  0  0  0
 10 12  1  0  0  0  0
 11 16  1  0  0  0  0
 12 13  1  1  0  0  0
 12 14  1  0  0  0  0
 14 15  1  6  0  0  0
 14 16  1  0  0  0  0
 16 27  1  1  0  0  0
 18 19  2  0  0  0  0
 18 23  1  0  0  0  0
 19 20  1  0  0  0  0
 20 21  2  0  0  0  0
 21 22  1  0  0  0  0
 21 27  1  0  0  0  0
 22 23  2  0  0  0  0
 22 25  1  0  0  0  0
 23 24  1  0  0  0  0
 25 26  2  0  0  0  0
 26 27  1  0  0  0  0
M  END
>  <CHROM.1>
88.47611220,-169.71856261,87.70355280,-57.96801969,-156.31602728,55.56297455
32.17635784,-4.35695996,-10.60035021,14.50195215,0.58577723,-0.12276436,-2.33525438

>  <Name>
ligand

>  <RI>
0

>  <Rbt.Current_Directory>
/home/itssahil/PROJECTS/Mol_Feturizer/Test_systems_manuscript/rnas/4kqy

>  <Rbt.Executable>
rbdock ($Id: //depot/dev/client3/rdock/2013.1/src/exe/rbdock.cxx#4 $)

>  <Rbt.Library>
libRbt.so (2013.1, Build901 2013/11/27)

>  <Rbt.Parameter_File>
/export/apps/rDock/src/rDock_2013.1_src/data/scripts/dock_solv.prm

>  <Rbt.Receptor>
prm/pocket_docking_7.prm

>  <SCORE>
-10.3088

>  <SCORE.INTER>
-8.93057

>  <SCORE.INTER.CONST>
1

>  <SCORE.INTER.POLAR>
0

>  <SCORE.INTER.ROT>
7

>  <SCORE.INTER.SOLV>
11.6547

>  <SCORE.INTER.VDW>
-18.1053

>  <SCORE.INTER.norm>
-0.330762

>  <SCORE.INTRA>
-1.37821

>  <SCORE.INTRA.DIHEDRAL>
-3.19829

>  <SCORE.INTRA.DIHEDRAL.0>
10.4103

>  <SCORE.INTRA.POLAR>
0

>  <SCORE.INTRA.POLAR.0>
0

>  <SCORE.INTRA.REPUL>
0

>  <SCORE.INTRA.REPUL.0>
0

>  <SCORE.INTRA.SOLV>
-0.209756

>  <SCORE.INTRA.SOLV.lig_0>
-49.5008

>  <SCORE.INTRA.VDW>
0.325816

>  <SCORE.INTRA.VDW.0>
-2.6946

>  <SCORE.INTRA.norm>
-0.0510447

>  <SCORE.RESTR>
0

>  <SCORE.RESTR.CAVITY>
0

>  <SCORE.RESTR.norm>
0

>  <SCORE.SYSTEM>
0

>  <SCORE.SYSTEM.CONST>
0

>  <SCORE.SYSTEM.DIHEDRAL>
0

>  <SCORE.SYSTEM.SOLV>
0

>  <SCORE.SYSTEM.norm>
0

>  <SCORE.heavy>
27

>  <SCORE.norm>
-0.381806

>  <RMSD>
6.821

$$$$
ligand
 OpenBabel02271912153D
libRbt.so/2013.1/901 2013/11/27
 27 29  0  0  0  0  0  0  0  0999 V2000
   -2.9180   -7.1093   21.7044 N   0  0  0  0  0  0  0  0  0  0  0  0
   -3.8947   -7.8019   20.8855 C   0  0  2  0  0  0  0  0  0  0  0  0
   -5.0554   -6.8744   20.6965 C   0  0  0  0  0  0  0  0  0  0  0  0
   -5.8261   -6.6583   21.6564 O   0  0  0  0  0  0  0  0  0  0  0  0
   -4.3514   -9.0915   21.5729 C   0  0  0  0  0  0  0  0  0  0  0  0
   -5.2208   -9.9559   20.6330 C   0  0  0  0  0  0  0  0  0  0  0  0
   -5.7221  -11.4285   21.2617 S   0  0  2  0  0  0  0  0  0  0  0  0
   -4.3977  -12.3967   21.5209 C   0  0  0  0  0  0  0  0  0  0  0  0
   -6.8014  -12.1662   20.1942 C   0  0  0  0  0  0  0  0  0  0  0  0
   -7.4893  -13.4244   20.7649 C   0  0  1  0  0  0  0  0  0  0  0  0
   -8.9194  -13.3024   20.8412 O   0  0  0  0  0  0  0  0  0  0  0  0
   -7.3240  -14.6571   19.8908 C   0  0  1  0  0  0  0  0  0  0  0  0
   -6.0386  -15.3101   19.9016 O   0  0  0  0  0  0  0  0  0  0  0  0
   -8.4494  -15.5167   20.4110 C   0  0  1  0  0  0  0  0  0  0  0  0
   -8.1284  -16.0105   21.7080 O   0  0  0  0  0  0  0  0  0  0  0  0
   -9.5761  -14.5336   20.5303 C   0  0  2  0  0  0  0  0  0  0  0  0
   -5.2155   -6.3071   19.5894 O   0  0  0  0  0  0  0  0  0  0  0  0
  -10.5607  -12.4200   15.7513 N   0  0  0  0  0  0  0  0  0  0  0  0
   -9.5733  -12.1209   16.6299 C   0  0  0  0  0  0  0  0  0  0  0  0
   -9.4461  -12.7355   17.8179 N   0  0  0  0  0  0  0  0  0  0  0  0
  -10.2817  -13.7061   18.2042 C   0  0  0  0  0  0  0  0  0  0  0  0
  -11.3505  -14.0884   17.2938 C   0  0  0  0  0  0  0  0  0  0  0  0
  -11.4940  -13.3931   15.9938 C   0  0  0  0  0  0  0  0  0  0  0  0
  -12.4897  -13.7080   15.0925 N   0  0  0  0  0  0  0  0  0  0  0  0
  -12.0054  -15.0539   17.8980 N   0  0  0  0  0  0  0  0  0  0  0  0
  -11.4446  -15.2764   19.0946 C   0  0  0  0  0  0  0  0  0  0  0  0
  -10.4005  -14.4707   19.2847 N   0  0  0  0  0  0  0  0  0  0  0  0
  2  1  1  1  0  0  0
  2  3  1  0  0  0  0
  2  5  1  0  0  0  0
  3  4  1  0  0  0  0
  3 17  1  0  0  0  0
  5  6  1  0  0  0  0
  7  6  1  6  0  0  0
  7  8  1  0  0  0  0
  7  9  1  0  0  0  0
 10  9  1  6  0  0  0
 10 11  1  0  0  0  0
 10 12  1  0  0  0  0
 11 16  1  0  0  0  0
 12 13  1  1  0  0  0
 12 14  1  0  0  0  0
 14 15  1  1  0  0  0
 14 16  1  0  0  0  0
 16 27  1  6  0  0  0
 18 19  2  0  0  0  0
 18 23  1  0  0  0  0
 19 20  1  0  0  0  0
 20 21  2  0  0  0  0
 21 22  1  0  0  0  0
 21 27  1  0  0  0  0
 22 23  2  0  0  0  0
 22 25  1  0  0  0  0
 23 24  1  0  0  0  0
 25 26  2  0  0  0  0
 26 27  1  0  0  0  0
M  END
>  <CHROM.1>
-72.82442583,-171.19206882,177.41902614,-64.93196161,-171.28485312,118.85464976
26.98967907,-7.74748999,-12.12733162,19.66408148,0.50320921,-0.71512859,-0.39190617

>  <Name>
ligand

>  <RI>
0

>  <Rbt.Current_Directory>
/home/itssahil/PROJECTS/Mol_Feturizer/Test_systems_manuscript/rnas/4kqy

>  <Rbt.Executable>
rbdock ($Id: //depot/dev/client3/rdock/2013.1/src/exe/rbdock.cxx#4 $)

>  <Rbt.Library>
libRbt.so (2013.1, Build901 2013/11/27)

>  <Rbt.Parameter_File>
/export/apps/rDock/src/rDock_2013.1_src/data/scripts/dock_solv.prm

>  <Rbt.Receptor>
prm/pocket_docking_8.prm

>  <SCORE>
-19.0525

>  <SCORE.INTER>
-17.7828

>  <SCORE.INTER.CONST>
1

>  <SCORE.INTER.POLAR>
0

>  <SCORE.INTER.ROT>
7

>  <SCORE.INTER.SOLV>
17.2103

>  <SCORE.INTER.VDW>
-25.8587

>  <SCORE.INTER.norm>
-0.658624

>  <SCORE.INTRA>
-1.26969

>  <SCORE.INTRA.DIHEDRAL>
-1.93747

>  <SCORE.INTRA.DIHEDRAL.0>
10.4103

>  <SCORE.INTRA.POLAR>
0

>  <SCORE.INTRA.POLAR.0>
0

>  <SCORE.INTRA.REPUL>
0

>  <SCORE.INTRA.REPUL.0>
0

>  <SCORE.INTRA.SOLV>
-0.543239

>  <SCORE.INTRA.SOLV.lig_0>
-49.5008

>  <SCORE.INTRA.VDW>
-0.0293301

>  <SCORE.INTRA.VDW.0>
-2.6946

>  <SCORE.INTRA.norm>
-0.0470254

>  <SCORE.RESTR>
0

>  <SCORE.RESTR.CAVITY>
0

>  <SCORE.RESTR.norm>
0

>  <SCORE.SYSTEM>
0

>  <SCORE.SYSTEM.CONST>
0

>  <SCORE.SYSTEM.DIHEDRAL>
0

>  <SCORE.SYSTEM.SOLV>
0

>  <SCORE.SYSTEM.norm>
0

>  <SCORE.heavy>
27

>  <SCORE.norm>
-0.705649

>  <RMSD>
6.832

$$$$
ligand
 OpenBabel02271912153D
libRbt.so/2013.1/901 2013/11/27
 27 29  0  0  0  0  0  0  0  0999 V2000
   -5.5161  -14.3090   20.4238 N   0  0  0  0  0  0  0  0  0  0  0  0
   -6.7497  -14.0415   21.1385 C   0  0  2  0  0  0  0  0  0  0  0  0
   -7.4130  -15.3604   21.3911 C   0  0  0  0  0  0  0  0  0  0  0  0
   -7.8190  -16.0347   20.4202 O   0  0  0  0  0  0  0  0  0  0  0  0
   -7.6642  -13.1371   20.3079 C   0  0  0  0  0  0  0  0  0  0  0  0
   -7.4816  -11.6500   20.6840 C   0  0  0  0  0  0  0  0  0  0  0  0
   -5.9770  -10.9947   20.3349 S   0  0  2  0  0  0  0  0  0  0  0  0
   -4.9095  -11.3906   21.5442 C   0  0  0  0  0  0  0  0  0  0  0  0
   -6.1073   -9.3193   20.1782 C   0  0  0  0  0  0  0  0  0  0  0  0
   -6.4237   -8.8444   18.7443 C   0  0  1  0  0  0  0  0  0  0  0  0
   -5.2853   -8.2832   18.0697 O   0  0  0  0  0  0  0  0  0  0  0  0
   -6.8233   -9.9709   17.8050 C   0  0  1  0  0  0  0  0  0  0  0  0
   -8.1478  -10.5206   17.9546 O   0  0  0  0  0  0  0  0  0  0  0  0
   -6.5829   -9.3136   16.4685 C   0  0  1  0  0  0  0  0  0  0  0  0
   -7.5841   -8.3315   16.2192 O   0  0  0  0  0  0  0  0  0  0  0  0
   -5.2679   -8.6239   16.6814 C   0  0  2  0  0  0  0  0  0  0  0  0
   -7.5211  -15.7792   22.5684 O   0  0  0  0  0  0  0  0  0  0  0  0
   -1.2565  -11.8402   18.0382 N   0  0  0  0  0  0  0  0  0  0  0  0
   -2.1549  -11.2128   18.8357 C   0  0  0  0  0  0  0  0  0  0  0  0
   -3.1222  -10.4145   18.3538 N   0  0  0  0  0  0  0  0  0  0  0  0
   -3.2750  -10.2025   17.0419 C   0  0  0  0  0  0  0  0  0  0  0  0
   -2.3542  -10.8668   16.1318 C   0  0  0  0  0  0  0  0  0  0  0  0
   -1.2796  -11.7309   16.6728 C   0  0  0  0  0  0  0  0  0  0  0  0
   -0.3746  -12.3819   15.8604 N   0  0  0  0  0  0  0  0  0  0  0  0
   -2.7252  -10.5074   14.9238 N   0  0  0  0  0  0  0  0  0  0  0  0
   -3.7701   -9.6738   15.0204 C   0  0  0  0  0  0  0  0  0  0  0  0
   -4.1113   -9.4890   16.2951 N   0  0  0  0  0  0  0  0  0  0  0  0
  2  1  1  6  0  0  0
  2  3  1  0  0  0  0
  2  5  1  0  0  0  0
  3  4  1  0  0  0  0
  3 17  1  0  0  0  0
  5  6  1  0  0  0  0
  7  6  1  1  0  0  0
  7  8  1  0  0  0  0
  7  9  1  0  0  0  0
 10  9  1  1  0  0  0
 10 11  1  0  0  0  0
 10 12  1  0  0  0  0
 11 16  1  0  0  0  0
 12 13  1  6  0  0  0
 12 14  1  0  0  0  0
 14 15  1  1  0  0  0
 14 16  1  0  0  0  0
 16 27  1  1  0  0  0
 18 19  2  0  0  0  0
 18 23  1  0  0  0  0
 19 20  1  0  0  0  0
 20 21  2  0  0  0  0
 21 22  1  0  0  0  0
 21 27  1  0  0  0  0
 22 23  2  0  0  0  0
 22 25  1  0  0  0  0
 23 24  1  0  0  0  0
 25 26  2  0  0  0  0
 26 27  1  0  0  0  0
M  END
>  <CHROM.1>
-65.08366963,-94.54511847,65.36994062,-81.94100557,-89.46702761,-104.45423844
15.55325119,-5.23254308,-11.27528065,18.59156359,-2.17606443,0.40324099,-0.60091285

>  <Name>
ligand

>  <RI>
0

>  <Rbt.Current_Directory>
/home/itssahil/PROJECTS/Mol_Feturizer/Test_systems_manuscript/rnas/4kqy

>  <Rbt.Executable>
rbdock ($Id: //depot/dev/client3/rdock/2013.1/src/exe/rbdock.cxx#4 $)

>  <Rbt.Library>
libRbt.so (2013.1, Build901 2013/11/27)

>  <Rbt.Parameter_File>
/export/apps/rDock/src/rDock_2013.1_src/data/scripts/dock_solv.prm

>  <Rbt.Receptor>
prm/pocket_docking_5.prm

>  <SCORE>
-7.89818

>  <SCORE.INTER>
-11.271

>  <SCORE.INTER.CONST>
1

>  <SCORE.INTER.POLAR>
0

>  <SCORE.INTER.ROT>
7

>  <SCORE.INTER.SOLV>
9.39418

>  <SCORE.INTER.VDW>
-18.9121

>  <SCORE.INTER.norm>
-0.417446

>  <SCORE.INTRA>
3.37285

>  <SCORE.INTRA.DIHEDRAL>
4.21109

>  <SCORE.INTRA.DIHEDRAL.0>
10.4103

>  <SCORE.INTRA.POLAR>
0

>  <SCORE.INTRA.POLAR.0>
0

>  <SCORE.INTRA.REPUL>
0

>  <SCORE.INTRA.REPUL.0>
0

>  <SCORE.INTRA.SOLV>
2.47283

>  <SCORE.INTRA.SOLV.lig_0>
-49.5008

>  <SCORE.INTRA.VDW>
0.0308924

>  <SCORE.INTRA.VDW.0>
-2.6946

>  <SCORE.INTRA.norm>
0.124921

>  <SCORE.RESTR>
0

>  <SCORE.RESTR.CAVITY>
0

>  <SCORE.RESTR.norm>
0

>  <SCORE.SYSTEM>
0

>  <SCORE.SYSTEM.CONST>
0

>  <SCORE.SYSTEM.DIHEDRAL>
0

>  <SCORE.SYSTEM.SOLV>
0

>  <SCORE.SYSTEM.norm>
0

>  <SCORE.heavy>
27

>  <SCORE.norm>
-0.292525

>  <RMSD>
6.833

$$$$
ligand
 OpenBabel02271912153D
libRbt.so/2013.1/901 2013/11/27
 27 29  0  0  0  0  0  0  0  0999 V2000
   -5.0400   -8.1888   21.2850 N   0  0  0  0  0  0  0  0  0  0  0  0
   -4.1973   -9.1637   21.9512 C   0  0  2  0  0  0  0  0  0  0  0  0
   -2.8245   -9.0398   21.3655 C   0  0  0  0  0  0  0  0  0  0  0  0
   -1.8730   -9.6413   21.9089 O   0  0  0  0  0  0  0  0  0  0  0  0
   -4.7417  -10.5783   21.7351 C   0  0  0  0  0  0  0  0  0  0  0  0
   -5.4073  -10.7222   20.3485 C   0  0  0  0  0  0  0  0  0  0  0  0
   -4.7014  -11.8443   19.3199 S   0  0  2  0  0  0  0  0  0  0  0  0
   -4.5812  -13.3065   20.0985 C   0  0  0  0  0  0  0  0  0  0  0  0
   -3.1791  -11.2974   18.8382 C   0  0  0  0  0  0  0  0  0  0  0  0
   -3.2163  -10.0389   17.9456 C   0  0  1  0  0  0  0  0  0  0  0  0
   -1.9096   -9.5344   17.6235 O   0  0  0  0  0  0  0  0  0  0  0  0
   -3.8068  -10.2884   16.5672 C   0  0  1  0  0  0  0  0  0  0  0  0
   -5.2377  -10.4402   16.4763 O   0  0  0  0  0  0  0  0  0  0  0  0
   -3.2711   -9.0937   15.8175 C   0  0  1  0  0  0  0  0  0  0  0  0
   -3.9464   -7.9112   16.2352 O   0  0  0  0  0  0  0  0  0  0  0  0
   -1.8475   -9.0319   16.2865 C   0  0  2  0  0  0  0  0  0  0  0  0
   -2.6591   -8.3616   20.3235 O   0  0  0  0  0  0  0  0  0  0  0  0
    0.6557   -9.6417   11.6349 N   0  0  0  0  0  0  0  0  0  0  0  0
   -0.1777   -8.6497   12.0322 C   0  0  0  0  0  0  0  0  0  0  0  0
   -0.7522   -8.6252   13.2465 N   0  0  0  0  0  0  0  0  0  0  0  0
   -0.5194   -9.5767   14.1575 C   0  0  0  0  0  0  0  0  0  0  0  0
    0.3854  -10.6582   13.7984 C   0  0  0  0  0  0  0  0  0  0  0  0
    1.0002  -10.6868   12.4510 C   0  0  0  0  0  0  0  0  0  0  0  0
    1.8607  -11.6882   12.0518 N   0  0  0  0  0  0  0  0  0  0  0  0
    0.4498  -11.4354   14.8557 N   0  0  0  0  0  0  0  0  0  0  0  0
   -0.3456  -10.9354   15.8113 C   0  0  0  0  0  0  0  0  0  0  0  0
   -0.9300   -9.8108   15.3997 N   0  0  0  0  0  0  0  0  0  0  0  0
  2  1  1  6  0  0  0
  2  3  1  0  0  0  0
  2  5  1  0  0  0  0
  3  4  1  0  0  0  0
  3 17  1  0  0  0  0
  5  6  1  0  0  0  0
  7  6  1  1  0  0  0
  7  8  1  0  0  0  0
  7  9  1  0  0  0  0
 10  9  1  1  0  0  0
 10 11  1  0  0  0  0
 10 12  1  0  0  0  0
 11 16  1  0  0  0  0
 12 13  1  1  0  0  0
 12 14  1  0  0  0  0
 14 15  1  1  0  0  0
 14 16  1  0  0  0  0
 16 27  1  6  0  0  0
 18 19  2  0  0  0  0
 18 23  1  0  0  0  0
 19 20  1  0  0  0  0
 20 21  2  0  0  0  0
 21 22  1  0  0  0  0
 21 27  1  0  0  0  0
 22 23  2  0  0  0  0
 22 25  1  0  0  0  0
 23 24  1  0  0  0  0
 25 26  2  0  0  0  0
 26 27  1  0  0  0  0
M  END
>  <CHROM.1>
169.77528453,33.40803207,118.21964105,52.93213599,-66.80560014,175.88953707
-172.66527629,-2.43790722,-10.08832607,17.22913927,-2.92357725,-1.02639545
-2.86821358

>  <Name>
ligand

>  <RI>
0

>  <Rbt.Current_Directory>
/home/itssahil/PROJECTS/Mol_Feturizer/Test_systems_manuscript/rnas/4kqy

>  <Rbt.Executable>
rbdock ($Id: //depot/dev/client3/rdock/2013.1/src/exe/rbdock.cxx#4 $)

>  <Rbt.Library>
libRbt.so (2013.1, Build901 2013/11/27)

>  <Rbt.Parameter_File>
/export/apps/rDock/src/rDock_2013.1_src/data/scripts/dock_solv.prm

>  <Rbt.Receptor>
prm/pocket_docking_7.prm

>  <SCORE>
-8.79124

>  <SCORE.INTER>
-9.9965

>  <SCORE.INTER.CONST>
1

>  <SCORE.INTER.POLAR>
0

>  <SCORE.INTER.ROT>
7

>  <SCORE.INTER.SOLV>
7.80604

>  <SCORE.INTER.VDW>
-17.533

>  <SCORE.INTER.norm>
-0.370241

>  <SCORE.INTRA>
1.20526

>  <SCORE.INTRA.DIHEDRAL>
0.594877

>  <SCORE.INTRA.DIHEDRAL.0>
10.4103

>  <SCORE.INTRA.POLAR>
0

>  <SCORE.INTRA.POLAR.0>
0

>  <SCORE.INTRA.REPUL>
0

>  <SCORE.INTRA.REPUL.0>
0

>  <SCORE.INTRA.SOLV>
1.35433

>  <SCORE.INTRA.SOLV.lig_0>
-49.5008

>  <SCORE.INTRA.VDW>
0.230656

>  <SCORE.INTRA.VDW.0>
-2.6946

>  <SCORE.INTRA.norm>
0.0446392

>  <SCORE.RESTR>
0

>  <SCORE.RESTR.CAVITY>
0

>  <SCORE.RESTR.norm>
0

>  <SCORE.SYSTEM>
0

>  <SCORE.SYSTEM.CONST>
0

>  <SCORE.SYSTEM.DIHEDRAL>
0

>  <SCORE.SYSTEM.SOLV>
0

>  <SCORE.SYSTEM.norm>
0

>  <SCORE.heavy>
27

>  <SCORE.norm>
-0.325602

>  <RMSD>
6.961

$$$$
ligand
 OpenBabel02271912153D
libRbt.so/2013.1/901 2013/11/27
 27 29  0  0  0  0  0  0  0  0999 V2000
   -4.5430  -14.1073   21.7492 N   0  0  0  0  0  0  0  0  0  0  0  0
   -4.6958  -12.6838   21.9822 C   0  0  2  0  0  0  0  0  0  0  0  0
   -5.5813  -12.1478   20.8997 C   0  0  0  0  0  0  0  0  0  0  0  0
   -5.4811  -12.6127   19.7437 O   0  0  0  0  0  0  0  0  0  0  0  0
   -3.3331  -11.9866   21.9478 C   0  0  0  0  0  0  0  0  0  0  0  0
   -3.4323  -10.5267   22.4432 C   0  0  0  0  0  0  0  0  0  0  0  0
   -3.1745   -9.3479   21.2774 S   0  0  2  0  0  0  0  0  0  0  0  0
   -3.6351   -7.8692   21.8775 C   0  0  0  0  0  0  0  0  0  0  0  0
   -4.0475   -9.7247   19.8830 C   0  0  0  0  0  0  0  0  0  0  0  0
   -3.9415   -8.6626   18.7683 C   0  0  1  0  0  0  0  0  0  0  0  0
   -2.5855   -8.3711   18.3912 O   0  0  0  0  0  0  0  0  0  0  0  0
   -4.5483   -9.1053   17.4467 C   0  0  1  0  0  0  0  0  0  0  0  0
   -5.9867   -9.1179   17.3487 O   0  0  0  0  0  0  0  0  0  0  0  0
   -3.8805   -8.1394   16.4995 C   0  0  1  0  0  0  0  0  0  0  0  0
   -4.4241   -6.8337   16.6688 O   0  0  0  0  0  0  0  0  0  0  0  0
   -2.4614   -8.1418   16.9856 C   0  0  2  0  0  0  0  0  0  0  0  0
   -6.4283  -11.2657   21.1782 O   0  0  0  0  0  0  0  0  0  0  0  0
    0.0240   -9.8670   12.6126 N   0  0  0  0  0  0  0  0  0  0  0  0
   -0.6904   -8.7300   12.7961 C   0  0  0  0  0  0  0  0  0  0  0  0
   -1.2770   -8.4203   13.9646 N   0  0  0  0  0  0  0  0  0  0  0  0
   -1.1747   -9.2119   15.0380 C   0  0  0  0  0  0  0  0  0  0  0  0
   -0.4010  -10.4377   14.9105 C   0  0  0  0  0  0  0  0  0  0  0  0
    0.2273  -10.7800   13.6135 C   0  0  0  0  0  0  0  0  0  0  0  0
    0.9674  -11.9296   13.4308 N   0  0  0  0  0  0  0  0  0  0  0  0
   -0.4473  -11.0131   16.0907 N   0  0  0  0  0  0  0  0  0  0  0  0
   -1.1919  -10.2602   16.9120 C   0  0  0  0  0  0  0  0  0  0  0  0
   -1.6302   -9.1688   16.2859 N   0  0  0  0  0  0  0  0  0  0  0  0
  2  1  1  6  0  0  0
  2  3  1  0  0  0  0
  2  5  1  0  0  0  0
  3  4  1  0  0  0  0
  3 17  1  0  0  0  0
  5  6  1  0  0  0  0
  7  6  1  1  0  0  0
  7  8  1  0  0  0  0
  7  9  1  0  0  0  0
 10  9  1  1  0  0  0
 10 11  1  0  0  0  0
 10 12  1  0  0  0  0
 11 16  1  0  0  0  0
 12 13  1  1  0  0  0
 12 14  1  0  0  0  0
 14 15  1  1  0  0  0
 14 16  1  0  0  0  0
 16 27  1  6  0  0  0
 18 19  2  0  0  0  0
 18 23  1  0  0  0  0
 19 20  1  0  0  0  0
 20 21  2  0  0  0  0
 21 22  1  0  0  0  0
 21 27  1  0  0  0  0
 22 23  2  0  0  0  0
 22 25  1  0  0  0  0
 23 24  1  0  0  0  0
 25 26  2  0  0  0  0
 26 27  1  0  0  0  0
M  END
>  <CHROM.1>
-36.83161440,-169.65872432,-111.99281029,167.79121002,176.89999624,55.37078188
-171.64408093,-2.98016451,-9.97202015,18.05721178,-2.46817361,0.92512082
-0.58892930

>  <Name>
ligand

>  <RI>
0

>  <Rbt.Current_Directory>
/home/itssahil/PROJECTS/Mol_Feturizer/Test_systems_manuscript/rnas/4kqy

>  <Rbt.Executable>
rbdock ($Id: //depot/dev/client3/rdock/2013.1/src/exe/rbdock.cxx#4 $)

>  <Rbt.Library>
libRbt.so (2013.1, Build901 2013/11/27)

>  <Rbt.Parameter_File>
/export/apps/rDock/src/rDock_2013.1_src/data/scripts/dock_solv.prm

>  <Rbt.Receptor>
prm/pocket_docking_6.prm

>  <SCORE>
-17.7927

>  <SCORE.INTER>
-16.7525

>  <SCORE.INTER.CONST>
1

>  <SCORE.INTER.POLAR>
0

>  <SCORE.INTER.ROT>
7

>  <SCORE.INTER.SOLV>
12.8597

>  <SCORE.INTER.VDW>
-23.7216

>  <SCORE.INTER.norm>
-0.620464

>  <SCORE.INTRA>
-1.04021

>  <SCORE.INTRA.DIHEDRAL>
-1.28769

>  <SCORE.INTRA.DIHEDRAL.0>
10.4103

>  <SCORE.INTRA.POLAR>
0

>  <SCORE.INTRA.POLAR.0>
0

>  <SCORE.INTRA.REPUL>
0

>  <SCORE.INTRA.REPUL.0>
0

>  <SCORE.INTRA.SOLV>
-0.579192

>  <SCORE.INTRA.SOLV.lig_0>
-49.5008

>  <SCORE.INTRA.VDW>
-0.106768

>  <SCORE.INTRA.VDW.0>
-2.6946

>  <SCORE.INTRA.norm>
-0.0385262

>  <SCORE.RESTR>
0

>  <SCORE.RESTR.CAVITY>
0

>  <SCORE.RESTR.norm>
0

>  <SCORE.SYSTEM>
0

>  <SCORE.SYSTEM.CONST>
0

>  <SCORE.SYSTEM.DIHEDRAL>
0

>  <SCORE.SYSTEM.SOLV>
0

>  <SCORE.SYSTEM.norm>
0

>  <SCORE.heavy>
27

>  <SCORE.norm>
-0.65899

>  <RMSD>
7.000

$$$$
ligand
 OpenBabel02271912153D
libRbt.so/2013.1/901 2013/11/27
 27 29  0  0  0  0  0  0  0  0999 V2000
   -8.1822  -11.6590   18.5212 N   0  0  0  0  0  0  0  0  0  0  0  0
   -6.8843  -11.9883   19.0789 C   0  0  2  0  0  0  0  0  0  0  0  0
   -6.7624  -13.4811   19.0721 C   0  0  0  0  0  0  0  0  0  0  0  0
   -5.6960  -14.0042   18.6831 O   0  0  0  0  0  0  0  0  0  0  0  0
   -6.7641  -11.4520   20.5079 C   0  0  0  0  0  0  0  0  0  0  0  0
   -6.8830   -9.9122   20.5457 C   0  0  0  0  0  0  0  0  0  0  0  0
   -5.5525   -9.0694   19.9671 S   0  0  2  0  0  0  0  0  0  0  0  0
   -5.6566   -7.4814   20.4425 C   0  0  0  0  0  0  0  0  0  0  0  0
   -5.4914   -9.1862   18.2845 C   0  0  0  0  0  0  0  0  0  0  0  0
   -4.3285   -8.4015   17.6413 C   0  0  1  0  0  0  0  0  0  0  0  0
   -3.0334   -8.8921   18.0260 O   0  0  0  0  0  0  0  0  0  0  0  0
   -4.2756   -8.5249   16.1271 C   0  0  1  0  0  0  0  0  0  0  0  0
   -5.2477   -7.7795   15.3667 O   0  0  0  0  0  0  0  0  0  0  0  0
   -2.8486   -8.1102   15.8665 C   0  0  1  0  0  0  0  0  0  0  0  0
   -2.7021   -6.7079   16.0690 O   0  0  0  0  0  0  0  0  0  0  0  0
   -2.1006   -8.8377   16.9441 C   0  0  2  0  0  0  0  0  0  0  0  0
   -7.7195  -14.1783   19.4858 O   0  0  0  0  0  0  0  0  0  0  0  0
   -2.7364  -13.1671   13.9229 N   0  0  0  0  0  0  0  0  0  0  0  0
   -3.5132  -12.0594   14.0015 C   0  0  0  0  0  0  0  0  0  0  0  0
   -3.2350  -11.0328   14.8225 N   0  0  0  0  0  0  0  0  0  0  0  0
   -2.1516  -11.0293   15.6071 C   0  0  0  0  0  0  0  0  0  0  0  0
   -1.2652  -12.1820   15.5514 C   0  0  0  0  0  0  0  0  0  0  0  0
   -1.5892  -13.3171   14.6565 C   0  0  0  0  0  0  0  0  0  0  0  0
   -0.7905  -14.4380   14.5649 N   0  0  0  0  0  0  0  0  0  0  0  0
   -0.2900  -11.9231   16.3928 N   0  0  0  0  0  0  0  0  0  0  0  0
   -0.5148  -10.7323   16.9650 C   0  0  0  0  0  0  0  0  0  0  0  0
   -1.6335  -10.1841   16.4923 N   0  0  0  0  0  0  0  0  0  0  0  0
  2  1  1  1  0  0  0
  2  3  1  0  0  0  0
  2  5  1  0  0  0  0
  3  4  1  0  0  0  0
  3 17  1  0  0  0  0
  5  6  1  0  0  0  0
  7  6  1  6  0  0  0
  7  8  1  0  0  0  0
  7  9  1  0  0  0  0
 10  9  1  1  0  0  0
 10 11  1  0  0  0  0
 10 12  1  0  0  0  0
 11 16  1  0  0  0  0
 12 13  1  6  0  0  0
 12 14  1  0  0  0  0
 14 15  1  1  0  0  0
 14 16  1  0  0  0  0
 16 27  1  6  0  0  0
 18 19  2  0  0  0  0
 18 23  1  0  0  0  0
 19 20  1  0  0  0  0
 20 21  2  0  0  0  0
 21 22  1  0  0  0  0
 21 27  1  0  0  0  0
 22 23  2  0  0  0  0
 22 25  1  0  0  0  0
 23 24  1  0  0  0  0
 25 26  2  0  0  0  0
 26 27  1  0  0  0  0
M  END
>  <CHROM.1>
135.43270209,-61.67891169,-73.28580772,-164.89322041,177.95422785,63.75970126
87.16811801,-4.13436470,-10.61130980,17.35517910,2.91218318,0.71108524,0.17491287

>  <Name>
ligand

>  <RI>
0

>  <Rbt.Current_Directory>
/home/itssahil/PROJECTS/Mol_Feturizer/Test_systems_manuscript/rnas/4kqy

>  <Rbt.Executable>
rbdock ($Id: //depot/dev/client3/rdock/2013.1/src/exe/rbdock.cxx#4 $)

>  <Rbt.Library>
libRbt.so (2013.1, Build901 2013/11/27)

>  <Rbt.Parameter_File>
/export/apps/rDock/src/rDock_2013.1_src/data/scripts/dock_solv.prm

>  <Rbt.Receptor>
prm/pocket_docking_4.prm

>  <SCORE>
-10.7328

>  <SCORE.INTER>
-8.11594

>  <SCORE.INTER.CONST>
1

>  <SCORE.INTER.POLAR>
0

>  <SCORE.INTER.ROT>
7

>  <SCORE.INTER.SOLV>
15.2242

>  <SCORE.INTER.VDW>
-18.752

>  <SCORE.INTER.norm>
-0.30059

>  <SCORE.INTRA>
-2.61689

>  <SCORE.INTRA.DIHEDRAL>
-6.35597

>  <SCORE.INTRA.DIHEDRAL.0>
10.4103

>  <SCORE.INTRA.POLAR>
0

>  <SCORE.INTRA.POLAR.0>
0

>  <SCORE.INTRA.REPUL>
0

>  <SCORE.INTRA.REPUL.0>
0

>  <SCORE.INTRA.SOLV>
1.27767

>  <SCORE.INTRA.SOLV.lig_0>
-49.5008

>  <SCORE.INTRA.VDW>
-0.0777378

>  <SCORE.INTRA.VDW.0>
-2.6946

>  <SCORE.INTRA.norm>
-0.0969217

>  <SCORE.RESTR>
0

>  <SCORE.RESTR.CAVITY>
0

>  <SCORE.RESTR.norm>
0

>  <SCORE.SYSTEM>
0

>  <SCORE.SYSTEM.CONST>
0

>  <SCORE.SYSTEM.DIHEDRAL>
0

>  <SCORE.SYSTEM.SOLV>
0

>  <SCORE.SYSTEM.norm>
0

>  <SCORE.heavy>
27

>  <SCORE.norm>
-0.397512

>  <RMSD>
7.051

$$$$
ligand
 OpenBabel02271912153D
libRbt.so/2013.1/901 2013/11/27
 27 29  0  0  0  0  0  0  0  0999 V2000
   -5.7463  -14.6988   20.1062 N   0  0  0  0  0  0  0  0  0  0  0  0
   -5.5123  -13.3226   20.5005 C   0  0  2  0  0  0  0  0  0  0  0  0
   -4.9079  -13.3486   21.8706 C   0  0  0  0  0  0  0  0  0  0  0  0
   -4.2064  -12.3846   22.2461 O   0  0  0  0  0  0  0  0  0  0  0  0
   -6.8276  -12.5390   20.5148 C   0  0  0  0  0  0  0  0  0  0  0  0
   -6.5881  -11.0373   20.7869 C   0  0  0  0  0  0  0  0  0  0  0  0
   -5.8977  -10.1743   19.5245 S   0  0  2  0  0  0  0  0  0  0  0  0
   -6.9035  -10.2298   18.2039 C   0  0  0  0  0  0  0  0  0  0  0  0
   -4.3851  -10.8231   19.1506 C   0  0  0  0  0  0  0  0  0  0  0  0
   -3.4203   -9.8230   18.4793 C   0  0  1  0  0  0  0  0  0  0  0  0
   -2.0518  -10.2624   18.4900 O   0  0  0  0  0  0  0  0  0  0  0  0
   -3.6789   -9.6324   16.9935 C   0  0  1  0  0  0  0  0  0  0  0  0
   -4.8223   -8.8395   16.6158 O   0  0  0  0  0  0  0  0  0  0  0  0
   -2.3589   -9.0466   16.5569 C   0  0  1  0  0  0  0  0  0  0  0  0
   -2.2395   -7.7068   17.0256 O   0  0  0  0  0  0  0  0  0  0  0  0
   -1.3690   -9.9065   17.2855 C   0  0  2  0  0  0  0  0  0  0  0  0
   -5.1415  -14.3208   22.6278 O   0  0  0  0  0  0  0  0  0  0  0  0
   -2.5450  -14.4404   14.7683 N   0  0  0  0  0  0  0  0  0  0  0  0
   -3.3652  -13.6065   15.4527 C   0  0  0  0  0  0  0  0  0  0  0  0
   -2.9277  -12.4864   16.0523 N   0  0  0  0  0  0  0  0  0  0  0  0
   -1.6460  -12.1082   15.9936 C   0  0  0  0  0  0  0  0  0  0  0  0
   -0.7191  -12.9512   15.2535 C   0  0  0  0  0  0  0  0  0  0  0  0
   -1.2067  -14.1935   14.6108 C   0  0  0  0  0  0  0  0  0  0  0  0
   -0.3751  -15.0346   13.9010 N   0  0  0  0  0  0  0  0  0  0  0  0
    0.4495  -12.3571   15.3390 N   0  0  0  0  0  0  0  0  0  0  0  0
    0.3190  -11.2461   16.0769 C   0  0  0  0  0  0  0  0  0  0  0  0
   -0.9437  -11.0860   16.4713 N   0  0  0  0  0  0  0  0  0  0  0  0
  2  1  1  1  0  0  0
  2  3  1  0  0  0  0
  2  5  1  0  0  0  0
  3  4  1  0  0  0  0
  3 17  1  0  0  0  0
  5  6  1  0  0  0  0
  7  6  1  1  0  0  0
  7  8  1  0  0  0  0
  7  9  1  0  0  0  0
 10  9  1  6  0  0  0
 10 11  1  0  0  0  0
 10 12  1  0  0  0  0
 11 16  1  0  0  0  0
 12 13  1  1  0  0  0
 12 14  1  0  0  0  0
 14 15  1  1  0  0  0
 14 16  1  0  0  0  0
 16 27  1  6  0  0  0
 18 19  2  0  0  0  0
 18 23  1  0  0  0  0
 19 20  1  0  0  0  0
 20 21  2  0  0  0  0
 21 22  1  0  0  0  0
 21 27  1  0  0  0  0
 22 23  2  0  0  0  0
 22 25  1  0  0  0  0
 23 24  1  0  0  0  0
 25 26  2  0  0  0  0
 26 27  1  0  0  0  0
M  END
>  <CHROM.1>
155.56831465,-174.03672603,72.31305803,61.24146918,-155.19354020,164.44491679
54.79299058,-3.47976919,-11.64134214,17.96923013,-3.05644661,0.85550704,-0.15325156

>  <Name>
ligand

>  <RI>
0

>  <Rbt.Current_Directory>
/home/itssahil/PROJECTS/Mol_Feturizer/Test_systems_manuscript/rnas/4kqy

>  <Rbt.Executable>
rbdock ($Id: //depot/dev/client3/rdock/2013.1/src/exe/rbdock.cxx#4 $)

>  <Rbt.Library>
libRbt.so (2013.1, Build901 2013/11/27)

>  <Rbt.Parameter_File>
/export/apps/rDock/src/rDock_2013.1_src/data/scripts/dock_solv.prm

>  <Rbt.Receptor>
prm/pocket_docking_7.prm

>  <SCORE>
-8.94113

>  <SCORE.INTER>
-6.91836

>  <SCORE.INTER.CONST>
1

>  <SCORE.INTER.POLAR>
0

>  <SCORE.INTER.ROT>
7

>  <SCORE.INTER.SOLV>
15.3941

>  <SCORE.INTER.VDW>
-18.0103

>  <SCORE.INTER.norm>
-0.256236

>  <SCORE.INTRA>
-2.02277

>  <SCORE.INTRA.DIHEDRAL>
-4.58712

>  <SCORE.INTRA.DIHEDRAL.0>
10.4103

>  <SCORE.INTRA.POLAR>
0

>  <SCORE.INTRA.POLAR.0>
0

>  <SCORE.INTRA.REPUL>
0

>  <SCORE.INTRA.REPUL.0>
0

>  <SCORE.INTRA.SOLV>
0.181395

>  <SCORE.INTRA.SOLV.lig_0>
-49.5008

>  <SCORE.INTRA.VDW>
0.180095

>  <SCORE.INTRA.VDW.0>
-2.6946

>  <SCORE.INTRA.norm>
-0.0749173

>  <SCORE.RESTR>
0

>  <SCORE.RESTR.CAVITY>
0

>  <SCORE.RESTR.norm>
0

>  <SCORE.SYSTEM>
0

>  <SCORE.SYSTEM.CONST>
0

>  <SCORE.SYSTEM.DIHEDRAL>
0

>  <SCORE.SYSTEM.SOLV>
0

>  <SCORE.SYSTEM.norm>
0

>  <SCORE.heavy>
27

>  <SCORE.norm>
-0.331153

>  <RMSD>
7.051

$$$$
ligand
 OpenBabel02271912153D
libRbt.so/2013.1/901 2013/11/27
 27 29  0  0  0  0  0  0  0  0999 V2000
   -4.9620  -12.3291   19.1353 N   0  0  0  0  0  0  0  0  0  0  0  0
   -4.4733  -12.4572   20.4951 C   0  0  2  0  0  0  0  0  0  0  0  0
   -4.6576  -13.8869   20.9016 C   0  0  0  0  0  0  0  0  0  0  0  0
   -4.5430  -14.1979   22.1068 O   0  0  0  0  0  0  0  0  0  0  0  0
   -5.2539  -11.5331   21.4336 C   0  0  0  0  0  0  0  0  0  0  0  0
   -5.0621  -10.0482   21.0532 C   0  0  0  0  0  0  0  0  0  0  0  0
   -3.5333   -9.4193   21.3404 S   0  0  2  0  0  0  0  0  0  0  0  0
   -3.6716   -7.8425   21.8437 C   0  0  0  0  0  0  0  0  0  0  0  0
   -2.6031   -9.5183   19.9356 C   0  0  0  0  0  0  0  0  0  0  0  0
   -3.0730   -8.5815   18.8028 C   0  0  1  0  0  0  0  0  0  0  0  0
   -1.9943   -8.0918   17.9889 O   0  0  0  0  0  0  0  0  0  0  0  0
   -3.9579   -9.2673   17.7743 C   0  0  1  0  0  0  0  0  0  0  0  0
   -5.3194   -9.5508   18.1546 O   0  0  0  0  0  0  0  0  0  0  0  0
   -3.8348   -8.3047   16.6192 C   0  0  1  0  0  0  0  0  0  0  0  0
   -4.5554   -7.1086   16.9004 O   0  0  0  0  0  0  0  0  0  0  0  0
   -2.3666   -7.9974   16.6119 C   0  0  2  0  0  0  0  0  0  0  0  0
   -4.9544  -14.7404   20.0318 O   0  0  0  0  0  0  0  0  0  0  0  0
    0.6795  -12.3092   15.9749 N   0  0  0  0  0  0  0  0  0  0  0  0
    0.1583  -11.7930   17.1144 C   0  0  0  0  0  0  0  0  0  0  0  0
   -0.5960  -10.6812   17.1306 N   0  0  0  0  0  0  0  0  0  0  0  0
   -0.9012  -10.0182   16.0097 C   0  0  0  0  0  0  0  0  0  0  0  0
   -0.3893  -10.5361   14.7499 C   0  0  0  0  0  0  0  0  0  0  0  0
    0.4564  -11.7522   14.7433 C   0  0  0  0  0  0  0  0  0  0  0  0
    0.9742  -12.2867   13.5819 N   0  0  0  0  0  0  0  0  0  0  0  0
   -0.8379   -9.7224   13.8210 N   0  0  0  0  0  0  0  0  0  0  0  0
   -1.5556   -8.7520   14.4034 C   0  0  0  0  0  0  0  0  0  0  0  0
   -1.6030   -8.9263   15.7236 N   0  0  0  0  0  0  0  0  0  0  0  0
  2  1  1  6  0  0  0
  2  3  1  0  0  0  0
  2  5  1  0  0  0  0
  3  4  1  0  0  0  0
  3 17  1  0  0  0  0
  5  6  1  0  0  0  0
  7  6  1  6  0  0  0
  7  8  1  0  0  0  0
  7  9  1  0  0  0  0
 10  9  1  1  0  0  0
 10 11  1  0  0  0  0
 10 12  1  0  0  0  0
 11 16  1  0  0  0  0
 12 13  1  1  0  0  0
 12 14  1  0  0  0  0
 14 15  1  1  0  0  0
 14 16  1  0  0  0  0
 16 27  1  6  0  0  0
 18 19  2  0  0  0  0
 18 23  1  0  0  0  0
 19 20  1  0  0  0  0
 20 21  2  0  0  0  0
 21 22  1  0  0  0  0
 21 27  1  0  0  0  0
 22 23  2  0  0  0  0
 22 25  1  0  0  0  0
 23 24  1  0  0  0  0
 25 26  2  0  0  0  0
 26 27  1  0  0  0  0
M  END
>  <CHROM.1>
-166.88083645,-62.55625567,-69.70774387,-143.53443682,68.62654015,147.05925501
18.62739316,-2.80161870,-10.37858215,18.18419066,-2.73268972,0.92489373,-0.29162865

>  <Name>
ligand

>  <RI>
0

>  <Rbt.Current_Directory>
/home/itssahil/PROJECTS/Mol_Feturizer/Test_systems_manuscript/rnas/4kqy

>  <Rbt.Executable>
rbdock ($Id: //depot/dev/client3/rdock/2013.1/src/exe/rbdock.cxx#4 $)

>  <Rbt.Library>
libRbt.so (2013.1, Build901 2013/11/27)

>  <Rbt.Parameter_File>
/export/apps/rDock/src/rDock_2013.1_src/data/scripts/dock_solv.prm

>  <Rbt.Receptor>
prm/pocket_docking_6.prm

>  <SCORE>
-17.5116

>  <SCORE.INTER>
-18.4175

>  <SCORE.INTER.CONST>
1

>  <SCORE.INTER.POLAR>
0

>  <SCORE.INTER.ROT>
7

>  <SCORE.INTER.SOLV>
7.33979

>  <SCORE.INTER.VDW>
-22.9916

>  <SCORE.INTER.norm>
-0.682131

>  <SCORE.INTRA>
0.905887

>  <SCORE.INTRA.DIHEDRAL>
-1.05377

>  <SCORE.INTRA.DIHEDRAL.0>
10.4103

>  <SCORE.INTRA.POLAR>
0

>  <SCORE.INTRA.POLAR.0>
0

>  <SCORE.INTRA.REPUL>
0

>  <SCORE.INTRA.REPUL.0>
0

>  <SCORE.INTRA.SOLV>
3.67577

>  <SCORE.INTRA.SOLV.lig_0>
-49.5008

>  <SCORE.INTRA.VDW>
-0.405113

>  <SCORE.INTRA.VDW.0>
-2.6946

>  <SCORE.INTRA.norm>
0.0335514

>  <SCORE.RESTR>
0

>  <SCORE.RESTR.CAVITY>
0

>  <SCORE.RESTR.norm>
0

>  <SCORE.SYSTEM>
0

>  <SCORE.SYSTEM.CONST>
0

>  <SCORE.SYSTEM.DIHEDRAL>
0

>  <SCORE.SYSTEM.SOLV>
0

>  <SCORE.SYSTEM.norm>
0

>  <SCORE.heavy>
27

>  <SCORE.norm>
-0.648579

>  <RMSD>
7.078

$$$$
ligand
 OpenBabel02271912153D
libRbt.so/2013.1/901 2013/11/27
 27 29  0  0  0  0  0  0  0  0999 V2000
   -5.0698  -14.7846   20.3074 N   0  0  0  0  0  0  0  0  0  0  0  0
   -5.0894  -14.4679   21.7229 C   0  0  2  0  0  0  0  0  0  0  0  0
   -6.4380  -14.8548   22.2471 C   0  0  0  0  0  0  0  0  0  0  0  0
   -7.4483  -14.6533   21.5393 O   0  0  0  0  0  0  0  0  0  0  0  0
   -4.8438  -12.9724   21.9402 C   0  0  0  0  0  0  0  0  0  0  0  0
   -3.3790  -12.5895   21.6329 C   0  0  0  0  0  0  0  0  0  0  0  0
   -3.1347  -11.0069   21.1318 S   0  0  2  0  0  0  0  0  0  0  0  0
   -3.5109   -9.9710   22.3744 C   0  0  0  0  0  0  0  0  0  0  0  0
   -4.0875  -10.6846   19.7765 C   0  0  0  0  0  0  0  0  0  0  0  0
   -4.0588   -9.2095   19.3239 C   0  0  1  0  0  0  0  0  0  0  0  0
   -2.7568   -8.7725   18.9001 O   0  0  0  0  0  0  0  0  0  0  0  0
   -4.9011   -8.9360   18.0883 C   0  0  1  0  0  0  0  0  0  0  0  0
   -6.3323   -8.8947   18.2572 O   0  0  0  0  0  0  0  0  0  0  0  0
   -4.3027   -7.6288   17.6307 C   0  0  1  0  0  0  0  0  0  0  0  0
   -4.6918   -6.5783   18.5104 O   0  0  0  0  0  0  0  0  0  0  0  0
   -2.8316   -7.8758   17.7892 C   0  0  2  0  0  0  0  0  0  0  0  0
   -6.5268  -15.4021   23.3721 O   0  0  0  0  0  0  0  0  0  0  0  0
    0.0808  -11.5749   15.3174 N   0  0  0  0  0  0  0  0  0  0  0  0
   -0.2552  -11.4877   16.6274 C   0  0  0  0  0  0  0  0  0  0  0  0
   -0.9987  -10.4839   17.1222 N   0  0  0  0  0  0  0  0  0  0  0  0
   -1.4771   -9.5082   16.3421 C   0  0  0  0  0  0  0  0  0  0  0  0
   -1.1692   -9.5582   14.9209 C   0  0  0  0  0  0  0  0  0  0  0  0
   -0.3338  -10.6588   14.3870 C   0  0  0  0  0  0  0  0  0  0  0  0
   -0.0045  -10.7563   13.0510 N   0  0  0  0  0  0  0  0  0  0  0  0
   -1.7592   -8.5108   14.3910 N   0  0  0  0  0  0  0  0  0  0  0  0
   -2.3773   -7.8234   15.3612 C   0  0  0  0  0  0  0  0  0  0  0  0
   -2.2163   -8.4217   16.5408 N   0  0  0  0  0  0  0  0  0  0  0  0
  2  1  1  6  0  0  0
  2  3  1  0  0  0  0
  2  5  1  0  0  0  0
  3  4  1  0  0  0  0
  3 17  1  0  0  0  0
  5  6  1  0  0  0  0
  7  6  1  1  0  0  0
  7  8  1  0  0  0  0
  7  9  1  0  0  0  0
 10  9  1  6  0  0  0
 10 11  1  0  0  0  0
 10 12  1  0  0  0  0
 11 16  1  0  0  0  0
 12 13  1  1  0  0  0
 12 14  1  0  0  0  0
 14 15  1  1  0  0  0
 14 16  1  0  0  0  0
 16 27  1  6  0  0  0
 18 19  2  0  0  0  0
 18 23  1  0  0  0  0
 19 20  1  0  0  0  0
 20 21  2  0  0  0  0
 21 22  1  0  0  0  0
 21 27  1  0  0  0  0
 22 23  2  0  0  0  0
 22 25  1  0  0  0  0
 23 24  1  0  0  0  0
 25 26  2  0  0  0  0
 26 27  1  0  0  0  0
M  END
>  <CHROM.1>
-38.57514921,-71.21849195,152.45159206,65.56318006,173.61117216,63.30409204
-9.62054044,-3.40745638,-10.70186641,18.69307713,-2.35268272,0.86125225,-0.32017745

>  <Name>
ligand

>  <RI>
0

>  <Rbt.Current_Directory>
/home/itssahil/PROJECTS/Mol_Feturizer/Test_systems_manuscript/rnas/4kqy

>  <Rbt.Executable>
rbdock ($Id: //depot/dev/client3/rdock/2013.1/src/exe/rbdock.cxx#4 $)

>  <Rbt.Library>
libRbt.so (2013.1, Build901 2013/11/27)

>  <Rbt.Parameter_File>
/export/apps/rDock/src/rDock_2013.1_src/data/scripts/dock_solv.prm

>  <Rbt.Receptor>
prm/pocket_docking_7.prm

>  <SCORE>
-18.0058

>  <SCORE.INTER>
-16.6051

>  <SCORE.INTER.CONST>
1

>  <SCORE.INTER.POLAR>
0

>  <SCORE.INTER.ROT>
7

>  <SCORE.INTER.SOLV>
12.8018

>  <SCORE.INTER.VDW>
-23.604

>  <SCORE.INTER.norm>
-0.615004

>  <SCORE.INTRA>
-1.40072

>  <SCORE.INTRA.DIHEDRAL>
-4.48307

>  <SCORE.INTRA.DIHEDRAL.0>
10.4103

>  <SCORE.INTRA.POLAR>
0

>  <SCORE.INTRA.POLAR.0>
0

>  <SCORE.INTRA.REPUL>
0

>  <SCORE.INTRA.REPUL.0>
0

>  <SCORE.INTRA.SOLV>
0.474229

>  <SCORE.INTRA.SOLV.lig_0>
-49.5008

>  <SCORE.INTRA.VDW>
0.603699

>  <SCORE.INTRA.VDW.0>
-2.6946

>  <SCORE.INTRA.norm>
-0.0518786

>  <SCORE.RESTR>
0

>  <SCORE.RESTR.CAVITY>
0

>  <SCORE.RESTR.norm>
0

>  <SCORE.SYSTEM>
0

>  <SCORE.SYSTEM.CONST>
0

>  <SCORE.SYSTEM.DIHEDRAL>
0

>  <SCORE.SYSTEM.SOLV>
0

>  <SCORE.SYSTEM.norm>
0

>  <SCORE.heavy>
27

>  <SCORE.norm>
-0.666883

>  <RMSD>
7.091

$$$$
ligand
 OpenBabel02271912153D
libRbt.so/2013.1/901 2013/11/27
 27 29  0  0  0  0  0  0  0  0999 V2000
   -5.3235  -12.1278   21.0289 N   0  0  0  0  0  0  0  0  0  0  0  0
   -6.2277  -13.2595   21.1049 C   0  0  2  0  0  0  0  0  0  0  0  0
   -5.5673  -14.3009   21.9549 C   0  0  0  0  0  0  0  0  0  0  0  0
   -4.3253  -14.4319   21.9040 O   0  0  0  0  0  0  0  0  0  0  0  0
   -6.5085  -13.8151   19.7061 C   0  0  0  0  0  0  0  0  0  0  0  0
   -7.2859  -12.7993   18.8399 C   0  0  0  0  0  0  0  0  0  0  0  0
   -6.3660  -11.5667   18.1692 S   0  0  2  0  0  0  0  0  0  0  0  0
   -7.3375  -10.2524   17.8734 C   0  0  0  0  0  0  0  0  0  0  0  0
   -5.6418  -12.1069   16.7437 C   0  0  0  0  0  0  0  0  0  0  0  0
   -4.5633  -13.1899   16.9574 C   0  0  1  0  0  0  0  0  0  0  0  0
   -4.1648  -13.8403   15.7391 O   0  0  0  0  0  0  0  0  0  0  0  0
   -3.2415  -12.6393   17.4679 C   0  0  1  0  0  0  0  0  0  0  0  0
   -3.1769  -12.2492   18.8544 O   0  0  0  0  0  0  0  0  0  0  0  0
   -2.3136  -13.7736   17.1093 C   0  0  1  0  0  0  0  0  0  0  0  0
   -2.5417  -14.8836   17.9724 O   0  0  0  0  0  0  0  0  0  0  0  0
   -2.7657  -14.1334   15.7250 C   0  0  2  0  0  0  0  0  0  0  0  0
   -6.2672  -15.0009   22.7251 O   0  0  0  0  0  0  0  0  0  0  0  0
   -0.5797   -9.6220   13.9515 N   0  0  0  0  0  0  0  0  0  0  0  0
   -1.2413   -9.8515   15.1117 C   0  0  0  0  0  0  0  0  0  0  0  0
   -1.7536  -11.0518   15.4317 N   0  0  0  0  0  0  0  0  0  0  0  0
   -1.6238  -12.1125   14.6271 C   0  0  0  0  0  0  0  0  0  0  0  0
   -0.9032  -11.9351   13.3754 C   0  0  0  0  0  0  0  0  0  0  0  0
   -0.3573  -10.6041   13.0225 C   0  0  0  0  0  0  0  0  0  0  0  0
    0.3296  -10.3739   11.8487 N   0  0  0  0  0  0  0  0  0  0  0  0
   -0.9080  -13.1119   12.7912 N   0  0  0  0  0  0  0  0  0  0  0  0
   -1.5802  -13.9771   13.5629 C   0  0  0  0  0  0  0  0  0  0  0  0
   -2.0108  -13.3830   14.6752 N   0  0  0  0  0  0  0  0  0  0  0  0
  2  1  1  6  0  0  0
  2  3  1  0  0  0  0
  2  5  1  0  0  0  0
  3  4  1  0  0  0  0
  3 17  1  0  0  0  0
  5  6  1  0  0  0  0
  7  6  1  6  0  0  0
  7  8  1  0  0  0  0
  7  9  1  0  0  0  0
 10  9  1  6  0  0  0
 10 11  1  0  0  0  0
 10 12  1  0  0  0  0
 11 16  1  0  0  0  0
 12 13  1  1  0  0  0
 12 14  1  0  0  0  0
 14 15  1  1  0  0  0
 14 16  1  0  0  0  0
 16 27  1  6  0  0  0
 18 19  2  0  0  0  0
 18 23  1  0  0  0  0
 19 20  1  0  0  0  0
 20 21  2  0  0  0  0
 21 22  1  0  0  0  0
 21 27  1  0  0  0  0
 22 23  2  0  0  0  0
 22 25  1  0  0  0  0
 23 24  1  0  0  0  0
 25 26  2  0  0  0  0
 26 27  1  0  0  0  0
M  END
>  <CHROM.1>
-34.73990080,-65.85904674,79.03238408,-155.01111670,-67.75894918,167.40269420
75.81090244,-3.69485068,-12.59515141,17.13715597,2.36373378,-0.64319903,2.36981697

>  <Name>
ligand

>  <RI>
0

>  <Rbt.Current_Directory>
/home/itssahil/PROJECTS/Mol_Feturizer/Test_systems_manuscript/rnas/4kqy

>  <Rbt.Executable>
rbdock ($Id: //depot/dev/client3/rdock/2013.1/src/exe/rbdock.cxx#4 $)

>  <Rbt.Library>
libRbt.so (2013.1, Build901 2013/11/27)

>  <Rbt.Parameter_File>
/export/apps/rDock/src/rDock_2013.1_src/data/scripts/dock_solv.prm

>  <Rbt.Receptor>
prm/pocket_docking_7.prm

>  <SCORE>
-9.61737

>  <SCORE.INTER>
-8.11315

>  <SCORE.INTER.CONST>
1

>  <SCORE.INTER.POLAR>
0

>  <SCORE.INTER.ROT>
7

>  <SCORE.INTER.SOLV>
7.35805

>  <SCORE.INTER.VDW>
-16.1281

>  <SCORE.INTER.norm>
-0.300487

>  <SCORE.INTRA>
-1.50421

>  <SCORE.INTRA.DIHEDRAL>
-3.81442

>  <SCORE.INTRA.DIHEDRAL.0>
10.4103

>  <SCORE.INTRA.POLAR>
0

>  <SCORE.INTRA.POLAR.0>
0

>  <SCORE.INTRA.REPUL>
0

>  <SCORE.INTRA.REPUL.0>
0

>  <SCORE.INTRA.SOLV>
3.52768

>  <SCORE.INTRA.SOLV.lig_0>
-49.5008

>  <SCORE.INTRA.VDW>
-1.36085

>  <SCORE.INTRA.VDW.0>
-2.6946

>  <SCORE.INTRA.norm>
-0.0557116

>  <SCORE.RESTR>
0

>  <SCORE.RESTR.CAVITY>
0

>  <SCORE.RESTR.norm>
0

>  <SCORE.SYSTEM>
0

>  <SCORE.SYSTEM.CONST>
0

>  <SCORE.SYSTEM.DIHEDRAL>
0

>  <SCORE.SYSTEM.SOLV>
0

>  <SCORE.SYSTEM.norm>
0

>  <SCORE.heavy>
27

>  <SCORE.norm>
-0.356199

>  <RMSD>
7.111

$$$$
ligand
 OpenBabel02271912153D
libRbt.so/2013.1/901 2013/11/27
 27 29  0  0  0  0  0  0  0  0999 V2000
   -8.6747  -15.7813   21.4914 N   0  0  0  0  0  0  0  0  0  0  0  0
   -7.9473  -15.1192   20.4252 C   0  0  2  0  0  0  0  0  0  0  0  0
   -6.5577  -14.8672   20.9238 C   0  0  0  0  0  0  0  0  0  0  0  0
   -5.5965  -14.9771   20.1324 O   0  0  0  0  0  0  0  0  0  0  0  0
   -8.6265  -13.7981   20.0541 C   0  0  0  0  0  0  0  0  0  0  0  0
   -7.7929  -13.0036   19.0244 C   0  0  0  0  0  0  0  0  0  0  0  0
   -6.5272  -12.1029   19.6585 S   0  0  2  0  0  0  0  0  0  0  0  0
   -7.1400  -10.8446   20.5527 C   0  0  0  0  0  0  0  0  0  0  0  0
   -5.5539  -11.5268   18.4057 C   0  0  0  0  0  0  0  0  0  0  0  0
   -4.2662  -10.8226   18.8827 C   0  0  1  0  0  0  0  0  0  0  0  0
   -3.1854  -11.7340   19.1422 O   0  0  0  0  0  0  0  0  0  0  0  0
   -3.6565   -9.8989   17.8405 C   0  0  1  0  0  0  0  0  0  0  0  0
   -4.3086   -8.6332   17.6137 O   0  0  0  0  0  0  0  0  0  0  0  0
   -2.2500   -9.7742   18.3719 C   0  0  1  0  0  0  0  0  0  0  0  0
   -2.2404   -8.9672   19.5456 O   0  0  0  0  0  0  0  0  0  0  0  0
   -1.9233  -11.1882   18.7515 C   0  0  2  0  0  0  0  0  0  0  0  0
   -6.3857  -14.5202   22.1167 O   0  0  0  0  0  0  0  0  0  0  0  0
   -2.2443  -14.5791   14.6680 N   0  0  0  0  0  0  0  0  0  0  0  0
   -3.2248  -14.1466   15.4976 C   0  0  0  0  0  0  0  0  0  0  0  0
   -2.9988  -13.2851   16.5036 N   0  0  0  0  0  0  0  0  0  0  0  0
   -1.7837  -12.7781   16.7400 C   0  0  0  0  0  0  0  0  0  0  0  0
   -0.6925  -13.1872   15.8686 C   0  0  0  0  0  0  0  0  0  0  0  0
   -0.9471  -14.1512   14.7731 C   0  0  0  0  0  0  0  0  0  0  0  0
    0.0476  -14.5797   13.9189 N   0  0  0  0  0  0  0  0  0  0  0  0
    0.3692  -12.5457   16.3013 N   0  0  0  0  0  0  0  0  0  0  0  0
    0.0256  -11.8036   17.3630 C   0  0  0  0  0  0  0  0  0  0  0  0
   -1.2731  -11.9343   17.6309 N   0  0  0  0  0  0  0  0  0  0  0  0
  2  1  1  1  0  0  0
  2  3  1  0  0  0  0
  2  5  1  0  0  0  0
  3  4  1  0  0  0  0
  3 17  1  0  0  0  0
  5  6  1  0  0  0  0
  7  6  1  6  0  0  0
  7  8  1  0  0  0  0
  7  9  1  0  0  0  0
 10  9  1  6  0  0  0
 10 11  1  0  0  0  0
 10 12  1  0  0  0  0
 11 16  1  0  0  0  0
 12 13  1  1  0  0  0
 12 14  1  0  0  0  0
 14 15  1  1  0  0  0
 14 16  1  0  0  0  0
 16 27  1  6  0  0  0
 18 19  2  0  0  0  0
 18 23  1  0  0  0  0
 19 20  1  0  0  0  0
 20 21  2  0  0  0  0
 21 22  1  0  0  0  0
 21 27  1  0  0  0  0
 22 23  2  0  0  0  0
 22 25  1  0  0  0  0
 23 24  1  0  0  0  0
 25 26  2  0  0  0  0
 26 27  1  0  0  0  0
M  END
>  <CHROM.1>
143.02425380,174.11685989,-81.72721397,-68.53750538,-173.23311021,84.70751620
18.81620149,-4.09470868,-12.55211199,18.37376366,3.09774056,0.62301636,0.33008011

>  <Name>
ligand

>  <RI>
0

>  <Rbt.Current_Directory>
/home/itssahil/PROJECTS/Mol_Feturizer/Test_systems_manuscript/rnas/4kqy

>  <Rbt.Executable>
rbdock ($Id: //depot/dev/client3/rdock/2013.1/src/exe/rbdock.cxx#4 $)

>  <Rbt.Library>
libRbt.so (2013.1, Build901 2013/11/27)

>  <Rbt.Parameter_File>
/export/apps/rDock/src/rDock_2013.1_src/data/scripts/dock_solv.prm

>  <Rbt.Receptor>
prm/pocket_docking_8.prm

>  <SCORE>
-12.7766

>  <SCORE.INTER>
-10.261

>  <SCORE.INTER.CONST>
1

>  <SCORE.INTER.POLAR>
0

>  <SCORE.INTER.ROT>
7

>  <SCORE.INTER.SOLV>
15.7809

>  <SCORE.INTER.VDW>
-20.3676

>  <SCORE.INTER.norm>
-0.380037

>  <SCORE.INTRA>
-2.51559

>  <SCORE.INTRA.DIHEDRAL>
-3.74291

>  <SCORE.INTRA.DIHEDRAL.0>
10.4103

>  <SCORE.INTRA.POLAR>
0

>  <SCORE.INTRA.POLAR.0>
0

>  <SCORE.INTRA.REPUL>
0

>  <SCORE.INTRA.REPUL.0>
0

>  <SCORE.INTRA.SOLV>
-0.56198

>  <SCORE.INTRA.SOLV.lig_0>
-49.5008

>  <SCORE.INTRA.VDW>
-0.363146

>  <SCORE.INTRA.VDW.0>
-2.6946

>  <SCORE.INTRA.norm>
-0.0931701

>  <SCORE.RESTR>
0

>  <SCORE.RESTR.CAVITY>
0

>  <SCORE.RESTR.norm>
0

>  <SCORE.SYSTEM>
0

>  <SCORE.SYSTEM.CONST>
0

>  <SCORE.SYSTEM.DIHEDRAL>
0

>  <SCORE.SYSTEM.SOLV>
0

>  <SCORE.SYSTEM.norm>
0

>  <SCORE.heavy>
27

>  <SCORE.norm>
-0.473207

>  <RMSD>
7.151

$$$$
ligand
 OpenBabel02271912153D
libRbt.so/2013.1/901 2013/11/27
 27 29  0  0  0  0  0  0  0  0999 V2000
   -0.7145  -13.8651   14.7162 N   0  0  0  0  0  0  0  0  0  0  0  0
   -1.4204  -13.1513   15.7633 C   0  0  2  0  0  0  0  0  0  0  0  0
   -1.1138  -13.8408   17.0570 C   0  0  0  0  0  0  0  0  0  0  0  0
   -2.0533  -14.1493   17.8214 O   0  0  0  0  0  0  0  0  0  0  0  0
   -2.9283  -13.1657   15.4979 C   0  0  0  0  0  0  0  0  0  0  0  0
   -3.2765  -12.4465   14.1758 C   0  0  0  0  0  0  0  0  0  0  0  0
   -4.9145  -12.2747   13.8552 S   0  0  2  0  0  0  0  0  0  0  0  0
   -5.1137  -11.5950   12.3528 C   0  0  0  0  0  0  0  0  0  0  0  0
   -5.6305  -11.3148   15.0445 C   0  0  0  0  0  0  0  0  0  0  0  0
   -7.1007  -10.9461   14.7542 C   0  0  1  0  0  0  0  0  0  0  0  0
   -7.9916  -12.0717   14.8264 O   0  0  0  0  0  0  0  0  0  0  0  0
   -7.7042   -9.9999   15.7797 C   0  0  1  0  0  0  0  0  0  0  0  0
   -7.3065   -8.6154   15.7192 O   0  0  0  0  0  0  0  0  0  0  0  0
   -9.1750  -10.2239   15.5293 C   0  0  1  0  0  0  0  0  0  0  0  0
   -9.5572   -9.6272   14.2936 O   0  0  0  0  0  0  0  0  0  0  0  0
   -9.2545  -11.7157   15.3938 C   0  0  2  0  0  0  0  0  0  0  0  0
    0.0757  -14.1244   17.3360 O   0  0  0  0  0  0  0  0  0  0  0  0
  -12.0339  -15.1898   18.3061 N   0  0  0  0  0  0  0  0  0  0  0  0
  -12.1564  -14.8879   16.9906 C   0  0  0  0  0  0  0  0  0  0  0  0
  -11.3840  -13.9742   16.3791 N   0  0  0  0  0  0  0  0  0  0  0  0
  -10.4213  -13.3128   17.0312 C   0  0  0  0  0  0  0  0  0  0  0  0
  -10.2254  -13.6094   18.4423 C   0  0  0  0  0  0  0  0  0  0  0  0
  -11.0934  -14.6051   19.1125 C   0  0  0  0  0  0  0  0  0  0  0  0
  -10.9587  -14.9239   20.4478 N   0  0  0  0  0  0  0  0  0  0  0  0
   -9.2285  -12.8475   18.8318 N   0  0  0  0  0  0  0  0  0  0  0  0
   -8.8177  -12.1056   17.7942 C   0  0  0  0  0  0  0  0  0  0  0  0
   -9.5290  -12.3843   16.7025 N   0  0  0  0  0  0  0  0  0  0  0  0
  2  1  1  6  0  0  0
  2  3  1  0  0  0  0
  2  5  1  0  0  0  0
  3  4  1  0  0  0  0
  3 17  1  0  0  0  0
  5  6  1  0  0  0  0
  7  6  1  1  0  0  0
  7  8  1  0  0  0  0
  7  9  1  0  0  0  0
 10  9  1  1  0  0  0
 10 11  1  0  0  0  0
 10 12  1  0  0  0  0
 11 16  1  0  0  0  0
 12 13  1  6  0  0  0
 12 14  1  0  0  0  0
 14 15  1  6  0  0  0
 14 16  1  0  0  0  0
 16 27  1  1  0  0  0
 18 19  2  0  0  0  0
 18 23  1  0  0  0  0
 19 20  1  0  0  0  0
 20 21  2  0  0  0  0
 21 22  1  0  0  0  0
 21 27  1  0  0  0  0
 22 23  2  0  0  0  0
 22 25  1  0  0  0  0
 23 24  1  0  0  0  0
 25 26  2  0  0  0  0
 26 27  1  0  0  0  0
M  END
>  <CHROM.1>
-130.45054554,-62.18391454,-174.47152829,-175.56352955,172.80129752,68.50236456
-111.73788773,-6.86957646,-12.57034551,16.13014586,-0.18231226,-0.14558296
2.33865620

>  <Name>
ligand

>  <RI>
0

>  <Rbt.Current_Directory>
/home/itssahil/PROJECTS/Mol_Feturizer/Test_systems_manuscript/rnas/4kqy

>  <Rbt.Executable>
rbdock ($Id: //depot/dev/client3/rdock/2013.1/src/exe/rbdock.cxx#4 $)

>  <Rbt.Library>
libRbt.so (2013.1, Build901 2013/11/27)

>  <Rbt.Parameter_File>
/export/apps/rDock/src/rDock_2013.1_src/data/scripts/dock_solv.prm

>  <Rbt.Receptor>
prm/pocket_docking_8.prm

>  <SCORE>
-11.6839

>  <SCORE.INTER>
-10.1256

>  <SCORE.INTER.CONST>
1

>  <SCORE.INTER.POLAR>
0

>  <SCORE.INTER.ROT>
7

>  <SCORE.INTER.SOLV>
11.4786

>  <SCORE.INTER.VDW>
-18.8433

>  <SCORE.INTER.norm>
-0.375023

>  <SCORE.INTRA>
-1.55826

>  <SCORE.INTRA.DIHEDRAL>
-7.06581

>  <SCORE.INTRA.DIHEDRAL.0>
10.4103

>  <SCORE.INTRA.POLAR>
0

>  <SCORE.INTRA.POLAR.0>
0

>  <SCORE.INTRA.REPUL>
0

>  <SCORE.INTRA.REPUL.0>
0

>  <SCORE.INTRA.SOLV>
0.00600645

>  <SCORE.INTRA.SOLV.lig_0>
-49.5008

>  <SCORE.INTRA.VDW>
1.97165

>  <SCORE.INTRA.VDW.0>
-2.6946

>  <SCORE.INTRA.norm>
-0.0577132

>  <SCORE.RESTR>
0

>  <SCORE.RESTR.CAVITY>
0

>  <SCORE.RESTR.norm>
0

>  <SCORE.SYSTEM>
0

>  <SCORE.SYSTEM.CONST>
0

>  <SCORE.SYSTEM.DIHEDRAL>
0

>  <SCORE.SYSTEM.SOLV>
0

>  <SCORE.SYSTEM.norm>
0

>  <SCORE.heavy>
27

>  <SCORE.norm>
-0.432736

>  <RMSD>
7.227

$$$$
ligand
 OpenBabel02271912153D
libRbt.so/2013.1/901 2013/11/27
 27 29  0  0  0  0  0  0  0  0999 V2000
   -6.0214  -14.7000   21.6059 N   0  0  0  0  0  0  0  0  0  0  0  0
   -7.1109  -13.9008   21.0781 C   0  0  2  0  0  0  0  0  0  0  0  0
   -8.0190  -14.8258   20.3279 C   0  0  0  0  0  0  0  0  0  0  0  0
   -8.8867  -14.3449   19.5676 O   0  0  0  0  0  0  0  0  0  0  0  0
   -6.5731  -12.8121   20.1455 C   0  0  0  0  0  0  0  0  0  0  0  0
   -5.7580  -11.7543   20.9222 C   0  0  0  0  0  0  0  0  0  0  0  0
   -4.2542  -12.2582   21.4696 S   0  0  2  0  0  0  0  0  0  0  0  0
   -3.6248  -11.1077   22.4889 C   0  0  0  0  0  0  0  0  0  0  0  0
   -3.2271  -12.5183   20.1559 C   0  0  0  0  0  0  0  0  0  0  0  0
   -2.8723  -11.2373   19.3717 C   0  0  1  0  0  0  0  0  0  0  0  0
   -1.4957  -11.1876   18.9614 O   0  0  0  0  0  0  0  0  0  0  0  0
   -3.6020  -11.1156   18.0436 C   0  0  1  0  0  0  0  0  0  0  0  0
   -4.9958  -10.7490   18.0840 O   0  0  0  0  0  0  0  0  0  0  0  0
   -2.7264  -10.1088   17.3394 C   0  0  1  0  0  0  0  0  0  0  0  0
   -2.9075   -8.8174   17.9126 O   0  0  0  0  0  0  0  0  0  0  0  0
   -1.3467  -10.5973   17.6679 C   0  0  2  0  0  0  0  0  0  0  0  0
   -7.8727  -16.0654   20.4511 O   0  0  0  0  0  0  0  0  0  0  0  0
   -2.0368  -14.8402   14.5378 N   0  0  0  0  0  0  0  0  0  0  0  0
   -2.9016  -14.2782   15.4169 C   0  0  0  0  0  0  0  0  0  0  0  0
   -2.5895  -13.2004   16.1561 N   0  0  0  0  0  0  0  0  0  0  0  0
   -1.4011  -12.5947   16.0552 C   0  0  0  0  0  0  0  0  0  0  0  0
   -0.4364  -13.1381   15.1110 C   0  0  0  0  0  0  0  0  0  0  0  0
   -0.7824  -14.3372   14.3133 C   0  0  0  0  0  0  0  0  0  0  0  0
    0.0920  -14.9003   13.4071 N   0  0  0  0  0  0  0  0  0  0  0  0
    0.6217  -12.3642   15.1971 N   0  0  0  0  0  0  0  0  0  0  0  0
    0.3937  -11.4175   16.1178 C   0  0  0  0  0  0  0  0  0  0  0  0
   -0.8268  -11.5465   16.6365 N   0  0  0  0  0  0  0  0  0  0  0  0
  2  1  1  6  0  0  0
  2  3  1  0  0  0  0
  2  5  1  0  0  0  0
  3  4  1  0  0  0  0
  3 17  1  0  0  0  0
  5  6  1  0  0  0  0
  7  6  1  6  0  0  0
  7  8  1  0  0  0  0
  7  9  1  0  0  0  0
 10  9  1  6  0  0  0
 10 11  1  0  0  0  0
 10 12  1  0  0  0  0
 11 16  1  0  0  0  0
 12 13  1  1  0  0  0
 12 14  1  0  0  0  0
 14 15  1  1  0  0  0
 14 16  1  0  0  0  0
 16 27  1  6  0  0  0
 18 19  2  0  0  0  0
 18 23  1  0  0  0  0
 19 20  1  0  0  0  0
 20 21  2  0  0  0  0
 21 22  1  0  0  0  0
 21 27  1  0  0  0  0
 22 23  2  0  0  0  0
 22 25  1  0  0  0  0
 23 24  1  0  0  0  0
 25 26  2  0  0  0  0
 26 27  1  0  0  0  0
M  END
>  <CHROM.1>
-166.27877040,-67.77333796,72.30106529,-170.59699381,66.21329680,139.60098029
70.26270930,-3.49963064,-12.57920977,18.33489283,2.72932045,0.65400675,0.77181415

>  <Name>
ligand

>  <RI>
0

>  <Rbt.Current_Directory>
/home/itssahil/PROJECTS/Mol_Feturizer/Test_systems_manuscript/rnas/4kqy

>  <Rbt.Executable>
rbdock ($Id: //depot/dev/client3/rdock/2013.1/src/exe/rbdock.cxx#4 $)

>  <Rbt.Library>
libRbt.so (2013.1, Build901 2013/11/27)

>  <Rbt.Parameter_File>
/export/apps/rDock/src/rDock_2013.1_src/data/scripts/dock_solv.prm

>  <Rbt.Receptor>
prm/pocket_docking_8.prm

>  <SCORE>
-11.9659

>  <SCORE.INTER>
-11.8762

>  <SCORE.INTER.CONST>
1

>  <SCORE.INTER.POLAR>
0

>  <SCORE.INTER.ROT>
7

>  <SCORE.INTER.SOLV>
13.3837

>  <SCORE.INTER.VDW>
-20.6454

>  <SCORE.INTER.norm>
-0.439861

>  <SCORE.INTRA>
-0.0896305

>  <SCORE.INTRA.DIHEDRAL>
-2.6088

>  <SCORE.INTRA.DIHEDRAL.0>
10.4103

>  <SCORE.INTRA.POLAR>
0

>  <SCORE.INTRA.POLAR.0>
0

>  <SCORE.INTRA.REPUL>
0

>  <SCORE.INTRA.REPUL.0>
0

>  <SCORE.INTRA.SOLV>
2.48669

>  <SCORE.INTRA.SOLV.lig_0>
-49.5008

>  <SCORE.INTRA.VDW>
-0.0285708

>  <SCORE.INTRA.VDW.0>
-2.6946

>  <SCORE.INTRA.norm>
-0.00331965

>  <SCORE.RESTR>
0

>  <SCORE.RESTR.CAVITY>
0

>  <SCORE.RESTR.norm>
0

>  <SCORE.SYSTEM>
0

>  <SCORE.SYSTEM.CONST>
0

>  <SCORE.SYSTEM.DIHEDRAL>
0

>  <SCORE.SYSTEM.SOLV>
0

>  <SCORE.SYSTEM.norm>
0

>  <SCORE.heavy>
27

>  <SCORE.norm>
-0.44318

>  <RMSD>
7.254

$$$$
ligand
 OpenBabel02271912153D
libRbt.so/2013.1/901 2013/11/27
 27 29  0  0  0  0  0  0  0  0999 V2000
   -4.2346   -6.9235   22.0812 N   0  0  0  0  0  0  0  0  0  0  0  0
   -3.6729   -7.7380   21.0205 C   0  0  2  0  0  0  0  0  0  0  0  0
   -4.1986   -7.2046   19.7235 C   0  0  0  0  0  0  0  0  0  0  0  0
   -3.6806   -7.5868   18.6521 O   0  0  0  0  0  0  0  0  0  0  0  0
   -4.0814   -9.2030   21.1972 C   0  0  0  0  0  0  0  0  0  0  0  0
   -3.3301  -10.1226   20.2091 C   0  0  0  0  0  0  0  0  0  0  0  0
   -3.8398  -11.7208   20.1777 S   0  0  2  0  0  0  0  0  0  0  0  0
   -3.5361  -12.4252   21.6509 C   0  0  0  0  0  0  0  0  0  0  0  0
   -3.0410  -12.5497   18.9435 C   0  0  0  0  0  0  0  0  0  0  0  0
   -3.3534  -12.0224   17.5271 C   0  0  1  0  0  0  0  0  0  0  0  0
   -2.1954  -11.5145   16.8439 O   0  0  0  0  0  0  0  0  0  0  0  0
   -3.8370  -13.0999   16.5700 C   0  0  1  0  0  0  0  0  0  0  0  0
   -5.1895  -13.5725   16.7322 O   0  0  0  0  0  0  0  0  0  0  0  0
   -3.5809  -12.4263   15.2445 C   0  0  1  0  0  0  0  0  0  0  0  0
   -4.5252  -11.3802   15.0371 O   0  0  0  0  0  0  0  0  0  0  0  0
   -2.2231  -11.8221   15.4481 C   0  0  2  0  0  0  0  0  0  0  0  0
   -5.1685   -6.4094   19.7333 O   0  0  0  0  0  0  0  0  0  0  0  0
    0.0631  -14.8550   11.7264 N   0  0  0  0  0  0  0  0  0  0  0  0
   -1.0628  -14.1052   11.6435 C   0  0  0  0  0  0  0  0  0  0  0  0
   -1.5353  -13.3861   12.6754 N   0  0  0  0  0  0  0  0  0  0  0  0
   -0.9070  -13.3472   13.8557 C   0  0  0  0  0  0  0  0  0  0  0  0
    0.3210  -14.1143   14.0006 C   0  0  0  0  0  0  0  0  0  0  0  0
    0.8249  -14.9185   12.8632 C   0  0  0  0  0  0  0  0  0  0  0  0
    1.9793  -15.6695   12.9424 N   0  0  0  0  0  0  0  0  0  0  0  0
    0.7354  -13.8959   15.2280 N   0  0  0  0  0  0  0  0  0  0  0  0
   -0.1368  -13.0854   15.8431 C   0  0  0  0  0  0  0  0  0  0  0  0
   -1.1280  -12.7455   15.0200 N   0  0  0  0  0  0  0  0  0  0  0  0
  2  1  1  1  0  0  0
  2  3  1  0  0  0  0
  2  5  1  0  0  0  0
  3  4  1  0  0  0  0
  3 17  1  0  0  0  0
  5  6  1  0  0  0  0
  7  6  1  1  0  0  0
  7  8  1  0  0  0  0
  7  9  1  0  0  0  0
 10  9  1  1  0  0  0
 10 11  1  0  0  0  0
 10 12  1  0  0  0  0
 11 16  1  0  0  0  0
 12 13  1  1  0  0  0
 12 14  1  0  0  0  0
 14 15  1  1  0  0  0
 14 16  1  0  0  0  0
 16 27  1  1  0  0  0
 18 19  2  0  0  0  0
 18 23  1  0  0  0  0
 19 20  1  0  0  0  0
 20 21  2  0  0  0  0
 21 22  1  0  0  0  0
 21 27  1  0  0  0  0
 22 23  2  0  0  0  0
 22 25  1  0  0  0  0
 23 24  1  0  0  0  0
 25 26  2  0  0  0  0
 26 27  1  0  0  0  0
M  END
>  <CHROM.1>
167.58339018,-171.52534531,-172.51366965,-64.30504743,-63.43122568,118.06103369
172.75443799,-2.54035610,-11.70133039,17.00977849,2.81787495,-1.13838831
2.13710823

>  <Name>
ligand

>  <RI>
0

>  <Rbt.Current_Directory>
/home/itssahil/PROJECTS/Mol_Feturizer/Test_systems_manuscript/rnas/4kqy

>  <Rbt.Executable>
rbdock ($Id: //depot/dev/client3/rdock/2013.1/src/exe/rbdock.cxx#4 $)

>  <Rbt.Library>
libRbt.so (2013.1, Build901 2013/11/27)

>  <Rbt.Parameter_File>
/export/apps/rDock/src/rDock_2013.1_src/data/scripts/dock_solv.prm

>  <Rbt.Receptor>
prm/pocket_docking_7.prm

>  <SCORE>
-9.70189

>  <SCORE.INTER>
-9.24915

>  <SCORE.INTER.CONST>
1

>  <SCORE.INTER.POLAR>
0

>  <SCORE.INTER.ROT>
7

>  <SCORE.INTER.SOLV>
17.6485

>  <SCORE.INTER.VDW>
-20.3156

>  <SCORE.INTER.norm>
-0.342561

>  <SCORE.INTRA>
-0.452741

>  <SCORE.INTRA.DIHEDRAL>
-1.95763

>  <SCORE.INTRA.DIHEDRAL.0>
10.4103

>  <SCORE.INTRA.POLAR>
0

>  <SCORE.INTRA.POLAR.0>
0

>  <SCORE.INTRA.REPUL>
0

>  <SCORE.INTRA.REPUL.0>
0

>  <SCORE.INTRA.SOLV>
-0.657925

>  <SCORE.INTRA.SOLV.lig_0>
-49.5008

>  <SCORE.INTRA.VDW>
0.855035

>  <SCORE.INTRA.VDW.0>
-2.6946

>  <SCORE.INTRA.norm>
-0.0167682

>  <SCORE.RESTR>
0

>  <SCORE.RESTR.CAVITY>
0

>  <SCORE.RESTR.norm>
0

>  <SCORE.SYSTEM>
0

>  <SCORE.SYSTEM.CONST>
0

>  <SCORE.SYSTEM.DIHEDRAL>
0

>  <SCORE.SYSTEM.SOLV>
0

>  <SCORE.SYSTEM.norm>
0

>  <SCORE.heavy>
27

>  <SCORE.norm>
-0.359329

>  <RMSD>
7.264

$$$$
ligand
 OpenBabel02271912153D
libRbt.so/2013.1/901 2013/11/27
 27 29  0  0  0  0  0  0  0  0999 V2000
  -10.5843  -13.6526   18.9853 N   0  0  0  0  0  0  0  0  0  0  0  0
   -9.2206  -14.0075   19.3300 C   0  0  2  0  0  0  0  0  0  0  0  0
   -9.2896  -15.0580   20.3953 C   0  0  0  0  0  0  0  0  0  0  0  0
   -8.3881  -15.9213   20.4598 O   0  0  0  0  0  0  0  0  0  0  0  0
   -8.4614  -12.7805   19.8420 C   0  0  0  0  0  0  0  0  0  0  0  0
   -7.0132  -13.1387   20.2432 C   0  0  0  0  0  0  0  0  0  0  0  0
   -6.0789  -13.8348   19.0358 S   0  0  2  0  0  0  0  0  0  0  0  0
   -4.8933  -14.7705   19.7268 C   0  0  0  0  0  0  0  0  0  0  0  0
   -5.4005  -12.6267   18.0721 C   0  0  0  0  0  0  0  0  0  0  0  0
   -4.2734  -11.8301   18.7627 C   0  0  1  0  0  0  0  0  0  0  0  0
   -3.0650  -12.5896   18.9320 O   0  0  0  0  0  0  0  0  0  0  0  0
   -3.7867  -10.6390   17.9533 C   0  0  1  0  0  0  0  0  0  0  0  0
   -4.6351   -9.4740   17.9121 O   0  0  0  0  0  0  0  0  0  0  0  0
   -2.4461  -10.3950   18.6010 C   0  0  1  0  0  0  0  0  0  0  0  0
   -2.6246   -9.8362   19.8991 O   0  0  0  0  0  0  0  0  0  0  0  0
   -1.8991  -11.7847   18.7411 C   0  0  2  0  0  0  0  0  0  0  0  0
  -10.2323  -15.0345   21.2223 O   0  0  0  0  0  0  0  0  0  0  0  0
   -1.3398  -14.6203   14.2776 N   0  0  0  0  0  0  0  0  0  0  0  0
   -2.3921  -14.5687   15.1300 C   0  0  0  0  0  0  0  0  0  0  0  0
   -2.3954  -13.8060   16.2362 N   0  0  0  0  0  0  0  0  0  0  0  0
   -1.3583  -13.0251   16.5588 C   0  0  0  0  0  0  0  0  0  0  0  0
   -0.2060  -13.0196   15.6702 C   0  0  0  0  0  0  0  0  0  0  0  0
   -0.2038  -13.8772   14.4625 C   0  0  0  0  0  0  0  0  0  0  0  0
    0.8609  -13.9182   13.5864 N   0  0  0  0  0  0  0  0  0  0  0  0
    0.6491  -12.1747   16.2001 N   0  0  0  0  0  0  0  0  0  0  0  0
    0.1296  -11.6850   17.3343 C   0  0  0  0  0  0  0  0  0  0  0  0
   -1.0839  -12.1893   17.5550 N   0  0  0  0  0  0  0  0  0  0  0  0
  2  1  1  1  0  0  0
  2  3  1  0  0  0  0
  2  5  1  0  0  0  0
  3  4  1  0  0  0  0
  3 17  1  0  0  0  0
  5  6  1  0  0  0  0
  7  6  1  1  0  0  0
  7  8  1  0  0  0  0
  7  9  1  0  0  0  0
 10  9  1  6  0  0  0
 10 11  1  0  0  0  0
 10 12  1  0  0  0  0
 11 16  1  0  0  0  0
 12 13  1  1  0  0  0
 12 14  1  0  0  0  0
 14 15  1  1  0  0  0
 14 16  1  0  0  0  0
 16 27  1  6  0  0  0
 18 19  2  0  0  0  0
 18 23  1  0  0  0  0
 19 20  1  0  0  0  0
 20 21  2  0  0  0  0
 21 22  1  0  0  0  0
 21 27  1  0  0  0  0
 22 23  2  0  0  0  0
 22 25  1  0  0  0  0
 23 24  1  0  0  0  0
 25 26  2  0  0  0  0
 26 27  1  0  0  0  0
M  END
>  <CHROM.1>
148.98307747,178.84610553,57.20010103,-153.96541632,71.88579214,71.37836756
11.12548429,-4.25365708,-13.00517912,18.09890102,3.03214848,0.47714320,0.57117880

>  <Name>
ligand

>  <RI>
0

>  <Rbt.Current_Directory>
/home/itssahil/PROJECTS/Mol_Feturizer/Test_systems_manuscript/rnas/4kqy

>  <Rbt.Executable>
rbdock ($Id: //depot/dev/client3/rdock/2013.1/src/exe/rbdock.cxx#4 $)

>  <Rbt.Library>
libRbt.so (2013.1, Build901 2013/11/27)

>  <Rbt.Parameter_File>
/export/apps/rDock/src/rDock_2013.1_src/data/scripts/dock_solv.prm

>  <Rbt.Receptor>
prm/pocket_docking_8.prm

>  <SCORE>
-14.8169

>  <SCORE.INTER>
-12.0784

>  <SCORE.INTER.CONST>
1

>  <SCORE.INTER.POLAR>
0

>  <SCORE.INTER.ROT>
7

>  <SCORE.INTER.SOLV>
9.52429

>  <SCORE.INTER.VDW>
-19.4937

>  <SCORE.INTER.norm>
-0.447348

>  <SCORE.INTRA>
-2.73846

>  <SCORE.INTRA.DIHEDRAL>
-5.07784

>  <SCORE.INTRA.DIHEDRAL.0>
10.4103

>  <SCORE.INTRA.POLAR>
0

>  <SCORE.INTRA.POLAR.0>
0

>  <SCORE.INTRA.REPUL>
0

>  <SCORE.INTRA.REPUL.0>
0

>  <SCORE.INTRA.SOLV>
-0.3681

>  <SCORE.INTRA.SOLV.lig_0>
-49.5008

>  <SCORE.INTRA.VDW>
-0.0154962

>  <SCORE.INTRA.VDW.0>
-2.6946

>  <SCORE.INTRA.norm>
-0.101425

>  <SCORE.RESTR>
0

>  <SCORE.RESTR.CAVITY>
0

>  <SCORE.RESTR.norm>
0

>  <SCORE.SYSTEM>
0

>  <SCORE.SYSTEM.CONST>
0

>  <SCORE.SYSTEM.DIHEDRAL>
0

>  <SCORE.SYSTEM.SOLV>
0

>  <SCORE.SYSTEM.norm>
0

>  <SCORE.heavy>
27

>  <SCORE.norm>
-0.548773

>  <RMSD>
7.290

$$$$
ligand
 OpenBabel02271912153D
libRbt.so/2013.1/901 2013/11/27
 27 29  0  0  0  0  0  0  0  0999 V2000
  -10.5189  -12.8091   16.0724 N   0  0  0  0  0  0  0  0  0  0  0  0
  -10.2439  -12.5364   17.4704 C   0  0  2  0  0  0  0  0  0  0  0  0
  -11.5534  -12.5696   18.1965 C   0  0  0  0  0  0  0  0  0  0  0  0
  -12.5302  -11.9513   17.7213 O   0  0  0  0  0  0  0  0  0  0  0  0
   -9.5836  -11.1640   17.6280 C   0  0  0  0  0  0  0  0  0  0  0  0
   -8.1337  -11.1697   17.0948 C   0  0  0  0  0  0  0  0  0  0  0  0
   -7.3169   -9.7082   17.2040 S   0  0  2  0  0  0  0  0  0  0  0  0
   -7.8395   -8.6932   15.9976 C   0  0  0  0  0  0  0  0  0  0  0  0
   -5.6546   -9.9738   17.0826 C   0  0  0  0  0  0  0  0  0  0  0  0
   -5.1149  -11.0397   18.0596 C   0  0  1  0  0  0  0  0  0  0  0  0
   -5.0105  -12.3465   17.4705 O   0  0  0  0  0  0  0  0  0  0  0  0
   -3.6866  -10.7824   18.5118 C   0  0  1  0  0  0  0  0  0  0  0  0
   -3.4761   -9.7352   19.4802 O   0  0  0  0  0  0  0  0  0  0  0  0
   -3.3020  -12.1555   19.0047 C   0  0  1  0  0  0  0  0  0  0  0  0
   -3.9694  -12.4398   20.2306 O   0  0  0  0  0  0  0  0  0  0  0  0
   -3.8537  -13.0480   17.9326 C   0  0  2  0  0  0  0  0  0  0  0  0
  -11.6555  -13.2419   19.2504 O   0  0  0  0  0  0  0  0  0  0  0  0
   -2.4853  -13.0347   12.7942 N   0  0  0  0  0  0  0  0  0  0  0  0
   -3.6497  -12.6463   13.3685 C   0  0  0  0  0  0  0  0  0  0  0  0
   -3.8644  -12.7112   14.6933 N   0  0  0  0  0  0  0  0  0  0  0  0
   -2.9258  -13.1478   15.5404 C   0  0  0  0  0  0  0  0  0  0  0  0
   -1.6445  -13.5587   14.9863 C   0  0  0  0  0  0  0  0  0  0  0  0
   -1.4230  -13.5007   13.5229 C   0  0  0  0  0  0  0  0  0  0  0  0
   -0.2324  -13.8814   12.9395 N   0  0  0  0  0  0  0  0  0  0  0  0
   -0.9122  -13.9242   16.0139 N   0  0  0  0  0  0  0  0  0  0  0  0
   -1.6371  -13.7911   17.1331 C   0  0  0  0  0  0  0  0  0  0  0  0
   -2.8517  -13.3181   16.8564 N   0  0  0  0  0  0  0  0  0  0  0  0
  2  1  1  6  0  0  0
  2  3  1  0  0  0  0
  2  5  1  0  0  0  0
  3  4  1  0  0  0  0
  3 17  1  0  0  0  0
  5  6  1  0  0  0  0
  7  6  1  6  0  0  0
  7  8  1  0  0  0  0
  7  9  1  0  0  0  0
 10  9  1  6  0  0  0
 10 11  1  0  0  0  0
 10 12  1  0  0  0  0
 11 16  1  0  0  0  0
 12 13  1  1  0  0  0
 12 14  1  0  0  0  0
 14 15  1  1  0  0  0
 14 16  1  0  0  0  0
 16 27  1  6  0  0  0
 18 19  2  0  0  0  0
 18 23  1  0  0  0  0
 19 20  1  0  0  0  0
 20 21  2  0  0  0  0
 21 22  1  0  0  0  0
 21 27  1  0  0  0  0
 22 23  2  0  0  0  0
 22 25  1  0  0  0  0
 23 24  1  0  0  0  0
 25 26  2  0  0  0  0
 26 27  1  0  0  0  0
M  END
>  <CHROM.1>
-47.16454310,-71.03540516,179.41494970,-77.10645604,-52.11876691,95.71715458
-8.38532891,-5.56938784,-12.02292814,16.84377448,2.81432725,-0.05247806,1.19017627

>  <Name>
ligand

>  <RI>
0

>  <Rbt.Current_Directory>
/home/itssahil/PROJECTS/Mol_Feturizer/Test_systems_manuscript/rnas/4kqy

>  <Rbt.Executable>
rbdock ($Id: //depot/dev/client3/rdock/2013.1/src/exe/rbdock.cxx#4 $)

>  <Rbt.Library>
libRbt.so (2013.1, Build901 2013/11/27)

>  <Rbt.Parameter_File>
/export/apps/rDock/src/rDock_2013.1_src/data/scripts/dock_solv.prm

>  <Rbt.Receptor>
prm/pocket_docking_7.prm

>  <SCORE>
-6.18212

>  <SCORE.INTER>
-4.95498

>  <SCORE.INTER.CONST>
1

>  <SCORE.INTER.POLAR>
0

>  <SCORE.INTER.ROT>
7

>  <SCORE.INTER.SOLV>
7.21608

>  <SCORE.INTER.VDW>
-13.9753

>  <SCORE.INTER.norm>
-0.183518

>  <SCORE.INTRA>
-1.22714

>  <SCORE.INTRA.DIHEDRAL>
-2.64508

>  <SCORE.INTRA.DIHEDRAL.0>
10.4103

>  <SCORE.INTRA.POLAR>
0

>  <SCORE.INTRA.POLAR.0>
0

>  <SCORE.INTRA.REPUL>
0

>  <SCORE.INTRA.REPUL.0>
0

>  <SCORE.INTRA.SOLV>
-0.0445082

>  <SCORE.INTRA.SOLV.lig_0>
-49.5008

>  <SCORE.INTRA.VDW>
0.117658

>  <SCORE.INTRA.VDW.0>
-2.6946

>  <SCORE.INTRA.norm>
-0.0454496

>  <SCORE.RESTR>
0

>  <SCORE.RESTR.CAVITY>
0

>  <SCORE.RESTR.norm>
0

>  <SCORE.SYSTEM>
0

>  <SCORE.SYSTEM.CONST>
0

>  <SCORE.SYSTEM.DIHEDRAL>
0

>  <SCORE.SYSTEM.SOLV>
0

>  <SCORE.SYSTEM.norm>
0

>  <SCORE.heavy>
27

>  <SCORE.norm>
-0.228967

>  <RMSD>
7.302

$$$$
ligand
 OpenBabel02271912153D
libRbt.so/2013.1/901 2013/11/27
 27 29  0  0  0  0  0  0  0  0999 V2000
   -5.4410  -14.2694   22.4383 N   0  0  0  0  0  0  0  0  0  0  0  0
   -5.7128  -13.3137   21.3815 C   0  0  2  0  0  0  0  0  0  0  0  0
   -7.0123  -13.7067   20.7490 C   0  0  0  0  0  0  0  0  0  0  0  0
   -7.9164  -12.8517   20.6309 O   0  0  0  0  0  0  0  0  0  0  0  0
   -4.5890  -13.3315   20.3418 C   0  0  0  0  0  0  0  0  0  0  0  0
   -3.3647  -12.5190   20.8187 C   0  0  0  0  0  0  0  0  0  0  0  0
   -3.3891  -10.8845   20.4404 S   0  0  2  0  0  0  0  0  0  0  0  0
   -4.3366  -10.0782   21.5407 C   0  0  0  0  0  0  0  0  0  0  0  0
   -3.9797  -10.6707   18.8738 C   0  0  0  0  0  0  0  0  0  0  0  0
   -3.3284   -9.4980   18.1107 C   0  0  1  0  0  0  0  0  0  0  0  0
   -1.9527   -9.7383   17.7704 O   0  0  0  0  0  0  0  0  0  0  0  0
   -3.9500   -9.2395   16.7477 C   0  0  1  0  0  0  0  0  0  0  0  0
   -5.2377   -8.5917   16.7182 O   0  0  0  0  0  0  0  0  0  0  0  0
   -2.8507   -8.4423   16.0902 C   0  0  1  0  0  0  0  0  0  0  0  0
   -2.7883   -7.1364   16.6557 O   0  0  0  0  0  0  0  0  0  0  0  0
   -1.6204   -9.2032   16.4872 C   0  0  2  0  0  0  0  0  0  0  0  0
   -7.1592  -14.8765   20.3210 O   0  0  0  0  0  0  0  0  0  0  0  0
   -1.3319  -14.3130   15.0442 N   0  0  0  0  0  0  0  0  0  0  0  0
   -1.7949  -13.7771   16.1996 C   0  0  0  0  0  0  0  0  0  0  0  0
   -1.8023  -12.4545   16.4362 N   0  0  0  0  0  0  0  0  0  0  0  0
   -1.3682  -11.5722   15.5293 C   0  0  0  0  0  0  0  0  0  0  0  0
   -0.8790  -12.0849   14.2584 C   0  0  0  0  0  0  0  0  0  0  0  0
   -0.8579  -13.5456   14.0131 C   0  0  0  0  0  0  0  0  0  0  0  0
   -0.4010  -14.0905   12.8311 N   0  0  0  0  0  0  0  0  0  0  0  0
   -0.5331  -11.0292   13.5571 N   0  0  0  0  0  0  0  0  0  0  0  0
   -0.7492   -9.9297   14.2922 C   0  0  0  0  0  0  0  0  0  0  0  0
   -1.2581  -10.2486   15.4817 N   0  0  0  0  0  0  0  0  0  0  0  0
  2  1  1  1  0  0  0
  2  3  1  0  0  0  0
  2  5  1  0  0  0  0
  3  4  1  0  0  0  0
  3 17  1  0  0  0  0
  5  6  1  0  0  0  0
  7  6  1  1  0  0  0
  7  8  1  0  0  0  0
  7  9  1  0  0  0  0
 10  9  1  6  0  0  0
 10 11  1  0  0  0  0
 10 12  1  0  0  0  0
 11 16  1  0  0  0  0
 12 13  1  1  0  0  0
 12 14  1  0  0  0  0
 14 15  1  1  0  0  0
 14 16  1  0  0  0  0
 16 27  1  6  0  0  0
 18 19  2  0  0  0  0
 18 23  1  0  0  0  0
 19 20  1  0  0  0  0
 20 21  2  0  0  0  0
 21 22  1  0  0  0  0
 21 27  1  0  0  0  0
 22 23  2  0  0  0  0
 22 25  1  0  0  0  0
 23 24  1  0  0  0  0
 25 26  2  0  0  0  0
 26 27  1  0  0  0  0
M  END
>  <CHROM.1>
127.72843033,-79.77418894,-88.17812653,80.84949136,-145.45154123,69.28562069
10.33552630,-3.25926771,-11.46912733,17.76322858,-2.98298351,0.95210673,0.05957664

>  <Name>
ligand

>  <RI>
0

>  <Rbt.Current_Directory>
/home/itssahil/PROJECTS/Mol_Feturizer/Test_systems_manuscript/rnas/4kqy

>  <Rbt.Executable>
rbdock ($Id: //depot/dev/client3/rdock/2013.1/src/exe/rbdock.cxx#4 $)

>  <Rbt.Library>
libRbt.so (2013.1, Build901 2013/11/27)

>  <Rbt.Parameter_File>
/export/apps/rDock/src/rDock_2013.1_src/data/scripts/dock_solv.prm

>  <Rbt.Receptor>
prm/pocket_docking_4.prm

>  <SCORE>
-6.31028

>  <SCORE.INTER>
-6.42424

>  <SCORE.INTER.CONST>
1

>  <SCORE.INTER.POLAR>
0

>  <SCORE.INTER.ROT>
7

>  <SCORE.INTER.SOLV>
13.6071

>  <SCORE.INTER.VDW>
-17.0852

>  <SCORE.INTER.norm>
-0.237935

>  <SCORE.INTRA>
0.113965

>  <SCORE.INTRA.DIHEDRAL>
0.595738

>  <SCORE.INTRA.DIHEDRAL.0>
10.4103

>  <SCORE.INTRA.POLAR>
0

>  <SCORE.INTRA.POLAR.0>
0

>  <SCORE.INTRA.REPUL>
0

>  <SCORE.INTRA.REPUL.0>
0

>  <SCORE.INTRA.SOLV>
0.293774

>  <SCORE.INTRA.SOLV.lig_0>
-49.5008

>  <SCORE.INTRA.VDW>
-0.330791

>  <SCORE.INTRA.VDW.0>
-2.6946

>  <SCORE.INTRA.norm>
0.00422093

>  <SCORE.RESTR>
0

>  <SCORE.RESTR.CAVITY>
0

>  <SCORE.RESTR.norm>
0

>  <SCORE.SYSTEM>
0

>  <SCORE.SYSTEM.CONST>
0

>  <SCORE.SYSTEM.DIHEDRAL>
0

>  <SCORE.SYSTEM.SOLV>
0

>  <SCORE.SYSTEM.norm>
0

>  <SCORE.heavy>
27

>  <SCORE.norm>
-0.233714

>  <RMSD>
7.329

$$$$
ligand
 OpenBabel02271912153D
libRbt.so/2013.1/901 2013/11/27
 27 29  0  0  0  0  0  0  0  0999 V2000
   -4.7599  -12.3928   21.2621 N   0  0  0  0  0  0  0  0  0  0  0  0
   -5.8395  -11.4257   21.2052 C   0  0  2  0  0  0  0  0  0  0  0  0
   -6.9353  -12.0295   20.3820 C   0  0  0  0  0  0  0  0  0  0  0  0
   -6.6502  -12.5807   19.2971 O   0  0  0  0  0  0  0  0  0  0  0  0
   -5.3552  -10.1197   20.5695 C   0  0  0  0  0  0  0  0  0  0  0  0
   -4.3111   -9.4105   21.4602 C   0  0  0  0  0  0  0  0  0  0  0  0
   -3.5346   -8.0982   20.7601 S   0  0  2  0  0  0  0  0  0  0  0  0
   -4.6664   -6.9879   20.2653 C   0  0  0  0  0  0  0  0  0  0  0  0
   -2.5990   -8.6190   19.4556 C   0  0  0  0  0  0  0  0  0  0  0  0
   -3.1649   -8.2194   18.0765 C   0  0  1  0  0  0  0  0  0  0  0  0
   -2.1514   -7.7943   17.1502 O   0  0  0  0  0  0  0  0  0  0  0  0
   -3.8129   -9.3729   17.3277 C   0  0  1  0  0  0  0  0  0  0  0  0
   -5.1124   -9.8077   17.7759 O   0  0  0  0  0  0  0  0  0  0  0  0
   -3.8035   -8.8280   15.9208 C   0  0  1  0  0  0  0  0  0  0  0  0
   -4.7714   -7.7911   15.7915 O   0  0  0  0  0  0  0  0  0  0  0  0
   -2.4322   -8.2286   15.8174 C   0  0  2  0  0  0  0  0  0  0  0  0
   -8.1140  -11.9994   20.8097 O   0  0  0  0  0  0  0  0  0  0  0  0
    0.7962   -9.8651   11.9219 N   0  0  0  0  0  0  0  0  0  0  0  0
   -0.0207   -8.7843   11.9561 C   0  0  0  0  0  0  0  0  0  0  0  0
   -0.7956   -8.4916   13.0141 N   0  0  0  0  0  0  0  0  0  0  0  0
   -0.7945   -9.2438   14.1202 C   0  0  0  0  0  0  0  0  0  0  0  0
    0.0793  -10.4069   14.1534 C   0  0  0  0  0  0  0  0  0  0  0  0
    0.9168  -10.7322   12.9757 C   0  0  0  0  0  0  0  0  0  0  0  0
    1.7600  -11.8235   12.9465 N   0  0  0  0  0  0  0  0  0  0  0  0
   -0.0981  -10.9527   15.3351 N   0  0  0  0  0  0  0  0  0  0  0  0
   -1.0106  -10.2402   16.0101 C   0  0  0  0  0  0  0  0  0  0  0  0
   -1.4318   -9.2041   15.2858 N   0  0  0  0  0  0  0  0  0  0  0  0
  2  1  1  6  0  0  0
  2  3  1  0  0  0  0
  2  5  1  0  0  0  0
  3  4  1  0  0  0  0
  3 17  1  0  0  0  0
  5  6  1  0  0  0  0
  7  6  1  6  0  0  0
  7  8  1  0  0  0  0
  7  9  1  0  0  0  0
 10  9  1  1  0  0  0
 10 11  1  0  0  0  0
 10 12  1  0  0  0  0
 11 16  1  0  0  0  0
 12 13  1  1  0  0  0
 12 14  1  0  0  0  0
 14 15  1  1  0  0  0
 14 16  1  0  0  0  0
 16 27  1  1  0  0  0
 18 19  2  0  0  0  0
 18 23  1  0  0  0  0
 19 20  1  0  0  0  0
 20 21  2  0  0  0  0
 21 22  1  0  0  0  0
 21 27  1  0  0  0  0
 22 23  2  0  0  0  0
 22 25  1  0  0  0  0
 23 24  1  0  0  0  0
 25 26  2  0  0  0  0
 26 27  1  0  0  0  0
M  END
>  <CHROM.1>
-46.37901207,-66.51555292,170.84212979,56.60198334,108.16984823,139.39366564
-132.83167040,-3.04594220,-9.67145434,17.34109446,2.91024009,0.88145955,0.38469350

>  <Name>
ligand

>  <RI>
0

>  <Rbt.Current_Directory>
/home/itssahil/PROJECTS/Mol_Feturizer/Test_systems_manuscript/rnas/4kqy

>  <Rbt.Executable>
rbdock ($Id: //depot/dev/client3/rdock/2013.1/src/exe/rbdock.cxx#4 $)

>  <Rbt.Library>
libRbt.so (2013.1, Build901 2013/11/27)

>  <Rbt.Parameter_File>
/export/apps/rDock/src/rDock_2013.1_src/data/scripts/dock_solv.prm

>  <Rbt.Receptor>
prm/pocket_docking_7.prm

>  <SCORE>
-15.4976

>  <SCORE.INTER>
-18.0064

>  <SCORE.INTER.CONST>
1

>  <SCORE.INTER.POLAR>
0

>  <SCORE.INTER.ROT>
7

>  <SCORE.INTER.SOLV>
9.8476

>  <SCORE.INTER.VDW>
-23.5535

>  <SCORE.INTER.norm>
-0.666904

>  <SCORE.INTRA>
2.50885

>  <SCORE.INTRA.DIHEDRAL>
1.14235

>  <SCORE.INTRA.DIHEDRAL.0>
10.4103

>  <SCORE.INTRA.POLAR>
0

>  <SCORE.INTRA.POLAR.0>
0

>  <SCORE.INTRA.REPUL>
0

>  <SCORE.INTRA.REPUL.0>
0

>  <SCORE.INTRA.SOLV>
0.723183

>  <SCORE.INTRA.SOLV.lig_0>
-49.5008

>  <SCORE.INTRA.VDW>
1.57609

>  <SCORE.INTRA.VDW.0>
-2.6946

>  <SCORE.INTRA.norm>
0.0929205

>  <SCORE.RESTR>
0

>  <SCORE.RESTR.CAVITY>
0

>  <SCORE.RESTR.norm>
0

>  <SCORE.SYSTEM>
0

>  <SCORE.SYSTEM.CONST>
0

>  <SCORE.SYSTEM.DIHEDRAL>
0

>  <SCORE.SYSTEM.SOLV>
0

>  <SCORE.SYSTEM.norm>
0

>  <SCORE.heavy>
27

>  <SCORE.norm>
-0.573984

>  <RMSD>
7.428

$$$$
ligand
 OpenBabel02271912153D
libRbt.so/2013.1/901 2013/11/27
 27 29  0  0  0  0  0  0  0  0999 V2000
   -4.5947   -6.5128   20.8907 N   0  0  0  0  0  0  0  0  0  0  0  0
   -4.3365   -7.5191   19.8784 C   0  0  2  0  0  0  0  0  0  0  0  0
   -5.5902   -8.3229   19.7194 C   0  0  0  0  0  0  0  0  0  0  0  0
   -5.8921   -8.7651   18.5901 O   0  0  0  0  0  0  0  0  0  0  0  0
   -3.1766   -8.4226   20.3055 C   0  0  0  0  0  0  0  0  0  0  0  0
   -2.7862   -9.4101   19.1834 C   0  0  0  0  0  0  0  0  0  0  0  0
   -1.9653   -8.7396   17.8828 S   0  0  2  0  0  0  0  0  0  0  0  0
   -3.0352   -7.9000   16.9293 C   0  0  0  0  0  0  0  0  0  0  0  0
   -1.2066   -9.9597   16.9973 C   0  0  0  0  0  0  0  0  0  0  0  0
   -2.1711  -11.0349   16.4536 C   0  0  1  0  0  0  0  0  0  0  0  0
   -3.0424  -10.5439   15.4213 O   0  0  0  0  0  0  0  0  0  0  0  0
   -1.4668  -12.1847   15.7517 C   0  0  1  0  0  0  0  0  0  0  0  0
   -0.7938  -13.1545   16.5795 O   0  0  0  0  0  0  0  0  0  0  0  0
   -2.6076  -12.7563   14.9467 C   0  0  1  0  0  0  0  0  0  0  0  0
   -3.5225  -13.4306   15.8054 O   0  0  0  0  0  0  0  0  0  0  0  0
   -3.2681  -11.5234   14.4047 C   0  0  2  0  0  0  0  0  0  0  0  0
   -6.2977   -8.5647   20.7265 O   0  0  0  0  0  0  0  0  0  0  0  0
    0.3749   -8.9887   11.4756 N   0  0  0  0  0  0  0  0  0  0  0  0
    0.2737   -9.0755   12.8242 C   0  0  0  0  0  0  0  0  0  0  0  0
   -0.7131   -9.7505   13.4375 N   0  0  0  0  0  0  0  0  0  0  0  0
   -1.6558  -10.4038   12.7492 C   0  0  0  0  0  0  0  0  0  0  0  0
   -1.5886  -10.3669   11.2961 C   0  0  0  0  0  0  0  0  0  0  0  0
   -0.5076   -9.6054   10.6284 C   0  0  0  0  0  0  0  0  0  0  0  0
   -0.3953   -9.5297    9.2557 N   0  0  0  0  0  0  0  0  0  0  0  0
   -2.6040  -11.0855   10.8736 N   0  0  0  0  0  0  0  0  0  0  0  0
   -3.2883  -11.5360   11.9341 C   0  0  0  0  0  0  0  0  0  0  0  0
   -2.7195  -11.1334   13.0698 N   0  0  0  0  0  0  0  0  0  0  0  0
  2  1  1  1  0  0  0
  2  3  1  0  0  0  0
  2  5  1  0  0  0  0
  3  4  1  0  0  0  0
  3 17  1  0  0  0  0
  5  6  1  0  0  0  0
  7  6  1  1  0  0  0
  7  8  1  0  0  0  0
  7  9  1  0  0  0  0
 10  9  1  6  0  0  0
 10 11  1  0  0  0  0
 10 12  1  0  0  0  0
 11 16  1  0  0  0  0
 12 13  1  1  0  0  0
 12 14  1  0  0  0  0
 14 15  1  1  0  0  0
 14 16  1  0  0  0  0
 16 27  1  6  0  0  0
 18 19  2  0  0  0  0
 18 23  1  0  0  0  0
 19 20  1  0  0  0  0
 20 21  2  0  0  0  0
 21 22  1  0  0  0  0
 21 27  1  0  0  0  0
 22 23  2  0  0  0  0
 22 25  1  0  0  0  0
 23 24  1  0  0  0  0
 25 26  2  0  0  0  0
 26 27  1  0  0  0  0
M  END
>  <CHROM.1>
145.63531023,-174.16118728,73.44411092,-75.57948645,58.52794615,68.83126873
31.83784240,-2.56137946,-9.95755832,15.70687316,-2.56146701,-1.13020800,-2.77700651

>  <Name>
ligand

>  <RI>
0

>  <Rbt.Current_Directory>
/home/itssahil/PROJECTS/Mol_Feturizer/Test_systems_manuscript/rnas/4kqy

>  <Rbt.Executable>
rbdock ($Id: //depot/dev/client3/rdock/2013.1/src/exe/rbdock.cxx#4 $)

>  <Rbt.Library>
libRbt.so (2013.1, Build901 2013/11/27)

>  <Rbt.Parameter_File>
/export/apps/rDock/src/rDock_2013.1_src/data/scripts/dock_solv.prm

>  <Rbt.Receptor>
prm/pocket_docking_8.prm

>  <SCORE>
-15.3695

>  <SCORE.INTER>
-11.8256

>  <SCORE.INTER.CONST>
1

>  <SCORE.INTER.POLAR>
0

>  <SCORE.INTER.ROT>
7

>  <SCORE.INTER.SOLV>
13.0192

>  <SCORE.INTER.VDW>
-20.4901

>  <SCORE.INTER.norm>
-0.437984

>  <SCORE.INTRA>
-3.54388

>  <SCORE.INTRA.DIHEDRAL>
-5.88757

>  <SCORE.INTRA.DIHEDRAL.0>
10.4103

>  <SCORE.INTRA.POLAR>
0

>  <SCORE.INTRA.POLAR.0>
0

>  <SCORE.INTRA.REPUL>
0

>  <SCORE.INTRA.REPUL.0>
0

>  <SCORE.INTRA.SOLV>
-0.200461

>  <SCORE.INTRA.SOLV.lig_0>
-49.5008

>  <SCORE.INTRA.VDW>
-0.499863

>  <SCORE.INTRA.VDW.0>
-2.6946

>  <SCORE.INTRA.norm>
-0.131255

>  <SCORE.RESTR>
0

>  <SCORE.RESTR.CAVITY>
0

>  <SCORE.RESTR.norm>
0

>  <SCORE.SYSTEM>
0

>  <SCORE.SYSTEM.CONST>
0

>  <SCORE.SYSTEM.DIHEDRAL>
0

>  <SCORE.SYSTEM.SOLV>
0

>  <SCORE.SYSTEM.norm>
0

>  <SCORE.heavy>
27

>  <SCORE.norm>
-0.569239

>  <RMSD>
7.469

$$$$
ligand
 OpenBabel02271912153D
libRbt.so/2013.1/901 2013/11/27
 27 29  0  0  0  0  0  0  0  0999 V2000
  -13.3589  -15.1450   19.7892 N   0  0  0  0  0  0  0  0  0  0  0  0
  -12.7142  -13.8464   19.8348 C   0  0  2  0  0  0  0  0  0  0  0  0
  -12.6303  -13.3412   18.4274 C   0  0  0  0  0  0  0  0  0  0  0  0
  -12.5281  -14.1616   17.4900 O   0  0  0  0  0  0  0  0  0  0  0  0
  -11.3133  -13.9653   20.4411 C   0  0  0  0  0  0  0  0  0  0  0  0
  -10.4390  -14.9654   19.6525 C   0  0  0  0  0  0  0  0  0  0  0  0
   -8.8315  -15.0510   20.1257 S   0  0  2  0  0  0  0  0  0  0  0  0
   -8.7491  -15.5353   21.7123 C   0  0  0  0  0  0  0  0  0  0  0  0
   -8.0964  -13.5454   19.9219 C   0  0  0  0  0  0  0  0  0  0  0  0
   -6.6858  -13.4455   20.5399 C   0  0  1  0  0  0  0  0  0  0  0  0
   -5.7525  -14.3813   19.9748 O   0  0  0  0  0  0  0  0  0  0  0  0
   -5.9987  -12.1157   20.2750 C   0  0  1  0  0  0  0  0  0  0  0  0
   -6.4505  -10.9737   21.0303 O   0  0  0  0  0  0  0  0  0  0  0  0
   -4.5612  -12.4910   20.5377 C   0  0  1  0  0  0  0  0  0  0  0  0
   -4.3514  -12.6761   21.9344 O   0  0  0  0  0  0  0  0  0  0  0  0
   -4.4446  -13.8183   19.8486 C   0  0  2  0  0  0  0  0  0  0  0  0
  -12.6956  -12.1073   18.2118 O   0  0  0  0  0  0  0  0  0  0  0  0
   -5.4242  -12.4364   14.8081 N   0  0  0  0  0  0  0  0  0  0  0  0
   -6.2456  -12.3778   15.8844 C   0  0  0  0  0  0  0  0  0  0  0  0
   -5.8655  -12.7711   17.1116 N   0  0  0  0  0  0  0  0  0  0  0  0
   -4.6332  -13.2304   17.3561 C   0  0  0  0  0  0  0  0  0  0  0  0
   -3.6967  -13.2964   16.2444 C   0  0  0  0  0  0  0  0  0  0  0  0
   -4.1299  -12.8776   14.8912 C   0  0  0  0  0  0  0  0  0  0  0  0
   -3.2892  -12.9227   13.7985 N   0  0  0  0  0  0  0  0  0  0  0  0
   -2.5761  -13.7608   16.7490 N   0  0  0  0  0  0  0  0  0  0  0  0
   -2.7542  -13.9994   18.0556 C   0  0  0  0  0  0  0  0  0  0  0  0
   -3.9914  -13.6769   18.4309 N   0  0  0  0  0  0  0  0  0  0  0  0
  2  1  1  6  0  0  0
  2  3  1  0  0  0  0
  2  5  1  0  0  0  0
  3  4  1  0  0  0  0
  3 17  1  0  0  0  0
  5  6  1  0  0  0  0
  7  6  1  1  0  0  0
  7  8  1  0  0  0  0
  7  9  1  0  0  0  0
 10  9  1  6  0  0  0
 10 11  1  0  0  0  0
 10 12  1  0  0  0  0
 11 16  1  0  0  0  0
 12 13  1  1  0  0  0
 12 14  1  0  0  0  0
 14 15  1  1  0  0  0
 14 16  1  0  0  0  0
 16 27  1  6  0  0  0
 18 19  2  0  0  0  0
 18 23  1  0  0  0  0
 19 20  1  0  0  0  0
 20 21  2  0  0  0  0
 21 22  1  0  0  0  0
 21 27  1  0  0  0  0
 22 23  2  0  0  0  0
 22 25  1  0  0  0  0
 23 24  1  0  0  0  0
 25 26  2  0  0  0  0
 26 27  1  0  0  0  0
M  END
>  <CHROM.1>
-30.24087951,57.22373531,173.59385729,60.90272011,170.47588103,60.68046754
44.26286627,-7.28138355,-13.51808740,18.77381938,2.84396822,0.09381583,1.68274195

>  <Name>
ligand

>  <RI>
0

>  <Rbt.Current_Directory>
/home/itssahil/PROJECTS/Mol_Feturizer/Test_systems_manuscript/rnas/4kqy

>  <Rbt.Executable>
rbdock ($Id: //depot/dev/client3/rdock/2013.1/src/exe/rbdock.cxx#4 $)

>  <Rbt.Library>
libRbt.so (2013.1, Build901 2013/11/27)

>  <Rbt.Parameter_File>
/export/apps/rDock/src/rDock_2013.1_src/data/scripts/dock_solv.prm

>  <Rbt.Receptor>
prm/pocket_docking_8.prm

>  <SCORE>
-14.0933

>  <SCORE.INTER>
-11.1828

>  <SCORE.INTER.CONST>
1

>  <SCORE.INTER.POLAR>
0

>  <SCORE.INTER.ROT>
7

>  <SCORE.INTER.SOLV>
10.9412

>  <SCORE.INTER.VDW>
-19.369

>  <SCORE.INTER.norm>
-0.414179

>  <SCORE.INTRA>
-2.91042

>  <SCORE.INTRA.DIHEDRAL>
-7.17607

>  <SCORE.INTRA.DIHEDRAL.0>
10.4103

>  <SCORE.INTRA.POLAR>
0

>  <SCORE.INTRA.POLAR.0>
0

>  <SCORE.INTRA.REPUL>
0

>  <SCORE.INTRA.REPUL.0>
0

>  <SCORE.INTRA.SOLV>
0.139726

>  <SCORE.INTRA.SOLV.lig_0>
-49.5008

>  <SCORE.INTRA.VDW>
0.607749

>  <SCORE.INTRA.VDW.0>
-2.6946

>  <SCORE.INTRA.norm>
-0.107793

>  <SCORE.RESTR>
0

>  <SCORE.RESTR.CAVITY>
0

>  <SCORE.RESTR.norm>
0

>  <SCORE.SYSTEM>
0

>  <SCORE.SYSTEM.CONST>
0

>  <SCORE.SYSTEM.DIHEDRAL>
0

>  <SCORE.SYSTEM.SOLV>
0

>  <SCORE.SYSTEM.norm>
0

>  <SCORE.heavy>
27

>  <SCORE.norm>
-0.521973

>  <RMSD>
7.471

$$$$
ligand
 OpenBabel02271912153D
libRbt.so/2013.1/901 2013/11/27
 27 29  0  0  0  0  0  0  0  0999 V2000
   -9.7167  -14.3813   18.7688 N   0  0  0  0  0  0  0  0  0  0  0  0
   -9.1764  -14.5610   20.1030 C   0  0  2  0  0  0  0  0  0  0  0  0
  -10.3357  -14.7644   21.0292 C   0  0  0  0  0  0  0  0  0  0  0  0
  -11.4415  -14.2571   20.7428 O   0  0  0  0  0  0  0  0  0  0  0  0
   -8.3696  -13.3298   20.5240 C   0  0  0  0  0  0  0  0  0  0  0  0
   -7.0382  -13.2334   19.7465 C   0  0  0  0  0  0  0  0  0  0  0  0
   -5.8755  -14.3707   20.1587 S   0  0  2  0  0  0  0  0  0  0  0  0
   -5.4736  -14.1925   21.7604 C   0  0  0  0  0  0  0  0  0  0  0  0
   -4.5163  -14.1779   19.1769 C   0  0  0  0  0  0  0  0  0  0  0  0
   -3.8818  -12.7730   19.2501 C   0  0  1  0  0  0  0  0  0  0  0  0
   -2.4463  -12.8029   19.3171 O   0  0  0  0  0  0  0  0  0  0  0  0
   -4.1221  -11.9317   18.0070 C   0  0  1  0  0  0  0  0  0  0  0  0
   -5.4378  -11.3686   17.8317 O   0  0  0  0  0  0  0  0  0  0  0  0
   -3.0319  -10.8998   18.1576 C   0  0  1  0  0  0  0  0  0  0  0  0
   -3.3551   -9.9969   19.2108 O   0  0  0  0  0  0  0  0  0  0  0  0
   -1.8563  -11.7328   18.5751 C   0  0  2  0  0  0  0  0  0  0  0  0
  -10.1852  -15.4654   22.0584 O   0  0  0  0  0  0  0  0  0  0  0  0
   -1.3819  -14.6845   14.1775 N   0  0  0  0  0  0  0  0  0  0  0  0
   -2.4362  -14.5740   15.0219 C   0  0  0  0  0  0  0  0  0  0  0  0
   -2.4162  -13.7878   16.1112 N   0  0  0  0  0  0  0  0  0  0  0  0
   -1.3517  -13.0403   16.4235 C   0  0  0  0  0  0  0  0  0  0  0  0
   -0.1951  -13.0985   15.5424 C   0  0  0  0  0  0  0  0  0  0  0  0
   -0.2192  -13.9817   14.3535 C   0  0  0  0  0  0  0  0  0  0  0  0
    0.8479  -14.0825   13.4853 N   0  0  0  0  0  0  0  0  0  0  0  0
    0.6889  -12.2756   16.0594 N   0  0  0  0  0  0  0  0  0  0  0  0
    0.1825  -11.7418   17.1794 C   0  0  0  0  0  0  0  0  0  0  0  0
   -1.0507  -12.1941   17.4032 N   0  0  0  0  0  0  0  0  0  0  0  0
  2  1  1  6  0  0  0
  2  3  1  0  0  0  0
  2  5  1  0  0  0  0
  3  4  1  0  0  0  0
  3 17  1  0  0  0  0
  5  6  1  0  0  0  0
  7  6  1  6  0  0  0
  7  8  1  0  0  0  0
  7  9  1  0  0  0  0
 10  9  1  6  0  0  0
 10 11  1  0  0  0  0
 10 12  1  0  0  0  0
 11 16  1  0  0  0  0
 12 13  1  1  0  0  0
 12 14  1  0  0  0  0
 14 15  1  1  0  0  0
 14 16  1  0  0  0  0
 16 27  1  6  0  0  0
 18 19  2  0  0  0  0
 18 23  1  0  0  0  0
 19 20  1  0  0  0  0
 20 21  2  0  0  0  0
 21 22  1  0  0  0  0
 21 27  1  0  0  0  0
 22 23  2  0  0  0  0
 22 25  1  0  0  0  0
 23 24  1  0  0  0  0
 25 26  2  0  0  0  0
 26 27  1  0  0  0  0
M  END
>  <CHROM.1>
-28.02616484,-71.43473928,-71.22819241,-60.95329767,57.78944036,137.04354122
49.97053511,-4.40141939,-13.29283466,18.33944199,2.84284376,0.45333420,0.87875783

>  <Name>
ligand

>  <RI>
0

>  <Rbt.Current_Directory>
/home/itssahil/PROJECTS/Mol_Feturizer/Test_systems_manuscript/rnas/4kqy

>  <Rbt.Executable>
rbdock ($Id: //depot/dev/client3/rdock/2013.1/src/exe/rbdock.cxx#4 $)

>  <Rbt.Library>
libRbt.so (2013.1, Build901 2013/11/27)

>  <Rbt.Parameter_File>
/export/apps/rDock/src/rDock_2013.1_src/data/scripts/dock_solv.prm

>  <Rbt.Receptor>
prm/pocket_docking_6.prm

>  <SCORE>
-13.7994

>  <SCORE.INTER>
-12.4798

>  <SCORE.INTER.CONST>
1

>  <SCORE.INTER.POLAR>
0

>  <SCORE.INTER.ROT>
7

>  <SCORE.INTER.SOLV>
11.9678

>  <SCORE.INTER.VDW>
-20.5758

>  <SCORE.INTER.norm>
-0.462213

>  <SCORE.INTRA>
-1.31968

>  <SCORE.INTRA.DIHEDRAL>
-2.47131

>  <SCORE.INTRA.DIHEDRAL.0>
10.4103

>  <SCORE.INTRA.POLAR>
0

>  <SCORE.INTRA.POLAR.0>
0

>  <SCORE.INTRA.REPUL>
0

>  <SCORE.INTRA.REPUL.0>
0

>  <SCORE.INTRA.SOLV>
0.693109

>  <SCORE.INTRA.SOLV.lig_0>
-49.5008

>  <SCORE.INTRA.VDW>
-0.43058

>  <SCORE.INTRA.VDW.0>
-2.6946

>  <SCORE.INTRA.norm>
-0.048877

>  <SCORE.RESTR>
0

>  <SCORE.RESTR.CAVITY>
0

>  <SCORE.RESTR.norm>
0

>  <SCORE.SYSTEM>
0

>  <SCORE.SYSTEM.CONST>
0

>  <SCORE.SYSTEM.DIHEDRAL>
0

>  <SCORE.SYSTEM.SOLV>
0

>  <SCORE.SYSTEM.norm>
0

>  <SCORE.heavy>
27

>  <SCORE.norm>
-0.51109

>  <RMSD>
7.500

$$$$
ligand
 OpenBabel02271912153D
libRbt.so/2013.1/901 2013/11/27
 27 29  0  0  0  0  0  0  0  0999 V2000
   -3.3224   -7.4284   21.7385 N   0  0  0  0  0  0  0  0  0  0  0  0
   -4.2351   -8.5087   21.4159 C   0  0  2  0  0  0  0  0  0  0  0  0
   -3.7973   -9.7097   22.1965 C   0  0  0  0  0  0  0  0  0  0  0  0
   -2.7060   -9.6770   22.8050 O   0  0  0  0  0  0  0  0  0  0  0  0
   -4.2000   -8.8088   19.9150 C   0  0  0  0  0  0  0  0  0  0  0  0
   -4.5169   -7.5490   19.0790 C   0  0  0  0  0  0  0  0  0  0  0  0
   -4.4684   -7.7540   17.4144 S   0  0  2  0  0  0  0  0  0  0  0  0
   -5.7558   -8.6885   16.9366 C   0  0  0  0  0  0  0  0  0  0  0  0
   -3.0090   -8.4767   16.9714 C   0  0  0  0  0  0  0  0  0  0  0  0
   -3.1158   -9.9911   16.6939 C   0  0  1  0  0  0  0  0  0  0  0  0
   -3.7300  -10.2932   15.4300 O   0  0  0  0  0  0  0  0  0  0  0  0
   -1.7680  -10.6818   16.5628 C   0  0  1  0  0  0  0  0  0  0  0  0
   -1.0238  -10.9191   17.7746 O   0  0  0  0  0  0  0  0  0  0  0  0
   -2.1734  -11.9421   15.8391 C   0  0  1  0  0  0  0  0  0  0  0  0
   -2.8810  -12.8071   16.7223 O   0  0  0  0  0  0  0  0  0  0  0  0
   -3.1240  -11.4246   14.8004 C   0  0  2  0  0  0  0  0  0  0  0  0
   -4.5466  -10.7140   22.2519 O   0  0  0  0  0  0  0  0  0  0  0  0
    1.2834  -10.0383   12.1681 N   0  0  0  0  0  0  0  0  0  0  0  0
    1.1146  -10.2568   13.4949 C   0  0  0  0  0  0  0  0  0  0  0  0
   -0.0692  -10.5982   14.0309 N   0  0  0  0  0  0  0  0  0  0  0  0
   -1.1628  -10.7663   13.2792 C   0  0  0  0  0  0  0  0  0  0  0  0
   -1.0406  -10.5677   11.8429 C   0  0  0  0  0  0  0  0  0  0  0  0
    0.2643  -10.1740   11.2628 C   0  0  0  0  0  0  0  0  0  0  0  0
    0.4400   -9.9665    9.9104 N   0  0  0  0  0  0  0  0  0  0  0  0
   -2.2340  -10.8040   11.3472 N   0  0  0  0  0  0  0  0  0  0  0  0
   -3.0689  -11.1072   12.3508 C   0  0  0  0  0  0  0  0  0  0  0  0
   -2.4288  -11.0918   13.5194 N   0  0  0  0  0  0  0  0  0  0  0  0
  2  1  1  6  0  0  0
  2  3  1  0  0  0  0
  2  5  1  0  0  0  0
  3  4  1  0  0  0  0
  3 17  1  0  0  0  0
  5  6  1  0  0  0  0
  7  6  1  1  0  0  0
  7  8  1  0  0  0  0
  7  9  1  0  0  0  0
 10  9  1  6  0  0  0
 10 11  1  0  0  0  0
 10 12  1  0  0  0  0
 11 16  1  0  0  0  0
 12 13  1  1  0  0  0
 12 14  1  0  0  0  0
 14 15  1  1  0  0  0
 14 16  1  0  0  0  0
 16 27  1  6  0  0  0
 18 19  2  0  0  0  0
 18 23  1  0  0  0  0
 19 20  1  0  0  0  0
 20 21  2  0  0  0  0
 21 22  1  0  0  0  0
 21 27  1  0  0  0  0
 22 23  2  0  0  0  0
 22 25  1  0  0  0  0
 23 24  1  0  0  0  0
 25 26  2  0  0  0  0
 26 27  1  0  0  0  0
M  END
>  <CHROM.1>
-9.40188902,-56.13513545,178.54134210,70.27729782,100.63951629,75.56633374
92.45498253,-2.56471595,-9.92200359,16.39696369,-2.00829316,0.59826766,-1.49491800

>  <Name>
ligand

>  <RI>
0

>  <Rbt.Current_Directory>
/home/itssahil/PROJECTS/Mol_Feturizer/Test_systems_manuscript/rnas/4kqy

>  <Rbt.Executable>
rbdock ($Id: //depot/dev/client3/rdock/2013.1/src/exe/rbdock.cxx#4 $)

>  <Rbt.Library>
libRbt.so (2013.1, Build901 2013/11/27)

>  <Rbt.Parameter_File>
/export/apps/rDock/src/rDock_2013.1_src/data/scripts/dock_solv.prm

>  <Rbt.Receptor>
prm/pocket_docking_7.prm

>  <SCORE>
-8.41875

>  <SCORE.INTER>
-9.15018

>  <SCORE.INTER.CONST>
1

>  <SCORE.INTER.POLAR>
0

>  <SCORE.INTER.ROT>
7

>  <SCORE.INTER.SOLV>
12.1043

>  <SCORE.INTER.VDW>
-18.4016

>  <SCORE.INTER.norm>
-0.338896

>  <SCORE.INTRA>
0.731438

>  <SCORE.INTRA.DIHEDRAL>
-2.83025

>  <SCORE.INTRA.DIHEDRAL.0>
10.4103

>  <SCORE.INTRA.POLAR>
0

>  <SCORE.INTRA.POLAR.0>
0

>  <SCORE.INTRA.REPUL>
0

>  <SCORE.INTRA.REPUL.0>
0

>  <SCORE.INTRA.SOLV>
0.26869

>  <SCORE.INTRA.SOLV.lig_0>
-49.5008

>  <SCORE.INTRA.VDW>
2.01222

>  <SCORE.INTRA.VDW.0>
-2.6946

>  <SCORE.INTRA.norm>
0.0270903

>  <SCORE.RESTR>
0

>  <SCORE.RESTR.CAVITY>
0

>  <SCORE.RESTR.norm>
0

>  <SCORE.SYSTEM>
0

>  <SCORE.SYSTEM.CONST>
0

>  <SCORE.SYSTEM.DIHEDRAL>
0

>  <SCORE.SYSTEM.SOLV>
0

>  <SCORE.SYSTEM.norm>
0

>  <SCORE.heavy>
27

>  <SCORE.norm>
-0.311805

>  <RMSD>
7.605

$$$$
ligand
 OpenBabel02271912153D
libRbt.so/2013.1/901 2013/11/27
 27 29  0  0  0  0  0  0  0  0999 V2000
   -5.1754  -10.8928   19.5608 N   0  0  0  0  0  0  0  0  0  0  0  0
   -6.2080   -9.8777   19.6471 C   0  0  2  0  0  0  0  0  0  0  0  0
   -7.5029  -10.5813   19.9141 C   0  0  0  0  0  0  0  0  0  0  0  0
   -7.9988  -10.5319   21.0603 O   0  0  0  0  0  0  0  0  0  0  0  0
   -6.2926   -9.0878   18.3382 C   0  0  0  0  0  0  0  0  0  0  0  0
   -4.9566   -8.3818   18.0167 C   0  0  0  0  0  0  0  0  0  0  0  0
   -3.7799   -9.3470   17.3102 S   0  0  2  0  0  0  0  0  0  0  0  0
   -2.3019   -8.6013   17.4443 C   0  0  0  0  0  0  0  0  0  0  0  0
   -4.1652   -9.6218   15.6901 C   0  0  0  0  0  0  0  0  0  0  0  0
   -4.0334  -11.0962   15.2536 C   0  0  1  0  0  0  0  0  0  0  0  0
   -4.2137  -11.2866   13.8404 O   0  0  0  0  0  0  0  0  0  0  0  0
   -2.6449  -11.6741   15.4751 C   0  0  1  0  0  0  0  0  0  0  0  0
   -2.2717  -12.0030   16.8284 O   0  0  0  0  0  0  0  0  0  0  0  0
   -2.6905  -12.8638   14.5485 C   0  0  1  0  0  0  0  0  0  0  0  0
   -3.5370  -13.8733   15.0900 O   0  0  0  0  0  0  0  0  0  0  0  0
   -3.3389  -12.2917   13.3227 C   0  0  2  0  0  0  0  0  0  0  0  0
   -8.0822  -11.1804   18.9767 O   0  0  0  0  0  0  0  0  0  0  0  0
    0.4846   -8.8138   12.0733 N   0  0  0  0  0  0  0  0  0  0  0  0
   -0.2296   -8.9220   13.2200 C   0  0  0  0  0  0  0  0  0  0  0  0
   -1.1811   -9.8535   13.3990 N   0  0  0  0  0  0  0  0  0  0  0  0
   -1.4727  -10.7558   12.4556 C   0  0  0  0  0  0  0  0  0  0  0  0
   -0.7239  -10.7057   11.2089 C   0  0  0  0  0  0  0  0  0  0  0  0
    0.3109   -9.6640   11.0133 C   0  0  0  0  0  0  0  0  0  0  0  0
    1.0487   -9.5634    9.8521 N   0  0  0  0  0  0  0  0  0  0  0  0
   -1.1882  -11.6907   10.4740 N   0  0  0  0  0  0  0  0  0  0  0  0
   -2.1595  -12.3178   11.1518 C   0  0  0  0  0  0  0  0  0  0  0  0
   -2.3336  -11.7630   12.3507 N   0  0  0  0  0  0  0  0  0  0  0  0
  2  1  1  6  0  0  0
  2  3  1  0  0  0  0
  2  5  1  0  0  0  0
  3  4  1  0  0  0  0
  3 17  1  0  0  0  0
  5  6  1  0  0  0  0
  7  6  1  6  0  0  0
  7  8  1  0  0  0  0
  7  9  1  0  0  0  0
 10  9  1  6  0  0  0
 10 11  1  0  0  0  0
 10 12  1  0  0  0  0
 11 16  1  0  0  0  0
 12 13  1  1  0  0  0
 12 14  1  0  0  0  0
 14 15  1  1  0  0  0
 14 16  1  0  0  0  0
 16 27  1  6  0  0  0
 18 19  2  0  0  0  0
 18 23  1  0  0  0  0
 19 20  1  0  0  0  0
 20 21  2  0  0  0  0
 21 22  1  0  0  0  0
 21 27  1  0  0  0  0
 22 23  2  0  0  0  0
 22 25  1  0  0  0  0
 23 24  1  0  0  0  0
 25 26  2  0  0  0  0
 26 27  1  0  0  0  0
M  END
>  <CHROM.1>
105.27195764,-59.98906895,80.86142937,-163.20621251,-133.43121176,-173.19807417
52.33628578,-3.31544070,-10.59512407,15.30722704,-2.56920882,-0.78242416
-2.44751225

>  <Name>
ligand

>  <RI>
0

>  <Rbt.Current_Directory>
/home/itssahil/PROJECTS/Mol_Feturizer/Test_systems_manuscript/rnas/4kqy

>  <Rbt.Executable>
rbdock ($Id: //depot/dev/client3/rdock/2013.1/src/exe/rbdock.cxx#4 $)

>  <Rbt.Library>
libRbt.so (2013.1, Build901 2013/11/27)

>  <Rbt.Parameter_File>
/export/apps/rDock/src/rDock_2013.1_src/data/scripts/dock_solv.prm

>  <Rbt.Receptor>
prm/pocket_docking_8.prm

>  <SCORE>
-9.29453

>  <SCORE.INTER>
-9.2407

>  <SCORE.INTER.CONST>
1

>  <SCORE.INTER.POLAR>
0

>  <SCORE.INTER.ROT>
7

>  <SCORE.INTER.SOLV>
6.45837

>  <SCORE.INTER.VDW>
-16.5799

>  <SCORE.INTER.norm>
-0.342248

>  <SCORE.INTRA>
-0.0538318

>  <SCORE.INTRA.DIHEDRAL>
-1.03703

>  <SCORE.INTRA.DIHEDRAL.0>
10.4103

>  <SCORE.INTRA.POLAR>
0

>  <SCORE.INTRA.POLAR.0>
0

>  <SCORE.INTRA.REPUL>
0

>  <SCORE.INTRA.REPUL.0>
0

>  <SCORE.INTRA.SOLV>
2.41174

>  <SCORE.INTRA.SOLV.lig_0>
-49.5008

>  <SCORE.INTRA.VDW>
-0.741187

>  <SCORE.INTRA.VDW.0>
-2.6946

>  <SCORE.INTRA.norm>
-0.00199377

>  <SCORE.RESTR>
0

>  <SCORE.RESTR.CAVITY>
0

>  <SCORE.RESTR.norm>
0

>  <SCORE.SYSTEM>
0

>  <SCORE.SYSTEM.CONST>
0

>  <SCORE.SYSTEM.DIHEDRAL>
0

>  <SCORE.SYSTEM.SOLV>
0

>  <SCORE.SYSTEM.norm>
0

>  <SCORE.heavy>
27

>  <SCORE.norm>
-0.344242

>  <RMSD>
7.821

$$$$
ligand
 OpenBabel02271912153D
libRbt.so/2013.1/901 2013/11/27
 27 29  0  0  0  0  0  0  0  0999 V2000
   -9.5509  -15.2567   20.9227 N   0  0  0  0  0  0  0  0  0  0  0  0
   -8.4676  -15.8692   21.6680 C   0  0  2  0  0  0  0  0  0  0  0  0
   -9.0198  -16.2832   22.9972 C   0  0  0  0  0  0  0  0  0  0  0  0
   -8.3626  -17.0696   23.7126 O   0  0  0  0  0  0  0  0  0  0  0  0
   -7.3185  -14.8751   21.8564 C   0  0  0  0  0  0  0  0  0  0  0  0
   -6.6210  -14.5564   20.5152 C   0  0  0  0  0  0  0  0  0  0  0  0
   -5.4657  -13.3410   20.5713 S   0  0  2  0  0  0  0  0  0  0  0  0
   -4.4075  -13.6435   21.8154 C   0  0  0  0  0  0  0  0  0  0  0  0
   -6.2207  -11.8460   20.7798 C   0  0  0  0  0  0  0  0  0  0  0  0
   -5.9196  -10.8278   19.6598 C   0  0  1  0  0  0  0  0  0  0  0  0
   -6.3364  -11.2767   18.3595 O   0  0  0  0  0  0  0  0  0  0  0  0
   -6.6850   -9.5222   19.8030 C   0  0  1  0  0  0  0  0  0  0  0  0
   -6.2361   -8.5980   20.8144 O   0  0  0  0  0  0  0  0  0  0  0  0
   -6.5807   -8.9859   18.3968 C   0  0  1  0  0  0  0  0  0  0  0  0
   -5.2522   -8.5404   18.1405 O   0  0  0  0  0  0  0  0  0  0  0  0
   -6.8532  -10.2053   17.5667 C   0  0  2  0  0  0  0  0  0  0  0  0
  -10.1156  -15.8098   23.3826 O   0  0  0  0  0  0  0  0  0  0  0  0
  -11.4899  -12.7309   18.1972 N   0  0  0  0  0  0  0  0  0  0  0  0
  -10.2917  -12.9892   18.7751 C   0  0  0  0  0  0  0  0  0  0  0  0
   -9.1886  -12.2670   18.5163 N   0  0  0  0  0  0  0  0  0  0  0  0
   -9.2077  -11.2235   17.6795 C   0  0  0  0  0  0  0  0  0  0  0  0
  -10.4713  -10.8817   17.0441 C   0  0  0  0  0  0  0  0  0  0  0  0
  -11.6783  -11.6944   17.3214 C   0  0  0  0  0  0  0  0  0  0  0  0
  -12.9017  -11.4222   16.7453 N   0  0  0  0  0  0  0  0  0  0  0  0
  -10.2218   -9.8305   16.2965 N   0  0  0  0  0  0  0  0  0  0  0  0
   -8.9232   -9.5182   16.4059 C   0  0  0  0  0  0  0  0  0  0  0  0
   -8.3054  -10.3509   17.2428 N   0  0  0  0  0  0  0  0  0  0  0  0
  2  1  1  6  0  0  0
  2  3  1  0  0  0  0
  2  5  1  0  0  0  0
  3  4  1  0  0  0  0
  3 17  1  0  0  0  0
  5  6  1  0  0  0  0
  7  6  1  1  0  0  0
  7  8  1  0  0  0  0
  7  9  1  0  0  0  0
 10  9  1  1  0  0  0
 10 11  1  0  0  0  0
 10 12  1  0  0  0  0
 11 16  1  0  0  0  0
 12 13  1  1  0  0  0
 12 14  1  0  0  0  0
 14 15  1  6  0  0  0
 14 16  1  0  0  0  0
 16 27  1  1  0  0  0
 18 19  2  0  0  0  0
 18 23  1  0  0  0  0
 19 20  1  0  0  0  0
 20 21  2  0  0  0  0
 21 22  1  0  0  0  0
 21 27  1  0  0  0  0
 22 23  2  0  0  0  0
 22 25  1  0  0  0  0
 23 24  1  0  0  0  0
 25 26  2  0  0  0  0
 26 27  1  0  0  0  0
M  END
>  <CHROM.1>
165.64846106,-68.19053309,173.02553699,50.33410917,-121.59575695,60.03777254
7.88365249,-8.02751030,-12.27612412,19.57968755,1.49079868,0.38250290,2.46158722

>  <Name>
ligand

>  <RI>
0

>  <Rbt.Current_Directory>
/home/itssahil/PROJECTS/Mol_Feturizer/Test_systems_manuscript/rnas/4kqy

>  <Rbt.Executable>
rbdock ($Id: //depot/dev/client3/rdock/2013.1/src/exe/rbdock.cxx#4 $)

>  <Rbt.Library>
libRbt.so (2013.1, Build901 2013/11/27)

>  <Rbt.Parameter_File>
/export/apps/rDock/src/rDock_2013.1_src/data/scripts/dock_solv.prm

>  <Rbt.Receptor>
prm/pocket_docking_8.prm

>  <SCORE>
-12.8381

>  <SCORE.INTER>
-12.0158

>  <SCORE.INTER.CONST>
1

>  <SCORE.INTER.POLAR>
0

>  <SCORE.INTER.ROT>
7

>  <SCORE.INTER.SOLV>
8.48924

>  <SCORE.INTER.VDW>
-19.107

>  <SCORE.INTER.norm>
-0.445031

>  <SCORE.INTRA>
-0.822312

>  <SCORE.INTRA.DIHEDRAL>
-2.19364

>  <SCORE.INTRA.DIHEDRAL.0>
10.4103

>  <SCORE.INTRA.POLAR>
0

>  <SCORE.INTRA.POLAR.0>
0

>  <SCORE.INTRA.REPUL>
0

>  <SCORE.INTRA.REPUL.0>
0

>  <SCORE.INTRA.SOLV>
0.564548

>  <SCORE.INTRA.SOLV.lig_0>
-49.5008

>  <SCORE.INTRA.VDW>
-0.00776407

>  <SCORE.INTRA.VDW.0>
-2.6946

>  <SCORE.INTRA.norm>
-0.030456

>  <SCORE.RESTR>
0

>  <SCORE.RESTR.CAVITY>
0

>  <SCORE.RESTR.norm>
0

>  <SCORE.SYSTEM>
0

>  <SCORE.SYSTEM.CONST>
0

>  <SCORE.SYSTEM.DIHEDRAL>
0

>  <SCORE.SYSTEM.SOLV>
0

>  <SCORE.SYSTEM.norm>
0

>  <SCORE.heavy>
27

>  <SCORE.norm>
-0.475487

>  <RMSD>
7.901

$$$$
ligand
 OpenBabel02271912153D
libRbt.so/2013.1/901 2013/11/27
 27 29  0  0  0  0  0  0  0  0999 V2000
   -6.0774   -9.8242   19.6875 N   0  0  0  0  0  0  0  0  0  0  0  0
   -5.1913   -9.0155   18.8720 C   0  0  2  0  0  0  0  0  0  0  0  0
   -5.1023   -7.6658   19.5149 C   0  0  0  0  0  0  0  0  0  0  0  0
   -6.1048   -7.2012   20.0992 O   0  0  0  0  0  0  0  0  0  0  0  0
   -5.7397   -8.8907   17.4480 C   0  0  0  0  0  0  0  0  0  0  0  0
   -4.7005   -8.2591   16.4953 C   0  0  0  0  0  0  0  0  0  0  0  0
   -3.2352   -9.0688   16.3835 S   0  0  2  0  0  0  0  0  0  0  0  0
   -2.2534   -8.2843   15.2975 C   0  0  0  0  0  0  0  0  0  0  0  0
   -3.5011  -10.6648   15.9034 C   0  0  0  0  0  0  0  0  0  0  0  0
   -4.1162  -10.8038   14.4948 C   0  0  1  0  0  0  0  0  0  0  0  0
   -3.2139  -10.4226   13.4429 O   0  0  0  0  0  0  0  0  0  0  0  0
   -4.4535  -12.2371   14.1172 C   0  0  1  0  0  0  0  0  0  0  0  0
   -5.6208  -12.8258   14.7251 O   0  0  0  0  0  0  0  0  0  0  0  0
   -4.5442  -12.1127   12.6164 C   0  0  1  0  0  0  0  0  0  0  0  0
   -5.7289  -11.4093   12.2547 O   0  0  0  0  0  0  0  0  0  0  0  0
   -3.3540  -11.2591   12.2921 C   0  0  2  0  0  0  0  0  0  0  0  0
   -4.0159   -7.0397   19.4833 O   0  0  0  0  0  0  0  0  0  0  0  0
    0.0573  -15.1018   13.6609 N   0  0  0  0  0  0  0  0  0  0  0  0
   -1.0357  -14.6540   14.3254 C   0  0  0  0  0  0  0  0  0  0  0  0
   -1.8121  -13.6602   13.8619 N   0  0  0  0  0  0  0  0  0  0  0  0
   -1.5656  -13.0575   12.6934 C   0  0  0  0  0  0  0  0  0  0  0  0
   -0.4179  -13.5093   11.9215 C   0  0  0  0  0  0  0  0  0  0  0  0
    0.4430  -14.5934   12.4486 C   0  0  0  0  0  0  0  0  0  0  0  0
    1.5466  -15.0600   11.7651 N   0  0  0  0  0  0  0  0  0  0  0  0
   -0.4101  -12.7762   10.8314 N   0  0  0  0  0  0  0  0  0  0  0  0
   -1.4330  -11.9118   10.8821 C   0  0  0  0  0  0  0  0  0  0  0  0
   -2.1383  -12.0788   12.0002 N   0  0  0  0  0  0  0  0  0  0  0  0
  2  1  1  1  0  0  0
  2  3  1  0  0  0  0
  2  5  1  0  0  0  0
  3  4  1  0  0  0  0
  3 17  1  0  0  0  0
  5  6  1  0  0  0  0
  7  6  1  6  0  0  0
  7  8  1  0  0  0  0
  7  9  1  0  0  0  0
 10  9  1  1  0  0  0
 10 11  1  0  0  0  0
 10 12  1  0  0  0  0
 11 16  1  0  0  0  0
 12 13  1  1  0  0  0
 12 14  1  0  0  0  0
 14 15  1  1  0  0  0
 14 16  1  0  0  0  0
 16 27  1  1  0  0  0
 18 19  2  0  0  0  0
 18 23  1  0  0  0  0
 19 20  1  0  0  0  0
 20 21  2  0  0  0  0
 21 22  1  0  0  0  0
 21 27  1  0  0  0  0
 22 23  2  0  0  0  0
 22 25  1  0  0  0  0
 23 24  1  0  0  0  0
 25 26  2  0  0  0  0
 26 27  1  0  0  0  0
M  END
>  <CHROM.1>
-34.02731471,-169.61493139,57.75291251,178.61987042,63.65375204,68.91252178
65.25751321,-3.18473831,-11.05220861,14.87071348,-2.08241700,0.40295340,-2.05559794

>  <Name>
ligand

>  <RI>
0

>  <Rbt.Current_Directory>
/home/itssahil/PROJECTS/Mol_Feturizer/Test_systems_manuscript/rnas/4kqy

>  <Rbt.Executable>
rbdock ($Id: //depot/dev/client3/rdock/2013.1/src/exe/rbdock.cxx#4 $)

>  <Rbt.Library>
libRbt.so (2013.1, Build901 2013/11/27)

>  <Rbt.Parameter_File>
/export/apps/rDock/src/rDock_2013.1_src/data/scripts/dock_solv.prm

>  <Rbt.Receptor>
prm/pocket_docking_7.prm

>  <SCORE>
-15.7639

>  <SCORE.INTER>
-12.0212

>  <SCORE.INTER.CONST>
1

>  <SCORE.INTER.POLAR>
0

>  <SCORE.INTER.ROT>
7

>  <SCORE.INTER.SOLV>
15.0541

>  <SCORE.INTER.VDW>
-21.2988

>  <SCORE.INTER.norm>
-0.44523

>  <SCORE.INTRA>
-3.74274

>  <SCORE.INTRA.DIHEDRAL>
-6.85578

>  <SCORE.INTRA.DIHEDRAL.0>
10.4103

>  <SCORE.INTRA.POLAR>
0

>  <SCORE.INTRA.POLAR.0>
0

>  <SCORE.INTRA.REPUL>
0

>  <SCORE.INTRA.REPUL.0>
0

>  <SCORE.INTRA.SOLV>
-0.243516

>  <SCORE.INTRA.SOLV.lig_0>
-49.5008

>  <SCORE.INTRA.VDW>
-0.193089

>  <SCORE.INTRA.VDW.0>
-2.6946

>  <SCORE.INTRA.norm>
-0.13862

>  <SCORE.RESTR>
0

>  <SCORE.RESTR.CAVITY>
0

>  <SCORE.RESTR.norm>
0

>  <SCORE.SYSTEM>
0

>  <SCORE.SYSTEM.CONST>
0

>  <SCORE.SYSTEM.DIHEDRAL>
0

>  <SCORE.SYSTEM.SOLV>
0

>  <SCORE.SYSTEM.norm>
0

>  <SCORE.heavy>
27

>  <SCORE.norm>
-0.58385

>  <RMSD>
8.138

$$$$
ligand
 OpenBabel02271912153D
libRbt.so/2013.1/901 2013/11/27
 27 29  0  0  0  0  0  0  0  0999 V2000
   -4.3467   -9.7887   20.3326 N   0  0  0  0  0  0  0  0  0  0  0  0
   -3.2981   -8.8166   20.0885 C   0  0  2  0  0  0  0  0  0  0  0  0
   -3.5773   -7.6318   20.9612 C   0  0  0  0  0  0  0  0  0  0  0  0
   -2.7209   -7.2764   21.7993 O   0  0  0  0  0  0  0  0  0  0  0  0
   -3.2867   -8.4004   18.6151 C   0  0  0  0  0  0  0  0  0  0  0  0
   -3.1859   -9.6273   17.6818 C   0  0  0  0  0  0  0  0  0  0  0  0
   -3.3502   -9.3055   16.0433 S   0  0  2  0  0  0  0  0  0  0  0  0
   -4.7110   -8.3858   15.7961 C   0  0  0  0  0  0  0  0  0  0  0  0
   -3.4452  -10.7553   15.1844 C   0  0  0  0  0  0  0  0  0  0  0  0
   -3.6079  -10.5739   13.6605 C   0  0  1  0  0  0  0  0  0  0  0  0
   -2.3749  -10.2577   12.9930 O   0  0  0  0  0  0  0  0  0  0  0  0
   -4.0407  -11.8407   12.9402 C   0  0  1  0  0  0  0  0  0  0  0  0
   -5.4184  -12.2433   13.0765 O   0  0  0  0  0  0  0  0  0  0  0  0
   -3.6408  -11.5034   11.5251 C   0  0  1  0  0  0  0  0  0  0  0  0
   -4.5239  -10.5235   10.9876 O   0  0  0  0  0  0  0  0  0  0  0  0
   -2.2863  -10.8866   11.7123 C   0  0  2  0  0  0  0  0  0  0  0  0
   -4.6501   -6.9988   20.8143 O   0  0  0  0  0  0  0  0  0  0  0  0
    0.2475  -15.1313   13.6713 N   0  0  0  0  0  0  0  0  0  0  0  0
   -0.8377  -14.4838   14.1608 C   0  0  0  0  0  0  0  0  0  0  0  0
   -1.3749  -13.4084   13.5607 N   0  0  0  0  0  0  0  0  0  0  0  0
   -0.8809  -12.9160   12.4193 C   0  0  0  0  0  0  0  0  0  0  0  0
    0.2716  -13.5819   11.8313 C   0  0  0  0  0  0  0  0  0  0  0  0
    0.8683  -14.7560   12.5092 C   0  0  0  0  0  0  0  0  0  0  0  0
    1.9635  -15.4248   12.0030 N   0  0  0  0  0  0  0  0  0  0  0  0
    0.5427  -12.9195   10.7297 N   0  0  0  0  0  0  0  0  0  0  0  0
   -0.3249  -11.9054   10.6079 C   0  0  0  0  0  0  0  0  0  0  0  0
   -1.1906  -11.8996   11.6209 N   0  0  0  0  0  0  0  0  0  0  0  0
  2  1  1  6  0  0  0
  2  3  1  0  0  0  0
  2  5  1  0  0  0  0
  3  4  1  0  0  0  0
  3 17  1  0  0  0  0
  5  6  1  0  0  0  0
  7  6  1  1  0  0  0
  7  8  1  0  0  0  0
  7  9  1  0  0  0  0
 10  9  1  1  0  0  0
 10 11  1  0  0  0  0
 10 12  1  0  0  0  0
 11 16  1  0  0  0  0
 12 13  1  6  0  0  0
 12 14  1  0  0  0  0
 14 15  1  1  0  0  0
 14 16  1  0  0  0  0
 16 27  1  1  0  0  0
 18 19  2  0  0  0  0
 18 23  1  0  0  0  0
 19 20  1  0  0  0  0
 20 21  2  0  0  0  0
 21 22  1  0  0  0  0
 21 27  1  0  0  0  0
 22 23  2  0  0  0  0
 22 25  1  0  0  0  0
 23 24  1  0  0  0  0
 25 26  2  0  0  0  0
 26 27  1  0  0  0  0
M  END
>  <CHROM.1>
120.89124631,-54.09658319,172.96146412,-50.06045990,179.62544385,78.91023098
49.97188913,-2.46968808,-10.98351590,14.85041790,-1.98091693,0.66982642,-1.88074211

>  <Name>
ligand

>  <RI>
0

>  <Rbt.Current_Directory>
/home/itssahil/PROJECTS/Mol_Feturizer/Test_systems_manuscript/rnas/4kqy

>  <Rbt.Executable>
rbdock ($Id: //depot/dev/client3/rdock/2013.1/src/exe/rbdock.cxx#4 $)

>  <Rbt.Library>
libRbt.so (2013.1, Build901 2013/11/27)

>  <Rbt.Parameter_File>
/export/apps/rDock/src/rDock_2013.1_src/data/scripts/dock_solv.prm

>  <Rbt.Receptor>
prm/pocket_docking_8.prm

>  <SCORE>
-14.7442

>  <SCORE.INTER>
-12.3094

>  <SCORE.INTER.CONST>
1

>  <SCORE.INTER.POLAR>
0

>  <SCORE.INTER.ROT>
7

>  <SCORE.INTER.SOLV>
14.0339

>  <SCORE.INTER.VDW>
-21.1509

>  <SCORE.INTER.norm>
-0.455904

>  <SCORE.INTRA>
-2.43474

>  <SCORE.INTRA.DIHEDRAL>
-5.94144

>  <SCORE.INTRA.DIHEDRAL.0>
10.4103

>  <SCORE.INTRA.POLAR>
0

>  <SCORE.INTRA.POLAR.0>
0

>  <SCORE.INTRA.REPUL>
0

>  <SCORE.INTRA.REPUL.0>
0

>  <SCORE.INTRA.SOLV>
0.196181

>  <SCORE.INTRA.SOLV.lig_0>
-49.5008

>  <SCORE.INTRA.VDW>
0.437883

>  <SCORE.INTRA.VDW.0>
-2.6946

>  <SCORE.INTRA.norm>
-0.0901757

>  <SCORE.RESTR>
0

>  <SCORE.RESTR.CAVITY>
0

>  <SCORE.RESTR.norm>
0

>  <SCORE.SYSTEM>
0

>  <SCORE.SYSTEM.CONST>
0

>  <SCORE.SYSTEM.DIHEDRAL>
0

>  <SCORE.SYSTEM.SOLV>
0

>  <SCORE.SYSTEM.norm>
0

>  <SCORE.heavy>
27

>  <SCORE.norm>
-0.54608

>  <RMSD>
8.580

$$$$
ligand
 OpenBabel02271912153D
libRbt.so/2013.1/901 2013/11/27
 27 29  0  0  0  0  0  0  0  0999 V2000
   -3.2684   -9.2213   16.6047 N   0  0  0  0  0  0  0  0  0  0  0  0
   -1.9298   -9.2647   16.0474 C   0  0  2  0  0  0  0  0  0  0  0  0
   -2.0297   -9.9075   14.6984 C   0  0  0  0  0  0  0  0  0  0  0  0
   -1.0117   -9.9704   13.9758 O   0  0  0  0  0  0  0  0  0  0  0  0
   -0.9987  -10.0742   16.9541 C   0  0  0  0  0  0  0  0  0  0  0  0
   -1.6178  -11.4400   17.3252 C   0  0  0  0  0  0  0  0  0  0  0  0
   -1.7855  -12.5267   16.0578 S   0  0  2  0  0  0  0  0  0  0  0  0
   -2.4305  -13.9461   16.6306 C   0  0  0  0  0  0  0  0  0  0  0  0
   -0.2831  -12.8006   15.3393 C   0  0  0  0  0  0  0  0  0  0  0  0
   -0.3430  -13.6786   14.0714 C   0  0  1  0  0  0  0  0  0  0  0  0
   -1.4928  -13.4113   13.2514 O   0  0  0  0  0  0  0  0  0  0  0  0
    0.8010  -13.4266   13.1026 C   0  0  1  0  0  0  0  0  0  0  0  0
    2.0954  -13.9562   13.4528 O   0  0  0  0  0  0  0  0  0  0  0  0
    0.2244  -14.0116   11.8371 C   0  0  1  0  0  0  0  0  0  0  0  0
    0.1980  -15.4332   11.9233 O   0  0  0  0  0  0  0  0  0  0  0  0
   -1.1846  -13.4971   11.8581 C   0  0  2  0  0  0  0  0  0  0  0  0
   -3.1235  -10.3989   14.3305 O   0  0  0  0  0  0  0  0  0  0  0  0
    0.9772   -9.5539    9.0202 N   0  0  0  0  0  0  0  0  0  0  0  0
    1.5635  -10.6721    9.5127 C   0  0  0  0  0  0  0  0  0  0  0  0
    0.8921  -11.5911   10.2268 N   0  0  0  0  0  0  0  0  0  0  0  0
   -0.4155  -11.4704   10.4818 C   0  0  0  0  0  0  0  0  0  0  0  0
   -1.1072  -10.3013    9.9601 C   0  0  0  0  0  0  0  0  0  0  0  0
   -0.3552   -9.2842    9.1892 C   0  0  0  0  0  0  0  0  0  0  0  0
   -0.9550   -8.1537    8.6745 N   0  0  0  0  0  0  0  0  0  0  0  0
   -2.3599  -10.4316   10.3340 N   0  0  0  0  0  0  0  0  0  0  0  0
   -2.4849  -11.5586   11.0483 C   0  0  0  0  0  0  0  0  0  0  0  0
   -1.3171  -12.1939   11.1375 N   0  0  0  0  0  0  0  0  0  0  0  0
  2  1  1  1  0  0  0
  2  3  1  0  0  0  0
  2  5  1  0  0  0  0
  3  4  1  0  0  0  0
  3 17  1  0  0  0  0
  5  6  1  0  0  0  0
  7  6  1  1  0  0  0
  7  8  1  0  0  0  0
  7  9  1  0  0  0  0
 10  9  1  1  0  0  0
 10 11  1  0  0  0  0
 10 12  1  0  0  0  0
 11 16  1  0  0  0  0
 12 13  1  1  0  0  0
 12 14  1  0  0  0  0
 14 15  1  1  0  0  0
 14 16  1  0  0  0  0
 16 27  1  1  0  0  0
 18 19  2  0  0  0  0
 18 23  1  0  0  0  0
 19 20  1  0  0  0  0
 20 21  2  0  0  0  0
 21 22  1  0  0  0  0
 21 27  1  0  0  0  0
 22 23  2  0  0  0  0
 22 25  1  0  0  0  0
 23 24  1  0  0  0  0
 25 26  2  0  0  0  0
 26 27  1  0  0  0  0
M  END
>  <CHROM.1>
174.85815519,49.73960094,67.33958950,178.75618379,-174.24703059,38.16999113
118.77020501,-0.92718821,-11.65653315,13.08167452,2.12784928,-1.08553514
2.23112506

>  <Name>
ligand

>  <RI>
0

>  <Rbt.Current_Directory>
/home/itssahil/PROJECTS/Mol_Feturizer/Test_systems_manuscript/rnas/4kqy

>  <Rbt.Executable>
rbdock ($Id: //depot/dev/client3/rdock/2013.1/src/exe/rbdock.cxx#4 $)

>  <Rbt.Library>
libRbt.so (2013.1, Build901 2013/11/27)

>  <Rbt.Parameter_File>
/export/apps/rDock/src/rDock_2013.1_src/data/scripts/dock_solv.prm

>  <Rbt.Receptor>
prm/pocket_docking_8.prm

>  <SCORE>
-13.4717

>  <SCORE.INTER>
-10.6724

>  <SCORE.INTER.CONST>
1

>  <SCORE.INTER.POLAR>
0

>  <SCORE.INTER.ROT>
7

>  <SCORE.INTER.SOLV>
10.8742

>  <SCORE.INTER.VDW>
-19.0064

>  <SCORE.INTER.norm>
-0.395275

>  <SCORE.INTRA>
-2.79926

>  <SCORE.INTRA.DIHEDRAL>
-5.52336

>  <SCORE.INTRA.DIHEDRAL.0>
10.4103

>  <SCORE.INTRA.POLAR>
0

>  <SCORE.INTRA.POLAR.0>
0

>  <SCORE.INTRA.REPUL>
0

>  <SCORE.INTRA.REPUL.0>
0

>  <SCORE.INTRA.SOLV>
1.03756

>  <SCORE.INTRA.SOLV.lig_0>
-49.5008

>  <SCORE.INTRA.VDW>
-0.556361

>  <SCORE.INTRA.VDW.0>
-2.6946

>  <SCORE.INTRA.norm>
-0.103676

>  <SCORE.RESTR>
0

>  <SCORE.RESTR.CAVITY>
0

>  <SCORE.RESTR.norm>
0

>  <SCORE.SYSTEM>
0

>  <SCORE.SYSTEM.CONST>
0

>  <SCORE.SYSTEM.DIHEDRAL>
0

>  <SCORE.SYSTEM.SOLV>
0

>  <SCORE.SYSTEM.norm>
0

>  <SCORE.heavy>
27

>  <SCORE.norm>
-0.498951

>  <RMSD>
8.849

$$$$
ligand
 OpenBabel02271912153D
libRbt.so/2013.1/901 2013/11/27
 27 29  0  0  0  0  0  0  0  0999 V2000
    2.6979  -15.6879   11.1673 N   0  0  0  0  0  0  0  0  0  0  0  0
    3.8927  -14.9827   11.5908 C   0  0  2  0  0  0  0  0  0  0  0  0
    4.4964  -15.7653   12.7161 C   0  0  0  0  0  0  0  0  0  0  0  0
    5.4958  -15.3069   13.3105 O   0  0  0  0  0  0  0  0  0  0  0  0
    3.5419  -13.5670   12.0563 C   0  0  0  0  0  0  0  0  0  0  0  0
    2.6291  -13.5915   13.3023 C   0  0  0  0  0  0  0  0  0  0  0  0
    2.0847  -12.0947   13.8300 S   0  0  2  0  0  0  0  0  0  0  0  0
    3.3822  -11.0795   14.0414 C   0  0  0  0  0  0  0  0  0  0  0  0
    1.2272  -12.2761   15.2723 C   0  0  0  0  0  0  0  0  0  0  0  0
   -0.2280  -12.7538   15.0830 C   0  0  1  0  0  0  0  0  0  0  0  0
   -1.1367  -11.6875   14.7616 O   0  0  0  0  0  0  0  0  0  0  0  0
   -0.4113  -13.6916   13.9007 C   0  0  1  0  0  0  0  0  0  0  0  0
    0.0532  -15.0481   14.0522 O   0  0  0  0  0  0  0  0  0  0  0  0
   -1.9002  -13.5768   13.6861 C   0  0  1  0  0  0  0  0  0  0  0  0
   -2.5980  -14.2515   14.7286 O   0  0  0  0  0  0  0  0  0  0  0  0
   -2.1317  -12.1010   13.8221 C   0  0  2  0  0  0  0  0  0  0  0  0
    3.9705  -16.8500   13.0626 O   0  0  0  0  0  0  0  0  0  0  0  0
    0.2382   -8.5552   10.6462 N   0  0  0  0  0  0  0  0  0  0  0  0
    0.5480   -8.9024   11.9190 C   0  0  0  0  0  0  0  0  0  0  0  0
   -0.1482   -9.8184   12.6129 N   0  0  0  0  0  0  0  0  0  0  0  0
   -1.1887  -10.4680   12.0793 C   0  0  0  0  0  0  0  0  0  0  0  0
   -1.5571  -10.1552   10.7068 C   0  0  0  0  0  0  0  0  0  0  0  0
   -0.7952   -9.1309    9.9553 C   0  0  0  0  0  0  0  0  0  0  0  0
   -1.1006   -8.7885    8.6545 N   0  0  0  0  0  0  0  0  0  0  0  0
   -2.5824  -10.9278   10.4277 N   0  0  0  0  0  0  0  0  0  0  0  0
   -2.8793  -11.6626   11.5084 C   0  0  0  0  0  0  0  0  0  0  0  0
   -2.0395  -11.3948   12.5076 N   0  0  0  0  0  0  0  0  0  0  0  0
  2  1  1  1  0  0  0
  2  3  1  0  0  0  0
  2  5  1  0  0  0  0
  3  4  1  0  0  0  0
  3 17  1  0  0  0  0
  5  6  1  0  0  0  0
  7  6  1  1  0  0  0
  7  8  1  0  0  0  0
  7  9  1  0  0  0  0
 10  9  1  6  0  0  0
 10 11  1  0  0  0  0
 10 12  1  0  0  0  0
 11 16  1  0  0  0  0
 12 13  1  1  0  0  0
 12 14  1  0  0  0  0
 14 15  1  1  0  0  0
 14 16  1  0  0  0  0
 16 27  1  6  0  0  0
 18 19  2  0  0  0  0
 18 23  1  0  0  0  0
 19 20  1  0  0  0  0
 20 21  2  0  0  0  0
 21 22  1  0  0  0  0
 21 27  1  0  0  0  0
 22 23  2  0  0  0  0
 22 25  1  0  0  0  0
 23 24  1  0  0  0  0
 25 26  2  0  0  0  0
 26 27  1  0  0  0  0
M  END
>  <CHROM.1>
-175.34440499,63.66182912,-175.49360716,-53.04396803,-80.19278189,-82.45802311
0.54662048,0.63080978,-12.44444337,12.76072023,-0.73685310,0.31341487,-0.66125249

>  <Name>
ligand

>  <RI>
0

>  <Rbt.Current_Directory>
/home/itssahil/PROJECTS/Mol_Feturizer/Test_systems_manuscript/rnas/4kqy

>  <Rbt.Executable>
rbdock ($Id: //depot/dev/client3/rdock/2013.1/src/exe/rbdock.cxx#4 $)

>  <Rbt.Library>
libRbt.so (2013.1, Build901 2013/11/27)

>  <Rbt.Parameter_File>
/export/apps/rDock/src/rDock_2013.1_src/data/scripts/dock_solv.prm

>  <Rbt.Receptor>
prm/blind_docking_40.prm

>  <SCORE>
-9.14308

>  <SCORE.INTER>
-8.33759

>  <SCORE.INTER.CONST>
1

>  <SCORE.INTER.POLAR>
0

>  <SCORE.INTER.ROT>
7

>  <SCORE.INTER.SOLV>
14.6911

>  <SCORE.INTER.VDW>
-18.7221

>  <SCORE.INTER.norm>
-0.3088

>  <SCORE.INTRA>
-0.805486

>  <SCORE.INTRA.DIHEDRAL>
-4.60852

>  <SCORE.INTRA.DIHEDRAL.0>
10.4103

>  <SCORE.INTRA.POLAR>
0

>  <SCORE.INTRA.POLAR.0>
0

>  <SCORE.INTRA.REPUL>
0

>  <SCORE.INTRA.REPUL.0>
0

>  <SCORE.INTRA.SOLV>
0.860366

>  <SCORE.INTRA.SOLV.lig_0>
-49.5008

>  <SCORE.INTRA.VDW>
1.06859

>  <SCORE.INTRA.VDW.0>
-2.6946

>  <SCORE.INTRA.norm>
-0.0298328

>  <SCORE.RESTR>
0

>  <SCORE.RESTR.CAVITY>
0

>  <SCORE.RESTR.norm>
0

>  <SCORE.SYSTEM>
0

>  <SCORE.SYSTEM.CONST>
0

>  <SCORE.SYSTEM.DIHEDRAL>
0

>  <SCORE.SYSTEM.SOLV>
0

>  <SCORE.SYSTEM.norm>
0

>  <SCORE.heavy>
27

>  <SCORE.norm>
-0.338632

>  <RMSD>
9.369

$$$$
ligand
 OpenBabel02271912153D
libRbt.so/2013.1/901 2013/11/27
 27 29  0  0  0  0  0  0  0  0999 V2000
    1.6493  -10.0512   11.9086 N   0  0  0  0  0  0  0  0  0  0  0  0
    0.9935  -10.0547   10.6147 C   0  0  2  0  0  0  0  0  0  0  0  0
    1.2201   -8.7092    9.9970 C   0  0  0  0  0  0  0  0  0  0  0  0
    0.5133   -7.7445   10.3602 O   0  0  0  0  0  0  0  0  0  0  0  0
   -0.5059  -10.3199   10.7753 C   0  0  0  0  0  0  0  0  0  0  0  0
   -0.7714  -11.7169   11.3790 C   0  0  0  0  0  0  0  0  0  0  0  0
   -2.3507  -12.0064   11.8659 S   0  0  2  0  0  0  0  0  0  0  0  0
   -3.3919  -11.1458   10.8996 C   0  0  0  0  0  0  0  0  0  0  0  0
   -2.5376  -11.5674   13.4848 C   0  0  0  0  0  0  0  0  0  0  0  0
   -1.7212  -12.4313   14.4691 C   0  0  1  0  0  0  0  0  0  0  0  0
   -1.4180  -13.7396   13.9570 O   0  0  0  0  0  0  0  0  0  0  0  0
   -0.3357  -11.8773   14.7596 C   0  0  1  0  0  0  0  0  0  0  0  0
   -0.2486  -10.7339   15.6336 O   0  0  0  0  0  0  0  0  0  0  0  0
    0.3467  -13.1104   15.2982 C   0  0  1  0  0  0  0  0  0  0  0  0
   -0.1459  -13.4129   16.6000 O   0  0  0  0  0  0  0  0  0  0  0  0
   -0.1126  -14.1740   14.3454 C   0  0  2  0  0  0  0  0  0  0  0  0
    2.1345   -8.5671    9.1503 O   0  0  0  0  0  0  0  0  0  0  0  0
    4.5467  -13.1299   12.0051 N   0  0  0  0  0  0  0  0  0  0  0  0
    4.0794  -12.7049   13.2041 C   0  0  0  0  0  0  0  0  0  0  0  0
    2.8670  -13.0436   13.6737 N   0  0  0  0  0  0  0  0  0  0  0  0
    2.0440  -13.8470   12.9905 C   0  0  0  0  0  0  0  0  0  0  0  0
    2.4983  -14.3550   11.7048 C   0  0  0  0  0  0  0  0  0  0  0  0
    3.8291  -13.9618   11.1867 C   0  0  0  0  0  0  0  0  0  0  0  0
    4.3114  -14.4068    9.9734 N   0  0  0  0  0  0  0  0  0  0  0  0
    1.5251  -15.1160   11.2579 N   0  0  0  0  0  0  0  0  0  0  0  0
    0.5193  -15.0994   12.1433 C   0  0  0  0  0  0  0  0  0  0  0  0
    0.8267  -14.3401   13.1942 N   0  0  0  0  0  0  0  0  0  0  0  0
  2  1  1  1  0  0  0
  2  3  1  0  0  0  0
  2  5  1  0  0  0  0
  3  4  1  0  0  0  0
  3 17  1  0  0  0  0
  5  6  1  0  0  0  0
  7  6  1  6  0  0  0
  7  8  1  0  0  0  0
  7  9  1  0  0  0  0
 10  9  1  6  0  0  0
 10 11  1  0  0  0  0
 10 12  1  0  0  0  0
 11 16  1  0  0  0  0
 12 13  1  1  0  0  0
 12 14  1  0  0  0  0
 14 15  1  1  0  0  0
 14 16  1  0  0  0  0
 16 27  1  6  0  0  0
 18 19  2  0  0  0  0
 18 23  1  0  0  0  0
 19 20  1  0  0  0  0
 20 21  2  0  0  0  0
 21 22  1  0  0  0  0
 21 27  1  0  0  0  0
 22 23  2  0  0  0  0
 22 25  1  0  0  0  0
 23 24  1  0  0  0  0
 25 26  2  0  0  0  0
 26 27  1  0  0  0  0
M  END
>  <CHROM.1>
-79.59206200,-62.93984286,169.02480592,30.76912813,-65.68804420,-24.71535141
127.39051022,0.54667538,-12.19433275,12.46035151,-1.52281856,-0.42715086
2.41549572

>  <Name>
ligand

>  <RI>
0

>  <Rbt.Current_Directory>
/home/itssahil/PROJECTS/Mol_Feturizer/Test_systems_manuscript/rnas/4kqy

>  <Rbt.Executable>
rbdock ($Id: //depot/dev/client3/rdock/2013.1/src/exe/rbdock.cxx#4 $)

>  <Rbt.Library>
libRbt.so (2013.1, Build901 2013/11/27)

>  <Rbt.Parameter_File>
/export/apps/rDock/src/rDock_2013.1_src/data/scripts/dock_solv.prm

>  <Rbt.Receptor>
prm/blind_docking_40.prm

>  <SCORE>
-6.15855

>  <SCORE.INTER>
-6.34786

>  <SCORE.INTER.CONST>
1

>  <SCORE.INTER.POLAR>
0

>  <SCORE.INTER.ROT>
7

>  <SCORE.INTER.SOLV>
15.4337

>  <SCORE.INTER.VDW>
-17.6431

>  <SCORE.INTER.norm>
-0.235106

>  <SCORE.INTRA>
0.039915

>  <SCORE.INTRA.DIHEDRAL>
-1.45194

>  <SCORE.INTRA.DIHEDRAL.0>
10.4103

>  <SCORE.INTRA.POLAR>
0

>  <SCORE.INTRA.POLAR.0>
0

>  <SCORE.INTRA.REPUL>
0

>  <SCORE.INTRA.REPUL.0>
0

>  <SCORE.INTRA.SOLV>
1.15855

>  <SCORE.INTRA.SOLV.lig_0>
-49.5008

>  <SCORE.INTRA.VDW>
0.186608

>  <SCORE.INTRA.VDW.0>
-2.6946

>  <SCORE.INTRA.norm>
0.00147833

>  <SCORE.RESTR>
0.149394

>  <SCORE.RESTR.CAVITY>
0.149394

>  <SCORE.RESTR.norm>
0.0055331

>  <SCORE.SYSTEM>
0

>  <SCORE.SYSTEM.CONST>
0

>  <SCORE.SYSTEM.DIHEDRAL>
0

>  <SCORE.SYSTEM.SOLV>
0

>  <SCORE.SYSTEM.norm>
0

>  <SCORE.heavy>
27

>  <SCORE.norm>
-0.228094

>  <RMSD>
9.493

$$$$
ligand
 OpenBabel02271912153D
libRbt.so/2013.1/901 2013/11/27
 27 29  0  0  0  0  0  0  0  0999 V2000
    5.6680  -15.6666    9.3360 N   0  0  0  0  0  0  0  0  0  0  0  0
    4.8749  -14.7580   10.1420 C   0  0  2  0  0  0  0  0  0  0  0  0
    5.2084  -13.3657    9.7022 C   0  0  0  0  0  0  0  0  0  0  0  0
    6.3705  -13.1086    9.3206 O   0  0  0  0  0  0  0  0  0  0  0  0
    5.1993  -14.9382   11.6274 C   0  0  0  0  0  0  0  0  0  0  0  0
    4.0152  -14.5070   12.5210 C   0  0  0  0  0  0  0  0  0  0  0  0
    2.9336  -15.7241   12.9261 S   0  0  2  0  0  0  0  0  0  0  0  0
    2.8715  -16.8382   11.6958 C   0  0  0  0  0  0  0  0  0  0  0  0
    1.4078  -15.0601   13.2080 C   0  0  0  0  0  0  0  0  0  0  0  0
    1.3973  -13.9329   14.2621 C   0  0  1  0  0  0  0  0  0  0  0  0
    2.0973  -12.7523   13.8354 O   0  0  0  0  0  0  0  0  0  0  0  0
    0.0090  -13.3877   14.5556 C   0  0  1  0  0  0  0  0  0  0  0  0
   -0.8657  -14.2011   15.3631 O   0  0  0  0  0  0  0  0  0  0  0  0
    0.3607  -12.0615   15.1830 C   0  0  1  0  0  0  0  0  0  0  0  0
    0.8968  -12.2642   16.4870 O   0  0  0  0  0  0  0  0  0  0  0  0
    1.4499  -11.5587   14.2824 C   0  0  2  0  0  0  0  0  0  0  0  0
    4.3095  -12.4911    9.6946 O   0  0  0  0  0  0  0  0  0  0  0  0
    0.5865  -10.7848    9.0929 N   0  0  0  0  0  0  0  0  0  0  0  0
    1.1827  -11.8325    9.7122 C   0  0  0  0  0  0  0  0  0  0  0  0
    1.3425  -11.8946   11.0448 N   0  0  0  0  0  0  0  0  0  0  0  0
    0.9002  -10.9266   11.8551 C   0  0  0  0  0  0  0  0  0  0  0  0
    0.2306   -9.7844   11.2514 C   0  0  0  0  0  0  0  0  0  0  0  0
    0.0748   -9.7158    9.7800 C   0  0  0  0  0  0  0  0  0  0  0  0
   -0.5459   -8.6568    9.1506 N   0  0  0  0  0  0  0  0  0  0  0  0
   -0.1103   -9.0019   12.2502 N   0  0  0  0  0  0  0  0  0  0  0  0
    0.3077   -9.5546   13.3972 C   0  0  0  0  0  0  0  0  0  0  0  0
    0.9137  -10.7189   13.1678 N   0  0  0  0  0  0  0  0  0  0  0  0
  2  1  1  6  0  0  0
  2  3  1  0  0  0  0
  2  5  1  0  0  0  0
  3  4  1  0  0  0  0
  3 17  1  0  0  0  0
  5  6  1  0  0  0  0
  7  6  1  6  0  0  0
  7  8  1  0  0  0  0
  7  9  1  0  0  0  0
 10  9  1  6  0  0  0
 10 11  1  0  0  0  0
 10 12  1  0  0  0  0
 11 16  1  0  0  0  0
 12 13  1  1  0  0  0
 12 14  1  0  0  0  0
 14 15  1  1  0  0  0
 14 16  1  0  0  0  0
 16 27  1  6  0  0  0
 18 19  2  0  0  0  0
 18 23  1  0  0  0  0
 19 20  1  0  0  0  0
 20 21  2  0  0  0  0
 21 22  1  0  0  0  0
 21 27  1  0  0  0  0
 22 23  2  0  0  0  0
 22 25  1  0  0  0  0
 23 24  1  0  0  0  0
 25 26  2  0  0  0  0
 26 27  1  0  0  0  0
M  END
>  <CHROM.1>
-33.58498287,-154.56579548,91.71781901,-30.92004578,-54.57744502,67.05171309
2.79628669,2.05303047,-12.78611464,12.10729141,-0.18198235,0.77970171,-0.85978147

>  <Name>
ligand

>  <RI>
0

>  <Rbt.Current_Directory>
/home/itssahil/PROJECTS/Mol_Feturizer/Test_systems_manuscript/rnas/4kqy

>  <Rbt.Executable>
rbdock ($Id: //depot/dev/client3/rdock/2013.1/src/exe/rbdock.cxx#4 $)

>  <Rbt.Library>
libRbt.so (2013.1, Build901 2013/11/27)

>  <Rbt.Parameter_File>
/export/apps/rDock/src/rDock_2013.1_src/data/scripts/dock_solv.prm

>  <Rbt.Receptor>
prm/blind_docking_60.prm

>  <SCORE>
-11.1555

>  <SCORE.INTER>
-12.026

>  <SCORE.INTER.CONST>
1

>  <SCORE.INTER.POLAR>
0

>  <SCORE.INTER.ROT>
7

>  <SCORE.INTER.SOLV>
15.6638

>  <SCORE.INTER.VDW>
-21.5052

>  <SCORE.INTER.norm>
-0.445406

>  <SCORE.INTRA>
0.870471

>  <SCORE.INTRA.DIHEDRAL>
0.0484621

>  <SCORE.INTRA.DIHEDRAL.0>
10.4103

>  <SCORE.INTRA.POLAR>
0

>  <SCORE.INTRA.POLAR.0>
0

>  <SCORE.INTRA.REPUL>
0

>  <SCORE.INTRA.REPUL.0>
0

>  <SCORE.INTRA.SOLV>
0.316987

>  <SCORE.INTRA.SOLV.lig_0>
-49.5008

>  <SCORE.INTRA.VDW>
0.687747

>  <SCORE.INTRA.VDW.0>
-2.6946

>  <SCORE.INTRA.norm>
0.0322397

>  <SCORE.RESTR>
0

>  <SCORE.RESTR.CAVITY>
0

>  <SCORE.RESTR.norm>
0

>  <SCORE.SYSTEM>
0

>  <SCORE.SYSTEM.CONST>
0

>  <SCORE.SYSTEM.DIHEDRAL>
0

>  <SCORE.SYSTEM.SOLV>
0

>  <SCORE.SYSTEM.norm>
0

>  <SCORE.heavy>
27

>  <SCORE.norm>
-0.413167

>  <RMSD>
10.088

$$$$
ligand
 OpenBabel02271912153D
libRbt.so/2013.1/901 2013/11/27
 27 29  0  0  0  0  0  0  0  0999 V2000
    3.4354  -13.5650   10.3300 N   0  0  0  0  0  0  0  0  0  0  0  0
    4.5772  -14.3680   10.7245 C   0  0  2  0  0  0  0  0  0  0  0  0
    4.2680  -15.7887   10.3650 C   0  0  0  0  0  0  0  0  0  0  0  0
    5.1869  -16.5261    9.9478 O   0  0  0  0  0  0  0  0  0  0  0  0
    4.8250  -14.2428   12.2302 C   0  0  0  0  0  0  0  0  0  0  0  0
    3.5962  -14.7031   13.0455 C   0  0  0  0  0  0  0  0  0  0  0  0
    2.2574  -13.6947   12.9681 S   0  0  2  0  0  0  0  0  0  0  0  0
    2.6386  -12.2206   13.6317 C   0  0  0  0  0  0  0  0  0  0  0  0
    0.9629  -14.4020   13.7883 C   0  0  0  0  0  0  0  0  0  0  0  0
   -0.3890  -13.6936   13.5596 C   0  0  1  0  0  0  0  0  0  0  0  0
   -0.3800  -12.3135   13.9608 O   0  0  0  0  0  0  0  0  0  0  0  0
   -0.7830  -13.5938   12.0948 C   0  0  1  0  0  0  0  0  0  0  0  0
   -1.2612  -14.7933   11.4535 O   0  0  0  0  0  0  0  0  0  0  0  0
   -1.8063  -12.4870   12.1595 C   0  0  1  0  0  0  0  0  0  0  0  0
   -3.0021  -12.9616   12.7710 O   0  0  0  0  0  0  0  0  0  0  0  0
   -1.1513  -11.4969   13.0765 C   0  0  2  0  0  0  0  0  0  0  0  0
    3.1010  -16.2220   10.5184 O   0  0  0  0  0  0  0  0  0  0  0  0
    1.4090  -10.0022    8.6621 N   0  0  0  0  0  0  0  0  0  0  0  0
    0.7221  -11.1449    8.9051 C   0  0  0  0  0  0  0  0  0  0  0  0
    0.1239  -11.3977   10.0814 N   0  0  0  0  0  0  0  0  0  0  0  0
    0.1505  -10.5200   11.0904 C   0  0  0  0  0  0  0  0  0  0  0  0
    0.8541   -9.2632   10.8831 C   0  0  0  0  0  0  0  0  0  0  0  0
    1.5259   -9.0006    9.5893 C   0  0  0  0  0  0  0  0  0  0  0  0
    2.2120   -7.8310    9.3363 N   0  0  0  0  0  0  0  0  0  0  0  0
    0.7188   -8.5897   12.0029 N   0  0  0  0  0  0  0  0  0  0  0  0
    0.0170   -9.3294   12.8726 C   0  0  0  0  0  0  0  0  0  0  0  0
   -0.3342  -10.4936   12.3277 N   0  0  0  0  0  0  0  0  0  0  0  0
  2  1  1  1  0  0  0
  2  3  1  0  0  0  0
  2  5  1  0  0  0  0
  3  4  1  0  0  0  0
  3 17  1  0  0  0  0
  5  6  1  0  0  0  0
  7  6  1  1  0  0  0
  7  8  1  0  0  0  0
  7  9  1  0  0  0  0
 10  9  1  6  0  0  0
 10 11  1  0  0  0  0
 10 12  1  0  0  0  0
 11 16  1  0  0  0  0
 12 13  1  1  0  0  0
 12 14  1  0  0  0  0
 14 15  1  1  0  0  0
 14 16  1  0  0  0  0
 16 27  1  6  0  0  0
 18 19  2  0  0  0  0
 18 23  1  0  0  0  0
 19 20  1  0  0  0  0
 20 21  2  0  0  0  0
 21 22  1  0  0  0  0
 21 27  1  0  0  0  0
 22 23  2  0  0  0  0
 22 25  1  0  0  0  0
 23 24  1  0  0  0  0
 25 26  2  0  0  0  0
 26 27  1  0  0  0  0
M  END
>  <CHROM.1>
143.44532035,59.27286787,-70.29043815,-63.54013398,-169.09957767,-59.02190591
98.93245484,1.29185653,-12.54799556,11.66358583,-0.78936709,0.50747334,-0.42811640

>  <Name>
ligand

>  <RI>
0

>  <Rbt.Current_Directory>
/home/itssahil/PROJECTS/Mol_Feturizer/Test_systems_manuscript/rnas/4kqy

>  <Rbt.Executable>
rbdock ($Id: //depot/dev/client3/rdock/2013.1/src/exe/rbdock.cxx#4 $)

>  <Rbt.Library>
libRbt.so (2013.1, Build901 2013/11/27)

>  <Rbt.Parameter_File>
/export/apps/rDock/src/rDock_2013.1_src/data/scripts/dock_solv.prm

>  <Rbt.Receptor>
prm/blind_docking_80.prm

>  <SCORE>
-12.9967

>  <SCORE.INTER>
-10.4995

>  <SCORE.INTER.CONST>
1

>  <SCORE.INTER.POLAR>
0

>  <SCORE.INTER.ROT>
7

>  <SCORE.INTER.SOLV>
16.7899

>  <SCORE.INTER.VDW>
-20.8629

>  <SCORE.INTER.norm>
-0.388869

>  <SCORE.INTRA>
-2.49724

>  <SCORE.INTRA.DIHEDRAL>
-6.9282

>  <SCORE.INTRA.DIHEDRAL.0>
10.4103

>  <SCORE.INTRA.POLAR>
0

>  <SCORE.INTRA.POLAR.0>
0

>  <SCORE.INTRA.REPUL>
0

>  <SCORE.INTRA.REPUL.0>
0

>  <SCORE.INTRA.SOLV>
2.66358

>  <SCORE.INTRA.SOLV.lig_0>
-49.5008

>  <SCORE.INTRA.VDW>
-0.36493

>  <SCORE.INTRA.VDW.0>
-2.6946

>  <SCORE.INTRA.norm>
-0.0924904

>  <SCORE.RESTR>
0

>  <SCORE.RESTR.CAVITY>
0

>  <SCORE.RESTR.norm>
0

>  <SCORE.SYSTEM>
0

>  <SCORE.SYSTEM.CONST>
0

>  <SCORE.SYSTEM.DIHEDRAL>
0

>  <SCORE.SYSTEM.SOLV>
0

>  <SCORE.SYSTEM.norm>
0

>  <SCORE.heavy>
27

>  <SCORE.norm>
-0.481359

>  <RMSD>
10.242

$$$$
ligand
 OpenBabel02271912153D
libRbt.so/2013.1/901 2013/11/27
 27 29  0  0  0  0  0  0  0  0999 V2000
    0.9757  -14.3568   14.8311 N   0  0  0  0  0  0  0  0  0  0  0  0
    0.8994  -12.9636   15.2278 C   0  0  2  0  0  0  0  0  0  0  0  0
    0.3028  -12.9236   16.6010 C   0  0  0  0  0  0  0  0  0  0  0  0
    0.4949  -11.9198   17.3205 O   0  0  0  0  0  0  0  0  0  0  0  0
    0.0281  -12.1746   14.2467 C   0  0  0  0  0  0  0  0  0  0  0  0
   -1.3759  -12.8034   14.1057 C   0  0  0  0  0  0  0  0  0  0  0  0
   -1.9605  -12.9241   12.5376 S   0  0  2  0  0  0  0  0  0  0  0  0
   -0.9775  -13.9343   11.6591 C   0  0  0  0  0  0  0  0  0  0  0  0
   -2.0238  -11.3915   11.8334 C   0  0  0  0  0  0  0  0  0  0  0  0
   -0.6408  -10.7432   11.6128 C   0  0  1  0  0  0  0  0  0  0  0  0
   -0.3048  -10.5846   10.2243 O   0  0  0  0  0  0  0  0  0  0  0  0
   -0.5504   -9.3145   12.1243 C   0  0  1  0  0  0  0  0  0  0  0  0
   -0.4523   -9.1258   13.5503 O   0  0  0  0  0  0  0  0  0  0  0  0
    0.6539   -8.8237   11.3596 C   0  0  1  0  0  0  0  0  0  0  0  0
    1.8395   -9.4159   11.8816 O   0  0  0  0  0  0  0  0  0  0  0  0
    0.4043   -9.3669    9.9838 C   0  0  2  0  0  0  0  0  0  0  0  0
   -0.4043  -13.8827   16.9926 O   0  0  0  0  0  0  0  0  0  0  0  0
   -4.0907   -7.8653    7.5721 N   0  0  0  0  0  0  0  0  0  0  0  0
   -3.8588   -8.9550    8.3436 C   0  0  0  0  0  0  0  0  0  0  0  0
   -2.6596   -9.2178    8.8895 N   0  0  0  0  0  0  0  0  0  0  0  0
   -1.6131   -8.4015    8.7221 C   0  0  0  0  0  0  0  0  0  0  0  0
   -1.8050   -7.2017    7.9214 C   0  0  0  0  0  0  0  0  0  0  0  0
   -3.1257   -6.9293    7.3086 C   0  0  0  0  0  0  0  0  0  0  0  0
   -3.3662   -5.8121    6.5360 N   0  0  0  0  0  0  0  0  0  0  0  0
   -0.6474   -6.5805    7.9267 N   0  0  0  0  0  0  0  0  0  0  0  0
    0.2295   -7.3020    8.6383 C   0  0  0  0  0  0  0  0  0  0  0  0
   -0.3470   -8.3998    9.1262 N   0  0  0  0  0  0  0  0  0  0  0  0
  2  1  1  6  0  0  0
  2  3  1  0  0  0  0
  2  5  1  0  0  0  0
  3  4  1  0  0  0  0
  3 17  1  0  0  0  0
  5  6  1  0  0  0  0
  7  6  1  1  0  0  0
  7  8  1  0  0  0  0
  7  9  1  0  0  0  0
 10  9  1  6  0  0  0
 10 11  1  0  0  0  0
 10 12  1  0  0  0  0
 11 16  1  0  0  0  0
 12 13  1  1  0  0  0
 12 14  1  0  0  0  0
 14 15  1  1  0  0  0
 14 16  1  0  0  0  0
 16 27  1  6  0  0  0
 18 19  2  0  0  0  0
 18 23  1  0  0  0  0
 19 20  1  0  0  0  0
 20 21  2  0  0  0  0
 21 22  1  0  0  0  0
 21 27  1  0  0  0  0
 22 23  2  0  0  0  0
 22 25  1  0  0  0  0
 23 24  1  0  0  0  0
 25 26  2  0  0  0  0
 26 27  1  0  0  0  0
M  END
>  <CHROM.1>
158.54078128,55.32662100,-135.83467218,63.09583688,66.22783831,113.44179696
11.08029731,-0.91350777,-10.32928310,11.54104306,1.29304105,0.63338765,2.38567965

>  <Name>
ligand

>  <RI>
0

>  <Rbt.Current_Directory>
/home/itssahil/PROJECTS/Mol_Feturizer/Test_systems_manuscript/rnas/4kqy

>  <Rbt.Executable>
rbdock ($Id: //depot/dev/client3/rdock/2013.1/src/exe/rbdock.cxx#4 $)

>  <Rbt.Library>
libRbt.so (2013.1, Build901 2013/11/27)

>  <Rbt.Parameter_File>
/export/apps/rDock/src/rDock_2013.1_src/data/scripts/dock_solv.prm

>  <Rbt.Receptor>
prm/blind_docking_100.prm

>  <SCORE>
-13.381

>  <SCORE.INTER>
-15.7658

>  <SCORE.INTER.CONST>
1

>  <SCORE.INTER.POLAR>
0

>  <SCORE.INTER.ROT>
7

>  <SCORE.INTER.SOLV>
18.8617

>  <SCORE.INTER.VDW>
-25.0644

>  <SCORE.INTER.norm>
-0.58392

>  <SCORE.INTRA>
2.38484

>  <SCORE.INTRA.DIHEDRAL>
2.08978

>  <SCORE.INTRA.DIHEDRAL.0>
10.4103

>  <SCORE.INTRA.POLAR>
0

>  <SCORE.INTRA.POLAR.0>
0

>  <SCORE.INTRA.REPUL>
0

>  <SCORE.INTRA.REPUL.0>
0

>  <SCORE.INTRA.SOLV>
1.74435

>  <SCORE.INTRA.SOLV.lig_0>
-49.5008

>  <SCORE.INTRA.VDW>
0.467774

>  <SCORE.INTRA.VDW.0>
-2.6946

>  <SCORE.INTRA.norm>
0.0883274

>  <SCORE.RESTR>
0

>  <SCORE.RESTR.CAVITY>
0

>  <SCORE.RESTR.norm>
0

>  <SCORE.SYSTEM>
0

>  <SCORE.SYSTEM.CONST>
0

>  <SCORE.SYSTEM.DIHEDRAL>
0

>  <SCORE.SYSTEM.SOLV>
0

>  <SCORE.SYSTEM.norm>
0

>  <SCORE.heavy>
27

>  <SCORE.norm>
-0.495593

>  <RMSD>
10.276

$$$$
ligand
 OpenBabel02271912153D
libRbt.so/2013.1/901 2013/11/27
 27 29  0  0  0  0  0  0  0  0999 V2000
   -0.4352   -8.8679    8.4234 N   0  0  0  0  0  0  0  0  0  0  0  0
    0.0008   -9.4754    9.6664 C   0  0  2  0  0  0  0  0  0  0  0  0
   -1.0253  -10.4981   10.0463 C   0  0  0  0  0  0  0  0  0  0  0  0
   -0.6670  -11.6804   10.2357 O   0  0  0  0  0  0  0  0  0  0  0  0
    0.1269   -8.4159   10.7645 C   0  0  0  0  0  0  0  0  0  0  0  0
    0.6698   -9.0237   12.0769 C   0  0  0  0  0  0  0  0  0  0  0  0
   -0.4417   -9.8905   12.9871 S   0  0  2  0  0  0  0  0  0  0  0  0
   -1.3074   -8.8437   13.9428 C   0  0  0  0  0  0  0  0  0  0  0  0
    0.3632  -11.0345   13.9314 C   0  0  0  0  0  0  0  0  0  0  0  0
   -0.2368  -12.4539   13.8475 C   0  0  1  0  0  0  0  0  0  0  0  0
   -0.2257  -12.9955   12.5162 O   0  0  0  0  0  0  0  0  0  0  0  0
    0.5568  -13.4962   14.6187 C   0  0  1  0  0  0  0  0  0  0  0  0
    0.4375  -13.4909   16.0555 O   0  0  0  0  0  0  0  0  0  0  0  0
    0.0537  -14.7616   13.9693 C   0  0  1  0  0  0  0  0  0  0  0  0
   -1.2847  -15.0236   14.3805 O   0  0  0  0  0  0  0  0  0  0  0  0
    0.0527  -14.3977   12.5141 C   0  0  2  0  0  0  0  0  0  0  0  0
   -2.2192  -10.1447   10.1982 O   0  0  0  0  0  0  0  0  0  0  0  0
    4.4070  -12.9327    9.8365 N   0  0  0  0  0  0  0  0  0  0  0  0
    3.3851  -12.1663   10.2891 C   0  0  0  0  0  0  0  0  0  0  0  0
    2.3328  -12.6750   10.9519 N   0  0  0  0  0  0  0  0  0  0  0  0
    2.2359  -13.9802   11.2284 C   0  0  0  0  0  0  0  0  0  0  0  0
    3.3138  -14.8527   10.7878 C   0  0  0  0  0  0  0  0  0  0  0  0
    4.4613  -14.2860   10.0421 C   0  0  0  0  0  0  0  0  0  0  0  0
    5.5093  -15.0635    9.5947 N   0  0  0  0  0  0  0  0  0  0  0  0
    2.9838  -16.0588   11.1909 N   0  0  0  0  0  0  0  0  0  0  0  0
    1.7997  -15.9991   11.8156 C   0  0  0  0  0  0  0  0  0  0  0  0
    1.3442  -14.7473   11.8471 N   0  0  0  0  0  0  0  0  0  0  0  0
  2  1  1  6  0  0  0
  2  3  1  0  0  0  0
  2  5  1  0  0  0  0
  3  4  1  0  0  0  0
  3 17  1  0  0  0  0
  5  6  1  0  0  0  0
  7  6  1  1  0  0  0
  7  8  1  0  0  0  0
  7  9  1  0  0  0  0
 10  9  1  6  0  0  0
 10 11  1  0  0  0  0
 10 12  1  0  0  0  0
 11 16  1  0  0  0  0
 12 13  1  1  0  0  0
 12 14  1  0  0  0  0
 14 15  1  1  0  0  0
 14 16  1  0  0  0  0
 16 27  1  1  0  0  0
 18 19  2  0  0  0  0
 18 23  1  0  0  0  0
 19 20  1  0  0  0  0
 20 21  2  0  0  0  0
 21 22  1  0  0  0  0
 21 27  1  0  0  0  0
 22 23  2  0  0  0  0
 22 25  1  0  0  0  0
 23 24  1  0  0  0  0
 25 26  2  0  0  0  0
 26 27  1  0  0  0  0
M  END
>  <CHROM.1>
124.08971959,-176.65179469,-77.56392594,-84.24228648,-131.14801015,59.99744636
-2.51736160,0.82219598,-12.32478256,11.87229813,-2.53110728,-0.78759397,2.41790953

>  <Name>
ligand

>  <RI>
0

>  <Rbt.Current_Directory>
/home/itssahil/PROJECTS/Mol_Feturizer/Test_systems_manuscript/rnas/4kqy

>  <Rbt.Executable>
rbdock ($Id: //depot/dev/client3/rdock/2013.1/src/exe/rbdock.cxx#4 $)

>  <Rbt.Library>
libRbt.so (2013.1, Build901 2013/11/27)

>  <Rbt.Parameter_File>
/export/apps/rDock/src/rDock_2013.1_src/data/scripts/dock_solv.prm

>  <Rbt.Receptor>
prm/blind_docking_40.prm

>  <SCORE>
-14.7062

>  <SCORE.INTER>
-12.4737

>  <SCORE.INTER.CONST>
1

>  <SCORE.INTER.POLAR>
0

>  <SCORE.INTER.ROT>
7

>  <SCORE.INTER.SOLV>
19.2501

>  <SCORE.INTER.VDW>
-22.9992

>  <SCORE.INTER.norm>
-0.46199

>  <SCORE.INTRA>
-2.23246

>  <SCORE.INTRA.DIHEDRAL>
-0.427641

>  <SCORE.INTRA.DIHEDRAL.0>
10.4103

>  <SCORE.INTRA.POLAR>
0

>  <SCORE.INTRA.POLAR.0>
0

>  <SCORE.INTRA.REPUL>
0

>  <SCORE.INTRA.REPUL.0>
0

>  <SCORE.INTRA.SOLV>
-0.451859

>  <SCORE.INTRA.SOLV.lig_0>
-49.5008

>  <SCORE.INTRA.VDW>
-1.79271

>  <SCORE.INTRA.VDW.0>
-2.6946

>  <SCORE.INTRA.norm>
-0.0826836

>  <SCORE.RESTR>
0

>  <SCORE.RESTR.CAVITY>
0

>  <SCORE.RESTR.norm>
0

>  <SCORE.SYSTEM>
0

>  <SCORE.SYSTEM.CONST>
0

>  <SCORE.SYSTEM.DIHEDRAL>
0

>  <SCORE.SYSTEM.SOLV>
0

>  <SCORE.SYSTEM.norm>
0

>  <SCORE.heavy>
27

>  <SCORE.norm>
-0.544673

>  <RMSD>
10.414

$$$$
ligand
 OpenBabel02271912153D
libRbt.so/2013.1/901 2013/11/27
 27 29  0  0  0  0  0  0  0  0999 V2000
    6.9221   -8.3751    9.7579 N   0  0  0  0  0  0  0  0  0  0  0  0
    7.2123   -9.7564    9.4236 C   0  0  2  0  0  0  0  0  0  0  0  0
    7.9815   -9.7515    8.1385 C   0  0  0  0  0  0  0  0  0  0  0  0
    7.4530   -9.2704    7.1131 O   0  0  0  0  0  0  0  0  0  0  0  0
    5.9141  -10.5522    9.2627 C   0  0  0  0  0  0  0  0  0  0  0  0
    5.1010  -10.5789   10.5760 C   0  0  0  0  0  0  0  0  0  0  0  0
    3.6461  -11.4119   10.5094 S   0  0  2  0  0  0  0  0  0  0  0  0
    2.5872  -10.5938    9.5255 C   0  0  0  0  0  0  0  0  0  0  0  0
    3.0112  -11.5756   12.0646 C   0  0  0  0  0  0  0  0  0  0  0  0
    2.7186  -13.0345   12.4741 C   0  0  1  0  0  0  0  0  0  0  0  0
    1.8711  -13.1389   13.6304 O   0  0  0  0  0  0  0  0  0  0  0  0
    1.9291  -13.8116   11.4332 C   0  0  1  0  0  0  0  0  0  0  0  0
    2.6351  -14.2457   10.2534 O   0  0  0  0  0  0  0  0  0  0  0  0
    1.3987  -14.9435   12.2780 C   0  0  1  0  0  0  0  0  0  0  0  0
    2.4521  -15.8448   12.6051 O   0  0  0  0  0  0  0  0  0  0  0  0
    0.9599  -14.2353   13.5254 C   0  0  2  0  0  0  0  0  0  0  0  0
    9.1525  -10.2007    8.1207 O   0  0  0  0  0  0  0  0  0  0  0  0
   -2.9363  -11.4958   11.1610 N   0  0  0  0  0  0  0  0  0  0  0  0
   -1.6285  -11.5885   10.8183 C   0  0  0  0  0  0  0  0  0  0  0  0
   -0.7435  -12.3189   11.5172 N   0  0  0  0  0  0  0  0  0  0  0  0
   -1.1046  -13.0251   12.5944 C   0  0  0  0  0  0  0  0  0  0  0  0
   -2.5014  -12.9841   13.0002 C   0  0  0  0  0  0  0  0  0  0  0  0
   -3.4665  -12.1619   12.2343 C   0  0  0  0  0  0  0  0  0  0  0  0
   -4.8010  -12.0796   12.5738 N   0  0  0  0  0  0  0  0  0  0  0  0
   -2.5887  -13.7596   14.0571 N   0  0  0  0  0  0  0  0  0  0  0  0
   -1.3732  -14.2486   14.3385 C   0  0  0  0  0  0  0  0  0  0  0  0
   -0.4730  -13.8143   13.4573 N   0  0  0  0  0  0  0  0  0  0  0  0
  2  1  1  6  0  0  0
  2  3  1  0  0  0  0
  2  5  1  0  0  0  0
  3  4  1  0  0  0  0
  3 17  1  0  0  0  0
  5  6  1  0  0  0  0
  7  6  1  1  0  0  0
  7  8  1  0  0  0  0
  7  9  1  0  0  0  0
 10  9  1  6  0  0  0
 10 11  1  0  0  0  0
 10 12  1  0  0  0  0
 11 16  1  0  0  0  0
 12 13  1  6  0  0  0
 12 14  1  0  0  0  0
 14 15  1  1  0  0  0
 14 16  1  0  0  0  0
 16 27  1  6  0  0  0
 18 19  2  0  0  0  0
 18 23  1  0  0  0  0
 19 20  1  0  0  0  0
 20 21  2  0  0  0  0
 21 22  1  0  0  0  0
 21 27  1  0  0  0  0
 22 23  2  0  0  0  0
 22 25  1  0  0  0  0
 23 24  1  0  0  0  0
 25 26  2  0  0  0  0
 26 27  1  0  0  0  0
M  END
>  <CHROM.1>
-60.75299806,-61.75595448,179.33953262,-67.94086400,-124.39882665,-164.68273659
58.36325122,2.11286626,-12.13121639,11.25881952,0.49873132,0.16407249,-0.60060574

>  <Name>
ligand

>  <RI>
0

>  <Rbt.Current_Directory>
/home/itssahil/PROJECTS/Mol_Feturizer/Test_systems_manuscript/rnas/4kqy

>  <Rbt.Executable>
rbdock ($Id: //depot/dev/client3/rdock/2013.1/src/exe/rbdock.cxx#4 $)

>  <Rbt.Library>
libRbt.so (2013.1, Build901 2013/11/27)

>  <Rbt.Parameter_File>
/export/apps/rDock/src/rDock_2013.1_src/data/scripts/dock_solv.prm

>  <Rbt.Receptor>
prm/blind_docking_40.prm

>  <SCORE>
-8.38263

>  <SCORE.INTER>
-7.43061

>  <SCORE.INTER.CONST>
1

>  <SCORE.INTER.POLAR>
0

>  <SCORE.INTER.ROT>
7

>  <SCORE.INTER.SOLV>
14.5049

>  <SCORE.INTER.VDW>
-18.0554

>  <SCORE.INTER.norm>
-0.275208

>  <SCORE.INTRA>
-0.952021

>  <SCORE.INTRA.DIHEDRAL>
-1.9309

>  <SCORE.INTRA.DIHEDRAL.0>
10.4103

>  <SCORE.INTRA.POLAR>
0

>  <SCORE.INTRA.POLAR.0>
0

>  <SCORE.INTRA.REPUL>
0

>  <SCORE.INTRA.REPUL.0>
0

>  <SCORE.INTRA.SOLV>
0.410492

>  <SCORE.INTRA.SOLV.lig_0>
-49.5008

>  <SCORE.INTRA.VDW>
-0.191815

>  <SCORE.INTRA.VDW.0>
-2.6946

>  <SCORE.INTRA.norm>
-0.03526

>  <SCORE.RESTR>
0

>  <SCORE.RESTR.CAVITY>
0

>  <SCORE.RESTR.norm>
0

>  <SCORE.SYSTEM>
0

>  <SCORE.SYSTEM.CONST>
0

>  <SCORE.SYSTEM.DIHEDRAL>
0

>  <SCORE.SYSTEM.SOLV>
0

>  <SCORE.SYSTEM.norm>
0

>  <SCORE.heavy>
27

>  <SCORE.norm>
-0.310468

>  <RMSD>
10.689

$$$$
ligand
 OpenBabel02271912153D
libRbt.so/2013.1/901 2013/11/27
 27 29  0  0  0  0  0  0  0  0999 V2000
    2.0447  -10.1839    9.4417 N   0  0  0  0  0  0  0  0  0  0  0  0
    0.7868   -9.5305    9.1337 C   0  0  2  0  0  0  0  0  0  0  0  0
    1.0463   -8.0557    9.1055 C   0  0  0  0  0  0  0  0  0  0  0  0
    2.1423   -7.6212    9.5205 O   0  0  0  0  0  0  0  0  0  0  0  0
   -0.2642   -9.8648   10.1957 C   0  0  0  0  0  0  0  0  0  0  0  0
   -0.5217  -11.3859   10.2770 C   0  0  0  0  0  0  0  0  0  0  0  0
   -1.6428  -11.8694   11.4279 S   0  0  2  0  0  0  0  0  0  0  0  0
   -3.1278  -11.2255   11.0555 C   0  0  0  0  0  0  0  0  0  0  0  0
   -1.1409  -11.3667   12.9590 C   0  0  0  0  0  0  0  0  0  0  0  0
   -0.6168  -12.5084   13.8554 C   0  0  1  0  0  0  0  0  0  0  0  0
   -0.5658  -13.7780   13.1834 O   0  0  0  0  0  0  0  0  0  0  0  0
    0.8276  -12.3244   14.2922 C   0  0  1  0  0  0  0  0  0  0  0  0
    1.0903  -11.3476   15.3196 O   0  0  0  0  0  0  0  0  0  0  0  0
    1.1774  -13.7371   14.6896 C   0  0  1  0  0  0  0  0  0  0  0  0
    0.5252  -14.0778   15.9093 O   0  0  0  0  0  0  0  0  0  0  0  0
    0.5767  -14.5425   13.5757 C   0  0  2  0  0  0  0  0  0  0  0  0
    0.1732   -7.2863    8.6374 O   0  0  0  0  0  0  0  0  0  0  0  0
    4.6595  -17.2487   11.5062 N   0  0  0  0  0  0  0  0  0  0  0  0
    4.0359  -17.4226   12.6968 C   0  0  0  0  0  0  0  0  0  0  0  0
    3.0109  -16.6532   13.1001 N   0  0  0  0  0  0  0  0  0  0  0  0
    2.5220  -15.6703   12.3358 C   0  0  0  0  0  0  0  0  0  0  0  0
    3.1353  -15.4482   11.0351 C   0  0  0  0  0  0  0  0  0  0  0  0
    4.2765  -16.2895   10.6062 C   0  0  0  0  0  0  0  0  0  0  0  0
    4.9015  -16.1228    9.3878 N   0  0  0  0  0  0  0  0  0  0  0  0
    2.4707  -14.4533   10.4925 N   0  0  0  0  0  0  0  0  0  0  0  0
    1.5274  -14.0418   11.3509 C   0  0  0  0  0  0  0  0  0  0  0  0
    1.5484  -14.7746   12.4635 N   0  0  0  0  0  0  0  0  0  0  0  0
  2  1  1  1  0  0  0
  2  3  1  0  0  0  0
  2  5  1  0  0  0  0
  3  4  1  0  0  0  0
  3 17  1  0  0  0  0
  5  6  1  0  0  0  0
  7  6  1  6  0  0  0
  7  8  1  0  0  0  0
  7  9  1  0  0  0  0
 10  9  1  6  0  0  0
 10 11  1  0  0  0  0
 10 12  1  0  0  0  0
 11 16  1  0  0  0  0
 12 13  1  1  0  0  0
 12 14  1  0  0  0  0
 14 15  1  1  0  0  0
 14 16  1  0  0  0  0
 16 27  1  6  0  0  0
 18 19  2  0  0  0  0
 18 23  1  0  0  0  0
 19 20  1  0  0  0  0
 20 21  2  0  0  0  0
 21 22  1  0  0  0  0
 21 27  1  0  0  0  0
 22 23  2  0  0  0  0
 22 25  1  0  0  0  0
 23 24  1  0  0  0  0
 25 26  2  0  0  0  0
 26 27  1  0  0  0  0
M  END
>  <CHROM.1>
-10.50801742,-59.83960709,179.12023092,62.91298636,-106.70806146,4.13699492
-161.58019476,1.08273678,-12.76960739,11.76361987,-2.14977291,-0.73948789
2.40188379

>  <Name>
ligand

>  <RI>
0

>  <Rbt.Current_Directory>
/home/itssahil/PROJECTS/Mol_Feturizer/Test_systems_manuscript/rnas/4kqy

>  <Rbt.Executable>
rbdock ($Id: //depot/dev/client3/rdock/2013.1/src/exe/rbdock.cxx#4 $)

>  <Rbt.Library>
libRbt.so (2013.1, Build901 2013/11/27)

>  <Rbt.Parameter_File>
/export/apps/rDock/src/rDock_2013.1_src/data/scripts/dock_solv.prm

>  <Rbt.Receptor>
prm/blind_docking_60.prm

>  <SCORE>
-13.2158

>  <SCORE.INTER>
-14.7856

>  <SCORE.INTER.CONST>
1

>  <SCORE.INTER.POLAR>
0

>  <SCORE.INTER.ROT>
7

>  <SCORE.INTER.SOLV>
16.0855

>  <SCORE.INTER.VDW>
-23.4856

>  <SCORE.INTER.norm>
-0.547613

>  <SCORE.INTRA>
1.56972

>  <SCORE.INTRA.DIHEDRAL>
1.76342

>  <SCORE.INTRA.DIHEDRAL.0>
10.4103

>  <SCORE.INTRA.POLAR>
0

>  <SCORE.INTRA.POLAR.0>
0

>  <SCORE.INTRA.REPUL>
0

>  <SCORE.INTRA.REPUL.0>
0

>  <SCORE.INTRA.SOLV>
0.215078

>  <SCORE.INTRA.SOLV.lig_0>
-49.5008

>  <SCORE.INTRA.VDW>
0.58047

>  <SCORE.INTRA.VDW.0>
-2.6946

>  <SCORE.INTRA.norm>
0.0581378

>  <SCORE.RESTR>
0

>  <SCORE.RESTR.CAVITY>
0

>  <SCORE.RESTR.norm>
0

>  <SCORE.SYSTEM>
0

>  <SCORE.SYSTEM.CONST>
0

>  <SCORE.SYSTEM.DIHEDRAL>
0

>  <SCORE.SYSTEM.SOLV>
0

>  <SCORE.SYSTEM.norm>
0

>  <SCORE.heavy>
27

>  <SCORE.norm>
-0.489476

>  <RMSD>
10.695

$$$$
ligand
 OpenBabel02271912153D
libRbt.so/2013.1/901 2013/11/27
 27 29  0  0  0  0  0  0  0  0999 V2000
    0.9249  -14.7359   13.1911 N   0  0  0  0  0  0  0  0  0  0  0  0
    0.1940  -13.8597   14.0869 C   0  0  2  0  0  0  0  0  0  0  0  0
   -1.2650  -14.1264   13.8785 C   0  0  0  0  0  0  0  0  0  0  0  0
   -1.7565  -13.9727   12.7396 O   0  0  0  0  0  0  0  0  0  0  0  0
    0.5151  -12.3941   13.7820 C   0  0  0  0  0  0  0  0  0  0  0  0
   -0.0822  -11.4506   14.8495 C   0  0  0  0  0  0  0  0  0  0  0  0
   -0.8466  -10.0795   14.2570 S   0  0  2  0  0  0  0  0  0  0  0  0
   -2.3239  -10.5014   13.6259 C   0  0  0  0  0  0  0  0  0  0  0  0
    0.1197   -9.3517   13.0801 C   0  0  0  0  0  0  0  0  0  0  0  0
    0.2322  -10.1604   11.7705 C   0  0  1  0  0  0  0  0  0  0  0  0
   -0.9112  -10.0105   10.9125 O   0  0  0  0  0  0  0  0  0  0  0  0
    1.3662   -9.7017   10.8680 C   0  0  1  0  0  0  0  0  0  0  0  0
    2.7075  -10.0660   11.2513 O   0  0  0  0  0  0  0  0  0  0  0  0
    0.9263  -10.2919    9.5511 C   0  0  1  0  0  0  0  0  0  0  0  0
    1.0958  -11.7062    9.5680 O   0  0  0  0  0  0  0  0  0  0  0  0
   -0.5404   -9.9783    9.5322 C   0  0  2  0  0  0  0  0  0  0  0  0
   -1.9604  -14.5291   14.8415 O   0  0  0  0  0  0  0  0  0  0  0  0
   -3.8717   -6.7579    6.9230 N   0  0  0  0  0  0  0  0  0  0  0  0
   -4.0843   -8.0150    7.3826 C   0  0  0  0  0  0  0  0  0  0  0  0
   -3.1409   -8.7234    8.0256 N   0  0  0  0  0  0  0  0  0  0  0  0
   -1.9265   -8.2206    8.2742 C   0  0  0  0  0  0  0  0  0  0  0  0
   -1.6442   -6.8657    7.8249 C   0  0  0  0  0  0  0  0  0  0  0  0
   -2.6842   -6.0985    7.1010 C   0  0  0  0  0  0  0  0  0  0  0  0
   -2.4733   -4.8133    6.6466 N   0  0  0  0  0  0  0  0  0  0  0  0
   -0.4103   -6.6152    8.2001 N   0  0  0  0  0  0  0  0  0  0  0  0
    0.0846   -7.6978    8.8158 C   0  0  0  0  0  0  0  0  0  0  0  0
   -0.8260   -8.6691    8.8693 N   0  0  0  0  0  0  0  0  0  0  0  0
  2  1  1  6  0  0  0
  2  3  1  0  0  0  0
  2  5  1  0  0  0  0
  3  4  1  0  0  0  0
  3 17  1  0  0  0  0
  5  6  1  0  0  0  0
  7  6  1  6  0  0  0
  7  8  1  0  0  0  0
  7  9  1  0  0  0  0
 10  9  1  1  0  0  0
 10 11  1  0  0  0  0
 10 12  1  0  0  0  0
 11 16  1  0  0  0  0
 12 13  1  1  0  0  0
 12 14  1  0  0  0  0
 14 15  1  1  0  0  0
 14 16  1  0  0  0  0
 16 27  1  1  0  0  0
 18 19  2  0  0  0  0
 18 23  1  0  0  0  0
 19 20  1  0  0  0  0
 20 21  2  0  0  0  0
 21 22  1  0  0  0  0
 21 27  1  0  0  0  0
 22 23  2  0  0  0  0
 22 25  1  0  0  0  0
 23 24  1  0  0  0  0
 25 26  2  0  0  0  0
 26 27  1  0  0  0  0
M  END
>  <CHROM.1>
-58.51040727,-171.56275760,-135.52847453,75.23547743,69.61459111,79.37891870
-87.14599320,-0.80628916,-10.07165447,10.98641329,-1.37202891,0.00022115
-0.81420523

>  <Name>
ligand

>  <RI>
0

>  <Rbt.Current_Directory>
/home/itssahil/PROJECTS/Mol_Feturizer/Test_systems_manuscript/rnas/4kqy

>  <Rbt.Executable>
rbdock ($Id: //depot/dev/client3/rdock/2013.1/src/exe/rbdock.cxx#4 $)

>  <Rbt.Library>
libRbt.so (2013.1, Build901 2013/11/27)

>  <Rbt.Parameter_File>
/export/apps/rDock/src/rDock_2013.1_src/data/scripts/dock_solv.prm

>  <Rbt.Receptor>
prm/blind_docking_80.prm

>  <SCORE>
-14.2504

>  <SCORE.INTER>
-14.8484

>  <SCORE.INTER.CONST>
1

>  <SCORE.INTER.POLAR>
0

>  <SCORE.INTER.ROT>
7

>  <SCORE.INTER.SOLV>
12.9081

>  <SCORE.INTER.VDW>
-22.4683

>  <SCORE.INTER.norm>
-0.549942

>  <SCORE.INTRA>
0.597977

>  <SCORE.INTRA.DIHEDRAL>
-0.632834

>  <SCORE.INTRA.DIHEDRAL.0>
10.4103

>  <SCORE.INTRA.POLAR>
0

>  <SCORE.INTRA.POLAR.0>
0

>  <SCORE.INTRA.REPUL>
0

>  <SCORE.INTRA.REPUL.0>
0

>  <SCORE.INTRA.SOLV>
-0.409318

>  <SCORE.INTRA.SOLV.lig_0>
-49.5008

>  <SCORE.INTRA.VDW>
1.11905

>  <SCORE.INTRA.VDW.0>
-2.6946

>  <SCORE.INTRA.norm>
0.0221473

>  <SCORE.RESTR>
0

>  <SCORE.RESTR.CAVITY>
0

>  <SCORE.RESTR.norm>
0

>  <SCORE.SYSTEM>
0

>  <SCORE.SYSTEM.CONST>
0

>  <SCORE.SYSTEM.DIHEDRAL>
0

>  <SCORE.SYSTEM.SOLV>
0

>  <SCORE.SYSTEM.norm>
0

>  <SCORE.heavy>
27

>  <SCORE.norm>
-0.527794

>  <RMSD>
10.814

$$$$
ligand
 OpenBabel02271912153D
libRbt.so/2013.1/901 2013/11/27
 27 29  0  0  0  0  0  0  0  0999 V2000
    5.5080  -16.9082   11.8835 N   0  0  0  0  0  0  0  0  0  0  0  0
    4.4061  -16.1536   12.4498 C   0  0  2  0  0  0  0  0  0  0  0  0
    3.1408  -16.7189   11.8818 C   0  0  0  0  0  0  0  0  0  0  0  0
    2.1012  -16.0253   11.8992 O   0  0  0  0  0  0  0  0  0  0  0  0
    4.5333  -14.6704   12.0918 C   0  0  0  0  0  0  0  0  0  0  0  0
    4.5158  -14.4546   10.5622 C   0  0  0  0  0  0  0  0  0  0  0  0
    4.9948  -12.9335   10.0406 S   0  0  2  0  0  0  0  0  0  0  0  0
    6.5809  -12.6801   10.4634 C   0  0  0  0  0  0  0  0  0  0  0  0
    3.9987  -11.7560   10.7261 C   0  0  0  0  0  0  0  0  0  0  0  0
    2.5944  -11.6730   10.0914 C   0  0  1  0  0  0  0  0  0  0  0  0
    1.8107  -12.8609   10.2933 O   0  0  0  0  0  0  0  0  0  0  0  0
    1.7098  -10.6026   10.7100 C   0  0  1  0  0  0  0  0  0  0  0  0
    1.9877   -9.2310   10.3634 O   0  0  0  0  0  0  0  0  0  0  0  0
    0.3488  -11.0801   10.2673 C   0  0  1  0  0  0  0  0  0  0  0  0
    0.1811  -10.8529    8.8711 O   0  0  0  0  0  0  0  0  0  0  0  0
    0.4310  -12.5576   10.5128 C   0  0  2  0  0  0  0  0  0  0  0  0
    3.1537  -17.8643   11.3708 O   0  0  0  0  0  0  0  0  0  0  0  0
    0.9069  -12.2829   15.8019 N   0  0  0  0  0  0  0  0  0  0  0  0
    1.6733  -11.7059   14.8447 C   0  0  0  0  0  0  0  0  0  0  0  0
    1.4408  -11.8677   13.5313 N   0  0  0  0  0  0  0  0  0  0  0  0
    0.4153  -12.5986   13.0802 C   0  0  0  0  0  0  0  0  0  0  0  0
   -0.4584  -13.2261   14.0602 C   0  0  0  0  0  0  0  0  0  0  0  0
   -0.1839  -13.0571   15.5060 C   0  0  0  0  0  0  0  0  0  0  0  0
   -0.9731  -13.6316   16.4807 N   0  0  0  0  0  0  0  0  0  0  0  0
   -1.3751  -13.8613   13.3659 N   0  0  0  0  0  0  0  0  0  0  0  0
   -1.1255  -13.6924   12.0601 C   0  0  0  0  0  0  0  0  0  0  0  0
   -0.0498  -12.9272   11.8793 N   0  0  0  0  0  0  0  0  0  0  0  0
  2  1  1  6  0  0  0
  2  3  1  0  0  0  0
  2  5  1  0  0  0  0
  3  4  1  0  0  0  0
  3 17  1  0  0  0  0
  5  6  1  0  0  0  0
  7  6  1  1  0  0  0
  7  8  1  0  0  0  0
  7  9  1  0  0  0  0
 10  9  1  1  0  0  0
 10 11  1  0  0  0  0
 10 12  1  0  0  0  0
 11 16  1  0  0  0  0
 12 13  1  6  0  0  0
 12 14  1  0  0  0  0
 14 15  1  6  0  0  0
 14 16  1  0  0  0  0
 16 27  1  1  0  0  0
 18 19  2  0  0  0  0
 18 23  1  0  0  0  0
 19 20  1  0  0  0  0
 20 21  2  0  0  0  0
 21 22  1  0  0  0  0
 21 27  1  0  0  0  0
 22 23  2  0  0  0  0
 22 25  1  0  0  0  0
 23 24  1  0  0  0  0
 25 26  2  0  0  0  0
 26 27  1  0  0  0  0
M  END
>  <CHROM.1>
-159.54366657,60.20892695,-166.60087967,63.13744880,-75.11326022,64.73316586
54.23743699,2.12977771,-13.24426126,11.87437984,-0.00360070,-0.61756885,2.51994448

>  <Name>
ligand

>  <RI>
0

>  <Rbt.Current_Directory>
/home/itssahil/PROJECTS/Mol_Feturizer/Test_systems_manuscript/rnas/4kqy

>  <Rbt.Executable>
rbdock ($Id: //depot/dev/client3/rdock/2013.1/src/exe/rbdock.cxx#4 $)

>  <Rbt.Library>
libRbt.so (2013.1, Build901 2013/11/27)

>  <Rbt.Parameter_File>
/export/apps/rDock/src/rDock_2013.1_src/data/scripts/dock_solv.prm

>  <Rbt.Receptor>
prm/blind_docking_60.prm

>  <SCORE>
-12.7515

>  <SCORE.INTER>
-10.0379

>  <SCORE.INTER.CONST>
1

>  <SCORE.INTER.POLAR>
0

>  <SCORE.INTER.ROT>
7

>  <SCORE.INTER.SOLV>
13.7763

>  <SCORE.INTER.VDW>
-19.5507

>  <SCORE.INTER.norm>
-0.371774

>  <SCORE.INTRA>
-2.71361

>  <SCORE.INTRA.DIHEDRAL>
-6.16644

>  <SCORE.INTRA.DIHEDRAL.0>
10.4103

>  <SCORE.INTRA.POLAR>
0

>  <SCORE.INTRA.POLAR.0>
0

>  <SCORE.INTRA.REPUL>
0

>  <SCORE.INTRA.REPUL.0>
0

>  <SCORE.INTRA.SOLV>
0.462207

>  <SCORE.INTRA.SOLV.lig_0>
-49.5008

>  <SCORE.INTRA.VDW>
0.138509

>  <SCORE.INTRA.VDW.0>
-2.6946

>  <SCORE.INTRA.norm>
-0.100504

>  <SCORE.RESTR>
0

>  <SCORE.RESTR.CAVITY>
0

>  <SCORE.RESTR.norm>
0

>  <SCORE.SYSTEM>
0

>  <SCORE.SYSTEM.CONST>
0

>  <SCORE.SYSTEM.DIHEDRAL>
0

>  <SCORE.SYSTEM.SOLV>
0

>  <SCORE.SYSTEM.norm>
0

>  <SCORE.heavy>
27

>  <SCORE.norm>
-0.472278

>  <RMSD>
10.844

$$$$
ligand
 OpenBabel02271912153D
libRbt.so/2013.1/901 2013/11/27
 27 29  0  0  0  0  0  0  0  0999 V2000
    4.4447  -14.0245   12.1448 N   0  0  0  0  0  0  0  0  0  0  0  0
    4.2415  -15.1899   11.3053 C   0  0  2  0  0  0  0  0  0  0  0  0
    5.2469  -15.1213   10.1973 C   0  0  0  0  0  0  0  0  0  0  0  0
    5.5802  -16.1731    9.6101 O   0  0  0  0  0  0  0  0  0  0  0  0
    2.8210  -15.1969   10.7341 C   0  0  0  0  0  0  0  0  0  0  0  0
    1.7622  -15.3092   11.8535 C   0  0  0  0  0  0  0  0  0  0  0  0
    1.4300  -13.8876   12.6805 S   0  0  2  0  0  0  0  0  0  0  0  0
    0.2729  -14.1795   13.8357 C   0  0  0  0  0  0  0  0  0  0  0  0
    0.9057  -12.7060   11.5953 C   0  0  0  0  0  0  0  0  0  0  0  0
    0.6445  -11.3294   12.2422 C   0  0  1  0  0  0  0  0  0  0  0  0
    1.1620  -10.2334   11.4696 O   0  0  0  0  0  0  0  0  0  0  0  0
   -0.8304  -10.9752   12.3437 C   0  0  1  0  0  0  0  0  0  0  0  0
   -1.6038  -11.6415   13.3618 O   0  0  0  0  0  0  0  0  0  0  0  0
   -0.7428   -9.4800   12.5245 C   0  0  1  0  0  0  0  0  0  0  0  0
   -0.2593   -9.1725   13.8286 O   0  0  0  0  0  0  0  0  0  0  0  0
    0.2990   -9.0947   11.5165 C   0  0  2  0  0  0  0  0  0  0  0  0
    5.7125  -14.0074    9.8572 O   0  0  0  0  0  0  0  0  0  0  0  0
   -3.7564   -9.3375    8.0857 N   0  0  0  0  0  0  0  0  0  0  0  0
   -3.6562   -9.8697    9.3280 C   0  0  0  0  0  0  0  0  0  0  0  0
   -2.5579   -9.7355   10.0902 N   0  0  0  0  0  0  0  0  0  0  0  0
   -1.4908   -9.0433    9.6760 C   0  0  0  0  0  0  0  0  0  0  0  0
   -1.5460   -8.4283    8.3584 C   0  0  0  0  0  0  0  0  0  0  0  0
   -2.7539   -8.5965    7.5176 C   0  0  0  0  0  0  0  0  0  0  0  0
   -2.8623   -8.0419    6.2593 N   0  0  0  0  0  0  0  0  0  0  0  0
   -0.3975   -7.8090    8.2054 N   0  0  0  0  0  0  0  0  0  0  0  0
    0.3525   -8.0087    9.2978 C   0  0  0  0  0  0  0  0  0  0  0  0
   -0.3022   -8.7483   10.1922 N   0  0  0  0  0  0  0  0  0  0  0  0
  2  1  1  1  0  0  0
  2  3  1  0  0  0  0
  2  5  1  0  0  0  0
  3  4  1  0  0  0  0
  3 17  1  0  0  0  0
  5  6  1  0  0  0  0
  7  6  1  6  0  0  0
  7  8  1  0  0  0  0
  7  9  1  0  0  0  0
 10  9  1  6  0  0  0
 10 11  1  0  0  0  0
 10 12  1  0  0  0  0
 11 16  1  0  0  0  0
 12 13  1  1  0  0  0
 12 14  1  0  0  0  0
 14 15  1  1  0  0  0
 14 16  1  0  0  0  0
 16 27  1  6  0  0  0
 18 19  2  0  0  0  0
 18 23  1  0  0  0  0
 19 20  1  0  0  0  0
 20 21  2  0  0  0  0
 21 22  1  0  0  0  0
 21 27  1  0  0  0  0
 22 23  2  0  0  0  0
 22 25  1  0  0  0  0
 23 24  1  0  0  0  0
 25 26  2  0  0  0  0
 26 27  1  0  0  0  0
M  END
>  <CHROM.1>
156.71708630,-63.21820134,78.88177578,179.69257151,-176.84665628,136.31842029
97.47630885,0.56648201,-11.50623877,10.82922959,-0.52297263,0.68857591,-1.17621086

>  <Name>
ligand

>  <RI>
0

>  <Rbt.Current_Directory>
/home/itssahil/PROJECTS/Mol_Feturizer/Test_systems_manuscript/rnas/4kqy

>  <Rbt.Executable>
rbdock ($Id: //depot/dev/client3/rdock/2013.1/src/exe/rbdock.cxx#4 $)

>  <Rbt.Library>
libRbt.so (2013.1, Build901 2013/11/27)

>  <Rbt.Parameter_File>
/export/apps/rDock/src/rDock_2013.1_src/data/scripts/dock_solv.prm

>  <Rbt.Receptor>
prm/blind_docking_40.prm

>  <SCORE>
-14.1287

>  <SCORE.INTER>
-14.1845

>  <SCORE.INTER.CONST>
1

>  <SCORE.INTER.POLAR>
0

>  <SCORE.INTER.ROT>
7

>  <SCORE.INTER.SOLV>
13.096

>  <SCORE.INTER.VDW>
-22.0883

>  <SCORE.INTER.norm>
-0.525352

>  <SCORE.INTRA>
0.0521663

>  <SCORE.INTRA.DIHEDRAL>
-2.15318

>  <SCORE.INTRA.DIHEDRAL.0>
10.4103

>  <SCORE.INTRA.POLAR>
0

>  <SCORE.INTRA.POLAR.0>
0

>  <SCORE.INTRA.REPUL>
0

>  <SCORE.INTRA.REPUL.0>
0

>  <SCORE.INTRA.SOLV>
2.15509

>  <SCORE.INTRA.SOLV.lig_0>
-49.5008

>  <SCORE.INTRA.VDW>
0.0512109

>  <SCORE.INTRA.VDW.0>
-2.6946

>  <SCORE.INTRA.norm>
0.00193209

>  <SCORE.RESTR>
0.00361392

>  <SCORE.RESTR.CAVITY>
0.00361392

>  <SCORE.RESTR.norm>
0.000133849

>  <SCORE.SYSTEM>
0

>  <SCORE.SYSTEM.CONST>
0

>  <SCORE.SYSTEM.DIHEDRAL>
0

>  <SCORE.SYSTEM.SOLV>
0

>  <SCORE.SYSTEM.norm>
0

>  <SCORE.heavy>
27

>  <SCORE.norm>
-0.523286

>  <RMSD>
10.872

$$$$
ligand
 OpenBabel02271912153D
libRbt.so/2013.1/901 2013/11/27
 27 29  0  0  0  0  0  0  0  0999 V2000
    3.8510  -10.3869   10.8092 N   0  0  0  0  0  0  0  0  0  0  0  0
    2.4425  -10.5162   10.4874 C   0  0  2  0  0  0  0  0  0  0  0  0
    2.2841  -10.1777    9.0370 C   0  0  0  0  0  0  0  0  0  0  0  0
    3.1029   -9.4016    8.4990 O   0  0  0  0  0  0  0  0  0  0  0  0
    1.6071   -9.5656   11.3492 C   0  0  0  0  0  0  0  0  0  0  0  0
    0.3303  -10.2562   11.8777 C   0  0  0  0  0  0  0  0  0  0  0  0
   -0.7482  -10.7795   10.7037 S   0  0  2  0  0  0  0  0  0  0  0  0
   -1.2164   -9.4878    9.7704 C   0  0  0  0  0  0  0  0  0  0  0  0
   -2.0853  -11.5008   11.4388 C   0  0  0  0  0  0  0  0  0  0  0  0
   -1.7612  -12.8121   12.1854 C   0  0  1  0  0  0  0  0  0  0  0  0
   -1.2180  -13.8313   11.3299 O   0  0  0  0  0  0  0  0  0  0  0  0
   -0.6681  -12.6622   13.2311 C   0  0  1  0  0  0  0  0  0  0  0  0
   -1.0167  -12.0027   14.4649 O   0  0  0  0  0  0  0  0  0  0  0  0
   -0.2538  -14.1025   13.4050 C   0  0  1  0  0  0  0  0  0  0  0  0
   -1.2621  -14.8197   14.1105 O   0  0  0  0  0  0  0  0  0  0  0  0
   -0.2063  -14.5964   11.9894 C   0  0  2  0  0  0  0  0  0  0  0  0
    1.3530  -10.7027    8.3809 O   0  0  0  0  0  0  0  0  0  0  0  0
    4.5893  -16.5766   10.8246 N   0  0  0  0  0  0  0  0  0  0  0  0
    3.5523  -17.1712   11.4631 C   0  0  0  0  0  0  0  0  0  0  0  0
    2.3878  -16.5441   11.6994 N   0  0  0  0  0  0  0  0  0  0  0  0
    2.1678  -15.2874   11.2969 C   0  0  0  0  0  0  0  0  0  0  0  0
    3.2361  -14.6021   10.5854 C   0  0  0  0  0  0  0  0  0  0  0  0
    4.5231  -15.2950   10.3451 C   0  0  0  0  0  0  0  0  0  0  0  0
    5.5733  -14.6953    9.6816 N   0  0  0  0  0  0  0  0  0  0  0  0
    2.7650  -13.4103   10.2964 N   0  0  0  0  0  0  0  0  0  0  0  0
    1.5209  -13.3053   10.7834 C   0  0  0  0  0  0  0  0  0  0  0  0
    1.1512  -14.4358   11.3840 N   0  0  0  0  0  0  0  0  0  0  0  0
  2  1  1  1  0  0  0
  2  3  1  0  0  0  0
  2  5  1  0  0  0  0
  3  4  1  0  0  0  0
  3 17  1  0  0  0  0
  5  6  1  0  0  0  0
  7  6  1  1  0  0  0
  7  8  1  0  0  0  0
  7  9  1  0  0  0  0
 10  9  1  6  0  0  0
 10 11  1  0  0  0  0
 10 12  1  0  0  0  0
 11 16  1  0  0  0  0
 12 13  1  1  0  0  0
 12 14  1  0  0  0  0
 14 15  1  1  0  0  0
 14 16  1  0  0  0  0
 16 27  1  6  0  0  0
 18 19  2  0  0  0  0
 18 23  1  0  0  0  0
 19 20  1  0  0  0  0
 20 21  2  0  0  0  0
 21 22  1  0  0  0  0
 21 27  1  0  0  0  0
 22 23  2  0  0  0  0
 22 25  1  0  0  0  0
 23 24  1  0  0  0  0
 25 26  2  0  0  0  0
 26 27  1  0  0  0  0
M  END
>  <CHROM.1>
-27.23269155,-137.08271508,-61.96906488,-58.07920692,-66.25264600,-60.28017570
-148.72119958,1.17159905,-12.75227254,11.14797755,-2.33617074,-0.49243056
2.72989380

>  <Name>
ligand

>  <RI>
0

>  <Rbt.Current_Directory>
/home/itssahil/PROJECTS/Mol_Feturizer/Test_systems_manuscript/rnas/4kqy

>  <Rbt.Executable>
rbdock ($Id: //depot/dev/client3/rdock/2013.1/src/exe/rbdock.cxx#4 $)

>  <Rbt.Library>
libRbt.so (2013.1, Build901 2013/11/27)

>  <Rbt.Parameter_File>
/export/apps/rDock/src/rDock_2013.1_src/data/scripts/dock_solv.prm

>  <Rbt.Receptor>
prm/blind_docking_60.prm

>  <SCORE>
-16.2043

>  <SCORE.INTER>
-14.2835

>  <SCORE.INTER.CONST>
1

>  <SCORE.INTER.POLAR>
0

>  <SCORE.INTER.ROT>
7

>  <SCORE.INTER.SOLV>
16.4393

>  <SCORE.INTER.VDW>
-23.2688

>  <SCORE.INTER.norm>
-0.529019

>  <SCORE.INTRA>
-1.92078

>  <SCORE.INTRA.DIHEDRAL>
-2.67208

>  <SCORE.INTRA.DIHEDRAL.0>
10.4103

>  <SCORE.INTRA.POLAR>
0

>  <SCORE.INTRA.POLAR.0>
0

>  <SCORE.INTRA.REPUL>
0

>  <SCORE.INTRA.REPUL.0>
0

>  <SCORE.INTRA.SOLV>
0.624445

>  <SCORE.INTRA.SOLV.lig_0>
-49.5008

>  <SCORE.INTRA.VDW>
-0.896959

>  <SCORE.INTRA.VDW.0>
-2.6946

>  <SCORE.INTRA.norm>
-0.0711399

>  <SCORE.RESTR>
0

>  <SCORE.RESTR.CAVITY>
0

>  <SCORE.RESTR.norm>
0

>  <SCORE.SYSTEM>
0

>  <SCORE.SYSTEM.CONST>
0

>  <SCORE.SYSTEM.DIHEDRAL>
0

>  <SCORE.SYSTEM.SOLV>
0

>  <SCORE.SYSTEM.norm>
0

>  <SCORE.heavy>
27

>  <SCORE.norm>
-0.600159

>  <RMSD>
10.955

$$$$
ligand
 OpenBabel02271912153D
libRbt.so/2013.1/901 2013/11/27
 27 29  0  0  0  0  0  0  0  0999 V2000
    6.3201  -10.5071    8.4431 N   0  0  0  0  0  0  0  0  0  0  0  0
    5.0618  -10.0666    7.8713 C   0  0  2  0  0  0  0  0  0  0  0  0
    5.3331   -8.7992    7.1208 C   0  0  0  0  0  0  0  0  0  0  0  0
    6.0810   -7.9370    7.6302 O   0  0  0  0  0  0  0  0  0  0  0  0
    4.0296   -9.8201    8.9749 C   0  0  0  0  0  0  0  0  0  0  0  0
    3.5615  -11.1448    9.6173 C   0  0  0  0  0  0  0  0  0  0  0  0
    2.3449  -11.0026   10.7640 S   0  0  2  0  0  0  0  0  0  0  0  0
    3.0242  -10.8389   12.2708 C   0  0  0  0  0  0  0  0  0  0  0  0
    1.3440  -12.3602   10.7045 C   0  0  0  0  0  0  0  0  0  0  0  0
    0.1561  -12.3095   11.6884 C   0  0  1  0  0  0  0  0  0  0  0  0
   -0.4138  -10.9967   11.8207 O   0  0  0  0  0  0  0  0  0  0  0  0
   -1.0420  -13.1297   11.2381 C   0  0  1  0  0  0  0  0  0  0  0  0
   -0.9501  -14.5629   11.3655 O   0  0  0  0  0  0  0  0  0  0  0  0
   -2.1312  -12.5110   12.0789 C   0  0  1  0  0  0  0  0  0  0  0  0
   -1.9806  -12.9029   13.4400 O   0  0  0  0  0  0  0  0  0  0  0  0
   -1.8358  -11.0451   11.9597 C   0  0  2  0  0  0  0  0  0  0  0  0
    4.8314   -8.6389    5.9825 O   0  0  0  0  0  0  0  0  0  0  0  0
   -1.8262   -8.0690    7.5530 N   0  0  0  0  0  0  0  0  0  0  0  0
   -0.7879   -8.4126    8.3533 C   0  0  0  0  0  0  0  0  0  0  0  0
   -0.9365   -9.1725    9.4514 N   0  0  0  0  0  0  0  0  0  0  0  0
   -2.1271   -9.6608    9.8167 C   0  0  0  0  0  0  0  0  0  0  0  0
   -3.2783   -9.3453    8.9845 C   0  0  0  0  0  0  0  0  0  0  0  0
   -3.1082   -8.4920    7.7857 C   0  0  0  0  0  0  0  0  0  0  0  0
   -4.1623   -8.1549    6.9622 N   0  0  0  0  0  0  0  0  0  0  0  0
   -4.3013   -9.9474    9.5475 N   0  0  0  0  0  0  0  0  0  0  0  0
   -3.8793  -10.5799   10.6511 C   0  0  0  0  0  0  0  0  0  0  0  0
   -2.5675  -10.4162   10.8177 N   0  0  0  0  0  0  0  0  0  0  0  0
  2  1  1  1  0  0  0
  2  3  1  0  0  0  0
  2  5  1  0  0  0  0
  3  4  1  0  0  0  0
  3 17  1  0  0  0  0
  5  6  1  0  0  0  0
  7  6  1  6  0  0  0
  7  8  1  0  0  0  0
  7  9  1  0  0  0  0
 10  9  1  6  0  0  0
 10 11  1  0  0  0  0
 10 12  1  0  0  0  0
 11 16  1  0  0  0  0
 12 13  1  1  0  0  0
 12 14  1  0  0  0  0
 14 15  1  1  0  0  0
 14 16  1  0  0  0  0
 16 27  1  6  0  0  0
 18 19  2  0  0  0  0
 18 23  1  0  0  0  0
 19 20  1  0  0  0  0
 20 21  2  0  0  0  0
 21 22  1  0  0  0  0
 21 27  1  0  0  0  0
 22 23  2  0  0  0  0
 22 25  1  0  0  0  0
 23 24  1  0  0  0  0
 25 26  2  0  0  0  0
 26 27  1  0  0  0  0
M  END
>  <CHROM.1>
-42.41324635,-70.61679128,-175.69219005,-91.73448160,-177.92846683,37.78735588
-11.29443681,0.43763009,-10.46397919,9.81254965,-0.33410677,-0.08145468,2.31591382

>  <Name>
ligand

>  <RI>
0

>  <Rbt.Current_Directory>
/home/itssahil/PROJECTS/Mol_Feturizer/Test_systems_manuscript/rnas/4kqy

>  <Rbt.Executable>
rbdock ($Id: //depot/dev/client3/rdock/2013.1/src/exe/rbdock.cxx#4 $)

>  <Rbt.Library>
libRbt.so (2013.1, Build901 2013/11/27)

>  <Rbt.Parameter_File>
/export/apps/rDock/src/rDock_2013.1_src/data/scripts/dock_solv.prm

>  <Rbt.Receptor>
prm/blind_docking_20.prm

>  <SCORE>
-17.4889

>  <SCORE.INTER>
-16.0378

>  <SCORE.INTER.CONST>
1

>  <SCORE.INTER.POLAR>
0

>  <SCORE.INTER.ROT>
7

>  <SCORE.INTER.SOLV>
17.2604

>  <SCORE.INTER.VDW>
-24.712

>  <SCORE.INTER.norm>
-0.593992

>  <SCORE.INTRA>
-1.45108

>  <SCORE.INTRA.DIHEDRAL>
-2.87388

>  <SCORE.INTRA.DIHEDRAL.0>
10.4103

>  <SCORE.INTRA.POLAR>
0

>  <SCORE.INTRA.POLAR.0>
0

>  <SCORE.INTRA.REPUL>
0

>  <SCORE.INTRA.REPUL.0>
0

>  <SCORE.INTRA.SOLV>
0.0218377

>  <SCORE.INTRA.SOLV.lig_0>
-49.5008

>  <SCORE.INTRA.VDW>
-0.025061

>  <SCORE.INTRA.VDW.0>
-2.6946

>  <SCORE.INTRA.norm>
-0.0537438

>  <SCORE.RESTR>
0

>  <SCORE.RESTR.CAVITY>
0

>  <SCORE.RESTR.norm>
0

>  <SCORE.SYSTEM>
0

>  <SCORE.SYSTEM.CONST>
0

>  <SCORE.SYSTEM.DIHEDRAL>
0

>  <SCORE.SYSTEM.SOLV>
0

>  <SCORE.SYSTEM.norm>
0

>  <SCORE.heavy>
27

>  <SCORE.norm>
-0.647736

>  <RMSD>
10.979

$$$$
ligand
 OpenBabel02271912153D
libRbt.so/2013.1/901 2013/11/27
 27 29  0  0  0  0  0  0  0  0999 V2000
    2.9613  -17.2241   11.7288 N   0  0  0  0  0  0  0  0  0  0  0  0
    3.4954  -16.6184   10.5238 C   0  0  2  0  0  0  0  0  0  0  0  0
    4.6917  -17.4213   10.1144 C   0  0  0  0  0  0  0  0  0  0  0  0
    4.8430  -18.5711   10.5804 O   0  0  0  0  0  0  0  0  0  0  0  0
    3.8963  -15.1645   10.7879 C   0  0  0  0  0  0  0  0  0  0  0  0
    2.6569  -14.2609   10.9720 C   0  0  0  0  0  0  0  0  0  0  0  0
    2.9788  -12.6652   11.3784 S   0  0  2  0  0  0  0  0  0  0  0  0
    3.3130  -12.5667   13.0024 C   0  0  0  0  0  0  0  0  0  0  0  0
    1.6542  -11.6975   10.9817 C   0  0  0  0  0  0  0  0  0  0  0  0
    0.4107  -11.9415   11.8627 C   0  0  1  0  0  0  0  0  0  0  0  0
   -0.3851  -10.7607   12.0582 O   0  0  0  0  0  0  0  0  0  0  0  0
   -0.5939  -12.9003   11.2444 C   0  0  1  0  0  0  0  0  0  0  0  0
   -0.2648  -14.3039   11.2560 O   0  0  0  0  0  0  0  0  0  0  0  0
   -1.8287  -12.5564   12.0402 C   0  0  1  0  0  0  0  0  0  0  0  0
   -1.7064  -13.0503   13.3706 O   0  0  0  0  0  0  0  0  0  0  0  0
   -1.7835  -11.0574   12.0721 C   0  0  2  0  0  0  0  0  0  0  0  0
    5.5028  -16.9390    9.2882 O   0  0  0  0  0  0  0  0  0  0  0  0
   -1.8292   -8.2393    7.5629 N   0  0  0  0  0  0  0  0  0  0  0  0
   -0.7765   -8.5833    8.3439 C   0  0  0  0  0  0  0  0  0  0  0  0
   -0.9117   -9.2998    9.4725 N   0  0  0  0  0  0  0  0  0  0  0  0
   -2.1031   -9.7416    9.8903 C   0  0  0  0  0  0  0  0  0  0  0  0
   -3.2705   -9.4236    9.0818 C   0  0  0  0  0  0  0  0  0  0  0  0
   -3.1144   -8.6180    7.8486 C   0  0  0  0  0  0  0  0  0  0  0  0
   -4.1838   -8.2808    7.0452 N   0  0  0  0  0  0  0  0  0  0  0  0
   -4.2914   -9.9769    9.6963 N   0  0  0  0  0  0  0  0  0  0  0  0
   -3.8529  -10.5816   10.8089 C   0  0  0  0  0  0  0  0  0  0  0  0
   -2.5327  -10.4488   10.9304 N   0  0  0  0  0  0  0  0  0  0  0  0
  2  1  1  1  0  0  0
  2  3  1  0  0  0  0
  2  5  1  0  0  0  0
  3  4  1  0  0  0  0
  3 17  1  0  0  0  0
  5  6  1  0  0  0  0
  7  6  1  1  0  0  0
  7  8  1  0  0  0  0
  7  9  1  0  0  0  0
 10  9  1  6  0  0  0
 10 11  1  0  0  0  0
 10 12  1  0  0  0  0
 11 16  1  0  0  0  0
 12 13  1  1  0  0  0
 12 14  1  0  0  0  0
 14 15  1  1  0  0  0
 14 16  1  0  0  0  0
 16 27  1  6  0  0  0
 18 19  2  0  0  0  0
 18 23  1  0  0  0  0
 19 20  1  0  0  0  0
 20 21  2  0  0  0  0
 21 22  1  0  0  0  0
 21 27  1  0  0  0  0
 22 23  2  0  0  0  0
 22 25  1  0  0  0  0
 23 24  1  0  0  0  0
 25 26  2  0  0  0  0
 26 27  1  0  0  0  0
M  END
>  <CHROM.1>
17.61303982,-71.39939150,175.72099093,-79.62211204,69.26641047,148.16405924
3.54065765,0.33829086,-12.44733185,10.60594471,0.55017892,-0.61476251,2.16918980

>  <Name>
ligand

>  <RI>
0

>  <Rbt.Current_Directory>
/home/itssahil/PROJECTS/Mol_Feturizer/Test_systems_manuscript/rnas/4kqy

>  <Rbt.Executable>
rbdock ($Id: //depot/dev/client3/rdock/2013.1/src/exe/rbdock.cxx#4 $)

>  <Rbt.Library>
libRbt.so (2013.1, Build901 2013/11/27)

>  <Rbt.Parameter_File>
/export/apps/rDock/src/rDock_2013.1_src/data/scripts/dock_solv.prm

>  <Rbt.Receptor>
prm/blind_docking_40.prm

>  <SCORE>
-14.8003

>  <SCORE.INTER>
-14.1052

>  <SCORE.INTER.CONST>
1

>  <SCORE.INTER.POLAR>
0

>  <SCORE.INTER.ROT>
7

>  <SCORE.INTER.SOLV>
21.5342

>  <SCORE.INTER.VDW>
-24.8482

>  <SCORE.INTER.norm>
-0.522415

>  <SCORE.INTRA>
-0.695117

>  <SCORE.INTRA.DIHEDRAL>
-2.88383

>  <SCORE.INTRA.DIHEDRAL.0>
10.4103

>  <SCORE.INTRA.POLAR>
0

>  <SCORE.INTRA.POLAR.0>
0

>  <SCORE.INTRA.REPUL>
0

>  <SCORE.INTRA.REPUL.0>
0

>  <SCORE.INTRA.SOLV>
0.386149

>  <SCORE.INTRA.SOLV.lig_0>
-49.5008

>  <SCORE.INTRA.VDW>
0.553726

>  <SCORE.INTRA.VDW.0>
-2.6946

>  <SCORE.INTRA.norm>
-0.0257451

>  <SCORE.RESTR>
0

>  <SCORE.RESTR.CAVITY>
0

>  <SCORE.RESTR.norm>
0

>  <SCORE.SYSTEM>
0

>  <SCORE.SYSTEM.CONST>
0

>  <SCORE.SYSTEM.DIHEDRAL>
0

>  <SCORE.SYSTEM.SOLV>
0

>  <SCORE.SYSTEM.norm>
0

>  <SCORE.heavy>
27

>  <SCORE.norm>
-0.54816

>  <RMSD>
11.067

$$$$
ligand
 OpenBabel02271912153D
libRbt.so/2013.1/901 2013/11/27
 27 29  0  0  0  0  0  0  0  0999 V2000
    4.2517   -8.7578    7.1889 N   0  0  0  0  0  0  0  0  0  0  0  0
    4.9196   -9.5213    8.2259 C   0  0  2  0  0  0  0  0  0  0  0  0
    5.7098  -10.5976    7.5474 C   0  0  0  0  0  0  0  0  0  0  0  0
    5.2198  -11.1818    6.5570 O   0  0  0  0  0  0  0  0  0  0  0  0
    3.8942  -10.1372    9.1816 C   0  0  0  0  0  0  0  0  0  0  0  0
    4.5828  -10.8552   10.3634 C   0  0  0  0  0  0  0  0  0  0  0  0
    3.5992  -11.8739   11.2634 S   0  0  2  0  0  0  0  0  0  0  0  0
    2.7516  -10.9794   12.3770 C   0  0  0  0  0  0  0  0  0  0  0  0
    4.5418  -13.0449   12.0308 C   0  0  0  0  0  0  0  0  0  0  0  0
    3.8121  -14.3842   12.2667 C   0  0  1  0  0  0  0  0  0  0  0  0
    2.7775  -14.2978   13.2608 O   0  0  0  0  0  0  0  0  0  0  0  0
    3.0427  -14.8795   11.0528 C   0  0  1  0  0  0  0  0  0  0  0  0
    3.8068  -15.4446    9.9686 O   0  0  0  0  0  0  0  0  0  0  0  0
    2.0961  -15.8560   11.7061 C   0  0  1  0  0  0  0  0  0  0  0  0
    2.8041  -17.0202   12.1212 O   0  0  0  0  0  0  0  0  0  0  0  0
    1.6452  -15.1020   12.9220 C   0  0  2  0  0  0  0  0  0  0  0  0
    6.8604  -10.8718    7.9646 O   0  0  0  0  0  0  0  0  0  0  0  0
   -0.9638  -11.4101   10.1221 N   0  0  0  0  0  0  0  0  0  0  0  0
    0.3067  -11.8567    9.9707 C   0  0  0  0  0  0  0  0  0  0  0  0
    0.8457  -12.7989   10.7625 N   0  0  0  0  0  0  0  0  0  0  0  0
    0.1490  -13.3772   11.7472 C   0  0  0  0  0  0  0  0  0  0  0  0
   -1.2295  -12.9561   11.9460 C   0  0  0  0  0  0  0  0  0  0  0  0
   -1.8099  -11.9038   11.0798 C   0  0  0  0  0  0  0  0  0  0  0  0
   -3.1080  -11.4601   11.2238 N   0  0  0  0  0  0  0  0  0  0  0  0
   -1.6815  -13.6757   12.9479 N   0  0  0  0  0  0  0  0  0  0  0  0
   -0.7000  -14.4769   13.3846 C   0  0  0  0  0  0  0  0  0  0  0  0
    0.4064  -14.3066   12.6618 N   0  0  0  0  0  0  0  0  0  0  0  0
  2  1  1  6  0  0  0
  2  3  1  0  0  0  0
  2  5  1  0  0  0  0
  3  4  1  0  0  0  0
  3 17  1  0  0  0  0
  5  6  1  0  0  0  0
  7  6  1  1  0  0  0
  7  8  1  0  0  0  0
  7  9  1  0  0  0  0
 10  9  1  6  0  0  0
 10 11  1  0  0  0  0
 10 12  1  0  0  0  0
 11 16  1  0  0  0  0
 12 13  1  6  0  0  0
 12 14  1  0  0  0  0
 14 15  1  1  0  0  0
 14 16  1  0  0  0  0
 16 27  1  6  0  0  0
 18 19  2  0  0  0  0
 18 23  1  0  0  0  0
 19 20  1  0  0  0  0
 20 21  2  0  0  0  0
 21 22  1  0  0  0  0
 21 27  1  0  0  0  0
 22 23  2  0  0  0  0
 22 25  1  0  0  0  0
 23 24  1  0  0  0  0
 25 26  2  0  0  0  0
 26 27  1  0  0  0  0
M  END
>  <CHROM.1>
-39.17760744,-175.16554352,-165.76039577,-82.71149619,-150.54185053,-69.80681948
61.03592841,2.33240698,-12.67824699,10.80327462,0.74530127,0.25723313,-0.59926043

>  <Name>
ligand

>  <RI>
0

>  <Rbt.Current_Directory>
/home/itssahil/PROJECTS/Mol_Feturizer/Test_systems_manuscript/rnas/4kqy

>  <Rbt.Executable>
rbdock ($Id: //depot/dev/client3/rdock/2013.1/src/exe/rbdock.cxx#4 $)

>  <Rbt.Library>
libRbt.so (2013.1, Build901 2013/11/27)

>  <Rbt.Parameter_File>
/export/apps/rDock/src/rDock_2013.1_src/data/scripts/dock_solv.prm

>  <Rbt.Receptor>
prm/blind_docking_100.prm

>  <SCORE>
-12.9295

>  <SCORE.INTER>
-9.96394

>  <SCORE.INTER.CONST>
1

>  <SCORE.INTER.POLAR>
0

>  <SCORE.INTER.ROT>
7

>  <SCORE.INTER.SOLV>
18.8863

>  <SCORE.INTER.VDW>
-21.2047

>  <SCORE.INTER.norm>
-0.369035

>  <SCORE.INTRA>
-2.97514

>  <SCORE.INTRA.DIHEDRAL>
-2.62872

>  <SCORE.INTRA.DIHEDRAL.0>
10.4103

>  <SCORE.INTRA.POLAR>
0

>  <SCORE.INTRA.POLAR.0>
0

>  <SCORE.INTRA.REPUL>
0

>  <SCORE.INTRA.REPUL.0>
0

>  <SCORE.INTRA.SOLV>
-0.337307

>  <SCORE.INTRA.SOLV.lig_0>
-49.5008

>  <SCORE.INTRA.VDW>
-1.49213

>  <SCORE.INTRA.VDW.0>
-2.6946

>  <SCORE.INTRA.norm>
-0.11019

>  <SCORE.RESTR>
0.00962118

>  <SCORE.RESTR.CAVITY>
0.00962118

>  <SCORE.RESTR.norm>
0.00035634

>  <SCORE.SYSTEM>
0

>  <SCORE.SYSTEM.CONST>
0

>  <SCORE.SYSTEM.DIHEDRAL>
0

>  <SCORE.SYSTEM.SOLV>
0

>  <SCORE.SYSTEM.norm>
0

>  <SCORE.heavy>
27

>  <SCORE.norm>
-0.478869

>  <RMSD>
11.136

$$$$
ligand
 OpenBabel02271912153D
libRbt.so/2013.1/901 2013/11/27
 27 29  0  0  0  0  0  0  0  0999 V2000
    2.8151   -9.9213    8.4706 N   0  0  0  0  0  0  0  0  0  0  0  0
    4.1981   -9.8404    8.0405 C   0  0  2  0  0  0  0  0  0  0  0  0
    4.1954   -9.7585    6.5451 C   0  0  0  0  0  0  0  0  0  0  0  0
    3.4108  -10.4833    5.8960 O   0  0  0  0  0  0  0  0  0  0  0  0
    4.9756  -11.0754    8.5037 C   0  0  0  0  0  0  0  0  0  0  0  0
    4.9937  -11.1871   10.0444 C   0  0  0  0  0  0  0  0  0  0  0  0
    5.6825  -12.5876   10.6603 S   0  0  2  0  0  0  0  0  0  0  0  0
    7.2719  -12.6748   10.1859 C   0  0  0  0  0  0  0  0  0  0  0  0
    4.8220  -13.9333   10.1153 C   0  0  0  0  0  0  0  0  0  0  0  0
    4.6641  -15.0484   11.1705 C   0  0  1  0  0  0  0  0  0  0  0  0
    4.4687  -14.5442   12.5022 O   0  0  0  0  0  0  0  0  0  0  0  0
    3.4225  -15.9027   10.9713 C   0  0  1  0  0  0  0  0  0  0  0  0
    3.4468  -16.8683    9.9010 O   0  0  0  0  0  0  0  0  0  0  0  0
    3.2868  -16.5157   12.3432 C   0  0  1  0  0  0  0  0  0  0  0  0
    4.3053  -17.4907   12.5461 O   0  0  0  0  0  0  0  0  0  0  0  0
    3.5472  -15.3458   13.2452 C   0  0  2  0  0  0  0  0  0  0  0  0
    4.9568   -8.9428    5.9723 O   0  0  0  0  0  0  0  0  0  0  0  0
    0.9390  -10.8117   14.2018 N   0  0  0  0  0  0  0  0  0  0  0  0
    2.2383  -10.9938   13.8622 C   0  0  0  0  0  0  0  0  0  0  0  0
    2.7724  -12.2092   13.6553 N   0  0  0  0  0  0  0  0  0  0  0  0
    2.0437  -13.3268   13.7516 C   0  0  0  0  0  0  0  0  0  0  0  0
    0.6350  -13.1954   14.0916 C   0  0  0  0  0  0  0  0  0  0  0  0
    0.0588  -11.8528   14.3357 C   0  0  0  0  0  0  0  0  0  0  0  0
   -1.2674  -11.6660   14.6662 N   0  0  0  0  0  0  0  0  0  0  0  0
    0.1563  -14.4188   14.1077 N   0  0  0  0  0  0  0  0  0  0  0  0
    1.1474  -15.2766   13.8288 C   0  0  0  0  0  0  0  0  0  0  0  0
    2.2884  -14.6251   13.6074 N   0  0  0  0  0  0  0  0  0  0  0  0
  2  1  1  6  0  0  0
  2  3  1  0  0  0  0
  2  5  1  0  0  0  0
  3  4  1  0  0  0  0
  3 17  1  0  0  0  0
  5  6  1  0  0  0  0
  7  6  1  6  0  0  0
  7  8  1  0  0  0  0
  7  9  1  0  0  0  0
 10  9  1  6  0  0  0
 10 11  1  0  0  0  0
 10 12  1  0  0  0  0
 11 16  1  0  0  0  0
 12 13  1  6  0  0  0
 12 14  1  0  0  0  0
 14 15  1  6  0  0  0
 14 16  1  0  0  0  0
 16 27  1  6  0  0  0
 18 19  2  0  0  0  0
 18 23  1  0  0  0  0
 19 20  1  0  0  0  0
 20 21  2  0  0  0  0
 21 22  1  0  0  0  0
 21 27  1  0  0  0  0
 22 23  2  0  0  0  0
 22 25  1  0  0  0  0
 23 24  1  0  0  0  0
 25 26  2  0  0  0  0
 26 27  1  0  0  0  0
M  END
>  <CHROM.1>
-41.72751000,-61.47281439,173.94591983,60.97715916,-141.68988726,37.02837917
-24.53880043,3.35354489,-12.97789004,11.25171652,0.98578701,0.79326886,-0.57788003

>  <Name>
ligand

>  <RI>
0

>  <Rbt.Current_Directory>
/home/itssahil/PROJECTS/Mol_Feturizer/Test_systems_manuscript/rnas/4kqy

>  <Rbt.Executable>
rbdock ($Id: //depot/dev/client3/rdock/2013.1/src/exe/rbdock.cxx#4 $)

>  <Rbt.Library>
libRbt.so (2013.1, Build901 2013/11/27)

>  <Rbt.Parameter_File>
/export/apps/rDock/src/rDock_2013.1_src/data/scripts/dock_solv.prm

>  <Rbt.Receptor>
prm/blind_docking_40.prm

>  <SCORE>
-14.2031

>  <SCORE.INTER>
-13.9718

>  <SCORE.INTER.CONST>
1

>  <SCORE.INTER.POLAR>
0

>  <SCORE.INTER.ROT>
7

>  <SCORE.INTER.SOLV>
10.6287

>  <SCORE.INTER.VDW>
-21.1241

>  <SCORE.INTER.norm>
-0.517474

>  <SCORE.INTRA>
-0.485533

>  <SCORE.INTRA.DIHEDRAL>
-2.48632

>  <SCORE.INTRA.DIHEDRAL.0>
10.4103

>  <SCORE.INTRA.POLAR>
0

>  <SCORE.INTRA.POLAR.0>
0

>  <SCORE.INTRA.REPUL>
0

>  <SCORE.INTRA.REPUL.0>
0

>  <SCORE.INTRA.SOLV>
0.14897

>  <SCORE.INTRA.SOLV.lig_0>
-49.5008

>  <SCORE.INTRA.VDW>
0.683141

>  <SCORE.INTRA.VDW.0>
-2.6946

>  <SCORE.INTRA.norm>
-0.0179827

>  <SCORE.RESTR>
0.254243

>  <SCORE.RESTR.CAVITY>
0.254243

>  <SCORE.RESTR.norm>
0.00941642

>  <SCORE.SYSTEM>
0

>  <SCORE.SYSTEM.CONST>
0

>  <SCORE.SYSTEM.DIHEDRAL>
0

>  <SCORE.SYSTEM.SOLV>
0

>  <SCORE.SYSTEM.norm>
0

>  <SCORE.heavy>
27

>  <SCORE.norm>
-0.52604

>  <RMSD>
11.188

$$$$
ligand
 OpenBabel02271912153D
libRbt.so/2013.1/901 2013/11/27
 27 29  0  0  0  0  0  0  0  0999 V2000
    2.6602  -14.1835   12.7089 N   0  0  0  0  0  0  0  0  0  0  0  0
    1.5670  -13.7296   13.5473 C   0  0  2  0  0  0  0  0  0  0  0  0
    0.3906  -14.6113   13.2612 C   0  0  0  0  0  0  0  0  0  0  0  0
    0.2377  -15.0693   12.1083 O   0  0  0  0  0  0  0  0  0  0  0  0
    1.2249  -12.2698   13.2369 C   0  0  0  0  0  0  0  0  0  0  0  0
    0.1701  -11.7151   14.2198 C   0  0  0  0  0  0  0  0  0  0  0  0
   -0.4207  -10.1864   13.8602 S   0  0  2  0  0  0  0  0  0  0  0  0
   -1.4428   -9.6914   15.0723 C   0  0  0  0  0  0  0  0  0  0  0  0
   -1.2257  -10.2207   12.3772 C   0  0  0  0  0  0  0  0  0  0  0  0
   -0.2982  -10.4388   11.1631 C   0  0  1  0  0  0  0  0  0  0  0  0
   -0.9895  -10.3780    9.9044 O   0  0  0  0  0  0  0  0  0  0  0  0
    0.7531   -9.3532   10.9983 C   0  0  1  0  0  0  0  0  0  0  0  0
    1.8742   -9.3728   11.9048 O   0  0  0  0  0  0  0  0  0  0  0  0
    1.1339   -9.5555    9.5525 C   0  0  1  0  0  0  0  0  0  0  0  0
    1.8962  -10.7503    9.4101 O   0  0  0  0  0  0  0  0  0  0  0  0
   -0.1996   -9.7482    8.8930 C   0  0  2  0  0  0  0  0  0  0  0  0
   -0.4020  -14.9000   14.1894 O   0  0  0  0  0  0  0  0  0  0  0  0
    0.2816   -4.5311    7.9841 N   0  0  0  0  0  0  0  0  0  0  0  0
    1.1878   -5.3942    8.5042 C   0  0  0  0  0  0  0  0  0  0  0  0
    0.9272   -6.6995    8.6873 N   0  0  0  0  0  0  0  0  0  0  0  0
   -0.2476   -7.2401    8.3450 C   0  0  0  0  0  0  0  0  0  0  0  0
   -1.2551   -6.3683    7.7600 C   0  0  0  0  0  0  0  0  0  0  0  0
   -0.9655   -4.9270    7.5784 C   0  0  0  0  0  0  0  0  0  0  0  0
   -1.8822   -4.0513    7.0346 N   0  0  0  0  0  0  0  0  0  0  0  0
   -2.2895   -7.1378    7.5074 N   0  0  0  0  0  0  0  0  0  0  0  0
   -2.0082   -8.3871    7.9027 C   0  0  0  0  0  0  0  0  0  0  0  0
   -0.7759   -8.4581    8.4045 N   0  0  0  0  0  0  0  0  0  0  0  0
  2  1  1  6  0  0  0
  2  3  1  0  0  0  0
  2  5  1  0  0  0  0
  3  4  1  0  0  0  0
  3 17  1  0  0  0  0
  5  6  1  0  0  0  0
  7  6  1  1  0  0  0
  7  8  1  0  0  0  0
  7  9  1  0  0  0  0
 10  9  1  1  0  0  0
 10 11  1  0  0  0  0
 10 12  1  0  0  0  0
 11 16  1  0  0  0  0
 12 13  1  1  0  0  0
 12 14  1  0  0  0  0
 14 15  1  1  0  0  0
 14 16  1  0  0  0  0
 16 27  1  1  0  0  0
 18 19  2  0  0  0  0
 18 23  1  0  0  0  0
 19 20  1  0  0  0  0
 20 21  2  0  0  0  0
 21 22  1  0  0  0  0
 21 27  1  0  0  0  0
 22 23  2  0  0  0  0
 22 25  1  0  0  0  0
 23 24  1  0  0  0  0
 25 26  2  0  0  0  0
 26 27  1  0  0  0  0
M  END
>  <CHROM.1>
-32.77599834,-173.78614278,-172.75173418,-175.41782883,-68.90509930,-176.18221130
124.64427195,-0.00606747,-9.73969329,10.83248019,-1.25074406,1.14629800,-0.95326693

>  <Name>
ligand

>  <RI>
0

>  <Rbt.Current_Directory>
/home/itssahil/PROJECTS/Mol_Feturizer/Test_systems_manuscript/rnas/4kqy

>  <Rbt.Executable>
rbdock ($Id: //depot/dev/client3/rdock/2013.1/src/exe/rbdock.cxx#4 $)

>  <Rbt.Library>
libRbt.so (2013.1, Build901 2013/11/27)

>  <Rbt.Parameter_File>
/export/apps/rDock/src/rDock_2013.1_src/data/scripts/dock_solv.prm

>  <Rbt.Receptor>
prm/blind_docking_80.prm

>  <SCORE>
-18.5101

>  <SCORE.INTER>
-14.9646

>  <SCORE.INTER.CONST>
1

>  <SCORE.INTER.POLAR>
0

>  <SCORE.INTER.ROT>
7

>  <SCORE.INTER.SOLV>
12.9676

>  <SCORE.INTER.VDW>
-22.5656

>  <SCORE.INTER.norm>
-0.554245

>  <SCORE.INTRA>
-3.5742

>  <SCORE.INTRA.DIHEDRAL>
-6.92209

>  <SCORE.INTRA.DIHEDRAL.0>
10.4103

>  <SCORE.INTRA.POLAR>
0

>  <SCORE.INTRA.POLAR.0>
0

>  <SCORE.INTRA.REPUL>
0

>  <SCORE.INTRA.REPUL.0>
0

>  <SCORE.INTRA.SOLV>
-0.0839396

>  <SCORE.INTRA.SOLV.lig_0>
-49.5008

>  <SCORE.INTRA.VDW>
-0.0711841

>  <SCORE.INTRA.VDW.0>
-2.6946

>  <SCORE.INTRA.norm>
-0.132378

>  <SCORE.RESTR>
0.0287045

>  <SCORE.RESTR.CAVITY>
0.0287045

>  <SCORE.RESTR.norm>
0.00106313

>  <SCORE.SYSTEM>
0

>  <SCORE.SYSTEM.CONST>
0

>  <SCORE.SYSTEM.DIHEDRAL>
0

>  <SCORE.SYSTEM.SOLV>
0

>  <SCORE.SYSTEM.norm>
0

>  <SCORE.heavy>
27

>  <SCORE.norm>
-0.68556

>  <RMSD>
11.247

$$$$
ligand
 OpenBabel02271912153D
libRbt.so/2013.1/901 2013/11/27
 27 29  0  0  0  0  0  0  0  0999 V2000
   -0.6771  -12.9626   16.7223 N   0  0  0  0  0  0  0  0  0  0  0  0
   -0.4008  -13.1246   15.3075 C   0  0  2  0  0  0  0  0  0  0  0  0
    1.0762  -12.9611   15.1206 C   0  0  0  0  0  0  0  0  0  0  0  0
    1.6906  -13.7640   14.3856 O   0  0  0  0  0  0  0  0  0  0  0  0
   -1.1592  -12.0751   14.4905 C   0  0  0  0  0  0  0  0  0  0  0  0
   -0.8851  -12.2297   12.9780 C   0  0  0  0  0  0  0  0  0  0  0  0
   -1.6912  -11.1463   11.9821 S   0  0  2  0  0  0  0  0  0  0  0  0
   -3.3183  -11.4786   12.0093 C   0  0  0  0  0  0  0  0  0  0  0  0
   -1.0852  -11.2571   10.4108 C   0  0  0  0  0  0  0  0  0  0  0  0
    0.2601  -10.5300   10.2028 C   0  0  1  0  0  0  0  0  0  0  0  0
    1.2666  -10.9191   11.1522 O   0  0  0  0  0  0  0  0  0  0  0  0
    0.9309  -10.8592    8.8790 C   0  0  1  0  0  0  0  0  0  0  0  0
    0.3805  -10.2589    7.6893 O   0  0  0  0  0  0  0  0  0  0  0  0
    2.3485  -10.4367    9.1759 C   0  0  1  0  0  0  0  0  0  0  0  0
    2.4356   -9.0157    9.2231 O   0  0  0  0  0  0  0  0  0  0  0  0
    2.5644  -10.9831   10.5561 C   0  0  2  0  0  0  0  0  0  0  0  0
    1.6647  -12.0043   15.6786 O   0  0  0  0  0  0  0  0  0  0  0  0
    2.1361  -16.1817   11.5891 N   0  0  0  0  0  0  0  0  0  0  0  0
    1.2400  -15.1901   11.8135 C   0  0  0  0  0  0  0  0  0  0  0  0
    1.4851  -13.9052   11.5065 N   0  0  0  0  0  0  0  0  0  0  0  0
    2.6322  -13.5219   10.9349 C   0  0  0  0  0  0  0  0  0  0  0  0
    3.6265  -14.5447   10.6479 C   0  0  0  0  0  0  0  0  0  0  0  0
    3.3551  -15.9562   11.0061 C   0  0  0  0  0  0  0  0  0  0  0  0
    4.2607  -16.9680   10.7636 N   0  0  0  0  0  0  0  0  0  0  0  0
    4.6335  -13.9155   10.0857 N   0  0  0  0  0  0  0  0  0  0  0  0
    4.3486  -12.6075   10.0243 C   0  0  0  0  0  0  0  0  0  0  0  0
    3.1404  -12.3625   10.5300 N   0  0  0  0  0  0  0  0  0  0  0  0
  2  1  1  1  0  0  0
  2  3  1  0  0  0  0
  2  5  1  0  0  0  0
  3  4  1  0  0  0  0
  3 17  1  0  0  0  0
  5  6  1  0  0  0  0
  7  6  1  1  0  0  0
  7  8  1  0  0  0  0
  7  9  1  0  0  0  0
 10  9  1  1  0  0  0
 10 11  1  0  0  0  0
 10 12  1  0  0  0  0
 11 16  1  0  0  0  0
 12 13  1  6  0  0  0
 12 14  1  0  0  0  0
 14 15  1  1  0  0  0
 14 16  1  0  0  0  0
 16 27  1  6  0  0  0
 18 19  2  0  0  0  0
 18 23  1  0  0  0  0
 19 20  1  0  0  0  0
 20 21  2  0  0  0  0
 21 22  1  0  0  0  0
 21 27  1  0  0  0  0
 22 23  2  0  0  0  0
 22 25  1  0  0  0  0
 23 24  1  0  0  0  0
 25 26  2  0  0  0  0
 26 27  1  0  0  0  0
M  END
>  <CHROM.1>
135.44005737,-179.80651485,178.86789472,-68.43022487,-78.43931431,52.90210218
1.91091717,1.15421324,-12.49913365,11.68940391,-2.61337723,0.67737941,-0.94961249

>  <Name>
ligand

>  <RI>
0

>  <Rbt.Current_Directory>
/home/itssahil/PROJECTS/Mol_Feturizer/Test_systems_manuscript/rnas/4kqy

>  <Rbt.Executable>
rbdock ($Id: //depot/dev/client3/rdock/2013.1/src/exe/rbdock.cxx#4 $)

>  <Rbt.Library>
libRbt.so (2013.1, Build901 2013/11/27)

>  <Rbt.Parameter_File>
/export/apps/rDock/src/rDock_2013.1_src/data/scripts/dock_solv.prm

>  <Rbt.Receptor>
prm/blind_docking_60.prm

>  <SCORE>
-16.489

>  <SCORE.INTER>
-11.8889

>  <SCORE.INTER.CONST>
1

>  <SCORE.INTER.POLAR>
0

>  <SCORE.INTER.ROT>
7

>  <SCORE.INTER.SOLV>
11.5438

>  <SCORE.INTER.VDW>
-20.0405

>  <SCORE.INTER.norm>
-0.440329

>  <SCORE.INTRA>
-4.60015

>  <SCORE.INTRA.DIHEDRAL>
-6.23448

>  <SCORE.INTRA.DIHEDRAL.0>
10.4103

>  <SCORE.INTRA.POLAR>
0

>  <SCORE.INTRA.POLAR.0>
0

>  <SCORE.INTRA.REPUL>
0

>  <SCORE.INTRA.REPUL.0>
0

>  <SCORE.INTRA.SOLV>
-0.576039

>  <SCORE.INTRA.SOLV.lig_0>
-49.5008

>  <SCORE.INTRA.VDW>
-1.19489

>  <SCORE.INTRA.VDW.0>
-2.6946

>  <SCORE.INTRA.norm>
-0.170376

>  <SCORE.RESTR>
0

>  <SCORE.RESTR.CAVITY>
0

>  <SCORE.RESTR.norm>
0

>  <SCORE.SYSTEM>
0

>  <SCORE.SYSTEM.CONST>
0

>  <SCORE.SYSTEM.DIHEDRAL>
0

>  <SCORE.SYSTEM.SOLV>
0

>  <SCORE.SYSTEM.norm>
0

>  <SCORE.heavy>
27

>  <SCORE.norm>
-0.610705

>  <RMSD>
11.378

$$$$
ligand
 OpenBabel02271912153D
libRbt.so/2013.1/901 2013/11/27
 27 29  0  0  0  0  0  0  0  0999 V2000
    7.7088   -9.3858    7.1871 N   0  0  0  0  0  0  0  0  0  0  0  0
    6.5000  -10.1828    7.2748 C   0  0  2  0  0  0  0  0  0  0  0  0
    5.3941   -9.3842    6.6565 C   0  0  0  0  0  0  0  0  0  0  0  0
    4.4703   -9.9800    6.0617 O   0  0  0  0  0  0  0  0  0  0  0  0
    6.1731  -10.5002    8.7365 C   0  0  0  0  0  0  0  0  0  0  0  0
    5.0815  -11.5875    8.8485 C   0  0  0  0  0  0  0  0  0  0  0  0
    4.4758  -11.8485   10.3913 S   0  0  2  0  0  0  0  0  0  0  0  0
    3.7358  -13.3344   10.4488 C   0  0  0  0  0  0  0  0  0  0  0  0
    3.3862  -10.6230   10.7908 C   0  0  0  0  0  0  0  0  0  0  0  0
    2.1992  -10.4935    9.8131 C   0  0  1  0  0  0  0  0  0  0  0  0
    1.4107  -11.6915    9.7180 O   0  0  0  0  0  0  0  0  0  0  0  0
    1.1639   -9.4680   10.2461 C   0  0  1  0  0  0  0  0  0  0  0  0
    1.4999   -8.0758   10.0802 O   0  0  0  0  0  0  0  0  0  0  0  0
   -0.0226   -9.9112    9.4262 C   0  0  1  0  0  0  0  0  0  0  0  0
    0.1818   -9.5859    8.0546 O   0  0  0  0  0  0  0  0  0  0  0  0
    0.0172  -11.4025    9.5833 C   0  0  2  0  0  0  0  0  0  0  0  0
    5.3976   -8.1353    6.7732 O   0  0  0  0  0  0  0  0  0  0  0  0
   -4.5472  -11.3801   12.3114 N   0  0  0  0  0  0  0  0  0  0  0  0
   -4.2319  -10.7218   11.1695 C   0  0  0  0  0  0  0  0  0  0  0  0
   -3.0248  -10.8138   10.5866 N   0  0  0  0  0  0  0  0  0  0  0  0
   -2.0544  -11.5851   11.0895 C   0  0  0  0  0  0  0  0  0  0  0  0
   -2.3394  -12.3355   12.3032 C   0  0  0  0  0  0  0  0  0  0  0  0
   -3.6670  -12.2141   12.9490 C   0  0  0  0  0  0  0  0  0  0  0  0
   -3.9934  -12.8962   14.1027 N   0  0  0  0  0  0  0  0  0  0  0  0
   -1.2441  -13.0095   12.5714 N   0  0  0  0  0  0  0  0  0  0  0  0
   -0.3192  -12.7214   11.6453 C   0  0  0  0  0  0  0  0  0  0  0  0
   -0.8022  -11.8666   10.7445 N   0  0  0  0  0  0  0  0  0  0  0  0
  2  1  1  1  0  0  0
  2  3  1  0  0  0  0
  2  5  1  0  0  0  0
  3  4  1  0  0  0  0
  3 17  1  0  0  0  0
  5  6  1  0  0  0  0
  7  6  1  6  0  0  0
  7  8  1  0  0  0  0
  7  9  1  0  0  0  0
 10  9  1  1  0  0  0
 10 11  1  0  0  0  0
 10 12  1  0  0  0  0
 11 16  1  0  0  0  0
 12 13  1  6  0  0  0
 12 14  1  0  0  0  0
 14 15  1  6  0  0  0
 14 16  1  0  0  0  0
 16 27  1  1  0  0  0
 18 19  2  0  0  0  0
 18 23  1  0  0  0  0
 19 20  1  0  0  0  0
 20 21  2  0  0  0  0
 21 22  1  0  0  0  0
 21 27  1  0  0  0  0
 22 23  2  0  0  0  0
 22 25  1  0  0  0  0
 23 24  1  0  0  0  0
 25 26  2  0  0  0  0
 26 27  1  0  0  0  0
M  END
>  <CHROM.1>
147.64271672,-167.74732693,-171.01348040,-160.82388018,57.99703089,59.39889051
166.84502423,1.46360286,-10.93378937,9.93553991,-0.44809246,-0.21256785,2.38854399

>  <Name>
ligand

>  <RI>
0

>  <Rbt.Current_Directory>
/home/itssahil/PROJECTS/Mol_Feturizer/Test_systems_manuscript/rnas/4kqy

>  <Rbt.Executable>
rbdock ($Id: //depot/dev/client3/rdock/2013.1/src/exe/rbdock.cxx#4 $)

>  <Rbt.Library>
libRbt.so (2013.1, Build901 2013/11/27)

>  <Rbt.Parameter_File>
/export/apps/rDock/src/rDock_2013.1_src/data/scripts/dock_solv.prm

>  <Rbt.Receptor>
prm/blind_docking_20.prm

>  <SCORE>
-15.8759

>  <SCORE.INTER>
-12.9549

>  <SCORE.INTER.CONST>
1

>  <SCORE.INTER.POLAR>
0

>  <SCORE.INTER.ROT>
7

>  <SCORE.INTER.SOLV>
15.7432

>  <SCORE.INTER.VDW>
-22.151

>  <SCORE.INTER.norm>
-0.479813

>  <SCORE.INTRA>
-2.92364

>  <SCORE.INTRA.DIHEDRAL>
-5.8646

>  <SCORE.INTRA.DIHEDRAL.0>
10.4103

>  <SCORE.INTRA.POLAR>
0

>  <SCORE.INTRA.POLAR.0>
0

>  <SCORE.INTRA.REPUL>
0

>  <SCORE.INTRA.REPUL.0>
0

>  <SCORE.INTRA.SOLV>
-0.527169

>  <SCORE.INTRA.SOLV.lig_0>
-49.5008

>  <SCORE.INTRA.VDW>
0.272246

>  <SCORE.INTRA.VDW.0>
-2.6946

>  <SCORE.INTRA.norm>
-0.108283

>  <SCORE.RESTR>
0.00267249

>  <SCORE.RESTR.CAVITY>
0.00267249

>  <SCORE.RESTR.norm>
9.89811e-05

>  <SCORE.SYSTEM>
0

>  <SCORE.SYSTEM.CONST>
0

>  <SCORE.SYSTEM.DIHEDRAL>
0

>  <SCORE.SYSTEM.SOLV>
0

>  <SCORE.SYSTEM.norm>
0

>  <SCORE.heavy>
27

>  <SCORE.norm>
-0.587997

>  <RMSD>
11.394

$$$$
ligand
 OpenBabel02271912153D
libRbt.so/2013.1/901 2013/11/27
 27 29  0  0  0  0  0  0  0  0999 V2000
    5.6084  -10.2150    8.7884 N   0  0  0  0  0  0  0  0  0  0  0  0
    4.2514  -10.4046    8.3123 C   0  0  2  0  0  0  0  0  0  0  0  0
    4.2000   -9.9033    6.9019 C   0  0  0  0  0  0  0  0  0  0  0  0
    3.5796  -10.5646    6.0418 O   0  0  0  0  0  0  0  0  0  0  0  0
    3.2636   -9.6291    9.1882 C   0  0  0  0  0  0  0  0  0  0  0  0
    1.8009   -9.9262    8.7900 C   0  0  0  0  0  0  0  0  0  0  0  0
    0.6523   -8.8778    9.4199 S   0  0  2  0  0  0  0  0  0  0  0  0
    1.1312   -7.3101    9.1521 C   0  0  0  0  0  0  0  0  0  0  0  0
    0.4591   -9.1693   11.0710 C   0  0  0  0  0  0  0  0  0  0  0  0
   -0.6969  -10.1346   11.4082 C   0  0  1  0  0  0  0  0  0  0  0  0
   -0.7242  -11.3006   10.5682 O   0  0  0  0  0  0  0  0  0  0  0  0
   -0.5924  -10.7475   12.7954 C   0  0  1  0  0  0  0  0  0  0  0  0
   -0.9192   -9.9051   13.9189 O   0  0  0  0  0  0  0  0  0  0  0  0
   -1.5052  -11.9386   12.6399 C   0  0  1  0  0  0  0  0  0  0  0  0
   -2.8631  -11.5110   12.5910 O   0  0  0  0  0  0  0  0  0  0  0  0
   -1.1140  -12.4697   11.2927 C   0  0  2  0  0  0  0  0  0  0  0  0
    4.7528   -8.8144    6.6156 O   0  0  0  0  0  0  0  0  0  0  0  0
    3.9333  -13.9471   10.5065 N   0  0  0  0  0  0  0  0  0  0  0  0
    3.3381  -12.7612   10.2308 C   0  0  0  0  0  0  0  0  0  0  0  0
    2.0386  -12.5250   10.4774 N   0  0  0  0  0  0  0  0  0  0  0  0
    1.2465  -13.4471   11.0355 C   0  0  0  0  0  0  0  0  0  0  0  0
    1.8330  -14.7346   11.3757 C   0  0  0  0  0  0  0  0  0  0  0  0
    3.2622  -14.9925   11.0839 C   0  0  0  0  0  0  0  0  0  0  0  0
    3.8721  -16.1942   11.3786 N   0  0  0  0  0  0  0  0  0  0  0  0
    0.8620  -15.4384   11.9121 N   0  0  0  0  0  0  0  0  0  0  0  0
   -0.2591  -14.7042   11.9097 C   0  0  0  0  0  0  0  0  0  0  0  0
   -0.0341  -13.4993   11.3872 N   0  0  0  0  0  0  0  0  0  0  0  0
  2  1  1  1  0  0  0
  2  3  1  0  0  0  0
  2  5  1  0  0  0  0
  3  4  1  0  0  0  0
  3 17  1  0  0  0  0
  5  6  1  0  0  0  0
  7  6  1  1  0  0  0
  7  8  1  0  0  0  0
  7  9  1  0  0  0  0
 10  9  1  6  0  0  0
 10 11  1  0  0  0  0
 10 12  1  0  0  0  0
 11 16  1  0  0  0  0
 12 13  1  1  0  0  0
 12 14  1  0  0  0  0
 14 15  1  6  0  0  0
 14 16  1  0  0  0  0
 16 27  1  1  0  0  0
 18 19  2  0  0  0  0
 18 23  1  0  0  0  0
 19 20  1  0  0  0  0
 20 21  2  0  0  0  0
 21 22  1  0  0  0  0
 21 27  1  0  0  0  0
 22 23  2  0  0  0  0
 22 25  1  0  0  0  0
 23 24  1  0  0  0  0
 25 26  2  0  0  0  0
 26 27  1  0  0  0  0
M  END
>  <CHROM.1>
137.49071738,-174.31972394,-166.10519394,49.20737468,-94.42851748,45.34336659
7.89766919,1.46707241,-11.44916101,10.32750699,-0.75855337,-0.58810833,2.73153815

>  <Name>
ligand

>  <RI>
0

>  <Rbt.Current_Directory>
/home/itssahil/PROJECTS/Mol_Feturizer/Test_systems_manuscript/rnas/4kqy

>  <Rbt.Executable>
rbdock ($Id: //depot/dev/client3/rdock/2013.1/src/exe/rbdock.cxx#4 $)

>  <Rbt.Library>
libRbt.so (2013.1, Build901 2013/11/27)

>  <Rbt.Parameter_File>
/export/apps/rDock/src/rDock_2013.1_src/data/scripts/dock_solv.prm

>  <Rbt.Receptor>
prm/blind_docking_40.prm

>  <SCORE>
-21.1343

>  <SCORE.INTER>
-18.7342

>  <SCORE.INTER.CONST>
1

>  <SCORE.INTER.POLAR>
0

>  <SCORE.INTER.ROT>
7

>  <SCORE.INTER.SOLV>
8.13487

>  <SCORE.INTER.VDW>
-23.4678

>  <SCORE.INTER.norm>
-0.693861

>  <SCORE.INTRA>
-2.40003

>  <SCORE.INTRA.DIHEDRAL>
-2.80409

>  <SCORE.INTRA.DIHEDRAL.0>
10.4103

>  <SCORE.INTRA.POLAR>
0

>  <SCORE.INTRA.POLAR.0>
0

>  <SCORE.INTRA.REPUL>
0

>  <SCORE.INTRA.REPUL.0>
0

>  <SCORE.INTRA.SOLV>
-0.379548

>  <SCORE.INTRA.SOLV.lig_0>
-49.5008

>  <SCORE.INTRA.VDW>
-0.808208

>  <SCORE.INTRA.VDW.0>
-2.6946

>  <SCORE.INTRA.norm>
-0.0888899

>  <SCORE.RESTR>
0

>  <SCORE.RESTR.CAVITY>
0

>  <SCORE.RESTR.norm>
0

>  <SCORE.SYSTEM>
0

>  <SCORE.SYSTEM.CONST>
0

>  <SCORE.SYSTEM.DIHEDRAL>
0

>  <SCORE.SYSTEM.SOLV>
0

>  <SCORE.SYSTEM.norm>
0

>  <SCORE.heavy>
27

>  <SCORE.norm>
-0.782751

>  <RMSD>
11.414

$$$$
ligand
 OpenBabel02271912153D
libRbt.so/2013.1/901 2013/11/27
 27 29  0  0  0  0  0  0  0  0999 V2000
    6.1936  -16.4427   12.4362 N   0  0  0  0  0  0  0  0  0  0  0  0
    4.7867  -16.7659   12.5789 C   0  0  2  0  0  0  0  0  0  0  0  0
    4.3782  -17.5265   11.3551 C   0  0  0  0  0  0  0  0  0  0  0  0
    4.5074  -16.9914   10.2329 O   0  0  0  0  0  0  0  0  0  0  0  0
    3.9548  -15.4875   12.7124 C   0  0  0  0  0  0  0  0  0  0  0  0
    2.4854  -15.8039   13.0692 C   0  0  0  0  0  0  0  0  0  0  0  0
    1.4813  -14.4717   13.2483 S   0  0  2  0  0  0  0  0  0  0  0  0
    0.0066  -14.9673   13.8299 C   0  0  0  0  0  0  0  0  0  0  0  0
    1.3050  -13.6871   11.7644 C   0  0  0  0  0  0  0  0  0  0  0  0
    2.4387  -12.6912   11.4410 C   0  0  1  0  0  0  0  0  0  0  0  0
    2.3631  -12.1610   10.1072 O   0  0  0  0  0  0  0  0  0  0  0  0
    2.3977  -11.4278   12.2855 C   0  0  1  0  0  0  0  0  0  0  0  0
    2.8309  -11.5324   13.6566 O   0  0  0  0  0  0  0  0  0  0  0  0
    3.2479  -10.5071   11.4455 C   0  0  1  0  0  0  0  0  0  0  0  0
    4.6165  -10.8926   11.5298 O   0  0  0  0  0  0  0  0  0  0  0  0
    2.7491  -10.7853   10.0584 C   0  0  2  0  0  0  0  0  0  0  0  0
    3.9437  -18.6970   11.4747 O   0  0  0  0  0  0  0  0  0  0  0  0
   -2.4481   -9.6949    9.7826 N   0  0  0  0  0  0  0  0  0  0  0  0
   -1.8314  -10.7907   10.2880 C   0  0  0  0  0  0  0  0  0  0  0  0
   -0.4961  -10.9396   10.2861 N   0  0  0  0  0  0  0  0  0  0  0  0
    0.3190   -9.9971    9.7996 C   0  0  0  0  0  0  0  0  0  0  0  0
   -0.2824   -8.7858    9.2626 C   0  0  0  0  0  0  0  0  0  0  0  0
   -1.7563   -8.6380    9.2524 C   0  0  0  0  0  0  0  0  0  0  0  0
   -2.3836   -7.5159    8.7521 N   0  0  0  0  0  0  0  0  0  0  0  0
    0.7204   -8.0330    8.8706 N   0  0  0  0  0  0  0  0  0  0  0  0
    1.8686   -8.6840    9.1025 C   0  0  0  0  0  0  0  0  0  0  0  0
    1.6352   -9.8678    9.6678 N   0  0  0  0  0  0  0  0  0  0  0  0
  2  1  1  6  0  0  0
  2  3  1  0  0  0  0
  2  5  1  0  0  0  0
  3  4  1  0  0  0  0
  3 17  1  0  0  0  0
  5  6  1  0  0  0  0
  7  6  1  6  0  0  0
  7  8  1  0  0  0  0
  7  9  1  0  0  0  0
 10  9  1  1  0  0  0
 10 11  1  0  0  0  0
 10 12  1  0  0  0  0
 11 16  1  0  0  0  0
 12 13  1  1  0  0  0
 12 14  1  0  0  0  0
 14 15  1  6  0  0  0
 14 16  1  0  0  0  0
 16 27  1  1  0  0  0
 18 19  2  0  0  0  0
 18 23  1  0  0  0  0
 19 20  1  0  0  0  0
 20 21  2  0  0  0  0
 21 22  1  0  0  0  0
 21 27  1  0  0  0  0
 22 23  2  0  0  0  0
 22 25  1  0  0  0  0
 23 24  1  0  0  0  0
 25 26  2  0  0  0  0
 26 27  1  0  0  0  0
M  END
>  <CHROM.1>
-59.01169909,-171.77572264,179.70196235,-172.28997465,-84.17453863,172.58050655
26.14717300,1.86812907,-12.55935769,11.19654083,-1.06238132,0.09432018,-0.39944062

>  <Name>
ligand

>  <RI>
0

>  <Rbt.Current_Directory>
/home/itssahil/PROJECTS/Mol_Feturizer/Test_systems_manuscript/rnas/4kqy

>  <Rbt.Executable>
rbdock ($Id: //depot/dev/client3/rdock/2013.1/src/exe/rbdock.cxx#4 $)

>  <Rbt.Library>
libRbt.so (2013.1, Build901 2013/11/27)

>  <Rbt.Parameter_File>
/export/apps/rDock/src/rDock_2013.1_src/data/scripts/dock_solv.prm

>  <Rbt.Receptor>
prm/blind_docking_60.prm

>  <SCORE>
-13.834

>  <SCORE.INTER>
-10.0872

>  <SCORE.INTER.CONST>
1

>  <SCORE.INTER.POLAR>
0

>  <SCORE.INTER.ROT>
7

>  <SCORE.INTER.SOLV>
18.4961

>  <SCORE.INTER.VDW>
-21.1568

>  <SCORE.INTER.norm>
-0.3736

>  <SCORE.INTRA>
-3.76887

>  <SCORE.INTRA.DIHEDRAL>
-5.40888

>  <SCORE.INTRA.DIHEDRAL.0>
10.4103

>  <SCORE.INTRA.POLAR>
0

>  <SCORE.INTRA.POLAR.0>
0

>  <SCORE.INTRA.REPUL>
0

>  <SCORE.INTRA.REPUL.0>
0

>  <SCORE.INTRA.SOLV>
-0.367278

>  <SCORE.INTRA.SOLV.lig_0>
-49.5008

>  <SCORE.INTRA.VDW>
-0.880795

>  <SCORE.INTRA.VDW.0>
-2.6946

>  <SCORE.INTRA.norm>
-0.139588

>  <SCORE.RESTR>
0.0220744

>  <SCORE.RESTR.CAVITY>
0.0220744

>  <SCORE.RESTR.norm>
0.000817569

>  <SCORE.SYSTEM>
0

>  <SCORE.SYSTEM.CONST>
0

>  <SCORE.SYSTEM.DIHEDRAL>
0

>  <SCORE.SYSTEM.SOLV>
0

>  <SCORE.SYSTEM.norm>
0

>  <SCORE.heavy>
27

>  <SCORE.norm>
-0.512371

>  <RMSD>
11.484

$$$$
ligand
 OpenBabel02271912153D
libRbt.so/2013.1/901 2013/11/27
 27 29  0  0  0  0  0  0  0  0999 V2000
    6.4166  -10.5986    8.8738 N   0  0  0  0  0  0  0  0  0  0  0  0
    4.9987  -10.7838    9.1177 C   0  0  2  0  0  0  0  0  0  0  0  0
    4.2638   -9.8621    8.1938 C   0  0  0  0  0  0  0  0  0  0  0  0
    3.9876   -8.7055    8.5786 O   0  0  0  0  0  0  0  0  0  0  0  0
    4.6592  -10.4576   10.5746 C   0  0  0  0  0  0  0  0  0  0  0  0
    3.1696  -10.7281   10.8822 C   0  0  0  0  0  0  0  0  0  0  0  0
    2.7158  -10.5373   12.4862 S   0  0  2  0  0  0  0  0  0  0  0  0
    2.8297  -11.9980   13.2687 C   0  0  0  0  0  0  0  0  0  0  0  0
    1.1397   -9.9389   12.5653 C   0  0  0  0  0  0  0  0  0  0  0  0
    0.0685  -10.9163   12.0372 C   0  0  1  0  0  0  0  0  0  0  0  0
    0.5335  -11.7317   10.9487 O   0  0  0  0  0  0  0  0  0  0  0  0
   -0.3556  -11.9620   13.0558 C   0  0  1  0  0  0  0  0  0  0  0  0
   -1.2220  -11.5327   14.1253 O   0  0  0  0  0  0  0  0  0  0  0  0
   -0.9736  -12.9964   12.1479 C   0  0  1  0  0  0  0  0  0  0  0  0
   -2.2217  -12.5255   11.6482 O   0  0  0  0  0  0  0  0  0  0  0  0
    0.0099  -13.0601   11.0170 C   0  0  2  0  0  0  0  0  0  0  0  0
    3.9666  -10.2555    7.0405 O   0  0  0  0  0  0  0  0  0  0  0  0
    4.9655  -14.8504   10.3011 N   0  0  0  0  0  0  0  0  0  0  0  0
    4.3989  -13.7039    9.8527 C   0  0  0  0  0  0  0  0  0  0  0  0
    3.1201  -13.3776   10.1047 N   0  0  0  0  0  0  0  0  0  0  0  0
    2.3227  -14.1613   10.8392 C   0  0  0  0  0  0  0  0  0  0  0  0
    2.8801  -15.3968   11.3685 C   0  0  0  0  0  0  0  0  0  0  0  0
    4.2856  -15.7572   11.0706 C   0  0  0  0  0  0  0  0  0  0  0  0
    4.8672  -16.9167   11.5398 N   0  0  0  0  0  0  0  0  0  0  0  0
    1.9104  -15.9617   12.0516 N   0  0  0  0  0  0  0  0  0  0  0  0
    0.8155  -15.1935   11.9680 C   0  0  0  0  0  0  0  0  0  0  0  0
    1.0577  -14.1024   11.2424 N   0  0  0  0  0  0  0  0  0  0  0  0
  2  1  1  1  0  0  0
  2  3  1  0  0  0  0
  2  5  1  0  0  0  0
  3  4  1  0  0  0  0
  3 17  1  0  0  0  0
  5  6  1  0  0  0  0
  7  6  1  6  0  0  0
  7  8  1  0  0  0  0
  7  9  1  0  0  0  0
 10  9  1  1  0  0  0
 10 11  1  0  0  0  0
 10 12  1  0  0  0  0
 11 16  1  0  0  0  0
 12 13  1  1  0  0  0
 12 14  1  0  0  0  0
 14 15  1  6  0  0  0
 14 16  1  0  0  0  0
 16 27  1  1  0  0  0
 18 19  2  0  0  0  0
 18 23  1  0  0  0  0
 19 20  1  0  0  0  0
 20 21  2  0  0  0  0
 21 22  1  0  0  0  0
 21 27  1  0  0  0  0
 22 23  2  0  0  0  0
 22 25  1  0  0  0  0
 23 24  1  0  0  0  0
 25 26  2  0  0  0  0
 26 27  1  0  0  0  0
M  END
>  <CHROM.1>
-90.31361714,-176.59297332,174.69247621,-92.59941134,66.03982429,-33.57788534
-33.19901599,2.37103182,-12.34702247,11.06542402,0.45395961,0.53021670,-0.21309175

>  <Name>
ligand

>  <RI>
0

>  <Rbt.Current_Directory>
/home/itssahil/PROJECTS/Mol_Feturizer/Test_systems_manuscript/rnas/4kqy

>  <Rbt.Executable>
rbdock ($Id: //depot/dev/client3/rdock/2013.1/src/exe/rbdock.cxx#4 $)

>  <Rbt.Library>
libRbt.so (2013.1, Build901 2013/11/27)

>  <Rbt.Parameter_File>
/export/apps/rDock/src/rDock_2013.1_src/data/scripts/dock_solv.prm

>  <Rbt.Receptor>
prm/blind_docking_40.prm

>  <SCORE>
-12.9977

>  <SCORE.INTER>
-12.0923

>  <SCORE.INTER.CONST>
1

>  <SCORE.INTER.POLAR>
0

>  <SCORE.INTER.ROT>
7

>  <SCORE.INTER.SOLV>
10.198

>  <SCORE.INTER.VDW>
-19.7275

>  <SCORE.INTER.norm>
-0.447862

>  <SCORE.INTRA>
-0.905471

>  <SCORE.INTRA.DIHEDRAL>
-2.52129

>  <SCORE.INTRA.DIHEDRAL.0>
10.4103

>  <SCORE.INTRA.POLAR>
0

>  <SCORE.INTRA.POLAR.0>
0

>  <SCORE.INTRA.REPUL>
0

>  <SCORE.INTRA.REPUL.0>
0

>  <SCORE.INTRA.SOLV>
-0.106391

>  <SCORE.INTRA.SOLV.lig_0>
-49.5008

>  <SCORE.INTRA.VDW>
0.408368

>  <SCORE.INTRA.VDW.0>
-2.6946

>  <SCORE.INTRA.norm>
-0.033536

>  <SCORE.RESTR>
0

>  <SCORE.RESTR.CAVITY>
0

>  <SCORE.RESTR.norm>
0

>  <SCORE.SYSTEM>
0

>  <SCORE.SYSTEM.CONST>
0

>  <SCORE.SYSTEM.DIHEDRAL>
0

>  <SCORE.SYSTEM.SOLV>
0

>  <SCORE.SYSTEM.norm>
0

>  <SCORE.heavy>
27

>  <SCORE.norm>
-0.481398

>  <RMSD>
11.519

$$$$
ligand
 OpenBabel02271912153D
libRbt.so/2013.1/901 2013/11/27
 27 29  0  0  0  0  0  0  0  0999 V2000
    6.8809   -9.4101    8.1753 N   0  0  0  0  0  0  0  0  0  0  0  0
    5.4670   -9.4537    7.8541 C   0  0  2  0  0  0  0  0  0  0  0  0
    4.7772   -8.4681    8.7463 C   0  0  0  0  0  0  0  0  0  0  0  0
    5.4643   -7.7115    9.4658 O   0  0  0  0  0  0  0  0  0  0  0  0
    4.9089  -10.8606    8.0847 C   0  0  0  0  0  0  0  0  0  0  0  0
    5.0556  -11.2921    9.5608 C   0  0  0  0  0  0  0  0  0  0  0  0
    3.8398  -10.7689   10.5919 S   0  0  2  0  0  0  0  0  0  0  0  0
    4.2493  -11.1377   12.1587 C   0  0  0  0  0  0  0  0  0  0  0  0
    2.3791  -11.5007   10.1684 C   0  0  0  0  0  0  0  0  0  0  0  0
    1.1785  -11.0525   11.0283 C   0  0  1  0  0  0  0  0  0  0  0  0
    0.9570   -9.6327   10.9950 O   0  0  0  0  0  0  0  0  0  0  0  0
   -0.1556  -11.5915   10.5379 C   0  0  1  0  0  0  0  0  0  0  0  0
   -0.4440  -12.9808   10.7939 O   0  0  0  0  0  0  0  0  0  0  0  0
   -1.1053  -10.6360   11.2171 C   0  0  1  0  0  0  0  0  0  0  0  0
   -1.1557  -10.9072   12.6146 O   0  0  0  0  0  0  0  0  0  0  0  0
   -0.4359   -9.3108   11.0029 C   0  0  2  0  0  0  0  0  0  0  0  0
    3.5250   -8.3975    8.7327 O   0  0  0  0  0  0  0  0  0  0  0  0
   -4.2564   -8.3467    7.4321 N   0  0  0  0  0  0  0  0  0  0  0  0
   -4.3064   -9.1100    8.5509 C   0  0  0  0  0  0  0  0  0  0  0  0
   -3.2521   -9.2733    9.3676 N   0  0  0  0  0  0  0  0  0  0  0  0
   -2.0804   -8.6703    9.1378 C   0  0  0  0  0  0  0  0  0  0  0  0
   -1.9703   -7.8186    7.9631 C   0  0  0  0  0  0  0  0  0  0  0  0
   -3.1323   -7.6586    7.0585 C   0  0  0  0  0  0  0  0  0  0  0  0
   -3.0864   -6.8694    5.9280 N   0  0  0  0  0  0  0  0  0  0  0  0
   -0.7444   -7.3464    7.9784 N   0  0  0  0  0  0  0  0  0  0  0  0
   -0.0990   -7.8481    9.0404 C   0  0  0  0  0  0  0  0  0  0  0  0
   -0.9000   -8.6438    9.7480 N   0  0  0  0  0  0  0  0  0  0  0  0
  2  1  1  1  0  0  0
  2  3  1  0  0  0  0
  2  5  1  0  0  0  0
  3  4  1  0  0  0  0
  3 17  1  0  0  0  0
  5  6  1  0  0  0  0
  7  6  1  6  0  0  0
  7  8  1  0  0  0  0
  7  9  1  0  0  0  0
 10  9  1  6  0  0  0
 10 11  1  0  0  0  0
 10 12  1  0  0  0  0
 11 16  1  0  0  0  0
 12 13  1  1  0  0  0
 12 14  1  0  0  0  0
 14 15  1  1  0  0  0
 14 16  1  0  0  0  0
 16 27  1  6  0  0  0
 18 19  2  0  0  0  0
 18 23  1  0  0  0  0
 19 20  1  0  0  0  0
 20 21  2  0  0  0  0
 21 22  1  0  0  0  0
 21 27  1  0  0  0  0
 22 23  2  0  0  0  0
 22 25  1  0  0  0  0
 23 24  1  0  0  0  0
 25 26  2  0  0  0  0
 26 27  1  0  0  0  0
M  END
>  <CHROM.1>
7.33038472,60.92957005,84.00642911,-172.43210469,-178.11339682,57.60743942
149.40298417,1.02783470,-9.60768202,9.51418311,-0.22177764,0.04664107,-0.81927782

>  <Name>
ligand

>  <RI>
0

>  <Rbt.Current_Directory>
/home/itssahil/PROJECTS/Mol_Feturizer/Test_systems_manuscript/rnas/4kqy

>  <Rbt.Executable>
rbdock ($Id: //depot/dev/client3/rdock/2013.1/src/exe/rbdock.cxx#4 $)

>  <Rbt.Library>
libRbt.so (2013.1, Build901 2013/11/27)

>  <Rbt.Parameter_File>
/export/apps/rDock/src/rDock_2013.1_src/data/scripts/dock_solv.prm

>  <Rbt.Receptor>
prm/blind_docking_20.prm

>  <SCORE>
-17.9012

>  <SCORE.INTER>
-15.6862

>  <SCORE.INTER.CONST>
1

>  <SCORE.INTER.POLAR>
0

>  <SCORE.INTER.ROT>
7

>  <SCORE.INTER.SOLV>
11.9911

>  <SCORE.INTER.VDW>
-22.7212

>  <SCORE.INTER.norm>
-0.58097

>  <SCORE.INTRA>
-2.21496

>  <SCORE.INTRA.DIHEDRAL>
-5.68753

>  <SCORE.INTRA.DIHEDRAL.0>
10.4103

>  <SCORE.INTRA.POLAR>
0

>  <SCORE.INTRA.POLAR.0>
0

>  <SCORE.INTRA.REPUL>
0

>  <SCORE.INTRA.REPUL.0>
0

>  <SCORE.INTRA.SOLV>
0.508897

>  <SCORE.INTRA.SOLV.lig_0>
-49.5008

>  <SCORE.INTRA.VDW>
0.374356

>  <SCORE.INTRA.VDW.0>
-2.6946

>  <SCORE.INTRA.norm>
-0.0820355

>  <SCORE.RESTR>
0

>  <SCORE.RESTR.CAVITY>
0

>  <SCORE.RESTR.norm>
0

>  <SCORE.SYSTEM>
0

>  <SCORE.SYSTEM.CONST>
0

>  <SCORE.SYSTEM.DIHEDRAL>
0

>  <SCORE.SYSTEM.SOLV>
0

>  <SCORE.SYSTEM.norm>
0

>  <SCORE.heavy>
27

>  <SCORE.norm>
-0.663006

>  <RMSD>
11.530

$$$$
ligand
 OpenBabel02271912153D
libRbt.so/2013.1/901 2013/11/27
 27 29  0  0  0  0  0  0  0  0999 V2000
    4.6206   -9.0446    6.2973 N   0  0  0  0  0  0  0  0  0  0  0  0
    4.4916   -8.9786    7.7407 C   0  0  2  0  0  0  0  0  0  0  0  0
    5.7700   -8.4114    8.2766 C   0  0  0  0  0  0  0  0  0  0  0  0
    5.7442   -7.7360    9.3279 O   0  0  0  0  0  0  0  0  0  0  0  0
    4.2451  -10.3741    8.3203 C   0  0  0  0  0  0  0  0  0  0  0  0
    4.0964  -10.3296    9.8574 C   0  0  0  0  0  0  0  0  0  0  0  0
    3.7025  -11.7874   10.5887 S   0  0  2  0  0  0  0  0  0  0  0  0
    4.7783  -12.9560   10.1032 C   0  0  0  0  0  0  0  0  0  0  0  0
    2.1238  -12.2221   10.1796 C   0  0  0  0  0  0  0  0  0  0  0  0
    1.0452  -11.6124   11.0997 C   0  0  1  0  0  0  0  0  0  0  0  0
    0.9923  -10.1775   11.0365 O   0  0  0  0  0  0  0  0  0  0  0  0
   -0.3733  -11.9978   10.7120 C   0  0  1  0  0  0  0  0  0  0  0  0
   -0.8070  -13.3358   11.0287 O   0  0  0  0  0  0  0  0  0  0  0  0
   -1.1552  -10.9192   11.4201 C   0  0  1  0  0  0  0  0  0  0  0  0
   -1.1440  -11.1499   12.8257 O   0  0  0  0  0  0  0  0  0  0  0  0
   -0.3488   -9.6898   11.1229 C   0  0  2  0  0  0  0  0  0  0  0  0
    6.8469   -8.6502    7.6795 O   0  0  0  0  0  0  0  0  0  0  0  0
   -4.1907   -8.6052    7.6101 N   0  0  0  0  0  0  0  0  0  0  0  0
   -4.2443   -9.3771    8.7227 C   0  0  0  0  0  0  0  0  0  0  0  0
   -3.1839   -9.5722    9.5243 N   0  0  0  0  0  0  0  0  0  0  0  0
   -2.0014   -8.9945    9.2847 C   0  0  0  0  0  0  0  0  0  0  0  0
   -1.8863   -8.1351    8.1161 C   0  0  0  0  0  0  0  0  0  0  0  0
   -3.0557   -7.9399    7.2280 C   0  0  0  0  0  0  0  0  0  0  0  0
   -3.0057   -7.1419    6.1040 N   0  0  0  0  0  0  0  0  0  0  0  0
   -0.6497   -7.6916    8.1198 N   0  0  0  0  0  0  0  0  0  0  0  0
   -0.0028   -8.2177    9.1690 C   0  0  0  0  0  0  0  0  0  0  0  0
   -0.8131   -9.0009    9.8799 N   0  0  0  0  0  0  0  0  0  0  0  0
  2  1  1  6  0  0  0
  2  3  1  0  0  0  0
  2  5  1  0  0  0  0
  3  4  1  0  0  0  0
  3 17  1  0  0  0  0
  5  6  1  0  0  0  0
  7  6  1  6  0  0  0
  7  8  1  0  0  0  0
  7  9  1  0  0  0  0
 10  9  1  6  0  0  0
 10 11  1  0  0  0  0
 10 12  1  0  0  0  0
 11 16  1  0  0  0  0
 12 13  1  1  0  0  0
 12 14  1  0  0  0  0
 14 15  1  1  0  0  0
 14 16  1  0  0  0  0
 16 27  1  6  0  0  0
 18 19  2  0  0  0  0
 18 23  1  0  0  0  0
 19 20  1  0  0  0  0
 20 21  2  0  0  0  0
 21 22  1  0  0  0  0
 21 27  1  0  0  0  0
 22 23  2  0  0  0  0
 22 25  1  0  0  0  0
 23 24  1  0  0  0  0
 25 26  2  0  0  0  0
 26 27  1  0  0  0  0
M  END
>  <CHROM.1>
149.52781973,-179.69434168,175.37445195,52.63567574,-86.20288765,63.64789037
142.75883858,1.03702780,-9.91993227,9.41058493,-0.08043969,0.07671571,-0.76098832

>  <Name>
ligand

>  <RI>
0

>  <Rbt.Current_Directory>
/home/itssahil/PROJECTS/Mol_Feturizer/Test_systems_manuscript/rnas/4kqy

>  <Rbt.Executable>
rbdock ($Id: //depot/dev/client3/rdock/2013.1/src/exe/rbdock.cxx#4 $)

>  <Rbt.Library>
libRbt.so (2013.1, Build901 2013/11/27)

>  <Rbt.Parameter_File>
/export/apps/rDock/src/rDock_2013.1_src/data/scripts/dock_solv.prm

>  <Rbt.Receptor>
prm/blind_docking_20.prm

>  <SCORE>
-17.8926

>  <SCORE.INTER>
-15.5398

>  <SCORE.INTER.CONST>
1

>  <SCORE.INTER.POLAR>
0

>  <SCORE.INTER.ROT>
7

>  <SCORE.INTER.SOLV>
18.1968

>  <SCORE.INTER.VDW>
-24.6921

>  <SCORE.INTER.norm>
-0.575546

>  <SCORE.INTRA>
-2.35288

>  <SCORE.INTRA.DIHEDRAL>
-5.48302

>  <SCORE.INTRA.DIHEDRAL.0>
10.4103

>  <SCORE.INTRA.POLAR>
0

>  <SCORE.INTRA.POLAR.0>
0

>  <SCORE.INTRA.REPUL>
0

>  <SCORE.INTRA.REPUL.0>
0

>  <SCORE.INTRA.SOLV>
-0.623521

>  <SCORE.INTRA.SOLV.lig_0>
-49.5008

>  <SCORE.INTRA.VDW>
0.700387

>  <SCORE.INTRA.VDW.0>
-2.6946

>  <SCORE.INTRA.norm>
-0.0871438

>  <SCORE.RESTR>
0

>  <SCORE.RESTR.CAVITY>
0

>  <SCORE.RESTR.norm>
0

>  <SCORE.SYSTEM>
0

>  <SCORE.SYSTEM.CONST>
0

>  <SCORE.SYSTEM.DIHEDRAL>
0

>  <SCORE.SYSTEM.SOLV>
0

>  <SCORE.SYSTEM.norm>
0

>  <SCORE.heavy>
27

>  <SCORE.norm>
-0.66269

>  <RMSD>
11.531

$$$$
ligand
 OpenBabel02271912153D
libRbt.so/2013.1/901 2013/11/27
 27 29  0  0  0  0  0  0  0  0999 V2000
    4.8817  -18.6418    9.2011 N   0  0  0  0  0  0  0  0  0  0  0  0
    4.9625  -17.7564   10.3472 C   0  0  2  0  0  0  0  0  0  0  0  0
    4.2772  -18.4421   11.4889 C   0  0  0  0  0  0  0  0  0  0  0  0
    4.1184  -17.8252   12.5643 O   0  0  0  0  0  0  0  0  0  0  0  0
    4.2782  -16.4213   10.0414 C   0  0  0  0  0  0  0  0  0  0  0  0
    4.5264  -15.3887   11.1633 C   0  0  0  0  0  0  0  0  0  0  0  0
    4.3384  -13.7810   10.7215 S   0  0  2  0  0  0  0  0  0  0  0  0
    5.6311  -13.3105    9.7908 C   0  0  0  0  0  0  0  0  0  0  0  0
    4.2169  -12.8204   12.1040 C   0  0  0  0  0  0  0  0  0  0  0  0
    2.8049  -12.7895   12.7262 C   0  0  1  0  0  0  0  0  0  0  0  0
    2.4763  -11.5234   13.3217 O   0  0  0  0  0  0  0  0  0  0  0  0
    1.6882  -12.9590   11.7088 C   0  0  1  0  0  0  0  0  0  0  0  0
    1.4669  -14.2825   11.1814 O   0  0  0  0  0  0  0  0  0  0  0  0
    0.5193  -12.4095   12.4885 C   0  0  1  0  0  0  0  0  0  0  0  0
    0.1444  -13.3221   13.5159 O   0  0  0  0  0  0  0  0  0  0  0  0
    1.1033  -11.1803   13.1195 C   0  0  2  0  0  0  0  0  0  0  0  0
    3.8472  -19.6104   11.3361 O   0  0  0  0  0  0  0  0  0  0  0  0
    2.4577   -8.2504    8.8937 N   0  0  0  0  0  0  0  0  0  0  0  0
    2.9763   -9.4286    9.3172 C   0  0  0  0  0  0  0  0  0  0  0  0
    2.5386  -10.0620   10.4183 N   0  0  0  0  0  0  0  0  0  0  0  0
    1.5389   -9.5759   11.1625 C   0  0  0  0  0  0  0  0  0  0  0  0
    0.9251   -8.3240   10.7464 C   0  0  0  0  0  0  0  0  0  0  0  0
    1.4260   -7.6234    9.5412 C   0  0  0  0  0  0  0  0  0  0  0  0
    0.8880   -6.4319    9.1011 N   0  0  0  0  0  0  0  0  0  0  0  0
   -0.0212   -8.0813   11.6249 N   0  0  0  0  0  0  0  0  0  0  0  0
   -0.0231   -9.0583   12.5422 C   0  0  0  0  0  0  0  0  0  0  0  0
    0.9120   -9.9669   12.2672 N   0  0  0  0  0  0  0  0  0  0  0  0
  2  1  1  6  0  0  0
  2  3  1  0  0  0  0
  2  5  1  0  0  0  0
  3  4  1  0  0  0  0
  3 17  1  0  0  0  0
  5  6  1  0  0  0  0
  7  6  1  1  0  0  0
  7  8  1  0  0  0  0
  7  9  1  0  0  0  0
 10  9  1  6  0  0  0
 10 11  1  0  0  0  0
 10 12  1  0  0  0  0
 11 16  1  0  0  0  0
 12 13  1  1  0  0  0
 12 14  1  0  0  0  0
 14 15  1  1  0  0  0
 14 16  1  0  0  0  0
 16 27  1  6  0  0  0
 18 19  2  0  0  0  0
 18 23  1  0  0  0  0
 19 20  1  0  0  0  0
 20 21  2  0  0  0  0
 21 22  1  0  0  0  0
 21 27  1  0  0  0  0
 22 23  2  0  0  0  0
 22 25  1  0  0  0  0
 23 24  1  0  0  0  0
 25 26  2  0  0  0  0
 26 27  1  0  0  0  0
M  END
>  <CHROM.1>
-174.07179136,-171.72711710,158.34273520,-73.92395707,-81.83124263,-146.09842426
41.01178919,2.66492315,-12.74946344,11.20680388,-1.06040167,0.80521477,-0.40213274

>  <Name>
ligand

>  <RI>
0

>  <Rbt.Current_Directory>
/home/itssahil/PROJECTS/Mol_Feturizer/Test_systems_manuscript/rnas/4kqy

>  <Rbt.Executable>
rbdock ($Id: //depot/dev/client3/rdock/2013.1/src/exe/rbdock.cxx#4 $)

>  <Rbt.Library>
libRbt.so (2013.1, Build901 2013/11/27)

>  <Rbt.Parameter_File>
/export/apps/rDock/src/rDock_2013.1_src/data/scripts/dock_solv.prm

>  <Rbt.Receptor>
prm/blind_docking_60.prm

>  <SCORE>
-12.6977

>  <SCORE.INTER>
-13.3313

>  <SCORE.INTER.CONST>
1

>  <SCORE.INTER.POLAR>
0

>  <SCORE.INTER.ROT>
7

>  <SCORE.INTER.SOLV>
19.5048

>  <SCORE.INTER.VDW>
-23.6558

>  <SCORE.INTER.norm>
-0.493751

>  <SCORE.INTRA>
0.626775

>  <SCORE.INTRA.DIHEDRAL>
-0.58078

>  <SCORE.INTRA.DIHEDRAL.0>
10.4103

>  <SCORE.INTRA.POLAR>
0

>  <SCORE.INTRA.POLAR.0>
0

>  <SCORE.INTRA.REPUL>
0

>  <SCORE.INTRA.REPUL.0>
0

>  <SCORE.INTRA.SOLV>
-0.0809472

>  <SCORE.INTRA.SOLV.lig_0>
-49.5008

>  <SCORE.INTRA.VDW>
0.957639

>  <SCORE.INTRA.VDW.0>
-2.6946

>  <SCORE.INTRA.norm>
0.0232139

>  <SCORE.RESTR>
0.00679279

>  <SCORE.RESTR.CAVITY>
0.00679279

>  <SCORE.RESTR.norm>
0.000251585

>  <SCORE.SYSTEM>
0

>  <SCORE.SYSTEM.CONST>
0

>  <SCORE.SYSTEM.DIHEDRAL>
0

>  <SCORE.SYSTEM.SOLV>
0

>  <SCORE.SYSTEM.norm>
0

>  <SCORE.heavy>
27

>  <SCORE.norm>
-0.470285

>  <RMSD>
11.545

$$$$
ligand
 OpenBabel02271912153D
libRbt.so/2013.1/901 2013/11/27
 27 29  0  0  0  0  0  0  0  0999 V2000
    6.8444   -8.3260    7.7546 N   0  0  0  0  0  0  0  0  0  0  0  0
    6.0842   -9.5566    7.6454 C   0  0  2  0  0  0  0  0  0  0  0  0
    4.6858   -9.1834    7.2602 C   0  0  0  0  0  0  0  0  0  0  0  0
    3.9752   -8.5568    8.0753 O   0  0  0  0  0  0  0  0  0  0  0  0
    6.0854  -10.3066    8.9802 C   0  0  0  0  0  0  0  0  0  0  0  0
    5.3376  -11.6540    8.8723 C   0  0  0  0  0  0  0  0  0  0  0  0
    5.4242  -12.6402   10.2270 S   0  0  2  0  0  0  0  0  0  0  0  0
    7.0161  -12.9685   10.5688 C   0  0  0  0  0  0  0  0  0  0  0  0
    4.5666  -14.0670    9.9491 C   0  0  0  0  0  0  0  0  0  0  0  0
    4.4665  -14.9908   11.1813 C   0  0  1  0  0  0  0  0  0  0  0  0
    3.9563  -14.3247   12.3483 O   0  0  0  0  0  0  0  0  0  0  0  0
    3.4742  -16.1294   11.0088 C   0  0  1  0  0  0  0  0  0  0  0  0
    3.8698  -17.2321   10.1684 O   0  0  0  0  0  0  0  0  0  0  0  0
    3.2415  -16.5129   12.4493 C   0  0  1  0  0  0  0  0  0  0  0  0
    4.3889  -17.1773   12.9699 O   0  0  0  0  0  0  0  0  0  0  0  0
    3.1070  -15.1777   13.1196 C   0  0  2  0  0  0  0  0  0  0  0  0
    4.2635   -9.4780    6.1165 O   0  0  0  0  0  0  0  0  0  0  0  0
   -0.9098  -12.3777   11.0457 N   0  0  0  0  0  0  0  0  0  0  0  0
    0.3585  -12.5176   10.5891 C   0  0  0  0  0  0  0  0  0  0  0  0
    1.2825  -13.2580   11.2242 N   0  0  0  0  0  0  0  0  0  0  0  0
    1.0011  -13.9278   12.3474 C   0  0  0  0  0  0  0  0  0  0  0  0
   -0.3514  -13.8354   12.8761 C   0  0  0  0  0  0  0  0  0  0  0  0
   -1.3588  -13.0025   12.1792 C   0  0  0  0  0  0  0  0  0  0  0  0
   -2.6541  -12.8723   12.6353 N   0  0  0  0  0  0  0  0  0  0  0  0
   -0.3640  -14.5832   13.9562 N   0  0  0  0  0  0  0  0  0  0  0  0
    0.8579  -15.1019   14.1396 C   0  0  0  0  0  0  0  0  0  0  0  0
    1.6862  -14.7155   13.1700 N   0  0  0  0  0  0  0  0  0  0  0  0
  2  1  1  1  0  0  0
  2  3  1  0  0  0  0
  2  5  1  0  0  0  0
  3  4  1  0  0  0  0
  3 17  1  0  0  0  0
  5  6  1  0  0  0  0
  7  6  1  6  0  0  0
  7  8  1  0  0  0  0
  7  9  1  0  0  0  0
 10  9  1  6  0  0  0
 10 11  1  0  0  0  0
 10 12  1  0  0  0  0
 11 16  1  0  0  0  0
 12 13  1  6  0  0  0
 12 14  1  0  0  0  0
 14 15  1  1  0  0  0
 14 16  1  0  0  0  0
 16 27  1  6  0  0  0
 18 19  2  0  0  0  0
 18 23  1  0  0  0  0
 19 20  1  0  0  0  0
 20 21  2  0  0  0  0
 21 22  1  0  0  0  0
 21 27  1  0  0  0  0
 22 23  2  0  0  0  0
 22 25  1  0  0  0  0
 23 24  1  0  0  0  0
 25 26  2  0  0  0  0
 26 27  1  0  0  0  0
M  END
>  <CHROM.1>
-67.30603764,-177.33181363,173.36365624,-58.15644746,-174.43244299,52.96184456
22.75706793,3.17892217,-13.10034828,10.76868934,0.94493276,0.29633386,-0.55716824

>  <Name>
ligand

>  <RI>
0

>  <Rbt.Current_Directory>
/home/itssahil/PROJECTS/Mol_Feturizer/Test_systems_manuscript/rnas/4kqy

>  <Rbt.Executable>
rbdock ($Id: //depot/dev/client3/rdock/2013.1/src/exe/rbdock.cxx#4 $)

>  <Rbt.Library>
libRbt.so (2013.1, Build901 2013/11/27)

>  <Rbt.Parameter_File>
/export/apps/rDock/src/rDock_2013.1_src/data/scripts/dock_solv.prm

>  <Rbt.Receptor>
prm/blind_docking_100.prm

>  <SCORE>
-16.4104

>  <SCORE.INTER>
-12.6165

>  <SCORE.INTER.CONST>
1

>  <SCORE.INTER.POLAR>
0

>  <SCORE.INTER.ROT>
7

>  <SCORE.INTER.SOLV>
15.6507

>  <SCORE.INTER.VDW>
-21.8945

>  <SCORE.INTER.norm>
-0.467276

>  <SCORE.INTRA>
-3.80601

>  <SCORE.INTRA.DIHEDRAL>
-7.32411

>  <SCORE.INTRA.DIHEDRAL.0>
10.4103

>  <SCORE.INTRA.POLAR>
0

>  <SCORE.INTRA.POLAR.0>
0

>  <SCORE.INTRA.REPUL>
0

>  <SCORE.INTRA.REPUL.0>
0

>  <SCORE.INTRA.SOLV>
-0.628782

>  <SCORE.INTRA.SOLV.lig_0>
-49.5008

>  <SCORE.INTRA.VDW>
0.170435

>  <SCORE.INTRA.VDW.0>
-2.6946

>  <SCORE.INTRA.norm>
-0.140963

>  <SCORE.RESTR>
0.0120423

>  <SCORE.RESTR.CAVITY>
0.0120423

>  <SCORE.RESTR.norm>
0.000446012

>  <SCORE.SYSTEM>
0

>  <SCORE.SYSTEM.CONST>
0

>  <SCORE.SYSTEM.DIHEDRAL>
0

>  <SCORE.SYSTEM.SOLV>
0

>  <SCORE.SYSTEM.norm>
0

>  <SCORE.heavy>
27

>  <SCORE.norm>
-0.607793

>  <RMSD>
11.560

$$$$
ligand
 OpenBabel02271912153D
libRbt.so/2013.1/901 2013/11/27
 27 29  0  0  0  0  0  0  0  0999 V2000
    8.1286   -8.4496   11.0876 N   0  0  0  0  0  0  0  0  0  0  0  0
    7.5741   -8.6175    9.7578 C   0  0  2  0  0  0  0  0  0  0  0  0
    7.9314   -7.3957    8.9687 C   0  0  0  0  0  0  0  0  0  0  0  0
    7.6233   -6.2696    9.4152 O   0  0  0  0  0  0  0  0  0  0  0  0
    6.0531   -8.7784    9.8285 C   0  0  0  0  0  0  0  0  0  0  0  0
    5.6560  -10.0964   10.5296 C   0  0  0  0  0  0  0  0  0  0  0  0
    4.0426  -10.5343   10.3870 S   0  0  2  0  0  0  0  0  0  0  0  0
    3.8338  -12.0707   10.9823 C   0  0  0  0  0  0  0  0  0  0  0  0
    3.5704  -10.4516    8.7687 C   0  0  0  0  0  0  0  0  0  0  0  0
    2.1106   -9.9955    8.5620 C   0  0  1  0  0  0  0  0  0  0  0  0
    1.1619  -11.0704    8.6634 O   0  0  0  0  0  0  0  0  0  0  0  0
    1.6160   -9.0360    9.6324 C   0  0  1  0  0  0  0  0  0  0  0  0
    2.0884   -7.6751    9.5726 O   0  0  0  0  0  0  0  0  0  0  0  0
    0.1238   -9.1722    9.4563 C   0  0  1  0  0  0  0  0  0  0  0  0
   -0.2869   -8.5322    8.2518 O   0  0  0  0  0  0  0  0  0  0  0  0
   -0.0477  -10.6544    9.3020 C   0  0  2  0  0  0  0  0  0  0  0  0
    8.5604   -7.5216    7.8909 O   0  0  0  0  0  0  0  0  0  0  0  0
   -3.4093  -12.4755   12.9978 N   0  0  0  0  0  0  0  0  0  0  0  0
   -3.6847  -11.8580   11.8233 C   0  0  0  0  0  0  0  0  0  0  0  0
   -2.7265  -11.4392   10.9797 N   0  0  0  0  0  0  0  0  0  0  0  0
   -1.4273  -11.6256   11.2377 C   0  0  0  0  0  0  0  0  0  0  0  0
   -1.0677  -12.3036   12.4740 C   0  0  0  0  0  0  0  0  0  0  0  0
   -2.1300  -12.7459   13.4067 C   0  0  0  0  0  0  0  0  0  0  0  0
   -1.8505  -13.3884   14.5949 N   0  0  0  0  0  0  0  0  0  0  0  0
    0.2444  -12.3689   12.4764 N   0  0  0  0  0  0  0  0  0  0  0  0
    0.7108  -11.7772   11.3681 C   0  0  0  0  0  0  0  0  0  0  0  0
   -0.2920  -11.3307   10.6127 N   0  0  0  0  0  0  0  0  0  0  0  0
  2  1  1  1  0  0  0
  2  3  1  0  0  0  0
  2  5  1  0  0  0  0
  3  4  1  0  0  0  0
  3 17  1  0  0  0  0
  5  6  1  0  0  0  0
  7  6  1  6  0  0  0
  7  8  1  0  0  0  0
  7  9  1  0  0  0  0
 10  9  1  1  0  0  0
 10 11  1  0  0  0  0
 10 12  1  0  0  0  0
 11 16  1  0  0  0  0
 12 13  1  6  0  0  0
 12 14  1  0  0  0  0
 14 15  1  6  0  0  0
 14 16  1  0  0  0  0
 16 27  1  1  0  0  0
 18 19  2  0  0  0  0
 18 23  1  0  0  0  0
 19 20  1  0  0  0  0
 20 21  2  0  0  0  0
 21 22  1  0  0  0  0
 21 27  1  0  0  0  0
 22 23  2  0  0  0  0
 22 25  1  0  0  0  0
 23 24  1  0  0  0  0
 25 26  2  0  0  0  0
 26 27  1  0  0  0  0
M  END
>  <CHROM.1>
-54.61239354,-66.55364682,-167.87452956,171.22143802,-145.24453311,-84.52092927
-151.04731027,2.20647491,-10.22543708,10.41710182,-0.46188774,0.14047036
2.26989969

>  <Name>
ligand

>  <RI>
0

>  <Rbt.Current_Directory>
/home/itssahil/PROJECTS/Mol_Feturizer/Test_systems_manuscript/rnas/4kqy

>  <Rbt.Executable>
rbdock ($Id: //depot/dev/client3/rdock/2013.1/src/exe/rbdock.cxx#4 $)

>  <Rbt.Library>
libRbt.so (2013.1, Build901 2013/11/27)

>  <Rbt.Parameter_File>
/export/apps/rDock/src/rDock_2013.1_src/data/scripts/dock_solv.prm

>  <Rbt.Receptor>
prm/blind_docking_20.prm

>  <SCORE>
-6.89455

>  <SCORE.INTER>
-6.46

>  <SCORE.INTER.CONST>
1

>  <SCORE.INTER.POLAR>
0

>  <SCORE.INTER.ROT>
7

>  <SCORE.INTER.SOLV>
8.60304

>  <SCORE.INTER.VDW>
-15.441

>  <SCORE.INTER.norm>
-0.239259

>  <SCORE.INTRA>
-0.434556

>  <SCORE.INTRA.DIHEDRAL>
-1.88964

>  <SCORE.INTRA.DIHEDRAL.0>
10.4103

>  <SCORE.INTRA.POLAR>
0

>  <SCORE.INTRA.POLAR.0>
0

>  <SCORE.INTRA.REPUL>
0

>  <SCORE.INTRA.REPUL.0>
0

>  <SCORE.INTRA.SOLV>
0.336283

>  <SCORE.INTRA.SOLV.lig_0>
-49.5008

>  <SCORE.INTRA.VDW>
0.34212

>  <SCORE.INTRA.VDW.0>
-2.6946

>  <SCORE.INTRA.norm>
-0.0160947

>  <SCORE.RESTR>
0

>  <SCORE.RESTR.CAVITY>
0

>  <SCORE.RESTR.norm>
0

>  <SCORE.SYSTEM>
0

>  <SCORE.SYSTEM.CONST>
0

>  <SCORE.SYSTEM.DIHEDRAL>
0

>  <SCORE.SYSTEM.SOLV>
0

>  <SCORE.SYSTEM.norm>
0

>  <SCORE.heavy>
27

>  <SCORE.norm>
-0.255354

>  <RMSD>
11.589

$$$$
ligand
 OpenBabel02271912153D
libRbt.so/2013.1/901 2013/11/27
 27 29  0  0  0  0  0  0  0  0999 V2000
    5.3533  -10.0753    9.1385 N   0  0  0  0  0  0  0  0  0  0  0  0
    4.1201  -10.4348    8.4644 C   0  0  2  0  0  0  0  0  0  0  0  0
    4.1627   -9.8189    7.0998 C   0  0  0  0  0  0  0  0  0  0  0  0
    4.6861   -8.6932    6.9547 O   0  0  0  0  0  0  0  0  0  0  0  0
    2.9113   -9.9125    9.2455 C   0  0  0  0  0  0  0  0  0  0  0  0
    1.5847  -10.4304    8.6469 C   0  0  0  0  0  0  0  0  0  0  0  0
    0.1877   -9.8162    9.3444 S   0  0  2  0  0  0  0  0  0  0  0  0
    0.1651   -8.1645    9.1706 C   0  0  0  0  0  0  0  0  0  0  0  0
    0.1284  -10.2459   10.9754 C   0  0  0  0  0  0  0  0  0  0  0  0
   -0.3637  -11.6865   11.2288 C   0  0  1  0  0  0  0  0  0  0  0  0
    0.4492  -12.6835   10.5877 O   0  0  0  0  0  0  0  0  0  0  0  0
   -0.2873  -12.1075   12.6876 C   0  0  1  0  0  0  0  0  0  0  0  0
   -1.2799  -11.5713   13.5853 O   0  0  0  0  0  0  0  0  0  0  0  0
   -0.3413  -13.6084   12.5444 C   0  0  1  0  0  0  0  0  0  0  0  0
   -1.6538  -14.0173   12.1716 O   0  0  0  0  0  0  0  0  0  0  0  0
    0.5898  -13.8553   11.3945 C   0  0  2  0  0  0  0  0  0  0  0  0
    3.7017  -10.4560    6.1227 O   0  0  0  0  0  0  0  0  0  0  0  0
    4.6451  -17.1836   12.2618 N   0  0  0  0  0  0  0  0  0  0  0  0
    3.4099  -17.4521   11.7732 C   0  0  0  0  0  0  0  0  0  0  0  0
    2.4703  -16.5055   11.6112 N   0  0  0  0  0  0  0  0  0  0  0  0
    2.7032  -15.2214   11.9049 C   0  0  0  0  0  0  0  0  0  0  0  0
    4.0195  -14.8657   12.4130 C   0  0  0  0  0  0  0  0  0  0  0  0
    5.0435  -15.9187   12.6054 C   0  0  0  0  0  0  0  0  0  0  0  0
    6.3059  -15.6433   13.0881 N   0  0  0  0  0  0  0  0  0  0  0  0
    3.9889  -13.5663   12.6045 N   0  0  0  0  0  0  0  0  0  0  0  0
    2.7725  -13.1079   12.2785 C   0  0  0  0  0  0  0  0  0  0  0  0
    1.9924  -14.0997   11.8503 N   0  0  0  0  0  0  0  0  0  0  0  0
  2  1  1  1  0  0  0
  2  3  1  0  0  0  0
  2  5  1  0  0  0  0
  3  4  1  0  0  0  0
  3 17  1  0  0  0  0
  5  6  1  0  0  0  0
  7  6  1  1  0  0  0
  7  8  1  0  0  0  0
  7  9  1  0  0  0  0
 10  9  1  1  0  0  0
 10 11  1  0  0  0  0
 10 12  1  0  0  0  0
 11 16  1  0  0  0  0
 12 13  1  1  0  0  0
 12 14  1  0  0  0  0
 14 15  1  6  0  0  0
 14 16  1  0  0  0  0
 16 27  1  1  0  0  0
 18 19  2  0  0  0  0
 18 23  1  0  0  0  0
 19 20  1  0  0  0  0
 20 21  2  0  0  0  0
 21 22  1  0  0  0  0
 21 27  1  0  0  0  0
 22 23  2  0  0  0  0
 22 25  1  0  0  0  0
 23 24  1  0  0  0  0
 25 26  2  0  0  0  0
 26 27  1  0  0  0  0
M  END
>  <CHROM.1>
-36.45712671,-172.89790000,-175.01659597,60.10107151,-80.24957244,58.79668063
-136.90836156,2.12243869,-12.41268310,10.68774350,-1.69423717,-0.35925210
2.50591005

>  <Name>
ligand

>  <RI>
0

>  <Rbt.Current_Directory>
/home/itssahil/PROJECTS/Mol_Feturizer/Test_systems_manuscript/rnas/4kqy

>  <Rbt.Executable>
rbdock ($Id: //depot/dev/client3/rdock/2013.1/src/exe/rbdock.cxx#4 $)

>  <Rbt.Library>
libRbt.so (2013.1, Build901 2013/11/27)

>  <Rbt.Parameter_File>
/export/apps/rDock/src/rDock_2013.1_src/data/scripts/dock_solv.prm

>  <Rbt.Receptor>
prm/blind_docking_40.prm

>  <SCORE>
-17.1709

>  <SCORE.INTER>
-13.9819

>  <SCORE.INTER.CONST>
1

>  <SCORE.INTER.POLAR>
0

>  <SCORE.INTER.ROT>
7

>  <SCORE.INTER.SOLV>
10.2649

>  <SCORE.INTER.VDW>
-21.0096

>  <SCORE.INTER.norm>
-0.517848

>  <SCORE.INTRA>
-3.18898

>  <SCORE.INTRA.DIHEDRAL>
-6.05015

>  <SCORE.INTRA.DIHEDRAL.0>
10.4103

>  <SCORE.INTRA.POLAR>
0

>  <SCORE.INTRA.POLAR.0>
0

>  <SCORE.INTRA.REPUL>
0

>  <SCORE.INTRA.REPUL.0>
0

>  <SCORE.INTRA.SOLV>
-0.582263

>  <SCORE.INTRA.SOLV.lig_0>
-49.5008

>  <SCORE.INTRA.VDW>
0.127227

>  <SCORE.INTRA.VDW.0>
-2.6946

>  <SCORE.INTRA.norm>
-0.11811

>  <SCORE.RESTR>
0

>  <SCORE.RESTR.CAVITY>
0

>  <SCORE.RESTR.norm>
0

>  <SCORE.SYSTEM>
0

>  <SCORE.SYSTEM.CONST>
0

>  <SCORE.SYSTEM.DIHEDRAL>
0

>  <SCORE.SYSTEM.SOLV>
0

>  <SCORE.SYSTEM.norm>
0

>  <SCORE.heavy>
27

>  <SCORE.norm>
-0.635958

>  <RMSD>
11.616

$$$$
ligand
 OpenBabel02271912153D
libRbt.so/2013.1/901 2013/11/27
 27 29  0  0  0  0  0  0  0  0999 V2000
    4.7257   -9.6109    6.5974 N   0  0  0  0  0  0  0  0  0  0  0  0
    5.0333   -8.8862    7.8158 C   0  0  2  0  0  0  0  0  0  0  0  0
    6.4195   -8.3383    7.6701 C   0  0  0  0  0  0  0  0  0  0  0  0
    6.6769   -7.2020    8.1228 O   0  0  0  0  0  0  0  0  0  0  0  0
    4.9552   -9.8189    9.0274 C   0  0  0  0  0  0  0  0  0  0  0  0
    3.5555  -10.4594    9.1586 C   0  0  0  0  0  0  0  0  0  0  0  0
    3.4161  -11.6623   10.3200 S   0  0  2  0  0  0  0  0  0  0  0  0
    4.5779  -12.8198   10.0569 C   0  0  0  0  0  0  0  0  0  0  0  0
    1.8720  -12.3406   10.2557 C   0  0  0  0  0  0  0  0  0  0  0  0
    0.8398  -11.6420   11.1659 C   0  0  1  0  0  0  0  0  0  0  0  0
    0.8651  -10.2092   11.0549 O   0  0  0  0  0  0  0  0  0  0  0  0
   -0.6023  -11.9609   10.8062 C   0  0  1  0  0  0  0  0  0  0  0  0
   -1.1050  -13.2617   11.1723 O   0  0  0  0  0  0  0  0  0  0  0  0
   -1.3150  -10.8179   11.4857 C   0  0  1  0  0  0  0  0  0  0  0  0
   -1.2993  -11.0022   12.8981 O   0  0  0  0  0  0  0  0  0  0  0  0
   -0.4459   -9.6455   11.1388 C   0  0  2  0  0  0  0  0  0  0  0  0
    7.3046   -9.0406    7.1255 O   0  0  0  0  0  0  0  0  0  0  0  0
   -4.2175   -8.6197    7.5334 N   0  0  0  0  0  0  0  0  0  0  0  0
   -4.2913   -9.3787    8.6537 C   0  0  0  0  0  0  0  0  0  0  0  0
   -3.2472   -9.5595    9.4797 N   0  0  0  0  0  0  0  0  0  0  0  0
   -2.0624   -8.9794    9.2581 C   0  0  0  0  0  0  0  0  0  0  0  0
   -1.9264   -8.1333    8.0821 C   0  0  0  0  0  0  0  0  0  0  0  0
   -3.0775   -7.9540    7.1673 C   0  0  0  0  0  0  0  0  0  0  0  0
   -3.0072   -7.1691    6.0351 N   0  0  0  0  0  0  0  0  0  0  0  0
   -0.6920   -7.6843    8.1065 N   0  0  0  0  0  0  0  0  0  0  0  0
   -0.0651   -8.1950    9.1752 C   0  0  0  0  0  0  0  0  0  0  0  0
   -0.8869   -8.9734    9.8783 N   0  0  0  0  0  0  0  0  0  0  0  0
  2  1  1  6  0  0  0
  2  3  1  0  0  0  0
  2  5  1  0  0  0  0
  3  4  1  0  0  0  0
  3 17  1  0  0  0  0
  5  6  1  0  0  0  0
  7  6  1  6  0  0  0
  7  8  1  0  0  0  0
  7  9  1  0  0  0  0
 10  9  1  6  0  0  0
 10 11  1  0  0  0  0
 10 12  1  0  0  0  0
 11 16  1  0  0  0  0
 12 13  1  1  0  0  0
 12 14  1  0  0  0  0
 14 15  1  1  0  0  0
 14 16  1  0  0  0  0
 16 27  1  6  0  0  0
 18 19  2  0  0  0  0
 18 23  1  0  0  0  0
 19 20  1  0  0  0  0
 20 21  2  0  0  0  0
 21 22  1  0  0  0  0
 21 27  1  0  0  0  0
 22 23  2  0  0  0  0
 22 25  1  0  0  0  0
 23 24  1  0  0  0  0
 25 26  2  0  0  0  0
 26 27  1  0  0  0  0
M  END
>  <CHROM.1>
142.02327485,-58.47999212,171.74693512,-53.91137328,-90.11233350,46.82576495
138.68242920,1.04018188,-9.88865929,9.31694774,0.04070010,0.09359016,-0.76929762

>  <Name>
ligand

>  <RI>
0

>  <Rbt.Current_Directory>
/home/itssahil/PROJECTS/Mol_Feturizer/Test_systems_manuscript/rnas/4kqy

>  <Rbt.Executable>
rbdock ($Id: //depot/dev/client3/rdock/2013.1/src/exe/rbdock.cxx#4 $)

>  <Rbt.Library>
libRbt.so (2013.1, Build901 2013/11/27)

>  <Rbt.Parameter_File>
/export/apps/rDock/src/rDock_2013.1_src/data/scripts/dock_solv.prm

>  <Rbt.Receptor>
prm/blind_docking_80.prm

>  <SCORE>
-18.3915

>  <SCORE.INTER>
-16.837

>  <SCORE.INTER.CONST>
1

>  <SCORE.INTER.POLAR>
0

>  <SCORE.INTER.ROT>
7

>  <SCORE.INTER.SOLV>
14.9415

>  <SCORE.INTER.VDW>
-24.4718

>  <SCORE.INTER.norm>
-0.623592

>  <SCORE.INTRA>
-1.55454

>  <SCORE.INTRA.DIHEDRAL>
-4.40348

>  <SCORE.INTRA.DIHEDRAL.0>
10.4103

>  <SCORE.INTRA.POLAR>
0

>  <SCORE.INTRA.POLAR.0>
0

>  <SCORE.INTRA.REPUL>
0

>  <SCORE.INTRA.REPUL.0>
0

>  <SCORE.INTRA.SOLV>
0.255806

>  <SCORE.INTRA.SOLV.lig_0>
-49.5008

>  <SCORE.INTRA.VDW>
0.519296

>  <SCORE.INTRA.VDW.0>
-2.6946

>  <SCORE.INTRA.norm>
-0.0575755

>  <SCORE.RESTR>
0

>  <SCORE.RESTR.CAVITY>
0

>  <SCORE.RESTR.norm>
0

>  <SCORE.SYSTEM>
0

>  <SCORE.SYSTEM.CONST>
0

>  <SCORE.SYSTEM.DIHEDRAL>
0

>  <SCORE.SYSTEM.SOLV>
0

>  <SCORE.SYSTEM.norm>
0

>  <SCORE.heavy>
27

>  <SCORE.norm>
-0.681167

>  <RMSD>
11.637

$$$$
ligand
 OpenBabel02271912153D
libRbt.so/2013.1/901 2013/11/27
 27 29  0  0  0  0  0  0  0  0999 V2000
   -3.7631  -10.8691   13.2150 N   0  0  0  0  0  0  0  0  0  0  0  0
   -2.3930  -11.2599   12.9424 C   0  0  2  0  0  0  0  0  0  0  0  0
   -2.2512  -12.6958   13.3437 C   0  0  0  0  0  0  0  0  0  0  0  0
   -2.5113  -13.0290   14.5199 O   0  0  0  0  0  0  0  0  0  0  0  0
   -1.4191  -10.3870   13.7385 C   0  0  0  0  0  0  0  0  0  0  0  0
   -0.7358   -9.3352   12.8367 C   0  0  0  0  0  0  0  0  0  0  0  0
    0.4957   -9.9140   11.8550 S   0  0  2  0  0  0  0  0  0  0  0  0
    0.9193   -8.7442   10.7547 C   0  0  0  0  0  0  0  0  0  0  0  0
   -0.0145  -11.3173   11.0682 C   0  0  0  0  0  0  0  0  0  0  0  0
    1.0930  -12.3775   10.8919 C   0  0  1  0  0  0  0  0  0  0  0  0
    1.9472  -12.1219    9.7645 O   0  0  0  0  0  0  0  0  0  0  0  0
    2.0885  -12.4137   12.0402 C   0  0  1  0  0  0  0  0  0  0  0  0
    1.6549  -13.0187   13.2749 O   0  0  0  0  0  0  0  0  0  0  0  0
    3.2423  -13.1294   11.3822 C   0  0  1  0  0  0  0  0  0  0  0  0
    2.9252  -14.5064   11.2027 O   0  0  0  0  0  0  0  0  0  0  0  0
    3.3074  -12.4663   10.0382 C   0  0  2  0  0  0  0  0  0  0  0  0
   -1.9050  -13.5429   12.4859 O   0  0  0  0  0  0  0  0  0  0  0  0
    5.5103   -8.3339    7.5191 N   0  0  0  0  0  0  0  0  0  0  0  0
    4.6066   -9.2321    7.0574 C   0  0  0  0  0  0  0  0  0  0  0  0
    4.1357  -10.2417    7.8085 N   0  0  0  0  0  0  0  0  0  0  0  0
    4.5166  -10.4142    9.0791 C   0  0  0  0  0  0  0  0  0  0  0  0
    5.4691   -9.4680    9.6402 C   0  0  0  0  0  0  0  0  0  0  0  0
    5.9966   -8.3685    8.7993 C   0  0  0  0  0  0  0  0  0  0  0  0
    6.9047   -7.4449    9.2738 N   0  0  0  0  0  0  0  0  0  0  0  0
    5.6604   -9.8488   10.8829 N   0  0  0  0  0  0  0  0  0  0  0  0
    4.9285  -10.9464   11.1183 C   0  0  0  0  0  0  0  0  0  0  0  0
    4.2312  -11.2909   10.0363 N   0  0  0  0  0  0  0  0  0  0  0  0
  2  1  1  1  0  0  0
  2  3  1  0  0  0  0
  2  5  1  0  0  0  0
  3  4  1  0  0  0  0
  3 17  1  0  0  0  0
  5  6  1  0  0  0  0
  7  6  1  1  0  0  0
  7  8  1  0  0  0  0
  7  9  1  0  0  0  0
 10  9  1  1  0  0  0
 10 11  1  0  0  0  0
 10 12  1  0  0  0  0
 11 16  1  0  0  0  0
 12 13  1  1  0  0  0
 12 14  1  0  0  0  0
 14 15  1  6  0  0  0
 14 16  1  0  0  0  0
 16 27  1  1  0  0  0
 18 19  2  0  0  0  0
 18 23  1  0  0  0  0
 19 20  1  0  0  0  0
 20 21  2  0  0  0  0
 21 22  1  0  0  0  0
 21 27  1  0  0  0  0
 22 23  2  0  0  0  0
 22 25  1  0  0  0  0
 23 24  1  0  0  0  0
 25 26  2  0  0  0  0
 26 27  1  0  0  0  0
M  END
>  <CHROM.1>
-57.58693112,-104.35043288,-76.79460676,169.18657841,-143.72117224,-81.61991955
-59.55451196,1.85899658,-10.99897747,11.08537061,2.73570004,-0.46198912,2.90791600

>  <Name>
ligand

>  <RI>
0

>  <Rbt.Current_Directory>
/home/itssahil/PROJECTS/Mol_Feturizer/Test_systems_manuscript/rnas/4kqy

>  <Rbt.Executable>
rbdock ($Id: //depot/dev/client3/rdock/2013.1/src/exe/rbdock.cxx#4 $)

>  <Rbt.Library>
libRbt.so (2013.1, Build901 2013/11/27)

>  <Rbt.Parameter_File>
/export/apps/rDock/src/rDock_2013.1_src/data/scripts/dock_solv.prm

>  <Rbt.Receptor>
prm/blind_docking_20.prm

>  <SCORE>
-6.12977

>  <SCORE.INTER>
-8.33812

>  <SCORE.INTER.CONST>
1

>  <SCORE.INTER.POLAR>
0

>  <SCORE.INTER.ROT>
7

>  <SCORE.INTER.SOLV>
9.40099

>  <SCORE.INTER.VDW>
-16.9591

>  <SCORE.INTER.norm>
-0.308819

>  <SCORE.INTRA>
2.20516

>  <SCORE.INTRA.DIHEDRAL>
3.23808

>  <SCORE.INTRA.DIHEDRAL.0>
10.4103

>  <SCORE.INTRA.POLAR>
0

>  <SCORE.INTRA.POLAR.0>
0

>  <SCORE.INTRA.REPUL>
0

>  <SCORE.INTRA.REPUL.0>
0

>  <SCORE.INTRA.SOLV>
0.459802

>  <SCORE.INTRA.SOLV.lig_0>
-49.5008

>  <SCORE.INTRA.VDW>
0.356216

>  <SCORE.INTRA.VDW.0>
-2.6946

>  <SCORE.INTRA.norm>
0.0816726

>  <SCORE.RESTR>
0.00319049

>  <SCORE.RESTR.CAVITY>
0.00319049

>  <SCORE.RESTR.norm>
0.000118166

>  <SCORE.SYSTEM>
0

>  <SCORE.SYSTEM.CONST>
0

>  <SCORE.SYSTEM.DIHEDRAL>
0

>  <SCORE.SYSTEM.SOLV>
0

>  <SCORE.SYSTEM.norm>
0

>  <SCORE.heavy>
27

>  <SCORE.norm>
-0.227029

>  <RMSD>
11.638

$$$$
ligand
 OpenBabel02271912153D
libRbt.so/2013.1/901 2013/11/27
 27 29  0  0  0  0  0  0  0  0999 V2000
    8.5190   -7.9472   11.0998 N   0  0  0  0  0  0  0  0  0  0  0  0
    7.9659   -8.0611    9.7636 C   0  0  2  0  0  0  0  0  0  0  0  0
    7.4280   -6.7147    9.3881 C   0  0  0  0  0  0  0  0  0  0  0  0
    6.7423   -6.0789   10.2174 O   0  0  0  0  0  0  0  0  0  0  0  0
    6.8480   -9.1069    9.7345 C   0  0  0  0  0  0  0  0  0  0  0  0
    6.2889   -9.2972    8.3070 C   0  0  0  0  0  0  0  0  0  0  0  0
    4.8383  -10.1339    8.2037 S   0  0  2  0  0  0  0  0  0  0  0  0
    4.3061  -10.1222    6.6303 C   0  0  0  0  0  0  0  0  0  0  0  0
    3.6972   -9.4248    9.2253 C   0  0  0  0  0  0  0  0  0  0  0  0
    2.2358   -9.6263    8.7719 C   0  0  1  0  0  0  0  0  0  0  0  0
    1.7564  -10.9645    8.9848 O   0  0  0  0  0  0  0  0  0  0  0  0
    1.2341   -8.8025    9.5648 C   0  0  1  0  0  0  0  0  0  0  0  0
    1.1656   -7.3903    9.2823 O   0  0  0  0  0  0  0  0  0  0  0  0
   -0.0408   -9.5486    9.2578 C   0  0  1  0  0  0  0  0  0  0  0  0
   -0.4367   -9.3069    7.9110 O   0  0  0  0  0  0  0  0  0  0  0  0
    0.3854  -10.9808    9.3895 C   0  0  2  0  0  0  0  0  0  0  0  0
    7.7008   -6.2356    8.2615 O   0  0  0  0  0  0  0  0  0  0  0  0
   -0.5032  -10.1153   14.5602 N   0  0  0  0  0  0  0  0  0  0  0  0
   -0.3801   -9.2168   13.5531 C   0  0  0  0  0  0  0  0  0  0  0  0
   -0.1467   -9.5786   12.2803 N   0  0  0  0  0  0  0  0  0  0  0  0
   -0.0408  -10.8621   11.9188 C   0  0  0  0  0  0  0  0  0  0  0  0
   -0.1862  -11.8762   12.9522 C   0  0  0  0  0  0  0  0  0  0  0  0
   -0.4255  -11.4676   14.3558 C   0  0  0  0  0  0  0  0  0  0  0  0
   -0.5663  -12.3824   15.3786 N   0  0  0  0  0  0  0  0  0  0  0  0
   -0.0552  -13.0310   12.3398 N   0  0  0  0  0  0  0  0  0  0  0  0
    0.1749  -12.8088   11.0384 C   0  0  0  0  0  0  0  0  0  0  0  0
    0.1798  -11.5025   10.7753 N   0  0  0  0  0  0  0  0  0  0  0  0
  2  1  1  1  0  0  0
  2  3  1  0  0  0  0
  2  5  1  0  0  0  0
  3  4  1  0  0  0  0
  3 17  1  0  0  0  0
  5  6  1  0  0  0  0
  7  6  1  6  0  0  0
  7  8  1  0  0  0  0
  7  9  1  0  0  0  0
 10  9  1  1  0  0  0
 10 11  1  0  0  0  0
 10 12  1  0  0  0  0
 11 16  1  0  0  0  0
 12 13  1  6  0  0  0
 12 14  1  0  0  0  0
 14 15  1  6  0  0  0
 14 16  1  0  0  0  0
 16 27  1  1  0  0  0
 18 19  2  0  0  0  0
 18 23  1  0  0  0  0
 19 20  1  0  0  0  0
 20 21  2  0  0  0  0
 21 22  1  0  0  0  0
 21 27  1  0  0  0  0
 22 23  2  0  0  0  0
 22 25  1  0  0  0  0
 23 24  1  0  0  0  0
 25 26  2  0  0  0  0
 26 27  1  0  0  0  0
M  END
>  <CHROM.1>
-45.22349623,-177.20467910,-166.15058383,174.56460116,152.76932532,73.62997203
101.40126322,2.72342378,-9.68161015,10.29303711,-0.43204657,0.41672214,1.60007550

>  <Name>
ligand

>  <RI>
0

>  <Rbt.Current_Directory>
/home/itssahil/PROJECTS/Mol_Feturizer/Test_systems_manuscript/rnas/4kqy

>  <Rbt.Executable>
rbdock ($Id: //depot/dev/client3/rdock/2013.1/src/exe/rbdock.cxx#4 $)

>  <Rbt.Library>
libRbt.so (2013.1, Build901 2013/11/27)

>  <Rbt.Parameter_File>
/export/apps/rDock/src/rDock_2013.1_src/data/scripts/dock_solv.prm

>  <Rbt.Receptor>
prm/blind_docking_20.prm

>  <SCORE>
-12.306

>  <SCORE.INTER>
-10.9347

>  <SCORE.INTER.CONST>
1

>  <SCORE.INTER.POLAR>
0

>  <SCORE.INTER.ROT>
7

>  <SCORE.INTER.SOLV>
6.21725

>  <SCORE.INTER.VDW>
-17.6289

>  <SCORE.INTER.norm>
-0.40499

>  <SCORE.INTRA>
-1.37128

>  <SCORE.INTRA.DIHEDRAL>
-4.03128

>  <SCORE.INTRA.DIHEDRAL.0>
10.4103

>  <SCORE.INTRA.POLAR>
0

>  <SCORE.INTRA.POLAR.0>
0

>  <SCORE.INTRA.REPUL>
0

>  <SCORE.INTRA.REPUL.0>
0

>  <SCORE.INTRA.SOLV>
-0.6474

>  <SCORE.INTRA.SOLV.lig_0>
-49.5008

>  <SCORE.INTRA.VDW>
0.968061

>  <SCORE.INTRA.VDW.0>
-2.6946

>  <SCORE.INTRA.norm>
-0.050788

>  <SCORE.RESTR>
0

>  <SCORE.RESTR.CAVITY>
0

>  <SCORE.RESTR.norm>
0

>  <SCORE.SYSTEM>
0

>  <SCORE.SYSTEM.CONST>
0

>  <SCORE.SYSTEM.DIHEDRAL>
0

>  <SCORE.SYSTEM.SOLV>
0

>  <SCORE.SYSTEM.norm>
0

>  <SCORE.heavy>
27

>  <SCORE.norm>
-0.455778

>  <RMSD>
11.711

$$$$
ligand
 OpenBabel02271912153D
libRbt.so/2013.1/901 2013/11/27
 27 29  0  0  0  0  0  0  0  0999 V2000
    4.6829  -10.2234    6.3280 N   0  0  0  0  0  0  0  0  0  0  0  0
    4.7016   -9.0774    7.2171 C   0  0  2  0  0  0  0  0  0  0  0  0
    6.1365   -8.7687    7.5156 C   0  0  0  0  0  0  0  0  0  0  0  0
    7.0195   -9.5855    7.1759 O   0  0  0  0  0  0  0  0  0  0  0  0
    3.9454   -9.3914    8.5108 C   0  0  0  0  0  0  0  0  0  0  0  0
    4.5199  -10.6422    9.2121 C   0  0  0  0  0  0  0  0  0  0  0  0
    3.6987  -11.1420   10.5873 S   0  0  2  0  0  0  0  0  0  0  0  0
    4.5886  -12.3073   11.3676 C   0  0  0  0  0  0  0  0  0  0  0  0
    2.1791  -11.7385   10.1585 C   0  0  0  0  0  0  0  0  0  0  0  0
    1.0263  -11.2162   11.0417 C   0  0  1  0  0  0  0  0  0  0  0  0
    0.8903   -9.7857   11.0074 O   0  0  0  0  0  0  0  0  0  0  0  0
   -0.3480  -11.6749   10.5817 C   0  0  1  0  0  0  0  0  0  0  0  0
   -0.7141  -13.0436   10.8492 O   0  0  0  0  0  0  0  0  0  0  0  0
   -1.2236  -10.6620   11.2769 C   0  0  1  0  0  0  0  0  0  0  0  0
   -1.2605  -10.9259   12.6762 O   0  0  0  0  0  0  0  0  0  0  0  0
   -0.4801   -9.3803   11.0434 C   0  0  2  0  0  0  0  0  0  0  0  0
    6.4294   -7.6834    8.0719 O   0  0  0  0  0  0  0  0  0  0  0  0
   -4.2581   -8.3516    7.4456 N   0  0  0  0  0  0  0  0  0  0  0  0
   -4.3209   -9.1361    8.5488 C   0  0  0  0  0  0  0  0  0  0  0  0
   -3.2764   -9.3141    9.3750 N   0  0  0  0  0  0  0  0  0  0  0  0
   -2.1026   -8.7057    9.1710 C   0  0  0  0  0  0  0  0  0  0  0  0
   -1.9793   -7.8316    8.0142 C   0  0  0  0  0  0  0  0  0  0  0  0
   -3.1304   -7.6554    7.0988 C   0  0  0  0  0  0  0  0  0  0  0  0
   -3.0717   -6.8447    5.9843 N   0  0  0  0  0  0  0  0  0  0  0  0
   -0.7542   -7.3586    8.0535 N   0  0  0  0  0  0  0  0  0  0  0  0
   -0.1212   -7.8800    9.1134 C   0  0  0  0  0  0  0  0  0  0  0  0
   -0.9298   -8.6898    9.7960 N   0  0  0  0  0  0  0  0  0  0  0  0
  2  1  1  6  0  0  0
  2  3  1  0  0  0  0
  2  5  1  0  0  0  0
  3  4  1  0  0  0  0
  3 17  1  0  0  0  0
  5  6  1  0  0  0  0
  7  6  1  6  0  0  0
  7  8  1  0  0  0  0
  7  9  1  0  0  0  0
 10  9  1  6  0  0  0
 10 11  1  0  0  0  0
 10 12  1  0  0  0  0
 11 16  1  0  0  0  0
 12 13  1  1  0  0  0
 12 14  1  0  0  0  0
 14 15  1  1  0  0  0
 14 16  1  0  0  0  0
 16 27  1  6  0  0  0
 18 19  2  0  0  0  0
 18 23  1  0  0  0  0
 19 20  1  0  0  0  0
 20 21  2  0  0  0  0
 21 22  1  0  0  0  0
 21 27  1  0  0  0  0
 22 23  2  0  0  0  0
 22 25  1  0  0  0  0
 23 24  1  0  0  0  0
 25 26  2  0  0  0  0
 26 27  1  0  0  0  0
M  END
>  <CHROM.1>
-10.72562839,56.24209958,-175.93923019,-169.73991623,-133.91487097,59.90270614
145.19673840,1.04959506,-9.71624632,9.26317751,-0.07068814,0.12645481,-0.86021832

>  <Name>
ligand

>  <RI>
0

>  <Rbt.Current_Directory>
/home/itssahil/PROJECTS/Mol_Feturizer/Test_systems_manuscript/rnas/4kqy

>  <Rbt.Executable>
rbdock ($Id: //depot/dev/client3/rdock/2013.1/src/exe/rbdock.cxx#4 $)

>  <Rbt.Library>
libRbt.so (2013.1, Build901 2013/11/27)

>  <Rbt.Parameter_File>
/export/apps/rDock/src/rDock_2013.1_src/data/scripts/dock_solv.prm

>  <Rbt.Receptor>
prm/blind_docking_20.prm

>  <SCORE>
-18.0326

>  <SCORE.INTER>
-17.1414

>  <SCORE.INTER.CONST>
1

>  <SCORE.INTER.POLAR>
0

>  <SCORE.INTER.ROT>
7

>  <SCORE.INTER.SOLV>
14.6257

>  <SCORE.INTER.VDW>
-24.5695

>  <SCORE.INTER.norm>
-0.634868

>  <SCORE.INTRA>
-0.891182

>  <SCORE.INTRA.DIHEDRAL>
-3.15686

>  <SCORE.INTRA.DIHEDRAL.0>
10.4103

>  <SCORE.INTRA.POLAR>
0

>  <SCORE.INTRA.POLAR.0>
0

>  <SCORE.INTRA.REPUL>
0

>  <SCORE.INTRA.REPUL.0>
0

>  <SCORE.INTRA.SOLV>
0.183277

>  <SCORE.INTRA.SOLV.lig_0>
-49.5008

>  <SCORE.INTRA.VDW>
0.595609

>  <SCORE.INTRA.VDW.0>
-2.6946

>  <SCORE.INTRA.norm>
-0.0330068

>  <SCORE.RESTR>
0

>  <SCORE.RESTR.CAVITY>
0

>  <SCORE.RESTR.norm>
0

>  <SCORE.SYSTEM>
0

>  <SCORE.SYSTEM.CONST>
0

>  <SCORE.SYSTEM.DIHEDRAL>
0

>  <SCORE.SYSTEM.SOLV>
0

>  <SCORE.SYSTEM.norm>
0

>  <SCORE.heavy>
27

>  <SCORE.norm>
-0.667875

>  <RMSD>
11.736

$$$$
ligand
 OpenBabel02271912153D
libRbt.so/2013.1/901 2013/11/27
 27 29  0  0  0  0  0  0  0  0999 V2000
    6.2480   -8.7552    9.0442 N   0  0  0  0  0  0  0  0  0  0  0  0
    6.1934   -8.9904    7.6139 C   0  0  2  0  0  0  0  0  0  0  0  0
    4.7686   -8.8130    7.1876 C   0  0  0  0  0  0  0  0  0  0  0  0
    4.4793   -8.9015    5.9748 O   0  0  0  0  0  0  0  0  0  0  0  0
    6.6738  -10.4066    7.2856 C   0  0  0  0  0  0  0  0  0  0  0  0
    5.6952  -11.4744    7.8230 C   0  0  0  0  0  0  0  0  0  0  0  0
    5.6804  -11.6690    9.4895 S   0  0  2  0  0  0  0  0  0  0  0  0
    7.0596  -12.4637    9.9638 C   0  0  0  0  0  0  0  0  0  0  0  0
    4.3053  -12.5324    9.9503 C   0  0  0  0  0  0  0  0  0  0  0  0
    3.7855  -12.1813   11.3604 C   0  0  1  0  0  0  0  0  0  0  0  0
    3.5983  -10.7702   11.5597 O   0  0  0  0  0  0  0  0  0  0  0  0
    2.3969  -12.7277   11.6500 C   0  0  1  0  0  0  0  0  0  0  0  0
    2.2827  -14.1395   11.9194 O   0  0  0  0  0  0  0  0  0  0  0  0
    1.9918  -11.8507   12.8089 C   0  0  1  0  0  0  0  0  0  0  0  0
    2.7196  -12.2172   13.9773 O   0  0  0  0  0  0  0  0  0  0  0  0
    2.4459  -10.4937   12.3591 C   0  0  2  0  0  0  0  0  0  0  0  0
    3.8871   -8.6105    8.0566 O   0  0  0  0  0  0  0  0  0  0  0  0
   -0.2899   -9.5824    7.8912 N   0  0  0  0  0  0  0  0  0  0  0  0
    0.7214  -10.4578    8.1095 C   0  0  0  0  0  0  0  0  0  0  0  0
    1.3338  -10.5796    9.2992 N   0  0  0  0  0  0  0  0  0  0  0  0
    0.9668   -9.8525   10.3604 C   0  0  0  0  0  0  0  0  0  0  0  0
   -0.1293   -8.9098   10.1953 C   0  0  0  0  0  0  0  0  0  0  0  0
   -0.7867   -8.7692    8.8754 C   0  0  0  0  0  0  0  0  0  0  0  0
   -1.8265   -7.8894    8.6570 N   0  0  0  0  0  0  0  0  0  0  0  0
   -0.2943   -8.3454   11.3701 N   0  0  0  0  0  0  0  0  0  0  0  0
    0.6113   -8.8443   12.2227 C   0  0  0  0  0  0  0  0  0  0  0  0
    1.3727   -9.7583   11.6224 N   0  0  0  0  0  0  0  0  0  0  0  0
  2  1  1  1  0  0  0
  2  3  1  0  0  0  0
  2  5  1  0  0  0  0
  3  4  1  0  0  0  0
  3 17  1  0  0  0  0
  5  6  1  0  0  0  0
  7  6  1  6  0  0  0
  7  8  1  0  0  0  0
  7  9  1  0  0  0  0
 10  9  1  6  0  0  0
 10 11  1  0  0  0  0
 10 12  1  0  0  0  0
 11 16  1  0  0  0  0
 12 13  1  1  0  0  0
 12 14  1  0  0  0  0
 14 15  1  1  0  0  0
 14 16  1  0  0  0  0
 16 27  1  6  0  0  0
 18 19  2  0  0  0  0
 18 23  1  0  0  0  0
 19 20  1  0  0  0  0
 20 21  2  0  0  0  0
 21 22  1  0  0  0  0
 21 27  1  0  0  0  0
 22 23  2  0  0  0  0
 22 25  1  0  0  0  0
 23 24  1  0  0  0  0
 25 26  2  0  0  0  0
 26 27  1  0  0  0  0
M  END
>  <CHROM.1>
176.51817781,67.40891934,-71.51274062,-73.68652979,-150.27374837,51.82663015
36.58371150,3.01775197,-10.47233606,9.86355248,0.18901092,0.35488144,-0.94315492

>  <Name>
ligand

>  <RI>
0

>  <Rbt.Current_Directory>
/home/itssahil/PROJECTS/Mol_Feturizer/Test_systems_manuscript/rnas/4kqy

>  <Rbt.Executable>
rbdock ($Id: //depot/dev/client3/rdock/2013.1/src/exe/rbdock.cxx#4 $)

>  <Rbt.Library>
libRbt.so (2013.1, Build901 2013/11/27)

>  <Rbt.Parameter_File>
/export/apps/rDock/src/rDock_2013.1_src/data/scripts/dock_solv.prm

>  <Rbt.Receptor>
prm/blind_docking_40.prm

>  <SCORE>
-14.273

>  <SCORE.INTER>
-12.8632

>  <SCORE.INTER.CONST>
1

>  <SCORE.INTER.POLAR>
0

>  <SCORE.INTER.ROT>
7

>  <SCORE.INTER.SOLV>
13.4754

>  <SCORE.INTER.VDW>
-21.334

>  <SCORE.INTER.norm>
-0.476416

>  <SCORE.INTRA>
-1.40979

>  <SCORE.INTRA.DIHEDRAL>
-3.85919

>  <SCORE.INTRA.DIHEDRAL.0>
10.4103

>  <SCORE.INTRA.POLAR>
0

>  <SCORE.INTRA.POLAR.0>
0

>  <SCORE.INTRA.REPUL>
0

>  <SCORE.INTRA.REPUL.0>
0

>  <SCORE.INTRA.SOLV>
2.15141

>  <SCORE.INTRA.SOLV.lig_0>
-49.5008

>  <SCORE.INTRA.VDW>
-0.555905

>  <SCORE.INTRA.VDW.0>
-2.6946

>  <SCORE.INTRA.norm>
-0.0522146

>  <SCORE.RESTR>
0

>  <SCORE.RESTR.CAVITY>
0

>  <SCORE.RESTR.norm>
0

>  <SCORE.SYSTEM>
0

>  <SCORE.SYSTEM.CONST>
0

>  <SCORE.SYSTEM.DIHEDRAL>
0

>  <SCORE.SYSTEM.SOLV>
0

>  <SCORE.SYSTEM.norm>
0

>  <SCORE.heavy>
27

>  <SCORE.norm>
-0.528631

>  <RMSD>
11.776

$$$$
ligand
 OpenBabel02271912153D
libRbt.so/2013.1/901 2013/11/27
 27 29  0  0  0  0  0  0  0  0999 V2000
    4.3300   -9.1823    6.1659 N   0  0  0  0  0  0  0  0  0  0  0  0
    5.2343   -9.2626    7.2973 C   0  0  2  0  0  0  0  0  0  0  0  0
    5.8792  -10.6138    7.2568 C   0  0  0  0  0  0  0  0  0  0  0  0
    5.4328  -11.4795    6.4736 O   0  0  0  0  0  0  0  0  0  0  0  0
    4.4672   -9.0790    8.6095 C   0  0  0  0  0  0  0  0  0  0  0  0
    3.2929  -10.0763    8.7223 C   0  0  0  0  0  0  0  0  0  0  0  0
    3.3539  -11.1207   10.0341 S   0  0  2  0  0  0  0  0  0  0  0  0
    4.6487  -12.1467    9.8618 C   0  0  0  0  0  0  0  0  0  0  0  0
    1.9117  -11.9913   10.1372 C   0  0  0  0  0  0  0  0  0  0  0  0
    0.8467  -11.3389   11.0438 C   0  0  1  0  0  0  0  0  0  0  0  0
    0.8236   -9.9049   10.9485 O   0  0  0  0  0  0  0  0  0  0  0  0
   -0.5798  -11.7033   10.6654 C   0  0  1  0  0  0  0  0  0  0  0  0
   -1.0409  -13.0246   11.0122 O   0  0  0  0  0  0  0  0  0  0  0  0
   -1.3385  -10.5931   11.3496 C   0  0  1  0  0  0  0  0  0  0  0  0
   -1.3309  -10.7924   12.7599 O   0  0  0  0  0  0  0  0  0  0  0  0
   -0.5070   -9.3877   11.0245 C   0  0  2  0  0  0  0  0  0  0  0  0
    6.8741  -10.8426    7.9855 O   0  0  0  0  0  0  0  0  0  0  0  0
   -4.3047   -8.3740    7.4431 N   0  0  0  0  0  0  0  0  0  0  0  0
   -4.3691   -9.1327    8.5642 C   0  0  0  0  0  0  0  0  0  0  0  0
   -3.3191   -9.3103    9.3835 N   0  0  0  0  0  0  0  0  0  0  0  0
   -2.1375   -8.7268    9.1541 C   0  0  0  0  0  0  0  0  0  0  0  0
   -2.0115   -7.8808    7.9769 C   0  0  0  0  0  0  0  0  0  0  0  0
   -3.1690   -7.7050    7.0695 C   0  0  0  0  0  0  0  0  0  0  0  0
   -3.1083   -6.9203    5.9367 N   0  0  0  0  0  0  0  0  0  0  0  0
   -0.7783   -7.4281    7.9932 N   0  0  0  0  0  0  0  0  0  0  0  0
   -0.1430   -7.9367    9.0580 C   0  0  0  0  0  0  0  0  0  0  0  0
   -0.9580   -8.7173    9.7666 N   0  0  0  0  0  0  0  0  0  0  0  0
  2  1  1  6  0  0  0
  2  3  1  0  0  0  0
  2  5  1  0  0  0  0
  3  4  1  0  0  0  0
  3 17  1  0  0  0  0
  5  6  1  0  0  0  0
  7  6  1  6  0  0  0
  7  8  1  0  0  0  0
  7  9  1  0  0  0  0
 10  9  1  6  0  0  0
 10 11  1  0  0  0  0
 10 12  1  0  0  0  0
 11 16  1  0  0  0  0
 12 13  1  1  0  0  0
 12 14  1  0  0  0  0
 14 15  1  1  0  0  0
 14 16  1  0  0  0  0
 16 27  1  6  0  0  0
 18 19  2  0  0  0  0
 18 23  1  0  0  0  0
 19 20  1  0  0  0  0
 20 21  2  0  0  0  0
 21 22  1  0  0  0  0
 21 27  1  0  0  0  0
 22 23  2  0  0  0  0
 22 25  1  0  0  0  0
 23 24  1  0  0  0  0
 25 26  2  0  0  0  0
 26 27  1  0  0  0  0
M  END
>  <CHROM.1>
-10.97201739,54.27332673,119.96465929,-66.12931542,-92.22623480,37.55467864
140.83632312,0.88977248,-9.93234899,9.10535333,-0.07448064,0.24285308,-0.93280305

>  <Name>
ligand

>  <RI>
0

>  <Rbt.Current_Directory>
/home/itssahil/PROJECTS/Mol_Feturizer/Test_systems_manuscript/rnas/4kqy

>  <Rbt.Executable>
rbdock ($Id: //depot/dev/client3/rdock/2013.1/src/exe/rbdock.cxx#4 $)

>  <Rbt.Library>
libRbt.so (2013.1, Build901 2013/11/27)

>  <Rbt.Parameter_File>
/export/apps/rDock/src/rDock_2013.1_src/data/scripts/dock_solv.prm

>  <Rbt.Receptor>
prm/blind_docking_20.prm

>  <SCORE>
-15.9279

>  <SCORE.INTER>
-17.5354

>  <SCORE.INTER.CONST>
1

>  <SCORE.INTER.POLAR>
0

>  <SCORE.INTER.ROT>
7

>  <SCORE.INTER.SOLV>
18.1715

>  <SCORE.INTER.VDW>
-26.0141

>  <SCORE.INTER.norm>
-0.649459

>  <SCORE.INTRA>
1.60754

>  <SCORE.INTRA.DIHEDRAL>
2.39452

>  <SCORE.INTRA.DIHEDRAL.0>
10.4103

>  <SCORE.INTRA.POLAR>
0

>  <SCORE.INTRA.POLAR.0>
0

>  <SCORE.INTRA.REPUL>
0

>  <SCORE.INTRA.REPUL.0>
0

>  <SCORE.INTRA.SOLV>
0.343833

>  <SCORE.INTRA.SOLV.lig_0>
-49.5008

>  <SCORE.INTRA.VDW>
0.238364

>  <SCORE.INTRA.VDW.0>
-2.6946

>  <SCORE.INTRA.norm>
0.0595385

>  <SCORE.RESTR>
0

>  <SCORE.RESTR.CAVITY>
0

>  <SCORE.RESTR.norm>
0

>  <SCORE.SYSTEM>
0

>  <SCORE.SYSTEM.CONST>
0

>  <SCORE.SYSTEM.DIHEDRAL>
0

>  <SCORE.SYSTEM.SOLV>
0

>  <SCORE.SYSTEM.norm>
0

>  <SCORE.heavy>
27

>  <SCORE.norm>
-0.589921

>  <RMSD>
11.779

$$$$
ligand
 OpenBabel02271912153D
libRbt.so/2013.1/901 2013/11/27
 27 29  0  0  0  0  0  0  0  0999 V2000
    8.4599   -9.4167    8.6966 N   0  0  0  0  0  0  0  0  0  0  0  0
    7.2822  -10.1049    8.2031 C   0  0  2  0  0  0  0  0  0  0  0  0
    6.2665   -9.0591    7.8596 C   0  0  0  0  0  0  0  0  0  0  0  0
    5.6452   -9.1442    6.7784 O   0  0  0  0  0  0  0  0  0  0  0  0
    6.7291  -11.0524    9.2710 C   0  0  0  0  0  0  0  0  0  0  0  0
    5.4985  -11.8301    8.7542 C   0  0  0  0  0  0  0  0  0  0  0  0
    4.6836  -12.7416    9.9033 S   0  0  2  0  0  0  0  0  0  0  0  0
    4.1949  -11.7533   11.1455 C   0  0  0  0  0  0  0  0  0  0  0  0
    5.6912  -13.9681   10.4772 C   0  0  0  0  0  0  0  0  0  0  0  0
    4.9445  -15.1080   11.2016 C   0  0  1  0  0  0  0  0  0  0  0  0
    4.1213  -14.6464   12.2857 O   0  0  0  0  0  0  0  0  0  0  0  0
    3.9344  -15.8280   10.3229 C   0  0  1  0  0  0  0  0  0  0  0  0
    4.4486  -16.7433    9.3347 O   0  0  0  0  0  0  0  0  0  0  0  0
    3.0738  -16.4849   11.3737 C   0  0  1  0  0  0  0  0  0  0  0  0
    3.7804  -17.5622   11.9812 O   0  0  0  0  0  0  0  0  0  0  0  0
    2.9020  -15.3867   12.3810 C   0  0  2  0  0  0  0  0  0  0  0  0
    6.0347   -8.1352    8.6756 O   0  0  0  0  0  0  0  0  0  0  0  0
   -1.9945  -13.8155   13.7341 N   0  0  0  0  0  0  0  0  0  0  0  0
   -1.1723  -14.6872   14.3671 C   0  0  0  0  0  0  0  0  0  0  0  0
    0.0495  -15.0012   13.9046 N   0  0  0  0  0  0  0  0  0  0  0  0
    0.5457  -14.4521   12.7903 C   0  0  0  0  0  0  0  0  0  0  0  0
   -0.2813  -13.4905   12.0770 C   0  0  0  0  0  0  0  0  0  0  0  0
   -1.6341  -13.1638   12.5843 C   0  0  0  0  0  0  0  0  0  0  0  0
   -2.4652  -12.2648   11.9487 N   0  0  0  0  0  0  0  0  0  0  0  0
    0.4338  -13.1003   11.0462 N   0  0  0  0  0  0  0  0  0  0  0  0
    1.6057  -13.7501   11.0597 C   0  0  0  0  0  0  0  0  0  0  0  0
    1.6832  -14.5639   12.1120 N   0  0  0  0  0  0  0  0  0  0  0  0
  2  1  1  1  0  0  0
  2  3  1  0  0  0  0
  2  5  1  0  0  0  0
  3  4  1  0  0  0  0
  3 17  1  0  0  0  0
  5  6  1  0  0  0  0
  7  6  1  6  0  0  0
  7  8  1  0  0  0  0
  7  9  1  0  0  0  0
 10  9  1  6  0  0  0
 10 11  1  0  0  0  0
 10 12  1  0  0  0  0
 11 16  1  0  0  0  0
 12 13  1  6  0  0  0
 12 14  1  0  0  0  0
 14 15  1  1  0  0  0
 14 16  1  0  0  0  0
 16 27  1  6  0  0  0
 18 19  2  0  0  0  0
 18 23  1  0  0  0  0
 19 20  1  0  0  0  0
 20 21  2  0  0  0  0
 21 22  1  0  0  0  0
 21 27  1  0  0  0  0
 22 23  2  0  0  0  0
 22 25  1  0  0  0  0
 23 24  1  0  0  0  0
 25 26  2  0  0  0  0
 26 27  1  0  0  0  0
M  END
>  <CHROM.1>
134.59129458,-178.26726587,-172.01639319,57.40860397,-162.56932712,-55.17322124
-131.48765623,3.29847443,-13.19224008,10.80072711,0.66033293,0.39888734,-0.30804249

>  <Name>
ligand

>  <RI>
0

>  <Rbt.Current_Directory>
/home/itssahil/PROJECTS/Mol_Feturizer/Test_systems_manuscript/rnas/4kqy

>  <Rbt.Executable>
rbdock ($Id: //depot/dev/client3/rdock/2013.1/src/exe/rbdock.cxx#4 $)

>  <Rbt.Library>
libRbt.so (2013.1, Build901 2013/11/27)

>  <Rbt.Parameter_File>
/export/apps/rDock/src/rDock_2013.1_src/data/scripts/dock_solv.prm

>  <Rbt.Receptor>
prm/blind_docking_80.prm

>  <SCORE>
-16.9631

>  <SCORE.INTER>
-13.5676

>  <SCORE.INTER.CONST>
1

>  <SCORE.INTER.POLAR>
0

>  <SCORE.INTER.ROT>
7

>  <SCORE.INTER.SOLV>
13.2362

>  <SCORE.INTER.VDW>
-21.7238

>  <SCORE.INTER.norm>
-0.502506

>  <SCORE.INTRA>
-3.39548

>  <SCORE.INTRA.DIHEDRAL>
-6.4659

>  <SCORE.INTRA.DIHEDRAL.0>
10.4103

>  <SCORE.INTRA.POLAR>
0

>  <SCORE.INTRA.POLAR.0>
0

>  <SCORE.INTRA.REPUL>
0

>  <SCORE.INTRA.REPUL.0>
0

>  <SCORE.INTRA.SOLV>
-0.433999

>  <SCORE.INTRA.SOLV.lig_0>
-49.5008

>  <SCORE.INTRA.VDW>
0.0544693

>  <SCORE.INTRA.VDW.0>
-2.6946

>  <SCORE.INTRA.norm>
-0.125758

>  <SCORE.RESTR>
0

>  <SCORE.RESTR.CAVITY>
0

>  <SCORE.RESTR.norm>
0

>  <SCORE.SYSTEM>
0

>  <SCORE.SYSTEM.CONST>
0

>  <SCORE.SYSTEM.DIHEDRAL>
0

>  <SCORE.SYSTEM.SOLV>
0

>  <SCORE.SYSTEM.norm>
0

>  <SCORE.heavy>
27

>  <SCORE.norm>
-0.628264

>  <RMSD>
11.781

$$$$
ligand
 OpenBabel02271912153D
libRbt.so/2013.1/901 2013/11/27
 27 29  0  0  0  0  0  0  0  0999 V2000
    7.9653   -9.5617    8.0941 N   0  0  0  0  0  0  0  0  0  0  0  0
    6.6373  -10.1202    7.9247 C   0  0  2  0  0  0  0  0  0  0  0  0
    5.8360   -9.1317    7.1347 C   0  0  0  0  0  0  0  0  0  0  0  0
    5.9794   -7.9108    7.3606 O   0  0  0  0  0  0  0  0  0  0  0  0
    5.9830  -10.3673    9.2866 C   0  0  0  0  0  0  0  0  0  0  0  0
    4.6178  -11.0750    9.1378 C   0  0  0  0  0  0  0  0  0  0  0  0
    3.6545  -11.0851   10.5116 S   0  0  2  0  0  0  0  0  0  0  0  0
    4.3946  -11.9828   11.6970 C   0  0  0  0  0  0  0  0  0  0  0  0
    2.1371  -11.7231   10.1391 C   0  0  0  0  0  0  0  0  0  0  0  0
    0.9933  -11.1825   11.0230 C   0  0  1  0  0  0  0  0  0  0  0  0
    0.8734   -9.7508   10.9808 O   0  0  0  0  0  0  0  0  0  0  0  0
   -0.3877  -11.6283   10.5702 C   0  0  1  0  0  0  0  0  0  0  0  0
   -0.7685  -12.9910   10.8469 O   0  0  0  0  0  0  0  0  0  0  0  0
   -1.2494  -10.6014   11.2624 C   0  0  1  0  0  0  0  0  0  0  0  0
   -1.2846  -10.8566   12.6633 O   0  0  0  0  0  0  0  0  0  0  0  0
   -0.4922   -9.3296   11.0189 C   0  0  2  0  0  0  0  0  0  0  0  0
    5.0596   -9.5440    6.2400 O   0  0  0  0  0  0  0  0  0  0  0  0
   -4.2564   -8.3150    7.4027 N   0  0  0  0  0  0  0  0  0  0  0  0
   -4.3218   -9.0991    8.5061 C   0  0  0  0  0  0  0  0  0  0  0  0
   -3.2807   -9.2732    9.3373 N   0  0  0  0  0  0  0  0  0  0  0  0
   -2.1079   -8.6613    9.1385 C   0  0  0  0  0  0  0  0  0  0  0  0
   -1.9819   -7.7875    7.9817 C   0  0  0  0  0  0  0  0  0  0  0  0
   -3.1292   -7.6155    7.0608 C   0  0  0  0  0  0  0  0  0  0  0  0
   -3.0678   -6.8053    5.9460 N   0  0  0  0  0  0  0  0  0  0  0  0
   -0.7586   -7.3106    8.0265 N   0  0  0  0  0  0  0  0  0  0  0  0
   -0.1289   -7.8293    9.0897 C   0  0  0  0  0  0  0  0  0  0  0  0
   -0.9381   -8.6413    9.7690 N   0  0  0  0  0  0  0  0  0  0  0  0
  2  1  1  1  0  0  0
  2  3  1  0  0  0  0
  2  5  1  0  0  0  0
  3  4  1  0  0  0  0
  3 17  1  0  0  0  0
  5  6  1  0  0  0  0
  7  6  1  6  0  0  0
  7  8  1  0  0  0  0
  7  9  1  0  0  0  0
 10  9  1  6  0  0  0
 10 11  1  0  0  0  0
 10 12  1  0  0  0  0
 11 16  1  0  0  0  0
 12 13  1  1  0  0  0
 12 14  1  0  0  0  0
 14 15  1  1  0  0  0
 14 16  1  0  0  0  0
 16 27  1  6  0  0  0
 18 19  2  0  0  0  0
 18 23  1  0  0  0  0
 19 20  1  0  0  0  0
 20 21  2  0  0  0  0
 21 22  1  0  0  0  0
 21 27  1  0  0  0  0
 22 23  2  0  0  0  0
 22 25  1  0  0  0  0
 23 24  1  0  0  0  0
 25 26  2  0  0  0  0
 26 27  1  0  0  0  0
M  END
>  <CHROM.1>
-39.04235302,-175.06666497,-166.61463385,-65.12748090,-151.40222565,57.12687344
144.19709349,1.17955527,-9.75184348,9.28646808,-0.08863510,0.13386718,-0.88272151

>  <Name>
ligand

>  <RI>
0

>  <Rbt.Current_Directory>
/home/itssahil/PROJECTS/Mol_Feturizer/Test_systems_manuscript/rnas/4kqy

>  <Rbt.Executable>
rbdock ($Id: //depot/dev/client3/rdock/2013.1/src/exe/rbdock.cxx#4 $)

>  <Rbt.Library>
libRbt.so (2013.1, Build901 2013/11/27)

>  <Rbt.Parameter_File>
/export/apps/rDock/src/rDock_2013.1_src/data/scripts/dock_solv.prm

>  <Rbt.Receptor>
prm/blind_docking_20.prm

>  <SCORE>
-18.1627

>  <SCORE.INTER>
-16.0037

>  <SCORE.INTER.CONST>
1

>  <SCORE.INTER.POLAR>
0

>  <SCORE.INTER.ROT>
7

>  <SCORE.INTER.SOLV>
11.9374

>  <SCORE.INTER.VDW>
-22.9149

>  <SCORE.INTER.norm>
-0.592731

>  <SCORE.INTRA>
-2.15899

>  <SCORE.INTRA.DIHEDRAL>
-4.63124

>  <SCORE.INTRA.DIHEDRAL.0>
10.4103

>  <SCORE.INTRA.POLAR>
0

>  <SCORE.INTRA.POLAR.0>
0

>  <SCORE.INTRA.REPUL>
0

>  <SCORE.INTRA.REPUL.0>
0

>  <SCORE.INTRA.SOLV>
-0.678058

>  <SCORE.INTRA.SOLV.lig_0>
-49.5008

>  <SCORE.INTRA.VDW>
0.495656

>  <SCORE.INTRA.VDW.0>
-2.6946

>  <SCORE.INTRA.norm>
-0.0799626

>  <SCORE.RESTR>
0

>  <SCORE.RESTR.CAVITY>
0

>  <SCORE.RESTR.norm>
0

>  <SCORE.SYSTEM>
0

>  <SCORE.SYSTEM.CONST>
0

>  <SCORE.SYSTEM.DIHEDRAL>
0

>  <SCORE.SYSTEM.SOLV>
0

>  <SCORE.SYSTEM.norm>
0

>  <SCORE.heavy>
27

>  <SCORE.norm>
-0.672693

>  <RMSD>
11.799

$$$$
ligand
 OpenBabel02271912153D
libRbt.so/2013.1/901 2013/11/27
 27 29  0  0  0  0  0  0  0  0999 V2000
    0.8734  -11.7068    9.4887 N   0  0  0  0  0  0  0  0  0  0  0  0
   -0.2017  -11.7113   10.4625 C   0  0  2  0  0  0  0  0  0  0  0  0
   -0.5227  -10.2828   10.7781 C   0  0  0  0  0  0  0  0  0  0  0  0
    0.3233   -9.5859   11.3787 O   0  0  0  0  0  0  0  0  0  0  0  0
    0.2287  -12.4520   11.7315 C   0  0  0  0  0  0  0  0  0  0  0  0
   -0.1277  -13.9534   11.6582 C   0  0  0  0  0  0  0  0  0  0  0  0
    0.2421  -14.8525   13.0257 S   0  0  2  0  0  0  0  0  0  0  0  0
   -0.4100  -14.1147   14.3633 C   0  0  0  0  0  0  0  0  0  0  0  0
    1.9169  -14.9943   13.1789 C   0  0  0  0  0  0  0  0  0  0  0  0
    2.5806  -15.8386   12.0706 C   0  0  1  0  0  0  0  0  0  0  0  0
    2.6320  -15.1666   10.8011 O   0  0  0  0  0  0  0  0  0  0  0  0
    4.0487  -16.1362   12.3297 C   0  0  1  0  0  0  0  0  0  0  0  0
    4.3577  -17.1326   13.3248 O   0  0  0  0  0  0  0  0  0  0  0  0
    4.5056  -16.5006   10.9388 C   0  0  1  0  0  0  0  0  0  0  0  0
    3.9899  -17.7771   10.5733 O   0  0  0  0  0  0  0  0  0  0  0  0
    3.8437  -15.4499   10.0974 C   0  0  2  0  0  0  0  0  0  0  0  0
   -1.6203   -9.8025   10.4069 O   0  0  0  0  0  0  0  0  0  0  0  0
    4.5846  -10.1918   10.3802 N   0  0  0  0  0  0  0  0  0  0  0  0
    3.4874  -10.9180   10.7049 C   0  0  0  0  0  0  0  0  0  0  0  0
    3.4351  -12.2543   10.5751 N   0  0  0  0  0  0  0  0  0  0  0  0
    4.4802  -12.9625   10.1327 C   0  0  0  0  0  0  0  0  0  0  0  0
    5.6964  -12.2414    9.7886 C   0  0  0  0  0  0  0  0  0  0  0  0
    5.7391  -10.7664    9.9178 C   0  0  0  0  0  0  0  0  0  0  0  0
    6.8609  -10.0285    9.6021 N   0  0  0  0  0  0  0  0  0  0  0  0
    6.5565  -13.1564    9.4026 N   0  0  0  0  0  0  0  0  0  0  0  0
    5.9677  -14.3588    9.4628 C   0  0  0  0  0  0  0  0  0  0  0  0
    4.7163  -14.2509    9.9075 N   0  0  0  0  0  0  0  0  0  0  0  0
  2  1  1  6  0  0  0
  2  3  1  0  0  0  0
  2  5  1  0  0  0  0
  3  4  1  0  0  0  0
  3 17  1  0  0  0  0
  5  6  1  0  0  0  0
  7  6  1  6  0  0  0
  7  8  1  0  0  0  0
  7  9  1  0  0  0  0
 10  9  1  1  0  0  0
 10 11  1  0  0  0  0
 10 12  1  0  0  0  0
 11 16  1  0  0  0  0
 12 13  1  1  0  0  0
 12 14  1  0  0  0  0
 14 15  1  6  0  0  0
 14 16  1  0  0  0  0
 16 27  1  1  0  0  0
 18 19  2  0  0  0  0
 18 23  1  0  0  0  0
 19 20  1  0  0  0  0
 20 21  2  0  0  0  0
 21 22  1  0  0  0  0
 21 27  1  0  0  0  0
 22 23  2  0  0  0  0
 22 25  1  0  0  0  0
 23 24  1  0  0  0  0
 25 26  2  0  0  0  0
 26 27  1  0  0  0  0
M  END
>  <CHROM.1>
-66.98374878,-90.93193181,-177.55936982,52.13379272,-67.06006984,73.06230237
-9.43479271,2.70051459,-13.38989568,11.11611836,-2.61861423,-0.33841522,2.79954404

>  <Name>
ligand

>  <RI>
0

>  <Rbt.Current_Directory>
/home/itssahil/PROJECTS/Mol_Feturizer/Test_systems_manuscript/rnas/4kqy

>  <Rbt.Executable>
rbdock ($Id: //depot/dev/client3/rdock/2013.1/src/exe/rbdock.cxx#4 $)

>  <Rbt.Library>
libRbt.so (2013.1, Build901 2013/11/27)

>  <Rbt.Parameter_File>
/export/apps/rDock/src/rDock_2013.1_src/data/scripts/dock_solv.prm

>  <Rbt.Receptor>
prm/blind_docking_100.prm

>  <SCORE>
-15.2916

>  <SCORE.INTER>
-13.3768

>  <SCORE.INTER.CONST>
1

>  <SCORE.INTER.POLAR>
0

>  <SCORE.INTER.ROT>
7

>  <SCORE.INTER.SOLV>
13.5604

>  <SCORE.INTER.VDW>
-21.7047

>  <SCORE.INTER.norm>
-0.495438

>  <SCORE.INTRA>
-1.92125

>  <SCORE.INTRA.DIHEDRAL>
-3.61168

>  <SCORE.INTRA.DIHEDRAL.0>
10.4103

>  <SCORE.INTRA.POLAR>
0

>  <SCORE.INTRA.POLAR.0>
0

>  <SCORE.INTRA.REPUL>
0

>  <SCORE.INTRA.REPUL.0>
0

>  <SCORE.INTRA.SOLV>
1.30828

>  <SCORE.INTRA.SOLV.lig_0>
-49.5008

>  <SCORE.INTRA.VDW>
-0.769546

>  <SCORE.INTRA.VDW.0>
-2.6946

>  <SCORE.INTRA.norm>
-0.0711573

>  <SCORE.RESTR>
0.00643945

>  <SCORE.RESTR.CAVITY>
0.00643945

>  <SCORE.RESTR.norm>
0.000238498

>  <SCORE.SYSTEM>
0

>  <SCORE.SYSTEM.CONST>
0

>  <SCORE.SYSTEM.DIHEDRAL>
0

>  <SCORE.SYSTEM.SOLV>
0

>  <SCORE.SYSTEM.norm>
0

>  <SCORE.heavy>
27

>  <SCORE.norm>
-0.566357

>  <RMSD>
11.903

$$$$
ligand
 OpenBabel02271912153D
libRbt.so/2013.1/901 2013/11/27
 27 29  0  0  0  0  0  0  0  0999 V2000
    8.4706   -7.7552   11.6938 N   0  0  0  0  0  0  0  0  0  0  0  0
    8.0270   -7.6911   10.3142 C   0  0  2  0  0  0  0  0  0  0  0  0
    7.3111   -6.3875   10.1368 C   0  0  0  0  0  0  0  0  0  0  0  0
    6.3693   -6.0992   10.9063 O   0  0  0  0  0  0  0  0  0  0  0  0
    7.0892   -8.8595    9.9987 C   0  0  0  0  0  0  0  0  0  0  0  0
    6.6403   -8.8409    8.5207 C   0  0  0  0  0  0  0  0  0  0  0  0
    5.2013   -9.6385    8.1914 S   0  0  2  0  0  0  0  0  0  0  0  0
    4.8431   -9.4851    6.5768 C   0  0  0  0  0  0  0  0  0  0  0  0
    3.9631   -8.9958    9.1414 C   0  0  0  0  0  0  0  0  0  0  0  0
    2.5506   -9.4688    8.7378 C   0  0  1  0  0  0  0  0  0  0  0  0
    2.2830  -10.8319    9.1069 O   0  0  0  0  0  0  0  0  0  0  0  0
    1.4332   -8.7239    9.4500 C   0  0  1  0  0  0  0  0  0  0  0  0
    1.1482   -7.3800    9.0125 O   0  0  0  0  0  0  0  0  0  0  0  0
    0.2889   -9.6864    9.2496 C   0  0  1  0  0  0  0  0  0  0  0  0
   -0.1385   -9.6621    7.8910 O   0  0  0  0  0  0  0  0  0  0  0  0
    0.9306  -11.0122    9.5336 C   0  0  2  0  0  0  0  0  0  0  0  0
    7.6889   -5.5952    9.2408 O   0  0  0  0  0  0  0  0  0  0  0  0
   -1.0269  -14.2192   13.2966 N   0  0  0  0  0  0  0  0  0  0  0  0
   -1.2102  -14.2664   11.9546 C   0  0  0  0  0  0  0  0  0  0  0  0
   -0.6553  -13.3780   11.1131 N   0  0  0  0  0  0  0  0  0  0  0  0
    0.1384  -12.3931   11.5483 C   0  0  0  0  0  0  0  0  0  0  0  0
    0.3921  -12.3029   12.9783 C   0  0  0  0  0  0  0  0  0  0  0  0
   -0.2383  -13.2757   13.9005 C   0  0  0  0  0  0  0  0  0  0  0  0
   -0.0394  -13.2373   15.2650 N   0  0  0  0  0  0  0  0  0  0  0  0
    1.1976  -11.2768   13.1337 N   0  0  0  0  0  0  0  0  0  0  0  0
    1.4380  -10.7280   11.9350 C   0  0  0  0  0  0  0  0  0  0  0  0
    0.8067  -11.3991   10.9724 N   0  0  0  0  0  0  0  0  0  0  0  0
  2  1  1  1  0  0  0
  2  3  1  0  0  0  0
  2  5  1  0  0  0  0
  3  4  1  0  0  0  0
  3 17  1  0  0  0  0
  5  6  1  0  0  0  0
  7  6  1  6  0  0  0
  7  8  1  0  0  0  0
  7  9  1  0  0  0  0
 10  9  1  1  0  0  0
 10 11  1  0  0  0  0
 10 12  1  0  0  0  0
 11 16  1  0  0  0  0
 12 13  1  6  0  0  0
 12 14  1  0  0  0  0
 14 15  1  6  0  0  0
 14 16  1  0  0  0  0
 16 27  1  1  0  0  0
 18 19  2  0  0  0  0
 18 23  1  0  0  0  0
 19 20  1  0  0  0  0
 20 21  2  0  0  0  0
 21 22  1  0  0  0  0
 21 27  1  0  0  0  0
 22 23  2  0  0  0  0
 22 25  1  0  0  0  0
 23 24  1  0  0  0  0
 25 26  2  0  0  0  0
 26 27  1  0  0  0  0
M  END
>  <CHROM.1>
-53.98788026,-178.06887999,-156.61333089,178.33492481,169.20288058,73.35232683
-129.21376853,2.95679568,-9.98224600,10.32595586,-0.53262674,0.47695669,1.97428148

>  <Name>
ligand

>  <RI>
0

>  <Rbt.Current_Directory>
/home/itssahil/PROJECTS/Mol_Feturizer/Test_systems_manuscript/rnas/4kqy

>  <Rbt.Executable>
rbdock ($Id: //depot/dev/client3/rdock/2013.1/src/exe/rbdock.cxx#4 $)

>  <Rbt.Library>
libRbt.so (2013.1, Build901 2013/11/27)

>  <Rbt.Parameter_File>
/export/apps/rDock/src/rDock_2013.1_src/data/scripts/dock_solv.prm

>  <Rbt.Receptor>
prm/blind_docking_100.prm

>  <SCORE>
-12.6117

>  <SCORE.INTER>
-10.4168

>  <SCORE.INTER.CONST>
1

>  <SCORE.INTER.POLAR>
0

>  <SCORE.INTER.ROT>
7

>  <SCORE.INTER.SOLV>
9.38415

>  <SCORE.INTER.VDW>
-18.3392

>  <SCORE.INTER.norm>
-0.385806

>  <SCORE.INTRA>
-2.19498

>  <SCORE.INTRA.DIHEDRAL>
-4.79237

>  <SCORE.INTRA.DIHEDRAL.0>
10.4103

>  <SCORE.INTRA.POLAR>
0

>  <SCORE.INTRA.POLAR.0>
0

>  <SCORE.INTRA.REPUL>
0

>  <SCORE.INTRA.REPUL.0>
0

>  <SCORE.INTRA.SOLV>
-0.690849

>  <SCORE.INTRA.SOLV.lig_0>
-49.5008

>  <SCORE.INTRA.VDW>
0.546623

>  <SCORE.INTRA.VDW.0>
-2.6946

>  <SCORE.INTRA.norm>
-0.0812957

>  <SCORE.RESTR>
0

>  <SCORE.RESTR.CAVITY>
0

>  <SCORE.RESTR.norm>
0

>  <SCORE.SYSTEM>
0

>  <SCORE.SYSTEM.CONST>
0

>  <SCORE.SYSTEM.DIHEDRAL>
0

>  <SCORE.SYSTEM.SOLV>
0

>  <SCORE.SYSTEM.norm>
0

>  <SCORE.heavy>
27

>  <SCORE.norm>
-0.467102

>  <RMSD>
11.959

$$$$
ligand
 OpenBabel02271912153D
libRbt.so/2013.1/901 2013/11/27
 27 29  0  0  0  0  0  0  0  0999 V2000
    8.5288   -7.8845   11.2531 N   0  0  0  0  0  0  0  0  0  0  0  0
    7.8981   -7.8707    9.9469 C   0  0  2  0  0  0  0  0  0  0  0  0
    7.2557   -6.5286    9.7766 C   0  0  0  0  0  0  0  0  0  0  0  0
    6.3193   -6.1998   10.5365 O   0  0  0  0  0  0  0  0  0  0  0  0
    6.8468   -8.9794    9.8485 C   0  0  0  0  0  0  0  0  0  0  0  0
    6.2090   -9.0307    8.4424 C   0  0  0  0  0  0  0  0  0  0  0  0
    4.8226   -9.9664    8.3104 S   0  0  2  0  0  0  0  0  0  0  0  0
    4.2743   -9.9212    6.7432 C   0  0  0  0  0  0  0  0  0  0  0  0
    3.6435   -9.3913    9.3723 C   0  0  0  0  0  0  0  0  0  0  0  0
    2.2045   -9.4787    8.8215 C   0  0  1  0  0  0  0  0  0  0  0  0
    1.7439  -10.8298    8.6528 O   0  0  0  0  0  0  0  0  0  0  0  0
    1.1575   -8.9036    9.7616 C   0  0  1  0  0  0  0  0  0  0  0  0
    1.0719   -7.4677    9.8601 O   0  0  0  0  0  0  0  0  0  0  0  0
   -0.0898   -9.5532    9.2155 C   0  0  1  0  0  0  0  0  0  0  0  0
   -0.4395   -8.9667    7.9654 O   0  0  0  0  0  0  0  0  0  0  0  0
    0.3593  -10.9652    8.9814 C   0  0  2  0  0  0  0  0  0  0  0  0
    7.6885   -5.7466    8.8967 O   0  0  0  0  0  0  0  0  0  0  0  0
   -2.9127  -12.8255   12.7376 N   0  0  0  0  0  0  0  0  0  0  0  0
   -3.1683  -11.9374   11.7464 C   0  0  0  0  0  0  0  0  0  0  0  0
   -2.2355  -11.5466   10.8617 N   0  0  0  0  0  0  0  0  0  0  0  0
   -0.9885  -12.0299   10.8901 C   0  0  0  0  0  0  0  0  0  0  0  0
   -0.6581  -13.0050   11.9183 C   0  0  0  0  0  0  0  0  0  0  0  0
   -1.6877  -13.4166   12.9006 C   0  0  0  0  0  0  0  0  0  0  0  0
   -1.4321  -14.3323   13.9001 N   0  0  0  0  0  0  0  0  0  0  0  0
    0.6011  -13.3218   11.7181 N   0  0  0  0  0  0  0  0  0  0  0  0
    1.0666  -12.6154   10.6787 C   0  0  0  0  0  0  0  0  0  0  0  0
    0.1119  -11.8373   10.1702 N   0  0  0  0  0  0  0  0  0  0  0  0
  2  1  1  1  0  0  0
  2  3  1  0  0  0  0
  2  5  1  0  0  0  0
  3  4  1  0  0  0  0
  3 17  1  0  0  0  0
  5  6  1  0  0  0  0
  7  6  1  6  0  0  0
  7  8  1  0  0  0  0
  7  9  1  0  0  0  0
 10  9  1  1  0  0  0
 10 11  1  0  0  0  0
 10 12  1  0  0  0  0
 11 16  1  0  0  0  0
 12 13  1  6  0  0  0
 12 14  1  0  0  0  0
 14 15  1  6  0  0  0
 14 16  1  0  0  0  0
 16 27  1  1  0  0  0
 18 19  2  0  0  0  0
 18 23  1  0  0  0  0
 19 20  1  0  0  0  0
 20 21  2  0  0  0  0
 21 22  1  0  0  0  0
 21 27  1  0  0  0  0
 22 23  2  0  0  0  0
 22 25  1  0  0  0  0
 23 24  1  0  0  0  0
 25 26  2  0  0  0  0
 26 27  1  0  0  0  0
M  END
>  <CHROM.1>
-64.07682145,-177.19788485,-167.10628124,-179.65662428,143.67389152,66.78984332
168.14438249,2.36822234,-10.06577912,10.00031026,-0.50766681,0.27330645,2.25189214

>  <Name>
ligand

>  <RI>
0

>  <Rbt.Current_Directory>
/home/itssahil/PROJECTS/Mol_Feturizer/Test_systems_manuscript/rnas/4kqy

>  <Rbt.Executable>
rbdock ($Id: //depot/dev/client3/rdock/2013.1/src/exe/rbdock.cxx#4 $)

>  <Rbt.Library>
libRbt.so (2013.1, Build901 2013/11/27)

>  <Rbt.Parameter_File>
/export/apps/rDock/src/rDock_2013.1_src/data/scripts/dock_solv.prm

>  <Rbt.Receptor>
prm/blind_docking_100.prm

>  <SCORE>
-12.7471

>  <SCORE.INTER>
-12.0209

>  <SCORE.INTER.CONST>
1

>  <SCORE.INTER.POLAR>
0

>  <SCORE.INTER.ROT>
7

>  <SCORE.INTER.SOLV>
13.958

>  <SCORE.INTER.VDW>
-20.9333

>  <SCORE.INTER.norm>
-0.44522

>  <SCORE.INTRA>
-0.726175

>  <SCORE.INTRA.DIHEDRAL>
-3.71209

>  <SCORE.INTRA.DIHEDRAL.0>
10.4103

>  <SCORE.INTRA.POLAR>
0

>  <SCORE.INTRA.POLAR.0>
0

>  <SCORE.INTRA.REPUL>
0

>  <SCORE.INTRA.REPUL.0>
0

>  <SCORE.INTRA.SOLV>
-0.639956

>  <SCORE.INTRA.SOLV.lig_0>
-49.5008

>  <SCORE.INTRA.VDW>
1.44985

>  <SCORE.INTRA.VDW.0>
-2.6946

>  <SCORE.INTRA.norm>
-0.0268954

>  <SCORE.RESTR>
0

>  <SCORE.RESTR.CAVITY>
0

>  <SCORE.RESTR.norm>
0

>  <SCORE.SYSTEM>
0

>  <SCORE.SYSTEM.CONST>
0

>  <SCORE.SYSTEM.DIHEDRAL>
0

>  <SCORE.SYSTEM.SOLV>
0

>  <SCORE.SYSTEM.norm>
0

>  <SCORE.heavy>
27

>  <SCORE.norm>
-0.472116

>  <RMSD>
11.961

$$$$
ligand
 OpenBabel02271912153D
libRbt.so/2013.1/901 2013/11/27
 27 29  0  0  0  0  0  0  0  0999 V2000
    8.3132   -6.8109    9.5284 N   0  0  0  0  0  0  0  0  0  0  0  0
    8.5157   -8.2421    9.6506 C   0  0  2  0  0  0  0  0  0  0  0  0
    9.4900   -8.6464    8.5874 C   0  0  0  0  0  0  0  0  0  0  0  0
   10.4046   -9.4494    8.8718 O   0  0  0  0  0  0  0  0  0  0  0  0
    7.1908   -8.9875    9.4685 C   0  0  0  0  0  0  0  0  0  0  0  0
    7.3663  -10.5094    9.6680 C   0  0  0  0  0  0  0  0  0  0  0  0
    6.0586  -11.4549    9.2084 S   0  0  2  0  0  0  0  0  0  0  0  0
    5.7134  -11.1774    7.6076 C   0  0  0  0  0  0  0  0  0  0  0  0
    4.7253  -11.0938   10.1782 C   0  0  0  0  0  0  0  0  0  0  0  0
    3.3775  -11.1125    9.4267 C   0  0  1  0  0  0  0  0  0  0  0  0
    2.3574  -11.8578   10.1121 O   0  0  0  0  0  0  0  0  0  0  0  0
    2.7339   -9.7414    9.2981 C   0  0  1  0  0  0  0  0  0  0  0  0
    3.3004   -8.8307    8.3345 O   0  0  0  0  0  0  0  0  0  0  0  0
    1.3074  -10.1333    9.0020 C   0  0  1  0  0  0  0  0  0  0  0  0
    1.2066  -10.6489    7.6780 O   0  0  0  0  0  0  0  0  0  0  0  0
    1.0713  -11.2483    9.9772 C   0  0  2  0  0  0  0  0  0  0  0  0
    9.3528   -8.1975    7.4243 O   0  0  0  0  0  0  0  0  0  0  0  0
   -3.0816  -10.4787   13.2078 N   0  0  0  0  0  0  0  0  0  0  0  0
   -3.0517  -11.0410   11.9752 C   0  0  0  0  0  0  0  0  0  0  0  0
   -1.9210  -11.1663   11.2602 N   0  0  0  0  0  0  0  0  0  0  0  0
   -0.7377  -10.7591   11.7327 C   0  0  0  0  0  0  0  0  0  0  0  0
   -0.7008  -10.1667   13.0613 C   0  0  0  0  0  0  0  0  0  0  0  0
   -1.9549  -10.0162   13.8351 C   0  0  0  0  0  0  0  0  0  0  0  0
   -1.9834   -9.4579   15.0961 N   0  0  0  0  0  0  0  0  0  0  0  0
    0.5595   -9.8715   13.2854 N   0  0  0  0  0  0  0  0  0  0  0  0
    1.2832  -10.2118   12.2101 C   0  0  0  0  0  0  0  0  0  0  0  0
    0.5085  -10.7531   11.2707 N   0  0  0  0  0  0  0  0  0  0  0  0
  2  1  1  6  0  0  0
  2  3  1  0  0  0  0
  2  5  1  0  0  0  0
  3  4  1  0  0  0  0
  3 17  1  0  0  0  0
  5  6  1  0  0  0  0
  7  6  1  1  0  0  0
  7  8  1  0  0  0  0
  7  9  1  0  0  0  0
 10  9  1  1  0  0  0
 10 11  1  0  0  0  0
 10 12  1  0  0  0  0
 11 16  1  0  0  0  0
 12 13  1  6  0  0  0
 12 14  1  0  0  0  0
 14 15  1  6  0  0  0
 14 16  1  0  0  0  0
 16 27  1  1  0  0  0
 18 19  2  0  0  0  0
 18 23  1  0  0  0  0
 19 20  1  0  0  0  0
 20 21  2  0  0  0  0
 21 22  1  0  0  0  0
 21 27  1  0  0  0  0
 22 23  2  0  0  0  0
 22 25  1  0  0  0  0
 23 24  1  0  0  0  0
 25 26  2  0  0  0  0
 26 27  1  0  0  0  0
M  END
>  <CHROM.1>
137.06300604,-177.00397330,-168.76227287,57.62241295,142.64353326,132.14591968
-142.14784938,3.28781999,-10.13378981,10.25988159,-0.26254903,0.28898257
1.08126267

>  <Name>
ligand

>  <RI>
0

>  <Rbt.Current_Directory>
/home/itssahil/PROJECTS/Mol_Feturizer/Test_systems_manuscript/rnas/4kqy

>  <Rbt.Executable>
rbdock ($Id: //depot/dev/client3/rdock/2013.1/src/exe/rbdock.cxx#4 $)

>  <Rbt.Library>
libRbt.so (2013.1, Build901 2013/11/27)

>  <Rbt.Parameter_File>
/export/apps/rDock/src/rDock_2013.1_src/data/scripts/dock_solv.prm

>  <Rbt.Receptor>
prm/blind_docking_20.prm

>  <SCORE>
-4.3943

>  <SCORE.INTER>
-6.00924

>  <SCORE.INTER.CONST>
1

>  <SCORE.INTER.POLAR>
0

>  <SCORE.INTER.ROT>
7

>  <SCORE.INTER.SOLV>
8.43711

>  <SCORE.INTER.VDW>
-15.0852

>  <SCORE.INTER.norm>
-0.222564

>  <SCORE.INTRA>
1.58735

>  <SCORE.INTRA.DIHEDRAL>
0.822652

>  <SCORE.INTRA.DIHEDRAL.0>
10.4103

>  <SCORE.INTRA.POLAR>
0

>  <SCORE.INTRA.POLAR.0>
0

>  <SCORE.INTRA.REPUL>
0

>  <SCORE.INTRA.REPUL.0>
0

>  <SCORE.INTRA.SOLV>
-0.38637

>  <SCORE.INTRA.SOLV.lig_0>
-49.5008

>  <SCORE.INTRA.VDW>
1.36921

>  <SCORE.INTRA.VDW.0>
-2.6946

>  <SCORE.INTRA.norm>
0.0587907

>  <SCORE.RESTR>
0.0275932

>  <SCORE.RESTR.CAVITY>
0.0275932

>  <SCORE.RESTR.norm>
0.00102197

>  <SCORE.SYSTEM>
0

>  <SCORE.SYSTEM.CONST>
0

>  <SCORE.SYSTEM.DIHEDRAL>
0

>  <SCORE.SYSTEM.SOLV>
0

>  <SCORE.SYSTEM.norm>
0

>  <SCORE.heavy>
27

>  <SCORE.norm>
-0.162752

>  <RMSD>
11.989

$$$$
ligand
 OpenBabel02271912153D
libRbt.so/2013.1/901 2013/11/27
 27 29  0  0  0  0  0  0  0  0999 V2000
    8.2930   -7.0722    9.9360 N   0  0  0  0  0  0  0  0  0  0  0  0
    7.9796   -8.4668    9.6888 C   0  0  2  0  0  0  0  0  0  0  0  0
    8.9427   -8.9631    8.6547 C   0  0  0  0  0  0  0  0  0  0  0  0
    9.2639   -8.2110    7.7095 O   0  0  0  0  0  0  0  0  0  0  0  0
    6.5403   -8.6111    9.1872 C   0  0  0  0  0  0  0  0  0  0  0  0
    6.1440  -10.0955    9.0258 C   0  0  0  0  0  0  0  0  0  0  0  0
    4.6095  -10.3715    8.4058 S   0  0  2  0  0  0  0  0  0  0  0  0
    4.5161   -9.7494    6.8686 C   0  0  0  0  0  0  0  0  0  0  0  0
    3.4531   -9.6608    9.4089 C   0  0  0  0  0  0  0  0  0  0  0  0
    2.0188   -9.6992    8.8407 C   0  0  1  0  0  0  0  0  0  0  0  0
    1.4300  -11.0098    8.8779 O   0  0  0  0  0  0  0  0  0  0  0  0
    1.0227   -8.8829    9.6485 C   0  0  1  0  0  0  0  0  0  0  0  0
    1.0771   -7.4484    9.5138 O   0  0  0  0  0  0  0  0  0  0  0  0
   -0.2761   -9.4909    9.1800 C   0  0  1  0  0  0  0  0  0  0  0  0
   -0.5527   -9.0839    7.8433 O   0  0  0  0  0  0  0  0  0  0  0  0
    0.0351  -10.9583    9.1867 C   0  0  2  0  0  0  0  0  0  0  0  0
    9.4336  -10.1113    8.7720 O   0  0  0  0  0  0  0  0  0  0  0  0
   -3.5674  -12.2832   12.8668 N   0  0  0  0  0  0  0  0  0  0  0  0
   -3.7455  -11.6238   11.6963 C   0  0  0  0  0  0  0  0  0  0  0  0
   -2.7340  -11.3467   10.8564 N   0  0  0  0  0  0  0  0  0  0  0  0
   -1.4775  -11.7262   11.1144 C   0  0  0  0  0  0  0  0  0  0  0  0
   -1.2252  -12.4583   12.3464 C   0  0  0  0  0  0  0  0  0  0  0  0
   -2.3434  -12.7437   13.2750 C   0  0  0  0  0  0  0  0  0  0  0  0
   -2.1649  -13.4284   14.4591 N   0  0  0  0  0  0  0  0  0  0  0  0
    0.0626  -12.7181   12.3496 N   0  0  0  0  0  0  0  0  0  0  0  0
    0.6139  -12.1951   11.2458 C   0  0  0  0  0  0  0  0  0  0  0  0
   -0.3097  -11.5993   10.4926 N   0  0  0  0  0  0  0  0  0  0  0  0
  2  1  1  6  0  0  0
  2  3  1  0  0  0  0
  2  5  1  0  0  0  0
  3  4  1  0  0  0  0
  3 17  1  0  0  0  0
  5  6  1  0  0  0  0
  7  6  1  1  0  0  0
  7  8  1  0  0  0  0
  7  9  1  0  0  0  0
 10  9  1  1  0  0  0
 10 11  1  0  0  0  0
 10 12  1  0  0  0  0
 11 16  1  0  0  0  0
 12 13  1  6  0  0  0
 12 14  1  0  0  0  0
 14 15  1  6  0  0  0
 14 16  1  0  0  0  0
 16 27  1  1  0  0  0
 18 19  2  0  0  0  0
 18 23  1  0  0  0  0
 19 20  1  0  0  0  0
 20 21  2  0  0  0  0
 21 22  1  0  0  0  0
 21 27  1  0  0  0  0
 22 23  2  0  0  0  0
 22 25  1  0  0  0  0
 23 24  1  0  0  0  0
 25 26  2  0  0  0  0
 26 27  1  0  0  0  0
M  END
>  <CHROM.1>
-38.71011790,-175.37858745,-177.02024282,62.58810210,172.66797243,72.77939510
178.84462017,2.34673216,-10.31113403,9.89891160,-0.42374832,0.04057883,2.23697948

>  <Name>
ligand

>  <RI>
0

>  <Rbt.Current_Directory>
/home/itssahil/PROJECTS/Mol_Feturizer/Test_systems_manuscript/rnas/4kqy

>  <Rbt.Executable>
rbdock ($Id: //depot/dev/client3/rdock/2013.1/src/exe/rbdock.cxx#4 $)

>  <Rbt.Library>
libRbt.so (2013.1, Build901 2013/11/27)

>  <Rbt.Parameter_File>
/export/apps/rDock/src/rDock_2013.1_src/data/scripts/dock_solv.prm

>  <Rbt.Receptor>
prm/blind_docking_60.prm

>  <SCORE>
-14.4628

>  <SCORE.INTER>
-11.6212

>  <SCORE.INTER.CONST>
1

>  <SCORE.INTER.POLAR>
0

>  <SCORE.INTER.ROT>
7

>  <SCORE.INTER.SOLV>
8.76226

>  <SCORE.INTER.VDW>
-18.9349

>  <SCORE.INTER.norm>
-0.430416

>  <SCORE.INTRA>
-2.84157

>  <SCORE.INTRA.DIHEDRAL>
-6.75922

>  <SCORE.INTRA.DIHEDRAL.0>
10.4103

>  <SCORE.INTRA.POLAR>
0

>  <SCORE.INTRA.POLAR.0>
0

>  <SCORE.INTRA.REPUL>
0

>  <SCORE.INTRA.REPUL.0>
0

>  <SCORE.INTRA.SOLV>
-0.691083

>  <SCORE.INTRA.SOLV.lig_0>
-49.5008

>  <SCORE.INTRA.VDW>
0.883584

>  <SCORE.INTRA.VDW.0>
-2.6946

>  <SCORE.INTRA.norm>
-0.105243

>  <SCORE.RESTR>
0

>  <SCORE.RESTR.CAVITY>
0

>  <SCORE.RESTR.norm>
0

>  <SCORE.SYSTEM>
0

>  <SCORE.SYSTEM.CONST>
0

>  <SCORE.SYSTEM.DIHEDRAL>
0

>  <SCORE.SYSTEM.SOLV>
0

>  <SCORE.SYSTEM.norm>
0

>  <SCORE.heavy>
27

>  <SCORE.norm>
-0.535659

>  <RMSD>
12.040

$$$$
ligand
 OpenBabel02271912153D
libRbt.so/2013.1/901 2013/11/27
 27 29  0  0  0  0  0  0  0  0999 V2000
    8.5827   -7.7704    9.5093 N   0  0  0  0  0  0  0  0  0  0  0  0
    7.9904   -7.4693    8.2199 C   0  0  2  0  0  0  0  0  0  0  0  0
    8.0565   -5.9845    8.0352 C   0  0  0  0  0  0  0  0  0  0  0  0
    7.8791   -5.2386    9.0224 O   0  0  0  0  0  0  0  0  0  0  0  0
    6.5362   -7.9462    8.1745 C   0  0  0  0  0  0  0  0  0  0  0  0
    6.4352   -9.4734    8.3838 C   0  0  0  0  0  0  0  0  0  0  0  0
    4.8990  -10.1269    8.2157 S   0  0  2  0  0  0  0  0  0  0  0  0
    4.4381  -10.0485    6.6220 C   0  0  0  0  0  0  0  0  0  0  0  0
    3.8114   -9.2851    9.1940 C   0  0  0  0  0  0  0  0  0  0  0  0
    2.3286   -9.5427    8.8522 C   0  0  1  0  0  0  0  0  0  0  0  0
    1.8539  -10.8175    9.3162 O   0  0  0  0  0  0  0  0  0  0  0  0
    1.3708   -8.5811    9.5369 C   0  0  1  0  0  0  0  0  0  0  0  0
    1.2953   -7.2382    9.0176 O   0  0  0  0  0  0  0  0  0  0  0  0
    0.0789   -9.3523    9.4246 C   0  0  1  0  0  0  0  0  0  0  0  0
   -0.3814   -9.3417    8.0766 O   0  0  0  0  0  0  0  0  0  0  0  0
    0.5043  -10.7456    9.7821 C   0  0  2  0  0  0  0  0  0  0  0  0
    8.3194   -5.5166    6.9016 O   0  0  0  0  0  0  0  0  0  0  0  0
   -1.2815  -13.7900   13.7594 N   0  0  0  0  0  0  0  0  0  0  0  0
   -1.4101  -13.9702   12.4224 C   0  0  0  0  0  0  0  0  0  0  0  0
   -0.9102  -13.1083   11.5209 N   0  0  0  0  0  0  0  0  0  0  0  0
   -0.2287  -12.0176   11.8888 C   0  0  0  0  0  0  0  0  0  0  0  0
   -0.0374  -11.7804   13.3116 C   0  0  0  0  0  0  0  0  0  0  0  0
   -0.6074  -12.7264   14.2988 C   0  0  0  0  0  0  0  0  0  0  0  0
   -0.4633  -12.5514   15.6594 N   0  0  0  0  0  0  0  0  0  0  0  0
    0.6624  -10.6718   13.3975 N   0  0  0  0  0  0  0  0  0  0  0  0
    0.8943  -10.2078   12.1619 C   0  0  0  0  0  0  0  0  0  0  0  0
    0.3643  -11.0171   11.2456 N   0  0  0  0  0  0  0  0  0  0  0  0
  2  1  1  1  0  0  0
  2  3  1  0  0  0  0
  2  5  1  0  0  0  0
  3  4  1  0  0  0  0
  3 17  1  0  0  0  0
  5  6  1  0  0  0  0
  7  6  1  6  0  0  0
  7  8  1  0  0  0  0
  7  9  1  0  0  0  0
 10  9  1  1  0  0  0
 10 11  1  0  0  0  0
 10 12  1  0  0  0  0
 11 16  1  0  0  0  0
 12 13  1  6  0  0  0
 12 14  1  0  0  0  0
 14 15  1  6  0  0  0
 14 16  1  0  0  0  0
 16 27  1  1  0  0  0
 18 19  2  0  0  0  0
 18 23  1  0  0  0  0
 19 20  1  0  0  0  0
 20 21  2  0  0  0  0
 21 22  1  0  0  0  0
 21 27  1  0  0  0  0
 22 23  2  0  0  0  0
 22 25  1  0  0  0  0
 23 24  1  0  0  0  0
 25 26  2  0  0  0  0
 26 27  1  0  0  0  0
M  END
>  <CHROM.1>
-37.02555654,-60.69000429,-174.70923512,69.24629841,164.74014151,76.00801192
-113.86774004,2.81760616,-9.79000297,10.03138507,-0.64623812,0.35623225,1.95938348

>  <Name>
ligand

>  <RI>
0

>  <Rbt.Current_Directory>
/home/itssahil/PROJECTS/Mol_Feturizer/Test_systems_manuscript/rnas/4kqy

>  <Rbt.Executable>
rbdock ($Id: //depot/dev/client3/rdock/2013.1/src/exe/rbdock.cxx#4 $)

>  <Rbt.Library>
libRbt.so (2013.1, Build901 2013/11/27)

>  <Rbt.Parameter_File>
/export/apps/rDock/src/rDock_2013.1_src/data/scripts/dock_solv.prm

>  <Rbt.Receptor>
prm/blind_docking_60.prm

>  <SCORE>
-13.587

>  <SCORE.INTER>
-12.0446

>  <SCORE.INTER.CONST>
1

>  <SCORE.INTER.POLAR>
0

>  <SCORE.INTER.ROT>
7

>  <SCORE.INTER.SOLV>
6.78012

>  <SCORE.INTER.VDW>
-18.5565

>  <SCORE.INTER.norm>
-0.446098

>  <SCORE.INTRA>
-1.54236

>  <SCORE.INTRA.DIHEDRAL>
-5.68816

>  <SCORE.INTRA.DIHEDRAL.0>
10.4103

>  <SCORE.INTRA.POLAR>
0

>  <SCORE.INTRA.POLAR.0>
0

>  <SCORE.INTRA.REPUL>
0

>  <SCORE.INTRA.REPUL.0>
0

>  <SCORE.INTRA.SOLV>
0.0222648

>  <SCORE.INTRA.SOLV.lig_0>
-49.5008

>  <SCORE.INTRA.VDW>
1.29058

>  <SCORE.INTRA.VDW.0>
-2.6946

>  <SCORE.INTRA.norm>
-0.0571245

>  <SCORE.RESTR>
0

>  <SCORE.RESTR.CAVITY>
0

>  <SCORE.RESTR.norm>
0

>  <SCORE.SYSTEM>
0

>  <SCORE.SYSTEM.CONST>
0

>  <SCORE.SYSTEM.DIHEDRAL>
0

>  <SCORE.SYSTEM.SOLV>
0

>  <SCORE.SYSTEM.norm>
0

>  <SCORE.heavy>
27

>  <SCORE.norm>
-0.503222

>  <RMSD>
12.053

$$$$
ligand
 OpenBabel02271912153D
libRbt.so/2013.1/901 2013/11/27
 27 29  0  0  0  0  0  0  0  0999 V2000
    6.0664   -8.3887    9.0784 N   0  0  0  0  0  0  0  0  0  0  0  0
    5.6073   -9.6346    8.4944 C   0  0  2  0  0  0  0  0  0  0  0  0
    5.5400   -9.4334    7.0118 C   0  0  0  0  0  0  0  0  0  0  0  0
    4.9632   -8.4212    6.5592 O   0  0  0  0  0  0  0  0  0  0  0  0
    4.2272  -10.0065    9.0434 C   0  0  0  0  0  0  0  0  0  0  0  0
    3.2392   -8.8236    8.9376 C   0  0  0  0  0  0  0  0  0  0  0  0
    1.6649   -9.1508    9.4168 S   0  0  2  0  0  0  0  0  0  0  0  0
    0.7430   -7.7788    9.2546 C   0  0  0  0  0  0  0  0  0  0  0  0
    1.6562   -9.6904   11.0159 C   0  0  0  0  0  0  0  0  0  0  0  0
    0.4720  -10.6182   11.3603 C   0  0  1  0  0  0  0  0  0  0  0  0
    0.3877  -11.7700   10.5046 O   0  0  0  0  0  0  0  0  0  0  0  0
    0.5784  -11.2548   12.7366 C   0  0  1  0  0  0  0  0  0  0  0  0
    0.3021  -10.4177   13.8775 O   0  0  0  0  0  0  0  0  0  0  0  0
   -0.3796  -12.4098   12.5809 C   0  0  1  0  0  0  0  0  0  0  0  0
   -1.7217  -11.9329   12.5623 O   0  0  0  0  0  0  0  0  0  0  0  0
   -0.0315  -12.9348   11.2195 C   0  0  2  0  0  0  0  0  0  0  0  0
    6.0901  -10.2664    6.2524 O   0  0  0  0  0  0  0  0  0  0  0  0
    4.9138  -14.6169   10.2240 N   0  0  0  0  0  0  0  0  0  0  0  0
    4.3518  -13.4128    9.9576 C   0  0  0  0  0  0  0  0  0  0  0  0
    3.0751  -13.1231   10.2602 N   0  0  0  0  0  0  0  0  0  0  0  0
    2.2756  -14.0062   10.8688 C   0  0  0  0  0  0  0  0  0  0  0  0
    2.8281  -15.3105   11.2017 C   0  0  0  0  0  0  0  0  0  0  0  0
    4.2313  -15.6275   10.8481 C   0  0  0  0  0  0  0  0  0  0  0  0
    4.8082  -16.8476   11.1331 N   0  0  0  0  0  0  0  0  0  0  0  0
    1.8573  -15.9688   11.7934 N   0  0  0  0  0  0  0  0  0  0  0  0
    0.7660  -15.1919   11.8313 C   0  0  0  0  0  0  0  0  0  0  0  0
    1.0118  -14.0039   11.2801 N   0  0  0  0  0  0  0  0  0  0  0  0
  2  1  1  1  0  0  0
  2  3  1  0  0  0  0
  2  5  1  0  0  0  0
  3  4  1  0  0  0  0
  3 17  1  0  0  0  0
  5  6  1  0  0  0  0
  7  6  1  1  0  0  0
  7  8  1  0  0  0  0
  7  9  1  0  0  0  0
 10  9  1  6  0  0  0
 10 11  1  0  0  0  0
 10 12  1  0  0  0  0
 11 16  1  0  0  0  0
 12 13  1  1  0  0  0
 12 14  1  0  0  0  0
 14 15  1  6  0  0  0
 14 16  1  0  0  0  0
 16 27  1  1  0  0  0
 18 19  2  0  0  0  0
 18 23  1  0  0  0  0
 19 20  1  0  0  0  0
 20 21  2  0  0  0  0
 21 22  1  0  0  0  0
 21 27  1  0  0  0  0
 22 23  2  0  0  0  0
 22 25  1  0  0  0  0
 23 24  1  0  0  0  0
 25 26  2  0  0  0  0
 26 27  1  0  0  0  0
M  END
>  <CHROM.1>
-48.80456324,50.41219651,176.08825670,179.48737145,-152.62831957,56.10444194
5.54521039,2.50709511,-11.66569409,10.27864818,-0.98124394,-0.56367845,2.81110206

>  <Name>
ligand

>  <RI>
0

>  <Rbt.Current_Directory>
/home/itssahil/PROJECTS/Mol_Feturizer/Test_systems_manuscript/rnas/4kqy

>  <Rbt.Executable>
rbdock ($Id: //depot/dev/client3/rdock/2013.1/src/exe/rbdock.cxx#4 $)

>  <Rbt.Library>
libRbt.so (2013.1, Build901 2013/11/27)

>  <Rbt.Parameter_File>
/export/apps/rDock/src/rDock_2013.1_src/data/scripts/dock_solv.prm

>  <Rbt.Receptor>
prm/blind_docking_40.prm

>  <SCORE>
-18.877

>  <SCORE.INTER>
-16.2328

>  <SCORE.INTER.CONST>
1

>  <SCORE.INTER.POLAR>
0

>  <SCORE.INTER.ROT>
7

>  <SCORE.INTER.SOLV>
10.121

>  <SCORE.INTER.VDW>
-22.4622

>  <SCORE.INTER.norm>
-0.601215

>  <SCORE.INTRA>
-2.64424

>  <SCORE.INTRA.DIHEDRAL>
-5.2069

>  <SCORE.INTRA.DIHEDRAL.0>
10.4103

>  <SCORE.INTRA.POLAR>
0

>  <SCORE.INTRA.POLAR.0>
0

>  <SCORE.INTRA.REPUL>
0

>  <SCORE.INTRA.REPUL.0>
0

>  <SCORE.INTRA.SOLV>
0.209928

>  <SCORE.INTRA.SOLV.lig_0>
-49.5008

>  <SCORE.INTRA.VDW>
-0.145756

>  <SCORE.INTRA.VDW.0>
-2.6946

>  <SCORE.INTRA.norm>
-0.097935

>  <SCORE.RESTR>
0

>  <SCORE.RESTR.CAVITY>
0

>  <SCORE.RESTR.norm>
0

>  <SCORE.SYSTEM>
0

>  <SCORE.SYSTEM.CONST>
0

>  <SCORE.SYSTEM.DIHEDRAL>
0

>  <SCORE.SYSTEM.SOLV>
0

>  <SCORE.SYSTEM.norm>
0

>  <SCORE.heavy>
27

>  <SCORE.norm>
-0.69915

>  <RMSD>
12.066

$$$$
ligand
 OpenBabel02271912153D
libRbt.so/2013.1/901 2013/11/27
 27 29  0  0  0  0  0  0  0  0999 V2000
    6.4290  -10.2078    7.5831 N   0  0  0  0  0  0  0  0  0  0  0  0
    5.5524   -9.1263    7.9906 C   0  0  2  0  0  0  0  0  0  0  0  0
    6.2774   -8.3351    9.0354 C   0  0  0  0  0  0  0  0  0  0  0  0
    6.5194   -7.1267    8.8267 O   0  0  0  0  0  0  0  0  0  0  0  0
    4.2440   -9.6830    8.5584 C   0  0  0  0  0  0  0  0  0  0  0  0
    3.2397   -8.5530    8.8764 C   0  0  0  0  0  0  0  0  0  0  0  0
    1.7178   -9.0560    9.3723 S   0  0  2  0  0  0  0  0  0  0  0  0
    0.6753   -7.7632    9.3490 C   0  0  0  0  0  0  0  0  0  0  0  0
    1.8131   -9.7184   10.9217 C   0  0  0  0  0  0  0  0  0  0  0  0
    0.6134  -10.6134   11.2980 C   0  0  1  0  0  0  0  0  0  0  0  0
    0.4906  -11.7765   10.4625 O   0  0  0  0  0  0  0  0  0  0  0  0
    0.7256  -11.2302   12.6829 C   0  0  1  0  0  0  0  0  0  0  0  0
    0.4850  -10.3689   13.8138 O   0  0  0  0  0  0  0  0  0  0  0  0
   -0.2604  -12.3654   12.5597 C   0  0  1  0  0  0  0  0  0  0  0  0
   -1.5916  -11.8584   12.5526 O   0  0  0  0  0  0  0  0  0  0  0  0
    0.0558  -12.9199   11.2022 C   0  0  2  0  0  0  0  0  0  0  0  0
    6.6005   -8.8896   10.1130 O   0  0  0  0  0  0  0  0  0  0  0  0
    4.9668  -14.7078   10.2216 N   0  0  0  0  0  0  0  0  0  0  0  0
    4.4318  -13.4916    9.9544 C   0  0  0  0  0  0  0  0  0  0  0  0
    3.1608  -13.1746   10.2531 N   0  0  0  0  0  0  0  0  0  0  0  0
    2.3403  -14.0407   10.8582 C   0  0  0  0  0  0  0  0  0  0  0  0
    2.8633  -15.3570   11.1916 C   0  0  0  0  0  0  0  0  0  0  0  0
    4.2604  -15.7039   10.8425 C   0  0  0  0  0  0  0  0  0  0  0  0
    4.8099  -16.9365   11.1283 N   0  0  0  0  0  0  0  0  0  0  0  0
    1.8765  -15.9945   11.7795 N   0  0  0  0  0  0  0  0  0  0  0  0
    0.8021  -15.1942   11.8145 C   0  0  0  0  0  0  0  0  0  0  0  0
    1.0754  -14.0114   11.2653 N   0  0  0  0  0  0  0  0  0  0  0  0
  2  1  1  1  0  0  0
  2  3  1  0  0  0  0
  2  5  1  0  0  0  0
  3  4  1  0  0  0  0
  3 17  1  0  0  0  0
  5  6  1  0  0  0  0
  7  6  1  1  0  0  0
  7  8  1  0  0  0  0
  7  9  1  0  0  0  0
 10  9  1  6  0  0  0
 10 11  1  0  0  0  0
 10 12  1  0  0  0  0
 11 16  1  0  0  0  0
 12 13  1  1  0  0  0
 12 14  1  0  0  0  0
 14 15  1  6  0  0  0
 14 16  1  0  0  0  0
 16 27  1  1  0  0  0
 18 19  2  0  0  0  0
 18 23  1  0  0  0  0
 19 20  1  0  0  0  0
 20 21  2  0  0  0  0
 21 22  1  0  0  0  0
 21 27  1  0  0  0  0
 22 23  2  0  0  0  0
 22 25  1  0  0  0  0
 23 24  1  0  0  0  0
 25 26  2  0  0  0  0
 26 27  1  0  0  0  0
M  END
>  <CHROM.1>
119.60584640,-174.64338868,174.61018135,-167.63395106,-161.13911264,62.97390735
6.95826870,2.68276942,-11.55109798,10.48573069,-1.03313069,-0.41175723,2.91986505

>  <Name>
ligand

>  <RI>
0

>  <Rbt.Current_Directory>
/home/itssahil/PROJECTS/Mol_Feturizer/Test_systems_manuscript/rnas/4kqy

>  <Rbt.Executable>
rbdock ($Id: //depot/dev/client3/rdock/2013.1/src/exe/rbdock.cxx#4 $)

>  <Rbt.Library>
libRbt.so (2013.1, Build901 2013/11/27)

>  <Rbt.Parameter_File>
/export/apps/rDock/src/rDock_2013.1_src/data/scripts/dock_solv.prm

>  <Rbt.Receptor>
prm/blind_docking_60.prm

>  <SCORE>
-18.3356

>  <SCORE.INTER>
-14.4444

>  <SCORE.INTER.CONST>
1

>  <SCORE.INTER.POLAR>
0

>  <SCORE.INTER.ROT>
7

>  <SCORE.INTER.SOLV>
9.85548

>  <SCORE.INTER.VDW>
-21.1815

>  <SCORE.INTER.norm>
-0.534979

>  <SCORE.INTRA>
-3.89118

>  <SCORE.INTRA.DIHEDRAL>
-5.99999

>  <SCORE.INTRA.DIHEDRAL.0>
10.4103

>  <SCORE.INTRA.POLAR>
0

>  <SCORE.INTRA.POLAR.0>
0

>  <SCORE.INTRA.REPUL>
0

>  <SCORE.INTRA.REPUL.0>
0

>  <SCORE.INTRA.SOLV>
-0.679553

>  <SCORE.INTRA.SOLV.lig_0>
-49.5008

>  <SCORE.INTRA.VDW>
-0.551407

>  <SCORE.INTRA.VDW.0>
-2.6946

>  <SCORE.INTRA.norm>
-0.144118

>  <SCORE.RESTR>
0

>  <SCORE.RESTR.CAVITY>
0

>  <SCORE.RESTR.norm>
0

>  <SCORE.SYSTEM>
0

>  <SCORE.SYSTEM.CONST>
0

>  <SCORE.SYSTEM.DIHEDRAL>
0

>  <SCORE.SYSTEM.SOLV>
0

>  <SCORE.SYSTEM.norm>
0

>  <SCORE.heavy>
27

>  <SCORE.norm>
-0.679097

>  <RMSD>
12.067

$$$$
ligand
 OpenBabel02271912153D
libRbt.so/2013.1/901 2013/11/27
 27 29  0  0  0  0  0  0  0  0999 V2000
    5.3368   -8.2127    8.6031 N   0  0  0  0  0  0  0  0  0  0  0  0
    5.7461   -9.5705    8.2980 C   0  0  2  0  0  0  0  0  0  0  0  0
    5.5734   -9.7669    6.8233 C   0  0  0  0  0  0  0  0  0  0  0  0
    6.4065  -10.4580    6.1984 O   0  0  0  0  0  0  0  0  0  0  0  0
    4.8880  -10.5748    9.0720 C   0  0  0  0  0  0  0  0  0  0  0  0
    5.4509  -12.0086    8.9540 C   0  0  0  0  0  0  0  0  0  0  0  0
    4.8957  -13.1006   10.1005 S   0  0  2  0  0  0  0  0  0  0  0  0
    5.2594  -12.5371   11.6200 C   0  0  0  0  0  0  0  0  0  0  0  0
    5.6024  -14.6107    9.8386 C   0  0  0  0  0  0  0  0  0  0  0  0
    5.0203  -15.7384   10.7168 C   0  0  1  0  0  0  0  0  0  0  0  0
    4.5169  -15.2703   11.9791 O   0  0  0  0  0  0  0  0  0  0  0  0
    3.7936  -16.4054   10.1158 C   0  0  1  0  0  0  0  0  0  0  0  0
    4.0051  -17.3180    9.0198 O   0  0  0  0  0  0  0  0  0  0  0  0
    3.2026  -17.0529   11.3436 C   0  0  1  0  0  0  0  0  0  0  0  0
    3.9981  -18.1659   11.7405 O   0  0  0  0  0  0  0  0  0  0  0  0
    3.3340  -15.9698   12.3730 C   0  0  2  0  0  0  0  0  0  0  0  0
    4.5802   -9.2617    6.2476 O   0  0  0  0  0  0  0  0  0  0  0  0
    0.3918  -12.0153   10.3775 N   0  0  0  0  0  0  0  0  0  0  0  0
    1.5659  -12.5183    9.9246 C   0  0  0  0  0  0  0  0  0  0  0  0
    2.2108  -13.5249   10.5379 N   0  0  0  0  0  0  0  0  0  0  0  0
    1.7199  -14.1147   11.6336 C   0  0  0  0  0  0  0  0  0  0  0  0
    0.4498  -13.6339   12.1563 C   0  0  0  0  0  0  0  0  0  0  0  0
   -0.2453  -12.5118   11.4841 C   0  0  0  0  0  0  0  0  0  0  0  0
   -1.4481  -12.0099   11.9359 N   0  0  0  0  0  0  0  0  0  0  0  0
    0.1921  -14.3781   13.2078 N   0  0  0  0  0  0  0  0  0  0  0  0
    1.1960  -15.2491   13.3800 C   0  0  0  0  0  0  0  0  0  0  0  0
    2.1194  -15.1001   12.4310 N   0  0  0  0  0  0  0  0  0  0  0  0
  2  1  1  1  0  0  0
  2  3  1  0  0  0  0
  2  5  1  0  0  0  0
  3  4  1  0  0  0  0
  3 17  1  0  0  0  0
  5  6  1  0  0  0  0
  7  6  1  6  0  0  0
  7  8  1  0  0  0  0
  7  9  1  0  0  0  0
 10  9  1  6  0  0  0
 10 11  1  0  0  0  0
 10 12  1  0  0  0  0
 11 16  1  0  0  0  0
 12 13  1  6  0  0  0
 12 14  1  0  0  0  0
 14 15  1  1  0  0  0
 14 16  1  0  0  0  0
 16 27  1  6  0  0  0
 18 19  2  0  0  0  0
 18 23  1  0  0  0  0
 19 20  1  0  0  0  0
 20 21  2  0  0  0  0
 21 22  1  0  0  0  0
 21 27  1  0  0  0  0
 22 23  2  0  0  0  0
 22 25  1  0  0  0  0
 23 24  1  0  0  0  0
 25 26  2  0  0  0  0
 26 27  1  0  0  0  0
M  END
>  <CHROM.1>
143.01368995,-170.39162655,162.32765341,-58.23551780,-172.19842927,-28.90102071
39.15071313,3.47594036,-13.36930678,10.31224752,1.07612968,0.48678682,-0.40663749

>  <Name>
ligand

>  <RI>
0

>  <Rbt.Current_Directory>
/home/itssahil/PROJECTS/Mol_Feturizer/Test_systems_manuscript/rnas/4kqy

>  <Rbt.Executable>
rbdock ($Id: //depot/dev/client3/rdock/2013.1/src/exe/rbdock.cxx#4 $)

>  <Rbt.Library>
libRbt.so (2013.1, Build901 2013/11/27)

>  <Rbt.Parameter_File>
/export/apps/rDock/src/rDock_2013.1_src/data/scripts/dock_solv.prm

>  <Rbt.Receptor>
prm/blind_docking_100.prm

>  <SCORE>
-16.8906

>  <SCORE.INTER>
-14.9926

>  <SCORE.INTER.CONST>
1

>  <SCORE.INTER.POLAR>
0

>  <SCORE.INTER.ROT>
7

>  <SCORE.INTER.SOLV>
13.9393

>  <SCORE.INTER.VDW>
-22.9082

>  <SCORE.INTER.norm>
-0.555281

>  <SCORE.INTRA>
-1.91802

>  <SCORE.INTRA.DIHEDRAL>
-3.38478

>  <SCORE.INTRA.DIHEDRAL.0>
10.4103

>  <SCORE.INTRA.POLAR>
0

>  <SCORE.INTRA.POLAR.0>
0

>  <SCORE.INTRA.REPUL>
0

>  <SCORE.INTRA.REPUL.0>
0

>  <SCORE.INTRA.SOLV>
-0.369152

>  <SCORE.INTRA.SOLV.lig_0>
-49.5008

>  <SCORE.INTRA.VDW>
-0.0410589

>  <SCORE.INTRA.VDW.0>
-2.6946

>  <SCORE.INTRA.norm>
-0.071038

>  <SCORE.RESTR>
0.0199678

>  <SCORE.RESTR.CAVITY>
0.0199678

>  <SCORE.RESTR.norm>
0.000739549

>  <SCORE.SYSTEM>
0

>  <SCORE.SYSTEM.CONST>
0

>  <SCORE.SYSTEM.DIHEDRAL>
0

>  <SCORE.SYSTEM.SOLV>
0

>  <SCORE.SYSTEM.norm>
0

>  <SCORE.heavy>
27

>  <SCORE.norm>
-0.625579

>  <RMSD>
12.115

$$$$
ligand
 OpenBabel02271912153D
libRbt.so/2013.1/901 2013/11/27
 27 29  0  0  0  0  0  0  0  0999 V2000
    3.8753  -18.6995   11.7344 N   0  0  0  0  0  0  0  0  0  0  0  0
    3.8598  -17.5154   10.8967 C   0  0  2  0  0  0  0  0  0  0  0  0
    5.2840  -17.1101   10.6719 C   0  0  0  0  0  0  0  0  0  0  0  0
    6.0389  -16.9628   11.6571 O   0  0  0  0  0  0  0  0  0  0  0  0
    3.0875  -16.3849   11.5822 C   0  0  0  0  0  0  0  0  0  0  0  0
    3.0919  -15.0980   10.7276 C   0  0  0  0  0  0  0  0  0  0  0  0
    2.6483  -13.6938   11.5318 S   0  0  2  0  0  0  0  0  0  0  0  0
    3.5808  -13.5217   12.8954 C   0  0  0  0  0  0  0  0  0  0  0  0
    1.0103  -13.7600   11.9331 C   0  0  0  0  0  0  0  0  0  0  0  0
    0.3765  -12.3821   12.2185 C   0  0  1  0  0  0  0  0  0  0  0  0
    1.3485  -11.3424   12.4188 O   0  0  0  0  0  0  0  0  0  0  0  0
   -0.4366  -11.8344   11.0567 C   0  0  1  0  0  0  0  0  0  0  0  0
   -1.7316  -12.4217   10.8184 O   0  0  0  0  0  0  0  0  0  0  0  0
   -0.4879  -10.3714   11.4218 C   0  0  1  0  0  0  0  0  0  0  0  0
   -1.3597  -10.1744   12.5309 O   0  0  0  0  0  0  0  0  0  0  0  0
    0.9216  -10.0991   11.8570 C   0  0  2  0  0  0  0  0  0  0  0  0
    5.7022  -16.9566    9.4995 O   0  0  0  0  0  0  0  0  0  0  0  0
    4.9781  -10.8882    8.5106 N   0  0  0  0  0  0  0  0  0  0  0  0
    4.5123  -11.6970    9.4932 C   0  0  0  0  0  0  0  0  0  0  0  0
    3.4724  -11.3650   10.2765 N   0  0  0  0  0  0  0  0  0  0  0  0
    2.8105  -10.2130   10.1213 C   0  0  0  0  0  0  0  0  0  0  0  0
    3.2492   -9.3109    9.0672 C   0  0  0  0  0  0  0  0  0  0  0  0
    4.4079   -9.6769    8.2201 C   0  0  0  0  0  0  0  0  0  0  0  0
    4.8725   -8.8608    7.2097 N   0  0  0  0  0  0  0  0  0  0  0  0
    2.4375   -8.2792    9.1199 N   0  0  0  0  0  0  0  0  0  0  0  0
    1.5634   -8.4649   10.1186 C   0  0  0  0  0  0  0  0  0  0  0  0
    1.7784   -9.6320   10.7244 N   0  0  0  0  0  0  0  0  0  0  0  0
  2  1  1  1  0  0  0
  2  3  1  0  0  0  0
  2  5  1  0  0  0  0
  3  4  1  0  0  0  0
  3 17  1  0  0  0  0
  5  6  1  0  0  0  0
  7  6  1  1  0  0  0
  7  8  1  0  0  0  0
  7  9  1  0  0  0  0
 10  9  1  6  0  0  0
 10 11  1  0  0  0  0
 10 12  1  0  0  0  0
 11 16  1  0  0  0  0
 12 13  1  1  0  0  0
 12 14  1  0  0  0  0
 14 15  1  1  0  0  0
 14 16  1  0  0  0  0
 16 27  1  6  0  0  0
 18 19  2  0  0  0  0
 18 23  1  0  0  0  0
 19 20  1  0  0  0  0
 20 21  2  0  0  0  0
 21 22  1  0  0  0  0
 21 27  1  0  0  0  0
 22 23  2  0  0  0  0
 22 25  1  0  0  0  0
 23 24  1  0  0  0  0
 25 26  2  0  0  0  0
 26 27  1  0  0  0  0
M  END
>  <CHROM.1>
-52.21973294,178.32155149,-164.22566381,53.24521070,-159.81953917,-14.64544604
4.08804903,2.60463719,-12.60187674,10.76406820,1.12153849,-0.50186054,2.79913808

>  <Name>
ligand

>  <RI>
0

>  <Rbt.Current_Directory>
/home/itssahil/PROJECTS/Mol_Feturizer/Test_systems_manuscript/rnas/4kqy

>  <Rbt.Executable>
rbdock ($Id: //depot/dev/client3/rdock/2013.1/src/exe/rbdock.cxx#4 $)

>  <Rbt.Library>
libRbt.so (2013.1, Build901 2013/11/27)

>  <Rbt.Parameter_File>
/export/apps/rDock/src/rDock_2013.1_src/data/scripts/dock_solv.prm

>  <Rbt.Receptor>
prm/blind_docking_40.prm

>  <SCORE>
-10.6378

>  <SCORE.INTER>
-10.2585

>  <SCORE.INTER.CONST>
1

>  <SCORE.INTER.POLAR>
0

>  <SCORE.INTER.ROT>
7

>  <SCORE.INTER.SOLV>
19.9456

>  <SCORE.INTER.VDW>
-21.7542

>  <SCORE.INTER.norm>
-0.379944

>  <SCORE.INTRA>
-0.37937

>  <SCORE.INTRA.DIHEDRAL>
-0.959023

>  <SCORE.INTRA.DIHEDRAL.0>
10.4103

>  <SCORE.INTRA.POLAR>
0

>  <SCORE.INTRA.POLAR.0>
0

>  <SCORE.INTRA.REPUL>
0

>  <SCORE.INTRA.REPUL.0>
0

>  <SCORE.INTRA.SOLV>
-0.435417

>  <SCORE.INTRA.SOLV.lig_0>
-49.5008

>  <SCORE.INTRA.VDW>
0.31785

>  <SCORE.INTRA.VDW.0>
-2.6946

>  <SCORE.INTRA.norm>
-0.0140508

>  <SCORE.RESTR>
0

>  <SCORE.RESTR.CAVITY>
0

>  <SCORE.RESTR.norm>
0

>  <SCORE.SYSTEM>
0

>  <SCORE.SYSTEM.CONST>
0

>  <SCORE.SYSTEM.DIHEDRAL>
0

>  <SCORE.SYSTEM.SOLV>
0

>  <SCORE.SYSTEM.norm>
0

>  <SCORE.heavy>
27

>  <SCORE.norm>
-0.393994

>  <RMSD>
12.121

$$$$
ligand
 OpenBabel02271912153D
libRbt.so/2013.1/901 2013/11/27
 27 29  0  0  0  0  0  0  0  0999 V2000
   -1.1857   -4.3067    5.9352 N   0  0  0  0  0  0  0  0  0  0  0  0
   -0.8719   -4.3795    7.3496 C   0  0  2  0  0  0  0  0  0  0  0  0
    0.4023   -3.6218    7.5626 C   0  0  0  0  0  0  0  0  0  0  0  0
    0.3490   -2.4037    7.8375 O   0  0  0  0  0  0  0  0  0  0  0  0
   -0.7027   -5.8373    7.7859 C   0  0  0  0  0  0  0  0  0  0  0  0
   -2.0500   -6.5928    7.7680 C   0  0  0  0  0  0  0  0  0  0  0  0
   -1.9706   -8.2230    8.1571 S   0  0  2  0  0  0  0  0  0  0  0  0
   -3.5094   -8.8244    8.3280 C   0  0  0  0  0  0  0  0  0  0  0  0
   -1.0882   -8.4268    9.5813 C   0  0  0  0  0  0  0  0  0  0  0  0
   -1.0065   -9.8895   10.0666 C   0  0  1  0  0  0  0  0  0  0  0  0
   -0.2188  -10.7286    9.2055 O   0  0  0  0  0  0  0  0  0  0  0  0
   -0.2941  -10.0489   11.4001 C   0  0  1  0  0  0  0  0  0  0  0  0
   -1.0127   -9.6566   12.5868 O   0  0  0  0  0  0  0  0  0  0  0  0
    0.0525  -11.5165   11.3537 C   0  0  1  0  0  0  0  0  0  0  0  0
   -1.1219  -12.3023   11.5333 O   0  0  0  0  0  0  0  0  0  0  0  0
    0.5409  -11.6871    9.9457 C   0  0  2  0  0  0  0  0  0  0  0  0
    1.4978   -4.2286    7.4927 O   0  0  0  0  0  0  0  0  0  0  0  0
    4.7086   -8.5712    8.8517 N   0  0  0  0  0  0  0  0  0  0  0  0
    3.3868   -8.2753    8.8081 C   0  0  0  0  0  0  0  0  0  0  0  0
    2.4308   -9.1711    9.1062 N   0  0  0  0  0  0  0  0  0  0  0  0
    2.7261  -10.4184    9.4890 C   0  0  0  0  0  0  0  0  0  0  0  0
    4.1301  -10.7907    9.5769 C   0  0  0  0  0  0  0  0  0  0  0  0
    5.1769   -9.8020    9.2292 C   0  0  0  0  0  0  0  0  0  0  0  0
    6.5228  -10.0982    9.2883 N   0  0  0  0  0  0  0  0  0  0  0  0
    4.1430  -12.0407    9.9808 N   0  0  0  0  0  0  0  0  0  0  0  0
    2.8796  -12.4634   10.1259 C   0  0  0  0  0  0  0  0  0  0  0  0
    2.0186  -11.4886    9.8361 N   0  0  0  0  0  0  0  0  0  0  0  0
  2  1  1  6  0  0  0
  2  3  1  0  0  0  0
  2  5  1  0  0  0  0
  3  4  1  0  0  0  0
  3 17  1  0  0  0  0
  5  6  1  0  0  0  0
  7  6  1  1  0  0  0
  7  8  1  0  0  0  0
  7  9  1  0  0  0  0
 10  9  1  6  0  0  0
 10 11  1  0  0  0  0
 10 12  1  0  0  0  0
 11 16  1  0  0  0  0
 12 13  1  1  0  0  0
 12 14  1  0  0  0  0
 14 15  1  6  0  0  0
 14 16  1  0  0  0  0
 16 27  1  1  0  0  0
 18 19  2  0  0  0  0
 18 23  1  0  0  0  0
 19 20  1  0  0  0  0
 20 21  2  0  0  0  0
 21 22  1  0  0  0  0
 21 27  1  0  0  0  0
 22 23  2  0  0  0  0
 22 25  1  0  0  0  0
 23 24  1  0  0  0  0
 25 26  2  0  0  0  0
 26 27  1  0  0  0  0
M  END
>  <CHROM.1>
90.77252844,-69.63945891,177.11523805,171.07324376,177.40441442,68.39156788
20.31871800,0.73572555,-8.66233242,9.14674312,-2.02395914,-0.07157096,2.70580800

>  <Name>
ligand

>  <RI>
0

>  <Rbt.Current_Directory>
/home/itssahil/PROJECTS/Mol_Feturizer/Test_systems_manuscript/rnas/4kqy

>  <Rbt.Executable>
rbdock ($Id: //depot/dev/client3/rdock/2013.1/src/exe/rbdock.cxx#4 $)

>  <Rbt.Library>
libRbt.so (2013.1, Build901 2013/11/27)

>  <Rbt.Parameter_File>
/export/apps/rDock/src/rDock_2013.1_src/data/scripts/dock_solv.prm

>  <Rbt.Receptor>
prm/blind_docking_20.prm

>  <SCORE>
-18.0298

>  <SCORE.INTER>
-15.2495

>  <SCORE.INTER.CONST>
1

>  <SCORE.INTER.POLAR>
0

>  <SCORE.INTER.ROT>
7

>  <SCORE.INTER.SOLV>
11.6609

>  <SCORE.INTER.VDW>
-22.32

>  <SCORE.INTER.norm>
-0.564797

>  <SCORE.INTRA>
-2.78032

>  <SCORE.INTRA.DIHEDRAL>
-6.69944

>  <SCORE.INTRA.DIHEDRAL.0>
10.4103

>  <SCORE.INTRA.POLAR>
0

>  <SCORE.INTRA.POLAR.0>
0

>  <SCORE.INTRA.REPUL>
0

>  <SCORE.INTRA.REPUL.0>
0

>  <SCORE.INTRA.SOLV>
-0.0394119

>  <SCORE.INTRA.SOLV.lig_0>
-49.5008

>  <SCORE.INTRA.VDW>
0.589105

>  <SCORE.INTRA.VDW.0>
-2.6946

>  <SCORE.INTRA.norm>
-0.102975

>  <SCORE.RESTR>
0

>  <SCORE.RESTR.CAVITY>
0

>  <SCORE.RESTR.norm>
0

>  <SCORE.SYSTEM>
0

>  <SCORE.SYSTEM.CONST>
0

>  <SCORE.SYSTEM.DIHEDRAL>
0

>  <SCORE.SYSTEM.SOLV>
0

>  <SCORE.SYSTEM.norm>
0

>  <SCORE.heavy>
27

>  <SCORE.norm>
-0.667772

>  <RMSD>
12.142

$$$$
ligand
 OpenBabel02271912153D
libRbt.so/2013.1/901 2013/11/27
 27 29  0  0  0  0  0  0  0  0999 V2000
    6.8703  -17.3545    6.3064 N   0  0  0  0  0  0  0  0  0  0  0  0
    6.2787  -18.5461    6.8845 C   0  0  2  0  0  0  0  0  0  0  0  0
    5.0139  -18.8251    6.1324 C   0  0  0  0  0  0  0  0  0  0  0  0
    4.4258  -17.8839    5.5575 O   0  0  0  0  0  0  0  0  0  0  0  0
    5.9766  -18.3272    8.3694 C   0  0  0  0  0  0  0  0  0  0  0  0
    4.9474  -17.1938    8.5759 C   0  0  0  0  0  0  0  0  0  0  0  0
    4.7708  -16.6556   10.1552 S   0  0  2  0  0  0  0  0  0  0  0  0
    4.2637  -17.9143   11.1129 C   0  0  0  0  0  0  0  0  0  0  0  0
    3.6619  -15.3842   10.2036 C   0  0  0  0  0  0  0  0  0  0  0  0
    3.7720  -14.5012   11.4645 C   0  0  1  0  0  0  0  0  0  0  0  0
    3.4584  -13.1203   11.2179 O   0  0  0  0  0  0  0  0  0  0  0  0
    2.7708  -14.8632   12.5497 C   0  0  1  0  0  0  0  0  0  0  0  0
    3.0277  -16.0560   13.3177 O   0  0  0  0  0  0  0  0  0  0  0  0
    2.7817  -13.5961   13.3685 C   0  0  1  0  0  0  0  0  0  0  0  0
    4.0030  -13.4935   14.0946 O   0  0  0  0  0  0  0  0  0  0  0  0
    2.7530  -12.5308   12.3127 C   0  0  2  0  0  0  0  0  0  0  0  0
    4.5845  -20.0017    6.0660 O   0  0  0  0  0  0  0  0  0  0  0  0
   -2.5003  -13.2566   12.7024 N   0  0  0  0  0  0  0  0  0  0  0  0
   -1.4957  -13.9723   13.2638 C   0  0  0  0  0  0  0  0  0  0  0  0
   -0.1986  -13.6785   13.0728 N   0  0  0  0  0  0  0  0  0  0  0  0
    0.1875  -12.6380   12.3261 C   0  0  0  0  0  0  0  0  0  0  0  0
   -0.8461  -11.8167   11.7140 C   0  0  0  0  0  0  0  0  0  0  0  0
   -2.2732  -12.1586   11.9153 C   0  0  0  0  0  0  0  0  0  0  0  0
   -3.2964  -11.4211   11.3566 N   0  0  0  0  0  0  0  0  0  0  0  0
   -0.2099  -10.8726   11.0584 N   0  0  0  0  0  0  0  0  0  0  0  0
    1.1096  -11.0583   11.2012 C   0  0  0  0  0  0  0  0  0  0  0  0
    1.3576  -12.1185   11.9692 N   0  0  0  0  0  0  0  0  0  0  0  0
  2  1  1  6  0  0  0
  2  3  1  0  0  0  0
  2  5  1  0  0  0  0
  3  4  1  0  0  0  0
  3 17  1  0  0  0  0
  5  6  1  0  0  0  0
  7  6  1  6  0  0  0
  7  8  1  0  0  0  0
  7  9  1  0  0  0  0
 10  9  1  6  0  0  0
 10 11  1  0  0  0  0
 10 12  1  0  0  0  0
 11 16  1  0  0  0  0
 12 13  1  1  0  0  0
 12 14  1  0  0  0  0
 14 15  1  6  0  0  0
 14 16  1  0  0  0  0
 16 27  1  6  0  0  0
 18 19  2  0  0  0  0
 18 23  1  0  0  0  0
 19 20  1  0  0  0  0
 20 21  2  0  0  0  0
 21 22  1  0  0  0  0
 21 27  1  0  0  0  0
 22 23  2  0  0  0  0
 22 25  1  0  0  0  0
 23 24  1  0  0  0  0
 25 26  2  0  0  0  0
 26 27  1  0  0  0  0
M  END
>  <CHROM.1>
-25.03051557,62.27498971,-168.14434736,-60.53393067,-159.95286222,146.71095961
108.36566595,2.61623531,-14.95735323,10.61661297,0.82277731,0.46916484,-2.03961426

>  <Name>
ligand

>  <RI>
0

>  <Rbt.Current_Directory>
/home/itssahil/PROJECTS/Mol_Feturizer/Test_systems_manuscript/rnas/4kqy

>  <Rbt.Executable>
rbdock ($Id: //depot/dev/client3/rdock/2013.1/src/exe/rbdock.cxx#4 $)

>  <Rbt.Library>
libRbt.so (2013.1, Build901 2013/11/27)

>  <Rbt.Parameter_File>
/export/apps/rDock/src/rDock_2013.1_src/data/scripts/dock_solv.prm

>  <Rbt.Receptor>
prm/blind_docking_80.prm

>  <SCORE>
-10.2408

>  <SCORE.INTER>
-9.93411

>  <SCORE.INTER.CONST>
1

>  <SCORE.INTER.POLAR>
0

>  <SCORE.INTER.ROT>
7

>  <SCORE.INTER.SOLV>
17.5171

>  <SCORE.INTER.VDW>
-20.7284

>  <SCORE.INTER.norm>
-0.36793

>  <SCORE.INTRA>
-0.306737

>  <SCORE.INTRA.DIHEDRAL>
-2.91653

>  <SCORE.INTRA.DIHEDRAL.0>
10.4103

>  <SCORE.INTRA.POLAR>
0

>  <SCORE.INTRA.POLAR.0>
0

>  <SCORE.INTRA.REPUL>
0

>  <SCORE.INTRA.REPUL.0>
0

>  <SCORE.INTRA.SOLV>
0.365538

>  <SCORE.INTRA.SOLV.lig_0>
-49.5008

>  <SCORE.INTRA.VDW>
0.968757

>  <SCORE.INTRA.VDW.0>
-2.6946

>  <SCORE.INTRA.norm>
-0.0113606

>  <SCORE.RESTR>
0

>  <SCORE.RESTR.CAVITY>
0

>  <SCORE.RESTR.norm>
0

>  <SCORE.SYSTEM>
0

>  <SCORE.SYSTEM.CONST>
0

>  <SCORE.SYSTEM.DIHEDRAL>
0

>  <SCORE.SYSTEM.SOLV>
0

>  <SCORE.SYSTEM.norm>
0

>  <SCORE.heavy>
27

>  <SCORE.norm>
-0.379291

>  <RMSD>
12.233

$$$$
ligand
 OpenBabel02271912153D
libRbt.so/2013.1/901 2013/11/27
 27 29  0  0  0  0  0  0  0  0999 V2000
    6.3217  -19.6828    6.9360 N   0  0  0  0  0  0  0  0  0  0  0  0
    5.3519  -18.6556    7.2655 C   0  0  2  0  0  0  0  0  0  0  0  0
    5.5934  -17.5023    6.3410 C   0  0  0  0  0  0  0  0  0  0  0  0
    4.6282  -17.0031    5.7235 O   0  0  0  0  0  0  0  0  0  0  0  0
    5.5155  -18.2126    8.7219 C   0  0  0  0  0  0  0  0  0  0  0  0
    4.4546  -17.1608    9.1154 C   0  0  0  0  0  0  0  0  0  0  0  0
    4.4341  -16.7249   10.7355 S   0  0  2  0  0  0  0  0  0  0  0  0
    4.2842  -18.0888   11.6714 C   0  0  0  0  0  0  0  0  0  0  0  0
    3.1566  -15.6601   11.0231 C   0  0  0  0  0  0  0  0  0  0  0  0
    3.3806  -14.2417   10.4577 C   0  0  1  0  0  0  0  0  0  0  0  0
    2.1590  -13.5092   10.2656 O   0  0  0  0  0  0  0  0  0  0  0  0
    4.1522  -13.3278   11.3960 C   0  0  1  0  0  0  0  0  0  0  0  0
    5.5726  -13.5450   11.5139 O   0  0  0  0  0  0  0  0  0  0  0  0
    3.7862  -11.9784   10.8292 C   0  0  1  0  0  0  0  0  0  0  0  0
    4.4479  -11.7751    9.5842 O   0  0  0  0  0  0  0  0  0  0  0  0
    2.3142  -12.1232   10.5793 C   0  0  2  0  0  0  0  0  0  0  0  0
    6.7529  -17.0378    6.2268 O   0  0  0  0  0  0  0  0  0  0  0  0
   -0.7234   -8.4797   12.9822 N   0  0  0  0  0  0  0  0  0  0  0  0
   -0.1346   -8.4304   11.7625 C   0  0  0  0  0  0  0  0  0  0  0  0
    0.6204   -9.4308   11.2784 N   0  0  0  0  0  0  0  0  0  0  0  0
    0.8240  -10.5592   11.9673 C   0  0  0  0  0  0  0  0  0  0  0  0
    0.1991  -10.6819   13.2757 C   0  0  0  0  0  0  0  0  0  0  0  0
   -0.6169   -9.5666   13.8091 C   0  0  0  0  0  0  0  0  0  0  0  0
   -1.2291   -9.6229   15.0440 N   0  0  0  0  0  0  0  0  0  0  0  0
    0.5406  -11.8685   13.7243 N   0  0  0  0  0  0  0  0  0  0  0  0
    1.3282  -12.4650   12.8188 C   0  0  0  0  0  0  0  0  0  0  0  0
    1.4997  -11.6835   11.7533 N   0  0  0  0  0  0  0  0  0  0  0  0
  2  1  1  6  0  0  0
  2  3  1  0  0  0  0
  2  5  1  0  0  0  0
  3  4  1  0  0  0  0
  3 17  1  0  0  0  0
  5  6  1  0  0  0  0
  7  6  1  6  0  0  0
  7  8  1  0  0  0  0
  7  9  1  0  0  0  0
 10  9  1  1  0  0  0
 10 11  1  0  0  0  0
 10 12  1  0  0  0  0
 11 16  1  0  0  0  0
 12 13  1  6  0  0  0
 12 14  1  0  0  0  0
 14 15  1  6  0  0  0
 14 16  1  0  0  0  0
 16 27  1  1  0  0  0
 18 19  2  0  0  0  0
 18 23  1  0  0  0  0
 19 20  1  0  0  0  0
 20 21  2  0  0  0  0
 21 22  1  0  0  0  0
 21 27  1  0  0  0  0
 22 23  2  0  0  0  0
 22 25  1  0  0  0  0
 23 24  1  0  0  0  0
 25 26  2  0  0  0  0
 26 27  1  0  0  0  0
M  END
>  <CHROM.1>
130.55198640,-177.60236063,173.68663421,-54.29481467,-72.78334747,158.61192809
-141.02201820,3.07316432,-13.90441697,10.55474226,0.21450517,-1.04091639
2.39162771

>  <Name>
ligand

>  <RI>
0

>  <Rbt.Current_Directory>
/home/itssahil/PROJECTS/Mol_Feturizer/Test_systems_manuscript/rnas/4kqy

>  <Rbt.Executable>
rbdock ($Id: //depot/dev/client3/rdock/2013.1/src/exe/rbdock.cxx#4 $)

>  <Rbt.Library>
libRbt.so (2013.1, Build901 2013/11/27)

>  <Rbt.Parameter_File>
/export/apps/rDock/src/rDock_2013.1_src/data/scripts/dock_solv.prm

>  <Rbt.Receptor>
prm/blind_docking_40.prm

>  <SCORE>
-18.564

>  <SCORE.INTER>
-16.1149

>  <SCORE.INTER.CONST>
1

>  <SCORE.INTER.POLAR>
0

>  <SCORE.INTER.ROT>
7

>  <SCORE.INTER.SOLV>
14.5965

>  <SCORE.INTER.VDW>
-23.8754

>  <SCORE.INTER.norm>
-0.596846

>  <SCORE.INTRA>
-2.44915

>  <SCORE.INTRA.DIHEDRAL>
-5.46989

>  <SCORE.INTRA.DIHEDRAL.0>
10.4103

>  <SCORE.INTRA.POLAR>
0

>  <SCORE.INTRA.POLAR.0>
0

>  <SCORE.INTRA.REPUL>
0

>  <SCORE.INTRA.REPUL.0>
0

>  <SCORE.INTRA.SOLV>
-0.5983

>  <SCORE.INTRA.SOLV.lig_0>
-49.5008

>  <SCORE.INTRA.VDW>
0.584946

>  <SCORE.INTRA.VDW.0>
-2.6946

>  <SCORE.INTRA.norm>
-0.0907093

>  <SCORE.RESTR>
0

>  <SCORE.RESTR.CAVITY>
0

>  <SCORE.RESTR.norm>
0

>  <SCORE.SYSTEM>
0

>  <SCORE.SYSTEM.CONST>
0

>  <SCORE.SYSTEM.DIHEDRAL>
0

>  <SCORE.SYSTEM.SOLV>
0

>  <SCORE.SYSTEM.norm>
0

>  <SCORE.heavy>
27

>  <SCORE.norm>
-0.687556

>  <RMSD>
12.254

$$$$
ligand
 OpenBabel02271912153D
libRbt.so/2013.1/901 2013/11/27
 27 29  0  0  0  0  0  0  0  0999 V2000
    4.7258  -18.8240    6.4044 N   0  0  0  0  0  0  0  0  0  0  0  0
    5.5829  -18.2884    7.4449 C   0  0  2  0  0  0  0  0  0  0  0  0
    6.4596  -19.4063    7.9191 C   0  0  0  0  0  0  0  0  0  0  0  0
    7.6919  -19.2182    8.0106 O   0  0  0  0  0  0  0  0  0  0  0  0
    4.7424  -17.7443    8.6033 C   0  0  0  0  0  0  0  0  0  0  0  0
    5.5846  -16.8536    9.5433 C   0  0  0  0  0  0  0  0  0  0  0  0
    4.8499  -16.4328   10.9919 S   0  0  2  0  0  0  0  0  0  0  0  0
    4.5397  -17.8067   11.8721 C   0  0  0  0  0  0  0  0  0  0  0  0
    3.4226  -15.5869   10.6825 C   0  0  0  0  0  0  0  0  0  0  0  0
    2.8230  -14.8902   11.9222 C   0  0  1  0  0  0  0  0  0  0  0  0
    3.4245  -13.6150   12.2012 O   0  0  0  0  0  0  0  0  0  0  0  0
    1.3575  -14.5195   11.7620 C   0  0  1  0  0  0  0  0  0  0  0  0
    0.3906  -15.5855   11.8479 O   0  0  0  0  0  0  0  0  0  0  0  0
    1.2165  -13.4790   12.8454 C   0  0  1  0  0  0  0  0  0  0  0  0
    1.2412  -14.1007   14.1268 O   0  0  0  0  0  0  0  0  0  0  0  0
    2.4658  -12.6664   12.6752 C   0  0  2  0  0  0  0  0  0  0  0  0
    5.9395  -20.4999    8.2457 O   0  0  0  0  0  0  0  0  0  0  0  0
    0.1054   -8.0461   11.5099 N   0  0  0  0  0  0  0  0  0  0  0  0
   -0.0398   -8.8256   12.6089 C   0  0  0  0  0  0  0  0  0  0  0  0
    0.6205   -9.9845   12.7710 N   0  0  0  0  0  0  0  0  0  0  0  0
    1.4877  -10.4371   11.8586 C   0  0  0  0  0  0  0  0  0  0  0  0
    1.7041   -9.6329   10.6653 C   0  0  0  0  0  0  0  0  0  0  0  0
    0.9585   -8.3655   10.4866 C   0  0  0  0  0  0  0  0  0  0  0  0
    1.1177   -7.5642    9.3752 N   0  0  0  0  0  0  0  0  0  0  0  0
    2.5956  -10.2841    9.9532 N   0  0  0  0  0  0  0  0  0  0  0  0
    2.9226  -11.4143   10.5948 C   0  0  0  0  0  0  0  0  0  0  0  0
    2.2622  -11.5114   11.7480 N   0  0  0  0  0  0  0  0  0  0  0  0
  2  1  1  6  0  0  0
  2  3  1  0  0  0  0
  2  5  1  0  0  0  0
  3  4  1  0  0  0  0
  3 17  1  0  0  0  0
  5  6  1  0  0  0  0
  7  6  1  6  0  0  0
  7  8  1  0  0  0  0
  7  9  1  0  0  0  0
 10  9  1  6  0  0  0
 10 11  1  0  0  0  0
 10 12  1  0  0  0  0
 11 16  1  0  0  0  0
 12 13  1  1  0  0  0
 12 14  1  0  0  0  0
 14 15  1  1  0  0  0
 14 16  1  0  0  0  0
 16 27  1  6  0  0  0
 18 19  2  0  0  0  0
 18 23  1  0  0  0  0
 19 20  1  0  0  0  0
 20 21  2  0  0  0  0
 21 22  1  0  0  0  0
 21 27  1  0  0  0  0
 22 23  2  0  0  0  0
 22 25  1  0  0  0  0
 23 24  1  0  0  0  0
 25 26  2  0  0  0  0
 26 27  1  0  0  0  0
M  END
>  <CHROM.1>
130.88599533,-165.36436293,-169.22693741,62.01490899,-167.51657480,82.78753980
-178.41951452,3.10667947,-14.17435229,10.70529025,-0.59648309,1.00441065
-0.57764857

>  <Name>
ligand

>  <RI>
0

>  <Rbt.Current_Directory>
/home/itssahil/PROJECTS/Mol_Feturizer/Test_systems_manuscript/rnas/4kqy

>  <Rbt.Executable>
rbdock ($Id: //depot/dev/client3/rdock/2013.1/src/exe/rbdock.cxx#4 $)

>  <Rbt.Library>
libRbt.so (2013.1, Build901 2013/11/27)

>  <Rbt.Parameter_File>
/export/apps/rDock/src/rDock_2013.1_src/data/scripts/dock_solv.prm

>  <Rbt.Receptor>
prm/blind_docking_100.prm

>  <SCORE>
-18.3392

>  <SCORE.INTER>
-16.266

>  <SCORE.INTER.CONST>
1

>  <SCORE.INTER.POLAR>
0

>  <SCORE.INTER.ROT>
7

>  <SCORE.INTER.SOLV>
17.3692

>  <SCORE.INTER.VDW>
-24.9004

>  <SCORE.INTER.norm>
-0.602444

>  <SCORE.INTRA>
-2.07315

>  <SCORE.INTRA.DIHEDRAL>
-4.35649

>  <SCORE.INTRA.DIHEDRAL.0>
10.4103

>  <SCORE.INTRA.POLAR>
0

>  <SCORE.INTRA.POLAR.0>
0

>  <SCORE.INTRA.REPUL>
0

>  <SCORE.INTRA.REPUL.0>
0

>  <SCORE.INTRA.SOLV>
-0.738567

>  <SCORE.INTRA.SOLV.lig_0>
-49.5008

>  <SCORE.INTRA.VDW>
0.474374

>  <SCORE.INTRA.VDW.0>
-2.6946

>  <SCORE.INTRA.norm>
-0.0767835

>  <SCORE.RESTR>
0

>  <SCORE.RESTR.CAVITY>
0

>  <SCORE.RESTR.norm>
0

>  <SCORE.SYSTEM>
0

>  <SCORE.SYSTEM.CONST>
0

>  <SCORE.SYSTEM.DIHEDRAL>
0

>  <SCORE.SYSTEM.SOLV>
0

>  <SCORE.SYSTEM.norm>
0

>  <SCORE.heavy>
27

>  <SCORE.norm>
-0.679228

>  <RMSD>
12.281

$$$$
ligand
 OpenBabel02271912153D
libRbt.so/2013.1/901 2013/11/27
 27 29  0  0  0  0  0  0  0  0999 V2000
    6.0095  -10.5480    8.9002 N   0  0  0  0  0  0  0  0  0  0  0  0
    5.0363  -10.6995    7.8353 C   0  0  2  0  0  0  0  0  0  0  0  0
    5.7967  -10.9495    6.5694 C   0  0  0  0  0  0  0  0  0  0  0  0
    6.6581  -10.1218    6.2017 O   0  0  0  0  0  0  0  0  0  0  0  0
    4.1860   -9.4331    7.7031 C   0  0  0  0  0  0  0  0  0  0  0  0
    3.4092   -9.1354    9.0048 C   0  0  0  0  0  0  0  0  0  0  0  0
    2.3074  -10.3102    9.4748 S   0  0  2  0  0  0  0  0  0  0  0  0
    1.0476  -10.3485    8.3930 C   0  0  0  0  0  0  0  0  0  0  0  0
    1.7476   -9.9766   11.0317 C   0  0  0  0  0  0  0  0  0  0  0  0
    0.6582  -10.9494   11.5303 C   0  0  1  0  0  0  0  0  0  0  0  0
    0.5082  -12.1085   10.6936 O   0  0  0  0  0  0  0  0  0  0  0  0
    0.9720  -11.5734   12.8805 C   0  0  1  0  0  0  0  0  0  0  0  0
    0.8155  -10.7418   14.0478 O   0  0  0  0  0  0  0  0  0  0  0  0
    0.0495  -12.7670   12.8535 C   0  0  1  0  0  0  0  0  0  0  0  0
   -1.3015  -12.3447   13.0131 O   0  0  0  0  0  0  0  0  0  0  0  0
    0.2352  -13.2852   11.4581 C   0  0  2  0  0  0  0  0  0  0  0  0
    5.5787  -11.9988    5.9178 O   0  0  0  0  0  0  0  0  0  0  0  0
    5.1723  -14.6818   10.0616 N   0  0  0  0  0  0  0  0  0  0  0  0
    4.5503  -13.4864    9.9175 C   0  0  0  0  0  0  0  0  0  0  0  0
    3.2839  -13.2733   10.3127 N   0  0  0  0  0  0  0  0  0  0  0  0
    2.5561  -14.2306   10.8986 C   0  0  0  0  0  0  0  0  0  0  0  0
    3.1765  -15.5310   11.1019 C   0  0  0  0  0  0  0  0  0  0  0  0
    4.5670  -15.7624   10.6468 C   0  0  0  0  0  0  0  0  0  0  0  0
    5.2057  -16.9745   10.8074 N   0  0  0  0  0  0  0  0  0  0  0  0
    2.2683  -16.2703   11.6974 N   0  0  0  0  0  0  0  0  0  0  0  0
    1.1526  -15.5448   11.8547 C   0  0  0  0  0  0  0  0  0  0  0  0
    1.3199  -14.3110   11.3800 N   0  0  0  0  0  0  0  0  0  0  0  0
  2  1  1  1  0  0  0
  2  3  1  0  0  0  0
  2  5  1  0  0  0  0
  3  4  1  0  0  0  0
  3 17  1  0  0  0  0
  5  6  1  0  0  0  0
  7  6  1  6  0  0  0
  7  8  1  0  0  0  0
  7  9  1  0  0  0  0
 10  9  1  6  0  0  0
 10 11  1  0  0  0  0
 10 12  1  0  0  0  0
 11 16  1  0  0  0  0
 12 13  1  1  0  0  0
 12 14  1  0  0  0  0
 14 15  1  6  0  0  0
 14 16  1  0  0  0  0
 16 27  1  1  0  0  0
 18 19  2  0  0  0  0
 18 23  1  0  0  0  0
 19 20  1  0  0  0  0
 20 21  2  0  0  0  0
 21 22  1  0  0  0  0
 21 27  1  0  0  0  0
 22 23  2  0  0  0  0
 22 25  1  0  0  0  0
 23 24  1  0  0  0  0
 25 26  2  0  0  0  0
 26 27  1  0  0  0  0
M  END
>  <CHROM.1>
-56.44297994,-60.50362571,-61.82387586,-68.28344238,176.34604801,11.57616568
11.64979862,2.80508339,-12.31548227,10.17106514,-0.64685814,-0.67098206,2.74602383

>  <Name>
ligand

>  <RI>
0

>  <Rbt.Current_Directory>
/home/itssahil/PROJECTS/Mol_Feturizer/Test_systems_manuscript/rnas/4kqy

>  <Rbt.Executable>
rbdock ($Id: //depot/dev/client3/rdock/2013.1/src/exe/rbdock.cxx#4 $)

>  <Rbt.Library>
libRbt.so (2013.1, Build901 2013/11/27)

>  <Rbt.Parameter_File>
/export/apps/rDock/src/rDock_2013.1_src/data/scripts/dock_solv.prm

>  <Rbt.Receptor>
prm/blind_docking_80.prm

>  <SCORE>
-16.1455

>  <SCORE.INTER>
-15.0979

>  <SCORE.INTER.CONST>
1

>  <SCORE.INTER.POLAR>
0

>  <SCORE.INTER.ROT>
7

>  <SCORE.INTER.SOLV>
10.38

>  <SCORE.INTER.VDW>
-21.792

>  <SCORE.INTER.norm>
-0.559182

>  <SCORE.INTRA>
-1.0476

>  <SCORE.INTRA.DIHEDRAL>
-2.67985

>  <SCORE.INTRA.DIHEDRAL.0>
10.4103

>  <SCORE.INTRA.POLAR>
0

>  <SCORE.INTRA.POLAR.0>
0

>  <SCORE.INTRA.REPUL>
0

>  <SCORE.INTRA.REPUL.0>
0

>  <SCORE.INTRA.SOLV>
1.23102

>  <SCORE.INTRA.SOLV.lig_0>
-49.5008

>  <SCORE.INTRA.VDW>
-0.323182

>  <SCORE.INTRA.VDW.0>
-2.6946

>  <SCORE.INTRA.norm>
-0.0388

>  <SCORE.RESTR>
0

>  <SCORE.RESTR.CAVITY>
0

>  <SCORE.RESTR.norm>
0

>  <SCORE.SYSTEM>
0

>  <SCORE.SYSTEM.CONST>
0

>  <SCORE.SYSTEM.DIHEDRAL>
0

>  <SCORE.SYSTEM.SOLV>
0

>  <SCORE.SYSTEM.norm>
0

>  <SCORE.heavy>
27

>  <SCORE.norm>
-0.597982

>  <RMSD>
12.304

$$$$
ligand
 OpenBabel02271912153D
libRbt.so/2013.1/901 2013/11/27
 27 29  0  0  0  0  0  0  0  0999 V2000
    6.5214  -19.2029    7.4151 N   0  0  0  0  0  0  0  0  0  0  0  0
    5.3919  -18.3273    7.6635 C   0  0  2  0  0  0  0  0  0  0  0  0
    5.4100  -17.2664    6.6064 C   0  0  0  0  0  0  0  0  0  0  0  0
    4.3971  -17.0981    5.8937 O   0  0  0  0  0  0  0  0  0  0  0  0
    5.5008  -17.6944    9.0534 C   0  0  0  0  0  0  0  0  0  0  0  0
    4.1838  -16.9982    9.4624 C   0  0  0  0  0  0  0  0  0  0  0  0
    4.2540  -16.0861   10.8689 S   0  0  2  0  0  0  0  0  0  0  0  0
    4.7257  -17.0563   12.1319 C   0  0  0  0  0  0  0  0  0  0  0  0
    2.7447  -15.3965   11.1770 C   0  0  0  0  0  0  0  0  0  0  0  0
    2.7939  -14.1636   12.1040 C   0  0  1  0  0  0  0  0  0  0  0  0
    3.0229  -12.9329   11.3977 O   0  0  0  0  0  0  0  0  0  0  0  0
    1.4781  -13.8814   12.8110 C   0  0  1  0  0  0  0  0  0  0  0  0
    1.1192  -14.7406   13.9118 O   0  0  0  0  0  0  0  0  0  0  0  0
    1.6801  -12.4388   13.2036 C   0  0  1  0  0  0  0  0  0  0  0  0
    2.6275  -12.3484   14.2634 O   0  0  0  0  0  0  0  0  0  0  0  0
    2.2814  -11.8490   11.9624 C   0  0  2  0  0  0  0  0  0  0  0  0
    6.4280  -16.5454    6.4759 O   0  0  0  0  0  0  0  0  0  0  0  0
    0.4370   -7.8884    8.9313 N   0  0  0  0  0  0  0  0  0  0  0  0
    1.5715   -7.9403    9.6707 C   0  0  0  0  0  0  0  0  0  0  0  0
    1.9141   -9.0137   10.4027 N   0  0  0  0  0  0  0  0  0  0  0  0
    1.1604  -10.1184   10.4321 C   0  0  0  0  0  0  0  0  0  0  0  0
   -0.0604  -10.1327    9.6403 C   0  0  0  0  0  0  0  0  0  0  0  0
   -0.4394   -8.9383    8.8505 C   0  0  0  0  0  0  0  0  0  0  0  0
   -1.5863   -8.8909    8.0855 N   0  0  0  0  0  0  0  0  0  0  0  0
   -0.5961  -11.3169    9.8320 N   0  0  0  0  0  0  0  0  0  0  0  0
    0.1759  -12.0107   10.6797 C   0  0  0  0  0  0  0  0  0  0  0  0
    1.2407  -11.2963   11.0424 N   0  0  0  0  0  0  0  0  0  0  0  0
  2  1  1  6  0  0  0
  2  3  1  0  0  0  0
  2  5  1  0  0  0  0
  3  4  1  0  0  0  0
  3 17  1  0  0  0  0
  5  6  1  0  0  0  0
  7  6  1  6  0  0  0
  7  8  1  0  0  0  0
  7  9  1  0  0  0  0
 10  9  1  6  0  0  0
 10 11  1  0  0  0  0
 10 12  1  0  0  0  0
 11 16  1  0  0  0  0
 12 13  1  1  0  0  0
 12 14  1  0  0  0  0
 14 15  1  1  0  0  0
 14 16  1  0  0  0  0
 16 27  1  6  0  0  0
 18 19  2  0  0  0  0
 18 23  1  0  0  0  0
 19 20  1  0  0  0  0
 20 21  2  0  0  0  0
 21 22  1  0  0  0  0
 21 27  1  0  0  0  0
 22 23  2  0  0  0  0
 22 25  1  0  0  0  0
 23 24  1  0  0  0  0
 25 26  2  0  0  0  0
 26 27  1  0  0  0  0
M  END
>  <CHROM.1>
124.29318173,-168.12604913,-171.70239927,-58.30903840,-158.82233811,87.07164150
-112.15387147,2.67861383,-13.62250893,10.19959504,-0.01680290,1.02483158
-1.30856669

>  <Name>
ligand

>  <RI>
0

>  <Rbt.Current_Directory>
/home/itssahil/PROJECTS/Mol_Feturizer/Test_systems_manuscript/rnas/4kqy

>  <Rbt.Executable>
rbdock ($Id: //depot/dev/client3/rdock/2013.1/src/exe/rbdock.cxx#4 $)

>  <Rbt.Library>
libRbt.so (2013.1, Build901 2013/11/27)

>  <Rbt.Parameter_File>
/export/apps/rDock/src/rDock_2013.1_src/data/scripts/dock_solv.prm

>  <Rbt.Receptor>
prm/blind_docking_80.prm

>  <SCORE>
-17.3763

>  <SCORE.INTER>
-16.0144

>  <SCORE.INTER.CONST>
1

>  <SCORE.INTER.POLAR>
0

>  <SCORE.INTER.ROT>
7

>  <SCORE.INTER.SOLV>
14.7231

>  <SCORE.INTER.VDW>
-23.8506

>  <SCORE.INTER.norm>
-0.593127

>  <SCORE.INTRA>
-1.36183

>  <SCORE.INTRA.DIHEDRAL>
-3.41548

>  <SCORE.INTRA.DIHEDRAL.0>
10.4103

>  <SCORE.INTRA.POLAR>
0

>  <SCORE.INTRA.POLAR.0>
0

>  <SCORE.INTRA.REPUL>
0

>  <SCORE.INTRA.REPUL.0>
0

>  <SCORE.INTRA.SOLV>
-0.763372

>  <SCORE.INTRA.SOLV.lig_0>
-49.5008

>  <SCORE.INTRA.VDW>
0.727589

>  <SCORE.INTRA.VDW.0>
-2.6946

>  <SCORE.INTRA.norm>
-0.0504383

>  <SCORE.RESTR>
0

>  <SCORE.RESTR.CAVITY>
0

>  <SCORE.RESTR.norm>
0

>  <SCORE.SYSTEM>
0

>  <SCORE.SYSTEM.CONST>
0

>  <SCORE.SYSTEM.DIHEDRAL>
0

>  <SCORE.SYSTEM.SOLV>
0

>  <SCORE.SYSTEM.norm>
0

>  <SCORE.heavy>
27

>  <SCORE.norm>
-0.643565

>  <RMSD>
12.307

$$$$
ligand
 OpenBabel02271912153D
libRbt.so/2013.1/901 2013/11/27
 27 29  0  0  0  0  0  0  0  0999 V2000
   -1.7372   -9.5230   13.4016 N   0  0  0  0  0  0  0  0  0  0  0  0
   -0.4635  -10.0689   12.9729 C   0  0  2  0  0  0  0  0  0  0  0  0
    0.2065  -10.6404   14.1844 C   0  0  0  0  0  0  0  0  0  0  0  0
   -0.4128  -10.6638   15.2698 O   0  0  0  0  0  0  0  0  0  0  0  0
    0.4067   -8.9729   12.3519 C   0  0  0  0  0  0  0  0  0  0  0  0
   -0.0510   -8.6333   10.9160 C   0  0  0  0  0  0  0  0  0  0  0  0
   -0.0791   -9.9219    9.8418 S   0  0  2  0  0  0  0  0  0  0  0  0
    1.3860  -10.7033    9.8799 C   0  0  0  0  0  0  0  0  0  0  0  0
   -0.4160   -9.3601    8.2863 C   0  0  0  0  0  0  0  0  0  0  0  0
   -1.8361   -8.7788    8.1214 C   0  0  1  0  0  0  0  0  0  0  0  0
   -2.0060   -7.5070    8.7691 O   0  0  0  0  0  0  0  0  0  0  0  0
   -2.1950   -8.4498    6.6813 C   0  0  1  0  0  0  0  0  0  0  0  0
   -2.5052   -9.5532    5.8066 O   0  0  0  0  0  0  0  0  0  0  0  0
   -3.3459   -7.4980    6.8947 C   0  0  1  0  0  0  0  0  0  0  0  0
   -4.4935   -8.2115    7.3454 O   0  0  0  0  0  0  0  0  0  0  0  0
   -2.8433   -6.6309    8.0108 C   0  0  2  0  0  0  0  0  0  0  0  0
    1.3635  -11.1137   14.0818 O   0  0  0  0  0  0  0  0  0  0  0  0
    1.5591   -3.6671    7.6781 N   0  0  0  0  0  0  0  0  0  0  0  0
    1.3656   -4.8377    8.3330 C   0  0  0  0  0  0  0  0  0  0  0  0
    0.1862   -5.4813    8.3389 N   0  0  0  0  0  0  0  0  0  0  0  0
   -0.8769   -5.0141    7.6749 C   0  0  0  0  0  0  0  0  0  0  0  0
   -0.7259   -3.7714    6.9331 C   0  0  0  0  0  0  0  0  0  0  0  0
    0.5729   -3.0592    6.9469 C   0  0  0  0  0  0  0  0  0  0  0  0
    0.7746   -1.8756    6.2677 N   0  0  0  0  0  0  0  0  0  0  0  0
   -1.8922   -3.5470    6.3716 N   0  0  0  0  0  0  0  0  0  0  0  0
   -2.7377   -4.5265    6.7205 C   0  0  0  0  0  0  0  0  0  0  0  0
   -2.1312   -5.4186    7.5027 N   0  0  0  0  0  0  0  0  0  0  0  0
  2  1  1  1  0  0  0
  2  3  1  0  0  0  0
  2  5  1  0  0  0  0
  3  4  1  0  0  0  0
  3 17  1  0  0  0  0
  5  6  1  0  0  0  0
  7  6  1  1  0  0  0
  7  8  1  0  0  0  0
  7  9  1  0  0  0  0
 10  9  1  6  0  0  0
 10 11  1  0  0  0  0
 10 12  1  0  0  0  0
 11 16  1  0  0  0  0
 12 13  1  6  0  0  0
 12 14  1  0  0  0  0
 14 15  1  1  0  0  0
 14 16  1  0  0  0  0
 16 27  1  6  0  0  0
 18 19  2  0  0  0  0
 18 23  1  0  0  0  0
 19 20  1  0  0  0  0
 20 21  2  0  0  0  0
 21 22  1  0  0  0  0
 21 27  1  0  0  0  0
 22 23  2  0  0  0  0
 22 25  1  0  0  0  0
 23 24  1  0  0  0  0
 25 26  2  0  0  0  0
 26 27  1  0  0  0  0
M  END
>  <CHROM.1>
5.34370654,-77.00152588,-56.98804001,-51.55688588,-66.47946441,72.11846164
-2.26669879,-0.82551412,-7.54477058,9.18845632,-1.39533123,-0.78594949,-0.68118918

>  <Name>
ligand

>  <RI>
0

>  <Rbt.Current_Directory>
/home/itssahil/PROJECTS/Mol_Feturizer/Test_systems_manuscript/rnas/4kqy

>  <Rbt.Executable>
rbdock ($Id: //depot/dev/client3/rdock/2013.1/src/exe/rbdock.cxx#4 $)

>  <Rbt.Library>
libRbt.so (2013.1, Build901 2013/11/27)

>  <Rbt.Parameter_File>
/export/apps/rDock/src/rDock_2013.1_src/data/scripts/dock_solv.prm

>  <Rbt.Receptor>
prm/blind_docking_20.prm

>  <SCORE>
-17.0691

>  <SCORE.INTER>
-15.1999

>  <SCORE.INTER.CONST>
1

>  <SCORE.INTER.POLAR>
0

>  <SCORE.INTER.ROT>
7

>  <SCORE.INTER.SOLV>
15.342

>  <SCORE.INTER.VDW>
-23.5139

>  <SCORE.INTER.norm>
-0.56296

>  <SCORE.INTRA>
-2.05118

>  <SCORE.INTRA.DIHEDRAL>
-5.74948

>  <SCORE.INTRA.DIHEDRAL.0>
10.4103

>  <SCORE.INTRA.POLAR>
0

>  <SCORE.INTRA.POLAR.0>
0

>  <SCORE.INTRA.REPUL>
0

>  <SCORE.INTRA.REPUL.0>
0

>  <SCORE.INTRA.SOLV>
0.501792

>  <SCORE.INTRA.SOLV.lig_0>
-49.5008

>  <SCORE.INTRA.VDW>
0.572661

>  <SCORE.INTRA.VDW.0>
-2.6946

>  <SCORE.INTRA.norm>
-0.0759697

>  <SCORE.RESTR>
0.18202

>  <SCORE.RESTR.CAVITY>
0.18202

>  <SCORE.RESTR.norm>
0.0067415

>  <SCORE.SYSTEM>
0

>  <SCORE.SYSTEM.CONST>
0

>  <SCORE.SYSTEM.DIHEDRAL>
0

>  <SCORE.SYSTEM.SOLV>
0

>  <SCORE.SYSTEM.norm>
0

>  <SCORE.heavy>
27

>  <SCORE.norm>
-0.632188

>  <RMSD>
12.405

$$$$
ligand
 OpenBabel02271912153D
libRbt.so/2013.1/901 2013/11/27
 27 29  0  0  0  0  0  0  0  0999 V2000
    8.4303   -8.4389    8.9256 N   0  0  0  0  0  0  0  0  0  0  0  0
    7.0029   -8.1907    8.9973 C   0  0  2  0  0  0  0  0  0  0  0  0
    6.8007   -7.0114    9.8982 C   0  0  0  0  0  0  0  0  0  0  0  0
    5.6420   -6.5863   10.0957 O   0  0  0  0  0  0  0  0  0  0  0  0
    6.2738   -9.4163    9.5545 C   0  0  0  0  0  0  0  0  0  0  0  0
    4.7683   -9.3837    9.2098 C   0  0  0  0  0  0  0  0  0  0  0  0
    3.8204  -10.5207    9.9996 S   0  0  2  0  0  0  0  0  0  0  0  0
    4.4616  -12.0342    9.7610 C   0  0  0  0  0  0  0  0  0  0  0  0
    2.2372  -10.4448    9.4197 C   0  0  0  0  0  0  0  0  0  0  0  0
    1.2463  -11.3554   10.1751 C   0  0  1  0  0  0  0  0  0  0  0  0
    1.5262  -12.7556   10.0110 O   0  0  0  0  0  0  0  0  0  0  0  0
    1.3053  -11.1968   11.6858 C   0  0  1  0  0  0  0  0  0  0  0  0
    0.7068  -10.0137   12.2522 O   0  0  0  0  0  0  0  0  0  0  0  0
    0.6482  -12.4824   12.1237 C   0  0  1  0  0  0  0  0  0  0  0  0
   -0.7508  -12.4310   11.8605 O   0  0  0  0  0  0  0  0  0  0  0  0
    1.2778  -13.4924   11.2106 C   0  0  2  0  0  0  0  0  0  0  0  0
    7.7926   -6.4914   10.4629 O   0  0  0  0  0  0  0  0  0  0  0  0
    5.3575  -16.8897   10.9110 N   0  0  0  0  0  0  0  0  0  0  0  0
    4.3692  -16.6612   10.0124 C   0  0  0  0  0  0  0  0  0  0  0  0
    3.3868  -15.7691   10.2230 N   0  0  0  0  0  0  0  0  0  0  0  0
    3.3327  -15.0272   11.3347 C   0  0  0  0  0  0  0  0  0  0  0  0
    4.3793  -15.2106   12.3289 C   0  0  0  0  0  0  0  0  0  0  0  0
    5.4484  -16.2091   12.0964 C   0  0  0  0  0  0  0  0  0  0  0  0
    6.4633  -16.4309   13.0040 N   0  0  0  0  0  0  0  0  0  0  0  0
    4.1029  -14.3672   13.2975 N   0  0  0  0  0  0  0  0  0  0  0  0
    2.9780  -13.7066   12.9905 C   0  0  0  0  0  0  0  0  0  0  0  0
    2.5099  -14.0954   11.8051 N   0  0  0  0  0  0  0  0  0  0  0  0
  2  1  1  1  0  0  0
  2  3  1  0  0  0  0
  2  5  1  0  0  0  0
  3  4  1  0  0  0  0
  3 17  1  0  0  0  0
  5  6  1  0  0  0  0
  7  6  1  6  0  0  0
  7  8  1  0  0  0  0
  7  9  1  0  0  0  0
 10  9  1  6  0  0  0
 10 11  1  0  0  0  0
 10 12  1  0  0  0  0
 11 16  1  0  0  0  0
 12 13  1  6  0  0  0
 12 14  1  0  0  0  0
 14 15  1  6  0  0  0
 14 16  1  0  0  0  0
 16 27  1  1  0  0  0
 18 19  2  0  0  0  0
 18 23  1  0  0  0  0
 19 20  1  0  0  0  0
 20 21  2  0  0  0  0
 21 22  1  0  0  0  0
 21 27  1  0  0  0  0
 22 23  2  0  0  0  0
 22 25  1  0  0  0  0
 23 24  1  0  0  0  0
 25 26  2  0  0  0  0
 26 27  1  0  0  0  0
M  END
>  <CHROM.1>
178.56230235,-160.84222514,-169.28395810,-53.47883309,-174.36131928,-65.51912177
-64.16338105,3.88260377,-11.91308660,10.81672797,-1.16948411,-0.13774135
2.93000523

>  <Name>
ligand

>  <RI>
0

>  <Rbt.Current_Directory>
/home/itssahil/PROJECTS/Mol_Feturizer/Test_systems_manuscript/rnas/4kqy

>  <Rbt.Executable>
rbdock ($Id: //depot/dev/client3/rdock/2013.1/src/exe/rbdock.cxx#4 $)

>  <Rbt.Library>
libRbt.so (2013.1, Build901 2013/11/27)

>  <Rbt.Parameter_File>
/export/apps/rDock/src/rDock_2013.1_src/data/scripts/dock_solv.prm

>  <Rbt.Receptor>
prm/blind_docking_100.prm

>  <SCORE>
-9.98169

>  <SCORE.INTER>
-8.21308

>  <SCORE.INTER.CONST>
1

>  <SCORE.INTER.POLAR>
0

>  <SCORE.INTER.ROT>
7

>  <SCORE.INTER.SOLV>
11.8686

>  <SCORE.INTER.VDW>
-17.6983

>  <SCORE.INTER.norm>
-0.304188

>  <SCORE.INTRA>
-1.7686

>  <SCORE.INTRA.DIHEDRAL>
-5.64505

>  <SCORE.INTRA.DIHEDRAL.0>
10.4103

>  <SCORE.INTRA.POLAR>
0

>  <SCORE.INTRA.POLAR.0>
0

>  <SCORE.INTRA.REPUL>
0

>  <SCORE.INTRA.REPUL.0>
0

>  <SCORE.INTRA.SOLV>
-0.364643

>  <SCORE.INTRA.SOLV.lig_0>
-49.5008

>  <SCORE.INTRA.VDW>
1.23624

>  <SCORE.INTRA.VDW.0>
-2.6946

>  <SCORE.INTRA.norm>
-0.0655038

>  <SCORE.RESTR>
0

>  <SCORE.RESTR.CAVITY>
0

>  <SCORE.RESTR.norm>
0

>  <SCORE.SYSTEM>
0

>  <SCORE.SYSTEM.CONST>
0

>  <SCORE.SYSTEM.DIHEDRAL>
0

>  <SCORE.SYSTEM.SOLV>
0

>  <SCORE.SYSTEM.norm>
0

>  <SCORE.heavy>
27

>  <SCORE.norm>
-0.369692

>  <RMSD>
12.471

$$$$
ligand
 OpenBabel02271912153D
libRbt.so/2013.1/901 2013/11/27
 27 29  0  0  0  0  0  0  0  0999 V2000
    0.8509  -12.7048   13.8175 N   0  0  0  0  0  0  0  0  0  0  0  0
    0.5089  -13.3838   12.5821 C   0  0  2  0  0  0  0  0  0  0  0  0
    1.2062  -14.7092   12.5946 C   0  0  0  0  0  0  0  0  0  0  0  0
    2.0173  -14.9630   13.5110 O   0  0  0  0  0  0  0  0  0  0  0  0
    0.9599  -12.5574   11.3746 C   0  0  0  0  0  0  0  0  0  0  0  0
    0.2401  -11.1915   11.3237 C   0  0  0  0  0  0  0  0  0  0  0  0
    0.6202  -10.2219   10.0081 S   0  0  2  0  0  0  0  0  0  0  0  0
    2.2376   -9.8464   10.0492 C   0  0  0  0  0  0  0  0  0  0  0  0
   -0.3193   -8.8203   10.0426 C   0  0  0  0  0  0  0  0  0  0  0  0
   -1.4681   -8.8076    9.0121 C   0  0  1  0  0  0  0  0  0  0  0  0
   -2.3284   -7.6629    9.1373 O   0  0  0  0  0  0  0  0  0  0  0  0
   -0.9928   -8.6891    7.5731 C   0  0  1  0  0  0  0  0  0  0  0  0
   -0.4133   -9.8622    6.9674 O   0  0  0  0  0  0  0  0  0  0  0  0
   -2.2597   -8.2186    6.9023 C   0  0  1  0  0  0  0  0  0  0  0  0
   -3.2008   -9.2855    6.8315 O   0  0  0  0  0  0  0  0  0  0  0  0
   -2.7677   -7.1852    7.8636 C   0  0  2  0  0  0  0  0  0  0  0  0
    0.9411  -15.5522   11.7045 O   0  0  0  0  0  0  0  0  0  0  0  0
    1.1923   -3.6394    7.7154 N   0  0  0  0  0  0  0  0  0  0  0  0
    1.2114   -4.9229    8.1502 C   0  0  0  0  0  0  0  0  0  0  0  0
    0.1237   -5.7115    8.1371 N   0  0  0  0  0  0  0  0  0  0  0  0
   -1.0541   -5.2826    7.6700 C   0  0  0  0  0  0  0  0  0  0  0  0
   -1.1333   -3.9193    7.1676 C   0  0  0  0  0  0  0  0  0  0  0  0
    0.0664   -3.0512    7.2025 C   0  0  0  0  0  0  0  0  0  0  0  0
    0.0511   -1.7497    6.7456 N   0  0  0  0  0  0  0  0  0  0  0  0
   -2.3731   -3.7594    6.7635 N   0  0  0  0  0  0  0  0  0  0  0  0
   -3.0539   -4.8908    6.9927 C   0  0  0  0  0  0  0  0  0  0  0  0
   -2.2636   -5.8167    7.5347 N   0  0  0  0  0  0  0  0  0  0  0  0
  2  1  1  1  0  0  0
  2  3  1  0  0  0  0
  2  5  1  0  0  0  0
  3  4  1  0  0  0  0
  3 17  1  0  0  0  0
  5  6  1  0  0  0  0
  7  6  1  1  0  0  0
  7  8  1  0  0  0  0
  7  9  1  0  0  0  0
 10  9  1  1  0  0  0
 10 11  1  0  0  0  0
 10 12  1  0  0  0  0
 11 16  1  0  0  0  0
 12 13  1  6  0  0  0
 12 14  1  0  0  0  0
 14 15  1  1  0  0  0
 14 16  1  0  0  0  0
 16 27  1  6  0  0  0
 18 19  2  0  0  0  0
 18 23  1  0  0  0  0
 19 20  1  0  0  0  0
 20 21  2  0  0  0  0
 21 22  1  0  0  0  0
 21 27  1  0  0  0  0
 22 23  2  0  0  0  0
 22 25  1  0  0  0  0
 23 24  1  0  0  0  0
 25 26  2  0  0  0  0
 26 27  1  0  0  0  0
M  END
>  <CHROM.1>
-6.80623976,-62.40963406,-177.98315587,-62.13944526,-104.97216199,174.71656680
44.50378662,-0.35793075,-8.61132838,9.17525550,-1.32855671,-0.57420690,-0.36635705

>  <Name>
ligand

>  <RI>
0

>  <Rbt.Current_Directory>
/home/itssahil/PROJECTS/Mol_Feturizer/Test_systems_manuscript/rnas/4kqy

>  <Rbt.Executable>
rbdock ($Id: //depot/dev/client3/rdock/2013.1/src/exe/rbdock.cxx#4 $)

>  <Rbt.Library>
libRbt.so (2013.1, Build901 2013/11/27)

>  <Rbt.Parameter_File>
/export/apps/rDock/src/rDock_2013.1_src/data/scripts/dock_solv.prm

>  <Rbt.Receptor>
prm/blind_docking_60.prm

>  <SCORE>
-16.0763

>  <SCORE.INTER>
-14.4708

>  <SCORE.INTER.CONST>
1

>  <SCORE.INTER.POLAR>
0

>  <SCORE.INTER.ROT>
7

>  <SCORE.INTER.SOLV>
13.1101

>  <SCORE.INTER.VDW>
-22.2839

>  <SCORE.INTER.norm>
-0.535957

>  <SCORE.INTRA>
-1.64332

>  <SCORE.INTRA.DIHEDRAL>
-3.42963

>  <SCORE.INTRA.DIHEDRAL.0>
10.4103

>  <SCORE.INTRA.POLAR>
0

>  <SCORE.INTRA.POLAR.0>
0

>  <SCORE.INTRA.REPUL>
0

>  <SCORE.INTRA.REPUL.0>
0

>  <SCORE.INTRA.SOLV>
0.289032

>  <SCORE.INTRA.SOLV.lig_0>
-49.5008

>  <SCORE.INTRA.VDW>
-0.0730187

>  <SCORE.INTRA.VDW.0>
-2.6946

>  <SCORE.INTRA.norm>
-0.0608636

>  <SCORE.RESTR>
0.0378334

>  <SCORE.RESTR.CAVITY>
0.0378334

>  <SCORE.RESTR.norm>
0.00140124

>  <SCORE.SYSTEM>
0

>  <SCORE.SYSTEM.CONST>
0

>  <SCORE.SYSTEM.DIHEDRAL>
0

>  <SCORE.SYSTEM.SOLV>
0

>  <SCORE.SYSTEM.norm>
0

>  <SCORE.heavy>
27

>  <SCORE.norm>
-0.59542

>  <RMSD>
12.523

$$$$
ligand
 OpenBabel02271912153D
libRbt.so/2013.1/901 2013/11/27
 27 29  0  0  0  0  0  0  0  0999 V2000
    2.2390  -12.4805   12.1521 N   0  0  0  0  0  0  0  0  0  0  0  0
    2.1507  -11.5027   11.0842 C   0  0  2  0  0  0  0  0  0  0  0  0
    3.4000  -11.6220   10.2668 C   0  0  0  0  0  0  0  0  0  0  0  0
    4.0926  -12.6583   10.3591 O   0  0  0  0  0  0  0  0  0  0  0  0
    2.0261  -10.0900   11.6612 C   0  0  0  0  0  0  0  0  0  0  0  0
    0.6819   -9.8965   12.3974 C   0  0  0  0  0  0  0  0  0  0  0  0
   -0.6788   -9.8422   11.4171 S   0  0  2  0  0  0  0  0  0  0  0  0
   -0.9463  -11.3449   10.7619 C   0  0  0  0  0  0  0  0  0  0  0  0
   -0.4604   -8.6913   10.2021 C   0  0  0  0  0  0  0  0  0  0  0  0
   -1.5497   -8.7161    9.1092 C   0  0  1  0  0  0  0  0  0  0  0  0
   -2.4376   -7.5874    9.1691 O   0  0  0  0  0  0  0  0  0  0  0  0
   -0.9971   -8.6081    7.6971 C   0  0  1  0  0  0  0  0  0  0  0  0
   -0.3621   -9.7776    7.1424 O   0  0  0  0  0  0  0  0  0  0  0  0
   -2.2333   -8.1727    6.9499 C   0  0  1  0  0  0  0  0  0  0  0  0
   -3.1482   -9.2591    6.8429 O   0  0  0  0  0  0  0  0  0  0  0  0
   -2.8141   -7.1364    7.8658 C   0  0  2  0  0  0  0  0  0  0  0  0
    3.7122  -10.6951    9.4816 O   0  0  0  0  0  0  0  0  0  0  0  0
    1.1377   -3.5834    7.6792 N   0  0  0  0  0  0  0  0  0  0  0  0
    1.1679   -4.8727    8.0955 C   0  0  0  0  0  0  0  0  0  0  0  0
    0.0810   -5.6626    8.0956 N   0  0  0  0  0  0  0  0  0  0  0  0
   -1.1074   -5.2289    7.6608 C   0  0  0  0  0  0  0  0  0  0  0  0
   -1.1992   -3.8588    7.1794 C   0  0  0  0  0  0  0  0  0  0  0  0
    0.0001   -2.9896    7.1997 C   0  0  0  0  0  0  0  0  0  0  0  0
   -0.0268   -1.6819    6.7615 N   0  0  0  0  0  0  0  0  0  0  0  0
   -2.4479   -3.6951    6.8052 N   0  0  0  0  0  0  0  0  0  0  0  0
   -3.1221   -4.8305    7.0336 C   0  0  0  0  0  0  0  0  0  0  0  0
   -2.3190   -5.7627    7.5449 N   0  0  0  0  0  0  0  0  0  0  0  0
  2  1  1  1  0  0  0
  2  3  1  0  0  0  0
  2  5  1  0  0  0  0
  3  4  1  0  0  0  0
  3 17  1  0  0  0  0
  5  6  1  0  0  0  0
  7  6  1  1  0  0  0
  7  8  1  0  0  0  0
  7  9  1  0  0  0  0
 10  9  1  1  0  0  0
 10 11  1  0  0  0  0
 10 12  1  0  0  0  0
 11 16  1  0  0  0  0
 12 13  1  6  0  0  0
 12 14  1  0  0  0  0
 14 15  1  1  0  0  0
 14 16  1  0  0  0  0
 16 27  1  6  0  0  0
 18 19  2  0  0  0  0
 18 23  1  0  0  0  0
 19 20  1  0  0  0  0
 20 21  2  0  0  0  0
 21 22  1  0  0  0  0
 21 27  1  0  0  0  0
 22 23  2  0  0  0  0
 22 25  1  0  0  0  0
 23 24  1  0  0  0  0
 25 26  2  0  0  0  0
 26 27  1  0  0  0  0
M  END
>  <CHROM.1>
18.11515739,-66.95102369,-70.36652748,69.05674897,170.60226955,108.40689141
49.37972005,-0.19126996,-8.00292412,8.98859602,-1.17802319,-0.24540035,-0.39472348

>  <Name>
ligand

>  <RI>
0

>  <Rbt.Current_Directory>
/home/itssahil/PROJECTS/Mol_Feturizer/Test_systems_manuscript/rnas/4kqy

>  <Rbt.Executable>
rbdock ($Id: //depot/dev/client3/rdock/2013.1/src/exe/rbdock.cxx#4 $)

>  <Rbt.Library>
libRbt.so (2013.1, Build901 2013/11/27)

>  <Rbt.Parameter_File>
/export/apps/rDock/src/rDock_2013.1_src/data/scripts/dock_solv.prm

>  <Rbt.Receptor>
prm/blind_docking_20.prm

>  <SCORE>
-13.5265

>  <SCORE.INTER>
-14.1364

>  <SCORE.INTER.CONST>
1

>  <SCORE.INTER.POLAR>
0

>  <SCORE.INTER.ROT>
7

>  <SCORE.INTER.SOLV>
13.9677

>  <SCORE.INTER.VDW>
-22.3468

>  <SCORE.INTER.norm>
-0.523571

>  <SCORE.INTRA>
0.594782

>  <SCORE.INTRA.DIHEDRAL>
-1.93071

>  <SCORE.INTRA.DIHEDRAL.0>
10.4103

>  <SCORE.INTRA.POLAR>
0

>  <SCORE.INTRA.POLAR.0>
0

>  <SCORE.INTRA.REPUL>
0

>  <SCORE.INTRA.REPUL.0>
0

>  <SCORE.INTRA.SOLV>
1.39353

>  <SCORE.INTRA.SOLV.lig_0>
-49.5008

>  <SCORE.INTRA.VDW>
0.863371

>  <SCORE.INTRA.VDW.0>
-2.6946

>  <SCORE.INTRA.norm>
0.022029

>  <SCORE.RESTR>
0.0151639

>  <SCORE.RESTR.CAVITY>
0.0151639

>  <SCORE.RESTR.norm>
0.000561626

>  <SCORE.SYSTEM>
0

>  <SCORE.SYSTEM.CONST>
0

>  <SCORE.SYSTEM.DIHEDRAL>
0

>  <SCORE.SYSTEM.SOLV>
0

>  <SCORE.SYSTEM.norm>
0

>  <SCORE.heavy>
27

>  <SCORE.norm>
-0.50098

>  <RMSD>
12.526

$$$$
ligand
 OpenBabel02271912153D
libRbt.so/2013.1/901 2013/11/27
 27 29  0  0  0  0  0  0  0  0999 V2000
    2.2215  -12.5535   13.5267 N   0  0  0  0  0  0  0  0  0  0  0  0
    1.0552  -13.0316   12.8088 C   0  0  2  0  0  0  0  0  0  0  0  0
    1.1613  -14.5235   12.7301 C   0  0  0  0  0  0  0  0  0  0  0  0
    0.3688  -15.2271   13.3927 O   0  0  0  0  0  0  0  0  0  0  0  0
    1.0074  -12.4274   11.4028 C   0  0  0  0  0  0  0  0  0  0  0  0
    0.5972  -10.9385   11.4409 C   0  0  0  0  0  0  0  0  0  0  0  0
    0.6244  -10.1424    9.9642 S   0  0  2  0  0  0  0  0  0  0  0  0
    2.1880   -9.7226    9.5932 C   0  0  0  0  0  0  0  0  0  0  0  0
   -0.3603   -8.7736   10.0363 C   0  0  0  0  0  0  0  0  0  0  0  0
   -1.5072   -8.7688    9.0036 C   0  0  1  0  0  0  0  0  0  0  0  0
   -2.3780   -7.6323    9.1298 O   0  0  0  0  0  0  0  0  0  0  0  0
   -1.0302   -8.6427    7.5657 C   0  0  1  0  0  0  0  0  0  0  0  0
   -0.4390   -9.8091    6.9585 O   0  0  0  0  0  0  0  0  0  0  0  0
   -2.3000   -8.1821    6.8936 C   0  0  1  0  0  0  0  0  0  0  0  0
   -3.2314   -9.2573    6.8185 O   0  0  0  0  0  0  0  0  0  0  0  0
   -2.8192   -7.1556    7.8564 C   0  0  2  0  0  0  0  0  0  0  0  0
    2.0215  -15.0402   11.9776 O   0  0  0  0  0  0  0  0  0  0  0  0
    1.1317   -3.6036    7.6330 N   0  0  0  0  0  0  0  0  0  0  0  0
    1.1657   -4.8933    8.0480 C   0  0  0  0  0  0  0  0  0  0  0  0
    0.0786   -5.6828    8.0583 N   0  0  0  0  0  0  0  0  0  0  0  0
   -1.1140   -5.2484    7.6358 C   0  0  0  0  0  0  0  0  0  0  0  0
   -1.2102   -3.8779    7.1564 C   0  0  0  0  0  0  0  0  0  0  0  0
   -0.0105   -3.0091    7.1654 C   0  0  0  0  0  0  0  0  0  0  0  0
   -0.0414   -1.7010    6.7286 N   0  0  0  0  0  0  0  0  0  0  0  0
   -2.4625   -3.7135    6.7949 N   0  0  0  0  0  0  0  0  0  0  0  0
   -3.1348   -4.8489    7.0292 C   0  0  0  0  0  0  0  0  0  0  0  0
   -2.3269   -5.7818    7.5316 N   0  0  0  0  0  0  0  0  0  0  0  0
  2  1  1  6  0  0  0
  2  3  1  0  0  0  0
  2  5  1  0  0  0  0
  3  4  1  0  0  0  0
  3 17  1  0  0  0  0
  5  6  1  0  0  0  0
  7  6  1  1  0  0  0
  7  8  1  0  0  0  0
  7  9  1  0  0  0  0
 10  9  1  1  0  0  0
 10 11  1  0  0  0  0
 10 12  1  0  0  0  0
 11 16  1  0  0  0  0
 12 13  1  6  0  0  0
 12 14  1  0  0  0  0
 14 15  1  1  0  0  0
 14 16  1  0  0  0  0
 16 27  1  6  0  0  0
 18 19  2  0  0  0  0
 18 23  1  0  0  0  0
 19 20  1  0  0  0  0
 20 21  2  0  0  0  0
 21 22  1  0  0  0  0
 21 27  1  0  0  0  0
 22 23  2  0  0  0  0
 22 25  1  0  0  0  0
 23 24  1  0  0  0  0
 25 26  2  0  0  0  0
 26 27  1  0  0  0  0
M  END
>  <CHROM.1>
110.20877725,-73.72831053,175.56935109,-79.51138152,-120.84418644,176.73442721
46.63788303,-0.33671443,-8.52913903,9.15451185,-1.31145166,-0.52535769,-0.37811269

>  <Name>
ligand

>  <RI>
0

>  <Rbt.Current_Directory>
/home/itssahil/PROJECTS/Mol_Feturizer/Test_systems_manuscript/rnas/4kqy

>  <Rbt.Executable>
rbdock ($Id: //depot/dev/client3/rdock/2013.1/src/exe/rbdock.cxx#4 $)

>  <Rbt.Library>
libRbt.so (2013.1, Build901 2013/11/27)

>  <Rbt.Parameter_File>
/export/apps/rDock/src/rDock_2013.1_src/data/scripts/dock_solv.prm

>  <Rbt.Receptor>
prm/blind_docking_80.prm

>  <SCORE>
-15.2524

>  <SCORE.INTER>
-14.3662

>  <SCORE.INTER.CONST>
1

>  <SCORE.INTER.POLAR>
0

>  <SCORE.INTER.ROT>
7

>  <SCORE.INTER.SOLV>
12.983

>  <SCORE.INTER.VDW>
-22.1718

>  <SCORE.INTER.norm>
-0.532081

>  <SCORE.INTRA>
-0.97713

>  <SCORE.INTRA.DIHEDRAL>
-0.853212

>  <SCORE.INTRA.DIHEDRAL.0>
10.4103

>  <SCORE.INTRA.POLAR>
0

>  <SCORE.INTRA.POLAR.0>
0

>  <SCORE.INTRA.REPUL>
0

>  <SCORE.INTRA.REPUL.0>
0

>  <SCORE.INTRA.SOLV>
0.180626

>  <SCORE.INTRA.SOLV.lig_0>
-49.5008

>  <SCORE.INTRA.VDW>
-0.640837

>  <SCORE.INTRA.VDW.0>
-2.6946

>  <SCORE.INTRA.norm>
-0.03619

>  <SCORE.RESTR>
0.0909428

>  <SCORE.RESTR.CAVITY>
0.0909428

>  <SCORE.RESTR.norm>
0.00336825

>  <SCORE.SYSTEM>
0

>  <SCORE.SYSTEM.CONST>
0

>  <SCORE.SYSTEM.DIHEDRAL>
0

>  <SCORE.SYSTEM.SOLV>
0

>  <SCORE.SYSTEM.norm>
0

>  <SCORE.heavy>
27

>  <SCORE.norm>
-0.564903

>  <RMSD>
12.533

$$$$
ligand
 OpenBabel02271912153D
libRbt.so/2013.1/901 2013/11/27
 27 29  0  0  0  0  0  0  0  0999 V2000
    8.2842   -8.9104    9.4707 N   0  0  0  0  0  0  0  0  0  0  0  0
    7.8273   -9.1353    8.1124 C   0  0  2  0  0  0  0  0  0  0  0  0
    8.9919   -8.8870    7.2040 C   0  0  0  0  0  0  0  0  0  0  0  0
    9.1635   -9.6318    6.2149 O   0  0  0  0  0  0  0  0  0  0  0  0
    6.6755   -8.1860    7.7712 C   0  0  0  0  0  0  0  0  0  0  0  0
    5.3843   -8.5688    8.5282 C   0  0  0  0  0  0  0  0  0  0  0  0
    4.8273  -10.1295    8.2655 S   0  0  2  0  0  0  0  0  0  0  0  0
    4.2748  -10.2622    6.7048 C   0  0  0  0  0  0  0  0  0  0  0  0
    3.5994  -10.4893    9.3662 C   0  0  0  0  0  0  0  0  0  0  0  0
    2.1938  -10.0474    8.9069 C   0  0  1  0  0  0  0  0  0  0  0  0
    1.2706  -11.1414    8.7774 O   0  0  0  0  0  0  0  0  0  0  0  0
    1.4816   -9.1503    9.9064 C   0  0  1  0  0  0  0  0  0  0  0  0
    1.9221   -7.7806    9.9993 O   0  0  0  0  0  0  0  0  0  0  0  0
    0.0535   -9.3020    9.4441 C   0  0  1  0  0  0  0  0  0  0  0  0
   -0.1384   -8.6100    8.2139 O   0  0  0  0  0  0  0  0  0  0  0  0
   -0.0480  -10.7774    9.1928 C   0  0  2  0  0  0  0  0  0  0  0  0
    9.7554   -7.9186    7.4331 O   0  0  0  0  0  0  0  0  0  0  0  0
    0.5921  -14.6822   12.7451 N   0  0  0  0  0  0  0  0  0  0  0  0
    1.3782  -14.3480   11.6930 C   0  0  0  0  0  0  0  0  0  0  0  0
    1.0895  -13.3311   10.8635 N   0  0  0  0  0  0  0  0  0  0  0  0
    0.0082  -12.5630   11.0373 C   0  0  0  0  0  0  0  0  0  0  0  0
   -0.8642  -12.8578   12.1639 C   0  0  0  0  0  0  0  0  0  0  0  0
   -0.5478  -13.9919   13.0627 C   0  0  0  0  0  0  0  0  0  0  0  0
   -1.3395  -14.3227   14.1428 N   0  0  0  0  0  0  0  0  0  0  0  0
   -1.8253  -11.9635   12.1145 N   0  0  0  0  0  0  0  0  0  0  0  0
   -1.6256  -11.1696   11.0534 C   0  0  0  0  0  0  0  0  0  0  0  0
   -0.5182  -11.5215   10.4012 N   0  0  0  0  0  0  0  0  0  0  0  0
  2  1  1  1  0  0  0
  2  3  1  0  0  0  0
  2  5  1  0  0  0  0
  3  4  1  0  0  0  0
  3 17  1  0  0  0  0
  5  6  1  0  0  0  0
  7  6  1  1  0  0  0
  7  8  1  0  0  0  0
  7  9  1  0  0  0  0
 10  9  1  1  0  0  0
 10 11  1  0  0  0  0
 10 12  1  0  0  0  0
 11 16  1  0  0  0  0
 12 13  1  6  0  0  0
 12 14  1  0  0  0  0
 14 15  1  6  0  0  0
 14 16  1  0  0  0  0
 16 27  1  1  0  0  0
 18 19  2  0  0  0  0
 18 23  1  0  0  0  0
 19 20  1  0  0  0  0
 20 21  2  0  0  0  0
 21 22  1  0  0  0  0
 21 27  1  0  0  0  0
 22 23  2  0  0  0  0
 22 25  1  0  0  0  0
 23 24  1  0  0  0  0
 25 26  2  0  0  0  0
 26 27  1  0  0  0  0
M  END
>  <CHROM.1>
140.70512607,-70.91716485,-57.60357897,-68.94604657,86.33029872,119.25698586
-9.57670823,2.85940934,-10.62090108,9.58382713,-0.57788182,-0.14777702,2.53232768

>  <Name>
ligand

>  <RI>
0

>  <Rbt.Current_Directory>
/home/itssahil/PROJECTS/Mol_Feturizer/Test_systems_manuscript/rnas/4kqy

>  <Rbt.Executable>
rbdock ($Id: //depot/dev/client3/rdock/2013.1/src/exe/rbdock.cxx#4 $)

>  <Rbt.Library>
libRbt.so (2013.1, Build901 2013/11/27)

>  <Rbt.Parameter_File>
/export/apps/rDock/src/rDock_2013.1_src/data/scripts/dock_solv.prm

>  <Rbt.Receptor>
prm/blind_docking_100.prm

>  <SCORE>
-10.7999

>  <SCORE.INTER>
-11.8023

>  <SCORE.INTER.CONST>
1

>  <SCORE.INTER.POLAR>
0

>  <SCORE.INTER.ROT>
7

>  <SCORE.INTER.SOLV>
12.6014

>  <SCORE.INTER.VDW>
-20.3353

>  <SCORE.INTER.norm>
-0.437124

>  <SCORE.INTRA>
1.00245

>  <SCORE.INTRA.DIHEDRAL>
0.113497

>  <SCORE.INTRA.DIHEDRAL.0>
10.4103

>  <SCORE.INTRA.POLAR>
0

>  <SCORE.INTRA.POLAR.0>
0

>  <SCORE.INTRA.REPUL>
0

>  <SCORE.INTRA.REPUL.0>
0

>  <SCORE.INTRA.SOLV>
0.699216

>  <SCORE.INTRA.SOLV.lig_0>
-49.5008

>  <SCORE.INTRA.VDW>
0.596098

>  <SCORE.INTRA.VDW.0>
-2.6946

>  <SCORE.INTRA.norm>
0.037128

>  <SCORE.RESTR>
0

>  <SCORE.RESTR.CAVITY>
0

>  <SCORE.RESTR.norm>
0

>  <SCORE.SYSTEM>
0

>  <SCORE.SYSTEM.CONST>
0

>  <SCORE.SYSTEM.DIHEDRAL>
0

>  <SCORE.SYSTEM.SOLV>
0

>  <SCORE.SYSTEM.norm>
0

>  <SCORE.heavy>
27

>  <SCORE.norm>
-0.399996

>  <RMSD>
12.596

$$$$
ligand
 OpenBabel02271912153D
libRbt.so/2013.1/901 2013/11/27
 27 29  0  0  0  0  0  0  0  0999 V2000
   -2.4309  -10.8189   13.2288 N   0  0  0  0  0  0  0  0  0  0  0  0
   -2.6500  -11.6326   12.0480 C   0  0  2  0  0  0  0  0  0  0  0  0
   -1.7961  -12.8554   12.1851 C   0  0  0  0  0  0  0  0  0  0  0  0
   -1.3782  -13.4261   11.1547 O   0  0  0  0  0  0  0  0  0  0  0  0
   -2.2679  -10.8565   10.7848 C   0  0  0  0  0  0  0  0  0  0  0  0
   -0.7666  -10.4923   10.7775 C   0  0  0  0  0  0  0  0  0  0  0  0
    0.0471  -10.8062    9.3441 S   0  0  2  0  0  0  0  0  0  0  0  0
    1.6433  -11.1250    9.6750 C   0  0  0  0  0  0  0  0  0  0  0  0
   -0.0949   -9.4828    8.3064 C   0  0  0  0  0  0  0  0  0  0  0  0
   -1.5190   -8.8930    8.2305 C   0  0  1  0  0  0  0  0  0  0  0  0
   -1.6437   -7.6267    8.8989 O   0  0  0  0  0  0  0  0  0  0  0  0
   -1.9600   -8.5486    6.8171 C   0  0  1  0  0  0  0  0  0  0  0  0
   -2.3271   -9.6420    5.9520 O   0  0  0  0  0  0  0  0  0  0  0  0
   -3.0913   -7.5932    7.1065 C   0  0  1  0  0  0  0  0  0  0  0  0
   -4.2143   -8.3053    7.6173 O   0  0  0  0  0  0  0  0  0  0  0  0
   -2.5193   -6.7393    8.1991 C   0  0  2  0  0  0  0  0  0  0  0  0
   -1.4895  -13.2664   13.3298 O   0  0  0  0  0  0  0  0  0  0  0  0
   -2.6579   -2.2130    5.4118 N   0  0  0  0  0  0  0  0  0  0  0  0
   -3.6580   -3.0928    5.6614 C   0  0  0  0  0  0  0  0  0  0  0  0
   -3.4788   -4.2121    6.3827 N   0  0  0  0  0  0  0  0  0  0  0  0
   -2.2953   -4.5220    6.9236 C   0  0  0  0  0  0  0  0  0  0  0  0
   -1.1863   -3.6044    6.7100 C   0  0  0  0  0  0  0  0  0  0  0  0
   -1.3884   -2.3819    5.8984 C   0  0  0  0  0  0  0  0  0  0  0  0
   -0.3745   -1.4782    5.6572 N   0  0  0  0  0  0  0  0  0  0  0  0
   -0.1629   -4.1273    7.3465 N   0  0  0  0  0  0  0  0  0  0  0  0
   -0.5448   -5.2830    7.9074 C   0  0  0  0  0  0  0  0  0  0  0  0
   -1.8316   -5.5257    7.6613 N   0  0  0  0  0  0  0  0  0  0  0  0
  2  1  1  1  0  0  0
  2  3  1  0  0  0  0
  2  5  1  0  0  0  0
  3  4  1  0  0  0  0
  3 17  1  0  0  0  0
  5  6  1  0  0  0  0
  7  6  1  1  0  0  0
  7  8  1  0  0  0  0
  7  9  1  0  0  0  0
 10  9  1  6  0  0  0
 10 11  1  0  0  0  0
 10 12  1  0  0  0  0
 11 16  1  0  0  0  0
 12 13  1  1  0  0  0
 12 14  1  0  0  0  0
 14 15  1  1  0  0  0
 14 16  1  0  0  0  0
 16 27  1  6  0  0  0
 18 19  2  0  0  0  0
 18 23  1  0  0  0  0
 19 20  1  0  0  0  0
 20 21  2  0  0  0  0
 21 22  1  0  0  0  0
 21 27  1  0  0  0  0
 22 23  2  0  0  0  0
 22 25  1  0  0  0  0
 23 24  1  0  0  0  0
 25 26  2  0  0  0  0
 26 27  1  0  0  0  0
M  END
>  <CHROM.1>
-151.38944019,62.46502934,133.05296190,-151.02897714,-44.34442761,107.45071611
176.92683444,-1.61662779,-8.00821125,8.58435762,1.50275601,-0.00054634,2.59855847

>  <Name>
ligand

>  <RI>
0

>  <Rbt.Current_Directory>
/home/itssahil/PROJECTS/Mol_Feturizer/Test_systems_manuscript/rnas/4kqy

>  <Rbt.Executable>
rbdock ($Id: //depot/dev/client3/rdock/2013.1/src/exe/rbdock.cxx#4 $)

>  <Rbt.Library>
libRbt.so (2013.1, Build901 2013/11/27)

>  <Rbt.Parameter_File>
/export/apps/rDock/src/rDock_2013.1_src/data/scripts/dock_solv.prm

>  <Rbt.Receptor>
prm/blind_docking_60.prm

>  <SCORE>
-7.26232

>  <SCORE.INTER>
-10.9573

>  <SCORE.INTER.CONST>
1

>  <SCORE.INTER.POLAR>
0

>  <SCORE.INTER.ROT>
7

>  <SCORE.INTER.SOLV>
12.6325

>  <SCORE.INTER.VDW>
-19.7824

>  <SCORE.INTER.norm>
-0.405825

>  <SCORE.INTRA>
3.68747

>  <SCORE.INTRA.DIHEDRAL>
4.82132

>  <SCORE.INTRA.DIHEDRAL.0>
10.4103

>  <SCORE.INTRA.POLAR>
0

>  <SCORE.INTRA.POLAR.0>
0

>  <SCORE.INTRA.REPUL>
0

>  <SCORE.INTRA.REPUL.0>
0

>  <SCORE.INTRA.SOLV>
0.126806

>  <SCORE.INTRA.SOLV.lig_0>
-49.5008

>  <SCORE.INTRA.VDW>
1.2134

>  <SCORE.INTRA.VDW.0>
-2.6946

>  <SCORE.INTRA.norm>
0.136573

>  <SCORE.RESTR>
0.00747886

>  <SCORE.RESTR.CAVITY>
0.00747886

>  <SCORE.RESTR.norm>
0.000276995

>  <SCORE.SYSTEM>
0

>  <SCORE.SYSTEM.CONST>
0

>  <SCORE.SYSTEM.DIHEDRAL>
0

>  <SCORE.SYSTEM.SOLV>
0

>  <SCORE.SYSTEM.norm>
0

>  <SCORE.heavy>
27

>  <SCORE.norm>
-0.268975

>  <RMSD>
12.603

$$$$
ligand
 OpenBabel02271912153D
libRbt.so/2013.1/901 2013/11/27
 27 29  0  0  0  0  0  0  0  0999 V2000
    4.9955  -19.5486    7.1346 N   0  0  0  0  0  0  0  0  0  0  0  0
    5.7201  -18.2935    7.0715 C   0  0  2  0  0  0  0  0  0  0  0  0
    7.0501  -18.5781    6.4445 C   0  0  0  0  0  0  0  0  0  0  0  0
    7.5483  -19.7184    6.5622 O   0  0  0  0  0  0  0  0  0  0  0  0
    5.9079  -17.7127    8.4756 C   0  0  0  0  0  0  0  0  0  0  0  0
    4.5548  -17.3273    9.1136 C   0  0  0  0  0  0  0  0  0  0  0  0
    4.6515  -16.4570   10.5449 S   0  0  2  0  0  0  0  0  0  0  0  0
    5.1763  -17.4565   11.7632 C   0  0  0  0  0  0  0  0  0  0  0  0
    3.1407  -15.8035   10.9179 C   0  0  0  0  0  0  0  0  0  0  0  0
    3.1893  -14.6540   11.9465 C   0  0  1  0  0  0  0  0  0  0  0  0
    3.5290  -13.3855   11.3623 O   0  0  0  0  0  0  0  0  0  0  0  0
    1.8441  -14.3555   12.5887 C   0  0  1  0  0  0  0  0  0  0  0  0
    1.3670  -15.2787   13.5880 O   0  0  0  0  0  0  0  0  0  0  0  0
    2.0923  -12.9629   13.1134 C   0  0  1  0  0  0  0  0  0  0  0  0
    2.9681  -13.0120   14.2357 O   0  0  0  0  0  0  0  0  0  0  0  0
    2.8069  -12.3102   11.9674 C   0  0  2  0  0  0  0  0  0  0  0  0
    7.6254  -17.6783    5.7868 O   0  0  0  0  0  0  0  0  0  0  0  0
   -0.4433   -8.2556   10.8396 N   0  0  0  0  0  0  0  0  0  0  0  0
    0.2974   -8.4714   11.9537 C   0  0  0  0  0  0  0  0  0  0  0  0
    1.0774   -9.5543   12.1100 N   0  0  0  0  0  0  0  0  0  0  0  0
    1.1900  -10.4871   11.1578 C   0  0  0  0  0  0  0  0  0  0  0  0
    0.4359  -10.3005    9.9274 C   0  0  0  0  0  0  0  0  0  0  0  0
   -0.4354   -9.1129    9.7710 C   0  0  0  0  0  0  0  0  0  0  0  0
   -1.1775   -8.8850    8.6308 N   0  0  0  0  0  0  0  0  0  0  0  0
    0.7301  -11.3320    9.1689 N   0  0  0  0  0  0  0  0  0  0  0  0
    1.5749  -12.1327    9.8331 C   0  0  0  0  0  0  0  0  0  0  0  0
    1.8615  -11.6271   11.0321 N   0  0  0  0  0  0  0  0  0  0  0  0
  2  1  1  1  0  0  0
  2  3  1  0  0  0  0
  2  5  1  0  0  0  0
  3  4  1  0  0  0  0
  3 17  1  0  0  0  0
  5  6  1  0  0  0  0
  7  6  1  6  0  0  0
  7  8  1  0  0  0  0
  7  9  1  0  0  0  0
 10  9  1  6  0  0  0
 10 11  1  0  0  0  0
 10 12  1  0  0  0  0
 11 16  1  0  0  0  0
 12 13  1  1  0  0  0
 12 14  1  0  0  0  0
 14 15  1  1  0  0  0
 14 16  1  0  0  0  0
 16 27  1  6  0  0  0
 18 19  2  0  0  0  0
 18 23  1  0  0  0  0
 19 20  1  0  0  0  0
 20 21  2  0  0  0  0
 21 22  1  0  0  0  0
 21 27  1  0  0  0  0
 22 23  2  0  0  0  0
 22 25  1  0  0  0  0
 23 24  1  0  0  0  0
 25 26  2  0  0  0  0
 26 27  1  0  0  0  0
M  END
>  <CHROM.1>
-27.46646771,-65.07267592,-170.57325048,-71.71070439,-162.34288112,81.77000717
-168.21174398,3.10027682,-14.12053989,10.27799261,0.12064467,1.00036949,-1.33037883

>  <Name>
ligand

>  <RI>
0

>  <Rbt.Current_Directory>
/home/itssahil/PROJECTS/Mol_Feturizer/Test_systems_manuscript/rnas/4kqy

>  <Rbt.Executable>
rbdock ($Id: //depot/dev/client3/rdock/2013.1/src/exe/rbdock.cxx#4 $)

>  <Rbt.Library>
libRbt.so (2013.1, Build901 2013/11/27)

>  <Rbt.Parameter_File>
/export/apps/rDock/src/rDock_2013.1_src/data/scripts/dock_solv.prm

>  <Rbt.Receptor>
prm/blind_docking_100.prm

>  <SCORE>
-16.6864

>  <SCORE.INTER>
-14.9391

>  <SCORE.INTER.CONST>
1

>  <SCORE.INTER.POLAR>
0

>  <SCORE.INTER.ROT>
7

>  <SCORE.INTER.SOLV>
13.5685

>  <SCORE.INTER.VDW>
-22.7489

>  <SCORE.INTER.norm>
-0.5533

>  <SCORE.INTRA>
-1.74729

>  <SCORE.INTRA.DIHEDRAL>
-4.25778

>  <SCORE.INTRA.DIHEDRAL.0>
10.4103

>  <SCORE.INTRA.POLAR>
0

>  <SCORE.INTRA.POLAR.0>
0

>  <SCORE.INTRA.REPUL>
0

>  <SCORE.INTRA.REPUL.0>
0

>  <SCORE.INTRA.SOLV>
-0.087647

>  <SCORE.INTRA.SOLV.lig_0>
-49.5008

>  <SCORE.INTRA.VDW>
0.425428

>  <SCORE.INTRA.VDW.0>
-2.6946

>  <SCORE.INTRA.norm>
-0.0647143

>  <SCORE.RESTR>
0

>  <SCORE.RESTR.CAVITY>
0

>  <SCORE.RESTR.norm>
0

>  <SCORE.SYSTEM>
0

>  <SCORE.SYSTEM.CONST>
0

>  <SCORE.SYSTEM.DIHEDRAL>
0

>  <SCORE.SYSTEM.SOLV>
0

>  <SCORE.SYSTEM.norm>
0

>  <SCORE.heavy>
27

>  <SCORE.norm>
-0.618015

>  <RMSD>
12.625

$$$$
ligand
 OpenBabel02271912153D
libRbt.so/2013.1/901 2013/11/27
 27 29  0  0  0  0  0  0  0  0999 V2000
    7.0576  -17.4245    5.9224 N   0  0  0  0  0  0  0  0  0  0  0  0
    5.9988  -18.0519    6.6902 C   0  0  2  0  0  0  0  0  0  0  0  0
    4.7453  -17.9637    5.8751 C   0  0  0  0  0  0  0  0  0  0  0  0
    4.2267  -16.8445    5.6732 O   0  0  0  0  0  0  0  0  0  0  0  0
    5.8127  -17.3354    8.0304 C   0  0  0  0  0  0  0  0  0  0  0  0
    4.9392  -18.1643    8.9981 C   0  0  0  0  0  0  0  0  0  0  0  0
    4.6718  -17.4734   10.5036 S   0  0  2  0  0  0  0  0  0  0  0  0
    4.1866  -18.6494   11.5713 C   0  0  0  0  0  0  0  0  0  0  0  0
    3.5020  -16.2635   10.3758 C   0  0  0  0  0  0  0  0  0  0  0  0
    4.0711  -14.8300   10.4317 C   0  0  1  0  0  0  0  0  0  0  0  0
    3.0933  -13.8205   10.1308 O   0  0  0  0  0  0  0  0  0  0  0  0
    4.5374  -14.4145   11.8176 C   0  0  1  0  0  0  0  0  0  0  0  0
    5.7820  -14.9666   12.2918 O   0  0  0  0  0  0  0  0  0  0  0  0
    4.5547  -12.9137   11.6641 C   0  0  1  0  0  0  0  0  0  0  0  0
    5.6461  -12.5192   10.8382 O   0  0  0  0  0  0  0  0  0  0  0  0
    3.2717  -12.6506   10.9327 C   0  0  2  0  0  0  0  0  0  0  0  0
    4.2562  -19.0089    5.3838 O   0  0  0  0  0  0  0  0  0  0  0  0
   -0.2853  -14.4128   14.4709 N   0  0  0  0  0  0  0  0  0  0  0  0
    0.6690  -15.1050   13.8025 C   0  0  0  0  0  0  0  0  0  0  0  0
    1.5039  -14.5278   12.9222 N   0  0  0  0  0  0  0  0  0  0  0  0
    1.4601  -13.2163   12.6624 C   0  0  0  0  0  0  0  0  0  0  0  0
    0.4708  -12.4141   13.3661 C   0  0  0  0  0  0  0  0  0  0  0  0
   -0.4575  -13.0619   14.3214 C   0  0  0  0  0  0  0  0  0  0  0  0
   -1.4187  -12.3549   15.0135 N   0  0  0  0  0  0  0  0  0  0  0  0
    0.6468  -11.1818   12.9463 N   0  0  0  0  0  0  0  0  0  0  0  0
    1.6355  -11.1681   12.0417 C   0  0  0  0  0  0  0  0  0  0  0  0
    2.1351  -12.3912   11.8687 N   0  0  0  0  0  0  0  0  0  0  0  0
  2  1  1  6  0  0  0
  2  3  1  0  0  0  0
  2  5  1  0  0  0  0
  3  4  1  0  0  0  0
  3 17  1  0  0  0  0
  5  6  1  0  0  0  0
  7  6  1  6  0  0  0
  7  8  1  0  0  0  0
  7  9  1  0  0  0  0
 10  9  1  1  0  0  0
 10 11  1  0  0  0  0
 10 12  1  0  0  0  0
 11 16  1  0  0  0  0
 12 13  1  6  0  0  0
 12 14  1  0  0  0  0
 14 15  1  6  0  0  0
 14 16  1  0  0  0  0
 16 27  1  1  0  0  0
 18 19  2  0  0  0  0
 18 23  1  0  0  0  0
 19 20  1  0  0  0  0
 20 21  2  0  0  0  0
 21 22  1  0  0  0  0
 21 27  1  0  0  0  0
 22 23  2  0  0  0  0
 22 25  1  0  0  0  0
 23 24  1  0  0  0  0
 25 26  2  0  0  0  0
 26 27  1  0  0  0  0
M  END
>  <CHROM.1>
-67.78696244,-166.66884268,179.87253071,-160.99279418,-104.73029168,171.59863794
44.46542249,3.35619261,-15.10978522,10.66989518,-0.75939929,0.82696464,0.23680682

>  <Name>
ligand

>  <RI>
0

>  <Rbt.Current_Directory>
/home/itssahil/PROJECTS/Mol_Feturizer/Test_systems_manuscript/rnas/4kqy

>  <Rbt.Executable>
rbdock ($Id: //depot/dev/client3/rdock/2013.1/src/exe/rbdock.cxx#4 $)

>  <Rbt.Library>
libRbt.so (2013.1, Build901 2013/11/27)

>  <Rbt.Parameter_File>
/export/apps/rDock/src/rDock_2013.1_src/data/scripts/dock_solv.prm

>  <Rbt.Receptor>
prm/blind_docking_40.prm

>  <SCORE>
-16.4484

>  <SCORE.INTER>
-14.4568

>  <SCORE.INTER.CONST>
1

>  <SCORE.INTER.POLAR>
0

>  <SCORE.INTER.ROT>
7

>  <SCORE.INTER.SOLV>
12.3336

>  <SCORE.INTER.VDW>
-22.0157

>  <SCORE.INTER.norm>
-0.535438

>  <SCORE.INTRA>
-2.01998

>  <SCORE.INTRA.DIHEDRAL>
-1.72202

>  <SCORE.INTRA.DIHEDRAL.0>
10.4103

>  <SCORE.INTRA.POLAR>
0

>  <SCORE.INTRA.POLAR.0>
0

>  <SCORE.INTRA.REPUL>
0

>  <SCORE.INTRA.REPUL.0>
0

>  <SCORE.INTRA.SOLV>
-0.426997

>  <SCORE.INTRA.SOLV.lig_0>
-49.5008

>  <SCORE.INTRA.VDW>
-0.945469

>  <SCORE.INTRA.VDW.0>
-2.6946

>  <SCORE.INTRA.norm>
-0.074814

>  <SCORE.RESTR>
0.0284433

>  <SCORE.RESTR.CAVITY>
0.0284433

>  <SCORE.RESTR.norm>
0.00105346

>  <SCORE.SYSTEM>
0

>  <SCORE.SYSTEM.CONST>
0

>  <SCORE.SYSTEM.DIHEDRAL>
0

>  <SCORE.SYSTEM.SOLV>
0

>  <SCORE.SYSTEM.norm>
0

>  <SCORE.heavy>
27

>  <SCORE.norm>
-0.609198

>  <RMSD>
12.626

$$$$
ligand
 OpenBabel02271912153D
libRbt.so/2013.1/901 2013/11/27
 27 29  0  0  0  0  0  0  0  0999 V2000
    1.0937  -13.2205   12.0543 N   0  0  0  0  0  0  0  0  0  0  0  0
   -0.0820  -12.4263   12.3561 C   0  0  2  0  0  0  0  0  0  0  0  0
   -1.2804  -13.2571   12.0145 C   0  0  0  0  0  0  0  0  0  0  0  0
   -2.4028  -12.9145   12.4447 O   0  0  0  0  0  0  0  0  0  0  0  0
   -0.0799  -11.1339   11.5352 C   0  0  0  0  0  0  0  0  0  0  0  0
   -0.2421  -11.4223   10.0262 C   0  0  0  0  0  0  0  0  0  0  0  0
    0.2244  -10.1812    8.9980 S   0  0  2  0  0  0  0  0  0  0  0  0
    1.8701   -9.9770    9.0919 C   0  0  0  0  0  0  0  0  0  0  0  0
   -0.5789   -8.7584    9.4208 C   0  0  0  0  0  0  0  0  0  0  0  0
   -1.8649   -8.4971    8.6086 C   0  0  1  0  0  0  0  0  0  0  0  0
   -2.4863   -7.2392    8.9213 O   0  0  0  0  0  0  0  0  0  0  0  0
   -1.6238   -8.3668    7.1134 C   0  0  1  0  0  0  0  0  0  0  0  0
   -1.3603   -9.5776    6.3762 O   0  0  0  0  0  0  0  0  0  0  0  0
   -2.8871   -7.6581    6.6913 C   0  0  1  0  0  0  0  0  0  0  0  0
   -3.9933   -8.5535    6.7505 O   0  0  0  0  0  0  0  0  0  0  0  0
   -3.0453   -6.6186    7.7611 C   0  0  2  0  0  0  0  0  0  0  0  0
   -1.1420  -14.2629   11.2779 O   0  0  0  0  0  0  0  0  0  0  0  0
    1.3165   -3.5868    7.5168 N   0  0  0  0  0  0  0  0  0  0  0  0
    1.1807   -4.8510    7.9859 C   0  0  0  0  0  0  0  0  0  0  0  0
    0.0050   -5.5013    7.9943 N   0  0  0  0  0  0  0  0  0  0  0  0
   -1.1135   -4.9448    7.5161 C   0  0  0  0  0  0  0  0  0  0  0  0
   -1.0278   -3.5958    6.9773 C   0  0  0  0  0  0  0  0  0  0  0  0
    0.2688   -2.8797    6.9885 C   0  0  0  0  0  0  0  0  0  0  0  0
    0.4105   -1.5987    6.4969 N   0  0  0  0  0  0  0  0  0  0  0  0
   -2.2403   -3.2969    6.5693 N   0  0  0  0  0  0  0  0  0  0  0  0
   -3.0530   -4.3304    6.8290 C   0  0  0  0  0  0  0  0  0  0  0  0
   -2.3795   -5.3309    7.3954 N   0  0  0  0  0  0  0  0  0  0  0  0
  2  1  1  6  0  0  0
  2  3  1  0  0  0  0
  2  5  1  0  0  0  0
  3  4  1  0  0  0  0
  3 17  1  0  0  0  0
  5  6  1  0  0  0  0
  7  6  1  1  0  0  0
  7  8  1  0  0  0  0
  7  9  1  0  0  0  0
 10  9  1  1  0  0  0
 10 11  1  0  0  0  0
 10 12  1  0  0  0  0
 11 16  1  0  0  0  0
 12 13  1  6  0  0  0
 12 14  1  0  0  0  0
 14 15  1  1  0  0  0
 14 16  1  0  0  0  0
 16 27  1  6  0  0  0
 18 19  2  0  0  0  0
 18 23  1  0  0  0  0
 19 20  1  0  0  0  0
 20 21  2  0  0  0  0
 21 22  1  0  0  0  0
 21 27  1  0  0  0  0
 22 23  2  0  0  0  0
 22 25  1  0  0  0  0
 23 24  1  0  0  0  0
 25 26  2  0  0  0  0
 26 27  1  0  0  0  0
M  END
>  <CHROM.1>
164.85738466,66.45667674,-161.34035887,67.53194677,-95.23488446,-176.14083370
33.50194962,-0.94444460,-8.16135198,8.70634809,-1.52570109,-0.36765724,-0.44699102

>  <Name>
ligand

>  <RI>
0

>  <Rbt.Current_Directory>
/home/itssahil/PROJECTS/Mol_Feturizer/Test_systems_manuscript/rnas/4kqy

>  <Rbt.Executable>
rbdock ($Id: //depot/dev/client3/rdock/2013.1/src/exe/rbdock.cxx#4 $)

>  <Rbt.Library>
libRbt.so (2013.1, Build901 2013/11/27)

>  <Rbt.Parameter_File>
/export/apps/rDock/src/rDock_2013.1_src/data/scripts/dock_solv.prm

>  <Rbt.Receptor>
prm/blind_docking_80.prm

>  <SCORE>
-12.475

>  <SCORE.INTER>
-11.753

>  <SCORE.INTER.CONST>
1

>  <SCORE.INTER.POLAR>
0

>  <SCORE.INTER.ROT>
7

>  <SCORE.INTER.SOLV>
12.5495

>  <SCORE.INTER.VDW>
-20.2852

>  <SCORE.INTER.norm>
-0.435297

>  <SCORE.INTRA>
-0.761625

>  <SCORE.INTRA.DIHEDRAL>
-3.10668

>  <SCORE.INTRA.DIHEDRAL.0>
10.4103

>  <SCORE.INTRA.POLAR>
0

>  <SCORE.INTRA.POLAR.0>
0

>  <SCORE.INTRA.REPUL>
0

>  <SCORE.INTRA.REPUL.0>
0

>  <SCORE.INTRA.SOLV>
0.650646

>  <SCORE.INTRA.SOLV.lig_0>
-49.5008

>  <SCORE.INTRA.VDW>
0.466392

>  <SCORE.INTRA.VDW.0>
-2.6946

>  <SCORE.INTRA.norm>
-0.0282083

>  <SCORE.RESTR>
0.0396557

>  <SCORE.RESTR.CAVITY>
0.0396557

>  <SCORE.RESTR.norm>
0.00146873

>  <SCORE.SYSTEM>
0

>  <SCORE.SYSTEM.CONST>
0

>  <SCORE.SYSTEM.DIHEDRAL>
0

>  <SCORE.SYSTEM.SOLV>
0

>  <SCORE.SYSTEM.norm>
0

>  <SCORE.heavy>
27

>  <SCORE.norm>
-0.462037

>  <RMSD>
12.647

$$$$
ligand
 OpenBabel02271912153D
libRbt.so/2013.1/901 2013/11/27
 27 29  0  0  0  0  0  0  0  0999 V2000
   -1.0274  -12.4218   13.2095 N   0  0  0  0  0  0  0  0  0  0  0  0
   -0.8366  -13.2696   12.0480 C   0  0  2  0  0  0  0  0  0  0  0  0
   -0.0387  -14.4575   12.4900 C   0  0  0  0  0  0  0  0  0  0  0  0
    0.3915  -14.5012   13.6627 O   0  0  0  0  0  0  0  0  0  0  0  0
   -0.0924  -12.5093   10.9470 C   0  0  0  0  0  0  0  0  0  0  0  0
   -0.7971  -11.1782   10.6036 C   0  0  0  0  0  0  0  0  0  0  0  0
   -0.0925  -10.2832    9.3716 S   0  0  2  0  0  0  0  0  0  0  0  0
    1.5606  -10.3477    9.5197 C   0  0  0  0  0  0  0  0  0  0  0  0
   -0.6366   -8.6872    9.4435 C   0  0  0  0  0  0  0  0  0  0  0  0
   -1.9140   -8.4205    8.6196 C   0  0  1  0  0  0  0  0  0  0  0  0
   -2.5259   -7.1545    8.9176 O   0  0  0  0  0  0  0  0  0  0  0  0
   -1.6606   -8.3044    7.1252 C   0  0  1  0  0  0  0  0  0  0  0  0
   -1.4029   -9.5234    6.3997 O   0  0  0  0  0  0  0  0  0  0  0  0
   -2.9139   -7.5875    6.6880 C   0  0  1  0  0  0  0  0  0  0  0  0
   -4.0289   -8.4721    6.7460 O   0  0  0  0  0  0  0  0  0  0  0  0
   -3.0704   -6.5380    7.7483 C   0  0  2  0  0  0  0  0  0  0  0  0
    0.1570  -15.4006   11.6866 O   0  0  0  0  0  0  0  0  0  0  0  0
    1.3111   -3.5311    7.5557 N   0  0  0  0  0  0  0  0  0  0  0  0
    1.1582   -4.7868    8.0417 C   0  0  0  0  0  0  0  0  0  0  0  0
   -0.0207   -5.4314    8.0335 N   0  0  0  0  0  0  0  0  0  0  0  0
   -1.1251   -4.8774    7.5209 C   0  0  0  0  0  0  0  0  0  0  0  0
   -1.0203   -3.5377    6.9627 C   0  0  0  0  0  0  0  0  0  0  0  0
    0.2793   -2.8276    6.9922 C   0  0  0  0  0  0  0  0  0  0  0  0
    0.4387   -1.5554    6.4835 N   0  0  0  0  0  0  0  0  0  0  0  0
   -2.2217   -3.2398    6.5223 N   0  0  0  0  0  0  0  0  0  0  0  0
   -3.0452   -4.2651    6.7797 C   0  0  0  0  0  0  0  0  0  0  0  0
   -2.3899   -5.2595    7.3775 N   0  0  0  0  0  0  0  0  0  0  0  0
  2  1  1  1  0  0  0
  2  3  1  0  0  0  0
  2  5  1  0  0  0  0
  3  4  1  0  0  0  0
  3 17  1  0  0  0  0
  5  6  1  0  0  0  0
  7  6  1  1  0  0  0
  7  8  1  0  0  0  0
  7  9  1  0  0  0  0
 10  9  1  1  0  0  0
 10 11  1  0  0  0  0
 10 12  1  0  0  0  0
 11 16  1  0  0  0  0
 12 13  1  6  0  0  0
 12 14  1  0  0  0  0
 14 15  1  1  0  0  0
 14 16  1  0  0  0  0
 16 27  1  6  0  0  0
 18 19  2  0  0  0  0
 18 23  1  0  0  0  0
 19 20  1  0  0  0  0
 20 21  2  0  0  0  0
 21 22  1  0  0  0  0
 21 27  1  0  0  0  0
 22 23  2  0  0  0  0
 22 25  1  0  0  0  0
 23 24  1  0  0  0  0
 25 26  2  0  0  0  0
 26 27  1  0  0  0  0
M  END
>  <CHROM.1>
-4.63256601,-53.91612985,-178.13489490,-40.16617913,-89.92873613,167.19028025
32.47321889,-0.90964244,-8.33132387,8.86726196,-1.47478870,-0.49026949,-0.43474613

>  <Name>
ligand

>  <RI>
0

>  <Rbt.Current_Directory>
/home/itssahil/PROJECTS/Mol_Feturizer/Test_systems_manuscript/rnas/4kqy

>  <Rbt.Executable>
rbdock ($Id: //depot/dev/client3/rdock/2013.1/src/exe/rbdock.cxx#4 $)

>  <Rbt.Library>
libRbt.so (2013.1, Build901 2013/11/27)

>  <Rbt.Parameter_File>
/export/apps/rDock/src/rDock_2013.1_src/data/scripts/dock_solv.prm

>  <Rbt.Receptor>
prm/blind_docking_80.prm

>  <SCORE>
-13.2568

>  <SCORE.INTER>
-12.5688

>  <SCORE.INTER.CONST>
1

>  <SCORE.INTER.POLAR>
0

>  <SCORE.INTER.ROT>
7

>  <SCORE.INTER.SOLV>
12.6335

>  <SCORE.INTER.VDW>
-20.8571

>  <SCORE.INTER.norm>
-0.465512

>  <SCORE.INTRA>
-0.688016

>  <SCORE.INTRA.DIHEDRAL>
-3.48614

>  <SCORE.INTRA.DIHEDRAL.0>
10.4103

>  <SCORE.INTRA.POLAR>
0

>  <SCORE.INTRA.POLAR.0>
0

>  <SCORE.INTRA.REPUL>
0

>  <SCORE.INTRA.REPUL.0>
0

>  <SCORE.INTRA.SOLV>
0.343332

>  <SCORE.INTRA.SOLV.lig_0>
-49.5008

>  <SCORE.INTRA.VDW>
0.883388

>  <SCORE.INTRA.VDW.0>
-2.6946

>  <SCORE.INTRA.norm>
-0.0254821

>  <SCORE.RESTR>
0

>  <SCORE.RESTR.CAVITY>
0

>  <SCORE.RESTR.norm>
0

>  <SCORE.SYSTEM>
0

>  <SCORE.SYSTEM.CONST>
0

>  <SCORE.SYSTEM.DIHEDRAL>
0

>  <SCORE.SYSTEM.SOLV>
0

>  <SCORE.SYSTEM.norm>
0

>  <SCORE.heavy>
27

>  <SCORE.norm>
-0.490994

>  <RMSD>
12.698

$$$$
ligand
 OpenBabel02271912153D
libRbt.so/2013.1/901 2013/11/27
 27 29  0  0  0  0  0  0  0  0999 V2000
   -0.0100  -11.9175   13.5778 N   0  0  0  0  0  0  0  0  0  0  0  0
    0.1987  -10.5307   13.2072 C   0  0  2  0  0  0  0  0  0  0  0  0
   -1.0436   -9.7795   13.5753 C   0  0  0  0  0  0  0  0  0  0  0  0
   -0.9411   -8.6879   14.1754 O   0  0  0  0  0  0  0  0  0  0  0  0
    0.4653  -10.4127   11.7042 C   0  0  0  0  0  0  0  0  0  0  0  0
    0.9307   -8.9899   11.3225 C   0  0  0  0  0  0  0  0  0  0  0  0
    0.8811   -8.6273    9.6851 S   0  0  2  0  0  0  0  0  0  0  0  0
   -0.6984   -8.6106    9.1718 C   0  0  0  0  0  0  0  0  0  0  0  0
    1.7776   -9.7671    8.8214 C   0  0  0  0  0  0  0  0  0  0  0  0
    3.3044   -9.6361    9.0043 C   0  0  1  0  0  0  0  0  0  0  0  0
    3.7985  -10.3364   10.1582 O   0  0  0  0  0  0  0  0  0  0  0  0
    4.1081  -10.2718    7.8814 C   0  0  1  0  0  0  0  0  0  0  0  0
    4.1614   -9.5686    6.6239 O   0  0  0  0  0  0  0  0  0  0  0  0
    5.4502  -10.4219    8.5539 C   0  0  1  0  0  0  0  0  0  0  0  0
    6.0708   -9.1478    8.6971 O   0  0  0  0  0  0  0  0  0  0  0  0
    5.0734  -10.9345    9.9124 C   0  0  2  0  0  0  0  0  0  0  0  0
   -2.1623  -10.2427   13.2478 O   0  0  0  0  0  0  0  0  0  0  0  0
    2.4909  -15.4776   10.8957 N   0  0  0  0  0  0  0  0  0  0  0  0
    2.0459  -14.2021   11.0038 C   0  0  0  0  0  0  0  0  0  0  0  0
    2.8168  -13.1370   10.7270 N   0  0  0  0  0  0  0  0  0  0  0  0
    4.0785  -13.2693   10.3027 C   0  0  0  0  0  0  0  0  0  0  0  0
    4.6075  -14.6157   10.1449 C   0  0  0  0  0  0  0  0  0  0  0  0
    3.7564  -15.7837   10.4696 C   0  0  0  0  0  0  0  0  0  0  0  0
    4.2040  -17.0825   10.3448 N   0  0  0  0  0  0  0  0  0  0  0  0
    5.8389  -14.4666    9.7118 N   0  0  0  0  0  0  0  0  0  0  0  0
    6.1088  -13.1577    9.6122 C   0  0  0  0  0  0  0  0  0  0  0  0
    5.0498  -12.4285    9.9619 N   0  0  0  0  0  0  0  0  0  0  0  0
  2  1  1  6  0  0  0
  2  3  1  0  0  0  0
  2  5  1  0  0  0  0
  3  4  1  0  0  0  0
  3 17  1  0  0  0  0
  5  6  1  0  0  0  0
  7  6  1  1  0  0  0
  7  8  1  0  0  0  0
  7  9  1  0  0  0  0
 10  9  1  6  0  0  0
 10 11  1  0  0  0  0
 10 12  1  0  0  0  0
 11 16  1  0  0  0  0
 12 13  1  6  0  0  0
 12 14  1  0  0  0  0
 14 15  1  1  0  0  0
 14 16  1  0  0  0  0
 16 27  1  6  0  0  0
 18 19  2  0  0  0  0
 18 23  1  0  0  0  0
 19 20  1  0  0  0  0
 20 21  2  0  0  0  0
 21 22  1  0  0  0  0
 21 27  1  0  0  0  0
 22 23  2  0  0  0  0
 22 25  1  0  0  0  0
 23 24  1  0  0  0  0
 25 26  2  0  0  0  0
 26 27  1  0  0  0  0
M  END
>  <CHROM.1>
134.01451586,-170.14265042,-165.19228498,66.16363061,-72.10083696,85.92241362
-6.40645809,2.54538051,-11.30075739,10.42399042,2.76229806,0.64061355,-0.41016237

>  <Name>
ligand

>  <RI>
0

>  <Rbt.Current_Directory>
/home/itssahil/PROJECTS/Mol_Feturizer/Test_systems_manuscript/rnas/4kqy

>  <Rbt.Executable>
rbdock ($Id: //depot/dev/client3/rdock/2013.1/src/exe/rbdock.cxx#4 $)

>  <Rbt.Library>
libRbt.so (2013.1, Build901 2013/11/27)

>  <Rbt.Parameter_File>
/export/apps/rDock/src/rDock_2013.1_src/data/scripts/dock_solv.prm

>  <Rbt.Receptor>
prm/blind_docking_40.prm

>  <SCORE>
-16.911

>  <SCORE.INTER>
-14.2105

>  <SCORE.INTER.CONST>
1

>  <SCORE.INTER.POLAR>
0

>  <SCORE.INTER.ROT>
7

>  <SCORE.INTER.SOLV>
11.7691

>  <SCORE.INTER.VDW>
-21.6633

>  <SCORE.INTER.norm>
-0.526315

>  <SCORE.INTRA>
-2.70054

>  <SCORE.INTRA.DIHEDRAL>
-3.90226

>  <SCORE.INTRA.DIHEDRAL.0>
10.4103

>  <SCORE.INTRA.POLAR>
0

>  <SCORE.INTRA.POLAR.0>
0

>  <SCORE.INTRA.REPUL>
0

>  <SCORE.INTRA.REPUL.0>
0

>  <SCORE.INTRA.SOLV>
-0.600738

>  <SCORE.INTRA.SOLV.lig_0>
-49.5008

>  <SCORE.INTRA.VDW>
-0.449039

>  <SCORE.INTRA.VDW.0>
-2.6946

>  <SCORE.INTRA.norm>
-0.10002

>  <SCORE.RESTR>
0

>  <SCORE.RESTR.CAVITY>
0

>  <SCORE.RESTR.norm>
0

>  <SCORE.SYSTEM>
0

>  <SCORE.SYSTEM.CONST>
0

>  <SCORE.SYSTEM.DIHEDRAL>
0

>  <SCORE.SYSTEM.SOLV>
0

>  <SCORE.SYSTEM.norm>
0

>  <SCORE.heavy>
27

>  <SCORE.norm>
-0.626335

>  <RMSD>
12.712

$$$$
ligand
 OpenBabel02271912153D
libRbt.so/2013.1/901 2013/11/27
 27 29  0  0  0  0  0  0  0  0999 V2000
    6.8505   -7.8466    8.1220 N   0  0  0  0  0  0  0  0  0  0  0  0
    7.6337   -8.7759    8.9140 C   0  0  2  0  0  0  0  0  0  0  0  0
    8.5920   -9.4552    7.9849 C   0  0  0  0  0  0  0  0  0  0  0  0
    9.6284   -9.9757    8.4511 O   0  0  0  0  0  0  0  0  0  0  0  0
    6.7227   -9.8073    9.5851 C   0  0  0  0  0  0  0  0  0  0  0  0
    6.1502  -10.8091    8.5579 C   0  0  0  0  0  0  0  0  0  0  0  0
    4.6281  -10.4387    7.9568 S   0  0  2  0  0  0  0  0  0  0  0  0
    4.7751   -9.3296    6.7293 C   0  0  0  0  0  0  0  0  0  0  0  0
    3.6577   -9.8316    9.1971 C   0  0  0  0  0  0  0  0  0  0  0  0
    2.1637   -9.7161    8.8276 C   0  0  1  0  0  0  0  0  0  0  0  0
    1.5321  -10.9901    8.6183 O   0  0  0  0  0  0  0  0  0  0  0  0
    1.3085   -9.1177    9.9327 C   0  0  1  0  0  0  0  0  0  0  0  0
    1.4031   -7.6952   10.1478 O   0  0  0  0  0  0  0  0  0  0  0  0
   -0.0615   -9.5799    9.5018 C   0  0  1  0  0  0  0  0  0  0  0  0
   -0.4845   -8.8515    8.3530 O   0  0  0  0  0  0  0  0  0  0  0  0
    0.1892  -11.0055    9.1083 C   0  0  2  0  0  0  0  0  0  0  0  0
    8.3230   -9.5176    6.7614 O   0  0  0  0  0  0  0  0  0  0  0  0
    1.9817  -14.8908   12.2654 N   0  0  0  0  0  0  0  0  0  0  0  0
    2.6065  -14.2723   11.2341 C   0  0  0  0  0  0  0  0  0  0  0  0
    2.0262  -13.3009   10.5095 N   0  0  0  0  0  0  0  0  0  0  0  0
    0.7905  -12.8634   10.7757 C   0  0  0  0  0  0  0  0  0  0  0  0
    0.0754  -13.4733   11.8866 C   0  0  0  0  0  0  0  0  0  0  0  0
    0.7160  -14.5559   12.6687 C   0  0  0  0  0  0  0  0  0  0  0  0
    0.0862  -15.1749   13.7284 N   0  0  0  0  0  0  0  0  0  0  0  0
   -1.0872  -12.8638   11.9401 N   0  0  0  0  0  0  0  0  0  0  0  0
   -1.1484  -11.9578   10.9545 C   0  0  0  0  0  0  0  0  0  0  0  0
   -0.0171  -11.9477   10.2505 N   0  0  0  0  0  0  0  0  0  0  0  0
  2  1  1  6  0  0  0
  2  3  1  0  0  0  0
  2  5  1  0  0  0  0
  3  4  1  0  0  0  0
  3 17  1  0  0  0  0
  5  6  1  0  0  0  0
  7  6  1  1  0  0  0
  7  8  1  0  0  0  0
  7  9  1  0  0  0  0
 10  9  1  1  0  0  0
 10 11  1  0  0  0  0
 10 12  1  0  0  0  0
 11 16  1  0  0  0  0
 12 13  1  6  0  0  0
 12 14  1  0  0  0  0
 14 15  1  6  0  0  0
 14 16  1  0  0  0  0
 16 27  1  1  0  0  0
 18 19  2  0  0  0  0
 18 23  1  0  0  0  0
 19 20  1  0  0  0  0
 20 21  2  0  0  0  0
 21 22  1  0  0  0  0
 21 27  1  0  0  0  0
 22 23  2  0  0  0  0
 22 25  1  0  0  0  0
 23 24  1  0  0  0  0
 25 26  2  0  0  0  0
 26 27  1  0  0  0  0
M  END
>  <CHROM.1>
158.05764505,71.57045688,-95.21320076,82.06254469,-168.68114890,66.56960526
-8.46339276,3.07976566,-10.92942166,9.58635860,0.58657448,0.13638896,-0.56600068

>  <Name>
ligand

>  <RI>
0

>  <Rbt.Current_Directory>
/home/itssahil/PROJECTS/Mol_Feturizer/Test_systems_manuscript/rnas/4kqy

>  <Rbt.Executable>
rbdock ($Id: //depot/dev/client3/rdock/2013.1/src/exe/rbdock.cxx#4 $)

>  <Rbt.Library>
libRbt.so (2013.1, Build901 2013/11/27)

>  <Rbt.Parameter_File>
/export/apps/rDock/src/rDock_2013.1_src/data/scripts/dock_solv.prm

>  <Rbt.Receptor>
prm/blind_docking_60.prm

>  <SCORE>
-9.91498

>  <SCORE.INTER>
-11.6874

>  <SCORE.INTER.CONST>
1

>  <SCORE.INTER.POLAR>
0

>  <SCORE.INTER.ROT>
7

>  <SCORE.INTER.SOLV>
16.4459

>  <SCORE.INTER.VDW>
-21.5403

>  <SCORE.INTER.norm>
-0.432868

>  <SCORE.INTRA>
1.77245

>  <SCORE.INTRA.DIHEDRAL>
-1.84515

>  <SCORE.INTRA.DIHEDRAL.0>
10.4103

>  <SCORE.INTRA.POLAR>
0

>  <SCORE.INTRA.POLAR.0>
0

>  <SCORE.INTRA.REPUL>
0

>  <SCORE.INTRA.REPUL.0>
0

>  <SCORE.INTRA.SOLV>
2.63545

>  <SCORE.INTRA.SOLV.lig_0>
-49.5008

>  <SCORE.INTRA.VDW>
1.3773

>  <SCORE.INTRA.VDW.0>
-2.6946

>  <SCORE.INTRA.norm>
0.0656464

>  <SCORE.RESTR>
0

>  <SCORE.RESTR.CAVITY>
0

>  <SCORE.RESTR.norm>
0

>  <SCORE.SYSTEM>
0

>  <SCORE.SYSTEM.CONST>
0

>  <SCORE.SYSTEM.DIHEDRAL>
0

>  <SCORE.SYSTEM.SOLV>
0

>  <SCORE.SYSTEM.norm>
0

>  <SCORE.heavy>
27

>  <SCORE.norm>
-0.367222

>  <RMSD>
12.720

$$$$
ligand
 OpenBabel02271912153D
libRbt.so/2013.1/901 2013/11/27
 27 29  0  0  0  0  0  0  0  0999 V2000
    6.8540  -18.9835    7.2902 N   0  0  0  0  0  0  0  0  0  0  0  0
    5.4335  -18.6935    7.2418 C   0  0  2  0  0  0  0  0  0  0  0  0
    5.2638  -17.4271    6.4605 C   0  0  0  0  0  0  0  0  0  0  0  0
    6.1483  -16.5464    6.5268 O   0  0  0  0  0  0  0  0  0  0  0  0
    4.8734  -18.5241    8.6567 C   0  0  0  0  0  0  0  0  0  0  0  0
    5.3895  -17.2266    9.3174 C   0  0  0  0  0  0  0  0  0  0  0  0
    5.0251  -17.0493   10.9456 S   0  0  2  0  0  0  0  0  0  0  0  0
    3.4030  -17.3184   11.1798 C   0  0  0  0  0  0  0  0  0  0  0  0
    5.4538  -15.5001   11.4602 C   0  0  0  0  0  0  0  0  0  0  0  0
    4.9255  -14.3678   10.5543 C   0  0  1  0  0  0  0  0  0  0  0  0
    3.4931  -14.2508   10.5714 O   0  0  0  0  0  0  0  0  0  0  0  0
    5.3607  -12.9806   10.9985 C   0  0  1  0  0  0  0  0  0  0  0  0
    6.7271  -12.5998   10.7401 O   0  0  0  0  0  0  0  0  0  0  0  0
    4.3436  -12.1293   10.2794 C   0  0  1  0  0  0  0  0  0  0  0  0
    4.6221  -12.1097    8.8826 O   0  0  0  0  0  0  0  0  0  0  0  0
    3.0696  -12.8867   10.5105 C   0  0  2  0  0  0  0  0  0  0  0  0
    4.2542  -17.2856    5.7298 O   0  0  0  0  0  0  0  0  0  0  0  0
    0.5718  -13.9857   15.0744 N   0  0  0  0  0  0  0  0  0  0  0  0
    1.1187  -14.8381   14.1738 C   0  0  0  0  0  0  0  0  0  0  0  0
    1.7190  -14.4189   13.0473 N   0  0  0  0  0  0  0  0  0  0  0  0
    1.8350  -13.1199   12.7499 C   0  0  0  0  0  0  0  0  0  0  0  0
    1.2870  -12.1534   13.6895 C   0  0  0  0  0  0  0  0  0  0  0  0
    0.6110  -12.6250   14.9203 C   0  0  0  0  0  0  0  0  0  0  0  0
    0.0679  -11.7571   15.8447 N   0  0  0  0  0  0  0  0  0  0  0  0
    1.5418  -10.9717   13.1751 N   0  0  0  0  0  0  0  0  0  0  0  0
    2.1741  -11.1347   12.0048 C   0  0  0  0  0  0  0  0  0  0  0  0
    2.3596  -12.4281   11.7436 N   0  0  0  0  0  0  0  0  0  0  0  0
  2  1  1  1  0  0  0
  2  3  1  0  0  0  0
  2  5  1  0  0  0  0
  3  4  1  0  0  0  0
  3 17  1  0  0  0  0
  5  6  1  0  0  0  0
  7  6  1  6  0  0  0
  7  8  1  0  0  0  0
  7  9  1  0  0  0  0
 10  9  1  1  0  0  0
 10 11  1  0  0  0  0
 10 12  1  0  0  0  0
 11 16  1  0  0  0  0
 12 13  1  6  0  0  0
 12 14  1  0  0  0  0
 14 15  1  6  0  0  0
 14 16  1  0  0  0  0
 16 27  1  1  0  0  0
 18 19  2  0  0  0  0
 18 23  1  0  0  0  0
 19 20  1  0  0  0  0
 20 21  2  0  0  0  0
 21 22  1  0  0  0  0
 21 27  1  0  0  0  0
 22 23  2  0  0  0  0
 22 25  1  0  0  0  0
 23 24  1  0  0  0  0
 25 26  2  0  0  0  0
 26 27  1  0  0  0  0
M  END
>  <CHROM.1>
-32.99627182,69.77014844,-171.32839805,-50.16346030,49.74980648,66.45530693
-14.94153732,3.76329205,-14.72500861,10.79059394,0.65177449,-0.94531434,-3.08026979

>  <Name>
ligand

>  <RI>
0

>  <Rbt.Current_Directory>
/home/itssahil/PROJECTS/Mol_Feturizer/Test_systems_manuscript/rnas/4kqy

>  <Rbt.Executable>
rbdock ($Id: //depot/dev/client3/rdock/2013.1/src/exe/rbdock.cxx#4 $)

>  <Rbt.Library>
libRbt.so (2013.1, Build901 2013/11/27)

>  <Rbt.Parameter_File>
/export/apps/rDock/src/rDock_2013.1_src/data/scripts/dock_solv.prm

>  <Rbt.Receptor>
prm/blind_docking_40.prm

>  <SCORE>
-14.8359

>  <SCORE.INTER>
-13.5947

>  <SCORE.INTER.CONST>
1

>  <SCORE.INTER.POLAR>
0

>  <SCORE.INTER.ROT>
7

>  <SCORE.INTER.SOLV>
12.9374

>  <SCORE.INTER.VDW>
-21.6423

>  <SCORE.INTER.norm>
-0.503507

>  <SCORE.INTRA>
-1.51188

>  <SCORE.INTRA.DIHEDRAL>
-6.18199

>  <SCORE.INTRA.DIHEDRAL.0>
10.4103

>  <SCORE.INTRA.POLAR>
0

>  <SCORE.INTRA.POLAR.0>
0

>  <SCORE.INTRA.REPUL>
0

>  <SCORE.INTRA.REPUL.0>
0

>  <SCORE.INTRA.SOLV>
0.118768

>  <SCORE.INTRA.SOLV.lig_0>
-49.5008

>  <SCORE.INTRA.VDW>
1.51973

>  <SCORE.INTRA.VDW.0>
-2.6946

>  <SCORE.INTRA.norm>
-0.0559956

>  <SCORE.RESTR>
0.270686

>  <SCORE.RESTR.CAVITY>
0.270686

>  <SCORE.RESTR.norm>
0.0100254

>  <SCORE.SYSTEM>
0

>  <SCORE.SYSTEM.CONST>
0

>  <SCORE.SYSTEM.DIHEDRAL>
0

>  <SCORE.SYSTEM.SOLV>
0

>  <SCORE.SYSTEM.norm>
0

>  <SCORE.heavy>
27

>  <SCORE.norm>
-0.549477

>  <RMSD>
12.725

$$$$
ligand
 OpenBabel02271912153D
libRbt.so/2013.1/901 2013/11/27
 27 29  0  0  0  0  0  0  0  0999 V2000
   -1.1592   -4.1868    5.7190 N   0  0  0  0  0  0  0  0  0  0  0  0
   -0.9029   -4.1444    7.1461 C   0  0  2  0  0  0  0  0  0  0  0  0
    0.3475   -3.3456    7.3504 C   0  0  0  0  0  0  0  0  0  0  0  0
    0.2628   -2.1882    7.8144 O   0  0  0  0  0  0  0  0  0  0  0  0
   -0.7252   -5.5606    7.7002 C   0  0  0  0  0  0  0  0  0  0  0  0
   -2.0473   -6.3580    7.6481 C   0  0  0  0  0  0  0  0  0  0  0  0
   -1.9088   -8.0074    7.9232 S   0  0  2  0  0  0  0  0  0  0  0  0
   -3.4235   -8.6871    7.9722 C   0  0  0  0  0  0  0  0  0  0  0  0
   -1.0864   -8.2764    9.3723 C   0  0  0  0  0  0  0  0  0  0  0  0
   -0.6481   -9.7410    9.5842 C   0  0  1  0  0  0  0  0  0  0  0  0
    0.3041  -10.1939    8.6074 O   0  0  0  0  0  0  0  0  0  0  0  0
    0.1029   -9.9686   10.8861 C   0  0  1  0  0  0  0  0  0  0  0  0
   -0.6698   -9.9852   12.1032 O   0  0  0  0  0  0  0  0  0  0  0  0
    0.7909  -11.2765   10.5822 C   0  0  1  0  0  0  0  0  0  0  0  0
   -0.1575  -12.3393   10.5810 O   0  0  0  0  0  0  0  0  0  0  0  0
    1.2834  -11.0628    9.1815 C   0  0  2  0  0  0  0  0  0  0  0  0
    1.4584   -3.8626    7.0825 O   0  0  0  0  0  0  0  0  0  0  0  0
    6.5429  -11.7294    9.5933 N   0  0  0  0  0  0  0  0  0  0  0  0
    5.5543  -12.6496    9.7059 C   0  0  0  0  0  0  0  0  0  0  0  0
    4.2530  -12.3376    9.5851 N   0  0  0  0  0  0  0  0  0  0  0  0
    3.8471  -11.0903    9.3224 C   0  0  0  0  0  0  0  0  0  0  0  0
    4.8634  -10.0604    9.1679 C   0  0  0  0  0  0  0  0  0  0  0  0
    6.2948  -10.4100    9.3206 C   0  0  0  0  0  0  0  0  0  0  0  0
    7.3020   -9.4766    9.1906 N   0  0  0  0  0  0  0  0  0  0  0  0
    4.2102   -8.9510    8.9066 N   0  0  0  0  0  0  0  0  0  0  0  0
    2.8954   -9.2104    8.9082 C   0  0  0  0  0  0  0  0  0  0  0  0
    2.6683  -10.5004    9.1531 N   0  0  0  0  0  0  0  0  0  0  0  0
  2  1  1  6  0  0  0
  2  3  1  0  0  0  0
  2  5  1  0  0  0  0
  3  4  1  0  0  0  0
  3 17  1  0  0  0  0
  5  6  1  0  0  0  0
  7  6  1  1  0  0  0
  7  8  1  0  0  0  0
  7  9  1  0  0  0  0
 10  9  1  6  0  0  0
 10 11  1  0  0  0  0
 10 12  1  0  0  0  0
 11 16  1  0  0  0  0
 12 13  1  1  0  0  0
 12 14  1  0  0  0  0
 14 15  1  6  0  0  0
 14 16  1  0  0  0  0
 16 27  1  1  0  0  0
 18 19  2  0  0  0  0
 18 23  1  0  0  0  0
 19 20  1  0  0  0  0
 20 21  2  0  0  0  0
 21 22  1  0  0  0  0
 21 27  1  0  0  0  0
 22 23  2  0  0  0  0
 22 25  1  0  0  0  0
 23 24  1  0  0  0  0
 25 26  2  0  0  0  0
 26 27  1  0  0  0  0
M  END
>  <CHROM.1>
106.39470402,-67.93919323,167.69195646,174.79203210,-168.12443011,63.76979581
-164.12991182,1.22963485,-8.63741806,8.84479850,-2.26997302,-0.04402951,2.75925421

>  <Name>
ligand

>  <RI>
0

>  <Rbt.Current_Directory>
/home/itssahil/PROJECTS/Mol_Feturizer/Test_systems_manuscript/rnas/4kqy

>  <Rbt.Executable>
rbdock ($Id: //depot/dev/client3/rdock/2013.1/src/exe/rbdock.cxx#4 $)

>  <Rbt.Library>
libRbt.so (2013.1, Build901 2013/11/27)

>  <Rbt.Parameter_File>
/export/apps/rDock/src/rDock_2013.1_src/data/scripts/dock_solv.prm

>  <Rbt.Receptor>
prm/blind_docking_20.prm

>  <SCORE>
-17.8414

>  <SCORE.INTER>
-15.2689

>  <SCORE.INTER.CONST>
1

>  <SCORE.INTER.POLAR>
0

>  <SCORE.INTER.ROT>
7

>  <SCORE.INTER.SOLV>
10.9262

>  <SCORE.INTER.VDW>
-22.088

>  <SCORE.INTER.norm>
-0.565515

>  <SCORE.INTRA>
-2.5725

>  <SCORE.INTRA.DIHEDRAL>
-6.25494

>  <SCORE.INTRA.DIHEDRAL.0>
10.4103

>  <SCORE.INTRA.POLAR>
0

>  <SCORE.INTRA.POLAR.0>
0

>  <SCORE.INTRA.REPUL>
0

>  <SCORE.INTRA.REPUL.0>
0

>  <SCORE.INTRA.SOLV>
-0.00111597

>  <SCORE.INTRA.SOLV.lig_0>
-49.5008

>  <SCORE.INTRA.VDW>
0.555532

>  <SCORE.INTRA.VDW.0>
-2.6946

>  <SCORE.INTRA.norm>
-0.0952776

>  <SCORE.RESTR>
0

>  <SCORE.RESTR.CAVITY>
0

>  <SCORE.RESTR.norm>
0

>  <SCORE.SYSTEM>
0

>  <SCORE.SYSTEM.CONST>
0

>  <SCORE.SYSTEM.DIHEDRAL>
0

>  <SCORE.SYSTEM.SOLV>
0

>  <SCORE.SYSTEM.norm>
0

>  <SCORE.heavy>
27

>  <SCORE.norm>
-0.660792

>  <RMSD>
12.809

$$$$
ligand
 OpenBabel02271912153D
libRbt.so/2013.1/901 2013/11/27
 27 29  0  0  0  0  0  0  0  0999 V2000
    4.8818  -18.6638    6.5887 N   0  0  0  0  0  0  0  0  0  0  0  0
    6.1063  -18.1624    7.1831 C   0  0  2  0  0  0  0  0  0  0  0  0
    6.8421  -19.3390    7.7465 C   0  0  0  0  0  0  0  0  0  0  0  0
    8.0913  -19.3175    7.7814 O   0  0  0  0  0  0  0  0  0  0  0  0
    5.7897  -17.1537    8.2905 C   0  0  0  0  0  0  0  0  0  0  0  0
    4.9463  -17.7947    9.4149 C   0  0  0  0  0  0  0  0  0  0  0  0
    4.7313  -16.8513   10.7857 S   0  0  2  0  0  0  0  0  0  0  0  0
    4.2275  -17.8127   12.0429 C   0  0  0  0  0  0  0  0  0  0  0  0
    3.6007  -15.6383   10.4713 C   0  0  0  0  0  0  0  0  0  0  0  0
    3.4686  -14.5938   11.5998 C   0  0  1  0  0  0  0  0  0  0  0  0
    3.9442  -13.2907   11.2237 O   0  0  0  0  0  0  0  0  0  0  0  0
    2.0295  -14.3029   11.9937 C   0  0  1  0  0  0  0  0  0  0  0  0
    1.3442  -15.2962   12.7826 O   0  0  0  0  0  0  0  0  0  0  0  0
    2.1981  -12.9773   12.6940 C   0  0  1  0  0  0  0  0  0  0  0  0
    2.8327  -13.1675   13.9550 O   0  0  0  0  0  0  0  0  0  0  0  0
    3.1394  -12.2489   11.7810 C   0  0  2  0  0  0  0  0  0  0  0  0
    6.1923  -20.3104    8.2018 O   0  0  0  0  0  0  0  0  0  0  0  0
   -1.3583  -10.0829    9.9493 N   0  0  0  0  0  0  0  0  0  0  0  0
   -1.1602  -10.8207   11.0688 C   0  0  0  0  0  0  0  0  0  0  0  0
    0.0411  -11.3166   11.4098 N   0  0  0  0  0  0  0  0  0  0  0  0
    1.1331  -11.0941   10.6699 C   0  0  0  0  0  0  0  0  0  0  0  0
    0.9893  -10.2891    9.4663 C   0  0  0  0  0  0  0  0  0  0  0  0
   -0.3423   -9.7614    9.0885 C   0  0  0  0  0  0  0  0  0  0  0  0
   -0.5413   -8.9974    7.9573 N   0  0  0  0  0  0  0  0  0  0  0  0
    2.1915  -10.2134    8.9421 N   0  0  0  0  0  0  0  0  0  0  0  0
    3.0429  -10.9127    9.7050 C   0  0  0  0  0  0  0  0  0  0  0  0
    2.4129  -11.4428   10.7527 N   0  0  0  0  0  0  0  0  0  0  0  0
  2  1  1  1  0  0  0
  2  3  1  0  0  0  0
  2  5  1  0  0  0  0
  3  4  1  0  0  0  0
  3 17  1  0  0  0  0
  5  6  1  0  0  0  0
  7  6  1  6  0  0  0
  7  8  1  0  0  0  0
  7  9  1  0  0  0  0
 10  9  1  6  0  0  0
 10 11  1  0  0  0  0
 10 12  1  0  0  0  0
 11 16  1  0  0  0  0
 12 13  1  1  0  0  0
 12 14  1  0  0  0  0
 14 15  1  1  0  0  0
 14 16  1  0  0  0  0
 16 27  1  6  0  0  0
 18 19  2  0  0  0  0
 18 23  1  0  0  0  0
 19 20  1  0  0  0  0
 20 21  2  0  0  0  0
 21 22  1  0  0  0  0
 21 27  1  0  0  0  0
 22 23  2  0  0  0  0
 22 25  1  0  0  0  0
 23 24  1  0  0  0  0
 25 26  2  0  0  0  0
 26 27  1  0  0  0  0
M  END
>  <CHROM.1>
149.22049255,60.15056449,171.32040020,-162.92931554,-172.02916887,112.27795825
130.25435630,3.14670435,-14.39311648,10.18723583,-0.03643719,0.98028799,-1.30432561

>  <Name>
ligand

>  <RI>
0

>  <Rbt.Current_Directory>
/home/itssahil/PROJECTS/Mol_Feturizer/Test_systems_manuscript/rnas/4kqy

>  <Rbt.Executable>
rbdock ($Id: //depot/dev/client3/rdock/2013.1/src/exe/rbdock.cxx#4 $)

>  <Rbt.Library>
libRbt.so (2013.1, Build901 2013/11/27)

>  <Rbt.Parameter_File>
/export/apps/rDock/src/rDock_2013.1_src/data/scripts/dock_solv.prm

>  <Rbt.Receptor>
prm/blind_docking_40.prm

>  <SCORE>
-14.666

>  <SCORE.INTER>
-14.6072

>  <SCORE.INTER.CONST>
1

>  <SCORE.INTER.POLAR>
0

>  <SCORE.INTER.ROT>
7

>  <SCORE.INTER.SOLV>
14.711

>  <SCORE.INTER.VDW>
-22.9085

>  <SCORE.INTER.norm>
-0.541008

>  <SCORE.INTRA>
-0.058727

>  <SCORE.INTRA.DIHEDRAL>
-1.52315

>  <SCORE.INTRA.DIHEDRAL.0>
10.4103

>  <SCORE.INTRA.POLAR>
0

>  <SCORE.INTRA.POLAR.0>
0

>  <SCORE.INTRA.REPUL>
0

>  <SCORE.INTRA.REPUL.0>
0

>  <SCORE.INTRA.SOLV>
0.0902302

>  <SCORE.INTRA.SOLV.lig_0>
-49.5008

>  <SCORE.INTRA.VDW>
0.657732

>  <SCORE.INTRA.VDW.0>
-2.6946

>  <SCORE.INTRA.norm>
-0.00217507

>  <SCORE.RESTR>
0

>  <SCORE.RESTR.CAVITY>
0

>  <SCORE.RESTR.norm>
0

>  <SCORE.SYSTEM>
0

>  <SCORE.SYSTEM.CONST>
0

>  <SCORE.SYSTEM.DIHEDRAL>
0

>  <SCORE.SYSTEM.SOLV>
0

>  <SCORE.SYSTEM.norm>
0

>  <SCORE.heavy>
27

>  <SCORE.norm>
-0.543184

>  <RMSD>
12.817

$$$$
ligand
 OpenBabel02271912153D
libRbt.so/2013.1/901 2013/11/27
 27 29  0  0  0  0  0  0  0  0999 V2000
   -2.8835   -8.4204    5.8149 N   0  0  0  0  0  0  0  0  0  0  0  0
   -2.7375   -8.7796    7.2127 C   0  0  2  0  0  0  0  0  0  0  0  0
   -4.0598   -8.5411    7.8743 C   0  0  0  0  0  0  0  0  0  0  0  0
   -4.8766   -7.7597    7.3409 O   0  0  0  0  0  0  0  0  0  0  0  0
   -1.6511   -7.9270    7.8737 C   0  0  0  0  0  0  0  0  0  0  0  0
   -1.4504   -8.3160    9.3552 C   0  0  0  0  0  0  0  0  0  0  0  0
   -0.7676   -9.8255    9.6209 S   0  0  2  0  0  0  0  0  0  0  0  0
   -1.7540  -10.7077   10.6245 C   0  0  0  0  0  0  0  0  0  0  0  0
    0.7672   -9.6453   10.2996 C   0  0  0  0  0  0  0  0  0  0  0  0
    1.3950  -10.9655   10.7943 C   0  0  1  0  0  0  0  0  0  0  0  0
    1.9575  -11.7570    9.7346 O   0  0  0  0  0  0  0  0  0  0  0  0
    2.5932  -10.7642   11.7079 C   0  0  1  0  0  0  0  0  0  0  0  0
    2.3318  -10.3388   13.0604 O   0  0  0  0  0  0  0  0  0  0  0  0
    3.2453  -12.1212   11.6102 C   0  0  1  0  0  0  0  0  0  0  0  0
    2.4737  -13.0867   12.3185 O   0  0  0  0  0  0  0  0  0  0  0  0
    3.1604  -12.4137   10.1414 C   0  0  2  0  0  0  0  0  0  0  0  0
   -4.3368   -9.1527    8.9338 O   0  0  0  0  0  0  0  0  0  0  0  0
    5.5378   -8.9038    6.9314 N   0  0  0  0  0  0  0  0  0  0  0  0
    4.2606   -8.9177    7.3844 C   0  0  0  0  0  0  0  0  0  0  0  0
    3.7863   -9.8800    8.1933 N   0  0  0  0  0  0  0  0  0  0  0  0
    4.5577  -10.8842    8.6243 C   0  0  0  0  0  0  0  0  0  0  0  0
    5.9463  -10.9126    8.1903 C   0  0  0  0  0  0  0  0  0  0  0  0
    6.4559   -9.8574    7.2841 C   0  0  0  0  0  0  0  0  0  0  0  0
    7.7601   -9.8344    6.8353 N   0  0  0  0  0  0  0  0  0  0  0  0
    6.4754  -11.9735    8.7564 N   0  0  0  0  0  0  0  0  0  0  0  0
    5.5323  -12.5983    9.4748 C   0  0  0  0  0  0  0  0  0  0  0  0
    4.3735  -11.9443    9.4046 N   0  0  0  0  0  0  0  0  0  0  0  0
  2  1  1  6  0  0  0
  2  3  1  0  0  0  0
  2  5  1  0  0  0  0
  3  4  1  0  0  0  0
  3 17  1  0  0  0  0
  5  6  1  0  0  0  0
  7  6  1  1  0  0  0
  7  8  1  0  0  0  0
  7  9  1  0  0  0  0
 10  9  1  6  0  0  0
 10 11  1  0  0  0  0
 10 12  1  0  0  0  0
 11 16  1  0  0  0  0
 12 13  1  1  0  0  0
 12 14  1  0  0  0  0
 14 15  1  1  0  0  0
 14 16  1  0  0  0  0
 16 27  1  6  0  0  0
 18 19  2  0  0  0  0
 18 23  1  0  0  0  0
 19 20  1  0  0  0  0
 20 21  2  0  0  0  0
 21 22  1  0  0  0  0
 21 27  1  0  0  0  0
 22 23  2  0  0  0  0
 22 25  1  0  0  0  0
 23 24  1  0  0  0  0
 25 26  2  0  0  0  0
 26 27  1  0  0  0  0
M  END
>  <CHROM.1>
-21.20356599,-178.51925331,68.94310139,-125.39685591,170.69462631,79.01721660
13.30359477,1.53744488,-10.20623485,9.16168084,-2.94249798,-0.19415989,2.10241573

>  <Name>
ligand

>  <RI>
0

>  <Rbt.Current_Directory>
/home/itssahil/PROJECTS/Mol_Feturizer/Test_systems_manuscript/rnas/4kqy

>  <Rbt.Executable>
rbdock ($Id: //depot/dev/client3/rdock/2013.1/src/exe/rbdock.cxx#4 $)

>  <Rbt.Library>
libRbt.so (2013.1, Build901 2013/11/27)

>  <Rbt.Parameter_File>
/export/apps/rDock/src/rDock_2013.1_src/data/scripts/dock_solv.prm

>  <Rbt.Receptor>
prm/blind_docking_60.prm

>  <SCORE>
-13.8867

>  <SCORE.INTER>
-12.8816

>  <SCORE.INTER.CONST>
1

>  <SCORE.INTER.POLAR>
0

>  <SCORE.INTER.ROT>
7

>  <SCORE.INTER.SOLV>
19.1322

>  <SCORE.INTER.VDW>
-23.2318

>  <SCORE.INTER.norm>
-0.477095

>  <SCORE.INTRA>
-1.00516

>  <SCORE.INTRA.DIHEDRAL>
-1.19276

>  <SCORE.INTRA.DIHEDRAL.0>
10.4103

>  <SCORE.INTRA.POLAR>
0

>  <SCORE.INTRA.POLAR.0>
0

>  <SCORE.INTRA.REPUL>
0

>  <SCORE.INTRA.REPUL.0>
0

>  <SCORE.INTRA.SOLV>
-0.554952

>  <SCORE.INTRA.SOLV.lig_0>
-49.5008

>  <SCORE.INTRA.VDW>
-0.131305

>  <SCORE.INTRA.VDW.0>
-2.6946

>  <SCORE.INTRA.norm>
-0.0372281

>  <SCORE.RESTR>
0

>  <SCORE.RESTR.CAVITY>
0

>  <SCORE.RESTR.norm>
0

>  <SCORE.SYSTEM>
0

>  <SCORE.SYSTEM.CONST>
0

>  <SCORE.SYSTEM.DIHEDRAL>
0

>  <SCORE.SYSTEM.SOLV>
0

>  <SCORE.SYSTEM.norm>
0

>  <SCORE.heavy>
27

>  <SCORE.norm>
-0.514323

>  <RMSD>
12.824

$$$$
ligand
 OpenBabel02271912153D
libRbt.so/2013.1/901 2013/11/27
 27 29  0  0  0  0  0  0  0  0999 V2000
    9.1678   -7.5000    8.0996 N   0  0  0  0  0  0  0  0  0  0  0  0
    9.2767   -8.9441    8.0151 C   0  0  2  0  0  0  0  0  0  0  0  0
   10.3660   -9.2518    7.0343 C   0  0  0  0  0  0  0  0  0  0  0  0
   10.0934   -9.3011    5.8155 O   0  0  0  0  0  0  0  0  0  0  0  0
    7.9526   -9.5542    7.5473 C   0  0  0  0  0  0  0  0  0  0  0  0
    6.7886   -9.1663    8.4860 C   0  0  0  0  0  0  0  0  0  0  0  0
    5.2751   -9.7319    8.0337 S   0  0  2  0  0  0  0  0  0  0  0  0
    4.9204   -9.1937    6.5029 C   0  0  0  0  0  0  0  0  0  0  0  0
    4.1144   -9.1999    9.1375 C   0  0  0  0  0  0  0  0  0  0  0  0
    2.6654   -9.5642    8.7511 C   0  0  1  0  0  0  0  0  0  0  0  0
    2.2957  -10.8991    9.1346 O   0  0  0  0  0  0  0  0  0  0  0  0
    1.6167   -8.7284    9.4671 C   0  0  1  0  0  0  0  0  0  0  0  0
    1.4333   -7.3698    9.0205 O   0  0  0  0  0  0  0  0  0  0  0  0
    0.3987   -9.6000    9.2856 C   0  0  1  0  0  0  0  0  0  0  0  0
   -0.0389   -9.5531    7.9309 O   0  0  0  0  0  0  0  0  0  0  0  0
    0.9375  -10.9696    9.5753 C   0  0  2  0  0  0  0  0  0  0  0  0
   11.5371   -9.4233    7.4495 O   0  0  0  0  0  0  0  0  0  0  0  0
   -1.0332  -14.1384   13.3636 N   0  0  0  0  0  0  0  0  0  0  0  0
   -1.1968  -14.2101   12.0202 C   0  0  0  0  0  0  0  0  0  0  0  0
   -0.6411  -13.3289   11.1717 N   0  0  0  0  0  0  0  0  0  0  0  0
    0.1340  -12.3269   11.6015 C   0  0  0  0  0  0  0  0  0  0  0  0
    0.3661  -12.2098   13.0332 C   0  0  0  0  0  0  0  0  0  0  0  0
   -0.2651  -13.1751   13.9626 C   0  0  0  0  0  0  0  0  0  0  0  0
   -0.0862  -13.1115   15.3289 N   0  0  0  0  0  0  0  0  0  0  0  0
    1.1566  -11.1711   13.1826 N   0  0  0  0  0  0  0  0  0  0  0  0
    1.4072  -10.6392   11.9784 C   0  0  0  0  0  0  0  0  0  0  0  0
    0.7980  -11.3341   11.0184 N   0  0  0  0  0  0  0  0  0  0  0  0
  2  1  1  6  0  0  0
  2  3  1  0  0  0  0
  2  5  1  0  0  0  0
  3  4  1  0  0  0  0
  3 17  1  0  0  0  0
  5  6  1  0  0  0  0
  7  6  1  1  0  0  0
  7  8  1  0  0  0  0
  7  9  1  0  0  0  0
 10  9  1  1  0  0  0
 10 11  1  0  0  0  0
 10 12  1  0  0  0  0
 11 16  1  0  0  0  0
 12 13  1  6  0  0  0
 12 14  1  0  0  0  0
 14 15  1  6  0  0  0
 14 16  1  0  0  0  0
 16 27  1  1  0  0  0
 18 19  2  0  0  0  0
 18 23  1  0  0  0  0
 19 20  1  0  0  0  0
 20 21  2  0  0  0  0
 21 22  1  0  0  0  0
 21 27  1  0  0  0  0
 22 23  2  0  0  0  0
 22 25  1  0  0  0  0
 23 24  1  0  0  0  0
 25 26  2  0  0  0  0
 26 27  1  0  0  0  0
M  END
>  <CHROM.1>
-85.49897066,-57.39492163,177.68261341,-57.21530581,175.09487460,83.02678648
-123.81271449,3.50331065,-10.40071583,9.66301973,-0.58331811,-0.06103379
2.25165291

>  <Name>
ligand

>  <RI>
0

>  <Rbt.Current_Directory>
/home/itssahil/PROJECTS/Mol_Feturizer/Test_systems_manuscript/rnas/4kqy

>  <Rbt.Executable>
rbdock ($Id: //depot/dev/client3/rdock/2013.1/src/exe/rbdock.cxx#4 $)

>  <Rbt.Library>
libRbt.so (2013.1, Build901 2013/11/27)

>  <Rbt.Parameter_File>
/export/apps/rDock/src/rDock_2013.1_src/data/scripts/dock_solv.prm

>  <Rbt.Receptor>
prm/blind_docking_80.prm

>  <SCORE>
-13.4014

>  <SCORE.INTER>
-11.9066

>  <SCORE.INTER.CONST>
1

>  <SCORE.INTER.POLAR>
0

>  <SCORE.INTER.ROT>
7

>  <SCORE.INTER.SOLV>
8.85715

>  <SCORE.INTER.VDW>
-19.1568

>  <SCORE.INTER.norm>
-0.440985

>  <SCORE.INTRA>
-1.49477

>  <SCORE.INTRA.DIHEDRAL>
-5.92048

>  <SCORE.INTRA.DIHEDRAL.0>
10.4103

>  <SCORE.INTRA.POLAR>
0

>  <SCORE.INTRA.POLAR.0>
0

>  <SCORE.INTRA.REPUL>
0

>  <SCORE.INTRA.REPUL.0>
0

>  <SCORE.INTRA.SOLV>
0.0605952

>  <SCORE.INTRA.SOLV.lig_0>
-49.5008

>  <SCORE.INTRA.VDW>
1.43517

>  <SCORE.INTRA.VDW.0>
-2.6946

>  <SCORE.INTRA.norm>
-0.0553618

>  <SCORE.RESTR>
0

>  <SCORE.RESTR.CAVITY>
0

>  <SCORE.RESTR.norm>
0

>  <SCORE.SYSTEM>
0

>  <SCORE.SYSTEM.CONST>
0

>  <SCORE.SYSTEM.DIHEDRAL>
0

>  <SCORE.SYSTEM.SOLV>
0

>  <SCORE.SYSTEM.norm>
0

>  <SCORE.heavy>
27

>  <SCORE.norm>
-0.496347

>  <RMSD>
12.846

$$$$
ligand
 OpenBabel02271912153D
libRbt.so/2013.1/901 2013/11/27
 27 29  0  0  0  0  0  0  0  0999 V2000
  -11.9331    0.0237   16.7676 N   0  0  0  0  0  0  0  0  0  0  0  0
  -11.8625   -1.4038   17.0156 C   0  0  2  0  0  0  0  0  0  0  0  0
  -12.0196   -2.0935   15.6955 C   0  0  0  0  0  0  0  0  0  0  0  0
  -12.9386   -1.7372   14.9268 O   0  0  0  0  0  0  0  0  0  0  0  0
  -12.9736   -1.8357   17.9764 C   0  0  0  0  0  0  0  0  0  0  0  0
  -12.8741   -1.0920   19.3267 C   0  0  0  0  0  0  0  0  0  0  0  0
  -13.9666   -1.5791   20.5033 S   0  0  2  0  0  0  0  0  0  0  0  0
  -14.0055   -0.4498   21.7206 C   0  0  0  0  0  0  0  0  0  0  0  0
  -13.5194   -3.0910   21.1055 C   0  0  0  0  0  0  0  0  0  0  0  0
  -13.5229   -4.2152   20.0481 C   0  0  1  0  0  0  0  0  0  0  0  0
  -12.9420   -5.4411   20.5232 O   0  0  0  0  0  0  0  0  0  0  0  0
  -14.9175   -4.6636   19.6420 C   0  0  1  0  0  0  0  0  0  0  0  0
  -15.6670   -3.7923   18.7715 O   0  0  0  0  0  0  0  0  0  0  0  0
  -14.6087   -6.0112   19.0379 C   0  0  1  0  0  0  0  0  0  0  0  0
  -13.9574   -5.8464   17.7818 O   0  0  0  0  0  0  0  0  0  0  0  0
  -13.6320   -6.5874   20.0199 C   0  0  2  0  0  0  0  0  0  0  0  0
  -11.2085   -2.9936   15.3712 O   0  0  0  0  0  0  0  0  0  0  0  0
  -17.8279   -7.4532   23.1696 N   0  0  0  0  0  0  0  0  0  0  0  0
  -17.6422   -6.4821   22.2427 C   0  0  0  0  0  0  0  0  0  0  0  0
  -16.5173   -6.3762   21.5157 N   0  0  0  0  0  0  0  0  0  0  0  0
  -15.5073   -7.2435   21.6467 C   0  0  0  0  0  0  0  0  0  0  0  0
  -15.6558   -8.3231   22.6109 C   0  0  0  0  0  0  0  0  0  0  0  0
  -16.8921   -8.4216   23.4209 C   0  0  0  0  0  0  0  0  0  0  0  0
  -17.0878   -9.4190   24.3534 N   0  0  0  0  0  0  0  0  0  0  0  0
  -14.5486   -9.0259   22.5329 N   0  0  0  0  0  0  0  0  0  0  0  0
  -13.7386   -8.4610   21.6270 C   0  0  0  0  0  0  0  0  0  0  0  0
  -14.3120   -7.3879   21.0838 N   0  0  0  0  0  0  0  0  0  0  0  0
  2  1  1  6  0  0  0
  2  3  1  0  0  0  0
  2  5  1  0  0  0  0
  3  4  1  0  0  0  0
  3 17  1  0  0  0  0
  5  6  1  0  0  0  0
  7  6  1  6  0  0  0
  7  8  1  0  0  0  0
  7  9  1  0  0  0  0
 10  9  1  1  0  0  0
 10 11  1  0  0  0  0
 10 12  1  0  0  0  0
 11 16  1  0  0  0  0
 12 13  1  6  0  0  0
 12 14  1  0  0  0  0
 14 15  1  6  0  0  0
 14 16  1  0  0  0  0
 16 27  1  1  0  0  0
 18 19  2  0  0  0  0
 18 23  1  0  0  0  0
 19 20  1  0  0  0  0
 20 21  2  0  0  0  0
 21 22  1  0  0  0  0
 21 27  1  0  0  0  0
 22 23  2  0  0  0  0
 22 25  1  0  0  0  0
 23 24  1  0  0  0  0
 25 26  2  0  0  0  0
 26 27  1  0  0  0  0
M  END
>  <CHROM.1>
-47.16975906,-58.99822175,-175.15528229,-165.33412320,-61.88221166,170.77829172
84.89241210,-14.24417305,-4.62278836,19.95263569,0.61525081,1.07261902,0.19666098

>  <Name>
ligand

>  <RI>
0

>  <Rbt.Current_Directory>
/home/itssahil/PROJECTS/Mol_Feturizer/Test_systems_manuscript/rnas/4kqy

>  <Rbt.Executable>
rbdock ($Id: //depot/dev/client3/rdock/2013.1/src/exe/rbdock.cxx#4 $)

>  <Rbt.Library>
libRbt.so (2013.1, Build901 2013/11/27)

>  <Rbt.Parameter_File>
/export/apps/rDock/src/rDock_2013.1_src/data/scripts/dock_solv.prm

>  <Rbt.Receptor>
prm/blind_docking_100.prm

>  <SCORE>
-14.9197

>  <SCORE.INTER>
-11.3494

>  <SCORE.INTER.CONST>
1

>  <SCORE.INTER.POLAR>
0

>  <SCORE.INTER.ROT>
7

>  <SCORE.INTER.SOLV>
9.32492

>  <SCORE.INTER.VDW>
-18.9412

>  <SCORE.INTER.norm>
-0.420348

>  <SCORE.INTRA>
-3.57035

>  <SCORE.INTRA.DIHEDRAL>
-6.64602

>  <SCORE.INTRA.DIHEDRAL.0>
10.4103

>  <SCORE.INTRA.POLAR>
0

>  <SCORE.INTRA.POLAR.0>
0

>  <SCORE.INTRA.REPUL>
0

>  <SCORE.INTRA.REPUL.0>
0

>  <SCORE.INTRA.SOLV>
0.578877

>  <SCORE.INTRA.SOLV.lig_0>
-49.5008

>  <SCORE.INTRA.VDW>
-0.536781

>  <SCORE.INTRA.VDW.0>
-2.6946

>  <SCORE.INTRA.norm>
-0.132235

>  <SCORE.RESTR>
0

>  <SCORE.RESTR.CAVITY>
0

>  <SCORE.RESTR.norm>
0

>  <SCORE.SYSTEM>
0

>  <SCORE.SYSTEM.CONST>
0

>  <SCORE.SYSTEM.DIHEDRAL>
0

>  <SCORE.SYSTEM.SOLV>
0

>  <SCORE.SYSTEM.norm>
0

>  <SCORE.heavy>
27

>  <SCORE.norm>
-0.552583

>  <RMSD>
12.855

$$$$
ligand
 OpenBabel02271912153D
libRbt.so/2013.1/901 2013/11/27
 27 29  0  0  0  0  0  0  0  0999 V2000
    3.8167  -12.5545   11.5389 N   0  0  0  0  0  0  0  0  0  0  0  0
    4.2120  -13.1453   10.2744 C   0  0  2  0  0  0  0  0  0  0  0  0
    4.3224  -14.6235   10.4886 C   0  0  0  0  0  0  0  0  0  0  0  0
    3.3713  -15.3613   10.1522 O   0  0  0  0  0  0  0  0  0  0  0  0
    5.5554  -12.5734    9.8133 C   0  0  0  0  0  0  0  0  0  0  0  0
    5.4455  -11.0684    9.4825 C   0  0  0  0  0  0  0  0  0  0  0  0
    4.5995  -10.6952    8.0824 S   0  0  2  0  0  0  0  0  0  0  0  0
    5.6292  -10.7656    6.7810 C   0  0  0  0  0  0  0  0  0  0  0  0
    3.9171   -9.1578    8.2214 C   0  0  0  0  0  0  0  0  0  0  0  0
    2.8150   -9.0538    9.2967 C   0  0  1  0  0  0  0  0  0  0  0  0
    2.4532   -7.6979    9.6073 O   0  0  0  0  0  0  0  0  0  0  0  0
    1.4833   -9.6439    8.8616 C   0  0  1  0  0  0  0  0  0  0  0  0
    1.3721  -11.0811    8.8341 O   0  0  0  0  0  0  0  0  0  0  0  0
    0.5526   -8.9785    9.8451 C   0  0  1  0  0  0  0  0  0  0  0  0
    0.7310   -9.5382   11.1428 O   0  0  0  0  0  0  0  0  0  0  0  0
    1.0514   -7.5638    9.8531 C   0  0  2  0  0  0  0  0  0  0  0  0
    5.3781  -15.0979   10.9720 O   0  0  0  0  0  0  0  0  0  0  0  0
   -3.1414   -6.6472    6.7137 N   0  0  0  0  0  0  0  0  0  0  0  0
   -2.9224   -7.6777    7.5662 C   0  0  0  0  0  0  0  0  0  0  0  0
   -1.8027   -7.7886    8.3005 N   0  0  0  0  0  0  0  0  0  0  0  0
   -0.8323   -6.8692    8.2522 C   0  0  0  0  0  0  0  0  0  0  0  0
   -1.0188   -5.7260    7.3714 C   0  0  0  0  0  0  0  0  0  0  0  0
   -2.2484   -5.6210    6.5521 C   0  0  0  0  0  0  0  0  0  0  0  0
   -2.4785   -4.5643    5.6959 N   0  0  0  0  0  0  0  0  0  0  0  0
    0.0538   -4.9821    7.5205 N   0  0  0  0  0  0  0  0  0  0  0  0
    0.8780   -5.5783    8.3929 C   0  0  0  0  0  0  0  0  0  0  0  0
    0.3482   -6.7150    8.8432 N   0  0  0  0  0  0  0  0  0  0  0  0
  2  1  1  1  0  0  0
  2  3  1  0  0  0  0
  2  5  1  0  0  0  0
  3  4  1  0  0  0  0
  3 17  1  0  0  0  0
  5  6  1  0  0  0  0
  7  6  1  1  0  0  0
  7  8  1  0  0  0  0
  7  9  1  0  0  0  0
 10  9  1  6  0  0  0
 10 11  1  0  0  0  0
 10 12  1  0  0  0  0
 11 16  1  0  0  0  0
 12 13  1  1  0  0  0
 12 14  1  0  0  0  0
 14 15  1  1  0  0  0
 14 16  1  0  0  0  0
 16 27  1  6  0  0  0
 18 19  2  0  0  0  0
 18 23  1  0  0  0  0
 19 20  1  0  0  0  0
 20 21  2  0  0  0  0
 21 22  1  0  0  0  0
 21 27  1  0  0  0  0
 22 23  2  0  0  0  0
 22 25  1  0  0  0  0
 23 24  1  0  0  0  0
 25 26  2  0  0  0  0
 26 27  1  0  0  0  0
M  END
>  <CHROM.1>
98.45627439,-65.80352222,-71.54573256,-85.90907154,-66.40807933,167.15415510
138.88724794,1.84222279,-9.46430387,8.83741574,0.87482194,-0.16950992,2.66572976

>  <Name>
ligand

>  <RI>
0

>  <Rbt.Current_Directory>
/home/itssahil/PROJECTS/Mol_Feturizer/Test_systems_manuscript/rnas/4kqy

>  <Rbt.Executable>
rbdock ($Id: //depot/dev/client3/rdock/2013.1/src/exe/rbdock.cxx#4 $)

>  <Rbt.Library>
libRbt.so (2013.1, Build901 2013/11/27)

>  <Rbt.Parameter_File>
/export/apps/rDock/src/rDock_2013.1_src/data/scripts/dock_solv.prm

>  <Rbt.Receptor>
prm/blind_docking_20.prm

>  <SCORE>
-18.2475

>  <SCORE.INTER>
-16.6872

>  <SCORE.INTER.CONST>
1

>  <SCORE.INTER.POLAR>
0

>  <SCORE.INTER.ROT>
7

>  <SCORE.INTER.SOLV>
11.3505

>  <SCORE.INTER.VDW>
-23.175

>  <SCORE.INTER.norm>
-0.618046

>  <SCORE.INTRA>
-1.58188

>  <SCORE.INTRA.DIHEDRAL>
-4.37769

>  <SCORE.INTRA.DIHEDRAL.0>
10.4103

>  <SCORE.INTRA.POLAR>
0

>  <SCORE.INTRA.POLAR.0>
0

>  <SCORE.INTRA.REPUL>
0

>  <SCORE.INTRA.REPUL.0>
0

>  <SCORE.INTRA.SOLV>
1.25734

>  <SCORE.INTRA.SOLV.lig_0>
-49.5008

>  <SCORE.INTRA.VDW>
-0.0217034

>  <SCORE.INTRA.VDW.0>
-2.6946

>  <SCORE.INTRA.norm>
-0.0585881

>  <SCORE.RESTR>
0.0215778

>  <SCORE.RESTR.CAVITY>
0.0215778

>  <SCORE.RESTR.norm>
0.000799178

>  <SCORE.SYSTEM>
0

>  <SCORE.SYSTEM.CONST>
0

>  <SCORE.SYSTEM.DIHEDRAL>
0

>  <SCORE.SYSTEM.SOLV>
0

>  <SCORE.SYSTEM.norm>
0

>  <SCORE.heavy>
27

>  <SCORE.norm>
-0.675835

>  <RMSD>
12.863

$$$$
ligand
 OpenBabel02271912153D
libRbt.so/2013.1/901 2013/11/27
 27 29  0  0  0  0  0  0  0  0999 V2000
    6.9333  -18.6419    8.0278 N   0  0  0  0  0  0  0  0  0  0  0  0
    5.5448  -18.5774    7.6132 C   0  0  2  0  0  0  0  0  0  0  0  0
    5.5282  -18.5448    6.1159 C   0  0  0  0  0  0  0  0  0  0  0  0
    6.6087  -18.4422    5.4961 O   0  0  0  0  0  0  0  0  0  0  0  0
    4.8748  -17.3226    8.1795 C   0  0  0  0  0  0  0  0  0  0  0  0
    4.6043  -17.4609    9.6942 C   0  0  0  0  0  0  0  0  0  0  0  0
    3.8896  -16.1308   10.4259 S   0  0  2  0  0  0  0  0  0  0  0  0
    4.9491  -14.8520   10.3999 C   0  0  0  0  0  0  0  0  0  0  0  0
    3.4575  -16.5161   12.0112 C   0  0  0  0  0  0  0  0  0  0  0  0
    2.6930  -15.3942   12.7451 C   0  0  1  0  0  0  0  0  0  0  0  0
    3.5053  -14.2402   13.0177 O   0  0  0  0  0  0  0  0  0  0  0  0
    1.5591  -14.7959   11.9282 C   0  0  1  0  0  0  0  0  0  0  0  0
    0.3554  -15.5778   11.7925 O   0  0  0  0  0  0  0  0  0  0  0  0
    1.3585  -13.4875   12.6519 C   0  0  1  0  0  0  0  0  0  0  0  0
    0.7430  -13.7170   13.9158 O   0  0  0  0  0  0  0  0  0  0  0  0
    2.7677  -13.0240   12.8746 C   0  0  2  0  0  0  0  0  0  0  0  0
    4.4351  -18.6524    5.5103 O   0  0  0  0  0  0  0  0  0  0  0  0
    1.8369  -10.2821    8.4146 N   0  0  0  0  0  0  0  0  0  0  0  0
    0.9713  -10.9974    9.1733 C   0  0  0  0  0  0  0  0  0  0  0  0
    1.3482  -11.6539   10.2834 N   0  0  0  0  0  0  0  0  0  0  0  0
    2.6100  -11.6259   10.7266 C   0  0  0  0  0  0  0  0  0  0  0  0
    3.5830  -10.8556    9.9668 C   0  0  0  0  0  0  0  0  0  0  0  0
    3.1624  -10.1497    8.7344 C   0  0  0  0  0  0  0  0  0  0  0  0
    4.0401   -9.4087    7.9704 N   0  0  0  0  0  0  0  0  0  0  0  0
    4.7200  -10.9807   10.6129 N   0  0  0  0  0  0  0  0  0  0  0  0
    4.5290  -11.7695   11.6793 C   0  0  0  0  0  0  0  0  0  0  0  0
    3.2571  -12.1587   11.7580 N   0  0  0  0  0  0  0  0  0  0  0  0
  2  1  1  1  0  0  0
  2  3  1  0  0  0  0
  2  5  1  0  0  0  0
  3  4  1  0  0  0  0
  3 17  1  0  0  0  0
  5  6  1  0  0  0  0
  7  6  1  1  0  0  0
  7  8  1  0  0  0  0
  7  9  1  0  0  0  0
 10  9  1  6  0  0  0
 10 11  1  0  0  0  0
 10 12  1  0  0  0  0
 11 16  1  0  0  0  0
 12 13  1  1  0  0  0
 12 14  1  0  0  0  0
 14 15  1  1  0  0  0
 14 16  1  0  0  0  0
 16 27  1  6  0  0  0
 18 19  2  0  0  0  0
 18 23  1  0  0  0  0
 19 20  1  0  0  0  0
 20 21  2  0  0  0  0
 21 22  1  0  0  0  0
 21 27  1  0  0  0  0
 22 23  2  0  0  0  0
 22 25  1  0  0  0  0
 23 24  1  0  0  0  0
 25 26  2  0  0  0  0
 26 27  1  0  0  0  0
M  END
>  <CHROM.1>
-6.97273019,-73.71343251,179.17942716,-66.52203857,-175.61561368,-68.30032423
126.15150703,3.50193488,-14.45407791,10.07972155,-0.59530524,1.08615075,-0.37600015

>  <Name>
ligand

>  <RI>
0

>  <Rbt.Current_Directory>
/home/itssahil/PROJECTS/Mol_Feturizer/Test_systems_manuscript/rnas/4kqy

>  <Rbt.Executable>
rbdock ($Id: //depot/dev/client3/rdock/2013.1/src/exe/rbdock.cxx#4 $)

>  <Rbt.Library>
libRbt.so (2013.1, Build901 2013/11/27)

>  <Rbt.Parameter_File>
/export/apps/rDock/src/rDock_2013.1_src/data/scripts/dock_solv.prm

>  <Rbt.Receptor>
prm/blind_docking_100.prm

>  <SCORE>
-16.4751

>  <SCORE.INTER>
-13.5947

>  <SCORE.INTER.CONST>
1

>  <SCORE.INTER.POLAR>
0

>  <SCORE.INTER.ROT>
7

>  <SCORE.INTER.SOLV>
15.5345

>  <SCORE.INTER.VDW>
-22.508

>  <SCORE.INTER.norm>
-0.503507

>  <SCORE.INTRA>
-2.88041

>  <SCORE.INTRA.DIHEDRAL>
-6.52634

>  <SCORE.INTRA.DIHEDRAL.0>
10.4103

>  <SCORE.INTRA.POLAR>
0

>  <SCORE.INTRA.POLAR.0>
0

>  <SCORE.INTRA.REPUL>
0

>  <SCORE.INTRA.REPUL.0>
0

>  <SCORE.INTRA.SOLV>
0.20129

>  <SCORE.INTRA.SOLV.lig_0>
-49.5008

>  <SCORE.INTRA.VDW>
0.282117

>  <SCORE.INTRA.VDW.0>
-2.6946

>  <SCORE.INTRA.norm>
-0.106682

>  <SCORE.RESTR>
0

>  <SCORE.RESTR.CAVITY>
0

>  <SCORE.RESTR.norm>
0

>  <SCORE.SYSTEM>
0

>  <SCORE.SYSTEM.CONST>
0

>  <SCORE.SYSTEM.DIHEDRAL>
0

>  <SCORE.SYSTEM.SOLV>
0

>  <SCORE.SYSTEM.norm>
0

>  <SCORE.heavy>
27

>  <SCORE.norm>
-0.610189

>  <RMSD>
12.923

$$$$
ligand
 OpenBabel02271912153D
libRbt.so/2013.1/901 2013/11/27
 27 29  0  0  0  0  0  0  0  0999 V2000
   -2.8340  -12.5621   12.5787 N   0  0  0  0  0  0  0  0  0  0  0  0
   -1.8954  -12.2771   11.5101 C   0  0  2  0  0  0  0  0  0  0  0  0
   -0.5332  -12.6621   11.9994 C   0  0  0  0  0  0  0  0  0  0  0  0
    0.2060  -13.3526   11.2653 O   0  0  0  0  0  0  0  0  0  0  0  0
   -1.9299  -10.7894   11.1501 C   0  0  0  0  0  0  0  0  0  0  0  0
   -0.9159  -10.4542   10.0339 C   0  0  0  0  0  0  0  0  0  0  0  0
    0.6728  -10.2548   10.5356 S   0  0  2  0  0  0  0  0  0  0  0  0
    0.7979   -8.8597   11.4282 C   0  0  0  0  0  0  0  0  0  0  0  0
    1.6920  -10.1972    9.1915 C   0  0  0  0  0  0  0  0  0  0  0  0
    3.1773   -9.9615    9.5382 C   0  0  1  0  0  0  0  0  0  0  0  0
    3.6687  -10.8488   10.5567 O   0  0  0  0  0  0  0  0  0  0  0  0
    4.1242  -10.2503    8.3846 C   0  0  1  0  0  0  0  0  0  0  0  0
    4.1821   -9.2836    7.3164 O   0  0  0  0  0  0  0  0  0  0  0  0
    5.4254  -10.4140    9.1305 C   0  0  1  0  0  0  0  0  0  0  0  0
    5.8832   -9.1491    9.5988 O   0  0  0  0  0  0  0  0  0  0  0  0
    5.0181  -11.2498   10.3076 C   0  0  2  0  0  0  0  0  0  0  0  0
   -0.1464  -12.2591   13.1225 O   0  0  0  0  0  0  0  0  0  0  0  0
    3.1363  -16.2128   10.6291 N   0  0  0  0  0  0  0  0  0  0  0  0
    2.5803  -15.0587   11.0713 C   0  0  0  0  0  0  0  0  0  0  0  0
    3.1761  -13.8629   10.9284 N   0  0  0  0  0  0  0  0  0  0  0  0
    4.3580  -13.7312   10.3158 C   0  0  0  0  0  0  0  0  0  0  0  0
    4.9959  -14.9325    9.7986 C   0  0  0  0  0  0  0  0  0  0  0  0
    4.3403  -16.2488    9.9765 C   0  0  0  0  0  0  0  0  0  0  0  0
    4.8987  -17.4218    9.5128 N   0  0  0  0  0  0  0  0  0  0  0  0
    6.1162  -14.5303    9.2427 N   0  0  0  0  0  0  0  0  0  0  0  0
    6.2235  -13.2029    9.3930 C   0  0  0  0  0  0  0  0  0  0  0  0
    5.1639  -12.7125   10.0349 N   0  0  0  0  0  0  0  0  0  0  0  0
  2  1  1  1  0  0  0
  2  3  1  0  0  0  0
  2  5  1  0  0  0  0
  3  4  1  0  0  0  0
  3 17  1  0  0  0  0
  5  6  1  0  0  0  0
  7  6  1  6  0  0  0
  7  8  1  0  0  0  0
  7  9  1  0  0  0  0
 10  9  1  6  0  0  0
 10 11  1  0  0  0  0
 10 12  1  0  0  0  0
 11 16  1  0  0  0  0
 12 13  1  6  0  0  0
 12 14  1  0  0  0  0
 14 15  1  1  0  0  0
 14 16  1  0  0  0  0
 16 27  1  6  0  0  0
 18 19  2  0  0  0  0
 18 23  1  0  0  0  0
 19 20  1  0  0  0  0
 20 21  2  0  0  0  0
 21 22  1  0  0  0  0
 21 27  1  0  0  0  0
 22 23  2  0  0  0  0
 22 25  1  0  0  0  0
 23 24  1  0  0  0  0
 25 26  2  0  0  0  0
 26 27  1  0  0  0  0
M  END
>  <CHROM.1>
132.38446525,178.77340140,-80.81565096,-69.38410045,177.79952314,50.01196301
-19.84793769,2.51955114,-12.14236768,10.33465287,2.85336559,0.36207589,-0.19744036

>  <Name>
ligand

>  <RI>
0

>  <Rbt.Current_Directory>
/home/itssahil/PROJECTS/Mol_Feturizer/Test_systems_manuscript/rnas/4kqy

>  <Rbt.Executable>
rbdock ($Id: //depot/dev/client3/rdock/2013.1/src/exe/rbdock.cxx#4 $)

>  <Rbt.Library>
libRbt.so (2013.1, Build901 2013/11/27)

>  <Rbt.Parameter_File>
/export/apps/rDock/src/rDock_2013.1_src/data/scripts/dock_solv.prm

>  <Rbt.Receptor>
prm/blind_docking_40.prm

>  <SCORE>
-15.8367

>  <SCORE.INTER>
-12.4337

>  <SCORE.INTER.CONST>
1

>  <SCORE.INTER.POLAR>
0

>  <SCORE.INTER.ROT>
7

>  <SCORE.INTER.SOLV>
15.6249

>  <SCORE.INTER.VDW>
-21.7641

>  <SCORE.INTER.norm>
-0.460508

>  <SCORE.INTRA>
-3.40298

>  <SCORE.INTRA.DIHEDRAL>
-5.53999

>  <SCORE.INTRA.DIHEDRAL.0>
10.4103

>  <SCORE.INTRA.POLAR>
0

>  <SCORE.INTRA.POLAR.0>
0

>  <SCORE.INTRA.REPUL>
0

>  <SCORE.INTRA.REPUL.0>
0

>  <SCORE.INTRA.SOLV>
-0.510467

>  <SCORE.INTRA.SOLV.lig_0>
-49.5008

>  <SCORE.INTRA.VDW>
-0.377749

>  <SCORE.INTRA.VDW.0>
-2.6946

>  <SCORE.INTRA.norm>
-0.126036

>  <SCORE.RESTR>
0

>  <SCORE.RESTR.CAVITY>
0

>  <SCORE.RESTR.norm>
0

>  <SCORE.SYSTEM>
0

>  <SCORE.SYSTEM.CONST>
0

>  <SCORE.SYSTEM.DIHEDRAL>
0

>  <SCORE.SYSTEM.SOLV>
0

>  <SCORE.SYSTEM.norm>
0

>  <SCORE.heavy>
27

>  <SCORE.norm>
-0.586544

>  <RMSD>
12.939

$$$$
ligand
 OpenBabel02271912153D
libRbt.so/2013.1/901 2013/11/27
 27 29  0  0  0  0  0  0  0  0999 V2000
    5.0348  -18.1969    6.3790 N   0  0  0  0  0  0  0  0  0  0  0  0
    5.7055  -17.9508    7.6415 C   0  0  2  0  0  0  0  0  0  0  0  0
    6.1973  -19.2713    8.1492 C   0  0  0  0  0  0  0  0  0  0  0  0
    5.3699  -20.1135    8.5595 O   0  0  0  0  0  0  0  0  0  0  0  0
    4.7381  -17.3216    8.6477 C   0  0  0  0  0  0  0  0  0  0  0  0
    5.4535  -16.9559    9.9671 C   0  0  0  0  0  0  0  0  0  0  0  0
    4.5592  -16.0289   11.0423 S   0  0  2  0  0  0  0  0  0  0  0  0
    3.2103  -16.8769   11.5115 C   0  0  0  0  0  0  0  0  0  0  0  0
    4.1240  -14.5706   10.3125 C   0  0  0  0  0  0  0  0  0  0  0  0
    3.8737  -13.4188   11.3088 C   0  0  1  0  0  0  0  0  0  0  0  0
    3.8799  -12.1223   10.6884 O   0  0  0  0  0  0  0  0  0  0  0  0
    2.4948  -13.4563   11.9476 C   0  0  1  0  0  0  0  0  0  0  0  0
    2.2661  -14.4428   12.9739 O   0  0  0  0  0  0  0  0  0  0  0  0
    2.3771  -12.0325   12.4327 C   0  0  1  0  0  0  0  0  0  0  0  0
    3.2326  -11.8251   13.5526 O   0  0  0  0  0  0  0  0  0  0  0  0
    2.9050  -11.2509   11.2663 C   0  0  2  0  0  0  0  0  0  0  0  0
    7.4263  -19.5207    8.1246 O   0  0  0  0  0  0  0  0  0  0  0  0
    0.1644   -7.4912    8.6915 N   0  0  0  0  0  0  0  0  0  0  0  0
    1.1971   -7.3524    9.5579 C   0  0  0  0  0  0  0  0  0  0  0  0
    1.7979   -8.3998   10.1472 N   0  0  0  0  0  0  0  0  0  0  0  0
    1.4252   -9.6601    9.8978 C   0  0  0  0  0  0  0  0  0  0  0  0
    0.3355   -9.8759    8.9579 C   0  0  0  0  0  0  0  0  0  0  0  0
   -0.3329   -8.7145    8.3266 C   0  0  0  0  0  0  0  0  0  0  0  0
   -1.3740   -8.8561    7.4328 N   0  0  0  0  0  0  0  0  0  0  0  0
    0.1812  -11.1784    8.8836 N   0  0  0  0  0  0  0  0  0  0  0  0
    1.0616  -11.7676    9.7044 C   0  0  0  0  0  0  0  0  0  0  0  0
    1.8196  -10.8583   10.3162 N   0  0  0  0  0  0  0  0  0  0  0  0
  2  1  1  6  0  0  0
  2  3  1  0  0  0  0
  2  5  1  0  0  0  0
  3  4  1  0  0  0  0
  3 17  1  0  0  0  0
  5  6  1  0  0  0  0
  7  6  1  6  0  0  0
  7  8  1  0  0  0  0
  7  9  1  0  0  0  0
 10  9  1  6  0  0  0
 10 11  1  0  0  0  0
 10 12  1  0  0  0  0
 11 16  1  0  0  0  0
 12 13  1  1  0  0  0
 12 14  1  0  0  0  0
 14 15  1  1  0  0  0
 14 16  1  0  0  0  0
 16 27  1  6  0  0  0
 18 19  2  0  0  0  0
 18 23  1  0  0  0  0
 19 20  1  0  0  0  0
 20 21  2  0  0  0  0
 21 22  1  0  0  0  0
 21 27  1  0  0  0  0
 22 23  2  0  0  0  0
 22 25  1  0  0  0  0
 23 24  1  0  0  0  0
 25 26  2  0  0  0  0
 26 27  1  0  0  0  0
M  END
>  <CHROM.1>
-70.38562102,-175.90298888,170.10387723,62.05930702,-154.34675358,163.39689405
-121.65754714,3.07776637,-13.57282846,9.95963160,0.32028212,1.05716863,-1.85749377

>  <Name>
ligand

>  <RI>
0

>  <Rbt.Current_Directory>
/home/itssahil/PROJECTS/Mol_Feturizer/Test_systems_manuscript/rnas/4kqy

>  <Rbt.Executable>
rbdock ($Id: //depot/dev/client3/rdock/2013.1/src/exe/rbdock.cxx#4 $)

>  <Rbt.Library>
libRbt.so (2013.1, Build901 2013/11/27)

>  <Rbt.Parameter_File>
/export/apps/rDock/src/rDock_2013.1_src/data/scripts/dock_solv.prm

>  <Rbt.Receptor>
prm/blind_docking_80.prm

>  <SCORE>
-16.2655

>  <SCORE.INTER>
-14.7882

>  <SCORE.INTER.CONST>
1

>  <SCORE.INTER.POLAR>
0

>  <SCORE.INTER.ROT>
7

>  <SCORE.INTER.SOLV>
15.8721

>  <SCORE.INTER.VDW>
-23.4162

>  <SCORE.INTER.norm>
-0.547711

>  <SCORE.INTRA>
-1.47726

>  <SCORE.INTRA.DIHEDRAL>
-4.60164

>  <SCORE.INTRA.DIHEDRAL.0>
10.4103

>  <SCORE.INTRA.POLAR>
0

>  <SCORE.INTRA.POLAR.0>
0

>  <SCORE.INTRA.REPUL>
0

>  <SCORE.INTRA.REPUL.0>
0

>  <SCORE.INTRA.SOLV>
-0.380905

>  <SCORE.INTRA.SOLV.lig_0>
-49.5008

>  <SCORE.INTRA.VDW>
1.01401

>  <SCORE.INTRA.VDW.0>
-2.6946

>  <SCORE.INTRA.norm>
-0.0547134

>  <SCORE.RESTR>
0

>  <SCORE.RESTR.CAVITY>
0

>  <SCORE.RESTR.norm>
0

>  <SCORE.SYSTEM>
0

>  <SCORE.SYSTEM.CONST>
0

>  <SCORE.SYSTEM.DIHEDRAL>
0

>  <SCORE.SYSTEM.SOLV>
0

>  <SCORE.SYSTEM.norm>
0

>  <SCORE.heavy>
27

>  <SCORE.norm>
-0.602425

>  <RMSD>
12.943

$$$$
ligand
 OpenBabel02271912153D
libRbt.so/2013.1/901 2013/11/27
 27 29  0  0  0  0  0  0  0  0999 V2000
    6.9229  -17.0678    6.2704 N   0  0  0  0  0  0  0  0  0  0  0  0
    6.5375  -17.6529    7.5406 C   0  0  2  0  0  0  0  0  0  0  0  0
    6.8839  -19.1089    7.4836 C   0  0  0  0  0  0  0  0  0  0  0  0
    6.2397  -19.8597    6.7195 O   0  0  0  0  0  0  0  0  0  0  0  0
    5.0358  -17.4730    7.7790 C   0  0  0  0  0  0  0  0  0  0  0  0
    4.6137  -18.0171    9.1619 C   0  0  0  0  0  0  0  0  0  0  0  0
    4.9241  -17.0046   10.4633 S   0  0  2  0  0  0  0  0  0  0  0  0
    4.5125  -17.7785   11.8741 C   0  0  0  0  0  0  0  0  0  0  0  0
    4.0498  -15.5712   10.2916 C   0  0  0  0  0  0  0  0  0  0  0  0
    4.1845  -14.6052   11.4876 C   0  0  1  0  0  0  0  0  0  0  0  0
    4.7356  -13.3283   11.1247 O   0  0  0  0  0  0  0  0  0  0  0  0
    2.8519  -14.2102   12.1033 C   0  0  1  0  0  0  0  0  0  0  0  0
    2.1836  -15.1903   12.9228 O   0  0  0  0  0  0  0  0  0  0  0  0
    3.2523  -12.9616   12.8495 C   0  0  1  0  0  0  0  0  0  0  0  0
    4.0327  -13.3032   13.9911 O   0  0  0  0  0  0  0  0  0  0  0  0
    4.1282  -12.2595   11.8544 C   0  0  2  0  0  0  0  0  0  0  0  0
    7.8334  -19.5430    8.1787 O   0  0  0  0  0  0  0  0  0  0  0  0
    0.3191   -8.5913   11.2959 N   0  0  0  0  0  0  0  0  0  0  0  0
    0.7148   -9.2478   12.4135 C   0  0  0  0  0  0  0  0  0  0  0  0
    1.6964  -10.1652   12.4090 N   0  0  0  0  0  0  0  0  0  0  0  0
    2.3669  -10.4769   11.2942 C   0  0  0  0  0  0  0  0  0  0  0  0
    2.0033   -9.7890   10.0646 C   0  0  0  0  0  0  0  0  0  0  0  0
    0.9077   -8.7921   10.0752 C   0  0  0  0  0  0  0  0  0  0  0  0
    0.5152   -8.1124    8.9409 N   0  0  0  0  0  0  0  0  0  0  0  0
    2.8085  -10.2612    9.1401 N   0  0  0  0  0  0  0  0  0  0  0  0
    3.6099  -11.1828    9.6918 C   0  0  0  0  0  0  0  0  0  0  0  0
    3.3533  -11.3150   10.9926 N   0  0  0  0  0  0  0  0  0  0  0  0
  2  1  1  6  0  0  0
  2  3  1  0  0  0  0
  2  5  1  0  0  0  0
  3  4  1  0  0  0  0
  3 17  1  0  0  0  0
  5  6  1  0  0  0  0
  7  6  1  6  0  0  0
  7  8  1  0  0  0  0
  7  9  1  0  0  0  0
 10  9  1  6  0  0  0
 10 11  1  0  0  0  0
 10 12  1  0  0  0  0
 11 16  1  0  0  0  0
 12 13  1  1  0  0  0
 12 14  1  0  0  0  0
 14 15  1  1  0  0  0
 14 16  1  0  0  0  0
 16 27  1  6  0  0  0
 18 19  2  0  0  0  0
 18 23  1  0  0  0  0
 19 20  1  0  0  0  0
 20 21  2  0  0  0  0
 21 22  1  0  0  0  0
 21 27  1  0  0  0  0
 22 23  2  0  0  0  0
 22 25  1  0  0  0  0
 23 24  1  0  0  0  0
 25 26  2  0  0  0  0
 26 27  1  0  0  0  0
M  END
>  <CHROM.1>
-68.81933878,-176.78364035,79.88178839,-176.02346034,175.90122244,120.10819054
157.60156483,3.86245483,-14.09703110,10.32310855,-0.12845008,1.10727266,-1.10799781

>  <Name>
ligand

>  <RI>
0

>  <Rbt.Current_Directory>
/home/itssahil/PROJECTS/Mol_Feturizer/Test_systems_manuscript/rnas/4kqy

>  <Rbt.Executable>
rbdock ($Id: //depot/dev/client3/rdock/2013.1/src/exe/rbdock.cxx#4 $)

>  <Rbt.Library>
libRbt.so (2013.1, Build901 2013/11/27)

>  <Rbt.Parameter_File>
/export/apps/rDock/src/rDock_2013.1_src/data/scripts/dock_solv.prm

>  <Rbt.Receptor>
prm/blind_docking_40.prm

>  <SCORE>
-14.3185

>  <SCORE.INTER>
-13.8857

>  <SCORE.INTER.CONST>
1

>  <SCORE.INTER.POLAR>
0

>  <SCORE.INTER.ROT>
7

>  <SCORE.INTER.SOLV>
17.3782

>  <SCORE.INTER.VDW>
-23.3165

>  <SCORE.INTER.norm>
-0.514284

>  <SCORE.INTRA>
-0.432794

>  <SCORE.INTRA.DIHEDRAL>
-1.08236

>  <SCORE.INTRA.DIHEDRAL.0>
10.4103

>  <SCORE.INTRA.POLAR>
0

>  <SCORE.INTRA.POLAR.0>
0

>  <SCORE.INTRA.REPUL>
0

>  <SCORE.INTRA.REPUL.0>
0

>  <SCORE.INTRA.SOLV>
-0.502302

>  <SCORE.INTRA.SOLV.lig_0>
-49.5008

>  <SCORE.INTRA.VDW>
0.359535

>  <SCORE.INTRA.VDW.0>
-2.6946

>  <SCORE.INTRA.norm>
-0.0160294

>  <SCORE.RESTR>
0

>  <SCORE.RESTR.CAVITY>
0

>  <SCORE.RESTR.norm>
0

>  <SCORE.SYSTEM>
0

>  <SCORE.SYSTEM.CONST>
0

>  <SCORE.SYSTEM.DIHEDRAL>
0

>  <SCORE.SYSTEM.SOLV>
0

>  <SCORE.SYSTEM.norm>
0

>  <SCORE.heavy>
27

>  <SCORE.norm>
-0.530313

>  <RMSD>
12.963

$$$$
ligand
 OpenBabel02271912153D
libRbt.so/2013.1/901 2013/11/27
 27 29  0  0  0  0  0  0  0  0999 V2000
  -14.0972   -5.2366   19.2891 N   0  0  0  0  0  0  0  0  0  0  0  0
  -14.7140   -5.1916   20.6012 C   0  0  2  0  0  0  0  0  0  0  0  0
  -13.9174   -4.2361   21.4352 C   0  0  0  0  0  0  0  0  0  0  0  0
  -12.8385   -4.6180   21.9375 O   0  0  0  0  0  0  0  0  0  0  0  0
  -14.7139   -6.5827   21.2406 C   0  0  0  0  0  0  0  0  0  0  0  0
  -15.6143   -7.5645   20.4584 C   0  0  0  0  0  0  0  0  0  0  0  0
  -17.2382   -7.5497   20.8799 S   0  0  2  0  0  0  0  0  0  0  0  0
  -17.7894   -5.9830   20.8951 C   0  0  0  0  0  0  0  0  0  0  0  0
  -17.4408   -8.2687   22.3934 C   0  0  0  0  0  0  0  0  0  0  0  0
  -17.2672   -9.8022   22.3896 C   0  0  1  0  0  0  0  0  0  0  0  0
  -15.8918  -10.2164   22.4390 O   0  0  0  0  0  0  0  0  0  0  0  0
  -17.8461  -10.4828   23.6195 C   0  0  1  0  0  0  0  0  0  0  0  0
  -19.2804  -10.6085   23.6944 O   0  0  0  0  0  0  0  0  0  0  0  0
  -17.1195  -11.8041   23.5709 C   0  0  1  0  0  0  0  0  0  0  0  0
  -17.6273  -12.6026   22.5062 O   0  0  0  0  0  0  0  0  0  0  0  0
  -15.7169  -11.3876   23.2398 C   0  0  2  0  0  0  0  0  0  0  0  0
  -14.3304   -3.0617   21.5890 O   0  0  0  0  0  0  0  0  0  0  0  0
  -14.1521   -8.2075   27.2039 N   0  0  0  0  0  0  0  0  0  0  0  0
  -15.0271   -7.9538   26.2007 C   0  0  0  0  0  0  0  0  0  0  0  0
  -15.3274   -8.8565   25.2519 N   0  0  0  0  0  0  0  0  0  0  0  0
  -14.7927  -10.0826   25.2488 C   0  0  0  0  0  0  0  0  0  0  0  0
  -13.8619  -10.4235   26.3141 C   0  0  0  0  0  0  0  0  0  0  0  0
  -13.5229   -9.4161   27.3457 C   0  0  0  0  0  0  0  0  0  0  0  0
  -12.6441   -9.6793   28.3759 N   0  0  0  0  0  0  0  0  0  0  0  0
  -13.5013  -11.6665   26.0885 N   0  0  0  0  0  0  0  0  0  0  0  0
  -14.1114  -12.1008   24.9771 C   0  0  0  0  0  0  0  0  0  0  0  0
  -14.8966  -11.1526   24.4674 N   0  0  0  0  0  0  0  0  0  0  0  0
  2  1  1  6  0  0  0
  2  3  1  0  0  0  0
  2  5  1  0  0  0  0
  3  4  1  0  0  0  0
  3 17  1  0  0  0  0
  5  6  1  0  0  0  0
  7  6  1  1  0  0  0
  7  8  1  0  0  0  0
  7  9  1  0  0  0  0
 10  9  1  1  0  0  0
 10 11  1  0  0  0  0
 10 12  1  0  0  0  0
 11 16  1  0  0  0  0
 12 13  1  6  0  0  0
 12 14  1  0  0  0  0
 14 15  1  6  0  0  0
 14 16  1  0  0  0  0
 16 27  1  1  0  0  0
 18 19  2  0  0  0  0
 18 23  1  0  0  0  0
 19 20  1  0  0  0  0
 20 21  2  0  0  0  0
 21 22  1  0  0  0  0
 21 27  1  0  0  0  0
 22 23  2  0  0  0  0
 22 25  1  0  0  0  0
 23 24  1  0  0  0  0
 25 26  2  0  0  0  0
 26 27  1  0  0  0  0
M  END
>  <CHROM.1>
-79.05654262,-65.77026380,-85.83665875,49.40680734,-72.67906391,81.65676180
33.39766088,-15.51021539,-8.59798335,23.27055347,-1.57770634,0.75323659,2.44643925

>  <Name>
ligand

>  <RI>
0

>  <Rbt.Current_Directory>
/home/itssahil/PROJECTS/Mol_Feturizer/Test_systems_manuscript/rnas/4kqy

>  <Rbt.Executable>
rbdock ($Id: //depot/dev/client3/rdock/2013.1/src/exe/rbdock.cxx#4 $)

>  <Rbt.Library>
libRbt.so (2013.1, Build901 2013/11/27)

>  <Rbt.Parameter_File>
/export/apps/rDock/src/rDock_2013.1_src/data/scripts/dock_solv.prm

>  <Rbt.Receptor>
prm/blind_docking_60.prm

>  <SCORE>
-4.78834

>  <SCORE.INTER>
-3.95605

>  <SCORE.INTER.CONST>
1

>  <SCORE.INTER.POLAR>
0

>  <SCORE.INTER.ROT>
7

>  <SCORE.INTER.SOLV>
10.1185

>  <SCORE.INTER.VDW>
-14.2769

>  <SCORE.INTER.norm>
-0.14652

>  <SCORE.INTRA>
-0.834584

>  <SCORE.INTRA.DIHEDRAL>
-3.03406

>  <SCORE.INTRA.DIHEDRAL.0>
10.4103

>  <SCORE.INTRA.POLAR>
0

>  <SCORE.INTRA.POLAR.0>
0

>  <SCORE.INTRA.REPUL>
0

>  <SCORE.INTRA.REPUL.0>
0

>  <SCORE.INTRA.SOLV>
0.883675

>  <SCORE.INTRA.SOLV.lig_0>
-49.5008

>  <SCORE.INTRA.VDW>
0.240608

>  <SCORE.INTRA.VDW.0>
-2.6946

>  <SCORE.INTRA.norm>
-0.0309105

>  <SCORE.RESTR>
0.00229496

>  <SCORE.RESTR.CAVITY>
0.00229496

>  <SCORE.RESTR.norm>
8.49984e-05

>  <SCORE.SYSTEM>
0

>  <SCORE.SYSTEM.CONST>
0

>  <SCORE.SYSTEM.DIHEDRAL>
0

>  <SCORE.SYSTEM.SOLV>
0

>  <SCORE.SYSTEM.norm>
0

>  <SCORE.heavy>
27

>  <SCORE.norm>
-0.177346

>  <RMSD>
12.977

$$$$
ligand
 OpenBabel02271912153D
libRbt.so/2013.1/901 2013/11/27
 27 29  0  0  0  0  0  0  0  0999 V2000
    0.2339  -11.1598   12.8914 N   0  0  0  0  0  0  0  0  0  0  0  0
   -0.0483  -11.6534   11.5569 C   0  0  2  0  0  0  0  0  0  0  0  0
    1.2434  -11.6509   10.7988 C   0  0  0  0  0  0  0  0  0  0  0  0
    1.3269  -12.3001    9.7340 O   0  0  0  0  0  0  0  0  0  0  0  0
   -1.0749  -10.7560   10.8604 C   0  0  0  0  0  0  0  0  0  0  0  0
   -0.5512   -9.3107   10.7077 C   0  0  0  0  0  0  0  0  0  0  0  0
    0.4581   -9.0418    9.3946 S   0  0  2  0  0  0  0  0  0  0  0  0
    1.0744   -7.5017    9.4796 C   0  0  0  0  0  0  0  0  0  0  0  0
   -0.4026   -9.2622    7.9596 C   0  0  0  0  0  0  0  0  0  0  0  0
   -1.8182   -8.6477    7.9745 C   0  0  1  0  0  0  0  0  0  0  0  0
   -1.8500   -7.3119    8.5041 O   0  0  0  0  0  0  0  0  0  0  0  0
   -2.4105   -8.4516    6.5883 C   0  0  1  0  0  0  0  0  0  0  0  0
   -2.8871   -9.6248    5.8989 O   0  0  0  0  0  0  0  0  0  0  0  0
   -3.4892   -7.4408    6.8900 C   0  0  1  0  0  0  0  0  0  0  0  0
   -4.5571   -8.0621    7.5990 O   0  0  0  0  0  0  0  0  0  0  0  0
   -2.7866   -6.4856    7.8087 C   0  0  2  0  0  0  0  0  0  0  0  0
    2.2074  -10.9731   11.2283 O   0  0  0  0  0  0  0  0  0  0  0  0
    1.3665   -3.2693    6.9819 N   0  0  0  0  0  0  0  0  0  0  0  0
    1.2306   -4.2741    7.8811 C   0  0  0  0  0  0  0  0  0  0  0  0
    0.1107   -5.0088    7.9870 N   0  0  0  0  0  0  0  0  0  0  0  0
   -0.9443   -4.8074    7.1896 C   0  0  0  0  0  0  0  0  0  0  0  0
   -0.8513   -3.7565    6.1875 C   0  0  0  0  0  0  0  0  0  0  0  0
    0.3805   -2.9395    6.0898 C   0  0  0  0  0  0  0  0  0  0  0  0
    0.5249   -1.9270    5.1643 N   0  0  0  0  0  0  0  0  0  0  0  0
   -1.9951   -3.7772    5.5416 N   0  0  0  0  0  0  0  0  0  0  0  0
   -2.7764   -4.7279    6.0723 C   0  0  0  0  0  0  0  0  0  0  0  0
   -2.1475   -5.3578    7.0639 N   0  0  0  0  0  0  0  0  0  0  0  0
  2  1  1  1  0  0  0
  2  3  1  0  0  0  0
  2  5  1  0  0  0  0
  3  4  1  0  0  0  0
  3 17  1  0  0  0  0
  5  6  1  0  0  0  0
  7  6  1  1  0  0  0
  7  8  1  0  0  0  0
  7  9  1  0  0  0  0
 10  9  1  6  0  0  0
 10 11  1  0  0  0  0
 10 12  1  0  0  0  0
 11 16  1  0  0  0  0
 12 13  1  1  0  0  0
 12 14  1  0  0  0  0
 14 15  1  1  0  0  0
 14 16  1  0  0  0  0
 16 27  1  6  0  0  0
 18 19  2  0  0  0  0
 18 23  1  0  0  0  0
 19 20  1  0  0  0  0
 20 21  2  0  0  0  0
 21 22  1  0  0  0  0
 21 27  1  0  0  0  0
 22 23  2  0  0  0  0
 22 25  1  0  0  0  0
 23 24  1  0  0  0  0
 25 26  2  0  0  0  0
 26 27  1  0  0  0  0
M  END
>  <CHROM.1>
164.32359453,61.11156120,82.38841867,-173.18922987,42.56131364,45.91650300
-18.44114247,-0.70316682,-7.57084003,8.31757642,-1.39266576,-0.45498017,-0.48798476

>  <Name>
ligand

>  <RI>
0

>  <Rbt.Current_Directory>
/home/itssahil/PROJECTS/Mol_Feturizer/Test_systems_manuscript/rnas/4kqy

>  <Rbt.Executable>
rbdock ($Id: //depot/dev/client3/rdock/2013.1/src/exe/rbdock.cxx#4 $)

>  <Rbt.Library>
libRbt.so (2013.1, Build901 2013/11/27)

>  <Rbt.Parameter_File>
/export/apps/rDock/src/rDock_2013.1_src/data/scripts/dock_solv.prm

>  <Rbt.Receptor>
prm/blind_docking_60.prm

>  <SCORE>
-17.8705

>  <SCORE.INTER>
-16.2477

>  <SCORE.INTER.CONST>
1

>  <SCORE.INTER.POLAR>
0

>  <SCORE.INTER.ROT>
7

>  <SCORE.INTER.SOLV>
11.8594

>  <SCORE.INTER.VDW>
-23.0516

>  <SCORE.INTER.norm>
-0.601766

>  <SCORE.INTRA>
-1.62283

>  <SCORE.INTRA.DIHEDRAL>
-4.29021

>  <SCORE.INTRA.DIHEDRAL.0>
10.4103

>  <SCORE.INTRA.POLAR>
0

>  <SCORE.INTRA.POLAR.0>
0

>  <SCORE.INTRA.REPUL>
0

>  <SCORE.INTRA.REPUL.0>
0

>  <SCORE.INTRA.SOLV>
0.714618

>  <SCORE.INTRA.SOLV.lig_0>
-49.5008

>  <SCORE.INTRA.VDW>
0.164961

>  <SCORE.INTRA.VDW.0>
-2.6946

>  <SCORE.INTRA.norm>
-0.060105

>  <SCORE.RESTR>
0

>  <SCORE.RESTR.CAVITY>
0

>  <SCORE.RESTR.norm>
0

>  <SCORE.SYSTEM>
0

>  <SCORE.SYSTEM.CONST>
0

>  <SCORE.SYSTEM.DIHEDRAL>
0

>  <SCORE.SYSTEM.SOLV>
0

>  <SCORE.SYSTEM.norm>
0

>  <SCORE.heavy>
27

>  <SCORE.norm>
-0.661871

>  <RMSD>
13.015

$$$$
ligand
 OpenBabel02271912153D
libRbt.so/2013.1/901 2013/11/27
 27 29  0  0  0  0  0  0  0  0999 V2000
    6.6165  -18.4264    7.2302 N   0  0  0  0  0  0  0  0  0  0  0  0
    5.1732  -18.3991    7.3723 C   0  0  2  0  0  0  0  0  0  0  0  0
    4.5978  -18.1151    6.0190 C   0  0  0  0  0  0  0  0  0  0  0  0
    4.6134  -16.9437    5.5832 O   0  0  0  0  0  0  0  0  0  0  0  0
    4.7537  -17.3132    8.3667 C   0  0  0  0  0  0  0  0  0  0  0  0
    5.0835  -17.7196    9.8201 C   0  0  0  0  0  0  0  0  0  0  0  0
    4.7661  -16.5560   10.9866 S   0  0  2  0  0  0  0  0  0  0  0  0
    5.4469  -17.0210   12.4284 C   0  0  0  0  0  0  0  0  0  0  0  0
    3.0986  -16.3538   11.1512 C   0  0  0  0  0  0  0  0  0  0  0  0
    2.6948  -15.1665   12.0506 C   0  0  1  0  0  0  0  0  0  0  0  0
    3.7259  -14.1727   12.1731 O   0  0  0  0  0  0  0  0  0  0  0  0
    1.5358  -14.3522   11.4987 C   0  0  1  0  0  0  0  0  0  0  0  0
    0.2162  -14.9246   11.5988 O   0  0  0  0  0  0  0  0  0  0  0  0
    1.7053  -13.0700   12.2754 C   0  0  1  0  0  0  0  0  0  0  0  0
    1.3266  -13.2676   13.6342 O   0  0  0  0  0  0  0  0  0  0  0  0
    3.1876  -12.8489   12.2111 C   0  0  2  0  0  0  0  0  0  0  0  0
    4.1398  -19.0610    5.3343 O   0  0  0  0  0  0  0  0  0  0  0  0
    2.4840   -8.5419    9.1729 N   0  0  0  0  0  0  0  0  0  0  0  0
    1.8009   -8.9280   10.2779 C   0  0  0  0  0  0  0  0  0  0  0  0
    2.0837  -10.0563   10.9505 N   0  0  0  0  0  0  0  0  0  0  0  0
    3.0810  -10.8676   10.5812 C   0  0  0  0  0  0  0  0  0  0  0  0
    3.8668  -10.4955    9.4144 C   0  0  0  0  0  0  0  0  0  0  0  0
    3.5364   -9.2592    8.6683 C   0  0  0  0  0  0  0  0  0  0  0  0
    4.2415   -8.8579    7.5527 N   0  0  0  0  0  0  0  0  0  0  0  0
    4.7730  -11.4370    9.2795 N   0  0  0  0  0  0  0  0  0  0  0  0
    4.5957  -12.3517   10.2428 C   0  0  0  0  0  0  0  0  0  0  0  0
    3.5800  -12.0126   11.0357 N   0  0  0  0  0  0  0  0  0  0  0  0
  2  1  1  6  0  0  0
  2  3  1  0  0  0  0
  2  5  1  0  0  0  0
  3  4  1  0  0  0  0
  3 17  1  0  0  0  0
  5  6  1  0  0  0  0
  7  6  1  6  0  0  0
  7  8  1  0  0  0  0
  7  9  1  0  0  0  0
 10  9  1  6  0  0  0
 10 11  1  0  0  0  0
 10 12  1  0  0  0  0
 11 16  1  0  0  0  0
 12 13  1  1  0  0  0
 12 14  1  0  0  0  0
 14 15  1  1  0  0  0
 14 16  1  0  0  0  0
 16 27  1  6  0  0  0
 18 19  2  0  0  0  0
 18 23  1  0  0  0  0
 19 20  1  0  0  0  0
 20 21  2  0  0  0  0
 21 22  1  0  0  0  0
 21 27  1  0  0  0  0
 22 23  2  0  0  0  0
 22 25  1  0  0  0  0
 23 24  1  0  0  0  0
 25 26  2  0  0  0  0
 26 27  1  0  0  0  0
M  END
>  <CHROM.1>
-77.94897605,-73.12124809,175.81744373,-168.77513916,-171.70305776,22.01082458
164.56813990,3.63152501,-14.17801293,9.94338490,-0.78291916,1.18827970,-0.41743569

>  <Name>
ligand

>  <RI>
0

>  <Rbt.Current_Directory>
/home/itssahil/PROJECTS/Mol_Feturizer/Test_systems_manuscript/rnas/4kqy

>  <Rbt.Executable>
rbdock ($Id: //depot/dev/client3/rdock/2013.1/src/exe/rbdock.cxx#4 $)

>  <Rbt.Library>
libRbt.so (2013.1, Build901 2013/11/27)

>  <Rbt.Parameter_File>
/export/apps/rDock/src/rDock_2013.1_src/data/scripts/dock_solv.prm

>  <Rbt.Receptor>
prm/blind_docking_80.prm

>  <SCORE>
-15.156

>  <SCORE.INTER>
-14.3726

>  <SCORE.INTER.CONST>
1

>  <SCORE.INTER.POLAR>
0

>  <SCORE.INTER.ROT>
7

>  <SCORE.INTER.SOLV>
14.7933

>  <SCORE.INTER.VDW>
-22.7795

>  <SCORE.INTER.norm>
-0.532318

>  <SCORE.INTRA>
-0.783407

>  <SCORE.INTRA.DIHEDRAL>
-2.9005

>  <SCORE.INTRA.DIHEDRAL.0>
10.4103

>  <SCORE.INTRA.POLAR>
0

>  <SCORE.INTRA.POLAR.0>
0

>  <SCORE.INTRA.REPUL>
0

>  <SCORE.INTRA.REPUL.0>
0

>  <SCORE.INTRA.SOLV>
0.00529298

>  <SCORE.INTRA.SOLV.lig_0>
-49.5008

>  <SCORE.INTRA.VDW>
0.664196

>  <SCORE.INTRA.VDW.0>
-2.6946

>  <SCORE.INTRA.norm>
-0.0290151

>  <SCORE.RESTR>
0

>  <SCORE.RESTR.CAVITY>
0

>  <SCORE.RESTR.norm>
0

>  <SCORE.SYSTEM>
0

>  <SCORE.SYSTEM.CONST>
0

>  <SCORE.SYSTEM.DIHEDRAL>
0

>  <SCORE.SYSTEM.SOLV>
0

>  <SCORE.SYSTEM.norm>
0

>  <SCORE.heavy>
27

>  <SCORE.norm>
-0.561333

>  <RMSD>
13.066

$$$$
ligand
 OpenBabel02271912153D
libRbt.so/2013.1/901 2013/11/27
 27 29  0  0  0  0  0  0  0  0999 V2000
    0.5605   -9.9091   10.6338 N   0  0  0  0  0  0  0  0  0  0  0  0
   -0.3318  -10.6628   11.4940 C   0  0  2  0  0  0  0  0  0  0  0  0
   -0.5540   -9.8463   12.7298 C   0  0  0  0  0  0  0  0  0  0  0  0
   -1.6951   -9.8081   13.2385 O   0  0  0  0  0  0  0  0  0  0  0  0
    0.2887  -12.0152   11.8551 C   0  0  0  0  0  0  0  0  0  0  0  0
   -0.7308  -12.9333   12.5653 C   0  0  0  0  0  0  0  0  0  0  0  0
   -0.1030  -14.3499   13.2089 S   0  0  2  0  0  0  0  0  0  0  0  0
    0.8542  -13.9845   14.5162 C   0  0  0  0  0  0  0  0  0  0  0  0
    0.7844  -15.1679   12.0291 C   0  0  0  0  0  0  0  0  0  0  0  0
    2.2909  -14.8327   12.0302 C   0  0  1  0  0  0  0  0  0  0  0  0
    3.1115  -15.9155   12.4994 O   0  0  0  0  0  0  0  0  0  0  0  0
    2.8596  -14.5843   10.6424 C   0  0  1  0  0  0  0  0  0  0  0  0
    2.5429  -13.3273   10.0113 O   0  0  0  0  0  0  0  0  0  0  0  0
    4.3317  -14.7795   10.9089 C   0  0  1  0  0  0  0  0  0  0  0  0
    4.8436  -13.6797   11.6556 O   0  0  0  0  0  0  0  0  0  0  0  0
    4.3418  -16.0030   11.7767 C   0  0  2  0  0  0  0  0  0  0  0  0
    0.4139   -9.2415   13.2499 O   0  0  0  0  0  0  0  0  0  0  0  0
    5.3193  -18.4454    7.1556 N   0  0  0  0  0  0  0  0  0  0  0  0
    5.3168  -17.1197    7.4366 C   0  0  0  0  0  0  0  0  0  0  0  0
    5.0423  -16.6361    8.6598 N   0  0  0  0  0  0  0  0  0  0  0  0
    4.7721  -17.4411    9.6934 C   0  0  0  0  0  0  0  0  0  0  0  0
    4.7817  -18.8774    9.4602 C   0  0  0  0  0  0  0  0  0  0  0  0
    5.0676  -19.4010    8.1044 C   0  0  0  0  0  0  0  0  0  0  0  0
    5.0856  -20.7510    7.8215 N   0  0  0  0  0  0  0  0  0  0  0  0
    4.5040  -19.4289   10.6198 N   0  0  0  0  0  0  0  0  0  0  0  0
    4.3086  -18.4607   11.5255 C   0  0  0  0  0  0  0  0  0  0  0  0
    4.4738  -17.2583   10.9756 N   0  0  0  0  0  0  0  0  0  0  0  0
  2  1  1  6  0  0  0
  2  3  1  0  0  0  0
  2  5  1  0  0  0  0
  3  4  1  0  0  0  0
  3 17  1  0  0  0  0
  5  6  1  0  0  0  0
  7  6  1  6  0  0  0
  7  8  1  0  0  0  0
  7  9  1  0  0  0  0
 10  9  1  6  0  0  0
 10 11  1  0  0  0  0
 10 12  1  0  0  0  0
 11 16  1  0  0  0  0
 12 13  1  1  0  0  0
 12 14  1  0  0  0  0
 14 15  1  1  0  0  0
 14 16  1  0  0  0  0
 16 27  1  6  0  0  0
 18 19  2  0  0  0  0
 18 23  1  0  0  0  0
 19 20  1  0  0  0  0
 20 21  2  0  0  0  0
 21 22  1  0  0  0  0
 21 27  1  0  0  0  0
 22 23  2  0  0  0  0
 22 25  1  0  0  0  0
 23 24  1  0  0  0  0
 25 26  2  0  0  0  0
 26 27  1  0  0  0  0
M  END
>  <CHROM.1>
140.37861866,-170.27720228,-171.31428267,69.91342933,92.96716877,109.23611315
128.14610314,2.48991624,-14.84897194,11.15378563,-2.61398596,-0.90530339
2.66532096

>  <Name>
ligand

>  <RI>
0

>  <Rbt.Current_Directory>
/home/itssahil/PROJECTS/Mol_Feturizer/Test_systems_manuscript/rnas/4kqy

>  <Rbt.Executable>
rbdock ($Id: //depot/dev/client3/rdock/2013.1/src/exe/rbdock.cxx#4 $)

>  <Rbt.Library>
libRbt.so (2013.1, Build901 2013/11/27)

>  <Rbt.Parameter_File>
/export/apps/rDock/src/rDock_2013.1_src/data/scripts/dock_solv.prm

>  <Rbt.Receptor>
prm/blind_docking_40.prm

>  <SCORE>
-16.1384

>  <SCORE.INTER>
-17.2717

>  <SCORE.INTER.CONST>
1

>  <SCORE.INTER.POLAR>
0

>  <SCORE.INTER.ROT>
7

>  <SCORE.INTER.SOLV>
11.9449

>  <SCORE.INTER.VDW>
-23.7627

>  <SCORE.INTER.norm>
-0.639691

>  <SCORE.INTRA>
1.13329

>  <SCORE.INTRA.DIHEDRAL>
0.663802

>  <SCORE.INTRA.DIHEDRAL.0>
10.4103

>  <SCORE.INTRA.POLAR>
0

>  <SCORE.INTRA.POLAR.0>
0

>  <SCORE.INTRA.REPUL>
0

>  <SCORE.INTRA.REPUL.0>
0

>  <SCORE.INTRA.SOLV>
-0.0729936

>  <SCORE.INTRA.SOLV.lig_0>
-49.5008

>  <SCORE.INTRA.VDW>
0.837886

>  <SCORE.INTRA.VDW.0>
-2.6946

>  <SCORE.INTRA.norm>
0.0419737

>  <SCORE.RESTR>
0

>  <SCORE.RESTR.CAVITY>
0

>  <SCORE.RESTR.norm>
0

>  <SCORE.SYSTEM>
0

>  <SCORE.SYSTEM.CONST>
0

>  <SCORE.SYSTEM.DIHEDRAL>
0

>  <SCORE.SYSTEM.SOLV>
0

>  <SCORE.SYSTEM.norm>
0

>  <SCORE.heavy>
27

>  <SCORE.norm>
-0.597717

>  <RMSD>
13.107

$$$$
ligand
 OpenBabel02271912153D
libRbt.so/2013.1/901 2013/11/27
 27 29  0  0  0  0  0  0  0  0999 V2000
    0.7141   -9.8990   10.6978 N   0  0  0  0  0  0  0  0  0  0  0  0
   -0.2375  -10.6395   11.5043 C   0  0  2  0  0  0  0  0  0  0  0  0
   -0.5885   -9.7805   12.6799 C   0  0  0  0  0  0  0  0  0  0  0  0
   -1.6888   -9.9458   13.2492 O   0  0  0  0  0  0  0  0  0  0  0  0
    0.3748  -11.9612   11.9759 C   0  0  0  0  0  0  0  0  0  0  0  0
   -0.7030  -12.9154   12.5366 C   0  0  0  0  0  0  0  0  0  0  0  0
   -0.1320  -14.3626   13.1648 S   0  0  2  0  0  0  0  0  0  0  0  0
    0.7963  -14.0527   14.5069 C   0  0  0  0  0  0  0  0  0  0  0  0
    0.7673  -15.1778   11.9921 C   0  0  0  0  0  0  0  0  0  0  0  0
    2.2731  -14.8401   12.0069 C   0  0  1  0  0  0  0  0  0  0  0  0
    3.0916  -15.9228   12.4799 O   0  0  0  0  0  0  0  0  0  0  0  0
    2.8531  -14.5867   10.6248 C   0  0  1  0  0  0  0  0  0  0  0  0
    2.5396  -13.3285    9.9945 O   0  0  0  0  0  0  0  0  0  0  0  0
    4.3233  -14.7802   10.9031 C   0  0  1  0  0  0  0  0  0  0  0  0
    4.8269  -13.6817   11.6573 O   0  0  0  0  0  0  0  0  0  0  0  0
    4.3281  -16.0062   11.7675 C   0  0  2  0  0  0  0  0  0  0  0  0
    0.2395   -8.9330   13.0915 O   0  0  0  0  0  0  0  0  0  0  0  0
    5.4631  -18.4401    7.1779 N   0  0  0  0  0  0  0  0  0  0  0  0
    5.4770  -17.1165    7.4685 C   0  0  0  0  0  0  0  0  0  0  0  0
    5.1572  -16.6347    8.6813 N   0  0  0  0  0  0  0  0  0  0  0  0
    4.8219  -17.4401    9.6954 C   0  0  0  0  0  0  0  0  0  0  0  0
    4.8104  -18.8747    9.4521 C   0  0  0  0  0  0  0  0  0  0  0  0
    5.1469  -19.3959    8.1070 C   0  0  0  0  0  0  0  0  0  0  0  0
    5.1479  -20.7441    7.8152 N   0  0  0  0  0  0  0  0  0  0  0  0
    4.4675  -19.4273   10.5936 N   0  0  0  0  0  0  0  0  0  0  0  0
    4.2521  -18.4609   11.4966 C   0  0  0  0  0  0  0  0  0  0  0  0
    4.4691  -17.2590   10.9639 N   0  0  0  0  0  0  0  0  0  0  0  0
  2  1  1  6  0  0  0
  2  3  1  0  0  0  0
  2  5  1  0  0  0  0
  3  4  1  0  0  0  0
  3 17  1  0  0  0  0
  5  6  1  0  0  0  0
  7  6  1  6  0  0  0
  7  8  1  0  0  0  0
  7  9  1  0  0  0  0
 10  9  1  6  0  0  0
 10 11  1  0  0  0  0
 10 12  1  0  0  0  0
 11 16  1  0  0  0  0
 12 13  1  1  0  0  0
 12 14  1  0  0  0  0
 14 15  1  1  0  0  0
 14 16  1  0  0  0  0
 16 27  1  6  0  0  0
 18 19  2  0  0  0  0
 18 23  1  0  0  0  0
 19 20  1  0  0  0  0
 20 21  2  0  0  0  0
 21 22  1  0  0  0  0
 21 27  1  0  0  0  0
 22 23  2  0  0  0  0
 22 25  1  0  0  0  0
 23 24  1  0  0  0  0
 25 26  2  0  0  0  0
 26 27  1  0  0  0  0
M  END
>  <CHROM.1>
154.66078194,-166.22139842,-176.63229185,65.35076161,90.61794761,109.34319358
130.70919311,2.50439537,-14.84024882,11.14351707,-2.55808417,-0.87319134
2.73512498

>  <Name>
ligand

>  <RI>
0

>  <Rbt.Current_Directory>
/home/itssahil/PROJECTS/Mol_Feturizer/Test_systems_manuscript/rnas/4kqy

>  <Rbt.Executable>
rbdock ($Id: //depot/dev/client3/rdock/2013.1/src/exe/rbdock.cxx#4 $)

>  <Rbt.Library>
libRbt.so (2013.1, Build901 2013/11/27)

>  <Rbt.Parameter_File>
/export/apps/rDock/src/rDock_2013.1_src/data/scripts/dock_solv.prm

>  <Rbt.Receptor>
prm/blind_docking_100.prm

>  <SCORE>
-16.4002

>  <SCORE.INTER>
-17.3924

>  <SCORE.INTER.CONST>
1

>  <SCORE.INTER.POLAR>
0

>  <SCORE.INTER.ROT>
7

>  <SCORE.INTER.SOLV>
12.2205

>  <SCORE.INTER.VDW>
-23.9351

>  <SCORE.INTER.norm>
-0.644163

>  <SCORE.INTRA>
0.99213

>  <SCORE.INTRA.DIHEDRAL>
0.288955

>  <SCORE.INTRA.DIHEDRAL.0>
10.4103

>  <SCORE.INTRA.POLAR>
0

>  <SCORE.INTRA.POLAR.0>
0

>  <SCORE.INTRA.REPUL>
0

>  <SCORE.INTRA.REPUL.0>
0

>  <SCORE.INTRA.SOLV>
-0.0152472

>  <SCORE.INTRA.SOLV.lig_0>
-49.5008

>  <SCORE.INTRA.VDW>
0.855276

>  <SCORE.INTRA.VDW.0>
-2.6946

>  <SCORE.INTRA.norm>
0.0367455

>  <SCORE.RESTR>
0.000104991

>  <SCORE.RESTR.CAVITY>
0.000104991

>  <SCORE.RESTR.norm>
3.88857e-06

>  <SCORE.SYSTEM>
0

>  <SCORE.SYSTEM.CONST>
0

>  <SCORE.SYSTEM.DIHEDRAL>
0

>  <SCORE.SYSTEM.SOLV>
0

>  <SCORE.SYSTEM.norm>
0

>  <SCORE.heavy>
27

>  <SCORE.norm>
-0.607413

>  <RMSD>
13.121

$$$$
ligand
 OpenBabel02271912153D
libRbt.so/2013.1/901 2013/11/27
 27 29  0  0  0  0  0  0  0  0999 V2000
    6.8355   -7.3252   10.6301 N   0  0  0  0  0  0  0  0  0  0  0  0
    7.3558   -7.5998    9.3041 C   0  0  2  0  0  0  0  0  0  0  0  0
    7.6725   -6.2814    8.6682 C   0  0  0  0  0  0  0  0  0  0  0  0
    7.8051   -6.2191    7.4269 O   0  0  0  0  0  0  0  0  0  0  0  0
    6.3199   -8.3573    8.4691 C   0  0  0  0  0  0  0  0  0  0  0  0
    6.0127   -9.7456    9.0730 C   0  0  0  0  0  0  0  0  0  0  0  0
    5.0972  -10.7681    8.1078 S   0  0  2  0  0  0  0  0  0  0  0  0
    5.9183  -11.0762    6.6973 C   0  0  0  0  0  0  0  0  0  0  0  0
    3.6005  -10.0582    7.7846 C   0  0  0  0  0  0  0  0  0  0  0  0
    2.7508   -9.7814    9.0428 C   0  0  1  0  0  0  0  0  0  0  0  0
    2.6905   -8.3880    9.3900 O   0  0  0  0  0  0  0  0  0  0  0  0
    1.2806  -10.1280    8.8721 C   0  0  1  0  0  0  0  0  0  0  0  0
    0.9217  -11.5242    8.8920 O   0  0  0  0  0  0  0  0  0  0  0  0
    0.6759   -9.3264    9.9982 C   0  0  1  0  0  0  0  0  0  0  0  0
    0.9929   -9.9264   11.2506 O   0  0  0  0  0  0  0  0  0  0  0  0
    1.4024   -8.0186    9.8880 C   0  0  2  0  0  0  0  0  0  0  0  0
    7.7680   -5.2584    9.3877 O   0  0  0  0  0  0  0  0  0  0  0  0
   -2.8546   -6.7070    6.9839 N   0  0  0  0  0  0  0  0  0  0  0  0
   -2.6207   -7.8376    7.6935 C   0  0  0  0  0  0  0  0  0  0  0  0
   -1.4856   -8.0419    8.3828 N   0  0  0  0  0  0  0  0  0  0  0  0
   -0.5132   -7.1246    8.4304 C   0  0  0  0  0  0  0  0  0  0  0  0
   -0.7148   -5.8786    7.7063 C   0  0  0  0  0  0  0  0  0  0  0  0
   -1.9615   -5.6693    6.9344 C   0  0  0  0  0  0  0  0  0  0  0  0
   -2.2065   -4.5121    6.2246 N   0  0  0  0  0  0  0  0  0  0  0  0
    0.3634   -5.1605    7.9249 N   0  0  0  0  0  0  0  0  0  0  0  0
    1.2044   -5.8634    8.6961 C   0  0  0  0  0  0  0  0  0  0  0  0
    0.6804   -7.0477    9.0099 N   0  0  0  0  0  0  0  0  0  0  0  0
  2  1  1  1  0  0  0
  2  3  1  0  0  0  0
  2  5  1  0  0  0  0
  3  4  1  0  0  0  0
  3 17  1  0  0  0  0
  5  6  1  0  0  0  0
  7  6  1  1  0  0  0
  7  8  1  0  0  0  0
  7  9  1  0  0  0  0
 10  9  1  6  0  0  0
 10 11  1  0  0  0  0
 10 12  1  0  0  0  0
 11 16  1  0  0  0  0
 12 13  1  1  0  0  0
 12 14  1  0  0  0  0
 14 15  1  1  0  0  0
 14 16  1  0  0  0  0
 16 27  1  6  0  0  0
 18 19  2  0  0  0  0
 18 23  1  0  0  0  0
 19 20  1  0  0  0  0
 20 21  2  0  0  0  0
 21 22  1  0  0  0  0
 21 27  1  0  0  0  0
 22 23  2  0  0  0  0
 22 25  1  0  0  0  0
 23 24  1  0  0  0  0
 25 26  2  0  0  0  0
 26 27  1  0  0  0  0
M  END
>  <CHROM.1>
-161.71012086,-63.69014686,-169.88375784,61.45473622,-61.08784978,106.48661807
123.38287222,2.63730281,-8.09333565,8.54890114,-0.17475835,-0.06935148,-0.15855830

>  <Name>
ligand

>  <RI>
0

>  <Rbt.Current_Directory>
/home/itssahil/PROJECTS/Mol_Feturizer/Test_systems_manuscript/rnas/4kqy

>  <Rbt.Executable>
rbdock ($Id: //depot/dev/client3/rdock/2013.1/src/exe/rbdock.cxx#4 $)

>  <Rbt.Library>
libRbt.so (2013.1, Build901 2013/11/27)

>  <Rbt.Parameter_File>
/export/apps/rDock/src/rDock_2013.1_src/data/scripts/dock_solv.prm

>  <Rbt.Receptor>
prm/blind_docking_20.prm

>  <SCORE>
-17.3307

>  <SCORE.INTER>
-17.1563

>  <SCORE.INTER.CONST>
1

>  <SCORE.INTER.POLAR>
0

>  <SCORE.INTER.ROT>
7

>  <SCORE.INTER.SOLV>
13.742

>  <SCORE.INTER.VDW>
-24.2849

>  <SCORE.INTER.norm>
-0.635419

>  <SCORE.INTRA>
-0.174391

>  <SCORE.INTRA.DIHEDRAL>
-2.64842

>  <SCORE.INTRA.DIHEDRAL.0>
10.4103

>  <SCORE.INTRA.POLAR>
0

>  <SCORE.INTRA.POLAR.0>
0

>  <SCORE.INTRA.REPUL>
0

>  <SCORE.INTRA.REPUL.0>
0

>  <SCORE.INTRA.SOLV>
0.0643806

>  <SCORE.INTRA.SOLV.lig_0>
-49.5008

>  <SCORE.INTRA.VDW>
1.11763

>  <SCORE.INTRA.VDW.0>
-2.6946

>  <SCORE.INTRA.norm>
-0.00645894

>  <SCORE.RESTR>
0

>  <SCORE.RESTR.CAVITY>
0

>  <SCORE.RESTR.norm>
0

>  <SCORE.SYSTEM>
0

>  <SCORE.SYSTEM.CONST>
0

>  <SCORE.SYSTEM.DIHEDRAL>
0

>  <SCORE.SYSTEM.SOLV>
0

>  <SCORE.SYSTEM.norm>
0

>  <SCORE.heavy>
27

>  <SCORE.norm>
-0.641878

>  <RMSD>
13.130

$$$$
ligand
 OpenBabel02271912153D
libRbt.so/2013.1/901 2013/11/27
 27 29  0  0  0  0  0  0  0  0999 V2000
    5.6383  -19.5510    6.4884 N   0  0  0  0  0  0  0  0  0  0  0  0
    5.6101  -18.1108    6.3170 C   0  0  2  0  0  0  0  0  0  0  0  0
    7.0183  -17.6639    6.0712 C   0  0  0  0  0  0  0  0  0  0  0  0
    7.3230  -16.4687    6.2736 O   0  0  0  0  0  0  0  0  0  0  0  0
    5.0487  -17.4336    7.5702 C   0  0  0  0  0  0  0  0  0  0  0  0
    5.9837  -17.6275    8.7845 C   0  0  0  0  0  0  0  0  0  0  0  0
    5.4332  -16.9818   10.2320 S   0  0  2  0  0  0  0  0  0  0  0  0
    4.2557  -17.9686   10.8632 C   0  0  0  0  0  0  0  0  0  0  0  0
    4.8319  -15.4267    9.9704 C   0  0  0  0  0  0  0  0  0  0  0  0
    4.3339  -14.7214   11.2496 C   0  0  1  0  0  0  0  0  0  0  0  0
    4.5387  -13.2989   11.2281 O   0  0  0  0  0  0  0  0  0  0  0  0
    2.8306  -14.8207   11.4527 C   0  0  1  0  0  0  0  0  0  0  0  0
    2.3042  -16.0859   11.9010 O   0  0  0  0  0  0  0  0  0  0  0  0
    2.6085  -13.6884   12.4247 C   0  0  1  0  0  0  0  0  0  0  0  0
    3.1189  -14.0381   13.7077 O   0  0  0  0  0  0  0  0  0  0  0  0
    3.4575  -12.5960   11.8450 C   0  0  2  0  0  0  0  0  0  0  0  0
    7.8733  -18.5020    5.6975 O   0  0  0  0  0  0  0  0  0  0  0  0
   -1.1772  -10.7504   10.0040 N   0  0  0  0  0  0  0  0  0  0  0  0
   -0.9472  -11.6291   11.0098 C   0  0  0  0  0  0  0  0  0  0  0  0
    0.2882  -12.0172   11.3682 N   0  0  0  0  0  0  0  0  0  0  0  0
    1.3818  -11.5404   10.7631 C   0  0  0  0  0  0  0  0  0  0  0  0
    1.2013  -10.5753    9.6891 C   0  0  0  0  0  0  0  0  0  0  0  0
   -0.1651  -10.1667    9.2887 C   0  0  0  0  0  0  0  0  0  0  0  0
   -0.3989   -9.2605    8.2753 N   0  0  0  0  0  0  0  0  0  0  0  0
    2.4110  -10.2631    9.2829 N   0  0  0  0  0  0  0  0  0  0  0  0
    3.3031  -10.9633    9.9971 C   0  0  0  0  0  0  0  0  0  0  0  0
    2.6902  -11.7324   10.8961 N   0  0  0  0  0  0  0  0  0  0  0  0
  2  1  1  1  0  0  0
  2  3  1  0  0  0  0
  2  5  1  0  0  0  0
  3  4  1  0  0  0  0
  3 17  1  0  0  0  0
  5  6  1  0  0  0  0
  7  6  1  6  0  0  0
  7  8  1  0  0  0  0
  7  9  1  0  0  0  0
 10  9  1  6  0  0  0
 10 11  1  0  0  0  0
 10 12  1  0  0  0  0
 11 16  1  0  0  0  0
 12 13  1  1  0  0  0
 12 14  1  0  0  0  0
 14 15  1  1  0  0  0
 14 16  1  0  0  0  0
 16 27  1  6  0  0  0
 18 19  2  0  0  0  0
 18 23  1  0  0  0  0
 19 20  1  0  0  0  0
 20 21  2  0  0  0  0
 21 22  1  0  0  0  0
 21 27  1  0  0  0  0
 22 23  2  0  0  0  0
 22 25  1  0  0  0  0
 23 24  1  0  0  0  0
 25 26  2  0  0  0  0
 26 27  1  0  0  0  0
M  END
>  <CHROM.1>
-159.45249684,65.81234057,-177.44151925,76.48871036,-178.34234100,146.87564155
137.50269066,3.54154906,-14.45133371,9.75099034,0.07608891,0.93593890,-1.24470681

>  <Name>
ligand

>  <RI>
0

>  <Rbt.Current_Directory>
/home/itssahil/PROJECTS/Mol_Feturizer/Test_systems_manuscript/rnas/4kqy

>  <Rbt.Executable>
rbdock ($Id: //depot/dev/client3/rdock/2013.1/src/exe/rbdock.cxx#4 $)

>  <Rbt.Library>
libRbt.so (2013.1, Build901 2013/11/27)

>  <Rbt.Parameter_File>
/export/apps/rDock/src/rDock_2013.1_src/data/scripts/dock_solv.prm

>  <Rbt.Receptor>
prm/blind_docking_80.prm

>  <SCORE>
-13.2916

>  <SCORE.INTER>
-13.9843

>  <SCORE.INTER.CONST>
1

>  <SCORE.INTER.POLAR>
0

>  <SCORE.INTER.ROT>
7

>  <SCORE.INTER.SOLV>
15.246

>  <SCORE.INTER.VDW>
-22.6715

>  <SCORE.INTER.norm>
-0.517936

>  <SCORE.INTRA>
0.692696

>  <SCORE.INTRA.DIHEDRAL>
-3.76742

>  <SCORE.INTRA.DIHEDRAL.0>
10.4103

>  <SCORE.INTRA.POLAR>
0

>  <SCORE.INTRA.POLAR.0>
0

>  <SCORE.INTRA.REPUL>
0

>  <SCORE.INTRA.REPUL.0>
0

>  <SCORE.INTRA.SOLV>
0.299302

>  <SCORE.INTRA.SOLV.lig_0>
-49.5008

>  <SCORE.INTRA.VDW>
2.42676

>  <SCORE.INTRA.VDW.0>
-2.6946

>  <SCORE.INTRA.norm>
0.0256554

>  <SCORE.RESTR>
0

>  <SCORE.RESTR.CAVITY>
0

>  <SCORE.RESTR.norm>
0

>  <SCORE.SYSTEM>
0

>  <SCORE.SYSTEM.CONST>
0

>  <SCORE.SYSTEM.DIHEDRAL>
0

>  <SCORE.SYSTEM.SOLV>
0

>  <SCORE.SYSTEM.norm>
0

>  <SCORE.heavy>
27

>  <SCORE.norm>
-0.492281

>  <RMSD>
13.137

$$$$
ligand
 OpenBabel02271912153D
libRbt.so/2013.1/901 2013/11/27
 27 29  0  0  0  0  0  0  0  0999 V2000
    7.5848  -19.1383    6.0981 N   0  0  0  0  0  0  0  0  0  0  0  0
    6.2377  -18.9194    6.5897 C   0  0  2  0  0  0  0  0  0  0  0  0
    5.7722  -17.6051    6.0429 C   0  0  0  0  0  0  0  0  0  0  0  0
    4.7696  -17.5753    5.2971 O   0  0  0  0  0  0  0  0  0  0  0  0
    6.2242  -18.8929    8.1204 C   0  0  0  0  0  0  0  0  0  0  0  0
    4.8335  -18.5008    8.6669 C   0  0  0  0  0  0  0  0  0  0  0  0
    4.8163  -17.8878   10.2287 S   0  0  2  0  0  0  0  0  0  0  0  0
    4.2883  -19.0636   11.2764 C   0  0  0  0  0  0  0  0  0  0  0  0
    3.8133  -16.5322   10.2979 C   0  0  0  0  0  0  0  0  0  0  0  0
    4.5710  -15.1878   10.2813 C   0  0  1  0  0  0  0  0  0  0  0  0
    3.7565  -14.0842    9.8517 O   0  0  0  0  0  0  0  0  0  0  0  0
    5.0244  -14.7282   11.6576 C   0  0  1  0  0  0  0  0  0  0  0  0
    6.1576  -15.4017   12.2416 O   0  0  0  0  0  0  0  0  0  0  0  0
    5.2552  -13.2605   11.3959 C   0  0  1  0  0  0  0  0  0  0  0  0
    6.4281  -13.0829   10.6073 O   0  0  0  0  0  0  0  0  0  0  0  0
    4.0564  -12.8880   10.5748 C   0  0  2  0  0  0  0  0  0  0  0  0
    6.3765  -16.5550    6.3677 O   0  0  0  0  0  0  0  0  0  0  0  0
   -0.7776  -13.6165   12.6672 N   0  0  0  0  0  0  0  0  0  0  0  0
   -0.0656  -14.4369   11.8569 C   0  0  0  0  0  0  0  0  0  0  0  0
    1.1543  -14.1199   11.3914 N   0  0  0  0  0  0  0  0  0  0  0  0
    1.7588  -12.9722   11.7182 C   0  0  0  0  0  0  0  0  0  0  0  0
    1.0540  -12.0582   12.6043 C   0  0  0  0  0  0  0  0  0  0  0  0
   -0.2980  -12.4078   13.0982 C   0  0  0  0  0  0  0  0  0  0  0  0
   -1.0165  -11.5798   13.9355 N   0  0  0  0  0  0  0  0  0  0  0  0
    1.8589  -11.0338   12.7736 N   0  0  0  0  0  0  0  0  0  0  0  0
    2.9740  -11.2347   12.0579 C   0  0  0  0  0  0  0  0  0  0  0  0
    2.9236  -12.4048   11.4224 N   0  0  0  0  0  0  0  0  0  0  0  0
  2  1  1  1  0  0  0
  2  3  1  0  0  0  0
  2  5  1  0  0  0  0
  3  4  1  0  0  0  0
  3 17  1  0  0  0  0
  5  6  1  0  0  0  0
  7  6  1  6  0  0  0
  7  8  1  0  0  0  0
  7  9  1  0  0  0  0
 10  9  1  1  0  0  0
 10 11  1  0  0  0  0
 10 12  1  0  0  0  0
 11 16  1  0  0  0  0
 12 13  1  6  0  0  0
 12 14  1  0  0  0  0
 14 15  1  6  0  0  0
 14 16  1  0  0  0  0
 16 27  1  1  0  0  0
 18 19  2  0  0  0  0
 18 23  1  0  0  0  0
 19 20  1  0  0  0  0
 20 21  2  0  0  0  0
 21 22  1  0  0  0  0
 21 27  1  0  0  0  0
 22 23  2  0  0  0  0
 22 25  1  0  0  0  0
 23 24  1  0  0  0  0
 25 26  2  0  0  0  0
 26 27  1  0  0  0  0
M  END
>  <CHROM.1>
118.77952036,173.46972693,-158.13457798,-102.65931449,-101.10436066,158.44807137
8.11356489,3.82547492,-15.20693006,10.27332112,-0.94152340,0.43147928,0.43189155

>  <Name>
ligand

>  <RI>
0

>  <Rbt.Current_Directory>
/home/itssahil/PROJECTS/Mol_Feturizer/Test_systems_manuscript/rnas/4kqy

>  <Rbt.Executable>
rbdock ($Id: //depot/dev/client3/rdock/2013.1/src/exe/rbdock.cxx#4 $)

>  <Rbt.Library>
libRbt.so (2013.1, Build901 2013/11/27)

>  <Rbt.Parameter_File>
/export/apps/rDock/src/rDock_2013.1_src/data/scripts/dock_solv.prm

>  <Rbt.Receptor>
prm/blind_docking_80.prm

>  <SCORE>
-12.5696

>  <SCORE.INTER>
-13.6397

>  <SCORE.INTER.CONST>
1

>  <SCORE.INTER.POLAR>
0

>  <SCORE.INTER.ROT>
7

>  <SCORE.INTER.SOLV>
11.1543

>  <SCORE.INTER.VDW>
-21.0779

>  <SCORE.INTER.norm>
-0.505173

>  <SCORE.INTRA>
1.06536

>  <SCORE.INTRA.DIHEDRAL>
3.23658

>  <SCORE.INTRA.DIHEDRAL.0>
10.4103

>  <SCORE.INTRA.POLAR>
0

>  <SCORE.INTRA.POLAR.0>
0

>  <SCORE.INTRA.REPUL>
0

>  <SCORE.INTRA.REPUL.0>
0

>  <SCORE.INTRA.SOLV>
-0.529742

>  <SCORE.INTRA.SOLV.lig_0>
-49.5008

>  <SCORE.INTRA.VDW>
-0.288061

>  <SCORE.INTRA.VDW.0>
-2.6946

>  <SCORE.INTRA.norm>
0.0394577

>  <SCORE.RESTR>
0.00472538

>  <SCORE.RESTR.CAVITY>
0.00472538

>  <SCORE.RESTR.norm>
0.000175014

>  <SCORE.SYSTEM>
0

>  <SCORE.SYSTEM.CONST>
0

>  <SCORE.SYSTEM.DIHEDRAL>
0

>  <SCORE.SYSTEM.SOLV>
0

>  <SCORE.SYSTEM.norm>
0

>  <SCORE.heavy>
27

>  <SCORE.norm>
-0.46554

>  <RMSD>
13.151

$$$$
ligand
 OpenBabel02271912153D
libRbt.so/2013.1/901 2013/11/27
 27 29  0  0  0  0  0  0  0  0999 V2000
    2.1641   -9.9978   10.8453 N   0  0  0  0  0  0  0  0  0  0  0  0
    0.9194  -10.5052   11.3907 C   0  0  2  0  0  0  0  0  0  0  0  0
    0.4264   -9.4999   12.3854 C   0  0  0  0  0  0  0  0  0  0  0  0
   -0.0033   -8.3991   11.9781 O   0  0  0  0  0  0  0  0  0  0  0  0
    1.1451  -11.8585   12.0703 C   0  0  0  0  0  0  0  0  0  0  0  0
   -0.1905  -12.5892   12.3326 C   0  0  0  0  0  0  0  0  0  0  0  0
   -0.0587  -14.1098   13.0294 S   0  0  2  0  0  0  0  0  0  0  0  0
    0.6576  -13.9721   14.5216 C   0  0  0  0  0  0  0  0  0  0  0  0
    0.8448  -15.1209   12.0244 C   0  0  0  0  0  0  0  0  0  0  0  0
    2.3610  -14.8333   12.0419 C   0  0  1  0  0  0  0  0  0  0  0  0
    3.1422  -15.9423   12.5169 O   0  0  0  0  0  0  0  0  0  0  0  0
    2.9516  -14.6001   10.6607 C   0  0  1  0  0  0  0  0  0  0  0  0
    2.6811  -13.3324   10.0293 O   0  0  0  0  0  0  0  0  0  0  0  0
    4.4140  -14.8420   10.9418 C   0  0  1  0  0  0  0  0  0  0  0  0
    4.9524  -13.7604   11.6964 O   0  0  0  0  0  0  0  0  0  0  0  0
    4.3766  -16.0670   11.8068 C   0  0  2  0  0  0  0  0  0  0  0  0
    0.4239   -9.7915   13.6052 O   0  0  0  0  0  0  0  0  0  0  0  0
    5.3299  -18.5298    7.1914 N   0  0  0  0  0  0  0  0  0  0  0  0
    5.3670  -17.2053    7.4758 C   0  0  0  0  0  0  0  0  0  0  0  0
    5.0937  -16.7157    8.6968 N   0  0  0  0  0  0  0  0  0  0  0  0
    4.7850  -17.5138    9.7250 C   0  0  0  0  0  0  0  0  0  0  0  0
    4.7507  -18.9491    9.4883 C   0  0  0  0  0  0  0  0  0  0  0  0
    5.0359  -19.4788    8.1346 C   0  0  0  0  0  0  0  0  0  0  0  0
    5.0133  -20.8280    7.8485 N   0  0  0  0  0  0  0  0  0  0  0  0
    4.4413  -19.4938   10.6430 N   0  0  0  0  0  0  0  0  0  0  0  0
    4.2666  -18.5218   11.5489 C   0  0  0  0  0  0  0  0  0  0  0  0
    4.4774  -17.3242   11.0040 N   0  0  0  0  0  0  0  0  0  0  0  0
  2  1  1  1  0  0  0
  2  3  1  0  0  0  0
  2  5  1  0  0  0  0
  3  4  1  0  0  0  0
  3 17  1  0  0  0  0
  5  6  1  0  0  0  0
  7  6  1  6  0  0  0
  7  8  1  0  0  0  0
  7  9  1  0  0  0  0
 10  9  1  6  0  0  0
 10 11  1  0  0  0  0
 10 12  1  0  0  0  0
 11 16  1  0  0  0  0
 12 13  1  1  0  0  0
 12 14  1  0  0  0  0
 14 15  1  1  0  0  0
 14 16  1  0  0  0  0
 16 27  1  6  0  0  0
 18 19  2  0  0  0  0
 18 23  1  0  0  0  0
 19 20  1  0  0  0  0
 20 21  2  0  0  0  0
 21 22  1  0  0  0  0
 21 27  1  0  0  0  0
 22 23  2  0  0  0  0
 22 25  1  0  0  0  0
 23 24  1  0  0  0  0
 25 26  2  0  0  0  0
 26 27  1  0  0  0  0
M  END
>  <CHROM.1>
70.32145081,-165.25770735,178.02720444,61.77100357,74.84866400,118.13922067
128.25918729,2.75444059,-14.79521703,11.11127119,-2.40500418,-0.90028310
2.84528883

>  <Name>
ligand

>  <RI>
0

>  <Rbt.Current_Directory>
/home/itssahil/PROJECTS/Mol_Feturizer/Test_systems_manuscript/rnas/4kqy

>  <Rbt.Executable>
rbdock ($Id: //depot/dev/client3/rdock/2013.1/src/exe/rbdock.cxx#4 $)

>  <Rbt.Library>
libRbt.so (2013.1, Build901 2013/11/27)

>  <Rbt.Parameter_File>
/export/apps/rDock/src/rDock_2013.1_src/data/scripts/dock_solv.prm

>  <Rbt.Receptor>
prm/blind_docking_100.prm

>  <SCORE>
-16.5125

>  <SCORE.INTER>
-17.7514

>  <SCORE.INTER.CONST>
1

>  <SCORE.INTER.POLAR>
0

>  <SCORE.INTER.ROT>
7

>  <SCORE.INTER.SOLV>
13.7564

>  <SCORE.INTER.VDW>
-24.6864

>  <SCORE.INTER.norm>
-0.657458

>  <SCORE.INTRA>
1.23882

>  <SCORE.INTRA.DIHEDRAL>
-1.00848

>  <SCORE.INTRA.DIHEDRAL.0>
10.4103

>  <SCORE.INTRA.POLAR>
0

>  <SCORE.INTRA.POLAR.0>
0

>  <SCORE.INTRA.REPUL>
0

>  <SCORE.INTRA.REPUL.0>
0

>  <SCORE.INTRA.SOLV>
0.570316

>  <SCORE.INTRA.SOLV.lig_0>
-49.5008

>  <SCORE.INTRA.VDW>
1.4579

>  <SCORE.INTRA.VDW.0>
-2.6946

>  <SCORE.INTRA.norm>
0.0458822

>  <SCORE.RESTR>
0

>  <SCORE.RESTR.CAVITY>
0

>  <SCORE.RESTR.norm>
0

>  <SCORE.SYSTEM>
0

>  <SCORE.SYSTEM.CONST>
0

>  <SCORE.SYSTEM.DIHEDRAL>
0

>  <SCORE.SYSTEM.SOLV>
0

>  <SCORE.SYSTEM.norm>
0

>  <SCORE.heavy>
27

>  <SCORE.norm>
-0.611576

>  <RMSD>
13.185

$$$$
ligand
 OpenBabel02271912153D
libRbt.so/2013.1/901 2013/11/27
 27 29  0  0  0  0  0  0  0  0999 V2000
    8.7974   -7.8761    8.6135 N   0  0  0  0  0  0  0  0  0  0  0  0
    8.9024   -9.2877    8.2963 C   0  0  2  0  0  0  0  0  0  0  0  0
    9.9772   -9.4334    7.2635 C   0  0  0  0  0  0  0  0  0  0  0  0
    9.6599   -9.4797    6.0554 O   0  0  0  0  0  0  0  0  0  0  0  0
    7.5707   -9.8151    7.7554 C   0  0  0  0  0  0  0  0  0  0  0  0
    6.4173   -9.5671    8.7528 C   0  0  0  0  0  0  0  0  0  0  0  0
    4.8835   -9.9597    8.1975 S   0  0  2  0  0  0  0  0  0  0  0  0
    4.6109   -9.1983    6.7467 C   0  0  0  0  0  0  0  0  0  0  0  0
    3.7288   -9.4999    9.3394 C   0  0  0  0  0  0  0  0  0  0  0  0
    2.2801   -9.5081    8.8074 C   0  0  1  0  0  0  0  0  0  0  0  0
    1.7726  -10.8312    8.5674 O   0  0  0  0  0  0  0  0  0  0  0  0
    1.2661   -8.9558    9.7962 C   0  0  1  0  0  0  0  0  0  0  0  0
    1.2296   -7.5262    9.9797 O   0  0  0  0  0  0  0  0  0  0  0  0
   -0.0097   -9.5315    9.2330 C   0  0  1  0  0  0  0  0  0  0  0  0
   -0.3572   -8.8613    8.0250 O   0  0  0  0  0  0  0  0  0  0  0  0
    0.3890  -10.9410    8.9096 C   0  0  2  0  0  0  0  0  0  0  0  0
   11.1772   -9.4745    7.6260 O   0  0  0  0  0  0  0  0  0  0  0  0
    1.9919  -14.8736   12.1097 N   0  0  0  0  0  0  0  0  0  0  0  0
    2.6569  -14.2780   11.0901 C   0  0  0  0  0  0  0  0  0  0  0  0
    2.1228  -13.2904   10.3521 N   0  0  0  0  0  0  0  0  0  0  0  0
    0.8966  -12.8129   10.5923 C   0  0  0  0  0  0  0  0  0  0  0  0
    0.1400  -13.3968   11.6896 C   0  0  0  0  0  0  0  0  0  0  0  0
    0.7297  -14.4974   12.4866 C   0  0  0  0  0  0  0  0  0  0  0  0
    0.0590  -15.0934   13.5344 N   0  0  0  0  0  0  0  0  0  0  0  0
   -1.0033  -12.7504   11.7183 N   0  0  0  0  0  0  0  0  0  0  0  0
   -1.0155  -11.8454   10.7300 C   0  0  0  0  0  0  0  0  0  0  0  0
    0.1295  -11.8732   10.0492 N   0  0  0  0  0  0  0  0  0  0  0  0
  2  1  1  6  0  0  0
  2  3  1  0  0  0  0
  2  5  1  0  0  0  0
  3  4  1  0  0  0  0
  3 17  1  0  0  0  0
  5  6  1  0  0  0  0
  7  6  1  1  0  0  0
  7  8  1  0  0  0  0
  7  9  1  0  0  0  0
 10  9  1  1  0  0  0
 10 11  1  0  0  0  0
 10 12  1  0  0  0  0
 11 16  1  0  0  0  0
 12 13  1  6  0  0  0
 12 14  1  0  0  0  0
 14 15  1  6  0  0  0
 14 16  1  0  0  0  0
 16 27  1  1  0  0  0
 18 19  2  0  0  0  0
 18 23  1  0  0  0  0
 19 20  1  0  0  0  0
 20 21  2  0  0  0  0
 21 22  1  0  0  0  0
 21 27  1  0  0  0  0
 22 23  2  0  0  0  0
 22 25  1  0  0  0  0
 23 24  1  0  0  0  0
 25 26  2  0  0  0  0
 26 27  1  0  0  0  0
M  END
>  <CHROM.1>
-95.78061699,-56.64847564,173.86843732,-53.11014147,166.51029914,70.31254871
-16.60584045,3.45136126,-10.77533088,9.36000404,-0.50727210,-0.14630174,2.59585618

>  <Name>
ligand

>  <RI>
0

>  <Rbt.Current_Directory>
/home/itssahil/PROJECTS/Mol_Feturizer/Test_systems_manuscript/rnas/4kqy

>  <Rbt.Executable>
rbdock ($Id: //depot/dev/client3/rdock/2013.1/src/exe/rbdock.cxx#4 $)

>  <Rbt.Library>
libRbt.so (2013.1, Build901 2013/11/27)

>  <Rbt.Parameter_File>
/export/apps/rDock/src/rDock_2013.1_src/data/scripts/dock_solv.prm

>  <Rbt.Receptor>
prm/blind_docking_60.prm

>  <SCORE>
-13.4875

>  <SCORE.INTER>
-12.3044

>  <SCORE.INTER.CONST>
1

>  <SCORE.INTER.POLAR>
0

>  <SCORE.INTER.ROT>
7

>  <SCORE.INTER.SOLV>
14.2344

>  <SCORE.INTER.VDW>
-21.2144

>  <SCORE.INTER.norm>
-0.455718

>  <SCORE.INTRA>
-1.18308

>  <SCORE.INTRA.DIHEDRAL>
-6.44536

>  <SCORE.INTRA.DIHEDRAL.0>
10.4103

>  <SCORE.INTRA.POLAR>
0

>  <SCORE.INTRA.POLAR.0>
0

>  <SCORE.INTRA.REPUL>
0

>  <SCORE.INTRA.REPUL.0>
0

>  <SCORE.INTRA.SOLV>
0.176789

>  <SCORE.INTRA.SOLV.lig_0>
-49.5008

>  <SCORE.INTRA.VDW>
1.9512

>  <SCORE.INTRA.VDW.0>
-2.6946

>  <SCORE.INTRA.norm>
-0.0438179

>  <SCORE.RESTR>
0

>  <SCORE.RESTR.CAVITY>
0

>  <SCORE.RESTR.norm>
0

>  <SCORE.SYSTEM>
0

>  <SCORE.SYSTEM.CONST>
0

>  <SCORE.SYSTEM.DIHEDRAL>
0

>  <SCORE.SYSTEM.SOLV>
0

>  <SCORE.SYSTEM.norm>
0

>  <SCORE.heavy>
27

>  <SCORE.norm>
-0.499536

>  <RMSD>
13.198

$$$$
ligand
 OpenBabel02271912153D
libRbt.so/2013.1/901 2013/11/27
 27 29  0  0  0  0  0  0  0  0999 V2000
    8.8023   -6.3460    9.3545 N   0  0  0  0  0  0  0  0  0  0  0  0
    7.3835   -6.6429    9.2993 C   0  0  2  0  0  0  0  0  0  0  0  0
    6.8620   -6.5875   10.7022 C   0  0  0  0  0  0  0  0  0  0  0  0
    5.9674   -5.7628   10.9882 O   0  0  0  0  0  0  0  0  0  0  0  0
    7.1505   -8.0326    8.7003 C   0  0  0  0  0  0  0  0  0  0  0  0
    5.6469   -8.3063    8.4751 C   0  0  0  0  0  0  0  0  0  0  0  0
    5.2566   -9.8743    8.0233 S   0  0  2  0  0  0  0  0  0  0  0  0
    6.0274  -10.2457    6.5997 C   0  0  0  0  0  0  0  0  0  0  0  0
    3.5837  -10.0184    7.8518 C   0  0  0  0  0  0  0  0  0  0  0  0
    2.7914   -9.7233    9.1429 C   0  0  1  0  0  0  0  0  0  0  0  0
    2.5704   -8.3203    9.3633 O   0  0  0  0  0  0  0  0  0  0  0  0
    1.3719  -10.2670    9.1229 C   0  0  1  0  0  0  0  0  0  0  0  0
    1.2035  -11.6879    9.3005 O   0  0  0  0  0  0  0  0  0  0  0  0
    0.7434   -9.4369   10.2147 C   0  0  1  0  0  0  0  0  0  0  0  0
    1.2206   -9.8614   11.4879 O   0  0  0  0  0  0  0  0  0  0  0  0
    1.2811   -8.0665    9.9263 C   0  0  2  0  0  0  0  0  0  0  0  0
    7.3088   -7.3896   11.5567 O   0  0  0  0  0  0  0  0  0  0  0  0
    0.2279   -3.6652    7.1343 N   0  0  0  0  0  0  0  0  0  0  0  0
    1.3116   -3.9548    7.8947 C   0  0  0  0  0  0  0  0  0  0  0  0
    1.4451   -5.1154    8.5585 N   0  0  0  0  0  0  0  0  0  0  0  0
    0.5175   -6.0770    8.4937 C   0  0  0  0  0  0  0  0  0  0  0  0
   -0.6604   -5.8346    7.6744 C   0  0  0  0  0  0  0  0  0  0  0  0
   -0.8077   -4.5451    6.9604 C   0  0  0  0  0  0  0  0  0  0  0  0
   -1.9034   -4.2562    6.1739 N   0  0  0  0  0  0  0  0  0  0  0  0
   -1.3920   -6.9215    7.7710 N   0  0  0  0  0  0  0  0  0  0  0  0
   -0.7762   -7.7884    8.5865 C   0  0  0  0  0  0  0  0  0  0  0  0
    0.3794   -7.2884    9.0227 N   0  0  0  0  0  0  0  0  0  0  0  0
  2  1  1  1  0  0  0
  2  3  1  0  0  0  0
  2  5  1  0  0  0  0
  3  4  1  0  0  0  0
  3 17  1  0  0  0  0
  5  6  1  0  0  0  0
  7  6  1  6  0  0  0
  7  8  1  0  0  0  0
  7  9  1  0  0  0  0
 10  9  1  6  0  0  0
 10 11  1  0  0  0  0
 10 12  1  0  0  0  0
 11 16  1  0  0  0  0
 12 13  1  1  0  0  0
 12 14  1  0  0  0  0
 14 15  1  1  0  0  0
 14 16  1  0  0  0  0
 16 27  1  6  0  0  0
 18 19  2  0  0  0  0
 18 23  1  0  0  0  0
 19 20  1  0  0  0  0
 20 21  2  0  0  0  0
 21 22  1  0  0  0  0
 21 27  1  0  0  0  0
 22 23  2  0  0  0  0
 22 25  1  0  0  0  0
 23 24  1  0  0  0  0
 25 26  2  0  0  0  0
 26 27  1  0  0  0  0
M  END
>  <CHROM.1>
119.56374290,-173.25644141,-171.84116338,-59.63096579,-60.58363059,82.67303055
-59.92901373,2.92345816,-7.66346851,8.83393617,-0.30004514,-0.15871291,-0.14897812

>  <Name>
ligand

>  <RI>
0

>  <Rbt.Current_Directory>
/home/itssahil/PROJECTS/Mol_Feturizer/Test_systems_manuscript/rnas/4kqy

>  <Rbt.Executable>
rbdock ($Id: //depot/dev/client3/rdock/2013.1/src/exe/rbdock.cxx#4 $)

>  <Rbt.Library>
libRbt.so (2013.1, Build901 2013/11/27)

>  <Rbt.Parameter_File>
/export/apps/rDock/src/rDock_2013.1_src/data/scripts/dock_solv.prm

>  <Rbt.Receptor>
prm/blind_docking_20.prm

>  <SCORE>
-22.4381

>  <SCORE.INTER>
-20.6101

>  <SCORE.INTER.CONST>
1

>  <SCORE.INTER.POLAR>
0

>  <SCORE.INTER.ROT>
7

>  <SCORE.INTER.SOLV>
11.888

>  <SCORE.INTER.VDW>
-25.9694

>  <SCORE.INTER.norm>
-0.763336

>  <SCORE.INTRA>
-1.82803

>  <SCORE.INTRA.DIHEDRAL>
-5.62521

>  <SCORE.INTRA.DIHEDRAL.0>
10.4103

>  <SCORE.INTRA.POLAR>
0

>  <SCORE.INTRA.POLAR.0>
0

>  <SCORE.INTRA.REPUL>
0

>  <SCORE.INTRA.REPUL.0>
0

>  <SCORE.INTRA.SOLV>
-0.674565

>  <SCORE.INTRA.SOLV.lig_0>
-49.5008

>  <SCORE.INTRA.VDW>
1.32186

>  <SCORE.INTRA.VDW.0>
-2.6946

>  <SCORE.INTRA.norm>
-0.0677047

>  <SCORE.RESTR>
0

>  <SCORE.RESTR.CAVITY>
0

>  <SCORE.RESTR.norm>
0

>  <SCORE.SYSTEM>
0

>  <SCORE.SYSTEM.CONST>
0

>  <SCORE.SYSTEM.DIHEDRAL>
0

>  <SCORE.SYSTEM.SOLV>
0

>  <SCORE.SYSTEM.norm>
0

>  <SCORE.heavy>
27

>  <SCORE.norm>
-0.83104

>  <RMSD>
13.209

$$$$
ligand
 OpenBabel02271912153D
libRbt.so/2013.1/901 2013/11/27
 27 29  0  0  0  0  0  0  0  0999 V2000
    6.7909   -6.5759    9.6882 N   0  0  0  0  0  0  0  0  0  0  0  0
    7.4713   -7.3918    8.7005 C   0  0  2  0  0  0  0  0  0  0  0  0
    8.1112   -6.4602    7.7177 C   0  0  0  0  0  0  0  0  0  0  0  0
    7.6413   -5.3113    7.5714 O   0  0  0  0  0  0  0  0  0  0  0  0
    6.4760   -8.3127    7.9895 C   0  0  0  0  0  0  0  0  0  0  0  0
    6.1143   -9.5352    8.8618 C   0  0  0  0  0  0  0  0  0  0  0  0
    5.1407  -10.6866    8.1259 S   0  0  2  0  0  0  0  0  0  0  0  0
    5.8470  -11.1791    6.7055 C   0  0  0  0  0  0  0  0  0  0  0  0
    3.6093  -10.0383    7.8379 C   0  0  0  0  0  0  0  0  0  0  0  0
    2.7969   -9.7511    9.1182 C   0  0  1  0  0  0  0  0  0  0  0  0
    2.6328   -8.3477    9.3817 O   0  0  0  0  0  0  0  0  0  0  0  0
    1.3557  -10.2288    9.0440 C   0  0  1  0  0  0  0  0  0  0  0  0
    1.1196  -11.6457    9.1678 O   0  0  0  0  0  0  0  0  0  0  0  0
    0.7361   -9.4081   10.1480 C   0  0  1  0  0  0  0  0  0  0  0  0
    1.1600   -9.8964   11.4172 O   0  0  0  0  0  0  0  0  0  0  0  0
    1.3417   -8.0546    9.9209 C   0  0  2  0  0  0  0  0  0  0  0  0
    9.1248   -6.8375    7.0826 O   0  0  0  0  0  0  0  0  0  0  0  0
   -3.1979   -7.2282    7.2779 N   0  0  0  0  0  0  0  0  0  0  0  0
   -2.8463   -8.2744    8.0643 C   0  0  0  0  0  0  0  0  0  0  0  0
   -1.6506   -8.3582    8.6715 N   0  0  0  0  0  0  0  0  0  0  0  0
   -0.7299   -7.3949    8.5545 C   0  0  0  0  0  0  0  0  0  0  0  0
   -1.0569   -6.2338    7.7407 C   0  0  0  0  0  0  0  0  0  0  0  0
   -2.3705   -6.1582    7.0603 C   0  0  0  0  0  0  0  0  0  0  0  0
   -2.7347   -5.0862    6.2723 N   0  0  0  0  0  0  0  0  0  0  0  0
   -0.0062   -5.4475    7.8025 N   0  0  0  0  0  0  0  0  0  0  0  0
    0.9307   -6.0334    8.5606 C   0  0  0  0  0  0  0  0  0  0  0  0
    0.4997   -7.2066    9.0226 N   0  0  0  0  0  0  0  0  0  0  0  0
  2  1  1  1  0  0  0
  2  3  1  0  0  0  0
  2  5  1  0  0  0  0
  3  4  1  0  0  0  0
  3 17  1  0  0  0  0
  5  6  1  0  0  0  0
  7  6  1  6  0  0  0
  7  8  1  0  0  0  0
  7  9  1  0  0  0  0
 10  9  1  6  0  0  0
 10 11  1  0  0  0  0
 10 12  1  0  0  0  0
 11 16  1  0  0  0  0
 12 13  1  1  0  0  0
 12 14  1  0  0  0  0
 14 15  1  1  0  0  0
 14 16  1  0  0  0  0
 16 27  1  6  0  0  0
 18 19  2  0  0  0  0
 18 23  1  0  0  0  0
 19 20  1  0  0  0  0
 20 21  2  0  0  0  0
 21 22  1  0  0  0  0
 21 27  1  0  0  0  0
 22 23  2  0  0  0  0
 22 25  1  0  0  0  0
 23 24  1  0  0  0  0
 25 26  2  0  0  0  0
 26 27  1  0  0  0  0
M  END
>  <CHROM.1>
-24.42859563,-78.27930681,-174.52601276,54.77186288,-67.86648748,109.98602913
126.53804881,2.62690621,-8.20789810,8.42287807,-0.08283432,0.03510703,-0.29268400

>  <Name>
ligand

>  <RI>
0

>  <Rbt.Current_Directory>
/home/itssahil/PROJECTS/Mol_Feturizer/Test_systems_manuscript/rnas/4kqy

>  <Rbt.Executable>
rbdock ($Id: //depot/dev/client3/rdock/2013.1/src/exe/rbdock.cxx#4 $)

>  <Rbt.Library>
libRbt.so (2013.1, Build901 2013/11/27)

>  <Rbt.Parameter_File>
/export/apps/rDock/src/rDock_2013.1_src/data/scripts/dock_solv.prm

>  <Rbt.Receptor>
prm/blind_docking_60.prm

>  <SCORE>
-16.8341

>  <SCORE.INTER>
-16.8097

>  <SCORE.INTER.CONST>
1

>  <SCORE.INTER.POLAR>
0

>  <SCORE.INTER.ROT>
7

>  <SCORE.INTER.SOLV>
15.6087

>  <SCORE.INTER.VDW>
-24.676

>  <SCORE.INTER.norm>
-0.622581

>  <SCORE.INTRA>
-0.0244045

>  <SCORE.INTRA.DIHEDRAL>
-1.12513

>  <SCORE.INTRA.DIHEDRAL.0>
10.4103

>  <SCORE.INTRA.POLAR>
0

>  <SCORE.INTRA.POLAR.0>
0

>  <SCORE.INTRA.REPUL>
0

>  <SCORE.INTRA.REPUL.0>
0

>  <SCORE.INTRA.SOLV>
-0.089819

>  <SCORE.INTRA.SOLV.lig_0>
-49.5008

>  <SCORE.INTRA.VDW>
0.583071

>  <SCORE.INTRA.VDW.0>
-2.6946

>  <SCORE.INTRA.norm>
-0.00090387

>  <SCORE.RESTR>
0

>  <SCORE.RESTR.CAVITY>
0

>  <SCORE.RESTR.norm>
0

>  <SCORE.SYSTEM>
0

>  <SCORE.SYSTEM.CONST>
0

>  <SCORE.SYSTEM.DIHEDRAL>
0

>  <SCORE.SYSTEM.SOLV>
0

>  <SCORE.SYSTEM.norm>
0

>  <SCORE.heavy>
27

>  <SCORE.norm>
-0.623484

>  <RMSD>
13.210

$$$$
ligand
 OpenBabel02271912153D
libRbt.so/2013.1/901 2013/11/27
 27 29  0  0  0  0  0  0  0  0999 V2000
    3.9900  -10.1978    9.5497 N   0  0  0  0  0  0  0  0  0  0  0  0
    3.1264  -11.0614   10.3324 C   0  0  2  0  0  0  0  0  0  0  0  0
    3.5389  -12.4740   10.0541 C   0  0  0  0  0  0  0  0  0  0  0  0
    4.6897  -12.6995    9.6216 O   0  0  0  0  0  0  0  0  0  0  0  0
    1.6613  -10.8489    9.9422 C   0  0  0  0  0  0  0  0  0  0  0  0
    1.1453   -9.4706   10.4117 C   0  0  0  0  0  0  0  0  0  0  0  0
   -0.4897   -9.1870   10.1634 S   0  0  2  0  0  0  0  0  0  0  0  0
   -1.3743  -10.3906   10.8898 C   0  0  0  0  0  0  0  0  0  0  0  0
   -0.8125   -9.1248    8.5080 C   0  0  0  0  0  0  0  0  0  0  0  0
   -2.1578   -8.4564    8.1543 C   0  0  1  0  0  0  0  0  0  0  0  0
   -2.2393   -7.0867    8.5820 O   0  0  0  0  0  0  0  0  0  0  0  0
   -2.4018   -8.3349    6.6587 C   0  0  1  0  0  0  0  0  0  0  0  0
   -2.7683   -9.5341    5.9471 O   0  0  0  0  0  0  0  0  0  0  0  0
   -3.4649   -7.2646    6.6390 C   0  0  1  0  0  0  0  0  0  0  0  0
   -4.6998   -7.7930    7.1131 O   0  0  0  0  0  0  0  0  0  0  0  0
   -2.9436   -6.2754    7.6390 C   0  0  2  0  0  0  0  0  0  0  0  0
    2.7347  -13.4074   10.2893 O   0  0  0  0  0  0  0  0  0  0  0  0
    1.6531   -3.6186    7.3435 N   0  0  0  0  0  0  0  0  0  0  0  0
    1.2950   -4.6131    8.1915 C   0  0  0  0  0  0  0  0  0  0  0  0
    0.0848   -5.1960    8.1590 N   0  0  0  0  0  0  0  0  0  0  0  0
   -0.8455   -4.8430    7.2650 C   0  0  0  0  0  0  0  0  0  0  0  0
   -0.5128   -3.7951    6.3118 C   0  0  0  0  0  0  0  0  0  0  0  0
    0.8173   -3.1456    6.3665 C   0  0  0  0  0  0  0  0  0  0  0  0
    1.1878   -2.1440    5.4934 N   0  0  0  0  0  0  0  0  0  0  0  0
   -1.5753   -3.6533    5.5523 N   0  0  0  0  0  0  0  0  0  0  0  0
   -2.5241   -4.5027    5.9698 C   0  0  0  0  0  0  0  0  0  0  0  0
   -2.0896   -5.2279    6.9997 N   0  0  0  0  0  0  0  0  0  0  0  0
  2  1  1  6  0  0  0
  2  3  1  0  0  0  0
  2  5  1  0  0  0  0
  3  4  1  0  0  0  0
  3 17  1  0  0  0  0
  5  6  1  0  0  0  0
  7  6  1  6  0  0  0
  7  8  1  0  0  0  0
  7  9  1  0  0  0  0
 10  9  1  6  0  0  0
 10 11  1  0  0  0  0
 10 12  1  0  0  0  0
 11 16  1  0  0  0  0
 12 13  1  1  0  0  0
 12 14  1  0  0  0  0
 14 15  1  1  0  0  0
 14 16  1  0  0  0  0
 16 27  1  6  0  0  0
 18 19  2  0  0  0  0
 18 23  1  0  0  0  0
 19 20  1  0  0  0  0
 20 21  2  0  0  0  0
 21 22  1  0  0  0  0
 21 27  1  0  0  0  0
 22 23  2  0  0  0  0
 22 25  1  0  0  0  0
 23 24  1  0  0  0  0
 25 26  2  0  0  0  0
 26 27  1  0  0  0  0
M  END
>  <CHROM.1>
22.02877182,-70.13150464,-174.55501536,55.76161962,-162.31729210,61.03586622
-8.13023813,-0.20551746,-7.76830065,8.21399846,-1.11650802,-0.18400726,-0.37848406

>  <Name>
ligand

>  <RI>
0

>  <Rbt.Current_Directory>
/home/itssahil/PROJECTS/Mol_Feturizer/Test_systems_manuscript/rnas/4kqy

>  <Rbt.Executable>
rbdock ($Id: //depot/dev/client3/rdock/2013.1/src/exe/rbdock.cxx#4 $)

>  <Rbt.Library>
libRbt.so (2013.1, Build901 2013/11/27)

>  <Rbt.Parameter_File>
/export/apps/rDock/src/rDock_2013.1_src/data/scripts/dock_solv.prm

>  <Rbt.Receptor>
prm/blind_docking_20.prm

>  <SCORE>
-20.0072

>  <SCORE.INTER>
-18.2538

>  <SCORE.INTER.CONST>
1

>  <SCORE.INTER.POLAR>
0

>  <SCORE.INTER.ROT>
7

>  <SCORE.INTER.SOLV>
14.2175

>  <SCORE.INTER.VDW>
-25.175

>  <SCORE.INTER.norm>
-0.676066

>  <SCORE.INTRA>
-2.01328

>  <SCORE.INTRA.DIHEDRAL>
-6.24373

>  <SCORE.INTRA.DIHEDRAL.0>
10.4103

>  <SCORE.INTRA.POLAR>
0

>  <SCORE.INTRA.POLAR.0>
0

>  <SCORE.INTRA.REPUL>
0

>  <SCORE.INTRA.REPUL.0>
0

>  <SCORE.INTRA.SOLV>
-0.0527493

>  <SCORE.INTRA.SOLV.lig_0>
-49.5008

>  <SCORE.INTRA.VDW>
1.13496

>  <SCORE.INTRA.VDW.0>
-2.6946

>  <SCORE.INTRA.norm>
-0.0745659

>  <SCORE.RESTR>
0.259875

>  <SCORE.RESTR.CAVITY>
0.259875

>  <SCORE.RESTR.norm>
0.00962499

>  <SCORE.SYSTEM>
0

>  <SCORE.SYSTEM.CONST>
0

>  <SCORE.SYSTEM.DIHEDRAL>
0

>  <SCORE.SYSTEM.SOLV>
0

>  <SCORE.SYSTEM.norm>
0

>  <SCORE.heavy>
27

>  <SCORE.norm>
-0.741006

>  <RMSD>
13.269

$$$$
ligand
 OpenBabel02271912153D
libRbt.so/2013.1/901 2013/11/27
 27 29  0  0  0  0  0  0  0  0999 V2000
   -1.7717  -11.4180   12.8248 N   0  0  0  0  0  0  0  0  0  0  0  0
   -0.4820  -11.5013   12.1660 C   0  0  2  0  0  0  0  0  0  0  0  0
   -0.1666  -10.1385   11.6308 C   0  0  0  0  0  0  0  0  0  0  0  0
    0.8717   -9.5579   12.0142 O   0  0  0  0  0  0  0  0  0  0  0  0
   -0.5283  -12.5223   11.0260 C   0  0  0  0  0  0  0  0  0  0  0  0
   -0.8624  -13.9374   11.5478 C   0  0  0  0  0  0  0  0  0  0  0  0
    0.3744  -14.7152   12.3729 S   0  0  2  0  0  0  0  0  0  0  0  0
    0.4489  -14.1361   13.9278 C   0  0  0  0  0  0  0  0  0  0  0  0
    1.8389  -14.4656   11.5719 C   0  0  0  0  0  0  0  0  0  0  0  0
    3.0704  -15.0028   12.3312 C   0  0  1  0  0  0  0  0  0  0  0  0
    3.0591  -16.4313   12.4899 O   0  0  0  0  0  0  0  0  0  0  0  0
    4.3829  -14.7772   11.5980 C   0  0  1  0  0  0  0  0  0  0  0  0
    4.9207  -13.4396   11.5975 O   0  0  0  0  0  0  0  0  0  0  0  0
    5.2627  -15.7884   12.2905 C   0  0  1  0  0  0  0  0  0  0  0  0
    5.5657  -15.3499   13.6115 O   0  0  0  0  0  0  0  0  0  0  0  0
    4.3692  -16.9907   12.3705 C   0  0  2  0  0  0  0  0  0  0  0  0
   -0.9321   -9.6176   10.7847 O   0  0  0  0  0  0  0  0  0  0  0  0
    5.8495  -17.7422    7.3187 N   0  0  0  0  0  0  0  0  0  0  0  0
    5.9019  -16.6118    8.0645 C   0  0  0  0  0  0  0  0  0  0  0  0
    5.4826  -16.5620    9.3401 N   0  0  0  0  0  0  0  0  0  0  0  0
    5.0015  -17.6407    9.9682 C   0  0  0  0  0  0  0  0  0  0  0  0
    4.9408  -18.8913    9.2268 C   0  0  0  0  0  0  0  0  0  0  0  0
    5.3884  -18.9328    7.8154 C   0  0  0  0  0  0  0  0  0  0  0  0
    5.3497  -20.0868    7.0608 N   0  0  0  0  0  0  0  0  0  0  0  0
    4.4520  -19.7785   10.0634 N   0  0  0  0  0  0  0  0  0  0  0  0
    4.1940  -19.1769   11.2327 C   0  0  0  0  0  0  0  0  0  0  0  0
    4.5279  -17.8878   11.1851 N   0  0  0  0  0  0  0  0  0  0  0  0
  2  1  1  6  0  0  0
  2  3  1  0  0  0  0
  2  5  1  0  0  0  0
  3  4  1  0  0  0  0
  3 17  1  0  0  0  0
  5  6  1  0  0  0  0
  7  6  1  6  0  0  0
  7  8  1  0  0  0  0
  7  9  1  0  0  0  0
 10  9  1  6  0  0  0
 10 11  1  0  0  0  0
 10 12  1  0  0  0  0
 11 16  1  0  0  0  0
 12 13  1  1  0  0  0
 12 14  1  0  0  0  0
 14 15  1  1  0  0  0
 14 16  1  0  0  0  0
 16 27  1  6  0  0  0
 18 19  2  0  0  0  0
 18 23  1  0  0  0  0
 19 20  1  0  0  0  0
 20 21  2  0  0  0  0
 21 22  1  0  0  0  0
 21 27  1  0  0  0  0
 22 23  2  0  0  0  0
 22 25  1  0  0  0  0
 23 24  1  0  0  0  0
 25 26  2  0  0  0  0
 26 27  1  0  0  0  0
M  END
>  <CHROM.1>
120.86612954,-61.12471241,-73.59671585,79.43845181,173.40315641,64.09520918
95.82221625,2.80492121,-15.16498797,11.14146093,2.88734174,-0.89491124,1.62961565

>  <Name>
ligand

>  <RI>
0

>  <Rbt.Current_Directory>
/home/itssahil/PROJECTS/Mol_Feturizer/Test_systems_manuscript/rnas/4kqy

>  <Rbt.Executable>
rbdock ($Id: //depot/dev/client3/rdock/2013.1/src/exe/rbdock.cxx#4 $)

>  <Rbt.Library>
libRbt.so (2013.1, Build901 2013/11/27)

>  <Rbt.Parameter_File>
/export/apps/rDock/src/rDock_2013.1_src/data/scripts/dock_solv.prm

>  <Rbt.Receptor>
prm/blind_docking_60.prm

>  <SCORE>
-20.8602

>  <SCORE.INTER>
-19.3019

>  <SCORE.INTER.CONST>
1

>  <SCORE.INTER.POLAR>
0

>  <SCORE.INTER.ROT>
7

>  <SCORE.INTER.SOLV>
9.97906

>  <SCORE.INTER.VDW>
-24.461

>  <SCORE.INTER.norm>
-0.714886

>  <SCORE.INTRA>
-1.55827

>  <SCORE.INTRA.DIHEDRAL>
-5.72836

>  <SCORE.INTRA.DIHEDRAL.0>
10.4103

>  <SCORE.INTRA.POLAR>
0

>  <SCORE.INTRA.POLAR.0>
0

>  <SCORE.INTRA.REPUL>
0

>  <SCORE.INTRA.REPUL.0>
0

>  <SCORE.INTRA.SOLV>
1.34463

>  <SCORE.INTRA.SOLV.lig_0>
-49.5008

>  <SCORE.INTRA.VDW>
0.633594

>  <SCORE.INTRA.VDW.0>
-2.6946

>  <SCORE.INTRA.norm>
-0.0577138

>  <SCORE.RESTR>
0

>  <SCORE.RESTR.CAVITY>
0

>  <SCORE.RESTR.norm>
0

>  <SCORE.SYSTEM>
0

>  <SCORE.SYSTEM.CONST>
0

>  <SCORE.SYSTEM.DIHEDRAL>
0

>  <SCORE.SYSTEM.SOLV>
0

>  <SCORE.SYSTEM.norm>
0

>  <SCORE.heavy>
27

>  <SCORE.norm>
-0.7726

>  <RMSD>
13.273

$$$$
ligand
 OpenBabel02271912153D
libRbt.so/2013.1/901 2013/11/27
 27 29  0  0  0  0  0  0  0  0999 V2000
   -1.8457  -11.5606   12.9994 N   0  0  0  0  0  0  0  0  0  0  0  0
   -0.5183  -11.6816   12.4271 C   0  0  2  0  0  0  0  0  0  0  0  0
   -0.0696  -10.3039   12.0477 C   0  0  0  0  0  0  0  0  0  0  0  0
    0.9342   -9.8134   12.6080 O   0  0  0  0  0  0  0  0  0  0  0  0
   -0.5476  -12.5892   11.1944 C   0  0  0  0  0  0  0  0  0  0  0  0
   -0.8724  -14.0505   11.5759 C   0  0  0  0  0  0  0  0  0  0  0  0
    0.3681  -14.8954   12.3259 S   0  0  2  0  0  0  0  0  0  0  0  0
    0.4428  -14.4590   13.9268 C   0  0  0  0  0  0  0  0  0  0  0  0
    1.8306  -14.5695   11.5493 C   0  0  0  0  0  0  0  0  0  0  0  0
    3.0720  -15.0981   12.2985 C   0  0  1  0  0  0  0  0  0  0  0  0
    3.0803  -16.5282   12.4421 O   0  0  0  0  0  0  0  0  0  0  0  0
    4.3786  -14.8473   11.5630 C   0  0  1  0  0  0  0  0  0  0  0  0
    4.8986  -13.5027   11.5747 O   0  0  0  0  0  0  0  0  0  0  0  0
    5.2744  -15.8539   12.2417 C   0  0  1  0  0  0  0  0  0  0  0  0
    5.5764  -15.4252   13.5661 O   0  0  0  0  0  0  0  0  0  0  0  0
    4.3973  -17.0688   12.3121 C   0  0  2  0  0  0  0  0  0  0  0  0
   -0.6890   -9.6798   11.1532 O   0  0  0  0  0  0  0  0  0  0  0  0
    5.9854  -17.7792    7.2872 N   0  0  0  0  0  0  0  0  0  0  0  0
    6.0470  -16.6621    8.0522 C   0  0  0  0  0  0  0  0  0  0  0  0
    5.5971  -16.6215    9.3176 N   0  0  0  0  0  0  0  0  0  0  0  0
    5.0737  -17.6973    9.9161 C   0  0  0  0  0  0  0  0  0  0  0  0
    5.0007  -18.9344    9.1534 C   0  0  0  0  0  0  0  0  0  0  0  0
    5.4826  -18.9653    7.7531 C   0  0  0  0  0  0  0  0  0  0  0  0
    5.4343  -20.1062    6.9793 N   0  0  0  0  0  0  0  0  0  0  0  0
    4.4691  -19.8218    9.9633 N   0  0  0  0  0  0  0  0  0  0  0  0
    4.1967  -19.2320   11.1354 C   0  0  0  0  0  0  0  0  0  0  0  0
    4.5635  -17.9512   11.1168 N   0  0  0  0  0  0  0  0  0  0  0  0
  2  1  1  6  0  0  0
  2  3  1  0  0  0  0
  2  5  1  0  0  0  0
  3  4  1  0  0  0  0
  3 17  1  0  0  0  0
  5  6  1  0  0  0  0
  7  6  1  6  0  0  0
  7  8  1  0  0  0  0
  7  9  1  0  0  0  0
 10  9  1  6  0  0  0
 10 11  1  0  0  0  0
 10 12  1  0  0  0  0
 11 16  1  0  0  0  0
 12 13  1  1  0  0  0
 12 14  1  0  0  0  0
 14 15  1  1  0  0  0
 14 16  1  0  0  0  0
 16 27  1  6  0  0  0
 18 19  2  0  0  0  0
 18 23  1  0  0  0  0
 19 20  1  0  0  0  0
 20 21  2  0  0  0  0
 21 22  1  0  0  0  0
 21 27  1  0  0  0  0
 22 23  2  0  0  0  0
 22 25  1  0  0  0  0
 23 24  1  0  0  0  0
 25 26  2  0  0  0  0
 26 27  1  0  0  0  0
M  END
>  <CHROM.1>
117.14469538,-67.12953740,-73.86040488,78.95250521,170.02725142,62.03005445
98.57956796,2.84152225,-15.26692614,11.18041489,2.89973281,-0.89647316,1.69638782

>  <Name>
ligand

>  <RI>
0

>  <Rbt.Current_Directory>
/home/itssahil/PROJECTS/Mol_Feturizer/Test_systems_manuscript/rnas/4kqy

>  <Rbt.Executable>
rbdock ($Id: //depot/dev/client3/rdock/2013.1/src/exe/rbdock.cxx#4 $)

>  <Rbt.Library>
libRbt.so (2013.1, Build901 2013/11/27)

>  <Rbt.Parameter_File>
/export/apps/rDock/src/rDock_2013.1_src/data/scripts/dock_solv.prm

>  <Rbt.Receptor>
prm/blind_docking_60.prm

>  <SCORE>
-21.1267

>  <SCORE.INTER>
-19.6752

>  <SCORE.INTER.CONST>
1

>  <SCORE.INTER.POLAR>
0

>  <SCORE.INTER.ROT>
7

>  <SCORE.INTER.SOLV>
10.1516

>  <SCORE.INTER.VDW>
-24.7674

>  <SCORE.INTER.norm>
-0.728712

>  <SCORE.INTRA>
-1.45142

>  <SCORE.INTRA.DIHEDRAL>
-5.41163

>  <SCORE.INTRA.DIHEDRAL.0>
10.4103

>  <SCORE.INTRA.POLAR>
0

>  <SCORE.INTRA.POLAR.0>
0

>  <SCORE.INTRA.REPUL>
0

>  <SCORE.INTRA.REPUL.0>
0

>  <SCORE.INTRA.SOLV>
1.14277

>  <SCORE.INTRA.SOLV.lig_0>
-49.5008

>  <SCORE.INTRA.VDW>
0.683009

>  <SCORE.INTRA.VDW.0>
-2.6946

>  <SCORE.INTRA.norm>
-0.0537563

>  <SCORE.RESTR>
0

>  <SCORE.RESTR.CAVITY>
0

>  <SCORE.RESTR.norm>
0

>  <SCORE.SYSTEM>
0

>  <SCORE.SYSTEM.CONST>
0

>  <SCORE.SYSTEM.DIHEDRAL>
0

>  <SCORE.SYSTEM.SOLV>
0

>  <SCORE.SYSTEM.norm>
0

>  <SCORE.heavy>
27

>  <SCORE.norm>
-0.782469

>  <RMSD>
13.326

$$$$
ligand
 OpenBabel02271912153D
libRbt.so/2013.1/901 2013/11/27
 27 29  0  0  0  0  0  0  0  0999 V2000
   -1.9328  -13.0604   14.4913 N   0  0  0  0  0  0  0  0  0  0  0  0
   -1.0081  -12.5081   13.5197 C   0  0  2  0  0  0  0  0  0  0  0  0
   -1.2268  -11.0268   13.4887 C   0  0  0  0  0  0  0  0  0  0  0  0
   -2.3366  -10.5816   13.1248 O   0  0  0  0  0  0  0  0  0  0  0  0
   -1.2620  -13.1118   12.1358 C   0  0  0  0  0  0  0  0  0  0  0  0
   -0.1981  -12.6518   11.1145 C   0  0  0  0  0  0  0  0  0  0  0  0
    1.3948  -12.9646   11.5385 S   0  0  2  0  0  0  0  0  0  0  0  0
    2.4088  -12.0939   10.5523 C   0  0  0  0  0  0  0  0  0  0  0  0
    1.7062  -14.6180   11.4045 C   0  0  0  0  0  0  0  0  0  0  0  0
    2.9614  -15.0857   12.1710 C   0  0  1  0  0  0  0  0  0  0  0  0
    3.0147  -16.5103   12.3543 O   0  0  0  0  0  0  0  0  0  0  0  0
    4.2617  -14.8139   11.4319 C   0  0  1  0  0  0  0  0  0  0  0  0
    4.7386  -13.4534   11.4075 O   0  0  0  0  0  0  0  0  0  0  0  0
    5.1869  -15.7721   12.1404 C   0  0  1  0  0  0  0  0  0  0  0  0
    5.4708  -15.2975   13.4531 O   0  0  0  0  0  0  0  0  0  0  0  0
    4.3487  -17.0119   12.2425 C   0  0  2  0  0  0  0  0  0  0  0  0
   -0.3047  -10.2609   13.8580 O   0  0  0  0  0  0  0  0  0  0  0  0
    5.9720  -17.8095    7.2421 N   0  0  0  0  0  0  0  0  0  0  0  0
    5.9949  -16.6702    7.9756 C   0  0  0  0  0  0  0  0  0  0  0  0
    5.5407  -16.6091    9.2386 N   0  0  0  0  0  0  0  0  0  0  0  0
    5.0514  -17.6844    9.8661 C   0  0  0  0  0  0  0  0  0  0  0  0
    5.0209  -18.9440    9.1382 C   0  0  0  0  0  0  0  0  0  0  0  0
    5.5072  -18.9981    7.7400 C   0  0  0  0  0  0  0  0  0  0  0  0
    5.4983  -20.1611    6.9984 N   0  0  0  0  0  0  0  0  0  0  0  0
    4.5167  -19.8256    9.9716 N   0  0  0  0  0  0  0  0  0  0  0  0
    4.2222  -19.2126   11.1264 C   0  0  0  0  0  0  0  0  0  0  0  0
    4.5468  -17.9214   11.0726 N   0  0  0  0  0  0  0  0  0  0  0  0
  2  1  1  1  0  0  0
  2  3  1  0  0  0  0
  2  5  1  0  0  0  0
  3  4  1  0  0  0  0
  3 17  1  0  0  0  0
  5  6  1  0  0  0  0
  7  6  1  6  0  0  0
  7  8  1  0  0  0  0
  7  9  1  0  0  0  0
 10  9  1  6  0  0  0
 10 11  1  0  0  0  0
 10 12  1  0  0  0  0
 11 16  1  0  0  0  0
 12 13  1  1  0  0  0
 12 14  1  0  0  0  0
 14 15  1  1  0  0  0
 14 16  1  0  0  0  0
 16 27  1  6  0  0  0
 18 19  2  0  0  0  0
 18 23  1  0  0  0  0
 19 20  1  0  0  0  0
 20 21  2  0  0  0  0
 21 22  1  0  0  0  0
 21 27  1  0  0  0  0
 22 23  2  0  0  0  0
 22 25  1  0  0  0  0
 23 24  1  0  0  0  0
 25 26  2  0  0  0  0
 26 27  1  0  0  0  0
M  END
>  <CHROM.1>
-62.83378966,-174.08966498,55.94645696,-166.02622948,-161.80056461,164.07107301
98.51074832,2.79735702,-15.13454841,11.22466870,-2.64321476,0.78257184,-1.69689910

>  <Name>
ligand

>  <RI>
0

>  <Rbt.Current_Directory>
/home/itssahil/PROJECTS/Mol_Feturizer/Test_systems_manuscript/rnas/4kqy

>  <Rbt.Executable>
rbdock ($Id: //depot/dev/client3/rdock/2013.1/src/exe/rbdock.cxx#4 $)

>  <Rbt.Library>
libRbt.so (2013.1, Build901 2013/11/27)

>  <Rbt.Parameter_File>
/export/apps/rDock/src/rDock_2013.1_src/data/scripts/dock_solv.prm

>  <Rbt.Receptor>
prm/blind_docking_40.prm

>  <SCORE>
-17.803

>  <SCORE.INTER>
-15.7199

>  <SCORE.INTER.CONST>
1

>  <SCORE.INTER.POLAR>
0

>  <SCORE.INTER.ROT>
7

>  <SCORE.INTER.SOLV>
9.2087

>  <SCORE.INTER.VDW>
-21.8161

>  <SCORE.INTER.norm>
-0.582217

>  <SCORE.INTRA>
-2.08315

>  <SCORE.INTRA.DIHEDRAL>
-5.14383

>  <SCORE.INTRA.DIHEDRAL.0>
10.4103

>  <SCORE.INTRA.POLAR>
0

>  <SCORE.INTRA.POLAR.0>
0

>  <SCORE.INTRA.REPUL>
0

>  <SCORE.INTRA.REPUL.0>
0

>  <SCORE.INTRA.SOLV>
-0.108229

>  <SCORE.INTRA.SOLV.lig_0>
-49.5008

>  <SCORE.INTRA.VDW>
0.542881

>  <SCORE.INTRA.VDW.0>
-2.6946

>  <SCORE.INTRA.norm>
-0.0771536

>  <SCORE.RESTR>
0

>  <SCORE.RESTR.CAVITY>
0

>  <SCORE.RESTR.norm>
0

>  <SCORE.SYSTEM>
0

>  <SCORE.SYSTEM.CONST>
0

>  <SCORE.SYSTEM.DIHEDRAL>
0

>  <SCORE.SYSTEM.SOLV>
0

>  <SCORE.SYSTEM.norm>
0

>  <SCORE.heavy>
27

>  <SCORE.norm>
-0.659371

>  <RMSD>
13.332

$$$$
ligand
 OpenBabel02271912153D
libRbt.so/2013.1/901 2013/11/27
 27 29  0  0  0  0  0  0  0  0999 V2000
   -1.6650  -11.6149   13.4253 N   0  0  0  0  0  0  0  0  0  0  0  0
   -0.3478  -11.7478   12.8323 C   0  0  2  0  0  0  0  0  0  0  0  0
    0.1847  -10.3648   12.6157 C   0  0  0  0  0  0  0  0  0  0  0  0
   -0.1658   -9.4482   13.3897 O   0  0  0  0  0  0  0  0  0  0  0  0
   -0.4337  -12.4987   11.5007 C   0  0  0  0  0  0  0  0  0  0  0  0
   -0.7251  -14.0004   11.7163 C   0  0  0  0  0  0  0  0  0  0  0  0
    0.5217  -14.8880   12.4041 S   0  0  2  0  0  0  0  0  0  0  0  0
    0.6221  -14.5336   14.0237 C   0  0  0  0  0  0  0  0  0  0  0  0
    1.9745  -14.5299   11.6233 C   0  0  0  0  0  0  0  0  0  0  0  0
    3.2246  -15.0936   12.3313 C   0  0  1  0  0  0  0  0  0  0  0  0
    3.2133  -16.5264   12.4445 O   0  0  0  0  0  0  0  0  0  0  0  0
    4.5173  -14.8475   11.5702 C   0  0  1  0  0  0  0  0  0  0  0  0
    5.0589  -13.5116   11.5977 O   0  0  0  0  0  0  0  0  0  0  0  0
    5.4126  -15.8821   12.2059 C   0  0  1  0  0  0  0  0  0  0  0  0
    5.7526  -15.4867   13.5314 O   0  0  0  0  0  0  0  0  0  0  0  0
    4.5181  -17.0845   12.2717 C   0  0  2  0  0  0  0  0  0  0  0  0
    0.9964  -10.1574   11.6822 O   0  0  0  0  0  0  0  0  0  0  0  0
    5.9177  -17.6939    7.1780 N   0  0  0  0  0  0  0  0  0  0  0  0
    6.0046  -16.5912    7.9611 C   0  0  0  0  0  0  0  0  0  0  0  0
    5.6026  -16.5762    9.2431 N   0  0  0  0  0  0  0  0  0  0  0  0
    5.1056  -17.6651    9.8404 C   0  0  0  0  0  0  0  0  0  0  0  0
    5.0077  -18.8878    9.0577 C   0  0  0  0  0  0  0  0  0  0  0  0
    5.4366  -18.8905    7.6399 C   0  0  0  0  0  0  0  0  0  0  0  0
    5.3627  -20.0168    6.8469 N   0  0  0  0  0  0  0  0  0  0  0  0
    4.5099  -19.7925    9.8700 N   0  0  0  0  0  0  0  0  0  0  0  0
    4.2801  -19.2259   11.0625 C   0  0  0  0  0  0  0  0  0  0  0  0
    4.6419  -17.9435   11.0544 N   0  0  0  0  0  0  0  0  0  0  0  0
  2  1  1  6  0  0  0
  2  3  1  0  0  0  0
  2  5  1  0  0  0  0
  3  4  1  0  0  0  0
  3 17  1  0  0  0  0
  5  6  1  0  0  0  0
  7  6  1  6  0  0  0
  7  8  1  0  0  0  0
  7  9  1  0  0  0  0
 10  9  1  6  0  0  0
 10 11  1  0  0  0  0
 10 12  1  0  0  0  0
 11 16  1  0  0  0  0
 12 13  1  1  0  0  0
 12 14  1  0  0  0  0
 14 15  1  1  0  0  0
 14 16  1  0  0  0  0
 16 27  1  6  0  0  0
 18 19  2  0  0  0  0
 18 23  1  0  0  0  0
 19 20  1  0  0  0  0
 20 21  2  0  0  0  0
 21 22  1  0  0  0  0
 21 27  1  0  0  0  0
 22 23  2  0  0  0  0
 22 25  1  0  0  0  0
 23 24  1  0  0  0  0
 25 26  2  0  0  0  0
 26 27  1  0  0  0  0
M  END
>  <CHROM.1>
30.22622847,-72.15774128,-69.31659734,74.61543517,169.64492954,60.34859020
97.21034729,2.95770812,-15.26115602,11.27695713,2.22059578,0.27934168,0.29829945

>  <Name>
ligand

>  <RI>
0

>  <Rbt.Current_Directory>
/home/itssahil/PROJECTS/Mol_Feturizer/Test_systems_manuscript/rnas/4kqy

>  <Rbt.Executable>
rbdock ($Id: //depot/dev/client3/rdock/2013.1/src/exe/rbdock.cxx#4 $)

>  <Rbt.Library>
libRbt.so (2013.1, Build901 2013/11/27)

>  <Rbt.Parameter_File>
/export/apps/rDock/src/rDock_2013.1_src/data/scripts/dock_solv.prm

>  <Rbt.Receptor>
prm/blind_docking_80.prm

>  <SCORE>
-20.4868

>  <SCORE.INTER>
-19.5941

>  <SCORE.INTER.CONST>
1

>  <SCORE.INTER.POLAR>
0

>  <SCORE.INTER.ROT>
7

>  <SCORE.INTER.SOLV>
9.37345

>  <SCORE.INTER.VDW>
-24.4539

>  <SCORE.INTER.norm>
-0.725707

>  <SCORE.INTRA>
-0.892673

>  <SCORE.INTRA.DIHEDRAL>
-5.88456

>  <SCORE.INTRA.DIHEDRAL.0>
10.4103

>  <SCORE.INTRA.POLAR>
0

>  <SCORE.INTRA.POLAR.0>
0

>  <SCORE.INTRA.REPUL>
0

>  <SCORE.INTRA.REPUL.0>
0

>  <SCORE.INTRA.SOLV>
1.16512

>  <SCORE.INTRA.SOLV.lig_0>
-49.5008

>  <SCORE.INTRA.VDW>
1.46705

>  <SCORE.INTRA.VDW.0>
-2.6946

>  <SCORE.INTRA.norm>
-0.033062

>  <SCORE.RESTR>
0

>  <SCORE.RESTR.CAVITY>
0

>  <SCORE.RESTR.norm>
0

>  <SCORE.SYSTEM>
0

>  <SCORE.SYSTEM.CONST>
0

>  <SCORE.SYSTEM.DIHEDRAL>
0

>  <SCORE.SYSTEM.SOLV>
0

>  <SCORE.SYSTEM.norm>
0

>  <SCORE.heavy>
27

>  <SCORE.norm>
-0.758769

>  <RMSD>
13.345

$$$$
ligand
 OpenBabel02271912153D
libRbt.so/2013.1/901 2013/11/27
 27 29  0  0  0  0  0  0  0  0999 V2000
    2.9478  -11.3892   10.5311 N   0  0  0  0  0  0  0  0  0  0  0  0
    1.5440  -11.6103   10.2405 C   0  0  2  0  0  0  0  0  0  0  0  0
    1.1747  -10.7008    9.1094 C   0  0  0  0  0  0  0  0  0  0  0  0
    0.4360  -11.1305    8.1974 O   0  0  0  0  0  0  0  0  0  0  0  0
    0.6876  -11.3018   11.4717 C   0  0  0  0  0  0  0  0  0  0  0  0
    0.9814  -12.2858   12.6257 C   0  0  0  0  0  0  0  0  0  0  0  0
    0.2558  -13.7929   12.4940 S   0  0  2  0  0  0  0  0  0  0  0  0
   -0.0751  -14.3798   14.0121 C   0  0  0  0  0  0  0  0  0  0  0  0
    1.2754  -14.8451   11.6562 C   0  0  0  0  0  0  0  0  0  0  0  0
    2.5693  -15.2054   12.4163 C   0  0  1  0  0  0  0  0  0  0  0  0
    2.7532  -16.6212   12.5818 O   0  0  0  0  0  0  0  0  0  0  0  0
    3.8381  -14.8064   11.6801 C   0  0  1  0  0  0  0  0  0  0  0  0
    4.1883  -13.4078   11.6724 O   0  0  0  0  0  0  0  0  0  0  0  0
    4.8483  -15.6846   12.3762 C   0  0  1  0  0  0  0  0  0  0  0  0
    5.0896  -15.2022   13.6946 O   0  0  0  0  0  0  0  0  0  0  0  0
    4.1274  -16.9971   12.4632 C   0  0  2  0  0  0  0  0  0  0  0  0
    1.5867   -9.5161    9.1129 O   0  0  0  0  0  0  0  0  0  0  0  0
    5.9266  -17.6021    7.4960 N   0  0  0  0  0  0  0  0  0  0  0  0
    5.8679  -16.4788    8.2518 C   0  0  0  0  0  0  0  0  0  0  0  0
    5.3769  -16.4685    9.5025 N   0  0  0  0  0  0  0  0  0  0  0  0
    4.9297  -17.5813   10.0950 C   0  0  0  0  0  0  0  0  0  0  0  0
    4.9872  -18.8253    9.3422 C   0  0  0  0  0  0  0  0  0  0  0  0
    5.5134  -18.8240    7.9576 C   0  0  0  0  0  0  0  0  0  0  0  0
    5.5876  -19.9701    7.1936 N   0  0  0  0  0  0  0  0  0  0  0  0
    4.5090  -19.7497   10.1439 N   0  0  0  0  0  0  0  0  0  0  0  0
    4.1505  -19.1776   11.3015 C   0  0  0  0  0  0  0  0  0  0  0  0
    4.4061  -17.8700   11.2819 N   0  0  0  0  0  0  0  0  0  0  0  0
  2  1  1  1  0  0  0
  2  3  1  0  0  0  0
  2  5  1  0  0  0  0
  3  4  1  0  0  0  0
  3 17  1  0  0  0  0
  5  6  1  0  0  0  0
  7  6  1  1  0  0  0
  7  8  1  0  0  0  0
  7  9  1  0  0  0  0
 10  9  1  6  0  0  0
 10 11  1  0  0  0  0
 10 12  1  0  0  0  0
 11 16  1  0  0  0  0
 12 13  1  1  0  0  0
 12 14  1  0  0  0  0
 14 15  1  1  0  0  0
 14 16  1  0  0  0  0
 16 27  1  6  0  0  0
 18 19  2  0  0  0  0
 18 23  1  0  0  0  0
 19 20  1  0  0  0  0
 20 21  2  0  0  0  0
 21 22  1  0  0  0  0
 21 27  1  0  0  0  0
 22 23  2  0  0  0  0
 22 25  1  0  0  0  0
 23 24  1  0  0  0  0
 25 26  2  0  0  0  0
 26 27  1  0  0  0  0
M  END
>  <CHROM.1>
138.64054574,-65.28290142,-79.01177465,-148.65537162,67.48031668,124.35922356
101.26843420,3.11528618,-15.06866745,10.82817063,-2.76808620,-0.98156867
2.23272386

>  <Name>
ligand

>  <RI>
0

>  <Rbt.Current_Directory>
/home/itssahil/PROJECTS/Mol_Feturizer/Test_systems_manuscript/rnas/4kqy

>  <Rbt.Executable>
rbdock ($Id: //depot/dev/client3/rdock/2013.1/src/exe/rbdock.cxx#4 $)

>  <Rbt.Library>
libRbt.so (2013.1, Build901 2013/11/27)

>  <Rbt.Parameter_File>
/export/apps/rDock/src/rDock_2013.1_src/data/scripts/dock_solv.prm

>  <Rbt.Receptor>
prm/blind_docking_100.prm

>  <SCORE>
-16.5746

>  <SCORE.INTER>
-18.3323

>  <SCORE.INTER.CONST>
1

>  <SCORE.INTER.POLAR>
0

>  <SCORE.INTER.ROT>
7

>  <SCORE.INTER.SOLV>
9.49172

>  <SCORE.INTER.VDW>
-23.6521

>  <SCORE.INTER.norm>
-0.678976

>  <SCORE.INTRA>
1.75774

>  <SCORE.INTRA.DIHEDRAL>
1.37165

>  <SCORE.INTRA.DIHEDRAL.0>
10.4103

>  <SCORE.INTRA.POLAR>
0

>  <SCORE.INTRA.POLAR.0>
0

>  <SCORE.INTRA.REPUL>
0

>  <SCORE.INTRA.REPUL.0>
0

>  <SCORE.INTRA.SOLV>
3.27467

>  <SCORE.INTRA.SOLV.lig_0>
-49.5008

>  <SCORE.INTRA.VDW>
-0.565417

>  <SCORE.INTRA.VDW.0>
-2.6946

>  <SCORE.INTRA.norm>
0.0651016

>  <SCORE.RESTR>
0

>  <SCORE.RESTR.CAVITY>
0

>  <SCORE.RESTR.norm>
0

>  <SCORE.SYSTEM>
0

>  <SCORE.SYSTEM.CONST>
0

>  <SCORE.SYSTEM.DIHEDRAL>
0

>  <SCORE.SYSTEM.SOLV>
0

>  <SCORE.SYSTEM.norm>
0

>  <SCORE.heavy>
27

>  <SCORE.norm>
-0.613874

>  <RMSD>
13.378

$$$$
ligand
 OpenBabel02271912153D
libRbt.so/2013.1/901 2013/11/27
 27 29  0  0  0  0  0  0  0  0999 V2000
  -17.7043  -10.4182   23.6817 N   0  0  0  0  0  0  0  0  0  0  0  0
  -18.0379   -9.0249   23.4545 C   0  0  2  0  0  0  0  0  0  0  0  0
  -18.5984   -8.9212   22.0696 C   0  0  0  0  0  0  0  0  0  0  0  0
  -18.7360   -7.7927   21.5501 O   0  0  0  0  0  0  0  0  0  0  0  0
  -16.7908   -8.1471   23.5901 C   0  0  0  0  0  0  0  0  0  0  0  0
  -15.7033   -8.5481   22.5688 C   0  0  0  0  0  0  0  0  0  0  0  0
  -14.1847   -7.8847   22.8309 S   0  0  2  0  0  0  0  0  0  0  0  0
  -13.6310   -8.3490   24.3264 C   0  0  0  0  0  0  0  0  0  0  0  0
  -14.2709   -6.2026   22.7218 C   0  0  0  0  0  0  0  0  0  0  0  0
  -14.6310   -5.6812   21.3146 C   0  0  1  0  0  0  0  0  0  0  0  0
  -15.1480   -4.3401   21.3228 O   0  0  0  0  0  0  0  0  0  0  0  0
  -13.4322   -5.5516   20.3890 C   0  0  1  0  0  0  0  0  0  0  0  0
  -12.8846   -6.7666   19.8389 O   0  0  0  0  0  0  0  0  0  0  0  0
  -13.9863   -4.6073   19.3510 C   0  0  1  0  0  0  0  0  0  0  0  0
  -14.9378   -5.2824   18.5338 O   0  0  0  0  0  0  0  0  0  0  0  0
  -14.7012   -3.5904   20.1906 C   0  0  2  0  0  0  0  0  0  0  0  0
  -18.8901   -9.9685   21.4440 O   0  0  0  0  0  0  0  0  0  0  0  0
  -10.2819   -0.7416   19.3971 N   0  0  0  0  0  0  0  0  0  0  0  0
  -10.7166   -1.8439   18.7393 C   0  0  0  0  0  0  0  0  0  0  0  0
  -11.8611   -2.4738   19.0531 N   0  0  0  0  0  0  0  0  0  0  0  0
  -12.6631   -2.0368   20.0305 C   0  0  0  0  0  0  0  0  0  0  0  0
  -12.2618   -0.8432   20.7597 C   0  0  0  0  0  0  0  0  0  0  0  0
  -10.9895   -0.1655   20.4189 C   0  0  0  0  0  0  0  0  0  0  0  0
  -10.5544    0.9656   21.0779 N   0  0  0  0  0  0  0  0  0  0  0  0
  -13.2134   -0.6254   21.6388 N   0  0  0  0  0  0  0  0  0  0  0  0
  -14.1408   -1.5858   21.5218 C   0  0  0  0  0  0  0  0  0  0  0  0
  -13.8186   -2.4384   20.5498 N   0  0  0  0  0  0  0  0  0  0  0  0
  2  1  1  6  0  0  0
  2  3  1  0  0  0  0
  2  5  1  0  0  0  0
  3  4  1  0  0  0  0
  3 17  1  0  0  0  0
  5  6  1  0  0  0  0
  7  6  1  1  0  0  0
  7  8  1  0  0  0  0
  7  9  1  0  0  0  0
 10  9  1  1  0  0  0
 10 11  1  0  0  0  0
 10 12  1  0  0  0  0
 11 16  1  0  0  0  0
 12 13  1  6  0  0  0
 12 14  1  0  0  0  0
 14 15  1  6  0  0  0
 14 16  1  0  0  0  0
 16 27  1  1  0  0  0
 18 19  2  0  0  0  0
 18 23  1  0  0  0  0
 19 20  1  0  0  0  0
 20 21  2  0  0  0  0
 21 22  1  0  0  0  0
 21 27  1  0  0  0  0
 22 23  2  0  0  0  0
 22 25  1  0  0  0  0
 23 24  1  0  0  0  0
 25 26  2  0  0  0  0
 26 27  1  0  0  0  0
M  END
>  <CHROM.1>
-167.15178768,60.02331201,-167.56925106,59.56679346,-65.41291341,159.73004037
133.64748453,-14.38812705,-5.17867261,21.28778708,-2.23997475,-0.50382089
-0.67830662

>  <Name>
ligand

>  <RI>
0

>  <Rbt.Current_Directory>
/home/itssahil/PROJECTS/Mol_Feturizer/Test_systems_manuscript/rnas/4kqy

>  <Rbt.Executable>
rbdock ($Id: //depot/dev/client3/rdock/2013.1/src/exe/rbdock.cxx#4 $)

>  <Rbt.Library>
libRbt.so (2013.1, Build901 2013/11/27)

>  <Rbt.Parameter_File>
/export/apps/rDock/src/rDock_2013.1_src/data/scripts/dock_solv.prm

>  <Rbt.Receptor>
prm/blind_docking_100.prm

>  <SCORE>
-14.9009

>  <SCORE.INTER>
-13.5904

>  <SCORE.INTER.CONST>
1

>  <SCORE.INTER.POLAR>
0

>  <SCORE.INTER.ROT>
7

>  <SCORE.INTER.SOLV>
11.7789

>  <SCORE.INTER.VDW>
-21.2533

>  <SCORE.INTER.norm>
-0.503348

>  <SCORE.INTRA>
-1.31045

>  <SCORE.INTRA.DIHEDRAL>
-5.7148

>  <SCORE.INTRA.DIHEDRAL.0>
10.4103

>  <SCORE.INTRA.POLAR>
0

>  <SCORE.INTRA.POLAR.0>
0

>  <SCORE.INTRA.REPUL>
0

>  <SCORE.INTRA.REPUL.0>
0

>  <SCORE.INTRA.SOLV>
0.419505

>  <SCORE.INTRA.SOLV.lig_0>
-49.5008

>  <SCORE.INTRA.VDW>
1.33719

>  <SCORE.INTRA.VDW.0>
-2.6946

>  <SCORE.INTRA.norm>
-0.0485352

>  <SCORE.RESTR>
0

>  <SCORE.RESTR.CAVITY>
0

>  <SCORE.RESTR.norm>
0

>  <SCORE.SYSTEM>
0

>  <SCORE.SYSTEM.CONST>
0

>  <SCORE.SYSTEM.DIHEDRAL>
0

>  <SCORE.SYSTEM.SOLV>
0

>  <SCORE.SYSTEM.norm>
0

>  <SCORE.heavy>
27

>  <SCORE.norm>
-0.551884

>  <RMSD>
13.417

$$$$
ligand
 OpenBabel02271912153D
libRbt.so/2013.1/901 2013/11/27
 27 29  0  0  0  0  0  0  0  0999 V2000
   -1.1725  -10.0545   10.6445 N   0  0  0  0  0  0  0  0  0  0  0  0
   -0.1525  -10.8100   11.3467 C   0  0  2  0  0  0  0  0  0  0  0  0
    0.7629   -9.8213   12.0006 C   0  0  0  0  0  0  0  0  0  0  0  0
    1.0860   -9.9875   13.1965 O   0  0  0  0  0  0  0  0  0  0  0  0
    0.6288  -11.6916   10.3687 C   0  0  0  0  0  0  0  0  0  0  0  0
    1.6162  -12.6203   11.1097 C   0  0  0  0  0  0  0  0  0  0  0  0
    0.9317  -13.6389   12.2539 S   0  0  2  0  0  0  0  0  0  0  0  0
    1.3630  -13.1285   13.7745 C   0  0  0  0  0  0  0  0  0  0  0  0
    1.4472  -15.2237   11.9873 C   0  0  0  0  0  0  0  0  0  0  0  0
    2.8590  -15.5259   12.5327 C   0  0  1  0  0  0  0  0  0  0  0  0
    3.1540  -16.9314   12.5921 O   0  0  0  0  0  0  0  0  0  0  0  0
    3.9780  -15.0059   11.6449 C   0  0  1  0  0  0  0  0  0  0  0  0
    4.2344  -13.5873   11.6636 O   0  0  0  0  0  0  0  0  0  0  0  0
    5.1329  -15.8414   12.1393 C   0  0  1  0  0  0  0  0  0  0  0  0
    5.5345  -15.4032   13.4338 O   0  0  0  0  0  0  0  0  0  0  0  0
    4.5167  -17.2040   12.2569 C   0  0  2  0  0  0  0  0  0  0  0  0
    1.2139   -8.8628   11.3290 O   0  0  0  0  0  0  0  0  0  0  0  0
    5.9848  -17.5381    7.1570 N   0  0  0  0  0  0  0  0  0  0  0  0
    6.0381  -16.4725    7.9926 C   0  0  0  0  0  0  0  0  0  0  0  0
    5.6220  -16.5277    9.2689 N   0  0  0  0  0  0  0  0  0  0  0  0
    5.1435  -17.6546    9.8079 C   0  0  0  0  0  0  0  0  0  0  0  0
    5.0820  -18.8404    8.9669 C   0  0  0  0  0  0  0  0  0  0  0  0
    5.5261  -18.7658    7.5557 C   0  0  0  0  0  0  0  0  0  0  0  0
    5.4864  -19.8544    6.7093 N   0  0  0  0  0  0  0  0  0  0  0  0
    4.5961  -19.7937    9.7293 N   0  0  0  0  0  0  0  0  0  0  0  0
    4.3406  -19.2900   10.9446 C   0  0  0  0  0  0  0  0  0  0  0  0
    4.6732  -18.0009   11.0017 N   0  0  0  0  0  0  0  0  0  0  0  0
  2  1  1  6  0  0  0
  2  3  1  0  0  0  0
  2  5  1  0  0  0  0
  3  4  1  0  0  0  0
  3 17  1  0  0  0  0
  5  6  1  0  0  0  0
  7  6  1  6  0  0  0
  7  8  1  0  0  0  0
  7  9  1  0  0  0  0
 10  9  1  6  0  0  0
 10 11  1  0  0  0  0
 10 12  1  0  0  0  0
 11 16  1  0  0  0  0
 12 13  1  1  0  0  0
 12 14  1  0  0  0  0
 14 15  1  1  0  0  0
 14 16  1  0  0  0  0
 16 27  1  6  0  0  0
 18 19  2  0  0  0  0
 18 23  1  0  0  0  0
 19 20  1  0  0  0  0
 20 21  2  0  0  0  0
 21 22  1  0  0  0  0
 21 27  1  0  0  0  0
 22 23  2  0  0  0  0
 22 25  1  0  0  0  0
 23 24  1  0  0  0  0
 25 26  2  0  0  0  0
 26 27  1  0  0  0  0
M  END
>  <CHROM.1>
133.06619229,-173.78265176,57.42666037,-109.01322598,79.88179431,165.83641423
110.06049267,3.16161530,-14.93610219,11.00547652,3.01031166,-1.03931743,1.77181472

>  <Name>
ligand

>  <RI>
0

>  <Rbt.Current_Directory>
/home/itssahil/PROJECTS/Mol_Feturizer/Test_systems_manuscript/rnas/4kqy

>  <Rbt.Executable>
rbdock ($Id: //depot/dev/client3/rdock/2013.1/src/exe/rbdock.cxx#4 $)

>  <Rbt.Library>
libRbt.so (2013.1, Build901 2013/11/27)

>  <Rbt.Parameter_File>
/export/apps/rDock/src/rDock_2013.1_src/data/scripts/dock_solv.prm

>  <Rbt.Receptor>
prm/blind_docking_80.prm

>  <SCORE>
-17.973

>  <SCORE.INTER>
-17.5488

>  <SCORE.INTER.CONST>
1

>  <SCORE.INTER.POLAR>
0

>  <SCORE.INTER.ROT>
7

>  <SCORE.INTER.SOLV>
10.9674

>  <SCORE.INTER.VDW>
-23.6216

>  <SCORE.INTER.norm>
-0.649954

>  <SCORE.INTRA>
-0.424291

>  <SCORE.INTRA.DIHEDRAL>
-1.28083

>  <SCORE.INTRA.DIHEDRAL.0>
10.4103

>  <SCORE.INTRA.POLAR>
0

>  <SCORE.INTRA.POLAR.0>
0

>  <SCORE.INTRA.REPUL>
0

>  <SCORE.INTRA.REPUL.0>
0

>  <SCORE.INTRA.SOLV>
0.0728878

>  <SCORE.INTRA.SOLV.lig_0>
-49.5008

>  <SCORE.INTRA.VDW>
0.179681

>  <SCORE.INTRA.VDW.0>
-2.6946

>  <SCORE.INTRA.norm>
-0.0157145

>  <SCORE.RESTR>
0

>  <SCORE.RESTR.CAVITY>
0

>  <SCORE.RESTR.norm>
0

>  <SCORE.SYSTEM>
0

>  <SCORE.SYSTEM.CONST>
0

>  <SCORE.SYSTEM.DIHEDRAL>
0

>  <SCORE.SYSTEM.SOLV>
0

>  <SCORE.SYSTEM.norm>
0

>  <SCORE.heavy>
27

>  <SCORE.norm>
-0.665668

>  <RMSD>
13.425

$$$$
ligand
 OpenBabel02271912153D
libRbt.so/2013.1/901 2013/11/27
 27 29  0  0  0  0  0  0  0  0999 V2000
    8.2181   -7.7225    7.5964 N   0  0  0  0  0  0  0  0  0  0  0  0
    7.6622   -8.9910    8.0275 C   0  0  2  0  0  0  0  0  0  0  0  0
    8.8076   -9.9364    8.2215 C   0  0  0  0  0  0  0  0  0  0  0  0
    9.8042   -9.8489    7.4722 O   0  0  0  0  0  0  0  0  0  0  0  0
    6.6950   -9.5373    6.9738 C   0  0  0  0  0  0  0  0  0  0  0  0
    5.9596  -10.7978    7.4807 C   0  0  0  0  0  0  0  0  0  0  0  0
    4.9721  -10.5707    8.8180 S   0  0  2  0  0  0  0  0  0  0  0  0
    4.7740  -12.0177    9.6089 C   0  0  0  0  0  0  0  0  0  0  0  0
    3.4816   -9.9496    8.3271 C   0  0  0  0  0  0  0  0  0  0  0  0
    2.4720   -9.7537    9.4778 C   0  0  1  0  0  0  0  0  0  0  0  0
    2.1691   -8.3726    9.7362 O   0  0  0  0  0  0  0  0  0  0  0  0
    1.0959  -10.3289    9.1839 C   0  0  1  0  0  0  0  0  0  0  0  0
    0.9483  -11.7616    9.2492 O   0  0  0  0  0  0  0  0  0  0  0  0
    0.2633   -9.5829   10.1971 C   0  0  1  0  0  0  0  0  0  0  0  0
    0.5316  -10.0736   11.5072 O   0  0  0  0  0  0  0  0  0  0  0  0
    0.7950   -8.1849   10.0833 C   0  0  2  0  0  0  0  0  0  0  0  0
    8.7606  -10.7773    9.1509 O   0  0  0  0  0  0  0  0  0  0  0  0
    0.3554   -3.8549    7.0282 N   0  0  0  0  0  0  0  0  0  0  0  0
    1.3537   -4.2039    7.8757 C   0  0  0  0  0  0  0  0  0  0  0  0
    1.3312   -5.3361    8.5989 N   0  0  0  0  0  0  0  0  0  0  0  0
    0.3220   -6.2098    8.5121 C   0  0  0  0  0  0  0  0  0  0  0  0
   -0.7704   -5.9021    7.6014 C   0  0  0  0  0  0  0  0  0  0  0  0
   -0.7459   -4.6430    6.8214 C   0  0  0  0  0  0  0  0  0  0  0  0
   -1.7544   -4.2949    5.9471 N   0  0  0  0  0  0  0  0  0  0  0  0
   -1.6076   -6.9102    7.6950 N   0  0  0  0  0  0  0  0  0  0  0  0
   -1.1330   -7.7872    8.5903 C   0  0  0  0  0  0  0  0  0  0  0  0
    0.0338   -7.3744    9.0840 N   0  0  0  0  0  0  0  0  0  0  0  0
  2  1  1  6  0  0  0
  2  3  1  0  0  0  0
  2  5  1  0  0  0  0
  3  4  1  0  0  0  0
  3 17  1  0  0  0  0
  5  6  1  0  0  0  0
  7  6  1  6  0  0  0
  7  8  1  0  0  0  0
  7  9  1  0  0  0  0
 10  9  1  6  0  0  0
 10 11  1  0  0  0  0
 10 12  1  0  0  0  0
 11 16  1  0  0  0  0
 12 13  1  1  0  0  0
 12 14  1  0  0  0  0
 14 15  1  1  0  0  0
 14 16  1  0  0  0  0
 16 27  1  6  0  0  0
 18 19  2  0  0  0  0
 18 23  1  0  0  0  0
 19 20  1  0  0  0  0
 20 21  2  0  0  0  0
 21 22  1  0  0  0  0
 21 27  1  0  0  0  0
 22 23  2  0  0  0  0
 22 25  1  0  0  0  0
 23 24  1  0  0  0  0
 25 26  2  0  0  0  0
 26 27  1  0  0  0  0
M  END
>  <CHROM.1>
-34.10045469,-173.08861233,62.87433572,-156.54606398,177.72098327,112.92157192
-48.83651967,2.96926932,-8.52843107,8.52425797,-0.42695732,0.19753094,-0.46009157

>  <Name>
ligand

>  <RI>
0

>  <Rbt.Current_Directory>
/home/itssahil/PROJECTS/Mol_Feturizer/Test_systems_manuscript/rnas/4kqy

>  <Rbt.Executable>
rbdock ($Id: //depot/dev/client3/rdock/2013.1/src/exe/rbdock.cxx#4 $)

>  <Rbt.Library>
libRbt.so (2013.1, Build901 2013/11/27)

>  <Rbt.Parameter_File>
/export/apps/rDock/src/rDock_2013.1_src/data/scripts/dock_solv.prm

>  <Rbt.Receptor>
prm/blind_docking_20.prm

>  <SCORE>
-16.6689

>  <SCORE.INTER>
-16.7159

>  <SCORE.INTER.CONST>
1

>  <SCORE.INTER.POLAR>
0

>  <SCORE.INTER.ROT>
7

>  <SCORE.INTER.SOLV>
12.3628

>  <SCORE.INTER.VDW>
-23.5315

>  <SCORE.INTER.norm>
-0.619107

>  <SCORE.INTRA>
0.0469674

>  <SCORE.INTRA.DIHEDRAL>
-0.867305

>  <SCORE.INTRA.DIHEDRAL.0>
10.4103

>  <SCORE.INTRA.POLAR>
0

>  <SCORE.INTRA.POLAR.0>
0

>  <SCORE.INTRA.REPUL>
0

>  <SCORE.INTRA.REPUL.0>
0

>  <SCORE.INTRA.SOLV>
-0.401851

>  <SCORE.INTRA.SOLV.lig_0>
-49.5008

>  <SCORE.INTRA.VDW>
0.681545

>  <SCORE.INTRA.VDW.0>
-2.6946

>  <SCORE.INTRA.norm>
0.00173953

>  <SCORE.RESTR>
0

>  <SCORE.RESTR.CAVITY>
0

>  <SCORE.RESTR.norm>
0

>  <SCORE.SYSTEM>
0

>  <SCORE.SYSTEM.CONST>
0

>  <SCORE.SYSTEM.DIHEDRAL>
0

>  <SCORE.SYSTEM.SOLV>
0

>  <SCORE.SYSTEM.norm>
0

>  <SCORE.heavy>
27

>  <SCORE.norm>
-0.617368

>  <RMSD>
13.450

$$$$
ligand
 OpenBabel02271912153D
libRbt.so/2013.1/901 2013/11/27
 27 29  0  0  0  0  0  0  0  0999 V2000
  -15.2537   -0.7060   19.6370 N   0  0  0  0  0  0  0  0  0  0  0  0
  -15.1761   -1.1104   21.0279 C   0  0  2  0  0  0  0  0  0  0  0  0
  -13.9977   -0.4093   21.6305 C   0  0  0  0  0  0  0  0  0  0  0  0
  -12.8567   -0.6276   21.1693 O   0  0  0  0  0  0  0  0  0  0  0  0
  -15.0034   -2.6279   21.1352 C   0  0  0  0  0  0  0  0  0  0  0  0
  -16.3595   -3.3601   21.0289 C   0  0  0  0  0  0  0  0  0  0  0  0
  -16.2722   -5.0317   20.9136 S   0  0  2  0  0  0  0  0  0  0  0  0
  -17.8066   -5.6572   20.7994 C   0  0  0  0  0  0  0  0  0  0  0  0
  -15.4720   -5.6552   22.2625 C   0  0  0  0  0  0  0  0  0  0  0  0
  -15.1322   -7.1567   22.1538 C   0  0  1  0  0  0  0  0  0  0  0  0
  -13.8825   -7.5008   22.7750 O   0  0  0  0  0  0  0  0  0  0  0  0
  -16.1099   -8.0564   22.8924 C   0  0  1  0  0  0  0  0  0  0  0  0
  -17.4023   -8.2676   22.2891 O   0  0  0  0  0  0  0  0  0  0  0  0
  -15.2844   -9.3126   23.0221 C   0  0  1  0  0  0  0  0  0  0  0  0
  -15.1680   -9.9542   21.7557 O   0  0  0  0  0  0  0  0  0  0  0  0
  -13.9417   -8.7752   23.4200 C   0  0  2  0  0  0  0  0  0  0  0  0
  -14.1796    0.4073   22.5650 O   0  0  0  0  0  0  0  0  0  0  0  0
  -16.0834   -8.6895   28.2864 N   0  0  0  0  0  0  0  0  0  0  0  0
  -16.7006   -8.7854   27.0837 C   0  0  0  0  0  0  0  0  0  0  0  0
  -16.0291   -8.7879   25.9199 N   0  0  0  0  0  0  0  0  0  0  0  0
  -14.6941   -8.7162   25.8744 C   0  0  0  0  0  0  0  0  0  0  0  0
  -13.9720   -8.6339   27.1350 C   0  0  0  0  0  0  0  0  0  0  0  0
  -14.7214   -8.6137   28.4126 C   0  0  0  0  0  0  0  0  0  0  0  0
  -14.0927   -8.5316   29.6376 N   0  0  0  0  0  0  0  0  0  0  0  0
  -12.6988   -8.5889   26.8145 N   0  0  0  0  0  0  0  0  0  0  0  0
  -12.5858   -8.6167   25.4794 C   0  0  0  0  0  0  0  0  0  0  0  0
  -13.7852   -8.6988   24.9049 N   0  0  0  0  0  0  0  0  0  0  0  0
  2  1  1  6  0  0  0
  2  3  1  0  0  0  0
  2  5  1  0  0  0  0
  3  4  1  0  0  0  0
  3 17  1  0  0  0  0
  5  6  1  0  0  0  0
  7  6  1  1  0  0  0
  7  8  1  0  0  0  0
  7  9  1  0  0  0  0
 10  9  1  1  0  0  0
 10 11  1  0  0  0  0
 10 12  1  0  0  0  0
 11 16  1  0  0  0  0
 12 13  1  6  0  0  0
 12 14  1  0  0  0  0
 14 15  1  6  0  0  0
 14 16  1  0  0  0  0
 16 27  1  1  0  0  0
 18 19  2  0  0  0  0
 18 23  1  0  0  0  0
 19 20  1  0  0  0  0
 20 21  2  0  0  0  0
 21 22  1  0  0  0  0
 21 27  1  0  0  0  0
 22 23  2  0  0  0  0
 22 25  1  0  0  0  0
 23 24  1  0  0  0  0
 25 26  2  0  0  0  0
 26 27  1  0  0  0  0
M  END
>  <CHROM.1>
-61.20896375,-82.83679689,171.62070972,-179.69941882,-170.58475630,144.75768865
99.04515999,-15.06184870,-6.18605693,23.47366253,-1.63217857,1.10840845,2.54606670

>  <Name>
ligand

>  <RI>
0

>  <Rbt.Current_Directory>
/home/itssahil/PROJECTS/Mol_Feturizer/Test_systems_manuscript/rnas/4kqy

>  <Rbt.Executable>
rbdock ($Id: //depot/dev/client3/rdock/2013.1/src/exe/rbdock.cxx#4 $)

>  <Rbt.Library>
libRbt.so (2013.1, Build901 2013/11/27)

>  <Rbt.Parameter_File>
/export/apps/rDock/src/rDock_2013.1_src/data/scripts/dock_solv.prm

>  <Rbt.Receptor>
prm/blind_docking_100.prm

>  <SCORE>
-13.0916

>  <SCORE.INTER>
-12.3597

>  <SCORE.INTER.CONST>
1

>  <SCORE.INTER.POLAR>
0

>  <SCORE.INTER.ROT>
7

>  <SCORE.INTER.SOLV>
11.3606

>  <SCORE.INTER.VDW>
-20.2933

>  <SCORE.INTER.norm>
-0.457767

>  <SCORE.INTRA>
-0.731934

>  <SCORE.INTRA.DIHEDRAL>
-2.04886

>  <SCORE.INTRA.DIHEDRAL.0>
10.4103

>  <SCORE.INTRA.POLAR>
0

>  <SCORE.INTRA.POLAR.0>
0

>  <SCORE.INTRA.REPUL>
0

>  <SCORE.INTRA.REPUL.0>
0

>  <SCORE.INTRA.SOLV>
0.0894167

>  <SCORE.INTRA.SOLV.lig_0>
-49.5008

>  <SCORE.INTRA.VDW>
0.247787

>  <SCORE.INTRA.VDW.0>
-2.6946

>  <SCORE.INTRA.norm>
-0.0271087

>  <SCORE.RESTR>
0

>  <SCORE.RESTR.CAVITY>
0

>  <SCORE.RESTR.norm>
0

>  <SCORE.SYSTEM>
0

>  <SCORE.SYSTEM.CONST>
0

>  <SCORE.SYSTEM.DIHEDRAL>
0

>  <SCORE.SYSTEM.SOLV>
0

>  <SCORE.SYSTEM.norm>
0

>  <SCORE.heavy>
27

>  <SCORE.norm>
-0.484876

>  <RMSD>
13.453

$$$$
ligand
 OpenBabel02271912153D
libRbt.so/2013.1/901 2013/11/27
 27 29  0  0  0  0  0  0  0  0999 V2000
  -13.7013   -5.7076   21.1349 N   0  0  0  0  0  0  0  0  0  0  0  0
  -14.7415   -4.6966   21.1341 C   0  0  2  0  0  0  0  0  0  0  0  0
  -14.0965   -3.3937   21.4939 C   0  0  0  0  0  0  0  0  0  0  0  0
  -13.1024   -3.3940   22.2516 O   0  0  0  0  0  0  0  0  0  0  0  0
  -15.8310   -5.0488   22.1506 C   0  0  0  0  0  0  0  0  0  0  0  0
  -16.4239   -6.4496   21.8813 C   0  0  0  0  0  0  0  0  0  0  0  0
  -15.5064   -7.7419   22.4323 S   0  0  2  0  0  0  0  0  0  0  0  0
  -16.2494   -9.1656   22.0085 C   0  0  0  0  0  0  0  0  0  0  0  0
  -15.3245   -7.6387   24.1070 C   0  0  0  0  0  0  0  0  0  0  0  0
  -14.3774   -8.7014   24.7034 C   0  0  1  0  0  0  0  0  0  0  0  0
  -13.6489   -8.2311   25.8496 O   0  0  0  0  0  0  0  0  0  0  0  0
  -15.1013   -9.9142   25.2655 C   0  0  1  0  0  0  0  0  0  0  0  0
  -15.6336  -10.8651   24.3215 O   0  0  0  0  0  0  0  0  0  0  0  0
  -14.0312  -10.4812   26.1653 C   0  0  1  0  0  0  0  0  0  0  0  0
  -12.9972  -11.0716   25.3836 O   0  0  0  0  0  0  0  0  0  0  0  0
  -13.4919   -9.2531   26.8368 C   0  0  2  0  0  0  0  0  0  0  0  0
  -14.5447   -2.3294   21.0044 O   0  0  0  0  0  0  0  0  0  0  0  0
  -13.3563   -8.1269   32.0320 N   0  0  0  0  0  0  0  0  0  0  0  0
  -12.3261   -8.3346   31.1763 C   0  0  0  0  0  0  0  0  0  0  0  0
  -12.5070   -8.6212   29.8761 N   0  0  0  0  0  0  0  0  0  0  0  0
  -13.7270   -8.6997   29.3332 C   0  0  0  0  0  0  0  0  0  0  0  0
  -14.8744   -8.4642   30.1967 C   0  0  0  0  0  0  0  0  0  0  0  0
  -14.6661   -8.1666   31.6327 C   0  0  0  0  0  0  0  0  0  0  0  0
  -15.7141   -7.9398   32.5006 N   0  0  0  0  0  0  0  0  0  0  0  0
  -15.9315   -8.5856   29.4261 N   0  0  0  0  0  0  0  0  0  0  0  0
  -15.5311   -8.8912   28.1843 C   0  0  0  0  0  0  0  0  0  0  0  0
  -14.2018   -8.9567   28.1188 N   0  0  0  0  0  0  0  0  0  0  0  0
  2  1  1  1  0  0  0
  2  3  1  0  0  0  0
  2  5  1  0  0  0  0
  3  4  1  0  0  0  0
  3 17  1  0  0  0  0
  5  6  1  0  0  0  0
  7  6  1  1  0  0  0
  7  8  1  0  0  0  0
  7  9  1  0  0  0  0
 10  9  1  1  0  0  0
 10 11  1  0  0  0  0
 10 12  1  0  0  0  0
 11 16  1  0  0  0  0
 12 13  1  6  0  0  0
 12 14  1  0  0  0  0
 14 15  1  6  0  0  0
 14 16  1  0  0  0  0
 16 27  1  1  0  0  0
 18 19  2  0  0  0  0
 18 23  1  0  0  0  0
 19 20  1  0  0  0  0
 20 21  2  0  0  0  0
 21 22  1  0  0  0  0
 21 27  1  0  0  0  0
 22 23  2  0  0  0  0
 22 25  1  0  0  0  0
 23 24  1  0  0  0  0
 25 26  2  0  0  0  0
 26 27  1  0  0  0  0
M  END
>  <CHROM.1>
-30.79148864,-56.23586997,79.58749934,-177.64090224,-174.18781032,147.19196697
-113.04837978,-14.55419775,-7.71685734,25.64970218,-1.94452557,1.36363022
2.31432148

>  <Name>
ligand

>  <RI>
0

>  <Rbt.Current_Directory>
/home/itssahil/PROJECTS/Mol_Feturizer/Test_systems_manuscript/rnas/4kqy

>  <Rbt.Executable>
rbdock ($Id: //depot/dev/client3/rdock/2013.1/src/exe/rbdock.cxx#4 $)

>  <Rbt.Library>
libRbt.so (2013.1, Build901 2013/11/27)

>  <Rbt.Parameter_File>
/export/apps/rDock/src/rDock_2013.1_src/data/scripts/dock_solv.prm

>  <Rbt.Receptor>
prm/blind_docking_100.prm

>  <SCORE>
-12.215

>  <SCORE.INTER>
-12.5225

>  <SCORE.INTER.CONST>
1

>  <SCORE.INTER.POLAR>
0

>  <SCORE.INTER.ROT>
7

>  <SCORE.INTER.SOLV>
15.032

>  <SCORE.INTER.VDW>
-21.6257

>  <SCORE.INTER.norm>
-0.463796

>  <SCORE.INTRA>
0.307533

>  <SCORE.INTRA.DIHEDRAL>
-3.22521

>  <SCORE.INTRA.DIHEDRAL.0>
10.4103

>  <SCORE.INTRA.POLAR>
0

>  <SCORE.INTRA.POLAR.0>
0

>  <SCORE.INTRA.REPUL>
0

>  <SCORE.INTRA.REPUL.0>
0

>  <SCORE.INTRA.SOLV>
2.30734

>  <SCORE.INTRA.SOLV.lig_0>
-49.5008

>  <SCORE.INTRA.VDW>
0.766464

>  <SCORE.INTRA.VDW.0>
-2.6946

>  <SCORE.INTRA.norm>
0.0113901

>  <SCORE.RESTR>
0

>  <SCORE.RESTR.CAVITY>
0

>  <SCORE.RESTR.norm>
0

>  <SCORE.SYSTEM>
0

>  <SCORE.SYSTEM.CONST>
0

>  <SCORE.SYSTEM.DIHEDRAL>
0

>  <SCORE.SYSTEM.SOLV>
0

>  <SCORE.SYSTEM.norm>
0

>  <SCORE.heavy>
27

>  <SCORE.norm>
-0.452406

>  <RMSD>
13.485

$$$$
ligand
 OpenBabel02271912153D
libRbt.so/2013.1/901 2013/11/27
 27 29  0  0  0  0  0  0  0  0999 V2000
  -14.9581   -4.9161   21.6308 N   0  0  0  0  0  0  0  0  0  0  0  0
  -14.0667   -6.0303   21.3693 C   0  0  2  0  0  0  0  0  0  0  0  0
  -14.1538   -6.3362   19.9057 C   0  0  0  0  0  0  0  0  0  0  0  0
  -13.1046   -6.5699   19.2680 O   0  0  0  0  0  0  0  0  0  0  0  0
  -14.4815   -7.2523   22.1932 C   0  0  0  0  0  0  0  0  0  0  0  0
  -15.9807   -7.5760   22.0088 C   0  0  0  0  0  0  0  0  0  0  0  0
  -16.5602   -8.8626   22.9168 S   0  0  2  0  0  0  0  0  0  0  0  0
  -18.1691   -9.0964   22.5771 C   0  0  0  0  0  0  0  0  0  0  0  0
  -16.3364   -8.5473   24.5597 C   0  0  0  0  0  0  0  0  0  0  0  0
  -14.8638   -8.6097   25.0172 C   0  0  1  0  0  0  0  0  0  0  0  0
  -14.6083   -7.8476   26.2087 O   0  0  0  0  0  0  0  0  0  0  0  0
  -14.4139  -10.0017   25.4306 C   0  0  1  0  0  0  0  0  0  0  0  0
  -14.1665  -10.9579   24.3802 O   0  0  0  0  0  0  0  0  0  0  0  0
  -13.1923   -9.6648   26.2492 C   0  0  1  0  0  0  0  0  0  0  0  0
  -12.1346   -9.2373   25.3962 O   0  0  0  0  0  0  0  0  0  0  0  0
  -13.6630   -8.4959   27.0630 C   0  0  2  0  0  0  0  0  0  0  0  0
  -15.2788   -6.3835   19.3530 O   0  0  0  0  0  0  0  0  0  0  0  0
  -13.5387   -8.4826   32.3790 N   0  0  0  0  0  0  0  0  0  0  0  0
  -12.7012   -7.8747   31.5040 C   0  0  0  0  0  0  0  0  0  0  0  0
  -12.8476   -7.9694   30.1718 N   0  0  0  0  0  0  0  0  0  0  0  0
  -13.8515   -8.6590   29.6186 C   0  0  0  0  0  0  0  0  0  0  0  0
  -14.7982   -9.3164   30.5068 C   0  0  0  0  0  0  0  0  0  0  0  0
  -14.6188   -9.2216   31.9741 C   0  0  0  0  0  0  0  0  0  0  0  0
  -15.4801   -9.8274   32.8652 N   0  0  0  0  0  0  0  0  0  0  0  0
  -15.6758   -9.9009   29.7231 N   0  0  0  0  0  0  0  0  0  0  0  0
  -15.3368   -9.6744   28.4465 C   0  0  0  0  0  0  0  0  0  0  0  0
  -14.2399   -8.9213   28.3750 N   0  0  0  0  0  0  0  0  0  0  0  0
  2  1  1  6  0  0  0
  2  3  1  0  0  0  0
  2  5  1  0  0  0  0
  3  4  1  0  0  0  0
  3 17  1  0  0  0  0
  5  6  1  0  0  0  0
  7  6  1  6  0  0  0
  7  8  1  0  0  0  0
  7  9  1  0  0  0  0
 10  9  1  1  0  0  0
 10 11  1  0  0  0  0
 10 12  1  0  0  0  0
 11 16  1  0  0  0  0
 12 13  1  6  0  0  0
 12 14  1  0  0  0  0
 14 15  1  6  0  0  0
 14 16  1  0  0  0  0
 16 27  1  1  0  0  0
 18 19  2  0  0  0  0
 18 23  1  0  0  0  0
 19 20  1  0  0  0  0
 20 21  2  0  0  0  0
 21 22  1  0  0  0  0
 21 27  1  0  0  0  0
 22 23  2  0  0  0  0
 22 25  1  0  0  0  0
 23 24  1  0  0  0  0
 25 26  2  0  0  0  0
 26 27  1  0  0  0  0
M  END
>  <CHROM.1>
136.68540721,51.58425937,-177.60802835,-178.74371243,-71.29150485,156.37872563
-125.43812840,-14.66417122,-8.39214908,25.66748758,-1.66809957,0.55557582
1.81887230

>  <Name>
ligand

>  <RI>
0

>  <Rbt.Current_Directory>
/home/itssahil/PROJECTS/Mol_Feturizer/Test_systems_manuscript/rnas/4kqy

>  <Rbt.Executable>
rbdock ($Id: //depot/dev/client3/rdock/2013.1/src/exe/rbdock.cxx#4 $)

>  <Rbt.Library>
libRbt.so (2013.1, Build901 2013/11/27)

>  <Rbt.Parameter_File>
/export/apps/rDock/src/rDock_2013.1_src/data/scripts/dock_solv.prm

>  <Rbt.Receptor>
prm/blind_docking_80.prm

>  <SCORE>
-14.3037

>  <SCORE.INTER>
-12.4255

>  <SCORE.INTER.CONST>
1

>  <SCORE.INTER.POLAR>
0

>  <SCORE.INTER.ROT>
7

>  <SCORE.INTER.SOLV>
10.4985

>  <SCORE.INTER.VDW>
-20.0498

>  <SCORE.INTER.norm>
-0.460204

>  <SCORE.INTRA>
-1.89226

>  <SCORE.INTRA.DIHEDRAL>
-5.29811

>  <SCORE.INTRA.DIHEDRAL.0>
10.4103

>  <SCORE.INTRA.POLAR>
0

>  <SCORE.INTRA.POLAR.0>
0

>  <SCORE.INTRA.REPUL>
0

>  <SCORE.INTRA.REPUL.0>
0

>  <SCORE.INTRA.SOLV>
0.396225

>  <SCORE.INTRA.SOLV.lig_0>
-49.5008

>  <SCORE.INTRA.VDW>
0.558685

>  <SCORE.INTRA.VDW.0>
-2.6946

>  <SCORE.INTRA.norm>
-0.0700835

>  <SCORE.RESTR>
0.0140568

>  <SCORE.RESTR.CAVITY>
0.0140568

>  <SCORE.RESTR.norm>
0.000520624

>  <SCORE.SYSTEM>
0

>  <SCORE.SYSTEM.CONST>
0

>  <SCORE.SYSTEM.DIHEDRAL>
0

>  <SCORE.SYSTEM.SOLV>
0

>  <SCORE.SYSTEM.norm>
0

>  <SCORE.heavy>
27

>  <SCORE.norm>
-0.529767

>  <RMSD>
13.524

$$$$
ligand
 OpenBabel02271912153D
libRbt.so/2013.1/901 2013/11/27
 27 29  0  0  0  0  0  0  0  0999 V2000
    0.3709  -13.4218   15.5306 N   0  0  0  0  0  0  0  0  0  0  0  0
    0.0400  -12.9464   14.2006 C   0  0  2  0  0  0  0  0  0  0  0  0
   -0.2145  -14.1509   13.3477 C   0  0  0  0  0  0  0  0  0  0  0  0
    0.4889  -15.1715   13.5081 O   0  0  0  0  0  0  0  0  0  0  0  0
    1.1941  -12.1216   13.6246 C   0  0  0  0  0  0  0  0  0  0  0  0
    0.7918  -11.4335   12.3013 C   0  0  0  0  0  0  0  0  0  0  0  0
    2.0006  -11.3316   11.1421 S   0  0  2  0  0  0  0  0  0  0  0  0
    1.6287  -10.1253   10.0626 C   0  0  0  0  0  0  0  0  0  0  0  0
    2.1575  -12.8139   10.3504 C   0  0  0  0  0  0  0  0  0  0  0  0
    2.5269  -13.9881   11.2812 C   0  0  1  0  0  0  0  0  0  0  0  0
    2.4849  -15.2660   10.6246 O   0  0  0  0  0  0  0  0  0  0  0  0
    3.9610  -13.9382   11.7831 C   0  0  1  0  0  0  0  0  0  0  0  0
    4.2704  -12.9770   12.8122 O   0  0  0  0  0  0  0  0  0  0  0  0
    4.1536  -15.3724   12.2100 C   0  0  1  0  0  0  0  0  0  0  0  0
    3.4166  -15.6313   13.4012 O   0  0  0  0  0  0  0  0  0  0  0  0
    3.5287  -16.1316   11.0772 C   0  0  2  0  0  0  0  0  0  0  0  0
   -1.1481  -14.1256   12.5103 O   0  0  0  0  0  0  0  0  0  0  0  0
    5.9436  -19.7364    8.0031 N   0  0  0  0  0  0  0  0  0  0  0  0
    4.9797  -19.9200    8.9379 C   0  0  0  0  0  0  0  0  0  0  0  0
    4.4589  -18.9093    9.6538 N   0  0  0  0  0  0  0  0  0  0  0  0
    4.8473  -17.6421    9.4730 C   0  0  0  0  0  0  0  0  0  0  0  0
    5.8644  -17.3772    8.4666 C   0  0  0  0  0  0  0  0  0  0  0  0
    6.4459  -18.4998    7.6946 C   0  0  0  0  0  0  0  0  0  0  0  0
    7.4159  -18.3113    6.7322 N   0  0  0  0  0  0  0  0  0  0  0  0
    6.0503  -16.0768    8.4810 N   0  0  0  0  0  0  0  0  0  0  0  0
    5.2559  -15.5348    9.4143 C   0  0  0  0  0  0  0  0  0  0  0  0
    4.5229  -16.4722   10.0138 N   0  0  0  0  0  0  0  0  0  0  0  0
  2  1  1  1  0  0  0
  2  3  1  0  0  0  0
  2  5  1  0  0  0  0
  3  4  1  0  0  0  0
  3 17  1  0  0  0  0
  5  6  1  0  0  0  0
  7  6  1  1  0  0  0
  7  8  1  0  0  0  0
  7  9  1  0  0  0  0
 10  9  1  6  0  0  0
 10 11  1  0  0  0  0
 10 12  1  0  0  0  0
 11 16  1  0  0  0  0
 12 13  1  1  0  0  0
 12 14  1  0  0  0  0
 14 15  1  1  0  0  0
 14 16  1  0  0  0  0
 16 27  1  6  0  0  0
 18 19  2  0  0  0  0
 18 23  1  0  0  0  0
 19 20  1  0  0  0  0
 20 21  2  0  0  0  0
 21 22  1  0  0  0  0
 21 27  1  0  0  0  0
 22 23  2  0  0  0  0
 22 25  1  0  0  0  0
 23 24  1  0  0  0  0
 25 26  2  0  0  0  0
 26 27  1  0  0  0  0
M  END
>  <CHROM.1>
-37.76896615,-171.71387872,-143.83762282,-159.15965468,-60.12913294,172.33992483
-117.65243949,3.10793045,-14.90610475,11.06165057,2.61012088,0.85293326,-0.24847267

>  <Name>
ligand

>  <RI>
0

>  <Rbt.Current_Directory>
/home/itssahil/PROJECTS/Mol_Feturizer/Test_systems_manuscript/rnas/4kqy

>  <Rbt.Executable>
rbdock ($Id: //depot/dev/client3/rdock/2013.1/src/exe/rbdock.cxx#4 $)

>  <Rbt.Library>
libRbt.so (2013.1, Build901 2013/11/27)

>  <Rbt.Parameter_File>
/export/apps/rDock/src/rDock_2013.1_src/data/scripts/dock_solv.prm

>  <Rbt.Receptor>
prm/blind_docking_60.prm

>  <SCORE>
-14.5006

>  <SCORE.INTER>
-11.6555

>  <SCORE.INTER.CONST>
1

>  <SCORE.INTER.POLAR>
0

>  <SCORE.INTER.ROT>
7

>  <SCORE.INTER.SOLV>
13.6364

>  <SCORE.INTER.VDW>
-20.5825

>  <SCORE.INTER.norm>
-0.431686

>  <SCORE.INTRA>
-2.85443

>  <SCORE.INTRA.DIHEDRAL>
-2.3514

>  <SCORE.INTRA.DIHEDRAL.0>
10.4103

>  <SCORE.INTRA.POLAR>
0

>  <SCORE.INTRA.POLAR.0>
0

>  <SCORE.INTRA.REPUL>
0

>  <SCORE.INTRA.REPUL.0>
0

>  <SCORE.INTRA.SOLV>
0.0521257

>  <SCORE.INTRA.SOLV.lig_0>
-49.5008

>  <SCORE.INTRA.VDW>
-1.7048

>  <SCORE.INTRA.VDW.0>
-2.6946

>  <SCORE.INTRA.norm>
-0.10572

>  <SCORE.RESTR>
0.00932822

>  <SCORE.RESTR.CAVITY>
0.00932822

>  <SCORE.RESTR.norm>
0.00034549

>  <SCORE.SYSTEM>
0

>  <SCORE.SYSTEM.CONST>
0

>  <SCORE.SYSTEM.DIHEDRAL>
0

>  <SCORE.SYSTEM.SOLV>
0

>  <SCORE.SYSTEM.norm>
0

>  <SCORE.heavy>
27

>  <SCORE.norm>
-0.53706

>  <RMSD>
13.534

$$$$
ligand
 OpenBabel02271912153D
libRbt.so/2013.1/901 2013/11/27
 27 29  0  0  0  0  0  0  0  0999 V2000
    9.3124   -9.5960    8.7102 N   0  0  0  0  0  0  0  0  0  0  0  0
    9.6220   -8.2108    8.4110 C   0  0  2  0  0  0  0  0  0  0  0  0
   10.8627   -7.8574    9.1718 C   0  0  0  0  0  0  0  0  0  0  0  0
   10.9376   -8.1478   10.3852 O   0  0  0  0  0  0  0  0  0  0  0  0
    8.4642   -7.3010    8.8304 C   0  0  0  0  0  0  0  0  0  0  0  0
    7.2460   -7.4688    7.8953 C   0  0  0  0  0  0  0  0  0  0  0  0
    6.4417   -8.9367    8.0112 S   0  0  2  0  0  0  0  0  0  0  0  0
    5.3756   -9.0824    6.7459 C   0  0  0  0  0  0  0  0  0  0  0  0
    5.6308   -9.0273    9.4886 C   0  0  0  0  0  0  0  0  0  0  0  0
    5.4063  -10.4675    9.9956 C   0  0  1  0  0  0  0  0  0  0  0  0
    4.4413  -10.5500   11.0576 O   0  0  0  0  0  0  0  0  0  0  0  0
    4.8051  -11.3933    8.9504 C   0  0  1  0  0  0  0  0  0  0  0  0
    5.6744  -11.8596    7.8990 O   0  0  0  0  0  0  0  0  0  0  0  0
    4.2696  -12.4939    9.8325 C   0  0  1  0  0  0  0  0  0  0  0  0
    5.3445  -13.2701   10.3532 O   0  0  0  0  0  0  0  0  0  0  0  0
    3.6358  -11.7266   10.9549 C   0  0  2  0  0  0  0  0  0  0  0  0
   11.8160   -7.3056    8.5719 O   0  0  0  0  0  0  0  0  0  0  0  0
   -0.2470   -8.2805    9.8039 N   0  0  0  0  0  0  0  0  0  0  0  0
    1.0798   -8.0514    9.9578 C   0  0  0  0  0  0  0  0  0  0  0  0
    1.9558   -9.0248   10.2586 N   0  0  0  0  0  0  0  0  0  0  0  0
    1.5737  -10.2982   10.4062 C   0  0  0  0  0  0  0  0  0  0  0  0
    0.1637  -10.6120   10.2310 C   0  0  0  0  0  0  0  0  0  0  0  0
   -0.7978   -9.5298    9.9171 C   0  0  0  0  0  0  0  0  0  0  0  0
   -2.1460   -9.7651    9.7451 N   0  0  0  0  0  0  0  0  0  0  0  0
    0.0616  -11.9091   10.4131 N   0  0  0  0  0  0  0  0  0  0  0  0
    1.2733  -12.4039   10.7008 C   0  0  0  0  0  0  0  0  0  0  0  0
    2.1922  -11.4390   10.6933 N   0  0  0  0  0  0  0  0  0  0  0  0
  2  1  1  1  0  0  0
  2  3  1  0  0  0  0
  2  5  1  0  0  0  0
  3  4  1  0  0  0  0
  3 17  1  0  0  0  0
  5  6  1  0  0  0  0
  7  6  1  6  0  0  0
  7  8  1  0  0  0  0
  7  9  1  0  0  0  0
 10  9  1  6  0  0  0
 10 11  1  0  0  0  0
 10 12  1  0  0  0  0
 11 16  1  0  0  0  0
 12 13  1  6  0  0  0
 12 14  1  0  0  0  0
 14 15  1  1  0  0  0
 14 16  1  0  0  0  0
 16 27  1  6  0  0  0
 18 19  2  0  0  0  0
 18 23  1  0  0  0  0
 19 20  1  0  0  0  0
 20 21  2  0  0  0  0
 21 22  1  0  0  0  0
 21 27  1  0  0  0  0
 22 23  2  0  0  0  0
 22 25  1  0  0  0  0
 23 24  1  0  0  0  0
 25 26  2  0  0  0  0
 26 27  1  0  0  0  0
M  END
>  <CHROM.1>
-48.29356544,-71.60892346,69.33604441,-168.37922903,-153.80538695,-165.30635169
7.98789093,4.82902212,-9.80618219,9.44075454,-0.26805552,-0.08212380,2.86445950

>  <Name>
ligand

>  <RI>
0

>  <Rbt.Current_Directory>
/home/itssahil/PROJECTS/Mol_Feturizer/Test_systems_manuscript/rnas/4kqy

>  <Rbt.Executable>
rbdock ($Id: //depot/dev/client3/rdock/2013.1/src/exe/rbdock.cxx#4 $)

>  <Rbt.Library>
libRbt.so (2013.1, Build901 2013/11/27)

>  <Rbt.Parameter_File>
/export/apps/rDock/src/rDock_2013.1_src/data/scripts/dock_solv.prm

>  <Rbt.Receptor>
prm/blind_docking_20.prm

>  <SCORE>
-7.38741

>  <SCORE.INTER>
-6.76627

>  <SCORE.INTER.CONST>
1

>  <SCORE.INTER.POLAR>
0

>  <SCORE.INTER.ROT>
7

>  <SCORE.INTER.SOLV>
13.8244

>  <SCORE.INTER.VDW>
-17.3857

>  <SCORE.INTER.norm>
-0.250603

>  <SCORE.INTRA>
-0.62114

>  <SCORE.INTRA.DIHEDRAL>
-3.85906

>  <SCORE.INTRA.DIHEDRAL.0>
10.4103

>  <SCORE.INTRA.POLAR>
0

>  <SCORE.INTRA.POLAR.0>
0

>  <SCORE.INTRA.REPUL>
0

>  <SCORE.INTRA.REPUL.0>
0

>  <SCORE.INTRA.SOLV>
2.63736

>  <SCORE.INTRA.SOLV.lig_0>
-49.5008

>  <SCORE.INTRA.VDW>
-0.0102918

>  <SCORE.INTRA.VDW.0>
-2.6946

>  <SCORE.INTRA.norm>
-0.0230052

>  <SCORE.RESTR>
0

>  <SCORE.RESTR.CAVITY>
0

>  <SCORE.RESTR.norm>
0

>  <SCORE.SYSTEM>
0

>  <SCORE.SYSTEM.CONST>
0

>  <SCORE.SYSTEM.DIHEDRAL>
0

>  <SCORE.SYSTEM.SOLV>
0

>  <SCORE.SYSTEM.norm>
0

>  <SCORE.heavy>
27

>  <SCORE.norm>
-0.273608

>  <RMSD>
13.568

$$$$
ligand
 OpenBabel02271912153D
libRbt.so/2013.1/901 2013/11/27
 27 29  0  0  0  0  0  0  0  0999 V2000
  -16.8558   -7.6613   21.9067 N   0  0  0  0  0  0  0  0  0  0  0  0
  -15.5008   -7.4082   21.4551 C   0  0  2  0  0  0  0  0  0  0  0  0
  -14.6112   -7.4720   22.6582 C   0  0  0  0  0  0  0  0  0  0  0  0
  -14.1189   -6.4155   23.1095 O   0  0  0  0  0  0  0  0  0  0  0  0
  -15.4051   -6.0295   20.7960 C   0  0  0  0  0  0  0  0  0  0  0  0
  -15.4338   -6.1363   19.2551 C   0  0  0  0  0  0  0  0  0  0  0  0
  -15.0471   -4.7303   18.4251 S   0  0  2  0  0  0  0  0  0  0  0  0
  -14.7609   -5.0932   16.8297 C   0  0  0  0  0  0  0  0  0  0  0  0
  -13.6916   -4.0092   19.1259 C   0  0  0  0  0  0  0  0  0  0  0  0
  -14.0254   -2.8857   20.1300 C   0  0  1  0  0  0  0  0  0  0  0  0
  -12.9122   -2.5223   20.9635 O   0  0  0  0  0  0  0  0  0  0  0  0
  -14.3697   -1.5612   19.4682 C   0  0  1  0  0  0  0  0  0  0  0  0
  -15.6677   -1.4458   18.8514 O   0  0  0  0  0  0  0  0  0  0  0  0
  -14.1559   -0.6129   20.6220 C   0  0  1  0  0  0  0  0  0  0  0  0
  -15.2008   -0.7630   21.5785 O   0  0  0  0  0  0  0  0  0  0  0  0
  -12.8749   -1.1162   21.2186 C   0  0  2  0  0  0  0  0  0  0  0  0
  -14.4013   -8.5787   23.2101 O   0  0  0  0  0  0  0  0  0  0  0  0
   -9.2158    2.7384   21.3904 N   0  0  0  0  0  0  0  0  0  0  0  0
  -10.2313    2.4863   22.2517 C   0  0  0  0  0  0  0  0  0  0  0  0
  -11.0952    1.4716   22.0805 N   0  0  0  0  0  0  0  0  0  0  0  0
  -10.9945    0.6243   21.0503 C   0  0  0  0  0  0  0  0  0  0  0  0
   -9.9100    0.8292   20.1020 C   0  0  0  0  0  0  0  0  0  0  0  0
   -8.9730    1.9612   20.2887 C   0  0  0  0  0  0  0  0  0  0  0  0
   -7.9299    2.2088   19.4207 N   0  0  0  0  0  0  0  0  0  0  0  0
  -10.0283   -0.1300   19.2121 N   0  0  0  0  0  0  0  0  0  0  0  0
  -11.0930   -0.8820   19.5231 C   0  0  0  0  0  0  0  0  0  0  0  0
  -11.6784   -0.4365   20.6341 N   0  0  0  0  0  0  0  0  0  0  0  0
  2  1  1  1  0  0  0
  2  3  1  0  0  0  0
  2  5  1  0  0  0  0
  3  4  1  0  0  0  0
  3 17  1  0  0  0  0
  5  6  1  0  0  0  0
  7  6  1  1  0  0  0
  7  8  1  0  0  0  0
  7  9  1  0  0  0  0
 10  9  1  6  0  0  0
 10 11  1  0  0  0  0
 10 12  1  0  0  0  0
 11 16  1  0  0  0  0
 12 13  1  1  0  0  0
 12 14  1  0  0  0  0
 14 15  1  1  0  0  0
 14 16  1  0  0  0  0
 16 27  1  6  0  0  0
 18 19  2  0  0  0  0
 18 23  1  0  0  0  0
 19 20  1  0  0  0  0
 20 21  2  0  0  0  0
 21 22  1  0  0  0  0
 21 27  1  0  0  0  0
 22 23  2  0  0  0  0
 22 25  1  0  0  0  0
 23 24  1  0  0  0  0
 25 26  2  0  0  0  0
 26 27  1  0  0  0  0
M  END
>  <CHROM.1>
-108.02870801,-100.11608665,-168.94163584,166.28268006,-96.72210711,164.87541557
-148.79012266,-13.15484140,-2.56770839,20.47899061,-2.60026508,-0.88570960
-0.94506472

>  <Name>
ligand

>  <RI>
0

>  <Rbt.Current_Directory>
/home/itssahil/PROJECTS/Mol_Feturizer/Test_systems_manuscript/rnas/4kqy

>  <Rbt.Executable>
rbdock ($Id: //depot/dev/client3/rdock/2013.1/src/exe/rbdock.cxx#4 $)

>  <Rbt.Library>
libRbt.so (2013.1, Build901 2013/11/27)

>  <Rbt.Parameter_File>
/export/apps/rDock/src/rDock_2013.1_src/data/scripts/dock_solv.prm

>  <Rbt.Receptor>
prm/blind_docking_100.prm

>  <SCORE>
-6.7274

>  <SCORE.INTER>
-8.59182

>  <SCORE.INTER.CONST>
1

>  <SCORE.INTER.POLAR>
0

>  <SCORE.INTER.ROT>
7

>  <SCORE.INTER.SOLV>
9.85124

>  <SCORE.INTER.VDW>
-17.2783

>  <SCORE.INTER.norm>
-0.318215

>  <SCORE.INTRA>
1.8204

>  <SCORE.INTRA.DIHEDRAL>
1.82993

>  <SCORE.INTRA.DIHEDRAL.0>
10.4103

>  <SCORE.INTRA.POLAR>
0

>  <SCORE.INTRA.POLAR.0>
0

>  <SCORE.INTRA.REPUL>
0

>  <SCORE.INTRA.REPUL.0>
0

>  <SCORE.INTRA.SOLV>
-0.146353

>  <SCORE.INTRA.SOLV.lig_0>
-49.5008

>  <SCORE.INTRA.VDW>
0.978616

>  <SCORE.INTRA.VDW.0>
-2.6946

>  <SCORE.INTRA.norm>
0.0674223

>  <SCORE.RESTR>
0.0440133

>  <SCORE.RESTR.CAVITY>
0.0440133

>  <SCORE.RESTR.norm>
0.00163012

>  <SCORE.SYSTEM>
0

>  <SCORE.SYSTEM.CONST>
0

>  <SCORE.SYSTEM.DIHEDRAL>
0

>  <SCORE.SYSTEM.SOLV>
0

>  <SCORE.SYSTEM.norm>
0

>  <SCORE.heavy>
27

>  <SCORE.norm>
-0.249163

>  <RMSD>
13.581

$$$$
ligand
 OpenBabel02271912153D
libRbt.so/2013.1/901 2013/11/27
 27 29  0  0  0  0  0  0  0  0999 V2000
   -1.6763  -10.8824   11.8996 N   0  0  0  0  0  0  0  0  0  0  0  0
   -2.3437  -12.1313   11.5851 C   0  0  2  0  0  0  0  0  0  0  0  0
   -3.7066  -12.0760   12.2036 C   0  0  0  0  0  0  0  0  0  0  0  0
   -3.8096  -11.9238   13.4399 O   0  0  0  0  0  0  0  0  0  0  0  0
   -1.5533  -13.3165   12.1460 C   0  0  0  0  0  0  0  0  0  0  0  0
   -0.1567  -13.4239   11.4944 C   0  0  0  0  0  0  0  0  0  0  0  0
    0.8456  -14.6135   12.1233 S   0  0  2  0  0  0  0  0  0  0  0  0
    0.9709  -14.4159   13.7677 C   0  0  0  0  0  0  0  0  0  0  0  0
    2.3648  -14.5231   11.3936 C   0  0  0  0  0  0  0  0  0  0  0  0
    3.4790  -15.2591   12.1673 C   0  0  1  0  0  0  0  0  0  0  0  0
    3.3056  -16.6858   12.1893 O   0  0  0  0  0  0  0  0  0  0  0  0
    4.8539  -15.1181   11.5345 C   0  0  1  0  0  0  0  0  0  0  0  0
    5.5295  -13.8540   11.6910 O   0  0  0  0  0  0  0  0  0  0  0  0
    5.5734  -16.2781   12.1771 C   0  0  1  0  0  0  0  0  0  0  0  0
    5.8323  -15.9938   13.5487 O   0  0  0  0  0  0  0  0  0  0  0  0
    4.5541  -17.3754   12.0921 C   0  0  2  0  0  0  0  0  0  0  0  0
   -4.7196  -12.1515   11.4678 O   0  0  0  0  0  0  0  0  0  0  0  0
    5.9602  -17.7283    6.9760 N   0  0  0  0  0  0  0  0  0  0  0  0
    6.0233  -16.6596    7.8069 C   0  0  0  0  0  0  0  0  0  0  0  0
    5.6228  -16.7100    9.0885 N   0  0  0  0  0  0  0  0  0  0  0  0
    5.1512  -17.8350    9.6374 C   0  0  0  0  0  0  0  0  0  0  0  0
    5.0798  -19.0241    8.8017 C   0  0  0  0  0  0  0  0  0  0  0  0
    5.5067  -18.9547    7.3849 C   0  0  0  0  0  0  0  0  0  0  0  0
    5.4571  -20.0464    6.5432 N   0  0  0  0  0  0  0  0  0  0  0  0
    4.6036  -19.9745    9.5735 N   0  0  0  0  0  0  0  0  0  0  0  0
    4.3627  -19.4664   10.7899 C   0  0  0  0  0  0  0  0  0  0  0  0
    4.6955  -18.1770   10.8382 N   0  0  0  0  0  0  0  0  0  0  0  0
  2  1  1  1  0  0  0
  2  3  1  0  0  0  0
  2  5  1  0  0  0  0
  3  4  1  0  0  0  0
  3 17  1  0  0  0  0
  5  6  1  0  0  0  0
  7  6  1  6  0  0  0
  7  8  1  0  0  0  0
  7  9  1  0  0  0  0
 10  9  1  6  0  0  0
 10 11  1  0  0  0  0
 10 12  1  0  0  0  0
 11 16  1  0  0  0  0
 12 13  1  1  0  0  0
 12 14  1  0  0  0  0
 14 15  1  1  0  0  0
 14 16  1  0  0  0  0
 16 27  1  6  0  0  0
 18 19  2  0  0  0  0
 18 23  1  0  0  0  0
 19 20  1  0  0  0  0
 20 21  2  0  0  0  0
 21 22  1  0  0  0  0
 21 27  1  0  0  0  0
 22 23  2  0  0  0  0
 22 25  1  0  0  0  0
 23 24  1  0  0  0  0
 25 26  2  0  0  0  0
 26 27  1  0  0  0  0
M  END
>  <CHROM.1>
-59.22089120,-63.24306646,175.22271923,-53.95812691,162.48051231,66.93692187
88.09658746,2.49407181,-15.58656839,11.03852171,2.55508946,-0.38963314,1.00855247

>  <Name>
ligand

>  <RI>
0

>  <Rbt.Current_Directory>
/home/itssahil/PROJECTS/Mol_Feturizer/Test_systems_manuscript/rnas/4kqy

>  <Rbt.Executable>
rbdock ($Id: //depot/dev/client3/rdock/2013.1/src/exe/rbdock.cxx#4 $)

>  <Rbt.Library>
libRbt.so (2013.1, Build901 2013/11/27)

>  <Rbt.Parameter_File>
/export/apps/rDock/src/rDock_2013.1_src/data/scripts/dock_solv.prm

>  <Rbt.Receptor>
prm/blind_docking_100.prm

>  <SCORE>
-22.8189

>  <SCORE.INTER>
-20.6318

>  <SCORE.INTER.CONST>
1

>  <SCORE.INTER.POLAR>
0

>  <SCORE.INTER.ROT>
7

>  <SCORE.INTER.SOLV>
12.0769

>  <SCORE.INTER.VDW>
-26.0468

>  <SCORE.INTER.norm>
-0.76414

>  <SCORE.INTRA>
-2.18708

>  <SCORE.INTRA.DIHEDRAL>
-6.30298

>  <SCORE.INTRA.DIHEDRAL.0>
10.4103

>  <SCORE.INTRA.POLAR>
0

>  <SCORE.INTRA.POLAR.0>
0

>  <SCORE.INTRA.REPUL>
0

>  <SCORE.INTRA.REPUL.0>
0

>  <SCORE.INTRA.SOLV>
0.0906821

>  <SCORE.INTRA.SOLV.lig_0>
-49.5008

>  <SCORE.INTRA.VDW>
0.919073

>  <SCORE.INTRA.VDW.0>
-2.6946

>  <SCORE.INTRA.norm>
-0.0810028

>  <SCORE.RESTR>
0

>  <SCORE.RESTR.CAVITY>
0

>  <SCORE.RESTR.norm>
0

>  <SCORE.SYSTEM>
0

>  <SCORE.SYSTEM.CONST>
0

>  <SCORE.SYSTEM.DIHEDRAL>
0

>  <SCORE.SYSTEM.SOLV>
0

>  <SCORE.SYSTEM.norm>
0

>  <SCORE.heavy>
27

>  <SCORE.norm>
-0.845143

>  <RMSD>
13.595

$$$$
ligand
 OpenBabel02271912153D
libRbt.so/2013.1/901 2013/11/27
 27 29  0  0  0  0  0  0  0  0999 V2000
   -1.8582  -10.6793   10.7308 N   0  0  0  0  0  0  0  0  0  0  0  0
   -0.4285  -10.6606   10.4867 C   0  0  2  0  0  0  0  0  0  0  0  0
   -0.2106   -9.9848    9.1680 C   0  0  0  0  0  0  0  0  0  0  0  0
   -0.8997   -8.9842    8.8743 O   0  0  0  0  0  0  0  0  0  0  0  0
    0.1271  -12.0868   10.4511 C   0  0  0  0  0  0  0  0  0  0  0  0
   -0.0008  -12.7779   11.8268 C   0  0  0  0  0  0  0  0  0  0  0  0
    0.7754  -14.2588   11.9675 S   0  0  2  0  0  0  0  0  0  0  0  0
    0.8508  -14.6915   13.5693 C   0  0  0  0  0  0  0  0  0  0  0  0
    2.3235  -14.1565   11.3031 C   0  0  0  0  0  0  0  0  0  0  0  0
    3.4194  -14.8311   12.1549 C   0  0  1  0  0  0  0  0  0  0  0  0
    3.2328  -16.2491   12.2977 O   0  0  0  0  0  0  0  0  0  0  0  0
    4.8047  -14.7561   11.5336 C   0  0  1  0  0  0  0  0  0  0  0  0
    5.4893  -13.4885   11.5905 O   0  0  0  0  0  0  0  0  0  0  0  0
    5.5041  -15.8615   12.2854 C   0  0  1  0  0  0  0  0  0  0  0  0
    5.7452  -15.4613   13.6310 O   0  0  0  0  0  0  0  0  0  0  0  0
    4.4763  -16.9541   12.2800 C   0  0  2  0  0  0  0  0  0  0  0  0
    0.6796  -10.4147    8.3961 O   0  0  0  0  0  0  0  0  0  0  0  0
    5.9477  -17.7588    7.2339 N   0  0  0  0  0  0  0  0  0  0  0  0
    6.0069  -16.6221    7.9695 C   0  0  0  0  0  0  0  0  0  0  0  0
    5.5891  -16.5586    9.2449 N   0  0  0  0  0  0  0  0  0  0  0  0
    5.1028  -17.6290    9.8831 C   0  0  0  0  0  0  0  0  0  0  0  0
    5.0346  -18.8859    9.1530 C   0  0  0  0  0  0  0  0  0  0  0  0
    5.4807  -18.9424    7.7416 C   0  0  0  0  0  0  0  0  0  0  0  0
    5.4350  -20.1029    6.9974 N   0  0  0  0  0  0  0  0  0  0  0  0
    4.5418  -19.7629    9.9979 N   0  0  0  0  0  0  0  0  0  0  0  0
    4.2882  -19.1494   11.1621 C   0  0  0  0  0  0  0  0  0  0  0  0
    4.6290  -17.8626   11.1026 N   0  0  0  0  0  0  0  0  0  0  0  0
  2  1  1  6  0  0  0
  2  3  1  0  0  0  0
  2  5  1  0  0  0  0
  3  4  1  0  0  0  0
  3 17  1  0  0  0  0
  5  6  1  0  0  0  0
  7  6  1  1  0  0  0
  7  8  1  0  0  0  0
  7  9  1  0  0  0  0
 10  9  1  6  0  0  0
 10 11  1  0  0  0  0
 10 12  1  0  0  0  0
 11 16  1  0  0  0  0
 12 13  1  1  0  0  0
 12 14  1  0  0  0  0
 14 15  1  1  0  0  0
 14 16  1  0  0  0  0
 16 27  1  6  0  0  0
 18 19  2  0  0  0  0
 18 23  1  0  0  0  0
 19 20  1  0  0  0  0
 20 21  2  0  0  0  0
 21 22  1  0  0  0  0
 21 27  1  0  0  0  0
 22 23  2  0  0  0  0
 22 25  1  0  0  0  0
 23 24  1  0  0  0  0
 25 26  2  0  0  0  0
 26 27  1  0  0  0  0
M  END
>  <CHROM.1>
39.98271360,-65.24173212,-171.42900424,166.75884823,136.44849811,63.19291257
87.93453903,3.02337284,-15.02308601,10.59570188,3.10547594,-0.91046748,1.63154352

>  <Name>
ligand

>  <RI>
0

>  <Rbt.Current_Directory>
/home/itssahil/PROJECTS/Mol_Feturizer/Test_systems_manuscript/rnas/4kqy

>  <Rbt.Executable>
rbdock ($Id: //depot/dev/client3/rdock/2013.1/src/exe/rbdock.cxx#4 $)

>  <Rbt.Library>
libRbt.so (2013.1, Build901 2013/11/27)

>  <Rbt.Parameter_File>
/export/apps/rDock/src/rDock_2013.1_src/data/scripts/dock_solv.prm

>  <Rbt.Receptor>
prm/blind_docking_80.prm

>  <SCORE>
-17.8381

>  <SCORE.INTER>
-19.164

>  <SCORE.INTER.CONST>
1

>  <SCORE.INTER.POLAR>
0

>  <SCORE.INTER.ROT>
7

>  <SCORE.INTER.SOLV>
11.9533

>  <SCORE.INTER.VDW>
-25.0271

>  <SCORE.INTER.norm>
-0.709779

>  <SCORE.INTRA>
1.32595

>  <SCORE.INTRA.DIHEDRAL>
-2.69154

>  <SCORE.INTRA.DIHEDRAL.0>
10.4103

>  <SCORE.INTRA.POLAR>
0

>  <SCORE.INTRA.POLAR.0>
0

>  <SCORE.INTRA.REPUL>
0

>  <SCORE.INTRA.REPUL.0>
0

>  <SCORE.INTRA.SOLV>
0.0607526

>  <SCORE.INTRA.SOLV.lig_0>
-49.5008

>  <SCORE.INTRA.VDW>
2.64135

>  <SCORE.INTRA.VDW.0>
-2.6946

>  <SCORE.INTRA.norm>
0.0491094

>  <SCORE.RESTR>
0

>  <SCORE.RESTR.CAVITY>
0

>  <SCORE.RESTR.norm>
0

>  <SCORE.SYSTEM>
0

>  <SCORE.SYSTEM.CONST>
0

>  <SCORE.SYSTEM.DIHEDRAL>
0

>  <SCORE.SYSTEM.SOLV>
0

>  <SCORE.SYSTEM.norm>
0

>  <SCORE.heavy>
27

>  <SCORE.norm>
-0.66067

>  <RMSD>
13.598

$$$$
ligand
 OpenBabel02271912153D
libRbt.so/2013.1/901 2013/11/27
 27 29  0  0  0  0  0  0  0  0999 V2000
   -1.6677  -10.9184   11.9823 N   0  0  0  0  0  0  0  0  0  0  0  0
   -2.3209  -12.1584   11.6085 C   0  0  2  0  0  0  0  0  0  0  0  0
   -3.6993  -12.1297   12.1938 C   0  0  0  0  0  0  0  0  0  0  0  0
   -3.8340  -12.1108   13.4363 O   0  0  0  0  0  0  0  0  0  0  0  0
   -1.5393  -13.3591   12.1486 C   0  0  0  0  0  0  0  0  0  0  0  0
   -0.1229  -13.4333   11.5363 C   0  0  0  0  0  0  0  0  0  0  0  0
    0.8612  -14.6534   12.1349 S   0  0  2  0  0  0  0  0  0  0  0  0
    0.9588  -14.5215   13.7878 C   0  0  0  0  0  0  0  0  0  0  0  0
    2.3934  -14.5446   11.4356 C   0  0  0  0  0  0  0  0  0  0  0  0
    3.4910  -15.3109   12.2035 C   0  0  1  0  0  0  0  0  0  0  0  0
    3.3036  -16.7359   12.1872 O   0  0  0  0  0  0  0  0  0  0  0  0
    4.8747  -15.1677   11.5906 C   0  0  1  0  0  0  0  0  0  0  0  0
    5.5606  -13.9148   11.7870 O   0  0  0  0  0  0  0  0  0  0  0  0
    5.5751  -16.3508   12.2119 C   0  0  1  0  0  0  0  0  0  0  0  0
    5.8204  -16.1038   13.5932 O   0  0  0  0  0  0  0  0  0  0  0  0
    4.5463  -17.4353   12.0872 C   0  0  2  0  0  0  0  0  0  0  0  0
   -4.6921  -12.0932   11.4282 O   0  0  0  0  0  0  0  0  0  0  0  0
    5.9987  -17.6697    6.9773 N   0  0  0  0  0  0  0  0  0  0  0  0
    6.0602  -16.6223    7.8351 C   0  0  0  0  0  0  0  0  0  0  0  0
    5.6473  -16.7021    9.1112 N   0  0  0  0  0  0  0  0  0  0  0  0
    5.1640  -17.8375    9.6275 C   0  0  0  0  0  0  0  0  0  0  0  0
    5.0936  -19.0050    8.7618 C   0  0  0  0  0  0  0  0  0  0  0  0
    5.5342  -18.9030    7.3513 C   0  0  0  0  0  0  0  0  0  0  0  0
    5.4863  -19.9732    6.4823 N   0  0  0  0  0  0  0  0  0  0  0  0
    4.6045  -19.9714    9.5053 N   0  0  0  0  0  0  0  0  0  0  0  0
    4.3551  -19.4921   10.7317 C   0  0  0  0  0  0  0  0  0  0  0  0
    4.6950  -18.2064   10.8151 N   0  0  0  0  0  0  0  0  0  0  0  0
  2  1  1  1  0  0  0
  2  3  1  0  0  0  0
  2  5  1  0  0  0  0
  3  4  1  0  0  0  0
  3 17  1  0  0  0  0
  5  6  1  0  0  0  0
  7  6  1  6  0  0  0
  7  8  1  0  0  0  0
  7  9  1  0  0  0  0
 10  9  1  6  0  0  0
 10 11  1  0  0  0  0
 10 12  1  0  0  0  0
 11 16  1  0  0  0  0
 12 13  1  1  0  0  0
 12 14  1  0  0  0  0
 14 15  1  1  0  0  0
 14 16  1  0  0  0  0
 16 27  1  6  0  0  0
 18 19  2  0  0  0  0
 18 23  1  0  0  0  0
 19 20  1  0  0  0  0
 20 21  2  0  0  0  0
 21 22  1  0  0  0  0
 21 27  1  0  0  0  0
 22 23  2  0  0  0  0
 22 25  1  0  0  0  0
 23 24  1  0  0  0  0
 25 26  2  0  0  0  0
 26 27  1  0  0  0  0
M  END
>  <CHROM.1>
-63.97804074,-62.87155420,176.05995949,-55.06303192,162.13661467,66.24251970
87.83196978,2.50653117,-15.61600018,11.04670018,2.56683781,-0.40005770,1.03718035

>  <Name>
ligand

>  <RI>
0

>  <Rbt.Current_Directory>
/home/itssahil/PROJECTS/Mol_Feturizer/Test_systems_manuscript/rnas/4kqy

>  <Rbt.Executable>
rbdock ($Id: //depot/dev/client3/rdock/2013.1/src/exe/rbdock.cxx#4 $)

>  <Rbt.Library>
libRbt.so (2013.1, Build901 2013/11/27)

>  <Rbt.Parameter_File>
/export/apps/rDock/src/rDock_2013.1_src/data/scripts/dock_solv.prm

>  <Rbt.Receptor>
prm/blind_docking_60.prm

>  <SCORE>
-22.8085

>  <SCORE.INTER>
-20.6154

>  <SCORE.INTER.CONST>
1

>  <SCORE.INTER.POLAR>
0

>  <SCORE.INTER.ROT>
7

>  <SCORE.INTER.SOLV>
12.3441

>  <SCORE.INTER.VDW>
-26.125

>  <SCORE.INTER.norm>
-0.763533

>  <SCORE.INTRA>
-2.1991

>  <SCORE.INTRA.DIHEDRAL>
-6.38601

>  <SCORE.INTRA.DIHEDRAL.0>
10.4103

>  <SCORE.INTRA.POLAR>
0

>  <SCORE.INTRA.POLAR.0>
0

>  <SCORE.INTRA.REPUL>
0

>  <SCORE.INTRA.REPUL.0>
0

>  <SCORE.INTRA.SOLV>
0.0875198

>  <SCORE.INTRA.SOLV.lig_0>
-49.5008

>  <SCORE.INTRA.VDW>
0.950148

>  <SCORE.INTRA.VDW.0>
-2.6946

>  <SCORE.INTRA.norm>
-0.081448

>  <SCORE.RESTR>
0.00599881

>  <SCORE.RESTR.CAVITY>
0.00599881

>  <SCORE.RESTR.norm>
0.000222178

>  <SCORE.SYSTEM>
0

>  <SCORE.SYSTEM.CONST>
0

>  <SCORE.SYSTEM.DIHEDRAL>
0

>  <SCORE.SYSTEM.SOLV>
0

>  <SCORE.SYSTEM.norm>
0

>  <SCORE.heavy>
27

>  <SCORE.norm>
-0.844759

>  <RMSD>
13.602

$$$$
ligand
 OpenBabel02271912153D
libRbt.so/2013.1/901 2013/11/27
 27 29  0  0  0  0  0  0  0  0999 V2000
    6.4758  -20.6979    6.3282 N   0  0  0  0  0  0  0  0  0  0  0  0
    6.5819  -19.2732    6.5795 C   0  0  2  0  0  0  0  0  0  0  0  0
    7.9890  -18.8689    6.2636 C   0  0  0  0  0  0  0  0  0  0  0  0
    8.1958  -17.7780    5.6896 O   0  0  0  0  0  0  0  0  0  0  0  0
    6.2555  -18.9621    8.0427 C   0  0  0  0  0  0  0  0  0  0  0  0
    5.8515  -17.4828    8.2296 C   0  0  0  0  0  0  0  0  0  0  0  0
    5.4775  -17.0279    9.8008 S   0  0  2  0  0  0  0  0  0  0  0  0
    4.5260  -18.1953   10.5009 C   0  0  0  0  0  0  0  0  0  0  0  0
    4.6839  -15.5384    9.7893 C   0  0  0  0  0  0  0  0  0  0  0  0
    4.0773  -15.1384   11.1508 C   0  0  1  0  0  0  0  0  0  0  0  0
    4.0140  -13.7159   11.3465 O   0  0  0  0  0  0  0  0  0  0  0  0
    2.6209  -15.5440   11.3104 C   0  0  1  0  0  0  0  0  0  0  0  0
    2.3436  -16.9376   11.5546 O   0  0  0  0  0  0  0  0  0  0  0  0
    2.2028  -14.6320   12.4371 C   0  0  1  0  0  0  0  0  0  0  0  0
    2.7830  -15.0702   13.6620 O   0  0  0  0  0  0  0  0  0  0  0  0
    2.8277  -13.3266   12.0428 C   0  0  2  0  0  0  0  0  0  0  0  0
    8.9358  -19.6159    6.6081 O   0  0  0  0  0  0  0  0  0  0  0  0
    1.9759   -9.1135    8.9123 N   0  0  0  0  0  0  0  0  0  0  0  0
    3.1283   -9.5253    9.4945 C   0  0  0  0  0  0  0  0  0  0  0  0
    3.1990  -10.6161   10.2758 N   0  0  0  0  0  0  0  0  0  0  0  0
    2.1305  -11.3847   10.5142 C   0  0  0  0  0  0  0  0  0  0  0  0
    0.8673  -11.0071    9.8983 C   0  0  0  0  0  0  0  0  0  0  0  0
    0.7946   -9.7929    9.0530 C   0  0  0  0  0  0  0  0  0  0  0  0
   -0.3748   -9.3821    8.4476 N   0  0  0  0  0  0  0  0  0  0  0  0
   -0.0001  -11.9189   10.2753 N   0  0  0  0  0  0  0  0  0  0  0  0
    0.6159  -12.7996   11.0759 C   0  0  0  0  0  0  0  0  0  0  0  0
    1.9031  -12.4872   11.2208 N   0  0  0  0  0  0  0  0  0  0  0  0
  2  1  1  1  0  0  0
  2  3  1  0  0  0  0
  2  5  1  0  0  0  0
  3  4  1  0  0  0  0
  3 17  1  0  0  0  0
  5  6  1  0  0  0  0
  7  6  1  6  0  0  0
  7  8  1  0  0  0  0
  7  9  1  0  0  0  0
 10  9  1  6  0  0  0
 10 11  1  0  0  0  0
 10 12  1  0  0  0  0
 11 16  1  0  0  0  0
 12 13  1  1  0  0  0
 12 14  1  0  0  0  0
 14 15  1  1  0  0  0
 14 16  1  0  0  0  0
 16 27  1  6  0  0  0
 18 19  2  0  0  0  0
 18 23  1  0  0  0  0
 19 20  1  0  0  0  0
 20 21  2  0  0  0  0
 21 22  1  0  0  0  0
 21 27  1  0  0  0  0
 22 23  2  0  0  0  0
 22 25  1  0  0  0  0
 23 24  1  0  0  0  0
 25 26  2  0  0  0  0
 26 27  1  0  0  0  0
M  END
>  <CHROM.1>
140.67052793,-159.07398549,-179.74572381,-43.69729607,169.94894077,150.80081386
-51.29721051,3.86547020,-14.89267175,9.65538124,-0.39855985,0.92369491,-0.72407375

>  <Name>
ligand

>  <RI>
0

>  <Rbt.Current_Directory>
/home/itssahil/PROJECTS/Mol_Feturizer/Test_systems_manuscript/rnas/4kqy

>  <Rbt.Executable>
rbdock ($Id: //depot/dev/client3/rdock/2013.1/src/exe/rbdock.cxx#4 $)

>  <Rbt.Library>
libRbt.so (2013.1, Build901 2013/11/27)

>  <Rbt.Parameter_File>
/export/apps/rDock/src/rDock_2013.1_src/data/scripts/dock_solv.prm

>  <Rbt.Receptor>
prm/blind_docking_60.prm

>  <SCORE>
-11.6253

>  <SCORE.INTER>
-13.426

>  <SCORE.INTER.CONST>
1

>  <SCORE.INTER.POLAR>
0

>  <SCORE.INTER.ROT>
7

>  <SCORE.INTER.SOLV>
18.8878

>  <SCORE.INTER.VDW>
-23.5133

>  <SCORE.INTER.norm>
-0.497259

>  <SCORE.INTRA>
1.80073

>  <SCORE.INTRA.DIHEDRAL>
-2.59371

>  <SCORE.INTRA.DIHEDRAL.0>
10.4103

>  <SCORE.INTRA.POLAR>
0

>  <SCORE.INTRA.POLAR.0>
0

>  <SCORE.INTRA.REPUL>
0

>  <SCORE.INTRA.REPUL.0>
0

>  <SCORE.INTRA.SOLV>
-0.315198

>  <SCORE.INTRA.SOLV.lig_0>
-49.5008

>  <SCORE.INTRA.VDW>
3.25519

>  <SCORE.INTRA.VDW.0>
-2.6946

>  <SCORE.INTRA.norm>
0.0666938

>  <SCORE.RESTR>
0

>  <SCORE.RESTR.CAVITY>
0

>  <SCORE.RESTR.norm>
0

>  <SCORE.SYSTEM>
0

>  <SCORE.SYSTEM.CONST>
0

>  <SCORE.SYSTEM.DIHEDRAL>
0

>  <SCORE.SYSTEM.SOLV>
0

>  <SCORE.SYSTEM.norm>
0

>  <SCORE.heavy>
27

>  <SCORE.norm>
-0.430565

>  <RMSD>
13.626

$$$$
ligand
 OpenBabel02271912153D
libRbt.so/2013.1/901 2013/11/27
 27 29  0  0  0  0  0  0  0  0999 V2000
  -13.8904   -9.9138   28.0770 N   0  0  0  0  0  0  0  0  0  0  0  0
  -14.1973   -9.6386   26.6862 C   0  0  2  0  0  0  0  0  0  0  0  0
  -14.3841  -10.9578   26.0020 C   0  0  0  0  0  0  0  0  0  0  0  0
  -15.4453  -11.1768   25.3790 O   0  0  0  0  0  0  0  0  0  0  0  0
  -13.0555   -8.8570   26.0307 C   0  0  0  0  0  0  0  0  0  0  0  0
  -13.3035   -8.6548   24.5194 C   0  0  0  0  0  0  0  0  0  0  0  0
  -14.3936   -7.4432   24.1207 S   0  0  2  0  0  0  0  0  0  0  0  0
  -15.9015   -7.8508   24.6854 C   0  0  0  0  0  0  0  0  0  0  0  0
  -14.4206   -7.2289   22.4468 C   0  0  0  0  0  0  0  0  0  0  0  0
  -15.4892   -6.2284   21.9580 C   0  0  1  0  0  0  0  0  0  0  0  0
  -15.2852   -4.8948   22.4538 O   0  0  0  0  0  0  0  0  0  0  0  0
  -15.4759   -6.0112   20.4535 C   0  0  1  0  0  0  0  0  0  0  0  0
  -16.0249   -7.0577   19.6276 O   0  0  0  0  0  0  0  0  0  0  0  0
  -16.2218   -4.7033   20.3573 C   0  0  1  0  0  0  0  0  0  0  0  0
  -17.6049   -4.9080   20.6291 O   0  0  0  0  0  0  0  0  0  0  0  0
  -15.6191   -3.9066   21.4763 C   0  0  2  0  0  0  0  0  0  0  0  0
  -13.4612  -11.8063   26.0393 O   0  0  0  0  0  0  0  0  0  0  0  0
  -13.0022    0.7181   21.2762 N   0  0  0  0  0  0  0  0  0  0  0  0
  -14.1772    0.4278   21.8859 C   0  0  0  0  0  0  0  0  0  0  0  0
  -14.7329   -0.7949   21.8492 N   0  0  0  0  0  0  0  0  0  0  0  0
  -14.1459   -1.8191   21.2202 C   0  0  0  0  0  0  0  0  0  0  0  0
  -12.8697   -1.5760   20.5646 C   0  0  0  0  0  0  0  0  0  0  0  0
  -12.2732   -0.2205   20.5948 C   0  0  0  0  0  0  0  0  0  0  0  0
  -11.0696    0.0716   19.9875 N   0  0  0  0  0  0  0  0  0  0  0  0
  -12.5105   -2.7279   20.0449 N   0  0  0  0  0  0  0  0  0  0  0  0
  -13.4585   -3.6377   20.3083 C   0  0  0  0  0  0  0  0  0  0  0  0
  -14.4463   -3.0985   21.0217 N   0  0  0  0  0  0  0  0  0  0  0  0
  2  1  1  1  0  0  0
  2  3  1  0  0  0  0
  2  5  1  0  0  0  0
  3  4  1  0  0  0  0
  3 17  1  0  0  0  0
  5  6  1  0  0  0  0
  7  6  1  6  0  0  0
  7  8  1  0  0  0  0
  7  9  1  0  0  0  0
 10  9  1  6  0  0  0
 10 11  1  0  0  0  0
 10 12  1  0  0  0  0
 11 16  1  0  0  0  0
 12 13  1  6  0  0  0
 12 14  1  0  0  0  0
 14 15  1  1  0  0  0
 14 16  1  0  0  0  0
 16 27  1  6  0  0  0
 18 19  2  0  0  0  0
 18 23  1  0  0  0  0
 19 20  1  0  0  0  0
 20 21  2  0  0  0  0
 21 22  1  0  0  0  0
 21 27  1  0  0  0  0
 22 23  2  0  0  0  0
 22 25  1  0  0  0  0
 23 24  1  0  0  0  0
 25 26  2  0  0  0  0
 26 27  1  0  0  0  0
M  END
>  <CHROM.1>
125.09803662,175.19170328,78.18562021,-64.82413728,174.50650654,62.54081843
-111.14167237,-14.37701705,-5.56450497,22.69465831,-1.67313857,-0.75713087
-0.59349753

>  <Name>
ligand

>  <RI>
0

>  <Rbt.Current_Directory>
/home/itssahil/PROJECTS/Mol_Feturizer/Test_systems_manuscript/rnas/4kqy

>  <Rbt.Executable>
rbdock ($Id: //depot/dev/client3/rdock/2013.1/src/exe/rbdock.cxx#4 $)

>  <Rbt.Library>
libRbt.so (2013.1, Build901 2013/11/27)

>  <Rbt.Parameter_File>
/export/apps/rDock/src/rDock_2013.1_src/data/scripts/dock_solv.prm

>  <Rbt.Receptor>
prm/blind_docking_100.prm

>  <SCORE>
-14.8778

>  <SCORE.INTER>
-12.5404

>  <SCORE.INTER.CONST>
1

>  <SCORE.INTER.POLAR>
0

>  <SCORE.INTER.ROT>
7

>  <SCORE.INTER.SOLV>
8.38795

>  <SCORE.INTER.VDW>
-19.4229

>  <SCORE.INTER.norm>
-0.46446

>  <SCORE.INTRA>
-2.33739

>  <SCORE.INTRA.DIHEDRAL>
-6.25075

>  <SCORE.INTRA.DIHEDRAL.0>
10.4103

>  <SCORE.INTRA.POLAR>
0

>  <SCORE.INTRA.POLAR.0>
0

>  <SCORE.INTRA.REPUL>
0

>  <SCORE.INTRA.REPUL.0>
0

>  <SCORE.INTRA.SOLV>
-0.364475

>  <SCORE.INTRA.SOLV.lig_0>
-49.5008

>  <SCORE.INTRA.VDW>
0.970221

>  <SCORE.INTRA.VDW.0>
-2.6946

>  <SCORE.INTRA.norm>
-0.0865701

>  <SCORE.RESTR>
0

>  <SCORE.RESTR.CAVITY>
0

>  <SCORE.RESTR.norm>
0

>  <SCORE.SYSTEM>
0

>  <SCORE.SYSTEM.CONST>
0

>  <SCORE.SYSTEM.DIHEDRAL>
0

>  <SCORE.SYSTEM.SOLV>
0

>  <SCORE.SYSTEM.norm>
0

>  <SCORE.heavy>
27

>  <SCORE.norm>
-0.55103

>  <RMSD>
13.638

$$$$
ligand
 OpenBabel02271912153D
libRbt.so/2013.1/901 2013/11/27
 27 29  0  0  0  0  0  0  0  0999 V2000
    2.6494   -9.5494    9.5285 N   0  0  0  0  0  0  0  0  0  0  0  0
    1.2702   -9.8694    9.8439 C   0  0  2  0  0  0  0  0  0  0  0  0
    0.4408   -8.6787    9.4732 C   0  0  0  0  0  0  0  0  0  0  0  0
   -0.6340   -8.8513    8.8590 O   0  0  0  0  0  0  0  0  0  0  0  0
    1.1200  -10.1779   11.3360 C   0  0  0  0  0  0  0  0  0  0  0  0
    1.8785  -11.4659   11.7262 C   0  0  0  0  0  0  0  0  0  0  0  0
    1.4477  -12.8455   10.8739 S   0  0  2  0  0  0  0  0  0  0  0  0
    0.5486  -13.8405   11.8540 C   0  0  0  0  0  0  0  0  0  0  0  0
    2.8361  -13.6374   10.3317 C   0  0  0  0  0  0  0  0  0  0  0  0
    3.6599  -14.3023   11.4546 C   0  0  1  0  0  0  0  0  0  0  0  0
    3.1956  -15.6196   11.7934 O   0  0  0  0  0  0  0  0  0  0  0  0
    5.1072  -14.5667   11.0719 C   0  0  1  0  0  0  0  0  0  0  0  0
    6.0007  -13.4357   11.0356 O   0  0  0  0  0  0  0  0  0  0  0  0
    5.4790  -15.6053   12.1010 C   0  0  1  0  0  0  0  0  0  0  0  0
    5.6029  -14.9998   13.3844 O   0  0  0  0  0  0  0  0  0  0  0  0
    4.2769  -16.5027   12.1009 C   0  0  2  0  0  0  0  0  0  0  0  0
    0.8228   -7.5332    9.8126 O   0  0  0  0  0  0  0  0  0  0  0  0
    5.3894  -18.2689    7.2102 N   0  0  0  0  0  0  0  0  0  0  0  0
    5.3978  -16.9983    7.6814 C   0  0  0  0  0  0  0  0  0  0  0  0
    5.0850  -16.6916    8.9516 N   0  0  0  0  0  0  0  0  0  0  0  0
    4.7625  -17.6320    9.8465 C   0  0  0  0  0  0  0  0  0  0  0  0
    4.7575  -19.0191    9.4068 C   0  0  0  0  0  0  0  0  0  0  0  0
    5.0862  -19.3465    8.0000 C   0  0  0  0  0  0  0  0  0  0  0  0
    5.0928  -20.6412    7.5241 N   0  0  0  0  0  0  0  0  0  0  0  0
    4.4270  -19.7270   10.4630 N   0  0  0  0  0  0  0  0  0  0  0  0
    4.2132  -18.8966   11.4928 C   0  0  0  0  0  0  0  0  0  0  0  0
    4.4188  -17.6309   11.1304 N   0  0  0  0  0  0  0  0  0  0  0  0
  2  1  1  1  0  0  0
  2  3  1  0  0  0  0
  2  5  1  0  0  0  0
  3  4  1  0  0  0  0
  3 17  1  0  0  0  0
  5  6  1  0  0  0  0
  7  6  1  1  0  0  0
  7  8  1  0  0  0  0
  7  9  1  0  0  0  0
 10  9  1  6  0  0  0
 10 11  1  0  0  0  0
 10 12  1  0  0  0  0
 11 16  1  0  0  0  0
 12 13  1  1  0  0  0
 12 14  1  0  0  0  0
 14 15  1  1  0  0  0
 14 16  1  0  0  0  0
 16 27  1  6  0  0  0
 18 19  2  0  0  0  0
 18 23  1  0  0  0  0
 19 20  1  0  0  0  0
 20 21  2  0  0  0  0
 21 22  1  0  0  0  0
 21 27  1  0  0  0  0
 22 23  2  0  0  0  0
 22 25  1  0  0  0  0
 23 24  1  0  0  0  0
 25 26  2  0  0  0  0
 26 27  1  0  0  0  0
M  END
>  <CHROM.1>
135.67605414,-65.91152816,-56.61725317,-106.35328225,70.28166356,85.07619804
67.02146722,3.35373748,-14.46798594,10.37209852,2.66971289,-1.08609156,1.11857400

>  <Name>
ligand

>  <RI>
0

>  <Rbt.Current_Directory>
/home/itssahil/PROJECTS/Mol_Feturizer/Test_systems_manuscript/rnas/4kqy

>  <Rbt.Executable>
rbdock ($Id: //depot/dev/client3/rdock/2013.1/src/exe/rbdock.cxx#4 $)

>  <Rbt.Library>
libRbt.so (2013.1, Build901 2013/11/27)

>  <Rbt.Parameter_File>
/export/apps/rDock/src/rDock_2013.1_src/data/scripts/dock_solv.prm

>  <Rbt.Receptor>
prm/blind_docking_60.prm

>  <SCORE>
-17.1322

>  <SCORE.INTER>
-16.9983

>  <SCORE.INTER.CONST>
1

>  <SCORE.INTER.POLAR>
0

>  <SCORE.INTER.ROT>
7

>  <SCORE.INTER.SOLV>
11.2554

>  <SCORE.INTER.VDW>
-23.3506

>  <SCORE.INTER.norm>
-0.629565

>  <SCORE.INTRA>
-0.136922

>  <SCORE.INTRA.DIHEDRAL>
-1.02198

>  <SCORE.INTRA.DIHEDRAL.0>
10.4103

>  <SCORE.INTRA.POLAR>
0

>  <SCORE.INTRA.POLAR.0>
0

>  <SCORE.INTRA.REPUL>
0

>  <SCORE.INTRA.REPUL.0>
0

>  <SCORE.INTRA.SOLV>
1.08496

>  <SCORE.INTRA.SOLV.lig_0>
-49.5008

>  <SCORE.INTRA.VDW>
-0.168413

>  <SCORE.INTRA.VDW.0>
-2.6946

>  <SCORE.INTRA.norm>
-0.00507119

>  <SCORE.RESTR>
0.00303179

>  <SCORE.RESTR.CAVITY>
0.00303179

>  <SCORE.RESTR.norm>
0.000112288

>  <SCORE.SYSTEM>
0

>  <SCORE.SYSTEM.CONST>
0

>  <SCORE.SYSTEM.DIHEDRAL>
0

>  <SCORE.SYSTEM.SOLV>
0

>  <SCORE.SYSTEM.norm>
0

>  <SCORE.heavy>
27

>  <SCORE.norm>
-0.634524

>  <RMSD>
13.669

$$$$
ligand
 OpenBabel02271912153D
libRbt.so/2013.1/901 2013/11/27
 27 29  0  0  0  0  0  0  0  0999 V2000
    1.2681  -11.9096   16.1811 N   0  0  0  0  0  0  0  0  0  0  0  0
   -0.0874  -12.2411   15.7848 C   0  0  2  0  0  0  0  0  0  0  0  0
   -0.4526  -13.5199   16.4735 C   0  0  0  0  0  0  0  0  0  0  0  0
    0.3715  -14.0526   17.2478 O   0  0  0  0  0  0  0  0  0  0  0  0
   -0.1742  -12.4122   14.2658 C   0  0  0  0  0  0  0  0  0  0  0  0
    0.6987  -13.5900   13.7787 C   0  0  0  0  0  0  0  0  0  0  0  0
    0.5552  -13.9724   12.1513 S   0  0  2  0  0  0  0  0  0  0  0  0
   -1.0489  -14.1778   11.7727 C   0  0  0  0  0  0  0  0  0  0  0  0
    1.4323  -15.3747   11.8157 C   0  0  0  0  0  0  0  0  0  0  0  0
    2.9631  -15.1901   11.8821 C   0  0  1  0  0  0  0  0  0  0  0  0
    3.6714  -16.4173   12.1238 O   0  0  0  0  0  0  0  0  0  0  0  0
    3.5769  -14.7244   10.5716 C   0  0  1  0  0  0  0  0  0  0  0  0
    3.3892  -13.3426   10.2056 O   0  0  0  0  0  0  0  0  0  0  0  0
    5.0196  -15.1068   10.7918 C   0  0  1  0  0  0  0  0  0  0  0  0
    5.6178  -14.2316   11.7431 O   0  0  0  0  0  0  0  0  0  0  0  0
    4.9010  -16.4743   11.3967 C   0  0  2  0  0  0  0  0  0  0  0  0
   -1.5889  -14.0168   16.2863 O   0  0  0  0  0  0  0  0  0  0  0  0
    6.0746  -18.1091    6.4747 N   0  0  0  0  0  0  0  0  0  0  0  0
    6.2534  -16.8877    7.0339 C   0  0  0  0  0  0  0  0  0  0  0  0
    5.9005  -16.6087    8.3000 N   0  0  0  0  0  0  0  0  0  0  0  0
    5.3641  -17.5336    9.1039 C   0  0  0  0  0  0  0  0  0  0  0  0
    5.1675  -18.8721    8.5680 C   0  0  0  0  0  0  0  0  0  0  0  0
    5.5429  -19.1659    7.1655 C   0  0  0  0  0  0  0  0  0  0  0  0
    5.3753  -20.4132    6.6008 N   0  0  0  0  0  0  0  0  0  0  0  0
    4.6488  -19.5762    9.5484 N   0  0  0  0  0  0  0  0  0  0  0  0
    4.4960  -18.7841   10.6185 C   0  0  0  0  0  0  0  0  0  0  0  0
    4.9303  -17.5512   10.3600 N   0  0  0  0  0  0  0  0  0  0  0  0
  2  1  1  6  0  0  0
  2  3  1  0  0  0  0
  2  5  1  0  0  0  0
  3  4  1  0  0  0  0
  3 17  1  0  0  0  0
  5  6  1  0  0  0  0
  7  6  1  1  0  0  0
  7  8  1  0  0  0  0
  7  9  1  0  0  0  0
 10  9  1  6  0  0  0
 10 11  1  0  0  0  0
 10 12  1  0  0  0  0
 11 16  1  0  0  0  0
 12 13  1  1  0  0  0
 12 14  1  0  0  0  0
 14 15  1  1  0  0  0
 14 16  1  0  0  0  0
 16 27  1  6  0  0  0
 18 19  2  0  0  0  0
 18 23  1  0  0  0  0
 19 20  1  0  0  0  0
 20 21  2  0  0  0  0
 21 22  1  0  0  0  0
 21 27  1  0  0  0  0
 22 23  2  0  0  0  0
 22 25  1  0  0  0  0
 23 24  1  0  0  0  0
 25 26  2  0  0  0  0
 26 27  1  0  0  0  0
M  END
>  <CHROM.1>
1.72824390,63.02564029,173.82457933,-52.11912772,-70.18147353,156.80746466
136.11636103,2.91441389,-15.55375618,11.54574437,-2.40749011,-0.74840978
-2.83347175

>  <Name>
ligand

>  <RI>
0

>  <Rbt.Current_Directory>
/home/itssahil/PROJECTS/Mol_Feturizer/Test_systems_manuscript/rnas/4kqy

>  <Rbt.Executable>
rbdock ($Id: //depot/dev/client3/rdock/2013.1/src/exe/rbdock.cxx#4 $)

>  <Rbt.Library>
libRbt.so (2013.1, Build901 2013/11/27)

>  <Rbt.Parameter_File>
/export/apps/rDock/src/rDock_2013.1_src/data/scripts/dock_solv.prm

>  <Rbt.Receptor>
prm/blind_docking_80.prm

>  <SCORE>
-18.2458

>  <SCORE.INTER>
-17.0327

>  <SCORE.INTER.CONST>
1

>  <SCORE.INTER.POLAR>
0

>  <SCORE.INTER.ROT>
7

>  <SCORE.INTER.SOLV>
14.0248

>  <SCORE.INTER.VDW>
-24.2967

>  <SCORE.INTER.norm>
-0.63084

>  <SCORE.INTRA>
-1.23092

>  <SCORE.INTRA.DIHEDRAL>
-5.37586

>  <SCORE.INTRA.DIHEDRAL.0>
10.4103

>  <SCORE.INTRA.POLAR>
0

>  <SCORE.INTRA.POLAR.0>
0

>  <SCORE.INTRA.REPUL>
0

>  <SCORE.INTRA.REPUL.0>
0

>  <SCORE.INTRA.SOLV>
0.107112

>  <SCORE.INTRA.SOLV.lig_0>
-49.5008

>  <SCORE.INTRA.VDW>
1.40346

>  <SCORE.INTRA.VDW.0>
-2.6946

>  <SCORE.INTRA.norm>
-0.0455896

>  <SCORE.RESTR>
0.0178443

>  <SCORE.RESTR.CAVITY>
0.0178443

>  <SCORE.RESTR.norm>
0.000660899

>  <SCORE.SYSTEM>
0

>  <SCORE.SYSTEM.CONST>
0

>  <SCORE.SYSTEM.DIHEDRAL>
0

>  <SCORE.SYSTEM.SOLV>
0

>  <SCORE.SYSTEM.norm>
0

>  <SCORE.heavy>
27

>  <SCORE.norm>
-0.675769

>  <RMSD>
13.679

$$$$
ligand
 OpenBabel02271912153D
libRbt.so/2013.1/901 2013/11/27
 27 29  0  0  0  0  0  0  0  0999 V2000
    2.0874  -10.2701   11.2183 N   0  0  0  0  0  0  0  0  0  0  0  0
    0.6564  -10.5033   11.2635 C   0  0  2  0  0  0  0  0  0  0  0  0
   -0.0162   -9.1712   11.1357 C   0  0  0  0  0  0  0  0  0  0  0  0
    0.3494   -8.2301   11.8725 O   0  0  0  0  0  0  0  0  0  0  0  0
    0.2646  -11.1718   12.5841 C   0  0  0  0  0  0  0  0  0  0  0  0
    0.9865  -12.5250   12.7687 C   0  0  0  0  0  0  0  0  0  0  0  0
    0.5551  -13.7293   11.6829 S   0  0  2  0  0  0  0  0  0  0  0  0
   -1.0599  -14.0757   11.8572 C   0  0  0  0  0  0  0  0  0  0  0  0
    1.4938  -15.1053   11.9553 C   0  0  0  0  0  0  0  0  0  0  0  0
    3.0147  -14.8531   11.8851 C   0  0  1  0  0  0  0  0  0  0  0  0
    3.7966  -16.0265   12.1639 O   0  0  0  0  0  0  0  0  0  0  0  0
    3.5042  -14.4701   10.4978 C   0  0  1  0  0  0  0  0  0  0  0  0
    3.2240  -13.1313   10.0420 O   0  0  0  0  0  0  0  0  0  0  0  0
    4.9760  -14.7738   10.6313 C   0  0  1  0  0  0  0  0  0  0  0  0
    5.6028  -13.8006   11.4613 O   0  0  0  0  0  0  0  0  0  0  0  0
    4.9686  -16.0916   11.3478 C   0  0  2  0  0  0  0  0  0  0  0  0
   -0.9114   -9.0145   10.2713 O   0  0  0  0  0  0  0  0  0  0  0  0
    6.0585  -18.1246    6.5567 N   0  0  0  0  0  0  0  0  0  0  0  0
    6.2617  -16.8660    7.0163 C   0  0  0  0  0  0  0  0  0  0  0  0
    5.9282  -16.4834    8.2604 N   0  0  0  0  0  0  0  0  0  0  0  0
    5.3885  -17.3342    9.1403 C   0  0  0  0  0  0  0  0  0  0  0  0
    5.1661  -18.7074    8.7133 C   0  0  0  0  0  0  0  0  0  0  0  0
    5.5202  -19.1158    7.3342 C   0  0  0  0  0  0  0  0  0  0  0  0
    5.3279  -20.4009    6.8710 N   0  0  0  0  0  0  0  0  0  0  0  0
    4.6494  -19.3246    9.7516 N   0  0  0  0  0  0  0  0  0  0  0  0
    4.5211  -18.4488   10.7578 C   0  0  0  0  0  0  0  0  0  0  0  0
    4.9698  -17.2467   10.3986 N   0  0  0  0  0  0  0  0  0  0  0  0
  2  1  1  1  0  0  0
  2  3  1  0  0  0  0
  2  5  1  0  0  0  0
  3  4  1  0  0  0  0
  3 17  1  0  0  0  0
  5  6  1  0  0  0  0
  7  6  1  1  0  0  0
  7  8  1  0  0  0  0
  7  9  1  0  0  0  0
 10  9  1  6  0  0  0
 10 11  1  0  0  0  0
 10 12  1  0  0  0  0
 11 16  1  0  0  0  0
 12 13  1  1  0  0  0
 12 14  1  0  0  0  0
 14 15  1  1  0  0  0
 14 16  1  0  0  0  0
 16 27  1  6  0  0  0
 18 19  2  0  0  0  0
 18 23  1  0  0  0  0
 19 20  1  0  0  0  0
 20 21  2  0  0  0  0
 21 22  1  0  0  0  0
 21 27  1  0  0  0  0
 22 23  2  0  0  0  0
 22 25  1  0  0  0  0
 23 24  1  0  0  0  0
 25 26  2  0  0  0  0
 26 27  1  0  0  0  0
M  END
>  <CHROM.1>
-49.94236856,-59.35975320,-66.35545883,-61.79357931,-56.14463398,178.03420337
141.21193981,3.03582454,-14.60911293,10.46737512,-2.40593828,-0.77873339
2.86574181

>  <Name>
ligand

>  <RI>
0

>  <Rbt.Current_Directory>
/home/itssahil/PROJECTS/Mol_Feturizer/Test_systems_manuscript/rnas/4kqy

>  <Rbt.Executable>
rbdock ($Id: //depot/dev/client3/rdock/2013.1/src/exe/rbdock.cxx#4 $)

>  <Rbt.Library>
libRbt.so (2013.1, Build901 2013/11/27)

>  <Rbt.Parameter_File>
/export/apps/rDock/src/rDock_2013.1_src/data/scripts/dock_solv.prm

>  <Rbt.Receptor>
prm/blind_docking_40.prm

>  <SCORE>
-20.5336

>  <SCORE.INTER>
-17.7468

>  <SCORE.INTER.CONST>
1

>  <SCORE.INTER.POLAR>
0

>  <SCORE.INTER.ROT>
7

>  <SCORE.INTER.SOLV>
11.5219

>  <SCORE.INTER.VDW>
-23.9385

>  <SCORE.INTER.norm>
-0.657289

>  <SCORE.INTRA>
-2.78681

>  <SCORE.INTRA.DIHEDRAL>
-7.49199

>  <SCORE.INTRA.DIHEDRAL.0>
10.4103

>  <SCORE.INTRA.POLAR>
0

>  <SCORE.INTRA.POLAR.0>
0

>  <SCORE.INTRA.REPUL>
0

>  <SCORE.INTRA.REPUL.0>
0

>  <SCORE.INTRA.SOLV>
1.86582

>  <SCORE.INTRA.SOLV.lig_0>
-49.5008

>  <SCORE.INTRA.VDW>
0.0262745

>  <SCORE.INTRA.VDW.0>
-2.6946

>  <SCORE.INTRA.norm>
-0.103215

>  <SCORE.RESTR>
0

>  <SCORE.RESTR.CAVITY>
0

>  <SCORE.RESTR.norm>
0

>  <SCORE.SYSTEM>
0

>  <SCORE.SYSTEM.CONST>
0

>  <SCORE.SYSTEM.DIHEDRAL>
0

>  <SCORE.SYSTEM.SOLV>
0

>  <SCORE.SYSTEM.norm>
0

>  <SCORE.heavy>
27

>  <SCORE.norm>
-0.760505

>  <RMSD>
13.685

$$$$
ligand
 OpenBabel02271912153D
libRbt.so/2013.1/901 2013/11/27
 27 29  0  0  0  0  0  0  0  0999 V2000
    2.4992  -10.6035   10.1827 N   0  0  0  0  0  0  0  0  0  0  0  0
    1.0582  -10.7270   10.2949 C   0  0  2  0  0  0  0  0  0  0  0  0
    0.4618   -9.4434    9.8051 C   0  0  0  0  0  0  0  0  0  0  0  0
   -0.4648   -9.4821    8.9671 O   0  0  0  0  0  0  0  0  0  0  0  0
    0.6544  -10.9793   11.7500 C   0  0  0  0  0  0  0  0  0  0  0  0
    1.1927  -12.3348   12.2592 C   0  0  0  0  0  0  0  0  0  0  0  0
    0.5632  -13.6937   11.5025 S   0  0  2  0  0  0  0  0  0  0  0  0
   -1.0494  -13.8343   11.8745 C   0  0  0  0  0  0  0  0  0  0  0  0
    1.4120  -15.0661   11.9971 C   0  0  0  0  0  0  0  0  0  0  0  0
    2.9463  -14.9039   11.9605 C   0  0  1  0  0  0  0  0  0  0  0  0
    3.6511  -16.1006   12.3306 O   0  0  0  0  0  0  0  0  0  0  0  0
    3.4959  -14.6313   10.5697 C   0  0  1  0  0  0  0  0  0  0  0  0
    3.3063  -13.3082   10.0293 O   0  0  0  0  0  0  0  0  0  0  0  0
    4.9434  -15.0083   10.7667 C   0  0  1  0  0  0  0  0  0  0  0  0
    5.6016  -14.0244   11.5589 O   0  0  0  0  0  0  0  0  0  0  0  0
    4.8399  -16.2791   11.5569 C   0  0  2  0  0  0  0  0  0  0  0  0
    0.8802   -8.3549   10.2669 O   0  0  0  0  0  0  0  0  0  0  0  0
    5.3541  -18.5046    6.7550 N   0  0  0  0  0  0  0  0  0  0  0  0
    5.5074  -17.2072    7.1154 C   0  0  0  0  0  0  0  0  0  0  0  0
    5.3379  -16.7781    8.3774 N   0  0  0  0  0  0  0  0  0  0  0  0
    5.0247  -17.6157    9.3722 C   0  0  0  0  0  0  0  0  0  0  0  0
    4.8684  -19.0266    9.0525 C   0  0  0  0  0  0  0  0  0  0  0  0
    5.0395  -19.4880    7.6553 C   0  0  0  0  0  0  0  0  0  0  0  0
    4.8988  -20.8110    7.2909 N   0  0  0  0  0  0  0  0  0  0  0  0
    4.5806  -19.6201   10.1886 N   0  0  0  0  0  0  0  0  0  0  0  0
    4.5293  -18.6979   11.1596 C   0  0  0  0  0  0  0  0  0  0  0  0
    4.8014  -17.4864   10.6760 N   0  0  0  0  0  0  0  0  0  0  0  0
  2  1  1  1  0  0  0
  2  3  1  0  0  0  0
  2  5  1  0  0  0  0
  3  4  1  0  0  0  0
  3 17  1  0  0  0  0
  5  6  1  0  0  0  0
  7  6  1  1  0  0  0
  7  8  1  0  0  0  0
  7  9  1  0  0  0  0
 10  9  1  6  0  0  0
 10 11  1  0  0  0  0
 10 12  1  0  0  0  0
 11 16  1  0  0  0  0
 12 13  1  1  0  0  0
 12 14  1  0  0  0  0
 14 15  1  1  0  0  0
 14 16  1  0  0  0  0
 16 27  1  6  0  0  0
 18 19  2  0  0  0  0
 18 23  1  0  0  0  0
 19 20  1  0  0  0  0
 20 21  2  0  0  0  0
 21 22  1  0  0  0  0
 21 27  1  0  0  0  0
 22 23  2  0  0  0  0
 22 25  1  0  0  0  0
 23 24  1  0  0  0  0
 25 26  2  0  0  0  0
 26 27  1  0  0  0  0
M  END
>  <CHROM.1>
130.57794889,-64.60732240,-65.06640325,-66.94177389,-47.10363835,-177.51434850
127.46933568,2.99928590,-14.78062831,10.29837999,-2.63204421,-0.99192237
2.38489399

>  <Name>
ligand

>  <RI>
0

>  <Rbt.Current_Directory>
/home/itssahil/PROJECTS/Mol_Feturizer/Test_systems_manuscript/rnas/4kqy

>  <Rbt.Executable>
rbdock ($Id: //depot/dev/client3/rdock/2013.1/src/exe/rbdock.cxx#4 $)

>  <Rbt.Library>
libRbt.so (2013.1, Build901 2013/11/27)

>  <Rbt.Parameter_File>
/export/apps/rDock/src/rDock_2013.1_src/data/scripts/dock_solv.prm

>  <Rbt.Receptor>
prm/blind_docking_100.prm

>  <SCORE>
-20.9129

>  <SCORE.INTER>
-18.6576

>  <SCORE.INTER.CONST>
1

>  <SCORE.INTER.POLAR>
0

>  <SCORE.INTER.ROT>
7

>  <SCORE.INTER.SOLV>
10.5616

>  <SCORE.INTER.VDW>
-24.2256

>  <SCORE.INTER.norm>
-0.691024

>  <SCORE.INTRA>
-2.25691

>  <SCORE.INTRA.DIHEDRAL>
-6.86518

>  <SCORE.INTRA.DIHEDRAL.0>
10.4103

>  <SCORE.INTRA.POLAR>
0

>  <SCORE.INTRA.POLAR.0>
0

>  <SCORE.INTRA.REPUL>
0

>  <SCORE.INTRA.REPUL.0>
0

>  <SCORE.INTRA.SOLV>
2.49001

>  <SCORE.INTRA.SOLV.lig_0>
-49.5008

>  <SCORE.INTRA.VDW>
-0.0693208

>  <SCORE.INTRA.VDW.0>
-2.6946

>  <SCORE.INTRA.norm>
-0.0835892

>  <SCORE.RESTR>
0.00164015

>  <SCORE.RESTR.CAVITY>
0.00164015

>  <SCORE.RESTR.norm>
6.07461e-05

>  <SCORE.SYSTEM>
0

>  <SCORE.SYSTEM.CONST>
0

>  <SCORE.SYSTEM.DIHEDRAL>
0

>  <SCORE.SYSTEM.SOLV>
0

>  <SCORE.SYSTEM.norm>
0

>  <SCORE.heavy>
27

>  <SCORE.norm>
-0.774552

>  <RMSD>
13.690

$$$$
ligand
 OpenBabel02271912153D
libRbt.so/2013.1/901 2013/11/27
 27 29  0  0  0  0  0  0  0  0999 V2000
   10.0862   -8.3675    9.0896 N   0  0  0  0  0  0  0  0  0  0  0  0
   10.2099   -9.2256    7.9265 C   0  0  2  0  0  0  0  0  0  0  0  0
   11.3468   -8.7007    7.1049 C   0  0  0  0  0  0  0  0  0  0  0  0
   11.5374   -7.4669    7.0449 O   0  0  0  0  0  0  0  0  0  0  0  0
    8.9142   -9.2118    7.1110 C   0  0  0  0  0  0  0  0  0  0  0  0
    7.7709   -9.9382    7.8539 C   0  0  0  0  0  0  0  0  0  0  0  0
    6.3214  -10.0518    7.0166 S   0  0  2  0  0  0  0  0  0  0  0  0
    5.4751   -8.6325    7.1847 C   0  0  0  0  0  0  0  0  0  0  0  0
    5.4243  -11.3551    7.6043 C   0  0  0  0  0  0  0  0  0  0  0  0
    5.3035  -11.3928    9.1424 C   0  0  1  0  0  0  0  0  0  0  0  0
    4.6779  -10.2204    9.6901 O   0  0  0  0  0  0  0  0  0  0  0  0
    4.3982  -12.5016    9.6542 C   0  0  1  0  0  0  0  0  0  0  0  0
    4.9161  -13.8469    9.6252 O   0  0  0  0  0  0  0  0  0  0  0  0
    4.0978  -11.9933   11.0426 C   0  0  1  0  0  0  0  0  0  0  0  0
    5.2489  -12.1249   11.8713 O   0  0  0  0  0  0  0  0  0  0  0  0
    3.8362  -10.5360   10.8017 C   0  0  2  0  0  0  0  0  0  0  0  0
   12.1058   -9.5085    6.5177 O   0  0  0  0  0  0  0  0  0  0  0  0
   -1.2214  -12.1740   10.6873 N   0  0  0  0  0  0  0  0  0  0  0  0
   -0.1071  -12.8669   11.0262 C   0  0  0  0  0  0  0  0  0  0  0  0
    1.1218  -12.3244   11.0029 N   0  0  0  0  0  0  0  0  0  0  0  0
    1.3238  -11.0471   10.6608 C   0  0  0  0  0  0  0  0  0  0  0  0
    0.1631  -10.2437   10.3077 C   0  0  0  0  0  0  0  0  0  0  0  0
   -1.1861  -10.8550   10.3187 C   0  0  0  0  0  0  0  0  0  0  0  0
   -2.3222  -10.1456    9.9888 N   0  0  0  0  0  0  0  0  0  0  0  0
    0.6285   -9.0467   10.0312 N   0  0  0  0  0  0  0  0  0  0  0  0
    1.9618   -9.0575   10.1651 C   0  0  0  0  0  0  0  0  0  0  0  0
    2.3887  -10.2597   10.5500 N   0  0  0  0  0  0  0  0  0  0  0  0
  2  1  1  1  0  0  0
  2  3  1  0  0  0  0
  2  5  1  0  0  0  0
  3  4  1  0  0  0  0
  3 17  1  0  0  0  0
  5  6  1  0  0  0  0
  7  6  1  1  0  0  0
  7  8  1  0  0  0  0
  7  9  1  0  0  0  0
 10  9  1  6  0  0  0
 10 11  1  0  0  0  0
 10 12  1  0  0  0  0
 11 16  1  0  0  0  0
 12 13  1  1  0  0  0
 12 14  1  0  0  0  0
 14 15  1  1  0  0  0
 14 16  1  0  0  0  0
 16 27  1  6  0  0  0
 18 19  2  0  0  0  0
 18 23  1  0  0  0  0
 19 20  1  0  0  0  0
 20 21  2  0  0  0  0
 21 22  1  0  0  0  0
 21 27  1  0  0  0  0
 22 23  2  0  0  0  0
 22 25  1  0  0  0  0
 23 24  1  0  0  0  0
 25 26  2  0  0  0  0
 26 27  1  0  0  0  0
M  END
>  <CHROM.1>
-35.61045295,-69.98173695,-177.02966598,-81.95104591,48.84396721,59.47084531
125.88886063,4.82915943,-10.45639259,9.15218800,0.33387435,0.17504139,-0.51138792

>  <Name>
ligand

>  <RI>
0

>  <Rbt.Current_Directory>
/home/itssahil/PROJECTS/Mol_Feturizer/Test_systems_manuscript/rnas/4kqy

>  <Rbt.Executable>
rbdock ($Id: //depot/dev/client3/rdock/2013.1/src/exe/rbdock.cxx#4 $)

>  <Rbt.Library>
libRbt.so (2013.1, Build901 2013/11/27)

>  <Rbt.Parameter_File>
/export/apps/rDock/src/rDock_2013.1_src/data/scripts/dock_solv.prm

>  <Rbt.Receptor>
prm/blind_docking_60.prm

>  <SCORE>
-10.5266

>  <SCORE.INTER>
-8.66305

>  <SCORE.INTER.CONST>
1

>  <SCORE.INTER.POLAR>
0

>  <SCORE.INTER.ROT>
7

>  <SCORE.INTER.SOLV>
13.6964

>  <SCORE.INTER.VDW>
-18.6075

>  <SCORE.INTER.norm>
-0.320854

>  <SCORE.INTRA>
-2.24035

>  <SCORE.INTRA.DIHEDRAL>
-5.30807

>  <SCORE.INTRA.DIHEDRAL.0>
10.4103

>  <SCORE.INTRA.POLAR>
0

>  <SCORE.INTRA.POLAR.0>
0

>  <SCORE.INTRA.REPUL>
0

>  <SCORE.INTRA.REPUL.0>
0

>  <SCORE.INTRA.SOLV>
0.0785465

>  <SCORE.INTRA.SOLV.lig_0>
-49.5008

>  <SCORE.INTRA.VDW>
0.374412

>  <SCORE.INTRA.VDW.0>
-2.6946

>  <SCORE.INTRA.norm>
-0.082976

>  <SCORE.RESTR>
0.3768

>  <SCORE.RESTR.CAVITY>
0.3768

>  <SCORE.RESTR.norm>
0.0139556

>  <SCORE.SYSTEM>
0

>  <SCORE.SYSTEM.CONST>
0

>  <SCORE.SYSTEM.DIHEDRAL>
0

>  <SCORE.SYSTEM.SOLV>
0

>  <SCORE.SYSTEM.norm>
0

>  <SCORE.heavy>
27

>  <SCORE.norm>
-0.389874

>  <RMSD>
13.721

$$$$
ligand
 OpenBabel02271912153D
libRbt.so/2013.1/901 2013/11/27
 27 29  0  0  0  0  0  0  0  0999 V2000
   -9.7432   -0.2392   19.8423 N   0  0  0  0  0  0  0  0  0  0  0  0
  -11.1487   -0.1290   19.5008 C   0  0  2  0  0  0  0  0  0  0  0  0
  -11.9123   -0.0251   20.7850 C   0  0  0  0  0  0  0  0  0  0  0  0
  -12.2256    1.1045   21.2186 O   0  0  0  0  0  0  0  0  0  0  0  0
  -11.6050   -1.3576   18.7092 C   0  0  0  0  0  0  0  0  0  0  0  0
  -13.0462   -1.1860   18.1800 C   0  0  0  0  0  0  0  0  0  0  0  0
  -13.6967   -2.5246   17.4052 S   0  0  2  0  0  0  0  0  0  0  0  0
  -14.9565   -2.0423   16.4363 C   0  0  0  0  0  0  0  0  0  0  0  0
  -14.2206   -3.6476   18.5510 C   0  0  0  0  0  0  0  0  0  0  0  0
  -15.5763   -3.2979   19.2003 C   0  0  1  0  0  0  0  0  0  0  0  0
  -16.5353   -4.3654   19.1186 O   0  0  0  0  0  0  0  0  0  0  0  0
  -15.4903   -3.0652   20.7001 C   0  0  1  0  0  0  0  0  0  0  0  0
  -14.9140   -1.8211   21.1461 O   0  0  0  0  0  0  0  0  0  0  0  0
  -16.9370   -3.2421   21.0898 C   0  0  1  0  0  0  0  0  0  0  0  0
  -17.7030   -2.1261   20.6460 O   0  0  0  0  0  0  0  0  0  0  0  0
  -17.3374   -4.4520   20.2988 C   0  0  2  0  0  0  0  0  0  0  0  0
  -12.2510   -1.0728   21.3858 O   0  0  0  0  0  0  0  0  0  0  0  0
  -14.1605   -8.3862   21.9436 N   0  0  0  0  0  0  0  0  0  0  0  0
  -13.8634   -7.3187   21.1633 C   0  0  0  0  0  0  0  0  0  0  0  0
  -14.7757   -6.3955   20.8159 N   0  0  0  0  0  0  0  0  0  0  0  0
  -16.0429   -6.4601   21.2396 C   0  0  0  0  0  0  0  0  0  0  0  0
  -16.4187   -7.5720   22.0998 C   0  0  0  0  0  0  0  0  0  0  0  0
  -15.4108   -8.5949   22.4631 C   0  0  0  0  0  0  0  0  0  0  0  0
  -15.7091   -9.6732   23.2700 N   0  0  0  0  0  0  0  0  0  0  0  0
  -17.6901   -7.3934   22.3786 N   0  0  0  0  0  0  0  0  0  0  0  0
  -18.1213   -6.2900   21.7520 C   0  0  0  0  0  0  0  0  0  0  0  0
  -17.1319   -5.7181   21.0668 N   0  0  0  0  0  0  0  0  0  0  0  0
  2  1  1  1  0  0  0
  2  3  1  0  0  0  0
  2  5  1  0  0  0  0
  3  4  1  0  0  0  0
  3 17  1  0  0  0  0
  5  6  1  0  0  0  0
  7  6  1  1  0  0  0
  7  8  1  0  0  0  0
  7  9  1  0  0  0  0
 10  9  1  1  0  0  0
 10 11  1  0  0  0  0
 10 12  1  0  0  0  0
 11 16  1  0  0  0  0
 12 13  1  6  0  0  0
 12 14  1  0  0  0  0
 14 15  1  6  0  0  0
 14 16  1  0  0  0  0
 16 27  1  1  0  0  0
 18 19  2  0  0  0  0
 18 23  1  0  0  0  0
 19 20  1  0  0  0  0
 20 21  2  0  0  0  0
 21 22  1  0  0  0  0
 21 27  1  0  0  0  0
 22 23  2  0  0  0  0
 22 25  1  0  0  0  0
 23 24  1  0  0  0  0
 25 26  2  0  0  0  0
 26 27  1  0  0  0  0
M  END
>  <CHROM.1>
95.83348106,-172.81682226,-175.13273250,-159.38637748,78.45101850,126.74932664
33.71052305,-14.69069580,-3.79310015,20.28290478,-1.03464480,0.31194278,2.59983487

>  <Name>
ligand

>  <RI>
0

>  <Rbt.Current_Directory>
/home/itssahil/PROJECTS/Mol_Feturizer/Test_systems_manuscript/rnas/4kqy

>  <Rbt.Executable>
rbdock ($Id: //depot/dev/client3/rdock/2013.1/src/exe/rbdock.cxx#4 $)

>  <Rbt.Library>
libRbt.so (2013.1, Build901 2013/11/27)

>  <Rbt.Parameter_File>
/export/apps/rDock/src/rDock_2013.1_src/data/scripts/dock_solv.prm

>  <Rbt.Receptor>
prm/blind_docking_100.prm

>  <SCORE>
-6.67801

>  <SCORE.INTER>
-6.02921

>  <SCORE.INTER.CONST>
1

>  <SCORE.INTER.POLAR>
0

>  <SCORE.INTER.ROT>
7

>  <SCORE.INTER.SOLV>
9.34168

>  <SCORE.INTER.VDW>
-15.4

>  <SCORE.INTER.norm>
-0.223304

>  <SCORE.INTRA>
-0.648802

>  <SCORE.INTRA.DIHEDRAL>
-0.202906

>  <SCORE.INTRA.DIHEDRAL.0>
10.4103

>  <SCORE.INTRA.POLAR>
0

>  <SCORE.INTRA.POLAR.0>
0

>  <SCORE.INTRA.REPUL>
0

>  <SCORE.INTRA.REPUL.0>
0

>  <SCORE.INTRA.SOLV>
-0.232953

>  <SCORE.INTRA.SOLV.lig_0>
-49.5008

>  <SCORE.INTRA.VDW>
-0.430873

>  <SCORE.INTRA.VDW.0>
-2.6946

>  <SCORE.INTRA.norm>
-0.0240297

>  <SCORE.RESTR>
0

>  <SCORE.RESTR.CAVITY>
0

>  <SCORE.RESTR.norm>
0

>  <SCORE.SYSTEM>
0

>  <SCORE.SYSTEM.CONST>
0

>  <SCORE.SYSTEM.DIHEDRAL>
0

>  <SCORE.SYSTEM.SOLV>
0

>  <SCORE.SYSTEM.norm>
0

>  <SCORE.heavy>
27

>  <SCORE.norm>
-0.247334

>  <RMSD>
13.768

$$$$
ligand
 OpenBabel02271912153D
libRbt.so/2013.1/901 2013/11/27
 27 29  0  0  0  0  0  0  0  0999 V2000
  -18.6545  -11.3525   22.4030 N   0  0  0  0  0  0  0  0  0  0  0  0
  -17.8763  -10.1781   22.7482 C   0  0  2  0  0  0  0  0  0  0  0  0
  -18.0445   -9.9488   24.2187 C   0  0  0  0  0  0  0  0  0  0  0  0
  -18.7233  -10.7570   24.8883 O   0  0  0  0  0  0  0  0  0  0  0  0
  -18.3674   -8.9602   21.9610 C   0  0  0  0  0  0  0  0  0  0  0  0
  -17.3281   -7.8174   21.9809 C   0  0  0  0  0  0  0  0  0  0  0  0
  -17.8629   -6.3424   21.3864 S   0  0  2  0  0  0  0  0  0  0  0  0
  -18.3436   -6.5263   19.8072 C   0  0  0  0  0  0  0  0  0  0  0  0
  -16.6279   -5.1982   21.5052 C   0  0  0  0  0  0  0  0  0  0  0  0
  -15.3911   -5.5155   20.6384 C   0  0  1  0  0  0  0  0  0  0  0  0
  -15.0651   -4.4665   19.7115 O   0  0  0  0  0  0  0  0  0  0  0  0
  -14.1042   -5.6412   21.4379 C   0  0  1  0  0  0  0  0  0  0  0  0
  -13.9179   -6.8448   22.2096 O   0  0  0  0  0  0  0  0  0  0  0  0
  -13.0813   -5.4525   20.3451 C   0  0  1  0  0  0  0  0  0  0  0  0
  -13.0410   -6.6048   19.5087 O   0  0  0  0  0  0  0  0  0  0  0  0
  -13.6522   -4.3054   19.5651 C   0  0  2  0  0  0  0  0  0  0  0  0
  -17.4762   -8.9691   24.7575 O   0  0  0  0  0  0  0  0  0  0  0  0
  -10.1689   -0.2979   19.2779 N   0  0  0  0  0  0  0  0  0  0  0  0
  -10.2397   -1.4230   18.5257 C   0  0  0  0  0  0  0  0  0  0  0  0
  -11.1781   -2.3660   18.7141 N   0  0  0  0  0  0  0  0  0  0  0  0
  -12.1245   -2.2434   19.6515 C   0  0  0  0  0  0  0  0  0  0  0  0
  -12.1153   -1.0455   20.4776 C   0  0  0  0  0  0  0  0  0  0  0  0
  -11.0662   -0.0196   20.2749 C   0  0  0  0  0  0  0  0  0  0  0  0
  -11.0032    1.1330   21.0301 N   0  0  0  0  0  0  0  0  0  0  0  0
  -13.1382   -1.1667   21.2931 N   0  0  0  0  0  0  0  0  0  0  0  0
  -13.7516   -2.3331   21.0500 C   0  0  0  0  0  0  0  0  0  0  0  0
  -13.1491   -2.9864   20.0571 N   0  0  0  0  0  0  0  0  0  0  0  0
  2  1  1  6  0  0  0
  2  3  1  0  0  0  0
  2  5  1  0  0  0  0
  3  4  1  0  0  0  0
  3 17  1  0  0  0  0
  5  6  1  0  0  0  0
  7  6  1  6  0  0  0
  7  8  1  0  0  0  0
  7  9  1  0  0  0  0
 10  9  1  1  0  0  0
 10 11  1  0  0  0  0
 10 12  1  0  0  0  0
 11 16  1  0  0  0  0
 12 13  1  6  0  0  0
 12 14  1  0  0  0  0
 14 15  1  6  0  0  0
 14 16  1  0  0  0  0
 16 27  1  1  0  0  0
 18 19  2  0  0  0  0
 18 23  1  0  0  0  0
 19 20  1  0  0  0  0
 20 21  2  0  0  0  0
 21 22  1  0  0  0  0
 21 27  1  0  0  0  0
 22 23  2  0  0  0  0
 22 25  1  0  0  0  0
 23 24  1  0  0  0  0
 25 26  2  0  0  0  0
 26 27  1  0  0  0  0
M  END
>  <CHROM.1>
2.65971306,-163.26857789,-169.61958229,-59.49965383,64.14581831,122.80879724
-149.06645586,-14.88387793,-5.27631641,21.14274641,-2.66388172,0.82415130
0.59124724

>  <Name>
ligand

>  <RI>
0

>  <Rbt.Current_Directory>
/home/itssahil/PROJECTS/Mol_Feturizer/Test_systems_manuscript/rnas/4kqy

>  <Rbt.Executable>
rbdock ($Id: //depot/dev/client3/rdock/2013.1/src/exe/rbdock.cxx#4 $)

>  <Rbt.Library>
libRbt.so (2013.1, Build901 2013/11/27)

>  <Rbt.Parameter_File>
/export/apps/rDock/src/rDock_2013.1_src/data/scripts/dock_solv.prm

>  <Rbt.Receptor>
prm/blind_docking_100.prm

>  <SCORE>
-14.9684

>  <SCORE.INTER>
-15.1351

>  <SCORE.INTER.CONST>
1

>  <SCORE.INTER.POLAR>
0

>  <SCORE.INTER.ROT>
7

>  <SCORE.INTER.SOLV>
12.2684

>  <SCORE.INTER.VDW>
-22.4462

>  <SCORE.INTER.norm>
-0.56056

>  <SCORE.INTRA>
0.166732

>  <SCORE.INTRA.DIHEDRAL>
-1.01775

>  <SCORE.INTRA.DIHEDRAL.0>
10.4103

>  <SCORE.INTRA.POLAR>
0

>  <SCORE.INTRA.POLAR.0>
0

>  <SCORE.INTRA.REPUL>
0

>  <SCORE.INTRA.REPUL.0>
0

>  <SCORE.INTRA.SOLV>
-0.472402

>  <SCORE.INTRA.SOLV.lig_0>
-49.5008

>  <SCORE.INTRA.VDW>
0.911807

>  <SCORE.INTRA.VDW.0>
-2.6946

>  <SCORE.INTRA.norm>
0.00617525

>  <SCORE.RESTR>
0

>  <SCORE.RESTR.CAVITY>
0

>  <SCORE.RESTR.norm>
0

>  <SCORE.SYSTEM>
0

>  <SCORE.SYSTEM.CONST>
0

>  <SCORE.SYSTEM.DIHEDRAL>
0

>  <SCORE.SYSTEM.SOLV>
0

>  <SCORE.SYSTEM.norm>
0

>  <SCORE.heavy>
27

>  <SCORE.norm>
-0.554385

>  <RMSD>
13.780

$$$$
ligand
 OpenBabel02271912153D
libRbt.so/2013.1/901 2013/11/27
 27 29  0  0  0  0  0  0  0  0999 V2000
   -0.8472  -10.4797   10.3625 N   0  0  0  0  0  0  0  0  0  0  0  0
   -0.8091  -10.6837   11.7982 C   0  0  2  0  0  0  0  0  0  0  0  0
   -0.2913   -9.4204   12.4139 C   0  0  0  0  0  0  0  0  0  0  0  0
   -0.7251   -9.0637   13.5306 O   0  0  0  0  0  0  0  0  0  0  0  0
    0.1073  -11.8595   12.1475 C   0  0  0  0  0  0  0  0  0  0  0  0
   -0.4581  -13.1947   11.6145 C   0  0  0  0  0  0  0  0  0  0  0  0
    0.4257  -14.5646   12.0115 S   0  0  2  0  0  0  0  0  0  0  0  0
    0.4423  -14.7506   13.6619 C   0  0  0  0  0  0  0  0  0  0  0  0
    1.9965  -14.4235   11.4107 C   0  0  0  0  0  0  0  0  0  0  0  0
    2.9807  -15.4721   11.9708 C   0  0  1  0  0  0  0  0  0  0  0  0
    2.8944  -16.7424   11.3040 O   0  0  0  0  0  0  0  0  0  0  0  0
    4.4416  -15.1061   11.7646 C   0  0  1  0  0  0  0  0  0  0  0  0
    4.9944  -14.0800   12.6133 O   0  0  0  0  0  0  0  0  0  0  0  0
    5.0912  -16.4567   11.9378 C   0  0  1  0  0  0  0  0  0  0  0  0
    5.0585  -16.8430   13.3084 O   0  0  0  0  0  0  0  0  0  0  0  0
    4.1777  -17.3551   11.1576 C   0  0  2  0  0  0  0  0  0  0  0  0
    0.5901   -8.7599   11.8139 O   0  0  0  0  0  0  0  0  0  0  0  0
    5.1808  -20.4097    6.9222 N   0  0  0  0  0  0  0  0  0  0  0  0
    4.7490  -20.7737    8.1541 C   0  0  0  0  0  0  0  0  0  0  0  0
    4.5421  -19.8881    9.1432 N   0  0  0  0  0  0  0  0  0  0  0  0
    4.7307  -18.5756    8.9671 C   0  0  0  0  0  0  0  0  0  0  0  0
    5.1729  -18.1195    7.6580 C   0  0  0  0  0  0  0  0  0  0  0  0
    5.4158  -19.1045    6.5787 C   0  0  0  0  0  0  0  0  0  0  0  0
    5.8404  -18.7329    5.3200 N   0  0  0  0  0  0  0  0  0  0  0  0
    5.2659  -16.8121    7.7484 N   0  0  0  0  0  0  0  0  0  0  0  0
    4.9404  -16.4386    8.9936 C   0  0  0  0  0  0  0  0  0  0  0  0
    4.6111  -17.4965    9.7338 N   0  0  0  0  0  0  0  0  0  0  0  0
  2  1  1  6  0  0  0
  2  3  1  0  0  0  0
  2  5  1  0  0  0  0
  3  4  1  0  0  0  0
  3 17  1  0  0  0  0
  5  6  1  0  0  0  0
  7  6  1  1  0  0  0
  7  8  1  0  0  0  0
  7  9  1  0  0  0  0
 10  9  1  6  0  0  0
 10 11  1  0  0  0  0
 10 12  1  0  0  0  0
 11 16  1  0  0  0  0
 12 13  1  1  0  0  0
 12 14  1  0  0  0  0
 14 15  1  1  0  0  0
 14 16  1  0  0  0  0
 16 27  1  6  0  0  0
 18 19  2  0  0  0  0
 18 23  1  0  0  0  0
 19 20  1  0  0  0  0
 20 21  2  0  0  0  0
 21 22  1  0  0  0  0
 21 27  1  0  0  0  0
 22 23  2  0  0  0  0
 22 25  1  0  0  0  0
 23 24  1  0  0  0  0
 25 26  2  0  0  0  0
 26 27  1  0  0  0  0
M  END
>  <CHROM.1>
145.86893965,-65.79700295,-176.86388703,62.51490665,167.40340102,81.42708771
-109.14344826,2.80882193,-15.24718931,10.68605944,2.67077870,-0.96663465
1.49695076

>  <Name>
ligand

>  <RI>
0

>  <Rbt.Current_Directory>
/home/itssahil/PROJECTS/Mol_Feturizer/Test_systems_manuscript/rnas/4kqy

>  <Rbt.Executable>
rbdock ($Id: //depot/dev/client3/rdock/2013.1/src/exe/rbdock.cxx#4 $)

>  <Rbt.Library>
libRbt.so (2013.1, Build901 2013/11/27)

>  <Rbt.Parameter_File>
/export/apps/rDock/src/rDock_2013.1_src/data/scripts/dock_solv.prm

>  <Rbt.Receptor>
prm/blind_docking_40.prm

>  <SCORE>
-17.5084

>  <SCORE.INTER>
-15.9261

>  <SCORE.INTER.CONST>
1

>  <SCORE.INTER.POLAR>
0

>  <SCORE.INTER.ROT>
7

>  <SCORE.INTER.SOLV>
16.7602

>  <SCORE.INTER.VDW>
-24.4708

>  <SCORE.INTER.norm>
-0.589855

>  <SCORE.INTRA>
-1.59546

>  <SCORE.INTRA.DIHEDRAL>
-5.58915

>  <SCORE.INTRA.DIHEDRAL.0>
10.4103

>  <SCORE.INTRA.POLAR>
0

>  <SCORE.INTRA.POLAR.0>
0

>  <SCORE.INTRA.REPUL>
0

>  <SCORE.INTRA.REPUL.0>
0

>  <SCORE.INTRA.SOLV>
-0.0630982

>  <SCORE.INTRA.SOLV.lig_0>
-49.5008

>  <SCORE.INTRA.VDW>
1.23066

>  <SCORE.INTRA.VDW.0>
-2.6946

>  <SCORE.INTRA.norm>
-0.0590911

>  <SCORE.RESTR>
0.0131262

>  <SCORE.RESTR.CAVITY>
0.0131262

>  <SCORE.RESTR.norm>
0.000486154

>  <SCORE.SYSTEM>
0

>  <SCORE.SYSTEM.CONST>
0

>  <SCORE.SYSTEM.DIHEDRAL>
0

>  <SCORE.SYSTEM.SOLV>
0

>  <SCORE.SYSTEM.norm>
0

>  <SCORE.heavy>
27

>  <SCORE.norm>
-0.648459

>  <RMSD>
13.787

$$$$
ligand
 OpenBabel02271912153D
libRbt.so/2013.1/901 2013/11/27
 27 29  0  0  0  0  0  0  0  0999 V2000
   -2.4364  -11.5300   12.9095 N   0  0  0  0  0  0  0  0  0  0  0  0
   -1.2302  -12.1656   12.4143 C   0  0  2  0  0  0  0  0  0  0  0  0
   -0.9557  -11.6015   11.0543 C   0  0  0  0  0  0  0  0  0  0  0  0
    0.1761  -11.7563   10.5469 O   0  0  0  0  0  0  0  0  0  0  0  0
   -1.4198  -13.6827   12.3320 C   0  0  0  0  0  0  0  0  0  0  0  0
   -0.0840  -14.4048   12.0483 C   0  0  0  0  0  0  0  0  0  0  0  0
    0.9264  -14.6041   13.3729 S   0  0  2  0  0  0  0  0  0  0  0  0
    1.5136  -13.1242   13.8458 C   0  0  0  0  0  0  0  0  0  0  0  0
    2.1907  -15.6483   12.9735 C   0  0  0  0  0  0  0  0  0  0  0  0
    3.3415  -14.9744   12.1968 C   0  0  1  0  0  0  0  0  0  0  0  0
    4.5199  -15.7925   12.1079 O   0  0  0  0  0  0  0  0  0  0  0  0
    3.0211  -14.7224   10.7323 C   0  0  1  0  0  0  0  0  0  0  0  0
    2.1277  -13.6328   10.4269 O   0  0  0  0  0  0  0  0  0  0  0  0
    4.4110  -14.5472   10.1723 C   0  0  1  0  0  0  0  0  0  0  0  0
    4.9530  -13.2982   10.5908 O   0  0  0  0  0  0  0  0  0  0  0  0
    5.1693  -15.6549   10.8417 C   0  0  2  0  0  0  0  0  0  0  0  0
   -1.8740  -11.0121   10.4360 O   0  0  0  0  0  0  0  0  0  0  0  0
    6.3536  -18.2541    6.3565 N   0  0  0  0  0  0  0  0  0  0  0  0
    6.5849  -16.9582    6.6787 C   0  0  0  0  0  0  0  0  0  0  0  0
    6.2219  -16.4260    7.8578 N   0  0  0  0  0  0  0  0  0  0  0  0
    5.6220  -17.1536    8.8065 C   0  0  0  0  0  0  0  0  0  0  0  0
    5.3663  -18.5590    8.5288 C   0  0  0  0  0  0  0  0  0  0  0  0
    5.7537  -19.1329    7.2194 C   0  0  0  0  0  0  0  0  0  0  0  0
    5.5324  -20.4557    6.8971 N   0  0  0  0  0  0  0  0  0  0  0  0
    4.7920  -19.0373    9.6093 N   0  0  0  0  0  0  0  0  0  0  0  0
    4.6596  -18.0489   10.5046 C   0  0  0  0  0  0  0  0  0  0  0  0
    5.1629  -16.9102   10.0297 N   0  0  0  0  0  0  0  0  0  0  0  0
  2  1  1  6  0  0  0
  2  3  1  0  0  0  0
  2  5  1  0  0  0  0
  3  4  1  0  0  0  0
  3 17  1  0  0  0  0
  5  6  1  0  0  0  0
  7  6  1  6  0  0  0
  7  8  1  0  0  0  0
  7  9  1  0  0  0  0
 10  9  1  6  0  0  0
 10 11  1  0  0  0  0
 10 12  1  0  0  0  0
 11 16  1  0  0  0  0
 12 13  1  1  0  0  0
 12 14  1  0  0  0  0
 14 15  1  1  0  0  0
 14 16  1  0  0  0  0
 16 27  1  6  0  0  0
 18 19  2  0  0  0  0
 18 23  1  0  0  0  0
 19 20  1  0  0  0  0
 20 21  2  0  0  0  0
 21 22  1  0  0  0  0
 21 27  1  0  0  0  0
 22 23  2  0  0  0  0
 22 25  1  0  0  0  0
 23 24  1  0  0  0  0
 25 26  2  0  0  0  0
 26 27  1  0  0  0  0
M  END
>  <CHROM.1>
163.89324790,-169.99567107,79.21168855,-68.91570544,80.77584602,167.82061593
177.54328499,2.80675594,-15.16721027,10.62050958,2.87756770,-0.78838625,1.84033741

>  <Name>
ligand

>  <RI>
0

>  <Rbt.Current_Directory>
/home/itssahil/PROJECTS/Mol_Feturizer/Test_systems_manuscript/rnas/4kqy

>  <Rbt.Executable>
rbdock ($Id: //depot/dev/client3/rdock/2013.1/src/exe/rbdock.cxx#4 $)

>  <Rbt.Library>
libRbt.so (2013.1, Build901 2013/11/27)

>  <Rbt.Parameter_File>
/export/apps/rDock/src/rDock_2013.1_src/data/scripts/dock_solv.prm

>  <Rbt.Receptor>
prm/blind_docking_60.prm

>  <SCORE>
-19.8799

>  <SCORE.INTER>
-18.8038

>  <SCORE.INTER.CONST>
1

>  <SCORE.INTER.POLAR>
0

>  <SCORE.INTER.ROT>
7

>  <SCORE.INTER.SOLV>
11.7708

>  <SCORE.INTER.VDW>
-24.7261

>  <SCORE.INTER.norm>
-0.696438

>  <SCORE.INTRA>
-1.0761

>  <SCORE.INTRA.DIHEDRAL>
-4.04876

>  <SCORE.INTRA.DIHEDRAL.0>
10.4103

>  <SCORE.INTRA.POLAR>
0

>  <SCORE.INTRA.POLAR.0>
0

>  <SCORE.INTRA.REPUL>
0

>  <SCORE.INTRA.REPUL.0>
0

>  <SCORE.INTRA.SOLV>
0.497978

>  <SCORE.INTRA.SOLV.lig_0>
-49.5008

>  <SCORE.INTRA.VDW>
0.699289

>  <SCORE.INTRA.VDW.0>
-2.6946

>  <SCORE.INTRA.norm>
-0.0398557

>  <SCORE.RESTR>
0

>  <SCORE.RESTR.CAVITY>
0

>  <SCORE.RESTR.norm>
0

>  <SCORE.SYSTEM>
0

>  <SCORE.SYSTEM.CONST>
0

>  <SCORE.SYSTEM.DIHEDRAL>
0

>  <SCORE.SYSTEM.SOLV>
0

>  <SCORE.SYSTEM.norm>
0

>  <SCORE.heavy>
27

>  <SCORE.norm>
-0.736294

>  <RMSD>
13.788

$$$$
ligand
 OpenBabel02271912153D
libRbt.so/2013.1/901 2013/11/27
 27 29  0  0  0  0  0  0  0  0999 V2000
    8.4392   -9.5064    9.0164 N   0  0  0  0  0  0  0  0  0  0  0  0
    8.3355   -9.8025    7.6002 C   0  0  2  0  0  0  0  0  0  0  0  0
    9.0974   -8.7421    6.8665 C   0  0  0  0  0  0  0  0  0  0  0  0
    9.7977   -9.0645    5.8827 O   0  0  0  0  0  0  0  0  0  0  0  0
    6.8691   -9.8041    7.1598 C   0  0  0  0  0  0  0  0  0  0  0  0
    6.1490   -8.5059    7.5871 C   0  0  0  0  0  0  0  0  0  0  0  0
    5.0733   -8.6623    8.8652 S   0  0  2  0  0  0  0  0  0  0  0  0
    5.7704   -9.5771   10.0635 C   0  0  0  0  0  0  0  0  0  0  0  0
    3.6439   -9.3775    8.3230 C   0  0  0  0  0  0  0  0  0  0  0  0
    2.5012   -9.3642    9.3602 C   0  0  1  0  0  0  0  0  0  0  0  0
    2.0683   -8.0387    9.7087 O   0  0  0  0  0  0  0  0  0  0  0  0
    1.2134   -9.9938    8.8542 C   0  0  1  0  0  0  0  0  0  0  0  0
    1.1678  -11.4323    8.7679 O   0  0  0  0  0  0  0  0  0  0  0  0
    0.2198   -9.4091    9.8274 C   0  0  1  0  0  0  0  0  0  0  0  0
    0.3775  -10.0116   11.1084 O   0  0  0  0  0  0  0  0  0  0  0  0
    0.6541   -7.9755    9.9077 C   0  0  2  0  0  0  0  0  0  0  0  0
    8.9947   -7.5467    7.2319 O   0  0  0  0  0  0  0  0  0  0  0  0
    0.4662   -3.5885    6.9086 N   0  0  0  0  0  0  0  0  0  0  0  0
    1.4309   -3.9928    7.7703 C   0  0  0  0  0  0  0  0  0  0  0  0
    1.3442   -5.1328    8.4762 N   0  0  0  0  0  0  0  0  0  0  0  0
    0.2998   -5.9600    8.3566 C   0  0  0  0  0  0  0  0  0  0  0  0
   -0.7594   -5.5919    7.4293 C   0  0  0  0  0  0  0  0  0  0  0  0
   -0.6640   -4.3245    6.6685 C   0  0  0  0  0  0  0  0  0  0  0  0
   -1.6385   -3.9203    5.7798 N   0  0  0  0  0  0  0  0  0  0  0  0
   -1.6415   -6.5634    7.4915 N   0  0  0  0  0  0  0  0  0  0  0  0
   -1.2240   -7.4728    8.3829 C   0  0  0  0  0  0  0  0  0  0  0  0
   -0.0506   -7.1186    8.9056 N   0  0  0  0  0  0  0  0  0  0  0  0
  2  1  1  1  0  0  0
  2  3  1  0  0  0  0
  2  5  1  0  0  0  0
  3  4  1  0  0  0  0
  3 17  1  0  0  0  0
  5  6  1  0  0  0  0
  7  6  1  6  0  0  0
  7  8  1  0  0  0  0
  7  9  1  0  0  0  0
 10  9  1  6  0  0  0
 10 11  1  0  0  0  0
 10 12  1  0  0  0  0
 11 16  1  0  0  0  0
 12 13  1  1  0  0  0
 12 14  1  0  0  0  0
 14 15  1  1  0  0  0
 14 16  1  0  0  0  0
 16 27  1  6  0  0  0
 18 19  2  0  0  0  0
 18 23  1  0  0  0  0
 19 20  1  0  0  0  0
 20 21  2  0  0  0  0
 21 22  1  0  0  0  0
 21 27  1  0  0  0  0
 22 23  2  0  0  0  0
 22 25  1  0  0  0  0
 23 24  1  0  0  0  0
 25 26  2  0  0  0  0
 26 27  1  0  0  0  0
M  END
>  <CHROM.1>
139.73637099,52.04936433,-106.41048753,44.98384362,-170.69453909,63.52465226
-39.09754124,3.08687734,-7.91237102,8.28410007,0.27259935,-0.20788233,2.61723874

>  <Name>
ligand

>  <RI>
0

>  <Rbt.Current_Directory>
/home/itssahil/PROJECTS/Mol_Feturizer/Test_systems_manuscript/rnas/4kqy

>  <Rbt.Executable>
rbdock ($Id: //depot/dev/client3/rdock/2013.1/src/exe/rbdock.cxx#4 $)

>  <Rbt.Library>
libRbt.so (2013.1, Build901 2013/11/27)

>  <Rbt.Parameter_File>
/export/apps/rDock/src/rDock_2013.1_src/data/scripts/dock_solv.prm

>  <Rbt.Receptor>
prm/blind_docking_80.prm

>  <SCORE>
-13.3348

>  <SCORE.INTER>
-15.9995

>  <SCORE.INTER.CONST>
1

>  <SCORE.INTER.POLAR>
0

>  <SCORE.INTER.ROT>
7

>  <SCORE.INTER.SOLV>
10.5747

>  <SCORE.INTER.VDW>
-22.4579

>  <SCORE.INTER.norm>
-0.592576

>  <SCORE.INTRA>
2.66473

>  <SCORE.INTRA.DIHEDRAL>
-1.55827

>  <SCORE.INTRA.DIHEDRAL.0>
10.4103

>  <SCORE.INTRA.POLAR>
0

>  <SCORE.INTRA.POLAR.0>
0

>  <SCORE.INTRA.REPUL>
0

>  <SCORE.INTRA.REPUL.0>
0

>  <SCORE.INTRA.SOLV>
2.25276

>  <SCORE.INTRA.SOLV.lig_0>
-49.5008

>  <SCORE.INTRA.VDW>
2.31749

>  <SCORE.INTRA.VDW.0>
-2.6946

>  <SCORE.INTRA.norm>
0.0986938

>  <SCORE.RESTR>
0

>  <SCORE.RESTR.CAVITY>
0

>  <SCORE.RESTR.norm>
0

>  <SCORE.SYSTEM>
0

>  <SCORE.SYSTEM.CONST>
0

>  <SCORE.SYSTEM.DIHEDRAL>
0

>  <SCORE.SYSTEM.SOLV>
0

>  <SCORE.SYSTEM.norm>
0

>  <SCORE.heavy>
27

>  <SCORE.norm>
-0.493882

>  <RMSD>
13.796

$$$$
ligand
 OpenBabel02271912153D
libRbt.so/2013.1/901 2013/11/27
 27 29  0  0  0  0  0  0  0  0999 V2000
   -0.6245  -11.3608   12.7621 N   0  0  0  0  0  0  0  0  0  0  0  0
   -1.2842  -12.0637   11.6782 C   0  0  2  0  0  0  0  0  0  0  0  0
   -2.7139  -12.2594   12.0793 C   0  0  0  0  0  0  0  0  0  0  0  0
   -3.6178  -12.0272   11.2479 O   0  0  0  0  0  0  0  0  0  0  0  0
   -0.6119  -13.4168   11.4303 C   0  0  0  0  0  0  0  0  0  0  0  0
   -0.5432  -14.2593   12.7234 C   0  0  0  0  0  0  0  0  0  0  0  0
    0.9980  -14.7017   13.2176 S   0  0  2  0  0  0  0  0  0  0  0  0
    1.8663  -13.3388   13.6011 C   0  0  0  0  0  0  0  0  0  0  0  0
    1.7628  -15.5711   11.9896 C   0  0  0  0  0  0  0  0  0  0  0  0
    3.1364  -16.1494   12.3901 C   0  0  1  0  0  0  0  0  0  0  0  0
    3.4117  -17.4244   11.7863 O   0  0  0  0  0  0  0  0  0  0  0  0
    4.3116  -15.3129   11.9106 C   0  0  1  0  0  0  0  0  0  0  0  0
    4.5823  -14.0844   12.6151 O   0  0  0  0  0  0  0  0  0  0  0  0
    5.4259  -16.3261   12.0004 C   0  0  1  0  0  0  0  0  0  0  0  0
    5.7553  -16.5712   13.3644 O   0  0  0  0  0  0  0  0  0  0  0  0
    4.7887  -17.5564   11.4256 C   0  0  2  0  0  0  0  0  0  0  0  0
   -2.9776  -12.6822   13.2303 O   0  0  0  0  0  0  0  0  0  0  0  0
    4.7547  -20.4401    6.9580 N   0  0  0  0  0  0  0  0  0  0  0  0
    4.4313  -20.8161    8.2192 C   0  0  0  0  0  0  0  0  0  0  0  0
    4.4930  -19.9768    9.2667 N   0  0  0  0  0  0  0  0  0  0  0  0
    4.8609  -18.6984    9.1268 C   0  0  0  0  0  0  0  0  0  0  0  0
    5.1991  -18.2279    7.7920 C   0  0  0  0  0  0  0  0  0  0  0  0
    5.1456  -19.1647    6.6459 C   0  0  0  0  0  0  0  0  0  0  0  0
    5.4597  -18.7783    5.3595 N   0  0  0  0  0  0  0  0  0  0  0  0
    5.5063  -16.9579    7.9286 N   0  0  0  0  0  0  0  0  0  0  0  0
    5.4043  -16.6231    9.2222 C   0  0  0  0  0  0  0  0  0  0  0  0
    5.0101  -17.6666    9.9511 N   0  0  0  0  0  0  0  0  0  0  0  0
  2  1  1  1  0  0  0
  2  3  1  0  0  0  0
  2  5  1  0  0  0  0
  3  4  1  0  0  0  0
  3 17  1  0  0  0  0
  5  6  1  0  0  0  0
  7  6  1  6  0  0  0
  7  8  1  0  0  0  0
  7  9  1  0  0  0  0
 10  9  1  6  0  0  0
 10 11  1  0  0  0  0
 10 12  1  0  0  0  0
 11 16  1  0  0  0  0
 12 13  1  1  0  0  0
 12 14  1  0  0  0  0
 14 15  1  1  0  0  0
 14 16  1  0  0  0  0
 16 27  1  6  0  0  0
 18 19  2  0  0  0  0
 18 23  1  0  0  0  0
 19 20  1  0  0  0  0
 20 21  2  0  0  0  0
 21 22  1  0  0  0  0
 21 27  1  0  0  0  0
 22 23  2  0  0  0  0
 22 25  1  0  0  0  0
 23 24  1  0  0  0  0
 25 26  2  0  0  0  0
 26 27  1  0  0  0  0
M  END
>  <CHROM.1>
135.15286309,54.25592781,-120.87260354,63.92910845,-174.22930253,145.15047155
-78.40288490,2.58469617,-15.86874975,10.94746551,2.39547188,-0.45068023,1.04943410

>  <Name>
ligand

>  <RI>
0

>  <Rbt.Current_Directory>
/home/itssahil/PROJECTS/Mol_Feturizer/Test_systems_manuscript/rnas/4kqy

>  <Rbt.Executable>
rbdock ($Id: //depot/dev/client3/rdock/2013.1/src/exe/rbdock.cxx#4 $)

>  <Rbt.Library>
libRbt.so (2013.1, Build901 2013/11/27)

>  <Rbt.Parameter_File>
/export/apps/rDock/src/rDock_2013.1_src/data/scripts/dock_solv.prm

>  <Rbt.Receptor>
prm/blind_docking_40.prm

>  <SCORE>
-13.5813

>  <SCORE.INTER>
-17.0146

>  <SCORE.INTER.CONST>
1

>  <SCORE.INTER.POLAR>
0

>  <SCORE.INTER.ROT>
7

>  <SCORE.INTER.SOLV>
14.6878

>  <SCORE.INTER.VDW>
-24.5056

>  <SCORE.INTER.norm>
-0.63017

>  <SCORE.INTRA>
3.43327

>  <SCORE.INTRA.DIHEDRAL>
1.20167

>  <SCORE.INTRA.DIHEDRAL.0>
10.4103

>  <SCORE.INTRA.POLAR>
0

>  <SCORE.INTRA.POLAR.0>
0

>  <SCORE.INTRA.REPUL>
0

>  <SCORE.INTRA.REPUL.0>
0

>  <SCORE.INTRA.SOLV>
1.99767

>  <SCORE.INTRA.SOLV.lig_0>
-49.5008

>  <SCORE.INTRA.VDW>
1.83361

>  <SCORE.INTRA.VDW.0>
-2.6946

>  <SCORE.INTRA.norm>
0.127158

>  <SCORE.RESTR>
0

>  <SCORE.RESTR.CAVITY>
0

>  <SCORE.RESTR.norm>
0

>  <SCORE.SYSTEM>
0

>  <SCORE.SYSTEM.CONST>
0

>  <SCORE.SYSTEM.DIHEDRAL>
0

>  <SCORE.SYSTEM.SOLV>
0

>  <SCORE.SYSTEM.norm>
0

>  <SCORE.heavy>
27

>  <SCORE.norm>
-0.503012

>  <RMSD>
13.804

$$$$
ligand
 OpenBabel02271912153D
libRbt.so/2013.1/901 2013/11/27
 27 29  0  0  0  0  0  0  0  0999 V2000
   -1.8199  -11.7424   13.4537 N   0  0  0  0  0  0  0  0  0  0  0  0
   -1.3123  -12.1239   12.1495 C   0  0  2  0  0  0  0  0  0  0  0  0
   -2.2536  -11.5686   11.1254 C   0  0  0  0  0  0  0  0  0  0  0  0
   -3.4736  -11.8249   11.2158 O   0  0  0  0  0  0  0  0  0  0  0  0
   -1.2360  -13.6484   12.0299 C   0  0  0  0  0  0  0  0  0  0  0  0
   -0.4733  -14.2714   13.2201 C   0  0  0  0  0  0  0  0  0  0  0  0
    1.1972  -14.3110   13.0680 S   0  0  2  0  0  0  0  0  0  0  0  0
    1.7376  -12.8327   12.5376 C   0  0  0  0  0  0  0  0  0  0  0  0
    1.6427  -15.5313   11.9905 C   0  0  0  0  0  0  0  0  0  0  0  0
    2.9657  -16.2384   12.3530 C   0  0  1  0  0  0  0  0  0  0  0  0
    3.1619  -17.4718   11.6416 O   0  0  0  0  0  0  0  0  0  0  0  0
    4.2043  -15.4483   11.9624 C   0  0  1  0  0  0  0  0  0  0  0  0
    4.5477  -14.3086   12.7759 O   0  0  0  0  0  0  0  0  0  0  0  0
    5.2437  -16.5418   11.9741 C   0  0  1  0  0  0  0  0  0  0  0  0
    5.5319  -16.9283   13.3145 O   0  0  0  0  0  0  0  0  0  0  0  0
    4.5323  -17.6688   11.2855 C   0  0  2  0  0  0  0  0  0  0  0  0
   -1.8065  -10.8313   10.2145 O   0  0  0  0  0  0  0  0  0  0  0  0
    5.0058  -20.2867    6.6814 N   0  0  0  0  0  0  0  0  0  0  0  0
    4.7522  -20.7760    7.9195 C   0  0  0  0  0  0  0  0  0  0  0  0
    4.6655  -19.9925    9.0075 N   0  0  0  0  0  0  0  0  0  0  0  0
    4.8045  -18.6641    8.9342 C   0  0  0  0  0  0  0  0  0  0  0  0
    5.0564  -18.0755    7.6274 C   0  0  0  0  0  0  0  0  0  0  0  0
    5.1682  -18.9487    6.4361 C   0  0  0  0  0  0  0  0  0  0  0  0
    5.4110  -18.4494    5.1734 N   0  0  0  0  0  0  0  0  0  0  0  0
    5.1370  -16.7799    7.8293 N   0  0  0  0  0  0  0  0  0  0  0  0
    4.9771  -16.5332    9.1368 C   0  0  0  0  0  0  0  0  0  0  0  0
    4.7707  -17.6646    9.8097 N   0  0  0  0  0  0  0  0  0  0  0  0
  2  1  1  1  0  0  0
  2  3  1  0  0  0  0
  2  5  1  0  0  0  0
  3  4  1  0  0  0  0
  3 17  1  0  0  0  0
  5  6  1  0  0  0  0
  7  6  1  6  0  0  0
  7  8  1  0  0  0  0
  7  9  1  0  0  0  0
 10  9  1  6  0  0  0
 10 11  1  0  0  0  0
 10 12  1  0  0  0  0
 11 16  1  0  0  0  0
 12 13  1  1  0  0  0
 12 14  1  0  0  0  0
 14 15  1  1  0  0  0
 14 16  1  0  0  0  0
 16 27  1  6  0  0  0
 18 19  2  0  0  0  0
 18 23  1  0  0  0  0
 19 20  1  0  0  0  0
 20 21  2  0  0  0  0
 21 22  1  0  0  0  0
 21 27  1  0  0  0  0
 22 23  2  0  0  0  0
 22 25  1  0  0  0  0
 23 24  1  0  0  0  0
 25 26  2  0  0  0  0
 26 27  1  0  0  0  0
M  END
>  <CHROM.1>
-53.32946161,-51.58434673,-84.69723944,46.35537138,-145.15142739,165.31584222
-92.66549828,2.53430788,-15.73939863,10.74963901,-2.50122213,0.63339685,-1.91398626

>  <Name>
ligand

>  <RI>
0

>  <Rbt.Current_Directory>
/home/itssahil/PROJECTS/Mol_Feturizer/Test_systems_manuscript/rnas/4kqy

>  <Rbt.Executable>
rbdock ($Id: //depot/dev/client3/rdock/2013.1/src/exe/rbdock.cxx#4 $)

>  <Rbt.Library>
libRbt.so (2013.1, Build901 2013/11/27)

>  <Rbt.Parameter_File>
/export/apps/rDock/src/rDock_2013.1_src/data/scripts/dock_solv.prm

>  <Rbt.Receptor>
prm/blind_docking_100.prm

>  <SCORE>
-13.8833

>  <SCORE.INTER>
-15.79

>  <SCORE.INTER.CONST>
1

>  <SCORE.INTER.POLAR>
0

>  <SCORE.INTER.ROT>
7

>  <SCORE.INTER.SOLV>
16.1823

>  <SCORE.INTER.VDW>
-24.1875

>  <SCORE.INTER.norm>
-0.584815

>  <SCORE.INTRA>
1.88485

>  <SCORE.INTRA.DIHEDRAL>
-1.12426

>  <SCORE.INTRA.DIHEDRAL.0>
10.4103

>  <SCORE.INTRA.POLAR>
0

>  <SCORE.INTRA.POLAR.0>
0

>  <SCORE.INTRA.REPUL>
0

>  <SCORE.INTRA.REPUL.0>
0

>  <SCORE.INTRA.SOLV>
1.53846

>  <SCORE.INTRA.SOLV.lig_0>
-49.5008

>  <SCORE.INTRA.VDW>
1.67775

>  <SCORE.INTRA.VDW.0>
-2.6946

>  <SCORE.INTRA.norm>
0.0698091

>  <SCORE.RESTR>
0.0218605

>  <SCORE.RESTR.CAVITY>
0.0218605

>  <SCORE.RESTR.norm>
0.00080965

>  <SCORE.SYSTEM>
0

>  <SCORE.SYSTEM.CONST>
0

>  <SCORE.SYSTEM.DIHEDRAL>
0

>  <SCORE.SYSTEM.SOLV>
0

>  <SCORE.SYSTEM.norm>
0

>  <SCORE.heavy>
27

>  <SCORE.norm>
-0.514196

>  <RMSD>
13.807

$$$$
ligand
 OpenBabel02271912153D
libRbt.so/2013.1/901 2013/11/27
 27 29  0  0  0  0  0  0  0  0999 V2000
    0.6606   -9.5909   10.1755 N   0  0  0  0  0  0  0  0  0  0  0  0
   -0.1149  -10.5552   10.9325 C   0  0  2  0  0  0  0  0  0  0  0  0
   -0.4742   -9.9124   12.2367 C   0  0  0  0  0  0  0  0  0  0  0  0
   -1.5764  -10.1765   12.7636 O   0  0  0  0  0  0  0  0  0  0  0  0
    0.7019  -11.8274   11.1742 C   0  0  0  0  0  0  0  0  0  0  0  0
   -0.1840  -12.9753   11.7070 C   0  0  0  0  0  0  0  0  0  0  0  0
    0.6368  -14.2448   12.4349 S   0  0  2  0  0  0  0  0  0  0  0  0
    1.2436  -13.7424   13.8971 C   0  0  0  0  0  0  0  0  0  0  0  0
    1.8794  -14.7749   11.4231 C   0  0  0  0  0  0  0  0  0  0  0  0
    2.6336  -16.0142   11.9495 C   0  0  1  0  0  0  0  0  0  0  0  0
    2.7528  -17.0616   10.9725 O   0  0  0  0  0  0  0  0  0  0  0  0
    4.0879  -15.7391   12.2961 C   0  0  1  0  0  0  0  0  0  0  0  0
    4.3538  -15.0145   13.5139 O   0  0  0  0  0  0  0  0  0  0  0  0
    4.6434  -17.1418   12.2870 C   0  0  1  0  0  0  0  0  0  0  0  0
    4.1822  -17.8578   13.4288 O   0  0  0  0  0  0  0  0  0  0  0  0
    4.0142  -17.7288   11.0583 C   0  0  2  0  0  0  0  0  0  0  0  0
    0.3489   -9.1461   12.7922 O   0  0  0  0  0  0  0  0  0  0  0  0
    6.6076  -19.7645    6.8863 N   0  0  0  0  0  0  0  0  0  0  0  0
    5.8726  -20.4030    7.8290 C   0  0  0  0  0  0  0  0  0  0  0  0
    5.2720  -19.7579    8.8431 N   0  0  0  0  0  0  0  0  0  0  0  0
    5.3442  -18.4289    8.9764 C   0  0  0  0  0  0  0  0  0  0  0  0
    6.1011  -17.6836    7.9819 C   0  0  0  0  0  0  0  0  0  0  0  0
    6.7750  -18.4048    6.8774 C   0  0  0  0  0  0  0  0  0  0  0  0
    7.5102  -17.7536    5.9088 N   0  0  0  0  0  0  0  0  0  0  0  0
    6.0033  -16.4210    8.3316 N   0  0  0  0  0  0  0  0  0  0  0  0
    5.2756  -16.3363    9.4538 C   0  0  0  0  0  0  0  0  0  0  0  0
    4.8696  -17.5432    9.8464 N   0  0  0  0  0  0  0  0  0  0  0  0
  2  1  1  6  0  0  0
  2  3  1  0  0  0  0
  2  5  1  0  0  0  0
  3  4  1  0  0  0  0
  3 17  1  0  0  0  0
  5  6  1  0  0  0  0
  7  6  1  6  0  0  0
  7  8  1  0  0  0  0
  7  9  1  0  0  0  0
 10  9  1  6  0  0  0
 10 11  1  0  0  0  0
 10 12  1  0  0  0  0
 11 16  1  0  0  0  0
 12 13  1  1  0  0  0
 12 14  1  0  0  0  0
 14 15  1  1  0  0  0
 14 16  1  0  0  0  0
 16 27  1  6  0  0  0
 18 19  2  0  0  0  0
 18 23  1  0  0  0  0
 19 20  1  0  0  0  0
 20 21  2  0  0  0  0
 21 22  1  0  0  0  0
 21 27  1  0  0  0  0
 22 23  2  0  0  0  0
 22 25  1  0  0  0  0
 23 24  1  0  0  0  0
 25 26  2  0  0  0  0
 26 27  1  0  0  0  0
M  END
>  <CHROM.1>
145.49678660,-167.91470220,-162.40747695,71.23770104,-175.58473615,129.76198056
-118.05090340,3.10631270,-15.26424487,10.77753865,-3.01342169,-0.94739298
2.20910544

>  <Name>
ligand

>  <RI>
0

>  <Rbt.Current_Directory>
/home/itssahil/PROJECTS/Mol_Feturizer/Test_systems_manuscript/rnas/4kqy

>  <Rbt.Executable>
rbdock ($Id: //depot/dev/client3/rdock/2013.1/src/exe/rbdock.cxx#4 $)

>  <Rbt.Library>
libRbt.so (2013.1, Build901 2013/11/27)

>  <Rbt.Parameter_File>
/export/apps/rDock/src/rDock_2013.1_src/data/scripts/dock_solv.prm

>  <Rbt.Receptor>
prm/blind_docking_60.prm

>  <SCORE>
-16.6929

>  <SCORE.INTER>
-16.5264

>  <SCORE.INTER.CONST>
1

>  <SCORE.INTER.POLAR>
0

>  <SCORE.INTER.ROT>
7

>  <SCORE.INTER.SOLV>
16.6005

>  <SCORE.INTER.VDW>
-24.8177

>  <SCORE.INTER.norm>
-0.612087

>  <SCORE.INTRA>
-0.166541

>  <SCORE.INTRA.DIHEDRAL>
-0.867067

>  <SCORE.INTRA.DIHEDRAL.0>
10.4103

>  <SCORE.INTRA.POLAR>
0

>  <SCORE.INTRA.POLAR.0>
0

>  <SCORE.INTRA.REPUL>
0

>  <SCORE.INTRA.REPUL.0>
0

>  <SCORE.INTRA.SOLV>
-0.50742

>  <SCORE.INTRA.SOLV.lig_0>
-49.5008

>  <SCORE.INTRA.VDW>
0.520703

>  <SCORE.INTRA.VDW.0>
-2.6946

>  <SCORE.INTRA.norm>
-0.00616818

>  <SCORE.RESTR>
0

>  <SCORE.RESTR.CAVITY>
0

>  <SCORE.RESTR.norm>
0

>  <SCORE.SYSTEM>
0

>  <SCORE.SYSTEM.CONST>
0

>  <SCORE.SYSTEM.DIHEDRAL>
0

>  <SCORE.SYSTEM.SOLV>
0

>  <SCORE.SYSTEM.norm>
0

>  <SCORE.heavy>
27

>  <SCORE.norm>
-0.618255

>  <RMSD>
13.830

$$$$
ligand
 OpenBabel02271912153D
libRbt.so/2013.1/901 2013/11/27
 27 29  0  0  0  0  0  0  0  0999 V2000
    1.0559  -14.0114   12.6897 N   0  0  0  0  0  0  0  0  0  0  0  0
   -0.0869  -13.2203   13.1047 C   0  0  2  0  0  0  0  0  0  0  0  0
   -1.1979  -13.5029   12.1408 C   0  0  0  0  0  0  0  0  0  0  0  0
   -1.0051  -14.3125   11.2083 O   0  0  0  0  0  0  0  0  0  0  0  0
    0.2613  -11.7294   13.0920 C   0  0  0  0  0  0  0  0  0  0  0  0
    0.6831  -11.2594   11.6821 C   0  0  0  0  0  0  0  0  0  0  0  0
    1.2394   -9.6796   11.5823 S   0  0  2  0  0  0  0  0  0  0  0  0
   -0.0046   -8.6344   11.9267 C   0  0  0  0  0  0  0  0  0  0  0  0
    1.8540   -9.3882   10.0377 C   0  0  0  0  0  0  0  0  0  0  0  0
    2.9159  -10.4103    9.5801 C   0  0  1  0  0  0  0  0  0  0  0  0
    3.5950  -10.0201    8.3750 O   0  0  0  0  0  0  0  0  0  0  0  0
    4.0706  -10.5659   10.5566 C   0  0  1  0  0  0  0  0  0  0  0  0
    3.8209  -11.3111   11.7653 O   0  0  0  0  0  0  0  0  0  0  0  0
    5.1090  -11.1908    9.6581 C   0  0  1  0  0  0  0  0  0  0  0  0
    4.7596  -12.5418    9.3726 O   0  0  0  0  0  0  0  0  0  0  0  0
    4.9784  -10.3793    8.4032 C   0  0  2  0  0  0  0  0  0  0  0  0
   -2.3104  -12.9472   12.3043 O   0  0  0  0  0  0  0  0  0  0  0  0
    9.4997   -8.0663    6.8271 N   0  0  0  0  0  0  0  0  0  0  0  0
    9.0292   -9.3045    6.5405 C   0  0  0  0  0  0  0  0  0  0  0  0
    7.8616   -9.7673    7.0178 N   0  0  0  0  0  0  0  0  0  0  0  0
    7.0712   -9.0205    7.7968 C   0  0  0  0  0  0  0  0  0  0  0  0
    7.5111   -7.6722    8.1222 C   0  0  0  0  0  0  0  0  0  0  0  0
    8.8082   -7.1767    7.6064 C   0  0  0  0  0  0  0  0  0  0  0  0
    9.2801   -5.9108    7.8852 N   0  0  0  0  0  0  0  0  0  0  0  0
    6.5637   -7.1596    8.8742 N   0  0  0  0  0  0  0  0  0  0  0  0
    5.6034   -8.0778    9.0491 C   0  0  0  0  0  0  0  0  0  0  0  0
    5.8997   -9.2019    8.3977 N   0  0  0  0  0  0  0  0  0  0  0  0
  2  1  1  6  0  0  0
  2  3  1  0  0  0  0
  2  5  1  0  0  0  0
  3  4  1  0  0  0  0
  3 17  1  0  0  0  0
  5  6  1  0  0  0  0
  7  6  1  6  0  0  0
  7  8  1  0  0  0  0
  7  9  1  0  0  0  0
 10  9  1  1  0  0  0
 10 11  1  0  0  0  0
 10 12  1  0  0  0  0
 11 16  1  0  0  0  0
 12 13  1  1  0  0  0
 12 14  1  0  0  0  0
 14 15  1  6  0  0  0
 14 16  1  0  0  0  0
 16 27  1  1  0  0  0
 18 19  2  0  0  0  0
 18 23  1  0  0  0  0
 19 20  1  0  0  0  0
 20 21  2  0  0  0  0
 21 22  1  0  0  0  0
 21 27  1  0  0  0  0
 22 23  2  0  0  0  0
 22 25  1  0  0  0  0
 23 24  1  0  0  0  0
 25 26  2  0  0  0  0
 26 27  1  0  0  0  0
M  END
>  <CHROM.1>
0.50577055,59.83093643,-173.92435155,-66.06323968,-53.15554640,-169.67795787
-142.28002970,3.70581931,-10.28262911,9.97735369,-2.75573251,0.52688036,0.07834720

>  <Name>
ligand

>  <RI>
0

>  <Rbt.Current_Directory>
/home/itssahil/PROJECTS/Mol_Feturizer/Test_systems_manuscript/rnas/4kqy

>  <Rbt.Executable>
rbdock ($Id: //depot/dev/client3/rdock/2013.1/src/exe/rbdock.cxx#4 $)

>  <Rbt.Library>
libRbt.so (2013.1, Build901 2013/11/27)

>  <Rbt.Parameter_File>
/export/apps/rDock/src/rDock_2013.1_src/data/scripts/dock_solv.prm

>  <Rbt.Receptor>
prm/blind_docking_60.prm

>  <SCORE>
-12.1221

>  <SCORE.INTER>
-10.2605

>  <SCORE.INTER.CONST>
1

>  <SCORE.INTER.POLAR>
0

>  <SCORE.INTER.ROT>
7

>  <SCORE.INTER.SOLV>
7.6515

>  <SCORE.INTER.VDW>
-17.6575

>  <SCORE.INTER.norm>
-0.380019

>  <SCORE.INTRA>
-1.8616

>  <SCORE.INTRA.DIHEDRAL>
-6.86908

>  <SCORE.INTRA.DIHEDRAL.0>
10.4103

>  <SCORE.INTRA.POLAR>
0

>  <SCORE.INTRA.POLAR.0>
0

>  <SCORE.INTRA.REPUL>
0

>  <SCORE.INTRA.REPUL.0>
0

>  <SCORE.INTRA.SOLV>
0.83269

>  <SCORE.INTRA.SOLV.lig_0>
-49.5008

>  <SCORE.INTRA.VDW>
1.15659

>  <SCORE.INTRA.VDW.0>
-2.6946

>  <SCORE.INTRA.norm>
-0.0689482

>  <SCORE.RESTR>
0

>  <SCORE.RESTR.CAVITY>
0

>  <SCORE.RESTR.norm>
0

>  <SCORE.SYSTEM>
0

>  <SCORE.SYSTEM.CONST>
0

>  <SCORE.SYSTEM.DIHEDRAL>
0

>  <SCORE.SYSTEM.SOLV>
0

>  <SCORE.SYSTEM.norm>
0

>  <SCORE.heavy>
27

>  <SCORE.norm>
-0.448967

>  <RMSD>
13.862

$$$$
ligand
 OpenBabel02271912153D
libRbt.so/2013.1/901 2013/11/27
 27 29  0  0  0  0  0  0  0  0999 V2000
    6.2956  -19.1315    7.4731 N   0  0  0  0  0  0  0  0  0  0  0  0
    5.1003  -18.3221    7.3303 C   0  0  2  0  0  0  0  0  0  0  0  0
    5.0997  -17.7705    5.9378 C   0  0  0  0  0  0  0  0  0  0  0  0
    6.0599  -18.0269    5.1798 O   0  0  0  0  0  0  0  0  0  0  0  0
    5.1001  -17.1828    8.3531 C   0  0  0  0  0  0  0  0  0  0  0  0
    4.9435  -17.7168    9.7942 C   0  0  0  0  0  0  0  0  0  0  0  0
    4.6887  -16.5514   10.9741 S   0  0  2  0  0  0  0  0  0  0  0  0
    4.7288  -17.2664   12.4727 C   0  0  0  0  0  0  0  0  0  0  0  0
    3.2038  -15.7923   10.7142 C   0  0  0  0  0  0  0  0  0  0  0  0
    2.9358  -14.5969   11.6528 C   0  0  1  0  0  0  0  0  0  0  0  0
    3.9404  -13.5727   11.5662 O   0  0  0  0  0  0  0  0  0  0  0  0
    1.6702  -13.8272   11.3110 C   0  0  1  0  0  0  0  0  0  0  0  0
    0.4101  -14.4332   11.6626 O   0  0  0  0  0  0  0  0  0  0  0  0
    1.9399  -12.5240   12.0215 C   0  0  1  0  0  0  0  0  0  0  0  0
    1.8242  -12.7018   13.4301 O   0  0  0  0  0  0  0  0  0  0  0  0
    3.3775  -12.2637   11.6809 C   0  0  2  0  0  0  0  0  0  0  0  0
    4.1225  -17.0884    5.5468 O   0  0  0  0  0  0  0  0  0  0  0  0
    5.9421  -11.1476    7.1584 N   0  0  0  0  0  0  0  0  0  0  0  0
    6.2114  -12.1055    8.0785 C   0  0  0  0  0  0  0  0  0  0  0  0
    5.4768  -12.2724    9.1910 N   0  0  0  0  0  0  0  0  0  0  0  0
    4.4097  -11.5098    9.4539 C   0  0  0  0  0  0  0  0  0  0  0  0
    4.0555  -10.4770    8.4919 C   0  0  0  0  0  0  0  0  0  0  0  0
    4.8816  -10.2885    7.2769 C   0  0  0  0  0  0  0  0  0  0  0  0
    4.5986   -9.3236    6.3326 N   0  0  0  0  0  0  0  0  0  0  0  0
    2.9820   -9.8932    8.9743 N   0  0  0  0  0  0  0  0  0  0  0  0
    2.6669  -10.4631   10.1455 C   0  0  0  0  0  0  0  0  0  0  0  0
    3.5205  -11.4431   10.4395 N   0  0  0  0  0  0  0  0  0  0  0  0
  2  1  1  6  0  0  0
  2  3  1  0  0  0  0
  2  5  1  0  0  0  0
  3  4  1  0  0  0  0
  3 17  1  0  0  0  0
  5  6  1  0  0  0  0
  7  6  1  6  0  0  0
  7  8  1  0  0  0  0
  7  9  1  0  0  0  0
 10  9  1  6  0  0  0
 10 11  1  0  0  0  0
 10 12  1  0  0  0  0
 11 16  1  0  0  0  0
 12 13  1  1  0  0  0
 12 14  1  0  0  0  0
 14 15  1  1  0  0  0
 14 16  1  0  0  0  0
 16 27  1  6  0  0  0
 18 19  2  0  0  0  0
 18 23  1  0  0  0  0
 19 20  1  0  0  0  0
 20 21  2  0  0  0  0
 21 22  1  0  0  0  0
 21 27  1  0  0  0  0
 22 23  2  0  0  0  0
 22 25  1  0  0  0  0
 23 24  1  0  0  0  0
 25 26  2  0  0  0  0
 26 27  1  0  0  0  0
M  END
>  <CHROM.1>
-2.03963578,-67.82273937,-170.79091433,-173.10971916,-173.74327085,57.92807228
-25.28106879,4.08925891,-14.20005425,9.45956148,-0.93415593,1.10391120,-0.23355979

>  <Name>
ligand

>  <RI>
0

>  <Rbt.Current_Directory>
/home/itssahil/PROJECTS/Mol_Feturizer/Test_systems_manuscript/rnas/4kqy

>  <Rbt.Executable>
rbdock ($Id: //depot/dev/client3/rdock/2013.1/src/exe/rbdock.cxx#4 $)

>  <Rbt.Library>
libRbt.so (2013.1, Build901 2013/11/27)

>  <Rbt.Parameter_File>
/export/apps/rDock/src/rDock_2013.1_src/data/scripts/dock_solv.prm

>  <Rbt.Receptor>
prm/blind_docking_80.prm

>  <SCORE>
-18.98

>  <SCORE.INTER>
-16.3787

>  <SCORE.INTER.CONST>
1

>  <SCORE.INTER.POLAR>
0

>  <SCORE.INTER.ROT>
7

>  <SCORE.INTER.SOLV>
17.9154

>  <SCORE.INTER.VDW>
-25.1576

>  <SCORE.INTER.norm>
-0.606618

>  <SCORE.INTRA>
-2.60136

>  <SCORE.INTRA.DIHEDRAL>
-6.87478

>  <SCORE.INTRA.DIHEDRAL.0>
10.4103

>  <SCORE.INTRA.POLAR>
0

>  <SCORE.INTRA.POLAR.0>
0

>  <SCORE.INTRA.REPUL>
0

>  <SCORE.INTRA.REPUL.0>
0

>  <SCORE.INTRA.SOLV>
-0.00940535

>  <SCORE.INTRA.SOLV.lig_0>
-49.5008

>  <SCORE.INTRA.VDW>
0.840735

>  <SCORE.INTRA.VDW.0>
-2.6946

>  <SCORE.INTRA.norm>
-0.0963466

>  <SCORE.RESTR>
0

>  <SCORE.RESTR.CAVITY>
0

>  <SCORE.RESTR.norm>
0

>  <SCORE.SYSTEM>
0

>  <SCORE.SYSTEM.CONST>
0

>  <SCORE.SYSTEM.DIHEDRAL>
0

>  <SCORE.SYSTEM.SOLV>
0

>  <SCORE.SYSTEM.norm>
0

>  <SCORE.heavy>
27

>  <SCORE.norm>
-0.702965

>  <RMSD>
13.863

$$$$
ligand
 OpenBabel02271912153D
libRbt.so/2013.1/901 2013/11/27
 27 29  0  0  0  0  0  0  0  0999 V2000
   -0.4105  -10.9251   12.2425 N   0  0  0  0  0  0  0  0  0  0  0  0
    0.9305  -10.3821   12.1380 C   0  0  2  0  0  0  0  0  0  0  0  0
    1.6035  -10.6003   13.4581 C   0  0  0  0  0  0  0  0  0  0  0  0
    2.8522  -10.6043   13.5128 O   0  0  0  0  0  0  0  0  0  0  0  0
    0.8787   -8.8878   11.8086 C   0  0  0  0  0  0  0  0  0  0  0  0
    0.2405   -8.6358   10.4245 C   0  0  0  0  0  0  0  0  0  0  0  0
    1.0750   -9.2735    9.1160 S   0  0  2  0  0  0  0  0  0  0  0  0
    0.8674  -10.9210    9.0798 C   0  0  0  0  0  0  0  0  0  0  0  0
    2.7118   -8.8804    9.2374 C   0  0  0  0  0  0  0  0  0  0  0  0
    3.6078   -9.5906    8.2008 C   0  0  1  0  0  0  0  0  0  0  0  0
    4.4006   -8.6809    7.4199 O   0  0  0  0  0  0  0  0  0  0  0  0
    4.6709  -10.4806    8.8241 C   0  0  1  0  0  0  0  0  0  0  0  0
    4.2410  -11.7430    9.3719 O   0  0  0  0  0  0  0  0  0  0  0  0
    5.6320  -10.6124    7.6686 C   0  0  1  0  0  0  0  0  0  0  0  0
    5.0747  -11.4526    6.6623 O   0  0  0  0  0  0  0  0  0  0  0  0
    5.7009   -9.2080    7.1460 C   0  0  2  0  0  0  0  0  0  0  0  0
    0.9037  -10.7436   14.4891 O   0  0  0  0  0  0  0  0  0  0  0  0
    7.3943   -5.7737   10.8357 N   0  0  0  0  0  0  0  0  0  0  0  0
    6.1431   -6.2484   10.6214 C   0  0  0  0  0  0  0  0  0  0  0  0
    5.8530   -7.1158    9.6372 N   0  0  0  0  0  0  0  0  0  0  0  0
    6.7936   -7.5872    8.8111 C   0  0  0  0  0  0  0  0  0  0  0  0
    8.1620   -7.1319    9.0047 C   0  0  0  0  0  0  0  0  0  0  0  0
    8.4697   -6.1617   10.0809 C   0  0  0  0  0  0  0  0  0  0  0  0
    9.7458   -5.6903   10.3090 N   0  0  0  0  0  0  0  0  0  0  0  0
    8.8752   -7.7453    8.0875 N   0  0  0  0  0  0  0  0  0  0  0  0
    8.0632   -8.5123    7.3470 C   0  0  0  0  0  0  0  0  0  0  0  0
    6.8061   -8.4265    7.7806 N   0  0  0  0  0  0  0  0  0  0  0  0
  2  1  1  1  0  0  0
  2  3  1  0  0  0  0
  2  5  1  0  0  0  0
  3  4  1  0  0  0  0
  3 17  1  0  0  0  0
  5  6  1  0  0  0  0
  7  6  1  1  0  0  0
  7  8  1  0  0  0  0
  7  9  1  0  0  0  0
 10  9  1  1  0  0  0
 10 11  1  0  0  0  0
 10 12  1  0  0  0  0
 11 16  1  0  0  0  0
 12 13  1  6  0  0  0
 12 14  1  0  0  0  0
 14 15  1  6  0  0  0
 14 16  1  0  0  0  0
 16 27  1  1  0  0  0
 18 19  2  0  0  0  0
 18 23  1  0  0  0  0
 19 20  1  0  0  0  0
 20 21  2  0  0  0  0
 21 22  1  0  0  0  0
 21 27  1  0  0  0  0
 22 23  2  0  0  0  0
 22 25  1  0  0  0  0
 23 24  1  0  0  0  0
 25 26  2  0  0  0  0
 26 27  1  0  0  0  0
M  END
>  <CHROM.1>
158.26789333,-63.85526223,-63.25675819,74.05893598,171.38980211,125.11122632
20.83258906,4.24063098,-9.05064578,9.74306836,-2.95148769,-0.50395624,-1.97685734

>  <Name>
ligand

>  <RI>
0

>  <Rbt.Current_Directory>
/home/itssahil/PROJECTS/Mol_Feturizer/Test_systems_manuscript/rnas/4kqy

>  <Rbt.Executable>
rbdock ($Id: //depot/dev/client3/rdock/2013.1/src/exe/rbdock.cxx#4 $)

>  <Rbt.Library>
libRbt.so (2013.1, Build901 2013/11/27)

>  <Rbt.Parameter_File>
/export/apps/rDock/src/rDock_2013.1_src/data/scripts/dock_solv.prm

>  <Rbt.Receptor>
prm/blind_docking_20.prm

>  <SCORE>
-12.9772

>  <SCORE.INTER>
-13.4818

>  <SCORE.INTER.CONST>
1

>  <SCORE.INTER.POLAR>
0

>  <SCORE.INTER.ROT>
7

>  <SCORE.INTER.SOLV>
10.4516

>  <SCORE.INTER.VDW>
-20.7384

>  <SCORE.INTER.norm>
-0.499326

>  <SCORE.INTRA>
0.504631

>  <SCORE.INTRA.DIHEDRAL>
-1.80266

>  <SCORE.INTRA.DIHEDRAL.0>
10.4103

>  <SCORE.INTRA.POLAR>
0

>  <SCORE.INTRA.POLAR.0>
0

>  <SCORE.INTRA.REPUL>
0

>  <SCORE.INTRA.REPUL.0>
0

>  <SCORE.INTRA.SOLV>
1.80979

>  <SCORE.INTRA.SOLV.lig_0>
-49.5008

>  <SCORE.INTRA.VDW>
0.501065

>  <SCORE.INTRA.VDW.0>
-2.6946

>  <SCORE.INTRA.norm>
0.01869

>  <SCORE.RESTR>
0

>  <SCORE.RESTR.CAVITY>
0

>  <SCORE.RESTR.norm>
0

>  <SCORE.SYSTEM>
0

>  <SCORE.SYSTEM.CONST>
0

>  <SCORE.SYSTEM.DIHEDRAL>
0

>  <SCORE.SYSTEM.SOLV>
0

>  <SCORE.SYSTEM.norm>
0

>  <SCORE.heavy>
27

>  <SCORE.norm>
-0.480636

>  <RMSD>
13.969

$$$$
ligand
 OpenBabel02271912153D
libRbt.so/2013.1/901 2013/11/27
 27 29  0  0  0  0  0  0  0  0999 V2000
    1.5945   -9.5582    9.0149 N   0  0  0  0  0  0  0  0  0  0  0  0
    0.8368  -10.2122   10.0648 C   0  0  2  0  0  0  0  0  0  0  0  0
    1.2198   -9.5647   11.3599 C   0  0  0  0  0  0  0  0  0  0  0  0
    2.2814   -9.9081   11.9231 O   0  0  0  0  0  0  0  0  0  0  0  0
    1.1579  -11.7088   10.1037 C   0  0  0  0  0  0  0  0  0  0  0  0
    0.4076  -12.4183   11.2527 C   0  0  0  0  0  0  0  0  0  0  0  0
    0.8186  -14.0259   11.5012 S   0  0  2  0  0  0  0  0  0  0  0  0
    0.0504  -14.5871   12.8627 C   0  0  0  0  0  0  0  0  0  0  0  0
    2.4930  -14.1685   11.6586 C   0  0  0  0  0  0  0  0  0  0  0  0
    2.9677  -15.5756   12.0786 C   0  0  1  0  0  0  0  0  0  0  0  0
    2.8433  -16.5513   11.0305 O   0  0  0  0  0  0  0  0  0  0  0  0
    4.4517  -15.6458   12.4005 C   0  0  1  0  0  0  0  0  0  0  0  0
    4.8851  -15.0848   13.6560 O   0  0  0  0  0  0  0  0  0  0  0  0
    4.6896  -17.1309   12.2814 C   0  0  1  0  0  0  0  0  0  0  0  0
    4.0999  -17.8108   13.3854 O   0  0  0  0  0  0  0  0  0  0  0  0
    3.9311  -17.4789   11.0348 C   0  0  2  0  0  0  0  0  0  0  0  0
    0.4858   -8.6680   11.8400 O   0  0  0  0  0  0  0  0  0  0  0  0
    6.4959  -19.8535    7.0275 N   0  0  0  0  0  0  0  0  0  0  0  0
    5.7514  -20.4101    8.0136 C   0  0  0  0  0  0  0  0  0  0  0  0
    5.1598  -19.6836    8.9766 N   0  0  0  0  0  0  0  0  0  0  0  0
    5.2515  -18.3495    9.0119 C   0  0  0  0  0  0  0  0  0  0  0  0
    6.0195  -17.6905    7.9664 C   0  0  0  0  0  0  0  0  0  0  0  0
    6.6832  -18.5007    6.9189 C   0  0  0  0  0  0  0  0  0  0  0  0
    7.4282  -17.9333    5.9061 N   0  0  0  0  0  0  0  0  0  0  0  0
    5.9401  -16.4043    8.2222 N   0  0  0  0  0  0  0  0  0  0  0  0
    5.2133  -16.2267    9.3340 C   0  0  0  0  0  0  0  0  0  0  0  0
    4.7896  -17.3954    9.8137 N   0  0  0  0  0  0  0  0  0  0  0  0
  2  1  1  6  0  0  0
  2  3  1  0  0  0  0
  2  5  1  0  0  0  0
  3  4  1  0  0  0  0
  3 17  1  0  0  0  0
  5  6  1  0  0  0  0
  7  6  1  1  0  0  0
  7  8  1  0  0  0  0
  7  9  1  0  0  0  0
 10  9  1  6  0  0  0
 10 11  1  0  0  0  0
 10 12  1  0  0  0  0
 11 16  1  0  0  0  0
 12 13  1  1  0  0  0
 12 14  1  0  0  0  0
 14 15  1  1  0  0  0
 14 16  1  0  0  0  0
 16 27  1  6  0  0  0
 18 19  2  0  0  0  0
 18 23  1  0  0  0  0
 19 20  1  0  0  0  0
 20 21  2  0  0  0  0
 21 22  1  0  0  0  0
 21 27  1  0  0  0  0
 22 23  2  0  0  0  0
 22 25  1  0  0  0  0
 23 24  1  0  0  0  0
 25 26  2  0  0  0  0
 26 27  1  0  0  0  0
M  END
>  <CHROM.1>
-80.41716057,177.61725611,-173.26048644,173.95349861,172.22465755,72.16523588
-132.37434444,3.43027756,-15.13107524,10.46544666,-2.78536844,-0.99827680
2.34499002

>  <Name>
ligand

>  <RI>
0

>  <Rbt.Current_Directory>
/home/itssahil/PROJECTS/Mol_Feturizer/Test_systems_manuscript/rnas/4kqy

>  <Rbt.Executable>
rbdock ($Id: //depot/dev/client3/rdock/2013.1/src/exe/rbdock.cxx#4 $)

>  <Rbt.Library>
libRbt.so (2013.1, Build901 2013/11/27)

>  <Rbt.Parameter_File>
/export/apps/rDock/src/rDock_2013.1_src/data/scripts/dock_solv.prm

>  <Rbt.Receptor>
prm/blind_docking_60.prm

>  <SCORE>
-21.2486

>  <SCORE.INTER>
-18.7224

>  <SCORE.INTER.CONST>
1

>  <SCORE.INTER.POLAR>
0

>  <SCORE.INTER.ROT>
7

>  <SCORE.INTER.SOLV>
17.7873

>  <SCORE.INTER.VDW>
-26.6774

>  <SCORE.INTER.norm>
-0.693424

>  <SCORE.INTRA>
-2.52621

>  <SCORE.INTRA.DIHEDRAL>
-6.66186

>  <SCORE.INTRA.DIHEDRAL.0>
10.4103

>  <SCORE.INTRA.POLAR>
0

>  <SCORE.INTRA.POLAR.0>
0

>  <SCORE.INTRA.REPUL>
0

>  <SCORE.INTRA.REPUL.0>
0

>  <SCORE.INTRA.SOLV>
-0.706509

>  <SCORE.INTRA.SOLV.lig_0>
-49.5008

>  <SCORE.INTRA.VDW>
1.15798

>  <SCORE.INTRA.VDW.0>
-2.6946

>  <SCORE.INTRA.norm>
-0.0935632

>  <SCORE.RESTR>
0

>  <SCORE.RESTR.CAVITY>
0

>  <SCORE.RESTR.norm>
0

>  <SCORE.SYSTEM>
0

>  <SCORE.SYSTEM.CONST>
0

>  <SCORE.SYSTEM.DIHEDRAL>
0

>  <SCORE.SYSTEM.SOLV>
0

>  <SCORE.SYSTEM.norm>
0

>  <SCORE.heavy>
27

>  <SCORE.norm>
-0.786987

>  <RMSD>
13.987

$$$$
ligand
 OpenBabel02271912153D
libRbt.so/2013.1/901 2013/11/27
 27 29  0  0  0  0  0  0  0  0999 V2000
   -1.5551   -9.7828   10.0535 N   0  0  0  0  0  0  0  0  0  0  0  0
   -0.3343  -10.3026   10.6397 C   0  0  2  0  0  0  0  0  0  0  0  0
    0.1580   -9.2833   11.6205 C   0  0  0  0  0  0  0  0  0  0  0  0
    0.8455   -9.6570   12.5952 O   0  0  0  0  0  0  0  0  0  0  0  0
    0.7181  -10.5479    9.5550 C   0  0  0  0  0  0  0  0  0  0  0  0
    1.9899  -11.2022   10.1389 C   0  0  0  0  0  0  0  0  0  0  0  0
    1.8627  -12.8358   10.4998 S   0  0  2  0  0  0  0  0  0  0  0  0
    0.6356  -13.0643   11.5955 C   0  0  0  0  0  0  0  0  0  0  0  0
    3.3285  -13.3986   11.1189 C   0  0  0  0  0  0  0  0  0  0  0  0
    3.2896  -14.8677   11.5902 C   0  0  1  0  0  0  0  0  0  0  0  0
    3.0005  -15.7947   10.5305 O   0  0  0  0  0  0  0  0  0  0  0  0
    4.6276  -15.3784   12.0998 C   0  0  1  0  0  0  0  0  0  0  0  0
    5.0546  -14.9332   13.4030 O   0  0  0  0  0  0  0  0  0  0  0  0
    4.4080  -16.8681   12.0056 C   0  0  1  0  0  0  0  0  0  0  0  0
    3.5054  -17.2946   13.0217 O   0  0  0  0  0  0  0  0  0  0  0  0
    3.7393  -17.0106   10.6704 C   0  0  2  0  0  0  0  0  0  0  0  0
   -0.1011   -8.0710   11.4299 O   0  0  0  0  0  0  0  0  0  0  0  0
    6.1711  -20.2849    7.2585 N   0  0  0  0  0  0  0  0  0  0  0  0
    5.2215  -20.5674    8.1832 C   0  0  0  0  0  0  0  0  0  0  0  0
    4.6941  -19.6336    8.9928 N   0  0  0  0  0  0  0  0  0  0  0  0
    5.0611  -18.3492    8.9227 C   0  0  0  0  0  0  0  0  0  0  0  0
    6.0617  -17.9785    7.9334 C   0  0  0  0  0  0  0  0  0  0  0  0
    6.6508  -19.0176    7.0573 C   0  0  0  0  0  0  0  0  0  0  0  0
    7.6061  -18.7278    6.1054 N   0  0  0  0  0  0  0  0  0  0  0  0
    6.2281  -16.6818    8.0629 N   0  0  0  0  0  0  0  0  0  0  0  0
    5.4370  -16.2388    9.0496 C   0  0  0  0  0  0  0  0  0  0  0  0
    4.7255  -17.2380    9.5701 N   0  0  0  0  0  0  0  0  0  0  0  0
  2  1  1  6  0  0  0
  2  3  1  0  0  0  0
  2  5  1  0  0  0  0
  3  4  1  0  0  0  0
  3 17  1  0  0  0  0
  5  6  1  0  0  0  0
  7  6  1  1  0  0  0
  7  8  1  0  0  0  0
  7  9  1  0  0  0  0
 10  9  1  6  0  0  0
 10 11  1  0  0  0  0
 10 12  1  0  0  0  0
 11 16  1  0  0  0  0
 12 13  1  1  0  0  0
 12 14  1  0  0  0  0
 14 15  1  1  0  0  0
 14 16  1  0  0  0  0
 16 27  1  6  0  0  0
 18 19  2  0  0  0  0
 18 23  1  0  0  0  0
 19 20  1  0  0  0  0
 20 21  2  0  0  0  0
 21 22  1  0  0  0  0
 21 27  1  0  0  0  0
 22 23  2  0  0  0  0
 22 25  1  0  0  0  0
 23 24  1  0  0  0  0
 25 26  2  0  0  0  0
 26 27  1  0  0  0  0
M  END
>  <CHROM.1>
152.62740749,-175.67943083,75.77575947,-58.57184049,175.40783401,62.26503396
-140.18743543,3.30291608,-14.79045953,10.23556446,3.01062700,-1.02097841
1.72599789

>  <Name>
ligand

>  <RI>
0

>  <Rbt.Current_Directory>
/home/itssahil/PROJECTS/Mol_Feturizer/Test_systems_manuscript/rnas/4kqy

>  <Rbt.Executable>
rbdock ($Id: //depot/dev/client3/rdock/2013.1/src/exe/rbdock.cxx#4 $)

>  <Rbt.Library>
libRbt.so (2013.1, Build901 2013/11/27)

>  <Rbt.Parameter_File>
/export/apps/rDock/src/rDock_2013.1_src/data/scripts/dock_solv.prm

>  <Rbt.Receptor>
prm/blind_docking_100.prm

>  <SCORE>
-20.5406

>  <SCORE.INTER>
-18.1486

>  <SCORE.INTER.CONST>
1

>  <SCORE.INTER.POLAR>
0

>  <SCORE.INTER.ROT>
7

>  <SCORE.INTER.SOLV>
16.0148

>  <SCORE.INTER.VDW>
-25.704

>  <SCORE.INTER.norm>
-0.672171

>  <SCORE.INTRA>
-2.39198

>  <SCORE.INTRA.DIHEDRAL>
-6.6734

>  <SCORE.INTRA.DIHEDRAL.0>
10.4103

>  <SCORE.INTRA.POLAR>
0

>  <SCORE.INTRA.POLAR.0>
0

>  <SCORE.INTRA.REPUL>
0

>  <SCORE.INTRA.REPUL.0>
0

>  <SCORE.INTRA.SOLV>
-0.17981

>  <SCORE.INTRA.SOLV.lig_0>
-49.5008

>  <SCORE.INTRA.VDW>
1.03462

>  <SCORE.INTRA.VDW.0>
-2.6946

>  <SCORE.INTRA.norm>
-0.0885919

>  <SCORE.RESTR>
0

>  <SCORE.RESTR.CAVITY>
0

>  <SCORE.RESTR.norm>
0

>  <SCORE.SYSTEM>
0

>  <SCORE.SYSTEM.CONST>
0

>  <SCORE.SYSTEM.DIHEDRAL>
0

>  <SCORE.SYSTEM.SOLV>
0

>  <SCORE.SYSTEM.norm>
0

>  <SCORE.heavy>
27

>  <SCORE.norm>
-0.760763

>  <RMSD>
14.060

$$$$
ligand
 OpenBabel02271912153D
libRbt.so/2013.1/901 2013/11/27
 27 29  0  0  0  0  0  0  0  0999 V2000
    5.4084  -19.2798    7.0491 N   0  0  0  0  0  0  0  0  0  0  0  0
    5.7675  -17.8810    7.1860 C   0  0  2  0  0  0  0  0  0  0  0  0
    7.0676  -17.6828    6.4695 C   0  0  0  0  0  0  0  0  0  0  0  0
    7.7190  -18.6834    6.0998 O   0  0  0  0  0  0  0  0  0  0  0  0
    5.9129  -17.5081    8.6638 C   0  0  0  0  0  0  0  0  0  0  0  0
    4.5615  -17.6021    9.4063 C   0  0  0  0  0  0  0  0  0  0  0  0
    4.4341  -16.6729   10.7976 S   0  0  2  0  0  0  0  0  0  0  0  0
    4.2779  -17.6719   12.1152 C   0  0  0  0  0  0  0  0  0  0  0  0
    3.1068  -15.6379   10.6722 C   0  0  0  0  0  0  0  0  0  0  0  0
    3.1420  -14.4482   11.6545 C   0  0  1  0  0  0  0  0  0  0  0  0
    4.2104  -13.5247   11.3872 O   0  0  0  0  0  0  0  0  0  0  0  0
    1.9189  -13.5498   11.5656 C   0  0  1  0  0  0  0  0  0  0  0  0
    0.6929  -14.0395   12.1451 O   0  0  0  0  0  0  0  0  0  0  0  0
    2.4474  -12.2988   12.2228 C   0  0  1  0  0  0  0  0  0  0  0  0
    2.5814  -12.5029   13.6261 O   0  0  0  0  0  0  0  0  0  0  0  0
    3.8140  -12.1706   11.6176 C   0  0  2  0  0  0  0  0  0  0  0  0
    7.4641  -16.5182    6.2253 O   0  0  0  0  0  0  0  0  0  0  0  0
    5.7511  -11.0427    6.7956 N   0  0  0  0  0  0  0  0  0  0  0  0
    6.1222  -12.0206    7.6574 C   0  0  0  0  0  0  0  0  0  0  0  0
    5.5457  -12.1881    8.8594 N   0  0  0  0  0  0  0  0  0  0  0  0
    4.5445  -11.4058    9.2778 C   0  0  0  0  0  0  0  0  0  0  0  0
    4.0853  -10.3506    8.3872 C   0  0  0  0  0  0  0  0  0  0  0  0
    4.7387  -10.1619    7.0713 C   0  0  0  0  0  0  0  0  0  0  0  0
    4.3508   -9.1764    6.1875 N   0  0  0  0  0  0  0  0  0  0  0  0
    3.1039   -9.7503    9.0216 N   0  0  0  0  0  0  0  0  0  0  0  0
    2.9409  -10.3310   10.2183 C   0  0  0  0  0  0  0  0  0  0  0  0
    3.8029  -11.3344   10.3784 N   0  0  0  0  0  0  0  0  0  0  0  0
  2  1  1  1  0  0  0
  2  3  1  0  0  0  0
  2  5  1  0  0  0  0
  3  4  1  0  0  0  0
  3 17  1  0  0  0  0
  5  6  1  0  0  0  0
  7  6  1  6  0  0  0
  7  8  1  0  0  0  0
  7  9  1  0  0  0  0
 10  9  1  6  0  0  0
 10 11  1  0  0  0  0
 10 12  1  0  0  0  0
 11 16  1  0  0  0  0
 12 13  1  1  0  0  0
 12 14  1  0  0  0  0
 14 15  1  1  0  0  0
 14 16  1  0  0  0  0
 16 27  1  6  0  0  0
 18 19  2  0  0  0  0
 18 23  1  0  0  0  0
 19 20  1  0  0  0  0
 20 21  2  0  0  0  0
 21 22  1  0  0  0  0
 21 27  1  0  0  0  0
 22 23  2  0  0  0  0
 22 25  1  0  0  0  0
 23 24  1  0  0  0  0
 25 26  2  0  0  0  0
 26 27  1  0  0  0  0
M  END
>  <CHROM.1>
-11.73514715,-65.77278540,-156.53104207,-114.80703138,-161.55171396,66.30153019
-30.53502586,4.42683466,-14.12928050,9.46618890,-0.85369887,0.98941754,-0.29349195

>  <Name>
ligand

>  <RI>
0

>  <Rbt.Current_Directory>
/home/itssahil/PROJECTS/Mol_Feturizer/Test_systems_manuscript/rnas/4kqy

>  <Rbt.Executable>
rbdock ($Id: //depot/dev/client3/rdock/2013.1/src/exe/rbdock.cxx#4 $)

>  <Rbt.Library>
libRbt.so (2013.1, Build901 2013/11/27)

>  <Rbt.Parameter_File>
/export/apps/rDock/src/rDock_2013.1_src/data/scripts/dock_solv.prm

>  <Rbt.Receptor>
prm/blind_docking_100.prm

>  <SCORE>
-12.939

>  <SCORE.INTER>
-13.7033

>  <SCORE.INTER.CONST>
1

>  <SCORE.INTER.POLAR>
0

>  <SCORE.INTER.ROT>
7

>  <SCORE.INTER.SOLV>
18.5525

>  <SCORE.INTER.VDW>
-23.5864

>  <SCORE.INTER.norm>
-0.507531

>  <SCORE.INTRA>
0.764303

>  <SCORE.INTRA.DIHEDRAL>
0.196774

>  <SCORE.INTRA.DIHEDRAL.0>
10.4103

>  <SCORE.INTRA.POLAR>
0

>  <SCORE.INTRA.POLAR.0>
0

>  <SCORE.INTRA.REPUL>
0

>  <SCORE.INTRA.REPUL.0>
0

>  <SCORE.INTRA.SOLV>
-0.0292769

>  <SCORE.INTRA.SOLV.lig_0>
-49.5008

>  <SCORE.INTRA.VDW>
0.680554

>  <SCORE.INTRA.VDW.0>
-2.6946

>  <SCORE.INTRA.norm>
0.0283075

>  <SCORE.RESTR>
0

>  <SCORE.RESTR.CAVITY>
0

>  <SCORE.RESTR.norm>
0

>  <SCORE.SYSTEM>
0

>  <SCORE.SYSTEM.CONST>
0

>  <SCORE.SYSTEM.DIHEDRAL>
0

>  <SCORE.SYSTEM.SOLV>
0

>  <SCORE.SYSTEM.norm>
0

>  <SCORE.heavy>
27

>  <SCORE.norm>
-0.479223

>  <RMSD>
14.078

$$$$
ligand
 OpenBabel02271912153D
libRbt.so/2013.1/901 2013/11/27
 27 29  0  0  0  0  0  0  0  0999 V2000
    0.3245   -9.1288   12.6981 N   0  0  0  0  0  0  0  0  0  0  0  0
    0.4528   -9.9960   11.5424 C   0  0  2  0  0  0  0  0  0  0  0  0
   -0.9294  -10.2672   11.0334 C   0  0  0  0  0  0  0  0  0  0  0  0
   -1.1859  -10.0640    9.8271 O   0  0  0  0  0  0  0  0  0  0  0  0
    1.1427  -11.3066   11.9307 C   0  0  0  0  0  0  0  0  0  0  0  0
    1.2716  -12.2579   10.7204 C   0  0  0  0  0  0  0  0  0  0  0  0
    1.4891  -13.8790   11.0942 S   0  0  2  0  0  0  0  0  0  0  0  0
    0.3710  -14.3367   12.2340 C   0  0  0  0  0  0  0  0  0  0  0  0
    3.0584  -14.1270   11.6638 C   0  0  0  0  0  0  0  0  0  0  0  0
    3.3768  -15.5969   12.0102 C   0  0  1  0  0  0  0  0  0  0  0  0
    3.1228  -16.5025   10.9234 O   0  0  0  0  0  0  0  0  0  0  0  0
    4.8487  -15.8496   12.2941 C   0  0  1  0  0  0  0  0  0  0  0  0
    5.3660  -15.4001   13.5626 O   0  0  0  0  0  0  0  0  0  0  0  0
    4.9132  -17.3449   12.1041 C   0  0  1  0  0  0  0  0  0  0  0  0
    4.2698  -18.0042   13.1905 O   0  0  0  0  0  0  0  0  0  0  0  0
    4.0975  -17.5465   10.8614 C   0  0  2  0  0  0  0  0  0  0  0  0
   -1.7956  -10.7226   11.8180 O   0  0  0  0  0  0  0  0  0  0  0  0
    6.4253  -20.0332    6.7781 N   0  0  0  0  0  0  0  0  0  0  0  0
    5.6630  -20.5521    7.7712 C   0  0  0  0  0  0  0  0  0  0  0  0
    5.1387  -19.8005    8.7539 N   0  0  0  0  0  0  0  0  0  0  0  0
    5.3201  -18.4762    8.8037 C   0  0  0  0  0  0  0  0  0  0  0  0
    6.1117  -17.8560    7.7520 C   0  0  0  0  0  0  0  0  0  0  0  0
    6.7008  -18.6946    6.6824 C   0  0  0  0  0  0  0  0  0  0  0  0
    7.4639  -18.1647    5.6629 N   0  0  0  0  0  0  0  0  0  0  0  0
    6.1232  -16.5709    8.0248 N   0  0  0  0  0  0  0  0  0  0  0  0
    5.4300  -16.3601    9.1522 C   0  0  0  0  0  0  0  0  0  0  0  0
    4.9376  -17.5042    9.6255 N   0  0  0  0  0  0  0  0  0  0  0  0
  2  1  1  1  0  0  0
  2  3  1  0  0  0  0
  2  5  1  0  0  0  0
  3  4  1  0  0  0  0
  3 17  1  0  0  0  0
  5  6  1  0  0  0  0
  7  6  1  1  0  0  0
  7  8  1  0  0  0  0
  7  9  1  0  0  0  0
 10  9  1  6  0  0  0
 10 11  1  0  0  0  0
 10 12  1  0  0  0  0
 11 16  1  0  0  0  0
 12 13  1  1  0  0  0
 12 14  1  0  0  0  0
 14 15  1  1  0  0  0
 14 16  1  0  0  0  0
 16 27  1  6  0  0  0
 18 19  2  0  0  0  0
 18 23  1  0  0  0  0
 19 20  1  0  0  0  0
 20 21  2  0  0  0  0
 21 22  1  0  0  0  0
 21 27  1  0  0  0  0
 22 23  2  0  0  0  0
 22 25  1  0  0  0  0
 23 24  1  0  0  0  0
 25 26  2  0  0  0  0
 26 27  1  0  0  0  0
M  END
>  <CHROM.1>
127.59900799,179.10580785,-159.05065186,48.20481213,-178.74897079,54.49863613
-135.66117018,3.28571287,-15.26525465,10.43253709,2.91715969,-0.92749219
1.69700446

>  <Name>
ligand

>  <RI>
0

>  <Rbt.Current_Directory>
/home/itssahil/PROJECTS/Mol_Feturizer/Test_systems_manuscript/rnas/4kqy

>  <Rbt.Executable>
rbdock ($Id: //depot/dev/client3/rdock/2013.1/src/exe/rbdock.cxx#4 $)

>  <Rbt.Library>
libRbt.so (2013.1, Build901 2013/11/27)

>  <Rbt.Parameter_File>
/export/apps/rDock/src/rDock_2013.1_src/data/scripts/dock_solv.prm

>  <Rbt.Receptor>
prm/blind_docking_80.prm

>  <SCORE>
-17.2079

>  <SCORE.INTER>
-15.0052

>  <SCORE.INTER.CONST>
1

>  <SCORE.INTER.POLAR>
0

>  <SCORE.INTER.ROT>
7

>  <SCORE.INTER.SOLV>
19.9995

>  <SCORE.INTER.VDW>
-24.9366

>  <SCORE.INTER.norm>
-0.555749

>  <SCORE.INTRA>
-2.21736

>  <SCORE.INTRA.DIHEDRAL>
-5.60013

>  <SCORE.INTRA.DIHEDRAL.0>
10.4103

>  <SCORE.INTRA.POLAR>
0

>  <SCORE.INTRA.POLAR.0>
0

>  <SCORE.INTRA.REPUL>
0

>  <SCORE.INTRA.REPUL.0>
0

>  <SCORE.INTRA.SOLV>
-0.684776

>  <SCORE.INTRA.SOLV.lig_0>
-49.5008

>  <SCORE.INTRA.VDW>
0.925094

>  <SCORE.INTRA.VDW.0>
-2.6946

>  <SCORE.INTRA.norm>
-0.0821244

>  <SCORE.RESTR>
0.01467

>  <SCORE.RESTR.CAVITY>
0.01467

>  <SCORE.RESTR.norm>
0.000543334

>  <SCORE.SYSTEM>
0

>  <SCORE.SYSTEM.CONST>
0

>  <SCORE.SYSTEM.DIHEDRAL>
0

>  <SCORE.SYSTEM.SOLV>
0

>  <SCORE.SYSTEM.norm>
0

>  <SCORE.heavy>
27

>  <SCORE.norm>
-0.63733

>  <RMSD>
14.082

$$$$
ligand
 OpenBabel02271912153D
libRbt.so/2013.1/901 2013/11/27
 27 29  0  0  0  0  0  0  0  0999 V2000
    0.3470   -9.7240    8.5091 N   0  0  0  0  0  0  0  0  0  0  0  0
    0.1695  -10.2796    9.8372 C   0  0  2  0  0  0  0  0  0  0  0  0
    0.8541   -9.3591   10.8002 C   0  0  0  0  0  0  0  0  0  0  0  0
    1.7003   -8.5460   10.3700 O   0  0  0  0  0  0  0  0  0  0  0  0
    0.7799  -11.6815    9.9168 C   0  0  0  0  0  0  0  0  0  0  0  0
    0.4164  -12.3818   11.2450 C   0  0  0  0  0  0  0  0  0  0  0  0
    0.9635  -13.9599   11.4043 S   0  0  2  0  0  0  0  0  0  0  0  0
    0.4060  -14.5948   12.8343 C   0  0  0  0  0  0  0  0  0  0  0  0
    2.6504  -13.9858   11.3569 C   0  0  0  0  0  0  0  0  0  0  0  0
    3.2751  -15.2860   11.9056 C   0  0  1  0  0  0  0  0  0  0  0  0
    2.9566  -16.4442   11.1163 O   0  0  0  0  0  0  0  0  0  0  0  0
    4.7950  -15.2909   11.8740 C   0  0  1  0  0  0  0  0  0  0  0  0
    5.4813  -14.4995   12.8647 O   0  0  0  0  0  0  0  0  0  0  0  0
    5.0680  -16.7710   11.9791 C   0  0  1  0  0  0  0  0  0  0  0  0
    4.7834  -17.2284   13.2977 O   0  0  0  0  0  0  0  0  0  0  0  0
    4.0580  -17.3520   11.0344 C   0  0  2  0  0  0  0  0  0  0  0  0
    0.5440   -9.3984   12.0149 O   0  0  0  0  0  0  0  0  0  0  0  0
    5.3857  -20.4308    6.9072 N   0  0  0  0  0  0  0  0  0  0  0  0
    4.8539  -20.7870    8.1017 C   0  0  0  0  0  0  0  0  0  0  0  0
    4.5718  -19.8960    9.0670 N   0  0  0  0  0  0  0  0  0  0  0  0
    4.7805  -18.5851    8.9012 C   0  0  0  0  0  0  0  0  0  0  0  0
    5.3295  -18.1371    7.6302 C   0  0  0  0  0  0  0  0  0  0  0  0
    5.6542  -19.1282    6.5784 C   0  0  0  0  0  0  0  0  0  0  0  0
    6.1811  -18.7644    5.3566 N   0  0  0  0  0  0  0  0  0  0  0  0
    5.4212  -16.8298    7.7223 N   0  0  0  0  0  0  0  0  0  0  0  0
    4.9979  -16.4490    8.9354 C   0  0  0  0  0  0  0  0  0  0  0  0
    4.6045  -17.5020    9.6510 N   0  0  0  0  0  0  0  0  0  0  0  0
  2  1  1  6  0  0  0
  2  3  1  0  0  0  0
  2  5  1  0  0  0  0
  3  4  1  0  0  0  0
  3 17  1  0  0  0  0
  5  6  1  0  0  0  0
  7  6  1  1  0  0  0
  7  8  1  0  0  0  0
  7  9  1  0  0  0  0
 10  9  1  6  0  0  0
 10 11  1  0  0  0  0
 10 12  1  0  0  0  0
 11 16  1  0  0  0  0
 12 13  1  1  0  0  0
 12 14  1  0  0  0  0
 14 15  1  1  0  0  0
 14 16  1  0  0  0  0
 16 27  1  6  0  0  0
 18 19  2  0  0  0  0
 18 23  1  0  0  0  0
 19 20  1  0  0  0  0
 20 21  2  0  0  0  0
 21 22  1  0  0  0  0
 21 27  1  0  0  0  0
 22 23  2  0  0  0  0
 22 25  1  0  0  0  0
 23 24  1  0  0  0  0
 25 26  2  0  0  0  0
 26 27  1  0  0  0  0
M  END
>  <CHROM.1>
-18.07750068,-171.20636105,176.77494895,-176.30248931,162.66627833,65.04240223
-124.32144061,3.21165087,-15.13906356,10.19484792,2.97654364,-1.08883968
1.69296710

>  <Name>
ligand

>  <RI>
0

>  <Rbt.Current_Directory>
/home/itssahil/PROJECTS/Mol_Feturizer/Test_systems_manuscript/rnas/4kqy

>  <Rbt.Executable>
rbdock ($Id: //depot/dev/client3/rdock/2013.1/src/exe/rbdock.cxx#4 $)

>  <Rbt.Library>
libRbt.so (2013.1, Build901 2013/11/27)

>  <Rbt.Parameter_File>
/export/apps/rDock/src/rDock_2013.1_src/data/scripts/dock_solv.prm

>  <Rbt.Receptor>
prm/blind_docking_80.prm

>  <SCORE>
-16.4961

>  <SCORE.INTER>
-14.3552

>  <SCORE.INTER.CONST>
1

>  <SCORE.INTER.POLAR>
0

>  <SCORE.INTER.ROT>
7

>  <SCORE.INTER.SOLV>
17.4397

>  <SCORE.INTER.VDW>
-23.65

>  <SCORE.INTER.norm>
-0.531673

>  <SCORE.INTRA>
-2.40591

>  <SCORE.INTRA.DIHEDRAL>
-6.21353

>  <SCORE.INTRA.DIHEDRAL.0>
10.4103

>  <SCORE.INTRA.POLAR>
0

>  <SCORE.INTRA.POLAR.0>
0

>  <SCORE.INTRA.REPUL>
0

>  <SCORE.INTRA.REPUL.0>
0

>  <SCORE.INTRA.SOLV>
-0.652324

>  <SCORE.INTRA.SOLV.lig_0>
-49.5008

>  <SCORE.INTRA.VDW>
1.02702

>  <SCORE.INTRA.VDW.0>
-2.6946

>  <SCORE.INTRA.norm>
-0.0891078

>  <SCORE.RESTR>
0.264953

>  <SCORE.RESTR.CAVITY>
0.264953

>  <SCORE.RESTR.norm>
0.00981309

>  <SCORE.SYSTEM>
0

>  <SCORE.SYSTEM.CONST>
0

>  <SCORE.SYSTEM.DIHEDRAL>
0

>  <SCORE.SYSTEM.SOLV>
0

>  <SCORE.SYSTEM.norm>
0

>  <SCORE.heavy>
27

>  <SCORE.norm>
-0.610967

>  <RMSD>
14.098

$$$$
ligand
 OpenBabel02271912153D
libRbt.so/2013.1/901 2013/11/27
 27 29  0  0  0  0  0  0  0  0999 V2000
  -14.6741  -10.5576   31.4401 N   0  0  0  0  0  0  0  0  0  0  0  0
  -13.6949   -9.9097   30.5883 C   0  0  2  0  0  0  0  0  0  0  0  0
  -13.4117   -8.5631   31.1797 C   0  0  0  0  0  0  0  0  0  0  0  0
  -14.2826   -8.0123   31.8871 O   0  0  0  0  0  0  0  0  0  0  0  0
  -14.2387   -9.7611   29.1648 C   0  0  0  0  0  0  0  0  0  0  0  0
  -13.1194   -9.3860   28.1682 C   0  0  0  0  0  0  0  0  0  0  0  0
  -13.5734   -9.3411   26.5536 S   0  0  2  0  0  0  0  0  0  0  0  0
  -12.2465   -8.9919   25.6175 C   0  0  0  0  0  0  0  0  0  0  0  0
  -14.7812   -8.1831   26.3330 C   0  0  0  0  0  0  0  0  0  0  0  0
  -15.6305   -8.3943   25.0618 C   0  0  1  0  0  0  0  0  0  0  0  0
  -16.2450   -7.1860   24.5842 O   0  0  0  0  0  0  0  0  0  0  0  0
  -14.8185   -8.8340   23.8542 C   0  0  1  0  0  0  0  0  0  0  0  0
  -14.3646  -10.2020   23.8227 O   0  0  0  0  0  0  0  0  0  0  0  0
  -15.7710   -8.4813   22.7385 C   0  0  1  0  0  0  0  0  0  0  0  0
  -16.8662   -9.3918   22.7244 O   0  0  0  0  0  0  0  0  0  0  0  0
  -16.2683   -7.1291   23.1560 C   0  0  2  0  0  0  0  0  0  0  0  0
  -12.2956   -8.0264   30.9813 O   0  0  0  0  0  0  0  0  0  0  0  0
  -15.8803   -2.5156   20.5404 N   0  0  0  0  0  0  0  0  0  0  0  0
  -16.9900   -3.2243   20.8612 C   0  0  0  0  0  0  0  0  0  0  0  0
  -16.9409   -4.3913   21.5253 N   0  0  0  0  0  0  0  0  0  0  0  0
  -15.7837   -4.9228   21.9349 C   0  0  0  0  0  0  0  0  0  0  0  0
  -14.5574   -4.1971   21.6401 C   0  0  0  0  0  0  0  0  0  0  0  0
  -14.6195   -2.9203   20.8917 C   0  0  0  0  0  0  0  0  0  0  0  0
  -13.4914   -2.1908   20.5787 N   0  0  0  0  0  0  0  0  0  0  0  0
  -13.5852   -4.9158   22.1541 N   0  0  0  0  0  0  0  0  0  0  0  0
  -14.1074   -6.0158   22.7137 C   0  0  0  0  0  0  0  0  0  0  0  0
  -15.4341   -6.0249   22.5903 N   0  0  0  0  0  0  0  0  0  0  0  0
  2  1  1  1  0  0  0
  2  3  1  0  0  0  0
  2  5  1  0  0  0  0
  3  4  1  0  0  0  0
  3 17  1  0  0  0  0
  5  6  1  0  0  0  0
  7  6  1  1  0  0  0
  7  8  1  0  0  0  0
  7  9  1  0  0  0  0
 10  9  1  1  0  0  0
 10 11  1  0  0  0  0
 10 12  1  0  0  0  0
 11 16  1  0  0  0  0
 12 13  1  1  0  0  0
 12 14  1  0  0  0  0
 14 15  1  1  0  0  0
 14 16  1  0  0  0  0
 16 27  1  6  0  0  0
 18 19  2  0  0  0  0
 18 23  1  0  0  0  0
 19 20  1  0  0  0  0
 20 21  2  0  0  0  0
 21 22  1  0  0  0  0
 21 27  1  0  0  0  0
 22 23  2  0  0  0  0
 22 25  1  0  0  0  0
 23 24  1  0  0  0  0
 25 26  2  0  0  0  0
 26 27  1  0  0  0  0
M  END
>  <CHROM.1>
-25.70320633,-166.65752235,174.37081243,-177.47400195,-158.59316199,-155.81973918
-112.87415457,-14.65857979,-7.29208655,25.11245305,1.07403482,1.20691167
2.56886483

>  <Name>
ligand

>  <RI>
0

>  <Rbt.Current_Directory>
/home/itssahil/PROJECTS/Mol_Feturizer/Test_systems_manuscript/rnas/4kqy

>  <Rbt.Executable>
rbdock ($Id: //depot/dev/client3/rdock/2013.1/src/exe/rbdock.cxx#4 $)

>  <Rbt.Library>
libRbt.so (2013.1, Build901 2013/11/27)

>  <Rbt.Parameter_File>
/export/apps/rDock/src/rDock_2013.1_src/data/scripts/dock_solv.prm

>  <Rbt.Receptor>
prm/blind_docking_100.prm

>  <SCORE>
-14.8776

>  <SCORE.INTER>
-14.5709

>  <SCORE.INTER.CONST>
1

>  <SCORE.INTER.POLAR>
0

>  <SCORE.INTER.ROT>
7

>  <SCORE.INTER.SOLV>
9.14224

>  <SCORE.INTER.VDW>
-21.028

>  <SCORE.INTER.norm>
-0.539663

>  <SCORE.INTRA>
-0.306745

>  <SCORE.INTRA.DIHEDRAL>
-3.68981

>  <SCORE.INTRA.DIHEDRAL.0>
10.4103

>  <SCORE.INTRA.POLAR>
0

>  <SCORE.INTRA.POLAR.0>
0

>  <SCORE.INTRA.REPUL>
0

>  <SCORE.INTRA.REPUL.0>
0

>  <SCORE.INTRA.SOLV>
-0.219438

>  <SCORE.INTRA.SOLV.lig_0>
-49.5008

>  <SCORE.INTRA.VDW>
1.64788

>  <SCORE.INTRA.VDW.0>
-2.6946

>  <SCORE.INTRA.norm>
-0.0113609

>  <SCORE.RESTR>
0

>  <SCORE.RESTR.CAVITY>
0

>  <SCORE.RESTR.norm>
0

>  <SCORE.SYSTEM>
0

>  <SCORE.SYSTEM.CONST>
0

>  <SCORE.SYSTEM.DIHEDRAL>
0

>  <SCORE.SYSTEM.SOLV>
0

>  <SCORE.SYSTEM.norm>
0

>  <SCORE.heavy>
27

>  <SCORE.norm>
-0.551023

>  <RMSD>
14.158

$$$$
ligand
 OpenBabel02271912153D
libRbt.so/2013.1/901 2013/11/27
 27 29  0  0  0  0  0  0  0  0999 V2000
  -13.1946   -8.6025   29.5659 N   0  0  0  0  0  0  0  0  0  0  0  0
  -14.1273   -9.6632   29.2354 C   0  0  2  0  0  0  0  0  0  0  0  0
  -13.6621  -10.9006   29.9394 C   0  0  0  0  0  0  0  0  0  0  0  0
  -12.6641  -11.5126   29.5017 O   0  0  0  0  0  0  0  0  0  0  0  0
  -14.1613   -9.8937   27.7222 C   0  0  0  0  0  0  0  0  0  0  0  0
  -14.6899   -8.6506   26.9727 C   0  0  0  0  0  0  0  0  0  0  0  0
  -14.6807   -8.7571   25.2982 S   0  0  2  0  0  0  0  0  0  0  0  0
  -13.1155   -8.9115   24.7643 C   0  0  0  0  0  0  0  0  0  0  0  0
  -15.4049   -7.3840   24.6358 C   0  0  0  0  0  0  0  0  0  0  0  0
  -15.9991   -7.6033   23.2285 C   0  0  1  0  0  0  0  0  0  0  0  0
  -16.9759   -6.6132   22.8657 O   0  0  0  0  0  0  0  0  0  0  0  0
  -14.9794   -7.4653   22.1095 C   0  0  1  0  0  0  0  0  0  0  0  0
  -14.0469   -8.5492   21.9248 O   0  0  0  0  0  0  0  0  0  0  0  0
  -15.8931   -7.2388   20.9305 C   0  0  1  0  0  0  0  0  0  0  0  0
  -16.5637   -8.4490   20.5918 O   0  0  0  0  0  0  0  0  0  0  0  0
  -16.8936   -6.2664   21.4813 C   0  0  2  0  0  0  0  0  0  0  0  0
  -14.2619  -11.2829   30.9725 O   0  0  0  0  0  0  0  0  0  0  0  0
  -13.2002   -2.4436   21.6256 N   0  0  0  0  0  0  0  0  0  0  0  0
  -13.0942   -3.7469   21.9817 C   0  0  0  0  0  0  0  0  0  0  0  0
  -14.1215   -4.6091   21.8997 N   0  0  0  0  0  0  0  0  0  0  0  0
  -15.3203   -4.2375   21.4370 C   0  0  0  0  0  0  0  0  0  0  0  0
  -15.4910   -2.8548   21.0172 C   0  0  0  0  0  0  0  0  0  0  0  0
  -14.3582   -1.9068   21.1279 C   0  0  0  0  0  0  0  0  0  0  0  0
  -14.4614   -0.5839   20.7510 N   0  0  0  0  0  0  0  0  0  0  0  0
  -16.7331   -2.7594   20.5998 N   0  0  0  0  0  0  0  0  0  0  0  0
  -17.3330   -3.9487   20.7465 C   0  0  0  0  0  0  0  0  0  0  0  0
  -16.4856   -4.8475   21.2462 N   0  0  0  0  0  0  0  0  0  0  0  0
  2  1  1  6  0  0  0
  2  3  1  0  0  0  0
  2  5  1  0  0  0  0
  3  4  1  0  0  0  0
  3 17  1  0  0  0  0
  5  6  1  0  0  0  0
  7  6  1  1  0  0  0
  7  8  1  0  0  0  0
  7  9  1  0  0  0  0
 10  9  1  1  0  0  0
 10 11  1  0  0  0  0
 10 12  1  0  0  0  0
 11 16  1  0  0  0  0
 12 13  1  6  0  0  0
 12 14  1  0  0  0  0
 14 15  1  1  0  0  0
 14 16  1  0  0  0  0
 16 27  1  1  0  0  0
 18 19  2  0  0  0  0
 18 23  1  0  0  0  0
 19 20  1  0  0  0  0
 20 21  2  0  0  0  0
 21 22  1  0  0  0  0
 21 27  1  0  0  0  0
 22 23  2  0  0  0  0
 22 25  1  0  0  0  0
 23 24  1  0  0  0  0
 25 26  2  0  0  0  0
 26 27  1  0  0  0  0
M  END
>  <CHROM.1>
-74.64360645,-63.73557710,176.36562592,-63.15444517,-155.04923836,160.35504109
70.06615094,-14.86343541,-6.87589682,24.00225590,-1.27233591,-1.02280654
-0.61469113

>  <Name>
ligand

>  <RI>
0

>  <Rbt.Current_Directory>
/home/itssahil/PROJECTS/Mol_Feturizer/Test_systems_manuscript/rnas/4kqy

>  <Rbt.Executable>
rbdock ($Id: //depot/dev/client3/rdock/2013.1/src/exe/rbdock.cxx#4 $)

>  <Rbt.Library>
libRbt.so (2013.1, Build901 2013/11/27)

>  <Rbt.Parameter_File>
/export/apps/rDock/src/rDock_2013.1_src/data/scripts/dock_solv.prm

>  <Rbt.Receptor>
prm/blind_docking_100.prm

>  <SCORE>
-13.2507

>  <SCORE.INTER>
-11.4426

>  <SCORE.INTER.CONST>
1

>  <SCORE.INTER.POLAR>
0

>  <SCORE.INTER.ROT>
7

>  <SCORE.INTER.SOLV>
12.4707

>  <SCORE.INTER.VDW>
-20.052

>  <SCORE.INTER.norm>
-0.423801

>  <SCORE.INTRA>
-1.8081

>  <SCORE.INTRA.DIHEDRAL>
-4.63433

>  <SCORE.INTRA.DIHEDRAL.0>
10.4103

>  <SCORE.INTRA.POLAR>
0

>  <SCORE.INTRA.POLAR.0>
0

>  <SCORE.INTRA.REPUL>
0

>  <SCORE.INTRA.REPUL.0>
0

>  <SCORE.INTRA.SOLV>
0.366468

>  <SCORE.INTRA.SOLV.lig_0>
-49.5008

>  <SCORE.INTRA.VDW>
0.325829

>  <SCORE.INTRA.VDW.0>
-2.6946

>  <SCORE.INTRA.norm>
-0.0669667

>  <SCORE.RESTR>
0

>  <SCORE.RESTR.CAVITY>
0

>  <SCORE.RESTR.norm>
0

>  <SCORE.SYSTEM>
0

>  <SCORE.SYSTEM.CONST>
0

>  <SCORE.SYSTEM.DIHEDRAL>
0

>  <SCORE.SYSTEM.SOLV>
0

>  <SCORE.SYSTEM.norm>
0

>  <SCORE.heavy>
27

>  <SCORE.norm>
-0.490767

>  <RMSD>
14.160

$$$$
ligand
 OpenBabel02271912153D
libRbt.so/2013.1/901 2013/11/27
 27 29  0  0  0  0  0  0  0  0999 V2000
   -0.7444  -10.2391   10.7854 N   0  0  0  0  0  0  0  0  0  0  0  0
    0.6561   -9.8710   10.7007 C   0  0  2  0  0  0  0  0  0  0  0  0
    0.8650   -9.2173    9.3695 C   0  0  0  0  0  0  0  0  0  0  0  0
    1.6193   -8.2238    9.2895 O   0  0  0  0  0  0  0  0  0  0  0  0
    1.5442  -11.1116   10.8287 C   0  0  0  0  0  0  0  0  0  0  0  0
    1.3427  -11.8131   12.1902 C   0  0  0  0  0  0  0  0  0  0  0  0
    2.4751  -12.9909   12.5719 S   0  0  2  0  0  0  0  0  0  0  0  0
    3.9699  -12.2856   12.7364 C   0  0  0  0  0  0  0  0  0  0  0  0
    2.5007  -14.1697   11.3643 C   0  0  0  0  0  0  0  0  0  0  0  0
    2.9737  -15.5565   11.8491 C   0  0  1  0  0  0  0  0  0  0  0  0
    2.8792  -16.5726   10.8369 O   0  0  0  0  0  0  0  0  0  0  0  0
    4.4503  -15.6044   12.2073 C   0  0  1  0  0  0  0  0  0  0  0  0
    4.8514  -14.9926   13.4497 O   0  0  0  0  0  0  0  0  0  0  0  0
    4.6994  -17.0914   12.1510 C   0  0  1  0  0  0  0  0  0  0  0  0
    4.0883  -17.7322   13.2668 O   0  0  0  0  0  0  0  0  0  0  0  0
    3.9719  -17.4921   10.9019 C   0  0  2  0  0  0  0  0  0  0  0  0
    0.3054   -9.6963    8.3543 O   0  0  0  0  0  0  0  0  0  0  0  0
    6.4667  -19.9820    6.9204 N   0  0  0  0  0  0  0  0  0  0  0  0
    5.6705  -20.5012    7.8863 C   0  0  0  0  0  0  0  0  0  0  0  0
    5.1052  -19.7487    8.8452 N   0  0  0  0  0  0  0  0  0  0  0  0
    5.2768  -18.4231    8.8959 C   0  0  0  0  0  0  0  0  0  0  0  0
    6.1039  -17.8026    7.8720 C   0  0  0  0  0  0  0  0  0  0  0  0
    6.7378  -18.6422    6.8292 C   0  0  0  0  0  0  0  0  0  0  0  0
    7.5358  -18.1120    5.8368 N   0  0  0  0  0  0  0  0  0  0  0  0
    6.0976  -16.5164    8.1394 N   0  0  0  0  0  0  0  0  0  0  0  0
    5.3611  -16.3050    9.2388 C   0  0  0  0  0  0  0  0  0  0  0  0
    4.8578  -17.4500    9.6984 N   0  0  0  0  0  0  0  0  0  0  0  0
  2  1  1  6  0  0  0
  2  3  1  0  0  0  0
  2  5  1  0  0  0  0
  3  4  1  0  0  0  0
  3 17  1  0  0  0  0
  5  6  1  0  0  0  0
  7  6  1  6  0  0  0
  7  8  1  0  0  0  0
  7  9  1  0  0  0  0
 10  9  1  6  0  0  0
 10 11  1  0  0  0  0
 10 12  1  0  0  0  0
 11 16  1  0  0  0  0
 12 13  1  1  0  0  0
 12 14  1  0  0  0  0
 14 15  1  1  0  0  0
 14 16  1  0  0  0  0
 16 27  1  6  0  0  0
 18 19  2  0  0  0  0
 18 23  1  0  0  0  0
 19 20  1  0  0  0  0
 20 21  2  0  0  0  0
 21 22  1  0  0  0  0
 21 27  1  0  0  0  0
 22 23  2  0  0  0  0
 22 25  1  0  0  0  0
 23 24  1  0  0  0  0
 25 26  2  0  0  0  0
 26 27  1  0  0  0  0
M  END
>  <CHROM.1>
140.48942116,-61.16460096,-168.05051264,64.53024923,-153.82765243,174.94508807
-127.64301132,3.64715919,-14.91535717,10.29201898,-3.07659030,-1.06728561
1.91427781

>  <Name>
ligand

>  <RI>
0

>  <Rbt.Current_Directory>
/home/itssahil/PROJECTS/Mol_Feturizer/Test_systems_manuscript/rnas/4kqy

>  <Rbt.Executable>
rbdock ($Id: //depot/dev/client3/rdock/2013.1/src/exe/rbdock.cxx#4 $)

>  <Rbt.Library>
libRbt.so (2013.1, Build901 2013/11/27)

>  <Rbt.Parameter_File>
/export/apps/rDock/src/rDock_2013.1_src/data/scripts/dock_solv.prm

>  <Rbt.Receptor>
prm/blind_docking_60.prm

>  <SCORE>
-15.744

>  <SCORE.INTER>
-14.3121

>  <SCORE.INTER.CONST>
1

>  <SCORE.INTER.POLAR>
0

>  <SCORE.INTER.ROT>
7

>  <SCORE.INTER.SOLV>
14.7152

>  <SCORE.INTER.VDW>
-22.7131

>  <SCORE.INTER.norm>
-0.530078

>  <SCORE.INTRA>
-1.43192

>  <SCORE.INTRA.DIHEDRAL>
-5.22758

>  <SCORE.INTRA.DIHEDRAL.0>
10.4103

>  <SCORE.INTRA.POLAR>
0

>  <SCORE.INTRA.POLAR.0>
0

>  <SCORE.INTRA.REPUL>
0

>  <SCORE.INTRA.REPUL.0>
0

>  <SCORE.INTRA.SOLV>
0.35316

>  <SCORE.INTRA.SOLV.lig_0>
-49.5008

>  <SCORE.INTRA.VDW>
1.00529

>  <SCORE.INTRA.VDW.0>
-2.6946

>  <SCORE.INTRA.norm>
-0.053034

>  <SCORE.RESTR>
0

>  <SCORE.RESTR.CAVITY>
0

>  <SCORE.RESTR.norm>
0

>  <SCORE.SYSTEM>
0

>  <SCORE.SYSTEM.CONST>
0

>  <SCORE.SYSTEM.DIHEDRAL>
0

>  <SCORE.SYSTEM.SOLV>
0

>  <SCORE.SYSTEM.norm>
0

>  <SCORE.heavy>
27

>  <SCORE.norm>
-0.583112

>  <RMSD>
14.169

$$$$
ligand
 OpenBabel02271912153D
libRbt.so/2013.1/901 2013/11/27
 27 29  0  0  0  0  0  0  0  0999 V2000
   -0.8943   -9.9123   10.6935 N   0  0  0  0  0  0  0  0  0  0  0  0
    0.5230  -10.0360   10.4103 C   0  0  2  0  0  0  0  0  0  0  0  0
    0.7920   -9.2801    9.1456 C   0  0  0  0  0  0  0  0  0  0  0  0
    0.1252   -9.5460    8.1225 O   0  0  0  0  0  0  0  0  0  0  0  0
    0.9086  -11.5081   10.2417 C   0  0  0  0  0  0  0  0  0  0  0  0
    0.6162  -12.3194   11.5234 C   0  0  0  0  0  0  0  0  0  0  0  0
    1.0018  -13.9508   11.4509 S   0  0  2  0  0  0  0  0  0  0  0  0
    0.2986  -14.7408   12.7315 C   0  0  0  0  0  0  0  0  0  0  0  0
    2.6785  -14.1419   11.4792 C   0  0  0  0  0  0  0  0  0  0  0  0
    3.1442  -15.5443   11.9244 C   0  0  1  0  0  0  0  0  0  0  0  0
    2.9870  -16.5437   10.9034 O   0  0  0  0  0  0  0  0  0  0  0  0
    4.6333  -15.6256   12.2188 C   0  0  1  0  0  0  0  0  0  0  0  0
    5.0986  -15.0395   13.4512 O   0  0  0  0  0  0  0  0  0  0  0  0
    4.8505  -17.1160   12.1317 C   0  0  1  0  0  0  0  0  0  0  0  0
    4.2747  -17.7612   13.2636 O   0  0  0  0  0  0  0  0  0  0  0  0
    4.0632  -17.4847   10.9093 C   0  0  2  0  0  0  0  0  0  0  0  0
    1.6585   -8.3732    9.1435 O   0  0  0  0  0  0  0  0  0  0  0  0
    6.5481  -19.9915    6.9323 N   0  0  0  0  0  0  0  0  0  0  0  0
    5.8222  -20.5149    7.9500 C   0  0  0  0  0  0  0  0  0  0  0  0
    5.2500  -19.7566    8.9002 N   0  0  0  0  0  0  0  0  0  0  0  0
    5.3435  -18.4223    8.8906 C   0  0  0  0  0  0  0  0  0  0  0  0
    6.0919  -17.7986    7.8097 C   0  0  0  0  0  0  0  0  0  0  0  0
    6.7345  -18.6433    6.7764 C   0  0  0  0  0  0  0  0  0  0  0  0
    7.4605  -18.1100    5.7317 N   0  0  0  0  0  0  0  0  0  0  0  0
    6.0187  -16.5047    8.0253 N   0  0  0  0  0  0  0  0  0  0  0  0
    5.3136  -16.2902    9.1446 C   0  0  0  0  0  0  0  0  0  0  0  0
    4.8981  -17.4421    9.6698 N   0  0  0  0  0  0  0  0  0  0  0  0
  2  1  1  6  0  0  0
  2  3  1  0  0  0  0
  2  5  1  0  0  0  0
  3  4  1  0  0  0  0
  3 17  1  0  0  0  0
  5  6  1  0  0  0  0
  7  6  1  1  0  0  0
  7  8  1  0  0  0  0
  7  9  1  0  0  0  0
 10  9  1  6  0  0  0
 10 11  1  0  0  0  0
 10 12  1  0  0  0  0
 11 16  1  0  0  0  0
 12 13  1  1  0  0  0
 12 14  1  0  0  0  0
 14 15  1  1  0  0  0
 14 16  1  0  0  0  0
 16 27  1  6  0  0  0
 18 19  2  0  0  0  0
 18 23  1  0  0  0  0
 19 20  1  0  0  0  0
 20 21  2  0  0  0  0
 21 22  1  0  0  0  0
 21 27  1  0  0  0  0
 22 23  2  0  0  0  0
 22 25  1  0  0  0  0
 23 24  1  0  0  0  0
 25 26  2  0  0  0  0
 26 27  1  0  0  0  0
M  END
>  <CHROM.1>
-54.12025272,-60.44839960,-179.98946803,-166.19970470,159.05532983,76.04924851
-133.15749866,3.37524890,-15.11835161,10.11750259,-2.84816501,-0.95940694
2.14549191

>  <Name>
ligand

>  <RI>
0

>  <Rbt.Current_Directory>
/home/itssahil/PROJECTS/Mol_Feturizer/Test_systems_manuscript/rnas/4kqy

>  <Rbt.Executable>
rbdock ($Id: //depot/dev/client3/rdock/2013.1/src/exe/rbdock.cxx#4 $)

>  <Rbt.Library>
libRbt.so (2013.1, Build901 2013/11/27)

>  <Rbt.Parameter_File>
/export/apps/rDock/src/rDock_2013.1_src/data/scripts/dock_solv.prm

>  <Rbt.Receptor>
prm/blind_docking_60.prm

>  <SCORE>
-19.9103

>  <SCORE.INTER>
-18.3223

>  <SCORE.INTER.CONST>
1

>  <SCORE.INTER.POLAR>
0

>  <SCORE.INTER.ROT>
7

>  <SCORE.INTER.SOLV>
16.1704

>  <SCORE.INTER.VDW>
-25.8717

>  <SCORE.INTER.norm>
-0.678605

>  <SCORE.INTRA>
-1.588

>  <SCORE.INTRA.DIHEDRAL>
-4.90723

>  <SCORE.INTRA.DIHEDRAL.0>
10.4103

>  <SCORE.INTRA.POLAR>
0

>  <SCORE.INTRA.POLAR.0>
0

>  <SCORE.INTRA.REPUL>
0

>  <SCORE.INTRA.REPUL.0>
0

>  <SCORE.INTRA.SOLV>
0.0467213

>  <SCORE.INTRA.SOLV.lig_0>
-49.5008

>  <SCORE.INTRA.VDW>
0.842259

>  <SCORE.INTRA.VDW.0>
-2.6946

>  <SCORE.INTRA.norm>
-0.0588146

>  <SCORE.RESTR>
0

>  <SCORE.RESTR.CAVITY>
0

>  <SCORE.RESTR.norm>
0

>  <SCORE.SYSTEM>
0

>  <SCORE.SYSTEM.CONST>
0

>  <SCORE.SYSTEM.DIHEDRAL>
0

>  <SCORE.SYSTEM.SOLV>
0

>  <SCORE.SYSTEM.norm>
0

>  <SCORE.heavy>
27

>  <SCORE.norm>
-0.73742

>  <RMSD>
14.187

$$$$
ligand
 OpenBabel02271912153D
libRbt.so/2013.1/901 2013/11/27
 27 29  0  0  0  0  0  0  0  0999 V2000
  -13.8627  -10.8427   27.2057 N   0  0  0  0  0  0  0  0  0  0  0  0
  -13.8997   -9.4809   26.7074 C   0  0  2  0  0  0  0  0  0  0  0  0
  -14.7585   -8.6874   27.6433 C   0  0  0  0  0  0  0  0  0  0  0  0
  -14.2148   -7.9356   28.4808 O   0  0  0  0  0  0  0  0  0  0  0  0
  -14.4821   -9.4447   25.2919 C   0  0  0  0  0  0  0  0  0  0  0  0
  -14.5434   -8.0022   24.7425 C   0  0  0  0  0  0  0  0  0  0  0  0
  -15.1993   -7.8401   23.2066 S   0  0  2  0  0  0  0  0  0  0  0  0
  -14.1675   -8.5136   22.0928 C   0  0  0  0  0  0  0  0  0  0  0  0
  -15.4605   -6.2074   22.8678 C   0  0  0  0  0  0  0  0  0  0  0  0
  -16.4237   -5.9561   21.6884 C   0  0  1  0  0  0  0  0  0  0  0  0
  -17.0155   -4.6465   21.7099 O   0  0  0  0  0  0  0  0  0  0  0  0
  -15.7398   -5.9711   20.3309 C   0  0  1  0  0  0  0  0  0  0  0  0
  -15.3589   -7.2540   19.7944 O   0  0  0  0  0  0  0  0  0  0  0  0
  -16.7645   -5.2413   19.4981 C   0  0  1  0  0  0  0  0  0  0  0  0
  -17.9011   -6.0722   19.2823 O   0  0  0  0  0  0  0  0  0  0  0  0
  -17.1567   -4.1044   20.3947 C   0  0  2  0  0  0  0  0  0  0  0  0
  -16.0067   -8.7667   27.5496 O   0  0  0  0  0  0  0  0  0  0  0  0
  -12.6514   -1.3857   21.1607 N   0  0  0  0  0  0  0  0  0  0  0  0
  -13.0028   -2.6062   21.6334 C   0  0  0  0  0  0  0  0  0  0  0  0
  -14.1893   -3.1764   21.3641 N   0  0  0  0  0  0  0  0  0  0  0  0
  -15.1000   -2.5792   20.5874 C   0  0  0  0  0  0  0  0  0  0  0  0
  -14.7722   -1.2754   20.0306 C   0  0  0  0  0  0  0  0  0  0  0  0
  -13.4690   -0.6463   20.3474 C   0  0  0  0  0  0  0  0  0  0  0  0
  -13.1048    0.5891   19.8537 N   0  0  0  0  0  0  0  0  0  0  0  0
  -15.8120   -0.9242   19.3085 N   0  0  0  0  0  0  0  0  0  0  0  0
  -16.7435   -1.8840   19.3929 C   0  0  0  0  0  0  0  0  0  0  0  0
  -16.3193   -2.8886   20.1586 N   0  0  0  0  0  0  0  0  0  0  0  0
  2  1  1  1  0  0  0
  2  3  1  0  0  0  0
  2  5  1  0  0  0  0
  3  4  1  0  0  0  0
  3 17  1  0  0  0  0
  5  6  1  0  0  0  0
  7  6  1  1  0  0  0
  7  8  1  0  0  0  0
  7  9  1  0  0  0  0
 10  9  1  1  0  0  0
 10 11  1  0  0  0  0
 10 12  1  0  0  0  0
 11 16  1  0  0  0  0
 12 13  1  6  0  0  0
 12 14  1  0  0  0  0
 14 15  1  1  0  0  0
 14 16  1  0  0  0  0
 16 27  1  1  0  0  0
 18 19  2  0  0  0  0
 18 23  1  0  0  0  0
 19 20  1  0  0  0  0
 20 21  2  0  0  0  0
 21 22  1  0  0  0  0
 21 27  1  0  0  0  0
 22 23  2  0  0  0  0
 22 25  1  0  0  0  0
 23 24  1  0  0  0  0
 25 26  2  0  0  0  0
 26 27  1  0  0  0  0
M  END
>  <CHROM.1>
102.34747668,179.51935496,-178.67669016,-68.78811135,-162.89905004,158.62351251
36.48767682,-15.14538372,-5.48084274,22.40546618,-1.49790422,-0.92014591
-0.67656573

>  <Name>
ligand

>  <RI>
0

>  <Rbt.Current_Directory>
/home/itssahil/PROJECTS/Mol_Feturizer/Test_systems_manuscript/rnas/4kqy

>  <Rbt.Executable>
rbdock ($Id: //depot/dev/client3/rdock/2013.1/src/exe/rbdock.cxx#4 $)

>  <Rbt.Library>
libRbt.so (2013.1, Build901 2013/11/27)

>  <Rbt.Parameter_File>
/export/apps/rDock/src/rDock_2013.1_src/data/scripts/dock_solv.prm

>  <Rbt.Receptor>
prm/blind_docking_100.prm

>  <SCORE>
-10.8352

>  <SCORE.INTER>
-8.72514

>  <SCORE.INTER.CONST>
1

>  <SCORE.INTER.POLAR>
0

>  <SCORE.INTER.ROT>
7

>  <SCORE.INTER.SOLV>
6.50927

>  <SCORE.INTER.VDW>
-16.2532

>  <SCORE.INTER.norm>
-0.323153

>  <SCORE.INTRA>
-2.1101

>  <SCORE.INTRA.DIHEDRAL>
-5.09631

>  <SCORE.INTRA.DIHEDRAL.0>
10.4103

>  <SCORE.INTRA.POLAR>
0

>  <SCORE.INTRA.POLAR.0>
0

>  <SCORE.INTRA.REPUL>
0

>  <SCORE.INTRA.REPUL.0>
0

>  <SCORE.INTRA.SOLV>
-0.345242

>  <SCORE.INTRA.SOLV.lig_0>
-49.5008

>  <SCORE.INTRA.VDW>
0.610679

>  <SCORE.INTRA.VDW.0>
-2.6946

>  <SCORE.INTRA.norm>
-0.0781518

>  <SCORE.RESTR>
0

>  <SCORE.RESTR.CAVITY>
0

>  <SCORE.RESTR.norm>
0

>  <SCORE.SYSTEM>
0

>  <SCORE.SYSTEM.CONST>
0

>  <SCORE.SYSTEM.DIHEDRAL>
0

>  <SCORE.SYSTEM.SOLV>
0

>  <SCORE.SYSTEM.norm>
0

>  <SCORE.heavy>
27

>  <SCORE.norm>
-0.401305

>  <RMSD>
14.213

$$$$
ligand
 OpenBabel02271912153D
libRbt.so/2013.1/901 2013/11/27
 27 29  0  0  0  0  0  0  0  0999 V2000
  -16.5488   -5.5445   20.6878 N   0  0  0  0  0  0  0  0  0  0  0  0
  -16.9493   -6.9155   20.9408 C   0  0  2  0  0  0  0  0  0  0  0  0
  -18.2519   -6.8700   21.6786 C   0  0  0  0  0  0  0  0  0  0  0  0
  -18.2439   -6.7925   22.9261 O   0  0  0  0  0  0  0  0  0  0  0  0
  -15.8894   -7.6369   21.7778 C   0  0  0  0  0  0  0  0  0  0  0  0
  -16.0687   -9.1701   21.7176 C   0  0  0  0  0  0  0  0  0  0  0  0
  -16.9171   -9.8502   22.9954 S   0  0  2  0  0  0  0  0  0  0  0  0
  -18.5407   -9.8422   22.6453 C   0  0  0  0  0  0  0  0  0  0  0  0
  -16.6072   -8.9842   24.4105 C   0  0  0  0  0  0  0  0  0  0  0  0
  -15.1230   -8.9809   24.8335 C   0  0  1  0  0  0  0  0  0  0  0  0
  -14.8597   -8.1398   25.9690 O   0  0  0  0  0  0  0  0  0  0  0  0
  -14.6264  -10.3326   25.3204 C   0  0  1  0  0  0  0  0  0  0  0  0
  -14.3785  -11.3458   24.3250 O   0  0  0  0  0  0  0  0  0  0  0  0
  -13.3951   -9.9147   26.0854 C   0  0  1  0  0  0  0  0  0  0  0  0
  -12.3698   -9.5146   25.1811 O   0  0  0  0  0  0  0  0  0  0  0  0
  -13.8774   -8.7096   26.8373 C   0  0  2  0  0  0  0  0  0  0  0  0
  -19.3261   -6.8786   21.0312 O   0  0  0  0  0  0  0  0  0  0  0  0
  -13.3414   -8.8318   32.1263 N   0  0  0  0  0  0  0  0  0  0  0  0
  -12.4880   -8.3451   31.1928 C   0  0  0  0  0  0  0  0  0  0  0  0
  -12.7503   -8.3864   29.8757 N   0  0  0  0  0  0  0  0  0  0  0  0
  -13.8910   -8.8964   29.3982 C   0  0  0  0  0  0  0  0  0  0  0  0
  -14.8588   -9.4150   30.3531 C   0  0  0  0  0  0  0  0  0  0  0  0
  -14.5536   -9.3818   31.8022 C   0  0  0  0  0  0  0  0  0  0  0  0
  -15.4288   -9.8630   32.7537 N   0  0  0  0  0  0  0  0  0  0  0  0
  -15.8764   -9.8362   29.6367 N   0  0  0  0  0  0  0  0  0  0  0  0
  -15.6054   -9.6385   28.3392 C   0  0  0  0  0  0  0  0  0  0  0  0
  -14.4114   -9.0669   28.1872 N   0  0  0  0  0  0  0  0  0  0  0  0
  2  1  1  1  0  0  0
  2  3  1  0  0  0  0
  2  5  1  0  0  0  0
  3  4  1  0  0  0  0
  3 17  1  0  0  0  0
  5  6  1  0  0  0  0
  7  6  1  6  0  0  0
  7  8  1  0  0  0  0
  7  9  1  0  0  0  0
 10  9  1  1  0  0  0
 10 11  1  0  0  0  0
 10 12  1  0  0  0  0
 11 16  1  0  0  0  0
 12 13  1  6  0  0  0
 12 14  1  0  0  0  0
 14 15  1  6  0  0  0
 14 16  1  0  0  0  0
 16 27  1  1  0  0  0
 18 19  2  0  0  0  0
 18 23  1  0  0  0  0
 19 20  1  0  0  0  0
 20 21  2  0  0  0  0
 21 22  1  0  0  0  0
 21 27  1  0  0  0  0
 22 23  2  0  0  0  0
 22 25  1  0  0  0  0
 23 24  1  0  0  0  0
 25 26  2  0  0  0  0
 26 27  1  0  0  0  0
M  END
>  <CHROM.1>
-87.84171999,-163.35189698,-96.80225825,88.23571109,-61.04894056,174.64459707
-137.37553797,-15.48909402,-8.82510140,25.76406621,1.96985186,0.43702503
-1.59079569

>  <Name>
ligand

>  <RI>
0

>  <Rbt.Current_Directory>
/home/itssahil/PROJECTS/Mol_Feturizer/Test_systems_manuscript/rnas/4kqy

>  <Rbt.Executable>
rbdock ($Id: //depot/dev/client3/rdock/2013.1/src/exe/rbdock.cxx#4 $)

>  <Rbt.Library>
libRbt.so (2013.1, Build901 2013/11/27)

>  <Rbt.Parameter_File>
/export/apps/rDock/src/rDock_2013.1_src/data/scripts/dock_solv.prm

>  <Rbt.Receptor>
prm/blind_docking_60.prm

>  <SCORE>
-12.2808

>  <SCORE.INTER>
-12.1236

>  <SCORE.INTER.CONST>
1

>  <SCORE.INTER.POLAR>
0

>  <SCORE.INTER.ROT>
7

>  <SCORE.INTER.SOLV>
7.72482

>  <SCORE.INTER.VDW>
-18.924

>  <SCORE.INTER.norm>
-0.449023

>  <SCORE.INTRA>
-0.157199

>  <SCORE.INTRA.DIHEDRAL>
-0.79437

>  <SCORE.INTRA.DIHEDRAL.0>
10.4103

>  <SCORE.INTRA.POLAR>
0

>  <SCORE.INTRA.POLAR.0>
0

>  <SCORE.INTRA.REPUL>
0

>  <SCORE.INTRA.REPUL.0>
0

>  <SCORE.INTRA.SOLV>
-0.321951

>  <SCORE.INTRA.SOLV.lig_0>
-49.5008

>  <SCORE.INTRA.VDW>
0.400962

>  <SCORE.INTRA.VDW.0>
-2.6946

>  <SCORE.INTRA.norm>
-0.00582219

>  <SCORE.RESTR>
0

>  <SCORE.RESTR.CAVITY>
0

>  <SCORE.RESTR.norm>
0

>  <SCORE.SYSTEM>
0

>  <SCORE.SYSTEM.CONST>
0

>  <SCORE.SYSTEM.DIHEDRAL>
0

>  <SCORE.SYSTEM.SOLV>
0

>  <SCORE.SYSTEM.norm>
0

>  <SCORE.heavy>
27

>  <SCORE.norm>
-0.454846

>  <RMSD>
14.216

$$$$
ligand
 OpenBabel02271912153D
libRbt.so/2013.1/901 2013/11/27
 27 29  0  0  0  0  0  0  0  0999 V2000
  -13.8780   -8.4283   30.8878 N   0  0  0  0  0  0  0  0  0  0  0  0
  -14.7802   -9.4228   30.3390 C   0  0  2  0  0  0  0  0  0  0  0  0
  -14.1705  -10.7667   30.5949 C   0  0  0  0  0  0  0  0  0  0  0  0
  -13.2328  -11.1595   29.8678 O   0  0  0  0  0  0  0  0  0  0  0  0
  -14.9691   -9.2026   28.8357 C   0  0  0  0  0  0  0  0  0  0  0  0
  -13.6147   -9.0103   28.1179 C   0  0  0  0  0  0  0  0  0  0  0  0
  -13.6640   -9.1008   26.4432 S   0  0  2  0  0  0  0  0  0  0  0  0
  -12.1427   -8.8355   25.8319 C   0  0  0  0  0  0  0  0  0  0  0  0
  -14.7558   -7.9624   25.8428 C   0  0  0  0  0  0  0  0  0  0  0  0
  -16.0053   -8.5785   25.1787 C   0  0  1  0  0  0  0  0  0  0  0  0
  -16.7860   -7.6212   24.4439 O   0  0  0  0  0  0  0  0  0  0  0  0
  -15.6800   -9.6082   24.1088 C   0  0  1  0  0  0  0  0  0  0  0  0
  -15.2305  -10.9048   24.5512 O   0  0  0  0  0  0  0  0  0  0  0  0
  -16.9844   -9.6402   23.3515 C   0  0  1  0  0  0  0  0  0  0  0  0
  -17.9825  -10.3002   24.1243 O   0  0  0  0  0  0  0  0  0  0  0  0
  -17.3325   -8.1847   23.2491 C   0  0  2  0  0  0  0  0  0  0  0  0
  -14.5894  -11.4600   31.5525 O   0  0  0  0  0  0  0  0  0  0  0  0
  -13.6497   -5.2655   20.7609 N   0  0  0  0  0  0  0  0  0  0  0  0
  -13.7280   -5.6055   22.0704 C   0  0  0  0  0  0  0  0  0  0  0  0
  -14.7286   -6.3503   22.5698 N   0  0  0  0  0  0  0  0  0  0  0  0
  -15.7097   -6.8261   21.7950 C   0  0  0  0  0  0  0  0  0  0  0  0
  -15.6694   -6.5138   20.3743 C   0  0  0  0  0  0  0  0  0  0  0  0
  -14.5723   -5.6770   19.8355 C   0  0  0  0  0  0  0  0  0  0  0  0
  -14.4839   -5.3437   18.4999 N   0  0  0  0  0  0  0  0  0  0  0  0
  -16.7205   -7.1019   19.8498 N   0  0  0  0  0  0  0  0  0  0  0  0
  -17.4014   -7.7229   20.8228 C   0  0  0  0  0  0  0  0  0  0  0  0
  -16.7950   -7.5657   21.9989 N   0  0  0  0  0  0  0  0  0  0  0  0
  2  1  1  6  0  0  0
  2  3  1  0  0  0  0
  2  5  1  0  0  0  0
  3  4  1  0  0  0  0
  3 17  1  0  0  0  0
  5  6  1  0  0  0  0
  7  6  1  1  0  0  0
  7  8  1  0  0  0  0
  7  9  1  0  0  0  0
 10  9  1  6  0  0  0
 10 11  1  0  0  0  0
 10 12  1  0  0  0  0
 11 16  1  0  0  0  0
 12 13  1  1  0  0  0
 12 14  1  0  0  0  0
 14 15  1  1  0  0  0
 14 16  1  0  0  0  0
 16 27  1  6  0  0  0
 18 19  2  0  0  0  0
 18 23  1  0  0  0  0
 19 20  1  0  0  0  0
 20 21  2  0  0  0  0
 21 22  1  0  0  0  0
 21 27  1  0  0  0  0
 22 23  2  0  0  0  0
 22 25  1  0  0  0  0
 23 24  1  0  0  0  0
 25 26  2  0  0  0  0
 26 27  1  0  0  0  0
M  END
>  <CHROM.1>
-77.79872705,48.06124477,166.98271474,178.56592912,-113.09749554,-168.31753614
17.51373828,-15.07672063,-8.41565066,24.86253050,-1.39665087,-0.55541344
-1.10528159

>  <Name>
ligand

>  <RI>
0

>  <Rbt.Current_Directory>
/home/itssahil/PROJECTS/Mol_Feturizer/Test_systems_manuscript/rnas/4kqy

>  <Rbt.Executable>
rbdock ($Id: //depot/dev/client3/rdock/2013.1/src/exe/rbdock.cxx#4 $)

>  <Rbt.Library>
libRbt.so (2013.1, Build901 2013/11/27)

>  <Rbt.Parameter_File>
/export/apps/rDock/src/rDock_2013.1_src/data/scripts/dock_solv.prm

>  <Rbt.Receptor>
prm/blind_docking_40.prm

>  <SCORE>
-5.42692

>  <SCORE.INTER>
-6.34115

>  <SCORE.INTER.CONST>
1

>  <SCORE.INTER.POLAR>
0

>  <SCORE.INTER.ROT>
7

>  <SCORE.INTER.SOLV>
9.80575

>  <SCORE.INTER.VDW>
-15.7627

>  <SCORE.INTER.norm>
-0.234857

>  <SCORE.INTRA>
0.411273

>  <SCORE.INTRA.DIHEDRAL>
-1.46778

>  <SCORE.INTRA.DIHEDRAL.0>
10.4103

>  <SCORE.INTRA.POLAR>
0

>  <SCORE.INTRA.POLAR.0>
0

>  <SCORE.INTRA.REPUL>
0

>  <SCORE.INTRA.REPUL.0>
0

>  <SCORE.INTRA.SOLV>
0.525072

>  <SCORE.INTRA.SOLV.lig_0>
-49.5008

>  <SCORE.INTRA.VDW>
0.882624

>  <SCORE.INTRA.VDW.0>
-2.6946

>  <SCORE.INTRA.norm>
0.0152323

>  <SCORE.RESTR>
0.50296

>  <SCORE.RESTR.CAVITY>
0.50296

>  <SCORE.RESTR.norm>
0.0186282

>  <SCORE.SYSTEM>
0

>  <SCORE.SYSTEM.CONST>
0

>  <SCORE.SYSTEM.DIHEDRAL>
0

>  <SCORE.SYSTEM.SOLV>
0

>  <SCORE.SYSTEM.norm>
0

>  <SCORE.heavy>
27

>  <SCORE.norm>
-0.200997

>  <RMSD>
14.266

$$$$
ligand
 OpenBabel02271912153D
libRbt.so/2013.1/901 2013/11/27
 27 29  0  0  0  0  0  0  0  0999 V2000
   -0.3074   -9.6370   10.0146 N   0  0  0  0  0  0  0  0  0  0  0  0
    1.1093   -9.9349   10.1070 C   0  0  2  0  0  0  0  0  0  0  0  0
    1.5831  -10.2782    8.7283 C   0  0  0  0  0  0  0  0  0  0  0  0
    2.7768  -10.0675    8.4235 O   0  0  0  0  0  0  0  0  0  0  0  0
    1.3481  -11.1102   11.0589 C   0  0  0  0  0  0  0  0  0  0  0  0
    0.6541  -12.3953   10.5555 C   0  0  0  0  0  0  0  0  0  0  0  0
    1.0109  -13.7932   11.4121 S   0  0  2  0  0  0  0  0  0  0  0  0
    0.4601  -13.6397   12.9716 C   0  0  0  0  0  0  0  0  0  0  0  0
    2.6765  -14.0651   11.3912 C   0  0  0  0  0  0  0  0  0  0  0  0
    3.0892  -15.4769   11.8584 C   0  0  1  0  0  0  0  0  0  0  0  0
    2.9323  -16.4788   10.8398 O   0  0  0  0  0  0  0  0  0  0  0  0
    4.5666  -15.5983   12.1953 C   0  0  1  0  0  0  0  0  0  0  0  0
    5.0136  -15.0168   13.4366 O   0  0  0  0  0  0  0  0  0  0  0  0
    4.7435  -17.0949   12.1239 C   0  0  1  0  0  0  0  0  0  0  0  0
    4.1178  -17.7152   13.2432 O   0  0  0  0  0  0  0  0  0  0  0  0
    3.9806  -17.4499   10.8821 C   0  0  2  0  0  0  0  0  0  0  0  0
    0.7831  -10.7994    7.9149 O   0  0  0  0  0  0  0  0  0  0  0  0
    6.4519  -20.0490    6.9562 N   0  0  0  0  0  0  0  0  0  0  0  0
    5.6734  -20.5430    7.9494 C   0  0  0  0  0  0  0  0  0  0  0  0
    5.1121  -19.7639    8.8893 N   0  0  0  0  0  0  0  0  0  0  0  0
    5.2701  -18.4356    8.8925 C   0  0  0  0  0  0  0  0  0  0  0  0
    6.0777  -17.8422    7.8374 C   0  0  0  0  0  0  0  0  0  0  0  0
    6.7074  -18.7105    6.8158 C   0  0  0  0  0  0  0  0  0  0  0  0
    7.4872  -18.2064    5.7957 N   0  0  0  0  0  0  0  0  0  0  0  0
    6.0609  -16.5476    8.0608 N   0  0  0  0  0  0  0  0  0  0  0  0
    5.3360  -16.3062    9.1618 C   0  0  0  0  0  0  0  0  0  0  0  0
    4.8509  -17.4400    9.6666 N   0  0  0  0  0  0  0  0  0  0  0  0
  2  1  1  6  0  0  0
  2  3  1  0  0  0  0
  2  5  1  0  0  0  0
  3  4  1  0  0  0  0
  3 17  1  0  0  0  0
  5  6  1  0  0  0  0
  7  6  1  6  0  0  0
  7  8  1  0  0  0  0
  7  9  1  0  0  0  0
 10  9  1  6  0  0  0
 10 11  1  0  0  0  0
 10 12  1  0  0  0  0
 11 16  1  0  0  0  0
 12 13  1  1  0  0  0
 12 14  1  0  0  0  0
 14 15  1  1  0  0  0
 14 16  1  0  0  0  0
 16 27  1  6  0  0  0
 18 19  2  0  0  0  0
 18 23  1  0  0  0  0
 19 20  1  0  0  0  0
 20 21  2  0  0  0  0
 21 22  1  0  0  0  0
 21 27  1  0  0  0  0
 22 23  2  0  0  0  0
 22 25  1  0  0  0  0
 23 24  1  0  0  0  0
 25 26  2  0  0  0  0
 26 27  1  0  0  0  0
M  END
>  <CHROM.1>
152.24040056,61.46456052,172.38756347,63.71420980,-166.54392456,79.90121802
-131.77165384,3.49947086,-15.18887381,10.02801495,-2.89072130,-0.98452235
2.11869404

>  <Name>
ligand

>  <RI>
0

>  <Rbt.Current_Directory>
/home/itssahil/PROJECTS/Mol_Feturizer/Test_systems_manuscript/rnas/4kqy

>  <Rbt.Executable>
rbdock ($Id: //depot/dev/client3/rdock/2013.1/src/exe/rbdock.cxx#4 $)

>  <Rbt.Library>
libRbt.so (2013.1, Build901 2013/11/27)

>  <Rbt.Parameter_File>
/export/apps/rDock/src/rDock_2013.1_src/data/scripts/dock_solv.prm

>  <Rbt.Receptor>
prm/blind_docking_100.prm

>  <SCORE>
-20.5537

>  <SCORE.INTER>
-18.8442

>  <SCORE.INTER.CONST>
1

>  <SCORE.INTER.POLAR>
0

>  <SCORE.INTER.ROT>
7

>  <SCORE.INTER.SOLV>
14.6166

>  <SCORE.INTER.VDW>
-25.7017

>  <SCORE.INTER.norm>
-0.697935

>  <SCORE.INTRA>
-1.70944

>  <SCORE.INTRA.DIHEDRAL>
-5.65592

>  <SCORE.INTRA.DIHEDRAL.0>
10.4103

>  <SCORE.INTRA.POLAR>
0

>  <SCORE.INTRA.POLAR.0>
0

>  <SCORE.INTRA.REPUL>
0

>  <SCORE.INTRA.REPUL.0>
0

>  <SCORE.INTRA.SOLV>
-0.0521958

>  <SCORE.INTRA.SOLV.lig_0>
-49.5008

>  <SCORE.INTRA.VDW>
1.14462

>  <SCORE.INTRA.VDW.0>
-2.6946

>  <SCORE.INTRA.norm>
-0.0633125

>  <SCORE.RESTR>
0

>  <SCORE.RESTR.CAVITY>
0

>  <SCORE.RESTR.norm>
0

>  <SCORE.SYSTEM>
0

>  <SCORE.SYSTEM.CONST>
0

>  <SCORE.SYSTEM.DIHEDRAL>
0

>  <SCORE.SYSTEM.SOLV>
0

>  <SCORE.SYSTEM.norm>
0

>  <SCORE.heavy>
27

>  <SCORE.norm>
-0.761247

>  <RMSD>
14.269

$$$$
ligand
 OpenBabel02271912153D
libRbt.so/2013.1/901 2013/11/27
 27 29  0  0  0  0  0  0  0  0999 V2000
    3.0544  -20.8421    4.8602 N   0  0  0  0  0  0  0  0  0  0  0  0
    4.2584  -20.2422    5.4033 C   0  0  2  0  0  0  0  0  0  0  0  0
    4.4727  -20.8282    6.7648 C   0  0  0  0  0  0  0  0  0  0  0  0
    5.4132  -21.6322    6.9417 O   0  0  0  0  0  0  0  0  0  0  0  0
    4.1033  -18.7220    5.4974 C   0  0  0  0  0  0  0  0  0  0  0  0
    5.4758  -18.0173    5.5751 C   0  0  0  0  0  0  0  0  0  0  0  0
    6.1066  -17.8298    7.1185 S   0  0  2  0  0  0  0  0  0  0  0  0
    7.0768  -19.1289    7.4790 C   0  0  0  0  0  0  0  0  0  0  0  0
    4.8488  -17.6957    8.2359 C   0  0  0  0  0  0  0  0  0  0  0  0
    5.3025  -17.2551    9.6437 C   0  0  1  0  0  0  0  0  0  0  0  0
    5.3049  -15.8282    9.8170 O   0  0  0  0  0  0  0  0  0  0  0  0
    4.3663  -17.7061   10.7532 C   0  0  1  0  0  0  0  0  0  0  0  0
    4.4104  -19.0960   11.1339 O   0  0  0  0  0  0  0  0  0  0  0  0
    4.7691  -16.7583   11.8558 C   0  0  1  0  0  0  0  0  0  0  0  0
    6.0499  -17.1170   12.3655 O   0  0  0  0  0  0  0  0  0  0  0  0
    4.8835  -15.4507   11.1298 C   0  0  2  0  0  0  0  0  0  0  0  0
    3.7256  -20.4784    7.7097 O   0  0  0  0  0  0  0  0  0  0  0  0
    0.1833  -14.3726   13.3708 N   0  0  0  0  0  0  0  0  0  0  0  0
    1.1345  -15.2541   13.7642 C   0  0  0  0  0  0  0  0  0  0  0  0
    2.2843  -15.4315   13.0921 N   0  0  0  0  0  0  0  0  0  0  0  0
    2.5757  -14.7274   11.9927 C   0  0  0  0  0  0  0  0  0  0  0  0
    1.6031  -13.7479   11.5321 C   0  0  0  0  0  0  0  0  0  0  0  0
    0.3303  -13.5718   12.2691 C   0  0  0  0  0  0  0  0  0  0  0  0
   -0.6313  -12.6635   11.8777 N   0  0  0  0  0  0  0  0  0  0  0  0
    2.1312  -13.1964   10.4630 N   0  0  0  0  0  0  0  0  0  0  0  0
    3.3214  -13.7642   10.2242 C   0  0  0  0  0  0  0  0  0  0  0  0
    3.5993  -14.6854   11.1460 N   0  0  0  0  0  0  0  0  0  0  0  0
  2  1  1  1  0  0  0
  2  3  1  0  0  0  0
  2  5  1  0  0  0  0
  3  4  1  0  0  0  0
  3 17  1  0  0  0  0
  5  6  1  0  0  0  0
  7  6  1  6  0  0  0
  7  8  1  0  0  0  0
  7  9  1  0  0  0  0
 10  9  1  6  0  0  0
 10 11  1  0  0  0  0
 10 12  1  0  0  0  0
 11 16  1  0  0  0  0
 12 13  1  1  0  0  0
 12 14  1  0  0  0  0
 14 15  1  6  0  0  0
 14 16  1  0  0  0  0
 16 27  1  6  0  0  0
 18 19  2  0  0  0  0
 18 23  1  0  0  0  0
 19 20  1  0  0  0  0
 20 21  2  0  0  0  0
 21 22  1  0  0  0  0
 21 27  1  0  0  0  0
 22 23  2  0  0  0  0
 22 25  1  0  0  0  0
 23 24  1  0  0  0  0
 25 26  2  0  0  0  0
 26 27  1  0  0  0  0
M  END
>  <CHROM.1>
108.64243692,-159.54451300,-88.06384945,92.02715047,-169.04673400,89.79304586
141.47631440,3.89412358,-17.03034228,9.53233412,1.11812815,0.48235226,-2.11642038

>  <Name>
ligand

>  <RI>
0

>  <Rbt.Current_Directory>
/home/itssahil/PROJECTS/Mol_Feturizer/Test_systems_manuscript/rnas/4kqy

>  <Rbt.Executable>
rbdock ($Id: //depot/dev/client3/rdock/2013.1/src/exe/rbdock.cxx#4 $)

>  <Rbt.Library>
libRbt.so (2013.1, Build901 2013/11/27)

>  <Rbt.Parameter_File>
/export/apps/rDock/src/rDock_2013.1_src/data/scripts/dock_solv.prm

>  <Rbt.Receptor>
prm/blind_docking_60.prm

>  <SCORE>
-18.9536

>  <SCORE.INTER>
-19.7955

>  <SCORE.INTER.CONST>
1

>  <SCORE.INTER.POLAR>
0

>  <SCORE.INTER.ROT>
7

>  <SCORE.INTER.SOLV>
16.4633

>  <SCORE.INTER.VDW>
-26.9514

>  <SCORE.INTER.norm>
-0.733167

>  <SCORE.INTRA>
0.841944

>  <SCORE.INTRA.DIHEDRAL>
1.80932

>  <SCORE.INTRA.DIHEDRAL.0>
10.4103

>  <SCORE.INTRA.POLAR>
0

>  <SCORE.INTRA.POLAR.0>
0

>  <SCORE.INTRA.REPUL>
0

>  <SCORE.INTRA.REPUL.0>
0

>  <SCORE.INTRA.SOLV>
-0.595913

>  <SCORE.INTRA.SOLV.lig_0>
-49.5008

>  <SCORE.INTRA.VDW>
0.235238

>  <SCORE.INTRA.VDW.0>
-2.6946

>  <SCORE.INTRA.norm>
0.0311831

>  <SCORE.RESTR>
0

>  <SCORE.RESTR.CAVITY>
0

>  <SCORE.RESTR.norm>
0

>  <SCORE.SYSTEM>
0

>  <SCORE.SYSTEM.CONST>
0

>  <SCORE.SYSTEM.DIHEDRAL>
0

>  <SCORE.SYSTEM.SOLV>
0

>  <SCORE.SYSTEM.norm>
0

>  <SCORE.heavy>
27

>  <SCORE.norm>
-0.701984

>  <RMSD>
14.281

$$$$
ligand
 OpenBabel02271912153D
libRbt.so/2013.1/901 2013/11/27
 27 29  0  0  0  0  0  0  0  0999 V2000
    2.6265   -9.8926    9.2970 N   0  0  0  0  0  0  0  0  0  0  0  0
    1.3449  -10.4901    8.9737 C   0  0  2  0  0  0  0  0  0  0  0  0
    0.3350   -9.3847    8.9360 C   0  0  0  0  0  0  0  0  0  0  0  0
   -0.4880   -9.3424    7.9962 O   0  0  0  0  0  0  0  0  0  0  0  0
    0.9568  -11.5285   10.0299 C   0  0  0  0  0  0  0  0  0  0  0  0
    2.1086  -12.5234   10.2945 C   0  0  0  0  0  0  0  0  0  0  0  0
    2.7127  -12.5313   11.8598 S   0  0  2  0  0  0  0  0  0  0  0  0
    2.9845  -10.9689   12.3535 C   0  0  0  0  0  0  0  0  0  0  0  0
    4.1391  -13.4318   11.9158 C   0  0  0  0  0  0  0  0  0  0  0  0
    3.9208  -14.9418   12.1480 C   0  0  1  0  0  0  0  0  0  0  0  0
    3.4400  -15.6304   10.9815 O   0  0  0  0  0  0  0  0  0  0  0  0
    5.2011  -15.7009   12.4571 C   0  0  1  0  0  0  0  0  0  0  0  0
    5.7644  -15.5422   13.7748 O   0  0  0  0  0  0  0  0  0  0  0  0
    4.7673  -17.1117   12.1447 C   0  0  1  0  0  0  0  0  0  0  0  0
    3.8761  -17.5834   13.1508 O   0  0  0  0  0  0  0  0  0  0  0  0
    4.0061  -16.9378   10.8639 C   0  0  2  0  0  0  0  0  0  0  0  0
    0.3124   -8.5402    9.8630 O   0  0  0  0  0  0  0  0  0  0  0  0
    6.2524  -20.0473    7.1814 N   0  0  0  0  0  0  0  0  0  0  0  0
    5.4242  -20.3897    8.1979 C   0  0  0  0  0  0  0  0  0  0  0  0
    4.9312  -19.4924    9.0680 N   0  0  0  0  0  0  0  0  0  0  0  0
    5.2124  -18.1880    8.9730 C   0  0  0  0  0  0  0  0  0  0  0  0
    6.0793  -17.7543    7.8878 C   0  0  0  0  0  0  0  0  0  0  0  0
    6.6327  -18.7528    6.9439 C   0  0  0  0  0  0  0  0  0  0  0  0
    7.4633  -18.4026    5.8998 N   0  0  0  0  0  0  0  0  0  0  0  0
    6.1818  -16.4505    8.0124 N   0  0  0  0  0  0  0  0  0  0  0  0
    5.4746  -16.0595    9.0815 C   0  0  0  0  0  0  0  0  0  0  0  0
    4.8823  -17.1015    9.6636 N   0  0  0  0  0  0  0  0  0  0  0  0
  2  1  1  1  0  0  0
  2  3  1  0  0  0  0
  2  5  1  0  0  0  0
  3  4  1  0  0  0  0
  3 17  1  0  0  0  0
  5  6  1  0  0  0  0
  7  6  1  6  0  0  0
  7  8  1  0  0  0  0
  7  9  1  0  0  0  0
 10  9  1  6  0  0  0
 10 11  1  0  0  0  0
 10 12  1  0  0  0  0
 11 16  1  0  0  0  0
 12 13  1  1  0  0  0
 12 14  1  0  0  0  0
 14 15  1  1  0  0  0
 14 16  1  0  0  0  0
 16 27  1  6  0  0  0
 18 19  2  0  0  0  0
 18 23  1  0  0  0  0
 19 20  1  0  0  0  0
 20 21  2  0  0  0  0
 21 22  1  0  0  0  0
 21 27  1  0  0  0  0
 22 23  2  0  0  0  0
 22 25  1  0  0  0  0
 23 24  1  0  0  0  0
 25 26  2  0  0  0  0
 26 27  1  0  0  0  0
M  END
>  <CHROM.1>
135.09784086,-50.07881057,118.26842885,-47.40579018,-87.09171499,75.19181778
-154.77921470,3.82458180,-14.76782667,10.08253584,2.97946518,-1.06245008
1.54082970

>  <Name>
ligand

>  <RI>
0

>  <Rbt.Current_Directory>
/home/itssahil/PROJECTS/Mol_Feturizer/Test_systems_manuscript/rnas/4kqy

>  <Rbt.Executable>
rbdock ($Id: //depot/dev/client3/rdock/2013.1/src/exe/rbdock.cxx#4 $)

>  <Rbt.Library>
libRbt.so (2013.1, Build901 2013/11/27)

>  <Rbt.Parameter_File>
/export/apps/rDock/src/rDock_2013.1_src/data/scripts/dock_solv.prm

>  <Rbt.Receptor>
prm/blind_docking_80.prm

>  <SCORE>
-13.624

>  <SCORE.INTER>
-15.9081

>  <SCORE.INTER.CONST>
1

>  <SCORE.INTER.POLAR>
0

>  <SCORE.INTER.ROT>
7

>  <SCORE.INTER.SOLV>
14.5021

>  <SCORE.INTER.VDW>
-23.7061

>  <SCORE.INTER.norm>
-0.589188

>  <SCORE.INTRA>
2.28407

>  <SCORE.INTRA.DIHEDRAL>
1.50663

>  <SCORE.INTRA.DIHEDRAL.0>
10.4103

>  <SCORE.INTRA.POLAR>
0

>  <SCORE.INTRA.POLAR.0>
0

>  <SCORE.INTRA.REPUL>
0

>  <SCORE.INTRA.REPUL.0>
0

>  <SCORE.INTRA.SOLV>
1.85664

>  <SCORE.INTRA.SOLV.lig_0>
-49.5008

>  <SCORE.INTRA.VDW>
0.602438

>  <SCORE.INTRA.VDW.0>
-2.6946

>  <SCORE.INTRA.norm>
0.0845953

>  <SCORE.RESTR>
0

>  <SCORE.RESTR.CAVITY>
0

>  <SCORE.RESTR.norm>
0

>  <SCORE.SYSTEM>
0

>  <SCORE.SYSTEM.CONST>
0

>  <SCORE.SYSTEM.DIHEDRAL>
0

>  <SCORE.SYSTEM.SOLV>
0

>  <SCORE.SYSTEM.norm>
0

>  <SCORE.heavy>
27

>  <SCORE.norm>
-0.504593

>  <RMSD>
14.298

$$$$
ligand
 OpenBabel02271912153D
libRbt.so/2013.1/901 2013/11/27
 27 29  0  0  0  0  0  0  0  0999 V2000
    2.1918  -10.0011    9.4360 N   0  0  0  0  0  0  0  0  0  0  0  0
    1.2384  -11.0221    9.0451 C   0  0  2  0  0  0  0  0  0  0  0  0
    0.4912  -10.5018    7.8559 C   0  0  0  0  0  0  0  0  0  0  0  0
   -0.1864   -9.4578    7.9702 O   0  0  0  0  0  0  0  0  0  0  0  0
    0.2698  -11.3176   10.1935 C   0  0  0  0  0  0  0  0  0  0  0  0
    0.9929  -11.9820   11.3861 C   0  0  0  0  0  0  0  0  0  0  0  0
    1.3438  -13.6124   11.2025 S   0  0  2  0  0  0  0  0  0  0  0  0
    0.3249  -14.5069   12.1617 C   0  0  0  0  0  0  0  0  0  0  0  0
    2.9555  -13.8985   11.6138 C   0  0  0  0  0  0  0  0  0  0  0  0
    3.2559  -15.3623   11.9997 C   0  0  1  0  0  0  0  0  0  0  0  0
    3.0169  -16.2905   10.9286 O   0  0  0  0  0  0  0  0  0  0  0  0
    4.7198  -15.6189   12.3189 C   0  0  1  0  0  0  0  0  0  0  0  0
    5.2150  -15.1444   13.5870 O   0  0  0  0  0  0  0  0  0  0  0  0
    4.7768  -17.1185   12.1640 C   0  0  1  0  0  0  0  0  0  0  0  0
    4.1069  -17.7484   13.2519 O   0  0  0  0  0  0  0  0  0  0  0  0
    3.9847  -17.3425   10.9100 C   0  0  2  0  0  0  0  0  0  0  0  0
    0.5837  -11.1041    6.7596 O   0  0  0  0  0  0  0  0  0  0  0  0
    6.4744  -19.9513    7.0021 N   0  0  0  0  0  0  0  0  0  0  0  0
    5.7068  -20.4448    8.0041 C   0  0  0  0  0  0  0  0  0  0  0  0
    5.1390  -19.6630    8.9377 N   0  0  0  0  0  0  0  0  0  0  0  0
    5.2791  -18.3327    8.9257 C   0  0  0  0  0  0  0  0  0  0  0  0
    6.0742  -17.7401    7.8608 C   0  0  0  0  0  0  0  0  0  0  0  0
    6.7113  -18.6111    6.8460 C   0  0  0  0  0  0  0  0  0  0  0  0
    7.4799  -18.1079    5.8171 N   0  0  0  0  0  0  0  0  0  0  0  0
    6.0409  -16.4436    8.0700 N   0  0  0  0  0  0  0  0  0  0  0  0
    5.3174  -16.1998    9.1714 C   0  0  0  0  0  0  0  0  0  0  0  0
    4.8497  -17.3343    9.6907 N   0  0  0  0  0  0  0  0  0  0  0  0
  2  1  1  1  0  0  0
  2  3  1  0  0  0  0
  2  5  1  0  0  0  0
  3  4  1  0  0  0  0
  3 17  1  0  0  0  0
  5  6  1  0  0  0  0
  7  6  1  1  0  0  0
  7  8  1  0  0  0  0
  7  9  1  0  0  0  0
 10  9  1  6  0  0  0
 10 11  1  0  0  0  0
 10 12  1  0  0  0  0
 11 16  1  0  0  0  0
 12 13  1  1  0  0  0
 12 14  1  0  0  0  0
 14 15  1  1  0  0  0
 14 16  1  0  0  0  0
 16 27  1  6  0  0  0
 18 19  2  0  0  0  0
 18 23  1  0  0  0  0
 19 20  1  0  0  0  0
 20 21  2  0  0  0  0
 21 22  1  0  0  0  0
 21 27  1  0  0  0  0
 22 23  2  0  0  0  0
 22 25  1  0  0  0  0
 23 24  1  0  0  0  0
 25 26  2  0  0  0  0
 26 27  1  0  0  0  0
M  END
>  <CHROM.1>
-61.21507343,-66.98365901,-77.29767461,-106.88432638,158.07546750,62.20297896
-138.31641074,3.46050465,-15.19683068,9.86866916,-2.99984422,-0.95715057
1.86687957

>  <Name>
ligand

>  <RI>
0

>  <Rbt.Current_Directory>
/home/itssahil/PROJECTS/Mol_Feturizer/Test_systems_manuscript/rnas/4kqy

>  <Rbt.Executable>
rbdock ($Id: //depot/dev/client3/rdock/2013.1/src/exe/rbdock.cxx#4 $)

>  <Rbt.Library>
libRbt.so (2013.1, Build901 2013/11/27)

>  <Rbt.Parameter_File>
/export/apps/rDock/src/rDock_2013.1_src/data/scripts/dock_solv.prm

>  <Rbt.Receptor>
prm/blind_docking_40.prm

>  <SCORE>
-20.5384

>  <SCORE.INTER>
-21.0298

>  <SCORE.INTER.CONST>
1

>  <SCORE.INTER.POLAR>
0

>  <SCORE.INTER.ROT>
7

>  <SCORE.INTER.SOLV>
15.9953

>  <SCORE.INTER.VDW>
-27.6183

>  <SCORE.INTER.norm>
-0.778882

>  <SCORE.INTRA>
0.491436

>  <SCORE.INTRA.DIHEDRAL>
-0.646757

>  <SCORE.INTRA.DIHEDRAL.0>
10.4103

>  <SCORE.INTRA.POLAR>
0

>  <SCORE.INTRA.POLAR.0>
0

>  <SCORE.INTRA.REPUL>
0

>  <SCORE.INTRA.REPUL.0>
0

>  <SCORE.INTRA.SOLV>
0.507159

>  <SCORE.INTRA.SOLV.lig_0>
-49.5008

>  <SCORE.INTRA.VDW>
0.561235

>  <SCORE.INTRA.VDW.0>
-2.6946

>  <SCORE.INTRA.norm>
0.0182013

>  <SCORE.RESTR>
0

>  <SCORE.RESTR.CAVITY>
0

>  <SCORE.RESTR.norm>
0

>  <SCORE.SYSTEM>
0

>  <SCORE.SYSTEM.CONST>
0

>  <SCORE.SYSTEM.DIHEDRAL>
0

>  <SCORE.SYSTEM.SOLV>
0

>  <SCORE.SYSTEM.norm>
0

>  <SCORE.heavy>
27

>  <SCORE.norm>
-0.760681

>  <RMSD>
14.304

$$$$
ligand
 OpenBabel02271912153D
libRbt.so/2013.1/901 2013/11/27
 27 29  0  0  0  0  0  0  0  0999 V2000
   -1.6107  -10.4667   12.8659 N   0  0  0  0  0  0  0  0  0  0  0  0
   -2.1615  -10.8226   11.5720 C   0  0  2  0  0  0  0  0  0  0  0  0
   -3.2685  -11.8021   11.8135 C   0  0  0  0  0  0  0  0  0  0  0  0
   -4.3434  -11.6739   11.1887 O   0  0  0  0  0  0  0  0  0  0  0  0
   -1.0822  -11.4486   10.6847 C   0  0  0  0  0  0  0  0  0  0  0  0
    0.0215  -10.4272   10.3311 C   0  0  0  0  0  0  0  0  0  0  0  0
    1.3395  -11.0457    9.4971 S   0  0  2  0  0  0  0  0  0  0  0  0
    2.0104  -12.2890   10.3706 C   0  0  0  0  0  0  0  0  0  0  0  0
    2.4720   -9.8225    9.2329 C   0  0  0  0  0  0  0  0  0  0  0  0
    3.5494  -10.1782    8.1867 C   0  0  1  0  0  0  0  0  0  0  0  0
    4.1487   -9.0233    7.5761 O   0  0  0  0  0  0  0  0  0  0  0  0
    4.7584  -10.8868    8.7758 C   0  0  1  0  0  0  0  0  0  0  0  0
    4.6022  -12.2730    9.1402 O   0  0  0  0  0  0  0  0  0  0  0  0
    5.7734  -10.6536    7.6842 C   0  0  1  0  0  0  0  0  0  0  0  0
    5.4648  -11.4574    6.5495 O   0  0  0  0  0  0  0  0  0  0  0  0
    5.5452   -9.2125    7.3357 C   0  0  2  0  0  0  0  0  0  0  0  0
   -3.0868  -12.7508   12.6136 O   0  0  0  0  0  0  0  0  0  0  0  0
   10.2682   -6.9277    8.2007 N   0  0  0  0  0  0  0  0  0  0  0  0
    9.9068   -7.7987    7.2274 C   0  0  0  0  0  0  0  0  0  0  0  0
    8.6672   -8.3081    7.1310 N   0  0  0  0  0  0  0  0  0  0  0  0
    7.6955   -7.9685    7.9854 C   0  0  0  0  0  0  0  0  0  0  0  0
    8.0158   -7.0189    9.0403 C   0  0  0  0  0  0  0  0  0  0  0  0
    9.3897   -6.4761    9.1499 C   0  0  0  0  0  0  0  0  0  0  0  0
    9.7539   -5.5776   10.1311 N   0  0  0  0  0  0  0  0  0  0  0  0
    6.9031   -6.8501    9.7182 N   0  0  0  0  0  0  0  0  0  0  0  0
    5.9476   -7.6230    9.1839 C   0  0  0  0  0  0  0  0  0  0  0  0
    6.4163   -8.2970    8.1344 N   0  0  0  0  0  0  0  0  0  0  0  0
  2  1  1  1  0  0  0
  2  3  1  0  0  0  0
  2  5  1  0  0  0  0
  3  4  1  0  0  0  0
  3 17  1  0  0  0  0
  5  6  1  0  0  0  0
  7  6  1  1  0  0  0
  7  8  1  0  0  0  0
  7  9  1  0  0  0  0
 10  9  1  1  0  0  0
 10 11  1  0  0  0  0
 10 12  1  0  0  0  0
 11 16  1  0  0  0  0
 12 13  1  6  0  0  0
 12 14  1  0  0  0  0
 14 15  1  6  0  0  0
 14 16  1  0  0  0  0
 16 27  1  1  0  0  0
 18 19  2  0  0  0  0
 18 23  1  0  0  0  0
 19 20  1  0  0  0  0
 20 21  2  0  0  0  0
 21 22  1  0  0  0  0
 21 27  1  0  0  0  0
 22 23  2  0  0  0  0
 22 25  1  0  0  0  0
 23 24  1  0  0  0  0
 25 26  2  0  0  0  0
 26 27  1  0  0  0  0
M  END
>  <CHROM.1>
136.27169873,-65.80773907,173.79110670,-56.49823520,-165.63305536,156.22350060
-163.46172263,3.70773034,-9.75270191,9.33747332,3.04796778,-0.44167392,-2.43958757

>  <Name>
ligand

>  <RI>
0

>  <Rbt.Current_Directory>
/home/itssahil/PROJECTS/Mol_Feturizer/Test_systems_manuscript/rnas/4kqy

>  <Rbt.Executable>
rbdock ($Id: //depot/dev/client3/rdock/2013.1/src/exe/rbdock.cxx#4 $)

>  <Rbt.Library>
libRbt.so (2013.1, Build901 2013/11/27)

>  <Rbt.Parameter_File>
/export/apps/rDock/src/rDock_2013.1_src/data/scripts/dock_solv.prm

>  <Rbt.Receptor>
prm/blind_docking_20.prm

>  <SCORE>
-13.1449

>  <SCORE.INTER>
-11.7953

>  <SCORE.INTER.CONST>
1

>  <SCORE.INTER.POLAR>
0

>  <SCORE.INTER.ROT>
7

>  <SCORE.INTER.SOLV>
9.6839

>  <SCORE.INTER.VDW>
-19.3582

>  <SCORE.INTER.norm>
-0.436863

>  <SCORE.INTRA>
-1.34962

>  <SCORE.INTRA.DIHEDRAL>
-5.08483

>  <SCORE.INTRA.DIHEDRAL.0>
10.4103

>  <SCORE.INTRA.POLAR>
0

>  <SCORE.INTRA.POLAR.0>
0

>  <SCORE.INTRA.REPUL>
0

>  <SCORE.INTRA.REPUL.0>
0

>  <SCORE.INTRA.SOLV>
0.354694

>  <SCORE.INTRA.SOLV.lig_0>
-49.5008

>  <SCORE.INTRA.VDW>
1.01545

>  <SCORE.INTRA.VDW.0>
-2.6946

>  <SCORE.INTRA.norm>
-0.0499859

>  <SCORE.RESTR>
0

>  <SCORE.RESTR.CAVITY>
0

>  <SCORE.RESTR.norm>
0

>  <SCORE.SYSTEM>
0

>  <SCORE.SYSTEM.CONST>
0

>  <SCORE.SYSTEM.DIHEDRAL>
0

>  <SCORE.SYSTEM.SOLV>
0

>  <SCORE.SYSTEM.norm>
0

>  <SCORE.heavy>
27

>  <SCORE.norm>
-0.486849

>  <RMSD>
14.318

$$$$
ligand
 OpenBabel02271912153D
libRbt.so/2013.1/901 2013/11/27
 27 29  0  0  0  0  0  0  0  0999 V2000
   -0.7572  -10.1333   10.5038 N   0  0  0  0  0  0  0  0  0  0  0  0
    0.5061  -10.4128    9.8478 C   0  0  2  0  0  0  0  0  0  0  0  0
    0.3589  -10.0167    8.4109 C   0  0  0  0  0  0  0  0  0  0  0  0
    0.8743  -10.7322    7.5251 O   0  0  0  0  0  0  0  0  0  0  0  0
    0.8477  -11.9013    9.9563 C   0  0  0  0  0  0  0  0  0  0  0  0
    0.7274  -12.4042   11.4120 C   0  0  0  0  0  0  0  0  0  0  0  0
    1.0522  -14.0340   11.6437 S   0  0  2  0  0  0  0  0  0  0  0  0
    0.4750  -14.5054   13.1280 C   0  0  0  0  0  0  0  0  0  0  0  0
    2.7146  -14.3049   11.5359 C   0  0  0  0  0  0  0  0  0  0  0  0
    3.1438  -15.7388   11.9117 C   0  0  1  0  0  0  0  0  0  0  0  0
    2.9764  -16.6797   10.8381 O   0  0  0  0  0  0  0  0  0  0  0  0
    4.6273  -15.8692   12.2170 C   0  0  1  0  0  0  0  0  0  0  0  0
    5.0910  -15.3591   13.4833 O   0  0  0  0  0  0  0  0  0  0  0  0
    4.8124  -17.3577   12.0540 C   0  0  1  0  0  0  0  0  0  0  0  0
    4.2092  -18.0478   13.1444 O   0  0  0  0  0  0  0  0  0  0  0  0
    4.0313  -17.6439   10.8058 C   0  0  2  0  0  0  0  0  0  0  0  0
   -0.3047   -8.9929    8.1199 O   0  0  0  0  0  0  0  0  0  0  0  0
    6.6104  -20.0062    6.8003 N   0  0  0  0  0  0  0  0  0  0  0  0
    5.8804  -20.5676    7.7946 C   0  0  0  0  0  0  0  0  0  0  0  0
    5.2830  -19.8436    8.7560 N   0  0  0  0  0  0  0  0  0  0  0  0
    5.3537  -18.5080    8.7814 C   0  0  0  0  0  0  0  0  0  0  0  0
    6.1052  -17.8444    7.7267 C   0  0  0  0  0  0  0  0  0  0  0  0
    6.7756  -18.6515    6.6811 C   0  0  0  0  0  0  0  0  0  0  0  0
    7.5058  -18.0796    5.6600 N   0  0  0  0  0  0  0  0  0  0  0  0
    6.0070  -16.5579    7.9740 N   0  0  0  0  0  0  0  0  0  0  0  0
    5.2838  -16.3839    9.0887 C   0  0  0  0  0  0  0  0  0  0  0  0
    4.8814  -17.5557    9.5791 N   0  0  0  0  0  0  0  0  0  0  0  0
  2  1  1  1  0  0  0
  2  3  1  0  0  0  0
  2  5  1  0  0  0  0
  3  4  1  0  0  0  0
  3 17  1  0  0  0  0
  5  6  1  0  0  0  0
  7  6  1  1  0  0  0
  7  8  1  0  0  0  0
  7  9  1  0  0  0  0
 10  9  1  6  0  0  0
 10 11  1  0  0  0  0
 10 12  1  0  0  0  0
 11 16  1  0  0  0  0
 12 13  1  1  0  0  0
 12 14  1  0  0  0  0
 14 15  1  1  0  0  0
 14 16  1  0  0  0  0
 16 27  1  6  0  0  0
 18 19  2  0  0  0  0
 18 23  1  0  0  0  0
 19 20  1  0  0  0  0
 20 21  2  0  0  0  0
 21 22  1  0  0  0  0
 21 27  1  0  0  0  0
 22 23  2  0  0  0  0
 22 25  1  0  0  0  0
 23 24  1  0  0  0  0
 25 26  2  0  0  0  0
 26 27  1  0  0  0  0
M  END
>  <CHROM.1>
-140.68958320,-50.11277779,178.88912698,-164.08493756,172.57988324,81.60842741
-135.90347227,3.33146892,-15.33206583,9.97608004,-2.97802663,-0.93103161
1.97483035

>  <Name>
ligand

>  <RI>
0

>  <Rbt.Current_Directory>
/home/itssahil/PROJECTS/Mol_Feturizer/Test_systems_manuscript/rnas/4kqy

>  <Rbt.Executable>
rbdock ($Id: //depot/dev/client3/rdock/2013.1/src/exe/rbdock.cxx#4 $)

>  <Rbt.Library>
libRbt.so (2013.1, Build901 2013/11/27)

>  <Rbt.Parameter_File>
/export/apps/rDock/src/rDock_2013.1_src/data/scripts/dock_solv.prm

>  <Rbt.Receptor>
prm/blind_docking_80.prm

>  <SCORE>
-19.5898

>  <SCORE.INTER>
-19.0399

>  <SCORE.INTER.CONST>
1

>  <SCORE.INTER.POLAR>
0

>  <SCORE.INTER.ROT>
7

>  <SCORE.INTER.SOLV>
17.0873

>  <SCORE.INTER.VDW>
-26.6557

>  <SCORE.INTER.norm>
-0.705181

>  <SCORE.INTRA>
-0.59076

>  <SCORE.INTRA.DIHEDRAL>
-4.80931

>  <SCORE.INTRA.DIHEDRAL.0>
10.4103

>  <SCORE.INTRA.POLAR>
0

>  <SCORE.INTRA.POLAR.0>
0

>  <SCORE.INTRA.REPUL>
0

>  <SCORE.INTRA.REPUL.0>
0

>  <SCORE.INTRA.SOLV>
0.163355

>  <SCORE.INTRA.SOLV.lig_0>
-49.5008

>  <SCORE.INTRA.VDW>
1.73222

>  <SCORE.INTRA.VDW.0>
-2.6946

>  <SCORE.INTRA.norm>
-0.02188

>  <SCORE.RESTR>
0.0408532

>  <SCORE.RESTR.CAVITY>
0.0408532

>  <SCORE.RESTR.norm>
0.00151308

>  <SCORE.SYSTEM>
0

>  <SCORE.SYSTEM.CONST>
0

>  <SCORE.SYSTEM.DIHEDRAL>
0

>  <SCORE.SYSTEM.SOLV>
0

>  <SCORE.SYSTEM.norm>
0

>  <SCORE.heavy>
27

>  <SCORE.norm>
-0.725548

>  <RMSD>
14.318

$$$$
ligand
 OpenBabel02271912153D
libRbt.so/2013.1/901 2013/11/27
 27 29  0  0  0  0  0  0  0  0999 V2000
  -16.9445   -7.0575   19.1786 N   0  0  0  0  0  0  0  0  0  0  0  0
  -17.2341   -7.1152   20.5988 C   0  0  2  0  0  0  0  0  0  0  0  0
  -18.2117   -6.0209   20.8987 C   0  0  0  0  0  0  0  0  0  0  0  0
  -17.8536   -4.8305   20.7685 O   0  0  0  0  0  0  0  0  0  0  0  0
  -15.9530   -6.9216   21.4145 C   0  0  0  0  0  0  0  0  0  0  0  0
  -16.2144   -7.0950   22.9272 C   0  0  0  0  0  0  0  0  0  0  0  0
  -16.5105   -8.6666   23.4349 S   0  0  2  0  0  0  0  0  0  0  0  0
  -18.0392   -9.1179   22.9678 C   0  0  0  0  0  0  0  0  0  0  0  0
  -16.3451   -8.7646   25.1116 C   0  0  0  0  0  0  0  0  0  0  0  0
  -14.8905   -8.6291   25.6091 C   0  0  1  0  0  0  0  0  0  0  0  0
  -14.7854   -7.9570   26.8753 O   0  0  0  0  0  0  0  0  0  0  0  0
  -14.2217   -9.9622   25.9032 C   0  0  1  0  0  0  0  0  0  0  0  0
  -13.8009  -10.7560   24.7755 O   0  0  0  0  0  0  0  0  0  0  0  0
  -13.0870   -9.5117   26.7896 C   0  0  1  0  0  0  0  0  0  0  0  0
  -12.1015   -8.8339   26.0160 O   0  0  0  0  0  0  0  0  0  0  0  0
  -13.7595   -8.5224   27.6947 C   0  0  2  0  0  0  0  0  0  0  0  0
  -19.3803   -6.3177   21.2443 O   0  0  0  0  0  0  0  0  0  0  0  0
  -13.7472  -12.5615   31.1534 N   0  0  0  0  0  0  0  0  0  0  0  0
  -13.0067  -12.3970   30.0303 C   0  0  0  0  0  0  0  0  0  0  0  0
  -13.1188  -11.3186   29.2367 N   0  0  0  0  0  0  0  0  0  0  0  0
  -13.9615  -10.3187   29.5185 C   0  0  0  0  0  0  0  0  0  0  0  0
  -14.7688  -10.4262   30.7244 C   0  0  0  0  0  0  0  0  0  0  0  0
  -14.6517  -11.6270   31.5838 C   0  0  0  0  0  0  0  0  0  0  0  0
  -15.3941  -11.7875   32.7353 N   0  0  0  0  0  0  0  0  0  0  0  0
  -15.4861   -9.3267   30.7727 N   0  0  0  0  0  0  0  0  0  0  0  0
  -15.2021   -8.5753   29.6999 C   0  0  0  0  0  0  0  0  0  0  0  0
  -14.2790   -9.1646   28.9408 N   0  0  0  0  0  0  0  0  0  0  0  0
  2  1  1  6  0  0  0
  2  3  1  0  0  0  0
  2  5  1  0  0  0  0
  3  4  1  0  0  0  0
  3 17  1  0  0  0  0
  5  6  1  0  0  0  0
  7  6  1  1  0  0  0
  7  8  1  0  0  0  0
  7  9  1  0  0  0  0
 10  9  1  1  0  0  0
 10 11  1  0  0  0  0
 10 12  1  0  0  0  0
 11 16  1  0  0  0  0
 12 13  1  6  0  0  0
 12 14  1  0  0  0  0
 14 15  1  6  0  0  0
 14 16  1  0  0  0  0
 16 27  1  1  0  0  0
 18 19  2  0  0  0  0
 18 23  1  0  0  0  0
 19 20  1  0  0  0  0
 20 21  2  0  0  0  0
 21 22  1  0  0  0  0
 21 27  1  0  0  0  0
 22 23  2  0  0  0  0
 22 25  1  0  0  0  0
 23 24  1  0  0  0  0
 25 26  2  0  0  0  0
 26 27  1  0  0  0  0
M  END
>  <CHROM.1>
-65.75702956,-175.29782617,71.76837122,-74.16431503,-70.37616317,145.85160110
136.48524506,-15.38374946,-8.94916317,25.90993418,-1.91736331,-0.39780490
1.85093948

>  <Name>
ligand

>  <RI>
0

>  <Rbt.Current_Directory>
/home/itssahil/PROJECTS/Mol_Feturizer/Test_systems_manuscript/rnas/4kqy

>  <Rbt.Executable>
rbdock ($Id: //depot/dev/client3/rdock/2013.1/src/exe/rbdock.cxx#4 $)

>  <Rbt.Library>
libRbt.so (2013.1, Build901 2013/11/27)

>  <Rbt.Parameter_File>
/export/apps/rDock/src/rDock_2013.1_src/data/scripts/dock_solv.prm

>  <Rbt.Receptor>
prm/blind_docking_60.prm

>  <SCORE>
-11.4186

>  <SCORE.INTER>
-9.94024

>  <SCORE.INTER.CONST>
1

>  <SCORE.INTER.POLAR>
0

>  <SCORE.INTER.ROT>
7

>  <SCORE.INTER.SOLV>
6.66502

>  <SCORE.INTER.VDW>
-17.1152

>  <SCORE.INTER.norm>
-0.368157

>  <SCORE.INTRA>
-1.47833

>  <SCORE.INTRA.DIHEDRAL>
-2.962

>  <SCORE.INTRA.DIHEDRAL.0>
10.4103

>  <SCORE.INTRA.POLAR>
0

>  <SCORE.INTRA.POLAR.0>
0

>  <SCORE.INTRA.REPUL>
0

>  <SCORE.INTRA.REPUL.0>
0

>  <SCORE.INTRA.SOLV>
-0.271825

>  <SCORE.INTRA.SOLV.lig_0>
-49.5008

>  <SCORE.INTRA.VDW>
0.138583

>  <SCORE.INTRA.VDW.0>
-2.6946

>  <SCORE.INTRA.norm>
-0.0547529

>  <SCORE.RESTR>
0

>  <SCORE.RESTR.CAVITY>
0

>  <SCORE.RESTR.norm>
0

>  <SCORE.SYSTEM>
0

>  <SCORE.SYSTEM.CONST>
0

>  <SCORE.SYSTEM.DIHEDRAL>
0

>  <SCORE.SYSTEM.SOLV>
0

>  <SCORE.SYSTEM.norm>
0

>  <SCORE.heavy>
27

>  <SCORE.norm>
-0.42291

>  <RMSD>
14.358

$$$$
ligand
 OpenBabel02271912153D
libRbt.so/2013.1/901 2013/11/27
 27 29  0  0  0  0  0  0  0  0999 V2000
    2.1226  -10.2260    8.4413 N   0  0  0  0  0  0  0  0  0  0  0  0
    1.3158  -11.0386    9.3318 C   0  0  2  0  0  0  0  0  0  0  0  0
   -0.0429  -10.4120    9.3979 C   0  0  0  0  0  0  0  0  0  0  0  0
   -0.9635  -11.0130    9.9925 O   0  0  0  0  0  0  0  0  0  0  0  0
    1.9454  -11.0907   10.7264 C   0  0  0  0  0  0  0  0  0  0  0  0
    1.2087  -12.0933   11.6422 C   0  0  0  0  0  0  0  0  0  0  0  0
    1.5010  -13.7144   11.3231 S   0  0  2  0  0  0  0  0  0  0  0  0
    0.5222  -14.6506   12.2844 C   0  0  0  0  0  0  0  0  0  0  0  0
    3.1275  -14.0665   11.6047 C   0  0  0  0  0  0  0  0  0  0  0  0
    3.4033  -15.5506   11.9258 C   0  0  1  0  0  0  0  0  0  0  0  0
    3.1512  -16.4267   10.8146 O   0  0  0  0  0  0  0  0  0  0  0  0
    4.8623  -15.8450   12.2349 C   0  0  1  0  0  0  0  0  0  0  0  0
    5.3629  -15.4350   13.5234 O   0  0  0  0  0  0  0  0  0  0  0  0
    4.8952  -17.3370   12.0140 C   0  0  1  0  0  0  0  0  0  0  0  0
    4.2131  -18.0033   13.0723 O   0  0  0  0  0  0  0  0  0  0  0  0
    4.1017  -17.4925   10.7505 C   0  0  2  0  0  0  0  0  0  0  0  0
   -0.2251   -9.2825    8.8838 O   0  0  0  0  0  0  0  0  0  0  0  0
    6.6137  -19.9746    6.7749 N   0  0  0  0  0  0  0  0  0  0  0  0
    5.8471  -20.5008    7.7609 C   0  0  0  0  0  0  0  0  0  0  0  0
    5.2730  -19.7492    8.7153 N   0  0  0  0  0  0  0  0  0  0  0  0
    5.4055  -18.4183    8.7414 C   0  0  0  0  0  0  0  0  0  0  0  0
    6.1991  -17.7911    7.6954 C   0  0  0  0  0  0  0  0  0  0  0  0
    6.8431  -18.6291    6.6576 C   0  0  0  0  0  0  0  0  0  0  0  0
    7.6108  -18.0924    5.6449 N   0  0  0  0  0  0  0  0  0  0  0  0
    6.1580  -16.5012    7.9415 N   0  0  0  0  0  0  0  0  0  0  0  0
    5.4311  -16.2931    9.0479 C   0  0  0  0  0  0  0  0  0  0  0  0
    4.9689  -17.4446    9.5337 N   0  0  0  0  0  0  0  0  0  0  0  0
  2  1  1  6  0  0  0
  2  3  1  0  0  0  0
  2  5  1  0  0  0  0
  3  4  1  0  0  0  0
  3 17  1  0  0  0  0
  5  6  1  0  0  0  0
  7  6  1  1  0  0  0
  7  8  1  0  0  0  0
  7  9  1  0  0  0  0
 10  9  1  6  0  0  0
 10 11  1  0  0  0  0
 10 12  1  0  0  0  0
 11 16  1  0  0  0  0
 12 13  1  1  0  0  0
 12 14  1  0  0  0  0
 14 15  1  1  0  0  0
 14 16  1  0  0  0  0
 16 27  1  6  0  0  0
 18 19  2  0  0  0  0
 18 23  1  0  0  0  0
 19 20  1  0  0  0  0
 20 21  2  0  0  0  0
 21 22  1  0  0  0  0
 21 27  1  0  0  0  0
 22 23  2  0  0  0  0
 22 25  1  0  0  0  0
 23 24  1  0  0  0  0
 25 26  2  0  0  0  0
 26 27  1  0  0  0  0
M  END
>  <CHROM.1>
172.34775823,-172.65240664,74.35180132,-174.25266003,155.64540550,66.74683997
-139.86629244,3.54984505,-15.28036538,10.01196112,-3.02756905,-0.95408062
1.96605145

>  <Name>
ligand

>  <RI>
0

>  <Rbt.Current_Directory>
/home/itssahil/PROJECTS/Mol_Feturizer/Test_systems_manuscript/rnas/4kqy

>  <Rbt.Executable>
rbdock ($Id: //depot/dev/client3/rdock/2013.1/src/exe/rbdock.cxx#4 $)

>  <Rbt.Library>
libRbt.so (2013.1, Build901 2013/11/27)

>  <Rbt.Parameter_File>
/export/apps/rDock/src/rDock_2013.1_src/data/scripts/dock_solv.prm

>  <Rbt.Receptor>
prm/blind_docking_80.prm

>  <SCORE>
-19.1472

>  <SCORE.INTER>
-17.6495

>  <SCORE.INTER.CONST>
1

>  <SCORE.INTER.POLAR>
0

>  <SCORE.INTER.ROT>
7

>  <SCORE.INTER.SOLV>
17.2572

>  <SCORE.INTER.VDW>
-25.7854

>  <SCORE.INTER.norm>
-0.653684

>  <SCORE.INTRA>
-1.49773

>  <SCORE.INTRA.DIHEDRAL>
-4.74728

>  <SCORE.INTRA.DIHEDRAL.0>
10.4103

>  <SCORE.INTRA.POLAR>
0

>  <SCORE.INTRA.POLAR.0>
0

>  <SCORE.INTRA.REPUL>
0

>  <SCORE.INTRA.REPUL.0>
0

>  <SCORE.INTRA.SOLV>
-0.546866

>  <SCORE.INTRA.SOLV.lig_0>
-49.5008

>  <SCORE.INTRA.VDW>
1.14934

>  <SCORE.INTRA.VDW.0>
-2.6946

>  <SCORE.INTRA.norm>
-0.0554716

>  <SCORE.RESTR>
0

>  <SCORE.RESTR.CAVITY>
0

>  <SCORE.RESTR.norm>
0

>  <SCORE.SYSTEM>
0

>  <SCORE.SYSTEM.CONST>
0

>  <SCORE.SYSTEM.DIHEDRAL>
0

>  <SCORE.SYSTEM.SOLV>
0

>  <SCORE.SYSTEM.norm>
0

>  <SCORE.heavy>
27

>  <SCORE.norm>
-0.709156

>  <RMSD>
14.358

$$$$
ligand
 OpenBabel02271912153D
libRbt.so/2013.1/901 2013/11/27
 27 29  0  0  0  0  0  0  0  0999 V2000
   -1.8346  -12.7010   11.0684 N   0  0  0  0  0  0  0  0  0  0  0  0
   -0.6484  -12.9455   11.8668 C   0  0  2  0  0  0  0  0  0  0  0  0
   -1.1012  -13.5265   13.1708 C   0  0  0  0  0  0  0  0  0  0  0  0
   -0.2648  -14.0848   13.9130 O   0  0  0  0  0  0  0  0  0  0  0  0
    0.1159  -11.6401   12.1034 C   0  0  0  0  0  0  0  0  0  0  0  0
    0.7319  -11.1002   10.7936 C   0  0  0  0  0  0  0  0  0  0  0  0
    1.5078   -9.6176   10.9162 S   0  0  2  0  0  0  0  0  0  0  0  0
    0.3979   -8.4455   11.3075 C   0  0  0  0  0  0  0  0  0  0  0  0
    2.2728   -9.2522    9.4569 C   0  0  0  0  0  0  0  0  0  0  0  0
    3.3588  -10.2682    9.0444 C   0  0  1  0  0  0  0  0  0  0  0  0
    4.0839   -9.8753    7.8673 O   0  0  0  0  0  0  0  0  0  0  0  0
    4.4737  -10.4155   10.0673 C   0  0  1  0  0  0  0  0  0  0  0  0
    4.1796  -11.1607   11.2660 O   0  0  0  0  0  0  0  0  0  0  0  0
    5.5517  -11.0350    9.2126 C   0  0  1  0  0  0  0  0  0  0  0  0
    5.2225  -12.3885    8.9152 O   0  0  0  0  0  0  0  0  0  0  0  0
    5.4672  -10.2259    7.9523 C   0  0  2  0  0  0  0  0  0  0  0  0
   -2.3038  -13.4150   13.5094 O   0  0  0  0  0  0  0  0  0  0  0  0
   10.0687   -7.9148    6.6250 N   0  0  0  0  0  0  0  0  0  0  0  0
    9.6243   -9.1616    6.3338 C   0  0  0  0  0  0  0  0  0  0  0  0
    8.4307   -9.6225    6.7439 N   0  0  0  0  0  0  0  0  0  0  0  0
    7.5876   -8.8657    7.4549 C   0  0  0  0  0  0  0  0  0  0  0  0
    7.9984   -7.5083    7.7807 C   0  0  0  0  0  0  0  0  0  0  0  0
    9.3235   -7.0145    7.3398 C   0  0  0  0  0  0  0  0  0  0  0  0
    9.7696   -5.7403    7.6229 N   0  0  0  0  0  0  0  0  0  0  0  0
    7.0016   -6.9871    8.4594 N   0  0  0  0  0  0  0  0  0  0  0  0
    6.0369   -7.9080    8.5905 C   0  0  0  0  0  0  0  0  0  0  0  0
    6.3806   -9.0428    7.9825 N   0  0  0  0  0  0  0  0  0  0  0  0
  2  1  1  6  0  0  0
  2  3  1  0  0  0  0
  2  5  1  0  0  0  0
  3  4  1  0  0  0  0
  3 17  1  0  0  0  0
  5  6  1  0  0  0  0
  7  6  1  6  0  0  0
  7  8  1  0  0  0  0
  7  9  1  0  0  0  0
 10  9  1  1  0  0  0
 10 11  1  0  0  0  0
 10 12  1  0  0  0  0
 11 16  1  0  0  0  0
 12 13  1  1  0  0  0
 12 14  1  0  0  0  0
 14 15  1  6  0  0  0
 14 16  1  0  0  0  0
 16 27  1  1  0  0  0
 18 19  2  0  0  0  0
 18 23  1  0  0  0  0
 19 20  1  0  0  0  0
 20 21  2  0  0  0  0
 21 22  1  0  0  0  0
 21 27  1  0  0  0  0
 22 23  2  0  0  0  0
 22 25  1  0  0  0  0
 23 24  1  0  0  0  0
 25 26  2  0  0  0  0
 26 27  1  0  0  0  0
M  END
>  <CHROM.1>
164.80307041,-67.94838141,176.10139809,-64.77953609,-61.24020492,-174.50260149
-144.02335849,3.94882616,-10.11932123,9.67289656,-2.70090960,0.46470921,-0.09210890

>  <Name>
ligand

>  <RI>
0

>  <Rbt.Current_Directory>
/home/itssahil/PROJECTS/Mol_Feturizer/Test_systems_manuscript/rnas/4kqy

>  <Rbt.Executable>
rbdock ($Id: //depot/dev/client3/rdock/2013.1/src/exe/rbdock.cxx#4 $)

>  <Rbt.Library>
libRbt.so (2013.1, Build901 2013/11/27)

>  <Rbt.Parameter_File>
/export/apps/rDock/src/rDock_2013.1_src/data/scripts/dock_solv.prm

>  <Rbt.Receptor>
prm/blind_docking_20.prm

>  <SCORE>
-11.1112

>  <SCORE.INTER>
-8.18397

>  <SCORE.INTER.CONST>
1

>  <SCORE.INTER.POLAR>
0

>  <SCORE.INTER.ROT>
7

>  <SCORE.INTER.SOLV>
12.7918

>  <SCORE.INTER.VDW>
-17.9866

>  <SCORE.INTER.norm>
-0.30311

>  <SCORE.INTRA>
-2.92723

>  <SCORE.INTRA.DIHEDRAL>
-7.19935

>  <SCORE.INTRA.DIHEDRAL.0>
10.4103

>  <SCORE.INTRA.POLAR>
0

>  <SCORE.INTRA.POLAR.0>
0

>  <SCORE.INTRA.REPUL>
0

>  <SCORE.INTRA.REPUL.0>
0

>  <SCORE.INTRA.SOLV>
0.354884

>  <SCORE.INTRA.SOLV.lig_0>
-49.5008

>  <SCORE.INTRA.VDW>
0.495004

>  <SCORE.INTRA.VDW.0>
-2.6946

>  <SCORE.INTRA.norm>
-0.108416

>  <SCORE.RESTR>
0

>  <SCORE.RESTR.CAVITY>
0

>  <SCORE.RESTR.norm>
0

>  <SCORE.SYSTEM>
0

>  <SCORE.SYSTEM.CONST>
0

>  <SCORE.SYSTEM.DIHEDRAL>
0

>  <SCORE.SYSTEM.SOLV>
0

>  <SCORE.SYSTEM.norm>
0

>  <SCORE.heavy>
27

>  <SCORE.norm>
-0.411526

>  <RMSD>
14.364

$$$$
ligand
 OpenBabel02271912153D
libRbt.so/2013.1/901 2013/11/27
 27 29  0  0  0  0  0  0  0  0999 V2000
    6.8970  -17.9756    5.4863 N   0  0  0  0  0  0  0  0  0  0  0  0
    5.8559  -18.5017    6.3485 C   0  0  2  0  0  0  0  0  0  0  0  0
    4.5465  -18.2653    5.6610 C   0  0  0  0  0  0  0  0  0  0  0  0
    4.1749  -17.0920    5.4435 O   0  0  0  0  0  0  0  0  0  0  0  0
    5.8781  -17.7952    7.7067 C   0  0  0  0  0  0  0  0  0  0  0  0
    5.0949  -18.5939    8.7722 C   0  0  0  0  0  0  0  0  0  0  0  0
    4.8704  -17.8140   10.2408 S   0  0  2  0  0  0  0  0  0  0  0  0
    4.3330  -18.9079   11.3692 C   0  0  0  0  0  0  0  0  0  0  0  0
    3.7617  -16.5552   10.0541 C   0  0  0  0  0  0  0  0  0  0  0  0
    3.8741  -15.4536   11.1291 C   0  0  1  0  0  0  0  0  0  0  0  0
    5.1508  -14.7935   11.1320 O   0  0  0  0  0  0  0  0  0  0  0  0
    2.9186  -14.2915   10.9110 C   0  0  1  0  0  0  0  0  0  0  0  0
    1.5284  -14.5081   11.2257 O   0  0  0  0  0  0  0  0  0  0  0  0
    3.5776  -13.2304   11.7572 C   0  0  1  0  0  0  0  0  0  0  0  0
    3.3976  -13.5253   13.1391 O   0  0  0  0  0  0  0  0  0  0  0  0
    5.0273  -13.3966   11.4095 C   0  0  2  0  0  0  0  0  0  0  0  0
    3.8616  -19.2475    5.2876 O   0  0  0  0  0  0  0  0  0  0  0  0
    3.8641   -9.6340    7.8366 N   0  0  0  0  0  0  0  0  0  0  0  0
    3.0747  -10.1714    8.7982 C   0  0  0  0  0  0  0  0  0  0  0  0
    3.5007  -11.1311    9.6365 N   0  0  0  0  0  0  0  0  0  0  0  0
    4.7498  -11.6072    9.5889 C   0  0  0  0  0  0  0  0  0  0  0  0
    5.6534  -11.0537    8.5916 C   0  0  0  0  0  0  0  0  0  0  0  0
    5.1699  -10.0087    7.6597 C   0  0  0  0  0  0  0  0  0  0  0  0
    5.9778   -9.4505    6.6909 N   0  0  0  0  0  0  0  0  0  0  0  0
    6.7989  -11.6730    8.7652 N   0  0  0  0  0  0  0  0  0  0  0  0
    6.6660  -12.5613    9.7598 C   0  0  0  0  0  0  0  0  0  0  0  0
    5.4339  -12.5240   10.2657 N   0  0  0  0  0  0  0  0  0  0  0  0
  2  1  1  6  0  0  0
  2  3  1  0  0  0  0
  2  5  1  0  0  0  0
  3  4  1  0  0  0  0
  3 17  1  0  0  0  0
  5  6  1  0  0  0  0
  7  6  1  6  0  0  0
  7  8  1  0  0  0  0
  7  9  1  0  0  0  0
 10  9  1  6  0  0  0
 10 11  1  0  0  0  0
 10 12  1  0  0  0  0
 11 16  1  0  0  0  0
 12 13  1  1  0  0  0
 12 14  1  0  0  0  0
 14 15  1  1  0  0  0
 14 16  1  0  0  0  0
 16 27  1  6  0  0  0
 18 19  2  0  0  0  0
 18 23  1  0  0  0  0
 19 20  1  0  0  0  0
 20 21  2  0  0  0  0
 21 22  1  0  0  0  0
 21 27  1  0  0  0  0
 22 23  2  0  0  0  0
 22 25  1  0  0  0  0
 23 24  1  0  0  0  0
 25 26  2  0  0  0  0
 26 27  1  0  0  0  0
M  END
>  <CHROM.1>
-63.21180631,-162.91052057,-171.82398972,-167.21308652,-157.49011002,61.40511907
121.17085918,4.63134161,-14.69919209,9.13321362,-1.43276886,1.26982292,0.10659523

>  <Name>
ligand

>  <RI>
0

>  <Rbt.Current_Directory>
/home/itssahil/PROJECTS/Mol_Feturizer/Test_systems_manuscript/rnas/4kqy

>  <Rbt.Executable>
rbdock ($Id: //depot/dev/client3/rdock/2013.1/src/exe/rbdock.cxx#4 $)

>  <Rbt.Library>
libRbt.so (2013.1, Build901 2013/11/27)

>  <Rbt.Parameter_File>
/export/apps/rDock/src/rDock_2013.1_src/data/scripts/dock_solv.prm

>  <Rbt.Receptor>
prm/blind_docking_80.prm

>  <SCORE>
-18.8016

>  <SCORE.INTER>
-16.2909

>  <SCORE.INTER.CONST>
1

>  <SCORE.INTER.POLAR>
0

>  <SCORE.INTER.ROT>
7

>  <SCORE.INTER.SOLV>
17.5465

>  <SCORE.INTER.VDW>
-24.9761

>  <SCORE.INTER.norm>
-0.603366

>  <SCORE.INTRA>
-2.51075

>  <SCORE.INTRA.DIHEDRAL>
-4.47287

>  <SCORE.INTRA.DIHEDRAL.0>
10.4103

>  <SCORE.INTRA.POLAR>
0

>  <SCORE.INTRA.POLAR.0>
0

>  <SCORE.INTRA.REPUL>
0

>  <SCORE.INTRA.REPUL.0>
0

>  <SCORE.INTRA.SOLV>
-0.665807

>  <SCORE.INTRA.SOLV.lig_0>
-49.5008

>  <SCORE.INTRA.VDW>
0.0585915

>  <SCORE.INTRA.VDW.0>
-2.6946

>  <SCORE.INTRA.norm>
-0.0929907

>  <SCORE.RESTR>
0

>  <SCORE.RESTR.CAVITY>
0

>  <SCORE.RESTR.norm>
0

>  <SCORE.SYSTEM>
0

>  <SCORE.SYSTEM.CONST>
0

>  <SCORE.SYSTEM.DIHEDRAL>
0

>  <SCORE.SYSTEM.SOLV>
0

>  <SCORE.SYSTEM.norm>
0

>  <SCORE.heavy>
27

>  <SCORE.norm>
-0.696357

>  <RMSD>
14.386

$$$$
ligand
 OpenBabel02271912153D
libRbt.so/2013.1/901 2013/11/27
 27 29  0  0  0  0  0  0  0  0999 V2000
    2.7772  -21.1812    4.2380 N   0  0  0  0  0  0  0  0  0  0  0  0
    3.1138  -20.6154    5.5306 C   0  0  2  0  0  0  0  0  0  0  0  0
    1.8514  -20.5591    6.3345 C   0  0  0  0  0  0  0  0  0  0  0  0
    0.8547  -19.9693    5.8645 O   0  0  0  0  0  0  0  0  0  0  0  0
    3.7005  -19.2110    5.3637 C   0  0  0  0  0  0  0  0  0  0  0  0
    5.2040  -19.1807    5.7172 C   0  0  0  0  0  0  0  0  0  0  0  0
    5.5617  -18.9162    7.3350 S   0  0  2  0  0  0  0  0  0  0  0  0
    4.8977  -20.1315    8.2521 C   0  0  0  0  0  0  0  0  0  0  0  0
    4.9627  -17.4123    7.8127 C   0  0  0  0  0  0  0  0  0  0  0  0
    5.4007  -16.9818    9.2286 C   0  0  1  0  0  0  0  0  0  0  0  0
    5.5593  -15.5597    9.3642 O   0  0  0  0  0  0  0  0  0  0  0  0
    4.3703  -17.2882   10.3034 C   0  0  1  0  0  0  0  0  0  0  0  0
    4.2373  -18.6614   10.7222 O   0  0  0  0  0  0  0  0  0  0  0  0
    4.8296  -16.3580   11.3987 C   0  0  1  0  0  0  0  0  0  0  0  0
    6.0368  -16.8435   11.9785 O   0  0  0  0  0  0  0  0  0  0  0  0
    5.1259  -15.0954   10.6449 C   0  0  2  0  0  0  0  0  0  0  0  0
    1.8064  -21.1310    7.4499 O   0  0  0  0  0  0  0  0  0  0  0  0
   -0.0279  -14.1692   11.5700 N   0  0  0  0  0  0  0  0  0  0  0  0
    0.7013  -15.2798   11.8373 C   0  0  0  0  0  0  0  0  0  0  0  0
    2.0077  -15.3811   11.5401 N   0  0  0  0  0  0  0  0  0  0  0  0
    2.6836  -14.3746   10.9750 C   0  0  0  0  0  0  0  0  0  0  0  0
    1.9606  -13.1459   10.6837 C   0  0  0  0  0  0  0  0  0  0  0  0
    0.5163  -13.0495   10.9983 C   0  0  0  0  0  0  0  0  0  0  0  0
   -0.2226  -11.9136   10.7405 N   0  0  0  0  0  0  0  0  0  0  0  0
    2.8433  -12.3294   10.1545 N   0  0  0  0  0  0  0  0  0  0  0  0
    4.0255  -12.9562   10.0812 C   0  0  0  0  0  0  0  0  0  0  0  0
    3.9388  -14.1891   10.5793 N   0  0  0  0  0  0  0  0  0  0  0  0
  2  1  1  6  0  0  0
  2  3  1  0  0  0  0
  2  5  1  0  0  0  0
  3  4  1  0  0  0  0
  3 17  1  0  0  0  0
  5  6  1  0  0  0  0
  7  6  1  6  0  0  0
  7  8  1  0  0  0  0
  7  9  1  0  0  0  0
 10  9  1  6  0  0  0
 10 11  1  0  0  0  0
 10 12  1  0  0  0  0
 11 16  1  0  0  0  0
 12 13  1  1  0  0  0
 12 14  1  0  0  0  0
 14 15  1  6  0  0  0
 14 16  1  0  0  0  0
 16 27  1  6  0  0  0
 18 19  2  0  0  0  0
 18 23  1  0  0  0  0
 19 20  1  0  0  0  0
 20 21  2  0  0  0  0
 21 22  1  0  0  0  0
 21 27  1  0  0  0  0
 22 23  2  0  0  0  0
 22 25  1  0  0  0  0
 23 24  1  0  0  0  0
 25 26  2  0  0  0  0
 26 27  1  0  0  0  0
M  END
>  <CHROM.1>
-54.73265855,-110.79374720,-87.49793119,60.42017006,-172.11764103,147.59089340
110.89139710,3.43060049,-16.93957193,9.01460299,1.40548500,0.23163510,-2.45862954

>  <Name>
ligand

>  <RI>
0

>  <Rbt.Current_Directory>
/home/itssahil/PROJECTS/Mol_Feturizer/Test_systems_manuscript/rnas/4kqy

>  <Rbt.Executable>
rbdock ($Id: //depot/dev/client3/rdock/2013.1/src/exe/rbdock.cxx#4 $)

>  <Rbt.Library>
libRbt.so (2013.1, Build901 2013/11/27)

>  <Rbt.Parameter_File>
/export/apps/rDock/src/rDock_2013.1_src/data/scripts/dock_solv.prm

>  <Rbt.Receptor>
prm/blind_docking_40.prm

>  <SCORE>
-16.9468

>  <SCORE.INTER>
-18.9475

>  <SCORE.INTER.CONST>
1

>  <SCORE.INTER.POLAR>
0

>  <SCORE.INTER.ROT>
7

>  <SCORE.INTER.SOLV>
19.0158

>  <SCORE.INTER.VDW>
-27.2369

>  <SCORE.INTER.norm>
-0.70176

>  <SCORE.INTRA>
2.00075

>  <SCORE.INTRA.DIHEDRAL>
3.31709

>  <SCORE.INTRA.DIHEDRAL.0>
10.4103

>  <SCORE.INTRA.POLAR>
0

>  <SCORE.INTRA.POLAR.0>
0

>  <SCORE.INTRA.REPUL>
0

>  <SCORE.INTRA.REPUL.0>
0

>  <SCORE.INTRA.SOLV>
0.0468802

>  <SCORE.INTRA.SOLV.lig_0>
-49.5008

>  <SCORE.INTRA.VDW>
0.318766

>  <SCORE.INTRA.VDW.0>
-2.6946

>  <SCORE.INTRA.norm>
0.074102

>  <SCORE.RESTR>
0

>  <SCORE.RESTR.CAVITY>
0

>  <SCORE.RESTR.norm>
0

>  <SCORE.SYSTEM>
0

>  <SCORE.SYSTEM.CONST>
0

>  <SCORE.SYSTEM.DIHEDRAL>
0

>  <SCORE.SYSTEM.SOLV>
0

>  <SCORE.SYSTEM.norm>
0

>  <SCORE.heavy>
27

>  <SCORE.norm>
-0.627658

>  <RMSD>
14.395

$$$$
ligand
 OpenBabel02271912153D
libRbt.so/2013.1/901 2013/11/27
 27 29  0  0  0  0  0  0  0  0999 V2000
    1.2327  -14.9786   12.1328 N   0  0  0  0  0  0  0  0  0  0  0  0
    0.8162  -13.5894   12.1042 C   0  0  2  0  0  0  0  0  0  0  0  0
   -0.6599  -13.5721   11.8513 C   0  0  0  0  0  0  0  0  0  0  0  0
   -1.3340  -12.5944   12.2410 O   0  0  0  0  0  0  0  0  0  0  0  0
    1.5540  -12.8322   10.9968 C   0  0  0  0  0  0  0  0  0  0  0  0
    1.3895  -11.3038   11.1506 C   0  0  0  0  0  0  0  0  0  0  0  0
    2.0071  -10.3795    9.8939 S   0  0  2  0  0  0  0  0  0  0  0  0
    1.0433  -10.5583    8.5530 C   0  0  0  0  0  0  0  0  0  0  0  0
    3.5906  -10.8578    9.5592 C   0  0  0  0  0  0  0  0  0  0  0  0
    4.2649  -10.0533    8.4279 C   0  0  1  0  0  0  0  0  0  0  0  0
    4.5072   -8.6801    8.7765 O   0  0  0  0  0  0  0  0  0  0  0  0
    5.6622  -10.5426    8.0832 C   0  0  1  0  0  0  0  0  0  0  0  0
    5.7688  -11.7655    7.3269 O   0  0  0  0  0  0  0  0  0  0  0  0
    6.2090   -9.3326    7.3668 C   0  0  1  0  0  0  0  0  0  0  0  0
    5.5996   -9.2059    6.0856 O   0  0  0  0  0  0  0  0  0  0  0  0
    5.7441   -8.2049    8.2400 C   0  0  2  0  0  0  0  0  0  0  0  0
   -1.1880  -14.5226   11.2261 O   0  0  0  0  0  0  0  0  0  0  0  0
   10.6802   -8.5387   10.1892 N   0  0  0  0  0  0  0  0  0  0  0  0
   10.1670   -9.0947    9.0649 C   0  0  0  0  0  0  0  0  0  0  0  0
    8.8863   -8.9320    8.6925 N   0  0  0  0  0  0  0  0  0  0  0  0
    8.0331   -8.1864    9.4034 C   0  0  0  0  0  0  0  0  0  0  0  0
    8.5308   -7.5440   10.6105 C   0  0  0  0  0  0  0  0  0  0  0  0
    9.9394   -7.7434   11.0232 C   0  0  0  0  0  0  0  0  0  0  0  0
   10.4662   -7.1650   12.1592 N   0  0  0  0  0  0  0  0  0  0  0  0
    7.5139   -6.8737   11.1030 N   0  0  0  0  0  0  0  0  0  0  0  0
    6.4452   -7.0669   10.3179 C   0  0  0  0  0  0  0  0  0  0  0  0
    6.7517   -7.8536    9.2871 N   0  0  0  0  0  0  0  0  0  0  0  0
  2  1  1  6  0  0  0
  2  3  1  0  0  0  0
  2  5  1  0  0  0  0
  3  4  1  0  0  0  0
  3 17  1  0  0  0  0
  5  6  1  0  0  0  0
  7  6  1  1  0  0  0
  7  8  1  0  0  0  0
  7  9  1  0  0  0  0
 10  9  1  1  0  0  0
 10 11  1  0  0  0  0
 10 12  1  0  0  0  0
 11 16  1  0  0  0  0
 12 13  1  6  0  0  0
 12 14  1  0  0  0  0
 14 15  1  6  0  0  0
 14 16  1  0  0  0  0
 16 27  1  1  0  0  0
 18 19  2  0  0  0  0
 18 23  1  0  0  0  0
 19 20  1  0  0  0  0
 20 21  2  0  0  0  0
 21 22  1  0  0  0  0
 21 27  1  0  0  0  0
 22 23  2  0  0  0  0
 22 25  1  0  0  0  0
 23 24  1  0  0  0  0
 25 26  2  0  0  0  0
 26 27  1  0  0  0  0
M  END
>  <CHROM.1>
154.59209102,-166.59483433,-173.22791483,71.63451935,-179.10612217,67.50113210
131.24299889,4.68395708,-10.15496026,9.82390330,-2.91356240,-0.49757562,-1.40759936

>  <Name>
ligand

>  <RI>
0

>  <Rbt.Current_Directory>
/home/itssahil/PROJECTS/Mol_Feturizer/Test_systems_manuscript/rnas/4kqy

>  <Rbt.Executable>
rbdock ($Id: //depot/dev/client3/rdock/2013.1/src/exe/rbdock.cxx#4 $)

>  <Rbt.Library>
libRbt.so (2013.1, Build901 2013/11/27)

>  <Rbt.Parameter_File>
/export/apps/rDock/src/rDock_2013.1_src/data/scripts/dock_solv.prm

>  <Rbt.Receptor>
prm/blind_docking_20.prm

>  <SCORE>
-11.7386

>  <SCORE.INTER>
-8.97987

>  <SCORE.INTER.CONST>
1

>  <SCORE.INTER.POLAR>
0

>  <SCORE.INTER.ROT>
7

>  <SCORE.INTER.SOLV>
9.64826

>  <SCORE.INTER.VDW>
-17.4693

>  <SCORE.INTER.norm>
-0.332588

>  <SCORE.INTRA>
-2.75871

>  <SCORE.INTRA.DIHEDRAL>
-6.3387

>  <SCORE.INTRA.DIHEDRAL.0>
10.4103

>  <SCORE.INTRA.POLAR>
0

>  <SCORE.INTRA.POLAR.0>
0

>  <SCORE.INTRA.REPUL>
0

>  <SCORE.INTRA.REPUL.0>
0

>  <SCORE.INTRA.SOLV>
-0.671812

>  <SCORE.INTRA.SOLV.lig_0>
-49.5008

>  <SCORE.INTRA.VDW>
0.746549

>  <SCORE.INTRA.VDW.0>
-2.6946

>  <SCORE.INTRA.norm>
-0.102174

>  <SCORE.RESTR>
0

>  <SCORE.RESTR.CAVITY>
0

>  <SCORE.RESTR.norm>
0

>  <SCORE.SYSTEM>
0

>  <SCORE.SYSTEM.CONST>
0

>  <SCORE.SYSTEM.DIHEDRAL>
0

>  <SCORE.SYSTEM.SOLV>
0

>  <SCORE.SYSTEM.norm>
0

>  <SCORE.heavy>
27

>  <SCORE.norm>
-0.434762

>  <RMSD>
14.405

$$$$
ligand
 OpenBabel02271912153D
libRbt.so/2013.1/901 2013/11/27
 27 29  0  0  0  0  0  0  0  0999 V2000
    0.0706   -9.6511   11.3173 N   0  0  0  0  0  0  0  0  0  0  0  0
    0.9747   -9.6873   10.1835 C   0  0  2  0  0  0  0  0  0  0  0  0
    0.6126   -8.5422    9.2886 C   0  0  0  0  0  0  0  0  0  0  0  0
    1.4615   -7.6532    9.0619 O   0  0  0  0  0  0  0  0  0  0  0  0
    0.8369  -11.0137    9.4313 C   0  0  0  0  0  0  0  0  0  0  0  0
    1.3270  -12.2026   10.2873 C   0  0  0  0  0  0  0  0  0  0  0  0
    2.9826  -12.4741   10.2682 S   0  0  2  0  0  0  0  0  0  0  0  0
    3.3998  -13.4269   11.5631 C   0  0  0  0  0  0  0  0  0  0  0  0
    3.8026  -10.9999   10.3228 C   0  0  0  0  0  0  0  0  0  0  0  0
    4.0864  -10.3863    8.9354 C   0  0  1  0  0  0  0  0  0  0  0  0
    4.0964   -8.9491    8.9434 O   0  0  0  0  0  0  0  0  0  0  0  0
    5.4721  -10.7085    8.3999 C   0  0  1  0  0  0  0  0  0  0  0  0
    5.6953  -12.0411    7.8969 O   0  0  0  0  0  0  0  0  0  0  0  0
    5.6221   -9.6293    7.3564 C   0  0  1  0  0  0  0  0  0  0  0  0
    4.7845   -9.9098    6.2389 O   0  0  0  0  0  0  0  0  0  0  0  0
    5.0942   -8.4187    8.0677 C   0  0  2  0  0  0  0  0  0  0  0  0
   -0.5234   -8.5116    8.7578 O   0  0  0  0  0  0  0  0  0  0  0  0
   10.1328   -6.7420    8.3453 N   0  0  0  0  0  0  0  0  0  0  0  0
    9.5331   -7.4882    7.3861 C   0  0  0  0  0  0  0  0  0  0  0  0
    8.2403   -7.8491    7.4477 N   0  0  0  0  0  0  0  0  0  0  0  0
    7.4495   -7.4738    8.4592 C   0  0  0  0  0  0  0  0  0  0  0  0
    8.0300   -6.6516    9.5101 C   0  0  0  0  0  0  0  0  0  0  0  0
    9.4606   -6.2734    9.4432 C   0  0  0  0  0  0  0  0  0  0  0  0
   10.0675   -5.5009   10.4116 N   0  0  0  0  0  0  0  0  0  0  0  0
    7.0548   -6.4161   10.3584 N   0  0  0  0  0  0  0  0  0  0  0  0
    5.9464   -7.0345    9.9285 C   0  0  0  0  0  0  0  0  0  0  0  0
    6.1749   -7.6706    8.7802 N   0  0  0  0  0  0  0  0  0  0  0  0
  2  1  1  1  0  0  0
  2  3  1  0  0  0  0
  2  5  1  0  0  0  0
  3  4  1  0  0  0  0
  3 17  1  0  0  0  0
  5  6  1  0  0  0  0
  7  6  1  1  0  0  0
  7  8  1  0  0  0  0
  7  9  1  0  0  0  0
 10  9  1  1  0  0  0
 10 11  1  0  0  0  0
 10 12  1  0  0  0  0
 11 16  1  0  0  0  0
 12 13  1  6  0  0  0
 12 14  1  0  0  0  0
 14 15  1  6  0  0  0
 14 16  1  0  0  0  0
 16 27  1  1  0  0  0
 18 19  2  0  0  0  0
 18 23  1  0  0  0  0
 19 20  1  0  0  0  0
 20 21  2  0  0  0  0
 21 22  1  0  0  0  0
 21 27  1  0  0  0  0
 22 23  2  0  0  0  0
 22 25  1  0  0  0  0
 23 24  1  0  0  0  0
 25 26  2  0  0  0  0
 26 27  1  0  0  0  0
M  END
>  <CHROM.1>
118.85301885,-66.75154070,-83.10136565,162.14014094,-89.31290729,148.60007255
151.75725592,4.69494282,-9.23838090,9.17139425,2.64830687,-0.15452115,3.13358853

>  <Name>
ligand

>  <RI>
0

>  <Rbt.Current_Directory>
/home/itssahil/PROJECTS/Mol_Feturizer/Test_systems_manuscript/rnas/4kqy

>  <Rbt.Executable>
rbdock ($Id: //depot/dev/client3/rdock/2013.1/src/exe/rbdock.cxx#4 $)

>  <Rbt.Library>
libRbt.so (2013.1, Build901 2013/11/27)

>  <Rbt.Parameter_File>
/export/apps/rDock/src/rDock_2013.1_src/data/scripts/dock_solv.prm

>  <Rbt.Receptor>
prm/blind_docking_20.prm

>  <SCORE>
-10.5763

>  <SCORE.INTER>
-11.0211

>  <SCORE.INTER.CONST>
1

>  <SCORE.INTER.POLAR>
0

>  <SCORE.INTER.ROT>
7

>  <SCORE.INTER.SOLV>
9.06268

>  <SCORE.INTER.VDW>
-18.635

>  <SCORE.INTER.norm>
-0.408189

>  <SCORE.INTRA>
0.444805

>  <SCORE.INTRA.DIHEDRAL>
0.398607

>  <SCORE.INTRA.DIHEDRAL.0>
10.4103

>  <SCORE.INTRA.POLAR>
0

>  <SCORE.INTRA.POLAR.0>
0

>  <SCORE.INTRA.REPUL>
0

>  <SCORE.INTRA.REPUL.0>
0

>  <SCORE.INTRA.SOLV>
1.10186

>  <SCORE.INTRA.SOLV.lig_0>
-49.5008

>  <SCORE.INTRA.VDW>
-0.30543

>  <SCORE.INTRA.VDW.0>
-2.6946

>  <SCORE.INTRA.norm>
0.0164743

>  <SCORE.RESTR>
0

>  <SCORE.RESTR.CAVITY>
0

>  <SCORE.RESTR.norm>
0

>  <SCORE.SYSTEM>
0

>  <SCORE.SYSTEM.CONST>
0

>  <SCORE.SYSTEM.DIHEDRAL>
0

>  <SCORE.SYSTEM.SOLV>
0

>  <SCORE.SYSTEM.norm>
0

>  <SCORE.heavy>
27

>  <SCORE.norm>
-0.391714

>  <RMSD>
14.408

$$$$
ligand
 OpenBabel02271912153D
libRbt.so/2013.1/901 2013/11/27
 27 29  0  0  0  0  0  0  0  0999 V2000
    3.8148   -9.2764    8.9542 N   0  0  0  0  0  0  0  0  0  0  0  0
    2.6705  -10.1661    9.0114 C   0  0  2  0  0  0  0  0  0  0  0  0
    1.4789   -9.3359    9.3776 C   0  0  0  0  0  0  0  0  0  0  0  0
    0.3737   -9.5903    8.8522 O   0  0  0  0  0  0  0  0  0  0  0  0
    2.8963  -11.2618   10.0567 C   0  0  0  0  0  0  0  0  0  0  0  0
    1.7576  -12.3056   10.0365 C   0  0  0  0  0  0  0  0  0  0  0  0
    1.9478  -13.6043   11.0818 S   0  0  2  0  0  0  0  0  0  0  0  0
    1.9817  -13.0511   12.6475 C   0  0  0  0  0  0  0  0  0  0  0  0
    3.3712  -14.4316   10.7099 C   0  0  0  0  0  0  0  0  0  0  0  0
    3.5702  -15.7337   11.5140 C   0  0  1  0  0  0  0  0  0  0  0  0
    3.0955  -16.9026   10.8254 O   0  0  0  0  0  0  0  0  0  0  0  0
    5.0301  -16.0814   11.7565 C   0  0  1  0  0  0  0  0  0  0  0  0
    5.7378  -15.3151   12.7518 O   0  0  0  0  0  0  0  0  0  0  0  0
    4.9127  -17.5490   12.0860 C   0  0  1  0  0  0  0  0  0  0  0  0
    4.3352  -17.7156   13.3775 O   0  0  0  0  0  0  0  0  0  0  0  0
    3.9398  -18.0337   11.0523 C   0  0  2  0  0  0  0  0  0  0  0  0
    1.6037   -8.4218   10.2273 O   0  0  0  0  0  0  0  0  0  0  0  0
    6.8605  -17.0682    6.7149 N   0  0  0  0  0  0  0  0  0  0  0  0
    6.4285  -16.2020    7.6633 C   0  0  0  0  0  0  0  0  0  0  0  0
    5.6834  -16.5857    8.7135 N   0  0  0  0  0  0  0  0  0  0  0  0
    5.3347  -17.8631    8.9032 C   0  0  0  0  0  0  0  0  0  0  0  0
    5.7876  -18.8456    7.9301 C   0  0  0  0  0  0  0  0  0  0  0  0
    6.5935  -18.4110    6.7657 C   0  0  0  0  0  0  0  0  0  0  0  0
    7.0465  -19.2948    5.8084 N   0  0  0  0  0  0  0  0  0  0  0  0
    5.3282  -20.0023    8.3507 N   0  0  0  0  0  0  0  0  0  0  0  0
    4.6248  -19.8075    9.4747 C   0  0  0  0  0  0  0  0  0  0  0  0
    4.6284  -18.5200    9.8176 N   0  0  0  0  0  0  0  0  0  0  0  0
  2  1  1  1  0  0  0
  2  3  1  0  0  0  0
  2  5  1  0  0  0  0
  3  4  1  0  0  0  0
  3 17  1  0  0  0  0
  5  6  1  0  0  0  0
  7  6  1  6  0  0  0
  7  8  1  0  0  0  0
  7  9  1  0  0  0  0
 10  9  1  6  0  0  0
 10 11  1  0  0  0  0
 10 12  1  0  0  0  0
 11 16  1  0  0  0  0
 12 13  1  1  0  0  0
 12 14  1  0  0  0  0
 14 15  1  1  0  0  0
 14 16  1  0  0  0  0
 16 27  1  6  0  0  0
 18 19  2  0  0  0  0
 18 23  1  0  0  0  0
 19 20  1  0  0  0  0
 20 21  2  0  0  0  0
 21 22  1  0  0  0  0
 21 27  1  0  0  0  0
 22 23  2  0  0  0  0
 22 25  1  0  0  0  0
 23 24  1  0  0  0  0
 25 26  2  0  0  0  0
 26 27  1  0  0  0  0
M  END
>  <CHROM.1>
142.44614391,-174.16974533,176.53985867,62.31337717,-173.87056098,94.45279659
50.07764651,3.94420817,-15.06274006,9.92592537,-2.58043171,-1.06184786,2.33828697

>  <Name>
ligand

>  <RI>
0

>  <Rbt.Current_Directory>
/home/itssahil/PROJECTS/Mol_Feturizer/Test_systems_manuscript/rnas/4kqy

>  <Rbt.Executable>
rbdock ($Id: //depot/dev/client3/rdock/2013.1/src/exe/rbdock.cxx#4 $)

>  <Rbt.Library>
libRbt.so (2013.1, Build901 2013/11/27)

>  <Rbt.Parameter_File>
/export/apps/rDock/src/rDock_2013.1_src/data/scripts/dock_solv.prm

>  <Rbt.Receptor>
prm/blind_docking_80.prm

>  <SCORE>
-16.7354

>  <SCORE.INTER>
-14.279

>  <SCORE.INTER.CONST>
1

>  <SCORE.INTER.POLAR>
0

>  <SCORE.INTER.ROT>
7

>  <SCORE.INTER.SOLV>
16.9554

>  <SCORE.INTER.VDW>
-23.4378

>  <SCORE.INTER.norm>
-0.52885

>  <SCORE.INTRA>
-2.45647

>  <SCORE.INTRA.DIHEDRAL>
-4.27194

>  <SCORE.INTRA.DIHEDRAL.0>
10.4103

>  <SCORE.INTRA.POLAR>
0

>  <SCORE.INTRA.POLAR.0>
0

>  <SCORE.INTRA.REPUL>
0

>  <SCORE.INTRA.REPUL.0>
0

>  <SCORE.INTRA.SOLV>
-0.661986

>  <SCORE.INTRA.SOLV.lig_0>
-49.5008

>  <SCORE.INTRA.VDW>
0.0104869

>  <SCORE.INTRA.VDW.0>
-2.6946

>  <SCORE.INTRA.norm>
-0.0909805

>  <SCORE.RESTR>
0

>  <SCORE.RESTR.CAVITY>
0

>  <SCORE.RESTR.norm>
0

>  <SCORE.SYSTEM>
0

>  <SCORE.SYSTEM.CONST>
0

>  <SCORE.SYSTEM.DIHEDRAL>
0

>  <SCORE.SYSTEM.SOLV>
0

>  <SCORE.SYSTEM.norm>
0

>  <SCORE.heavy>
27

>  <SCORE.norm>
-0.619831

>  <RMSD>
14.420

$$$$
ligand
 OpenBabel02271912153D
libRbt.so/2013.1/901 2013/11/27
 27 29  0  0  0  0  0  0  0  0999 V2000
   -0.8308   -8.9556    9.7086 N   0  0  0  0  0  0  0  0  0  0  0  0
    0.5418   -8.5487    9.9424 C   0  0  2  0  0  0  0  0  0  0  0  0
    0.8146   -7.3723    9.0564 C   0  0  0  0  0  0  0  0  0  0  0  0
   -0.1221   -6.8790    8.3921 O   0  0  0  0  0  0  0  0  0  0  0  0
    1.5029   -9.6947    9.6150 C   0  0  0  0  0  0  0  0  0  0  0  0
    1.4355  -10.8110   10.6807 C   0  0  0  0  0  0  0  0  0  0  0  0
    2.3913  -12.1569   10.3803 S   0  0  2  0  0  0  0  0  0  0  0  0
    2.1233  -13.2972   11.5579 C   0  0  0  0  0  0  0  0  0  0  0  0
    4.0171  -11.7051   10.3456 C   0  0  0  0  0  0  0  0  0  0  0  0
    4.5517  -11.3879    8.9330 C   0  0  1  0  0  0  0  0  0  0  0  0
    4.3320  -10.0236    8.5376 O   0  0  0  0  0  0  0  0  0  0  0  0
    6.0620  -11.5120    8.8123 C   0  0  1  0  0  0  0  0  0  0  0  0
    6.6162  -12.8421    8.7635 O   0  0  0  0  0  0  0  0  0  0  0  0
    6.3060  -10.7030    7.5625 C   0  0  1  0  0  0  0  0  0  0  0  0
    5.8436  -11.4168    6.4198 O   0  0  0  0  0  0  0  0  0  0  0  0
    5.4266   -9.5068    7.7771 C   0  0  2  0  0  0  0  0  0  0  0  0
    1.9692   -6.8838    9.0207 O   0  0  0  0  0  0  0  0  0  0  0  0
    9.6908   -6.3593    8.2086 N   0  0  0  0  0  0  0  0  0  0  0  0
    9.4500   -7.3535    7.3197 C   0  0  0  0  0  0  0  0  0  0  0  0
    8.3204   -8.0809    7.3304 N   0  0  0  0  0  0  0  0  0  0  0  0
    7.3425   -7.8541    8.2145 C   0  0  0  0  0  0  0  0  0  0  0  0
    7.5321   -6.7837    9.1818 C   0  0  0  0  0  0  0  0  0  0  0  0
    8.7883   -5.9987    9.1742 C   0  0  0  0  0  0  0  0  0  0  0  0
    9.0271   -4.9765   10.0690 N   0  0  0  0  0  0  0  0  0  0  0  0
    6.4389   -6.7632    9.9101 N   0  0  0  0  0  0  0  0  0  0  0  0
    5.6164   -7.7326    9.4861 C   0  0  0  0  0  0  0  0  0  0  0  0
    6.1522   -8.3920    8.4596 N   0  0  0  0  0  0  0  0  0  0  0  0
  2  1  1  6  0  0  0
  2  3  1  0  0  0  0
  2  5  1  0  0  0  0
  3  4  1  0  0  0  0
  3 17  1  0  0  0  0
  5  6  1  0  0  0  0
  7  6  1  1  0  0  0
  7  8  1  0  0  0  0
  7  9  1  0  0  0  0
 10  9  1  1  0  0  0
 10 11  1  0  0  0  0
 10 12  1  0  0  0  0
 11 16  1  0  0  0  0
 12 13  1  6  0  0  0
 12 14  1  0  0  0  0
 14 15  1  6  0  0  0
 14 16  1  0  0  0  0
 16 27  1  1  0  0  0
 18 19  2  0  0  0  0
 18 23  1  0  0  0  0
 19 20  1  0  0  0  0
 20 21  2  0  0  0  0
 21 22  1  0  0  0  0
 21 27  1  0  0  0  0
 22 23  2  0  0  0  0
 22 25  1  0  0  0  0
 23 24  1  0  0  0  0
 25 26  2  0  0  0  0
 26 27  1  0  0  0  0
M  END
>  <CHROM.1>
5.77841285,-72.59649314,176.94245556,-176.09891972,-93.91931050,86.71921598
164.63996485,4.66411620,-9.24758494,9.05898069,2.71764704,-0.18875264,3.09939562

>  <Name>
ligand

>  <RI>
0

>  <Rbt.Current_Directory>
/home/itssahil/PROJECTS/Mol_Feturizer/Test_systems_manuscript/rnas/4kqy

>  <Rbt.Executable>
rbdock ($Id: //depot/dev/client3/rdock/2013.1/src/exe/rbdock.cxx#4 $)

>  <Rbt.Library>
libRbt.so (2013.1, Build901 2013/11/27)

>  <Rbt.Parameter_File>
/export/apps/rDock/src/rDock_2013.1_src/data/scripts/dock_solv.prm

>  <Rbt.Receptor>
prm/blind_docking_20.prm

>  <SCORE>
-12.3045

>  <SCORE.INTER>
-11.4407

>  <SCORE.INTER.CONST>
1

>  <SCORE.INTER.POLAR>
0

>  <SCORE.INTER.ROT>
7

>  <SCORE.INTER.SOLV>
11.5899

>  <SCORE.INTER.VDW>
-19.7571

>  <SCORE.INTER.norm>
-0.423728

>  <SCORE.INTRA>
-0.863843

>  <SCORE.INTRA.DIHEDRAL>
-1.96776

>  <SCORE.INTRA.DIHEDRAL.0>
10.4103

>  <SCORE.INTRA.POLAR>
0

>  <SCORE.INTRA.POLAR.0>
0

>  <SCORE.INTRA.REPUL>
0

>  <SCORE.INTRA.REPUL.0>
0

>  <SCORE.INTRA.SOLV>
0.0336224

>  <SCORE.INTRA.SOLV.lig_0>
-49.5008

>  <SCORE.INTRA.VDW>
0.103228

>  <SCORE.INTRA.VDW.0>
-2.6946

>  <SCORE.INTRA.norm>
-0.0319942

>  <SCORE.RESTR>
0

>  <SCORE.RESTR.CAVITY>
0

>  <SCORE.RESTR.norm>
0

>  <SCORE.SYSTEM>
0

>  <SCORE.SYSTEM.CONST>
0

>  <SCORE.SYSTEM.DIHEDRAL>
0

>  <SCORE.SYSTEM.SOLV>
0

>  <SCORE.SYSTEM.norm>
0

>  <SCORE.heavy>
27

>  <SCORE.norm>
-0.455723

>  <RMSD>
14.422

$$$$
ligand
 OpenBabel02271912153D
libRbt.so/2013.1/901 2013/11/27
 27 29  0  0  0  0  0  0  0  0999 V2000
   -0.8902  -10.0738   12.1099 N   0  0  0  0  0  0  0  0  0  0  0  0
   -1.3112  -10.6906   10.8664 C   0  0  2  0  0  0  0  0  0  0  0  0
   -2.0821  -11.9250   11.2201 C   0  0  0  0  0  0  0  0  0  0  0  0
   -3.3215  -11.9372   11.0592 O   0  0  0  0  0  0  0  0  0  0  0  0
   -0.0950  -11.0511   10.0091 C   0  0  0  0  0  0  0  0  0  0  0  0
    0.9976  -11.7538   10.8450 C   0  0  0  0  0  0  0  0  0  0  0  0
    2.4717  -11.9707   10.0733 S   0  0  2  0  0  0  0  0  0  0  0  0
    3.5004  -12.8060   11.0747 C   0  0  0  0  0  0  0  0  0  0  0  0
    3.1260  -10.4702    9.6623 C   0  0  0  0  0  0  0  0  0  0  0  0
    4.0966  -10.5145    8.4632 C   0  0  1  0  0  0  0  0  0  0  0  0
    4.3501   -9.2203    7.8918 O   0  0  0  0  0  0  0  0  0  0  0  0
    5.4973  -10.9767    8.8314 C   0  0  1  0  0  0  0  0  0  0  0  0
    5.6864  -12.3836    9.0837 O   0  0  0  0  0  0  0  0  0  0  0  0
    6.2782  -10.4584    7.6491 C   0  0  1  0  0  0  0  0  0  0  0  0
    5.9884  -11.2372    6.4922 O   0  0  0  0  0  0  0  0  0  0  0  0
    5.7076   -9.0833    7.4649 C   0  0  2  0  0  0  0  0  0  0  0  0
   -1.4678  -12.9343   11.6412 O   0  0  0  0  0  0  0  0  0  0  0  0
   10.0848   -6.1404    8.1393 N   0  0  0  0  0  0  0  0  0  0  0  0
    9.8108   -7.0549    7.1774 C   0  0  0  0  0  0  0  0  0  0  0  0
    8.6546   -7.7379    7.1314 N   0  0  0  0  0  0  0  0  0  0  0  0
    7.6822   -7.5418    8.0288 C   0  0  0  0  0  0  0  0  0  0  0  0
    7.9077   -6.5554    9.0746 C   0  0  0  0  0  0  0  0  0  0  0  0
    9.1924   -5.8200    9.1281 C   0  0  0  0  0  0  0  0  0  0  0  0
    9.4655   -4.8780   10.0980 N   0  0  0  0  0  0  0  0  0  0  0  0
    6.8128   -6.5487    9.8007 N   0  0  0  0  0  0  0  0  0  0  0  0
    5.9564   -7.4516    9.3035 C   0  0  0  0  0  0  0  0  0  0  0  0
    6.4715   -8.0514    8.2308 N   0  0  0  0  0  0  0  0  0  0  0  0
  2  1  1  1  0  0  0
  2  3  1  0  0  0  0
  2  5  1  0  0  0  0
  3  4  1  0  0  0  0
  3 17  1  0  0  0  0
  5  6  1  0  0  0  0
  7  6  1  1  0  0  0
  7  8  1  0  0  0  0
  7  9  1  0  0  0  0
 10  9  1  1  0  0  0
 10 11  1  0  0  0  0
 10 12  1  0  0  0  0
 11 16  1  0  0  0  0
 12 13  1  6  0  0  0
 12 14  1  0  0  0  0
 14 15  1  6  0  0  0
 14 16  1  0  0  0  0
 16 27  1  1  0  0  0
 18 19  2  0  0  0  0
 18 23  1  0  0  0  0
 19 20  1  0  0  0  0
 20 21  2  0  0  0  0
 21 22  1  0  0  0  0
 21 27  1  0  0  0  0
 22 23  2  0  0  0  0
 22 25  1  0  0  0  0
 23 24  1  0  0  0  0
 25 26  2  0  0  0  0
 26 27  1  0  0  0  0
M  END
>  <CHROM.1>
107.97839818,46.18206322,-170.44850573,-177.04072259,-154.51740721,163.60113023
-171.33301583,4.25926391,-9.74662609,9.33685601,2.81619166,-0.43639174,-2.75008845

>  <Name>
ligand

>  <RI>
0

>  <Rbt.Current_Directory>
/home/itssahil/PROJECTS/Mol_Feturizer/Test_systems_manuscript/rnas/4kqy

>  <Rbt.Executable>
rbdock ($Id: //depot/dev/client3/rdock/2013.1/src/exe/rbdock.cxx#4 $)

>  <Rbt.Library>
libRbt.so (2013.1, Build901 2013/11/27)

>  <Rbt.Parameter_File>
/export/apps/rDock/src/rDock_2013.1_src/data/scripts/dock_solv.prm

>  <Rbt.Receptor>
prm/blind_docking_20.prm

>  <SCORE>
-10.613

>  <SCORE.INTER>
-10.3446

>  <SCORE.INTER.CONST>
1

>  <SCORE.INTER.POLAR>
0

>  <SCORE.INTER.ROT>
7

>  <SCORE.INTER.SOLV>
9.64449

>  <SCORE.INTER.VDW>
-18.3779

>  <SCORE.INTER.norm>
-0.383132

>  <SCORE.INTRA>
-0.273928

>  <SCORE.INTRA.DIHEDRAL>
-3.91772

>  <SCORE.INTRA.DIHEDRAL.0>
10.4103

>  <SCORE.INTRA.POLAR>
0

>  <SCORE.INTRA.POLAR.0>
0

>  <SCORE.INTRA.REPUL>
0

>  <SCORE.INTRA.REPUL.0>
0

>  <SCORE.INTRA.SOLV>
0.579746

>  <SCORE.INTRA.SOLV.lig_0>
-49.5008

>  <SCORE.INTRA.VDW>
1.39506

>  <SCORE.INTRA.VDW.0>
-2.6946

>  <SCORE.INTRA.norm>
-0.0101455

>  <SCORE.RESTR>
0.00547212

>  <SCORE.RESTR.CAVITY>
0.00547212

>  <SCORE.RESTR.norm>
0.000202671

>  <SCORE.SYSTEM>
0

>  <SCORE.SYSTEM.CONST>
0

>  <SCORE.SYSTEM.DIHEDRAL>
0

>  <SCORE.SYSTEM.SOLV>
0

>  <SCORE.SYSTEM.norm>
0

>  <SCORE.heavy>
27

>  <SCORE.norm>
-0.393075

>  <RMSD>
14.440

$$$$
ligand
 OpenBabel02271912153D
libRbt.so/2013.1/901 2013/11/27
 27 29  0  0  0  0  0  0  0  0999 V2000
    0.9035  -10.0491    8.6836 N   0  0  0  0  0  0  0  0  0  0  0  0
    2.0988  -10.0231    9.5049 C   0  0  2  0  0  0  0  0  0  0  0  0
    3.1968   -9.4327    8.6748 C   0  0  0  0  0  0  0  0  0  0  0  0
    3.6671   -8.3181    8.9892 O   0  0  0  0  0  0  0  0  0  0  0  0
    2.4727  -11.4393    9.9508 C   0  0  0  0  0  0  0  0  0  0  0  0
    1.3646  -12.0679   10.8246 C   0  0  0  0  0  0  0  0  0  0  0  0
    1.5463  -13.7021   11.1585 S   0  0  2  0  0  0  0  0  0  0  0  0
    0.3936  -14.1713   12.2585 C   0  0  0  0  0  0  0  0  0  0  0  0
    3.0970  -13.9925   11.7581 C   0  0  0  0  0  0  0  0  0  0  0  0
    3.3753  -15.4734   12.0917 C   0  0  1  0  0  0  0  0  0  0  0  0
    3.0940  -16.3626   10.9980 O   0  0  0  0  0  0  0  0  0  0  0  0
    4.8402  -15.7691   12.3700 C   0  0  1  0  0  0  0  0  0  0  0  0
    5.3725  -15.3447   13.6409 O   0  0  0  0  0  0  0  0  0  0  0  0
    4.8628  -17.2640   12.1676 C   0  0  1  0  0  0  0  0  0  0  0  0
    4.2037  -17.9142   13.2501 O   0  0  0  0  0  0  0  0  0  0  0  0
    4.0391  -17.4327   10.9252 C   0  0  2  0  0  0  0  0  0  0  0  0
    3.6461  -10.0799    7.6989 O   0  0  0  0  0  0  0  0  0  0  0  0
    6.5102  -19.9806    6.9658 N   0  0  0  0  0  0  0  0  0  0  0  0
    5.7769  -20.4925    7.9840 C   0  0  0  0  0  0  0  0  0  0  0  0
    5.2095  -19.7247    8.9293 N   0  0  0  0  0  0  0  0  0  0  0  0
    5.3156  -18.3913    8.9140 C   0  0  0  0  0  0  0  0  0  0  0  0
    6.0725  -17.7796    7.8322 C   0  0  0  0  0  0  0  0  0  0  0  0
    6.7097  -18.6349    6.8043 C   0  0  0  0  0  0  0  0  0  0  0  0
    7.4432  -18.1132    5.7591 N   0  0  0  0  0  0  0  0  0  0  0  0
    6.0109  -16.4841    8.0418 N   0  0  0  0  0  0  0  0  0  0  0  0
    5.3051  -16.2579    9.1583 C   0  0  0  0  0  0  0  0  0  0  0  0
    4.8775  -17.4035    9.6877 N   0  0  0  0  0  0  0  0  0  0  0  0
  2  1  1  6  0  0  0
  2  3  1  0  0  0  0
  2  5  1  0  0  0  0
  3  4  1  0  0  0  0
  3 17  1  0  0  0  0
  5  6  1  0  0  0  0
  7  6  1  1  0  0  0
  7  8  1  0  0  0  0
  7  9  1  0  0  0  0
 10  9  1  6  0  0  0
 10 11  1  0  0  0  0
 10 12  1  0  0  0  0
 11 16  1  0  0  0  0
 12 13  1  1  0  0  0
 12 14  1  0  0  0  0
 14 15  1  1  0  0  0
 14 16  1  0  0  0  0
 16 27  1  6  0  0  0
 18 19  2  0  0  0  0
 18 23  1  0  0  0  0
 19 20  1  0  0  0  0
 20 21  2  0  0  0  0
 21 22  1  0  0  0  0
 21 27  1  0  0  0  0
 22 23  2  0  0  0  0
 22 25  1  0  0  0  0
 23 24  1  0  0  0  0
 25 26  2  0  0  0  0
 26 27  1  0  0  0  0
M  END
>  <CHROM.1>
112.83488709,-62.24495289,170.23838697,172.70341177,-179.64194020,53.08002983
-141.50173184,3.95802047,-15.09787142,9.94090161,-2.46817323,-1.02263716
2.46571929

>  <Name>
ligand

>  <RI>
0

>  <Rbt.Current_Directory>
/home/itssahil/PROJECTS/Mol_Feturizer/Test_systems_manuscript/rnas/4kqy

>  <Rbt.Executable>
rbdock ($Id: //depot/dev/client3/rdock/2013.1/src/exe/rbdock.cxx#4 $)

>  <Rbt.Library>
libRbt.so (2013.1, Build901 2013/11/27)

>  <Rbt.Parameter_File>
/export/apps/rDock/src/rDock_2013.1_src/data/scripts/dock_solv.prm

>  <Rbt.Receptor>
prm/blind_docking_40.prm

>  <SCORE>
-20.852

>  <SCORE.INTER>
-18.1706

>  <SCORE.INTER.CONST>
1

>  <SCORE.INTER.POLAR>
0

>  <SCORE.INTER.ROT>
7

>  <SCORE.INTER.SOLV>
16.5527

>  <SCORE.INTER.VDW>
-25.898

>  <SCORE.INTER.norm>
-0.672985

>  <SCORE.INTRA>
-2.68138

>  <SCORE.INTRA.DIHEDRAL>
-6.91224

>  <SCORE.INTRA.DIHEDRAL.0>
10.4103

>  <SCORE.INTRA.POLAR>
0

>  <SCORE.INTRA.POLAR.0>
0

>  <SCORE.INTRA.REPUL>
0

>  <SCORE.INTRA.REPUL.0>
0

>  <SCORE.INTRA.SOLV>
0.095545

>  <SCORE.INTRA.SOLV.lig_0>
-49.5008

>  <SCORE.INTRA.VDW>
0.726966

>  <SCORE.INTRA.VDW.0>
-2.6946

>  <SCORE.INTRA.norm>
-0.0993105

>  <SCORE.RESTR>
0

>  <SCORE.RESTR.CAVITY>
0

>  <SCORE.RESTR.norm>
0

>  <SCORE.SYSTEM>
0

>  <SCORE.SYSTEM.CONST>
0

>  <SCORE.SYSTEM.DIHEDRAL>
0

>  <SCORE.SYSTEM.SOLV>
0

>  <SCORE.SYSTEM.norm>
0

>  <SCORE.heavy>
27

>  <SCORE.norm>
-0.772295

>  <RMSD>
14.445

$$$$
ligand
 OpenBabel02271912153D
libRbt.so/2013.1/901 2013/11/27
 27 29  0  0  0  0  0  0  0  0999 V2000
   -1.0819   -9.9478   10.2528 N   0  0  0  0  0  0  0  0  0  0  0  0
    0.0961  -10.5614   10.8358 C   0  0  2  0  0  0  0  0  0  0  0  0
    0.6443   -9.6016   11.8464 C   0  0  0  0  0  0  0  0  0  0  0  0
    0.7635   -8.3957   11.5403 O   0  0  0  0  0  0  0  0  0  0  0  0
    1.1409  -10.8484    9.7540 C   0  0  0  0  0  0  0  0  0  0  0  0
    2.3976  -11.5237   10.3468 C   0  0  0  0  0  0  0  0  0  0  0  0
    2.2458  -13.1586   10.6918 S   0  0  2  0  0  0  0  0  0  0  0  0
    1.0747  -13.3710   11.8503 C   0  0  0  0  0  0  0  0  0  0  0  0
    3.7274  -13.7694   11.2213 C   0  0  0  0  0  0  0  0  0  0  0  0
    3.7079  -15.2797   11.5383 C   0  0  1  0  0  0  0  0  0  0  0  0
    3.3734  -16.0927   10.4011 O   0  0  0  0  0  0  0  0  0  0  0  0
    5.0662  -15.8354   11.9348 C   0  0  1  0  0  0  0  0  0  0  0  0
    5.5484  -15.5264   13.2579 O   0  0  0  0  0  0  0  0  0  0  0  0
    4.8420  -17.3080   11.6955 C   0  0  1  0  0  0  0  0  0  0  0  0
    3.9833  -17.8414   12.6991 O   0  0  0  0  0  0  0  0  0  0  0  0
    4.1169  -17.3135   10.3823 C   0  0  2  0  0  0  0  0  0  0  0  0
    0.9442  -10.0181   12.9909 O   0  0  0  0  0  0  0  0  0  0  0  0
    6.5765  -20.2522    6.6957 N   0  0  0  0  0  0  0  0  0  0  0  0
    5.6997  -20.6419    7.6527 C   0  0  0  0  0  0  0  0  0  0  0  0
    5.1549  -19.7849    8.5325 N   0  0  0  0  0  0  0  0  0  0  0  0
    5.4298  -18.4760    8.5065 C   0  0  0  0  0  0  0  0  0  0  0  0
    6.3480  -17.9919    7.4868 C   0  0  0  0  0  0  0  0  0  0  0  0
    6.9577  -18.9465    6.5323 C   0  0  0  0  0  0  0  0  0  0  0  0
    7.8383  -18.5478    5.5482 N   0  0  0  0  0  0  0  0  0  0  0  0
    6.4330  -16.6938    7.6705 N   0  0  0  0  0  0  0  0  0  0  0  0
    5.6682  -16.3523    8.7167 C   0  0  0  0  0  0  0  0  0  0  0  0
    5.0553  -17.4214    9.2235 N   0  0  0  0  0  0  0  0  0  0  0  0
  2  1  1  6  0  0  0
  2  3  1  0  0  0  0
  2  5  1  0  0  0  0
  3  4  1  0  0  0  0
  3 17  1  0  0  0  0
  5  6  1  0  0  0  0
  7  6  1  1  0  0  0
  7  8  1  0  0  0  0
  7  9  1  0  0  0  0
 10  9  1  6  0  0  0
 10 11  1  0  0  0  0
 10 12  1  0  0  0  0
 11 16  1  0  0  0  0
 12 13  1  1  0  0  0
 12 14  1  0  0  0  0
 14 15  1  1  0  0  0
 14 16  1  0  0  0  0
 16 27  1  6  0  0  0
 18 19  2  0  0  0  0
 18 23  1  0  0  0  0
 19 20  1  0  0  0  0
 20 21  2  0  0  0  0
 21 22  1  0  0  0  0
 21 27  1  0  0  0  0
 22 23  2  0  0  0  0
 22 25  1  0  0  0  0
 23 24  1  0  0  0  0
 25 26  2  0  0  0  0
 26 27  1  0  0  0  0
M  END
>  <CHROM.1>
-46.44534122,-179.08433757,77.46489807,-62.49335353,-178.73007691,60.89134716
-145.28235626,3.70200128,-15.04230632,10.11669980,3.03347687,-1.03266956
1.83303539

>  <Name>
ligand

>  <RI>
0

>  <Rbt.Current_Directory>
/home/itssahil/PROJECTS/Mol_Feturizer/Test_systems_manuscript/rnas/4kqy

>  <Rbt.Executable>
rbdock ($Id: //depot/dev/client3/rdock/2013.1/src/exe/rbdock.cxx#4 $)

>  <Rbt.Library>
libRbt.so (2013.1, Build901 2013/11/27)

>  <Rbt.Parameter_File>
/export/apps/rDock/src/rDock_2013.1_src/data/scripts/dock_solv.prm

>  <Rbt.Receptor>
prm/blind_docking_80.prm

>  <SCORE>
-20.5634

>  <SCORE.INTER>
-17.7456

>  <SCORE.INTER.CONST>
1

>  <SCORE.INTER.POLAR>
0

>  <SCORE.INTER.ROT>
7

>  <SCORE.INTER.SOLV>
16.604

>  <SCORE.INTER.VDW>
-25.6318

>  <SCORE.INTER.norm>
-0.657245

>  <SCORE.INTRA>
-2.81779

>  <SCORE.INTRA.DIHEDRAL>
-6.51834

>  <SCORE.INTRA.DIHEDRAL.0>
10.4103

>  <SCORE.INTRA.POLAR>
0

>  <SCORE.INTRA.POLAR.0>
0

>  <SCORE.INTRA.REPUL>
0

>  <SCORE.INTRA.REPUL.0>
0

>  <SCORE.INTRA.SOLV>
-0.276232

>  <SCORE.INTRA.SOLV.lig_0>
-49.5008

>  <SCORE.INTRA.VDW>
0.579498

>  <SCORE.INTRA.VDW.0>
-2.6946

>  <SCORE.INTRA.norm>
-0.104362

>  <SCORE.RESTR>
0

>  <SCORE.RESTR.CAVITY>
0

>  <SCORE.RESTR.norm>
0

>  <SCORE.SYSTEM>
0

>  <SCORE.SYSTEM.CONST>
0

>  <SCORE.SYSTEM.DIHEDRAL>
0

>  <SCORE.SYSTEM.SOLV>
0

>  <SCORE.SYSTEM.norm>
0

>  <SCORE.heavy>
27

>  <SCORE.norm>
-0.761608

>  <RMSD>
14.452

$$$$
ligand
 OpenBabel02271912153D
libRbt.so/2013.1/901 2013/11/27
 27 29  0  0  0  0  0  0  0  0999 V2000
  -14.6459  -10.6932   31.5587 N   0  0  0  0  0  0  0  0  0  0  0  0
  -14.4264  -12.0429   31.0746 C   0  0  2  0  0  0  0  0  0  0  0  0
  -14.0847  -12.8914   32.2605 C   0  0  0  0  0  0  0  0  0  0  0  0
  -13.4199  -12.3942   33.1949 O   0  0  0  0  0  0  0  0  0  0  0  0
  -13.2828  -12.0670   30.0568 C   0  0  0  0  0  0  0  0  0  0  0  0
  -13.6036  -11.1913   28.8252 C   0  0  0  0  0  0  0  0  0  0  0  0
  -12.7597   -9.7445   28.7266 S   0  0  2  0  0  0  0  0  0  0  0  0
  -13.2978   -8.7107   29.9100 C   0  0  0  0  0  0  0  0  0  0  0  0
  -12.9724   -9.0636   27.1970 C   0  0  0  0  0  0  0  0  0  0  0  0
  -14.4349   -9.0689   26.7041 C   0  0  1  0  0  0  0  0  0  0  0  0
  -14.8024   -7.8659   26.0087 O   0  0  0  0  0  0  0  0  0  0  0  0
  -14.7210  -10.1365   25.6604 C   0  0  1  0  0  0  0  0  0  0  0  0
  -14.8318  -11.4990   26.1187 O   0  0  0  0  0  0  0  0  0  0  0  0
  -15.9893   -9.5928   25.0505 C   0  0  1  0  0  0  0  0  0  0  0  0
  -17.0749   -9.7484   25.9594 O   0  0  0  0  0  0  0  0  0  0  0  0
  -15.6781   -8.1321   24.9105 C   0  0  2  0  0  0  0  0  0  0  0  0
  -14.4978  -14.0747   32.3098 O   0  0  0  0  0  0  0  0  0  0  0  0
  -15.0916   -4.8188   20.7930 N   0  0  0  0  0  0  0  0  0  0  0  0
  -15.8294   -4.6595   21.9185 C   0  0  0  0  0  0  0  0  0  0  0  0
  -15.8929   -5.5913   22.8844 N   0  0  0  0  0  0  0  0  0  0  0  0
  -15.2087   -6.7380   22.8058 C   0  0  0  0  0  0  0  0  0  0  0  0
  -14.3795   -6.9585   21.6306 C   0  0  0  0  0  0  0  0  0  0  0  0
  -14.3295   -5.9336   20.5623 C   0  0  0  0  0  0  0  0  0  0  0  0
  -13.5664   -6.0887   19.4237 N   0  0  0  0  0  0  0  0  0  0  0  0
  -13.8156   -8.1319   21.8068 N   0  0  0  0  0  0  0  0  0  0  0  0
  -14.2415   -8.6484   22.9678 C   0  0  0  0  0  0  0  0  0  0  0  0
  -15.0783   -7.8110   23.5793 N   0  0  0  0  0  0  0  0  0  0  0  0
  2  1  1  1  0  0  0
  2  3  1  0  0  0  0
  2  5  1  0  0  0  0
  3  4  1  0  0  0  0
  3 17  1  0  0  0  0
  5  6  1  0  0  0  0
  7  6  1  6  0  0  0
  7  8  1  0  0  0  0
  7  9  1  0  0  0  0
 10  9  1  6  0  0  0
 10 11  1  0  0  0  0
 10 12  1  0  0  0  0
 11 16  1  0  0  0  0
 12 13  1  1  0  0  0
 12 14  1  0  0  0  0
 14 15  1  1  0  0  0
 14 16  1  0  0  0  0
 16 27  1  6  0  0  0
 18 19  2  0  0  0  0
 18 23  1  0  0  0  0
 19 20  1  0  0  0  0
 20 21  2  0  0  0  0
 21 22  1  0  0  0  0
 21 27  1  0  0  0  0
 22 23  2  0  0  0  0
 22 25  1  0  0  0  0
 23 24  1  0  0  0  0
 25 26  2  0  0  0  0
 26 27  1  0  0  0  0
M  END
>  <CHROM.1>
-34.81612675,-61.15502914,106.84838830,-70.00352487,45.87328764,140.51742245
-98.02043879,-14.43097373,-9.16621695,26.33654884,-1.42097928,-0.94276645
-0.92151353

>  <Name>
ligand

>  <RI>
0

>  <Rbt.Current_Directory>
/home/itssahil/PROJECTS/Mol_Feturizer/Test_systems_manuscript/rnas/4kqy

>  <Rbt.Executable>
rbdock ($Id: //depot/dev/client3/rdock/2013.1/src/exe/rbdock.cxx#4 $)

>  <Rbt.Library>
libRbt.so (2013.1, Build901 2013/11/27)

>  <Rbt.Parameter_File>
/export/apps/rDock/src/rDock_2013.1_src/data/scripts/dock_solv.prm

>  <Rbt.Receptor>
prm/blind_docking_80.prm

>  <SCORE>
-4.61597

>  <SCORE.INTER>
-7.942

>  <SCORE.INTER.CONST>
1

>  <SCORE.INTER.POLAR>
0

>  <SCORE.INTER.ROT>
7

>  <SCORE.INTER.SOLV>
11.871

>  <SCORE.INTER.VDW>
-17.5183

>  <SCORE.INTER.norm>
-0.294148

>  <SCORE.INTRA>
3.32603

>  <SCORE.INTRA.DIHEDRAL>
2.05268

>  <SCORE.INTRA.DIHEDRAL.0>
10.4103

>  <SCORE.INTRA.POLAR>
0

>  <SCORE.INTRA.POLAR.0>
0

>  <SCORE.INTRA.REPUL>
0

>  <SCORE.INTRA.REPUL.0>
0

>  <SCORE.INTRA.SOLV>
2.46762

>  <SCORE.INTRA.SOLV.lig_0>
-49.5008

>  <SCORE.INTRA.VDW>
1.06588

>  <SCORE.INTRA.VDW.0>
-2.6946

>  <SCORE.INTRA.norm>
0.123186

>  <SCORE.RESTR>
0

>  <SCORE.RESTR.CAVITY>
0

>  <SCORE.RESTR.norm>
0

>  <SCORE.SYSTEM>
0

>  <SCORE.SYSTEM.CONST>
0

>  <SCORE.SYSTEM.DIHEDRAL>
0

>  <SCORE.SYSTEM.SOLV>
0

>  <SCORE.SYSTEM.norm>
0

>  <SCORE.heavy>
27

>  <SCORE.norm>
-0.170962

>  <RMSD>
14.462

$$$$
ligand
 OpenBabel02271912153D
libRbt.so/2013.1/901 2013/11/27
 27 29  0  0  0  0  0  0  0  0999 V2000
    1.9014  -12.2317   13.0019 N   0  0  0  0  0  0  0  0  0  0  0  0
    0.9183  -12.2862   11.9367 C   0  0  2  0  0  0  0  0  0  0  0  0
    0.8333  -13.7105   11.4815 C   0  0  0  0  0  0  0  0  0  0  0  0
    1.8841  -14.3214   11.1902 O   0  0  0  0  0  0  0  0  0  0  0  0
    1.3372  -11.3811   10.7750 C   0  0  0  0  0  0  0  0  0  0  0  0
    1.3660   -9.8955   11.1976 C   0  0  0  0  0  0  0  0  0  0  0  0
    1.4112   -8.7861    9.9397 S   0  0  2  0  0  0  0  0  0  0  0  0
    0.1931   -9.1244    8.8625 C   0  0  0  0  0  0  0  0  0  0  0  0
    2.9162   -8.8488    9.1782 C   0  0  0  0  0  0  0  0  0  0  0  0
    3.5264  -10.2645    9.1067 C   0  0  1  0  0  0  0  0  0  0  0  0
    4.1429  -10.5521    7.8406 O   0  0  0  0  0  0  0  0  0  0  0  0
    4.6785  -10.4797   10.0748 C   0  0  1  0  0  0  0  0  0  0  0  0
    4.3506  -10.6514   11.4682 O   0  0  0  0  0  0  0  0  0  0  0  0
    5.3415  -11.6829    9.4511 C   0  0  1  0  0  0  0  0  0  0  0  0
    4.5419  -12.8435    9.6574 O   0  0  0  0  0  0  0  0  0  0  0  0
    5.3284  -11.3366    7.9916 C   0  0  2  0  0  0  0  0  0  0  0  0
   -0.2859  -14.2744   11.4309 O   0  0  0  0  0  0  0  0  0  0  0  0
    9.9235   -8.9638    9.2290 N   0  0  0  0  0  0  0  0  0  0  0  0
    9.0124   -9.5407   10.0499 C   0  0  0  0  0  0  0  0  0  0  0  0
    7.8789  -10.1027    9.5976 N   0  0  0  0  0  0  0  0  0  0  0  0
    7.5842  -10.1477    8.2935 C   0  0  0  0  0  0  0  0  0  0  0  0
    8.5347   -9.5644    7.3588 C   0  0  0  0  0  0  0  0  0  0  0  0
    9.7733   -8.9310    7.8677 C   0  0  0  0  0  0  0  0  0  0  0  0
   10.7082   -8.3575    7.0312 N   0  0  0  0  0  0  0  0  0  0  0  0
    8.0206   -9.7509    6.1643 N   0  0  0  0  0  0  0  0  0  0  0  0
    6.8410  -10.3740    6.2916 C   0  0  0  0  0  0  0  0  0  0  0  0
    6.5729  -10.6218    7.5731 N   0  0  0  0  0  0  0  0  0  0  0  0
  2  1  1  1  0  0  0
  2  3  1  0  0  0  0
  2  5  1  0  0  0  0
  3  4  1  0  0  0  0
  3 17  1  0  0  0  0
  5  6  1  0  0  0  0
  7  6  1  1  0  0  0
  7  8  1  0  0  0  0
  7  9  1  0  0  0  0
 10  9  1  6  0  0  0
 10 11  1  0  0  0  0
 10 12  1  0  0  0  0
 11 16  1  0  0  0  0
 12 13  1  1  0  0  0
 12 14  1  0  0  0  0
 14 15  1  6  0  0  0
 14 16  1  0  0  0  0
 16 27  1  1  0  0  0
 18 19  2  0  0  0  0
 18 23  1  0  0  0  0
 19 20  1  0  0  0  0
 20 21  2  0  0  0  0
 21 22  1  0  0  0  0
 21 27  1  0  0  0  0
 22 23  2  0  0  0  0
 22 25  1  0  0  0  0
 23 24  1  0  0  0  0
 25 26  2  0  0  0  0
 26 27  1  0  0  0  0
M  END
>  <CHROM.1>
-50.92138214,-64.34173976,-164.53879632,51.48397431,35.60959153,138.31306702
109.55304566,4.50998039,-10.66183692,9.47767227,-2.70295595,0.20989051,-0.50433300

>  <Name>
ligand

>  <RI>
0

>  <Rbt.Current_Directory>
/home/itssahil/PROJECTS/Mol_Feturizer/Test_systems_manuscript/rnas/4kqy

>  <Rbt.Executable>
rbdock ($Id: //depot/dev/client3/rdock/2013.1/src/exe/rbdock.cxx#4 $)

>  <Rbt.Library>
libRbt.so (2013.1, Build901 2013/11/27)

>  <Rbt.Parameter_File>
/export/apps/rDock/src/rDock_2013.1_src/data/scripts/dock_solv.prm

>  <Rbt.Receptor>
prm/blind_docking_60.prm

>  <SCORE>
-8.18486

>  <SCORE.INTER>
-9.33449

>  <SCORE.INTER.CONST>
1

>  <SCORE.INTER.POLAR>
0

>  <SCORE.INTER.ROT>
7

>  <SCORE.INTER.SOLV>
9.03116

>  <SCORE.INTER.VDW>
-17.5

>  <SCORE.INTER.norm>
-0.345722

>  <SCORE.INTRA>
1.14963

>  <SCORE.INTRA.DIHEDRAL>
-0.641765

>  <SCORE.INTRA.DIHEDRAL.0>
10.4103

>  <SCORE.INTRA.POLAR>
0

>  <SCORE.INTRA.POLAR.0>
0

>  <SCORE.INTRA.REPUL>
0

>  <SCORE.INTRA.REPUL.0>
0

>  <SCORE.INTRA.SOLV>
1.75011

>  <SCORE.INTRA.SOLV.lig_0>
-49.5008

>  <SCORE.INTRA.VDW>
0.595457

>  <SCORE.INTRA.VDW.0>
-2.6946

>  <SCORE.INTRA.norm>
0.0425788

>  <SCORE.RESTR>
0

>  <SCORE.RESTR.CAVITY>
0

>  <SCORE.RESTR.norm>
0

>  <SCORE.SYSTEM>
0

>  <SCORE.SYSTEM.CONST>
0

>  <SCORE.SYSTEM.DIHEDRAL>
0

>  <SCORE.SYSTEM.SOLV>
0

>  <SCORE.SYSTEM.norm>
0

>  <SCORE.heavy>
27

>  <SCORE.norm>
-0.303143

>  <RMSD>
14.490

$$$$
ligand
 OpenBabel02271912153D
libRbt.so/2013.1/901 2013/11/27
 27 29  0  0  0  0  0  0  0  0999 V2000
    1.4726  -14.4782   11.6749 N   0  0  0  0  0  0  0  0  0  0  0  0
    2.3928  -14.0556   10.6362 C   0  0  2  0  0  0  0  0  0  0  0  0
    3.6776  -14.7945   10.8518 C   0  0  0  0  0  0  0  0  0  0  0  0
    4.0915  -14.9708   12.0180 O   0  0  0  0  0  0  0  0  0  0  0  0
    2.6293  -12.5448   10.7130 C   0  0  0  0  0  0  0  0  0  0  0  0
    1.4615  -11.7568   10.0791 C   0  0  0  0  0  0  0  0  0  0  0  0
    1.6897  -10.0991    9.9560 S   0  0  2  0  0  0  0  0  0  0  0  0
    0.2615   -9.3778    9.5103 C   0  0  0  0  0  0  0  0  0  0  0  0
    2.9013   -9.7728    8.8272 C   0  0  0  0  0  0  0  0  0  0  0  0
    4.1167  -10.7195    8.9176 C   0  0  1  0  0  0  0  0  0  0  0  0
    5.0055  -10.6087    7.7935 O   0  0  0  0  0  0  0  0  0  0  0  0
    5.0423  -10.4111   10.0833 C   0  0  1  0  0  0  0  0  0  0  0  0
    4.5996  -10.7940   11.4009 O   0  0  0  0  0  0  0  0  0  0  0  0
    6.2976  -11.1163    9.6325 C   0  0  1  0  0  0  0  0  0  0  0  0
    6.1295  -12.5271    9.7344 O   0  0  0  0  0  0  0  0  0  0  0  0
    6.3749  -10.7394    8.1826 C   0  0  2  0  0  0  0  0  0  0  0  0
    4.2987  -15.2502    9.8621 O   0  0  0  0  0  0  0  0  0  0  0  0
    7.5109   -5.7046    9.4615 N   0  0  0  0  0  0  0  0  0  0  0  0
    6.5887   -6.5360   10.0045 C   0  0  0  0  0  0  0  0  0  0  0  0
    6.4014   -7.7949    9.5739 N   0  0  0  0  0  0  0  0  0  0  0  0
    7.1347   -8.3201    8.5861 C   0  0  0  0  0  0  0  0  0  0  0  0
    8.1577   -7.4835    7.9770 C   0  0  0  0  0  0  0  0  0  0  0  0
    8.3451   -6.0910    8.4459 C   0  0  0  0  0  0  0  0  0  0  0  0
    9.2943   -5.2495    7.9039 N   0  0  0  0  0  0  0  0  0  0  0  0
    8.7307   -8.2308    7.0609 N   0  0  0  0  0  0  0  0  0  0  0  0
    8.1370   -9.4321    7.0466 C   0  0  0  0  0  0  0  0  0  0  0  0
    7.1763   -9.4958    7.9678 N   0  0  0  0  0  0  0  0  0  0  0  0
  2  1  1  1  0  0  0
  2  3  1  0  0  0  0
  2  5  1  0  0  0  0
  3  4  1  0  0  0  0
  3 17  1  0  0  0  0
  5  6  1  0  0  0  0
  7  6  1  6  0  0  0
  7  8  1  0  0  0  0
  7  9  1  0  0  0  0
 10  9  1  6  0  0  0
 10 11  1  0  0  0  0
 10 12  1  0  0  0  0
 11 16  1  0  0  0  0
 12 13  1  1  0  0  0
 12 14  1  0  0  0  0
 14 15  1  6  0  0  0
 14 16  1  0  0  0  0
 16 27  1  1  0  0  0
 18 19  2  0  0  0  0
 18 23  1  0  0  0  0
 19 20  1  0  0  0  0
 20 21  2  0  0  0  0
 21 22  1  0  0  0  0
 21 27  1  0  0  0  0
 22 23  2  0  0  0  0
 22 25  1  0  0  0  0
 23 24  1  0  0  0  0
 25 26  2  0  0  0  0
 26 27  1  0  0  0  0
M  END
>  <CHROM.1>
-39.37670020,-79.08907366,-173.58166271,-170.14230957,-41.78533230,168.11199410
69.44655011,4.94647196,-10.39489521,9.46585786,-2.27197431,0.23019479,-0.17963312

>  <Name>
ligand

>  <RI>
0

>  <Rbt.Current_Directory>
/home/itssahil/PROJECTS/Mol_Feturizer/Test_systems_manuscript/rnas/4kqy

>  <Rbt.Executable>
rbdock ($Id: //depot/dev/client3/rdock/2013.1/src/exe/rbdock.cxx#4 $)

>  <Rbt.Library>
libRbt.so (2013.1, Build901 2013/11/27)

>  <Rbt.Parameter_File>
/export/apps/rDock/src/rDock_2013.1_src/data/scripts/dock_solv.prm

>  <Rbt.Receptor>
prm/blind_docking_40.prm

>  <SCORE>
-11.5853

>  <SCORE.INTER>
-10.2235

>  <SCORE.INTER.CONST>
1

>  <SCORE.INTER.POLAR>
0

>  <SCORE.INTER.ROT>
7

>  <SCORE.INTER.SOLV>
9.57629

>  <SCORE.INTER.VDW>
-18.2744

>  <SCORE.INTER.norm>
-0.378647

>  <SCORE.INTRA>
-1.39429

>  <SCORE.INTRA.DIHEDRAL>
-4.45278

>  <SCORE.INTRA.DIHEDRAL.0>
10.4103

>  <SCORE.INTRA.POLAR>
0

>  <SCORE.INTRA.POLAR.0>
0

>  <SCORE.INTRA.REPUL>
0

>  <SCORE.INTRA.REPUL.0>
0

>  <SCORE.INTRA.SOLV>
0.871592

>  <SCORE.INTRA.SOLV.lig_0>
-49.5008

>  <SCORE.INTRA.VDW>
0.396303

>  <SCORE.INTRA.VDW.0>
-2.6946

>  <SCORE.INTRA.norm>
-0.0516405

>  <SCORE.RESTR>
0.0325166

>  <SCORE.RESTR.CAVITY>
0.0325166

>  <SCORE.RESTR.norm>
0.00120432

>  <SCORE.SYSTEM>
0

>  <SCORE.SYSTEM.CONST>
0

>  <SCORE.SYSTEM.DIHEDRAL>
0

>  <SCORE.SYSTEM.SOLV>
0

>  <SCORE.SYSTEM.norm>
0

>  <SCORE.heavy>
27

>  <SCORE.norm>
-0.429084

>  <RMSD>
14.498

$$$$
ligand
 OpenBabel02271912153D
libRbt.so/2013.1/901 2013/11/27
 27 29  0  0  0  0  0  0  0  0999 V2000
   -0.0881  -10.9686   12.9890 N   0  0  0  0  0  0  0  0  0  0  0  0
    1.1401  -10.6145   12.3032 C   0  0  2  0  0  0  0  0  0  0  0  0
    0.7826   -9.6383   11.2251 C   0  0  0  0  0  0  0  0  0  0  0  0
   -0.0284   -9.9797   10.3375 O   0  0  0  0  0  0  0  0  0  0  0  0
    1.7928  -11.8599   11.6972 C   0  0  0  0  0  0  0  0  0  0  0  0
    3.1706  -11.5325   11.0800 C   0  0  0  0  0  0  0  0  0  0  0  0
    3.9350  -12.8061   10.2997 S   0  0  2  0  0  0  0  0  0  0  0  0
    4.5038  -13.8828   11.4293 C   0  0  0  0  0  0  0  0  0  0  0  0
    5.1979  -12.2160    9.3481 C   0  0  0  0  0  0  0  0  0  0  0  0
    4.7735  -11.1179    8.3502 C   0  0  1  0  0  0  0  0  0  0  0  0
    4.5548   -9.8410    8.9728 O   0  0  0  0  0  0  0  0  0  0  0  0
    5.8407  -10.7877    7.3193 C   0  0  1  0  0  0  0  0  0  0  0  0
    6.0442  -11.7327    6.2495 O   0  0  0  0  0  0  0  0  0  0  0  0
    5.3654   -9.4332    6.8548 C   0  0  1  0  0  0  0  0  0  0  0  0
    4.1946   -9.5733    6.0557 O   0  0  0  0  0  0  0  0  0  0  0  0
    4.9961   -8.7625    8.1447 C   0  0  2  0  0  0  0  0  0  0  0  0
    1.2780   -8.4862   11.2495 O   0  0  0  0  0  0  0  0  0  0  0  0
   10.1475   -7.4437    8.1322 N   0  0  0  0  0  0  0  0  0  0  0  0
    9.4793   -8.2836    7.3048 C   0  0  0  0  0  0  0  0  0  0  0  0
    8.1648   -8.5330    7.4283 N   0  0  0  0  0  0  0  0  0  0  0  0
    7.4201   -7.9464    8.3720 C   0  0  0  0  0  0  0  0  0  0  0  0
    8.0761   -7.0158    9.2782 C   0  0  0  0  0  0  0  0  0  0  0  0
    9.5292   -6.7605    9.1460 C   0  0  0  0  0  0  0  0  0  0  0  0
   10.2066   -5.8938    9.9783 N   0  0  0  0  0  0  0  0  0  0  0  0
    7.1347   -6.5786   10.0835 N   0  0  0  0  0  0  0  0  0  0  0  0
    5.9772   -7.1721    9.7612 C   0  0  0  0  0  0  0  0  0  0  0  0
    6.1400   -7.9950    8.7259 N   0  0  0  0  0  0  0  0  0  0  0  0
  2  1  1  6  0  0  0
  2  3  1  0  0  0  0
  2  5  1  0  0  0  0
  3  4  1  0  0  0  0
  3 17  1  0  0  0  0
  5  6  1  0  0  0  0
  7  6  1  1  0  0  0
  7  8  1  0  0  0  0
  7  9  1  0  0  0  0
 10  9  1  1  0  0  0
 10 11  1  0  0  0  0
 10 12  1  0  0  0  0
 11 16  1  0  0  0  0
 12 13  1  6  0  0  0
 12 14  1  0  0  0  0
 14 15  1  6  0  0  0
 14 16  1  0  0  0  0
 16 27  1  1  0  0  0
 18 19  2  0  0  0  0
 18 23  1  0  0  0  0
 19 20  1  0  0  0  0
 20 21  2  0  0  0  0
 21 22  1  0  0  0  0
 21 27  1  0  0  0  0
 22 23  2  0  0  0  0
 22 25  1  0  0  0  0
 23 24  1  0  0  0  0
 25 26  2  0  0  0  0
 26 27  1  0  0  0  0
M  END
>  <CHROM.1>
-59.31011002,-174.46130783,-176.28086226,-73.14923127,-54.24027198,75.65591552
108.39429162,5.02284723,-9.73226997,9.38252609,2.90981618,-0.55705458,-2.66050312

>  <Name>
ligand

>  <RI>
0

>  <Rbt.Current_Directory>
/home/itssahil/PROJECTS/Mol_Feturizer/Test_systems_manuscript/rnas/4kqy

>  <Rbt.Executable>
rbdock ($Id: //depot/dev/client3/rdock/2013.1/src/exe/rbdock.cxx#4 $)

>  <Rbt.Library>
libRbt.so (2013.1, Build901 2013/11/27)

>  <Rbt.Parameter_File>
/export/apps/rDock/src/rDock_2013.1_src/data/scripts/dock_solv.prm

>  <Rbt.Receptor>
prm/blind_docking_80.prm

>  <SCORE>
-12.5133

>  <SCORE.INTER>
-9.47306

>  <SCORE.INTER.CONST>
1

>  <SCORE.INTER.POLAR>
0

>  <SCORE.INTER.ROT>
7

>  <SCORE.INTER.SOLV>
10.4063

>  <SCORE.INTER.VDW>
-18.0508

>  <SCORE.INTER.norm>
-0.350854

>  <SCORE.INTRA>
-3.04645

>  <SCORE.INTRA.DIHEDRAL>
-5.96481

>  <SCORE.INTRA.DIHEDRAL.0>
10.4103

>  <SCORE.INTRA.POLAR>
0

>  <SCORE.INTRA.POLAR.0>
0

>  <SCORE.INTRA.REPUL>
0

>  <SCORE.INTRA.REPUL.0>
0

>  <SCORE.INTRA.SOLV>
-0.610566

>  <SCORE.INTRA.SOLV.lig_0>
-49.5008

>  <SCORE.INTRA.VDW>
0.241236

>  <SCORE.INTRA.VDW.0>
-2.6946

>  <SCORE.INTRA.norm>
-0.112832

>  <SCORE.RESTR>
0.00621882

>  <SCORE.RESTR.CAVITY>
0.00621882

>  <SCORE.RESTR.norm>
0.000230327

>  <SCORE.SYSTEM>
0

>  <SCORE.SYSTEM.CONST>
0

>  <SCORE.SYSTEM.DIHEDRAL>
0

>  <SCORE.SYSTEM.SOLV>
0

>  <SCORE.SYSTEM.norm>
0

>  <SCORE.heavy>
27

>  <SCORE.norm>
-0.463455

>  <RMSD>
14.534

$$$$
ligand
 OpenBabel02271912153D
libRbt.so/2013.1/901 2013/11/27
 27 29  0  0  0  0  0  0  0  0999 V2000
    4.9536  -20.6187    5.1141 N   0  0  0  0  0  0  0  0  0  0  0  0
    3.9688  -19.7482    5.7278 C   0  0  2  0  0  0  0  0  0  0  0  0
    2.6257  -20.1593    5.2082 C   0  0  0  0  0  0  0  0  0  0  0  0
    2.4874  -20.3859    3.9868 O   0  0  0  0  0  0  0  0  0  0  0  0
    4.2514  -18.2860    5.3721 C   0  0  0  0  0  0  0  0  0  0  0  0
    5.7163  -17.9026    5.6782 C   0  0  0  0  0  0  0  0  0  0  0  0
    6.1758  -18.0273    7.2871 S   0  0  2  0  0  0  0  0  0  0  0  0
    6.7406  -19.5612    7.5817 C   0  0  0  0  0  0  0  0  0  0  0  0
    4.8612  -17.6732    8.2845 C   0  0  0  0  0  0  0  0  0  0  0  0
    5.2550  -17.1588    9.6852 C   0  0  1  0  0  0  0  0  0  0  0  0
    5.3830  -15.7285    9.7477 O   0  0  0  0  0  0  0  0  0  0  0  0
    4.2038  -17.4283   10.7497 C   0  0  1  0  0  0  0  0  0  0  0  0
    4.0864  -18.7796   11.2386 O   0  0  0  0  0  0  0  0  0  0  0  0
    4.6175  -16.4317   11.8041 C   0  0  1  0  0  0  0  0  0  0  0  0
    5.8186  -16.8608   12.4382 O   0  0  0  0  0  0  0  0  0  0  0  0
    4.9086  -15.2054   10.9907 C   0  0  2  0  0  0  0  0  0  0  0  0
    1.6721  -20.2995    6.0109 O   0  0  0  0  0  0  0  0  0  0  0  0
    2.7199  -10.5749    9.5607 N   0  0  0  0  0  0  0  0  0  0  0  0
    4.0169  -10.9623    9.4956 C   0  0  0  0  0  0  0  0  0  0  0  0
    4.4359  -12.1722    9.9029 N   0  0  0  0  0  0  0  0  0  0  0  0
    3.5882  -13.0884   10.3838 C   0  0  0  0  0  0  0  0  0  0  0  0
    2.1773  -12.7400   10.4580 C   0  0  0  0  0  0  0  0  0  0  0  0
    1.7269  -11.3974   10.0235 C   0  0  0  0  0  0  0  0  0  0  0  0
    0.4045  -11.0084   10.0752 N   0  0  0  0  0  0  0  0  0  0  0  0
    1.5730  -13.8006   10.9437 N   0  0  0  0  0  0  0  0  0  0  0  0
    2.4885  -14.7484   11.1878 C   0  0  0  0  0  0  0  0  0  0  0  0
    3.7064  -14.3283   10.8476 N   0  0  0  0  0  0  0  0  0  0  0  0
  2  1  1  6  0  0  0
  2  3  1  0  0  0  0
  2  5  1  0  0  0  0
  3  4  1  0  0  0  0
  3 17  1  0  0  0  0
  5  6  1  0  0  0  0
  7  6  1  6  0  0  0
  7  8  1  0  0  0  0
  7  9  1  0  0  0  0
 10  9  1  6  0  0  0
 10 11  1  0  0  0  0
 10 12  1  0  0  0  0
 11 16  1  0  0  0  0
 12 13  1  1  0  0  0
 12 14  1  0  0  0  0
 14 15  1  6  0  0  0
 14 16  1  0  0  0  0
 16 27  1  6  0  0  0
 18 19  2  0  0  0  0
 18 23  1  0  0  0  0
 19 20  1  0  0  0  0
 20 21  2  0  0  0  0
 21 22  1  0  0  0  0
 21 27  1  0  0  0  0
 22 23  2  0  0  0  0
 22 25  1  0  0  0  0
 23 24  1  0  0  0  0
 25 26  2  0  0  0  0
 26 27  1  0  0  0  0
M  END
>  <CHROM.1>
-44.71705916,-51.82188971,-61.47654749,89.01040205,-154.81092639,90.31329781
-73.94574370,4.01209119,-16.32619247,8.76911189,1.31566765,0.85683840,-2.37498287

>  <Name>
ligand

>  <RI>
0

>  <Rbt.Current_Directory>
/home/itssahil/PROJECTS/Mol_Feturizer/Test_systems_manuscript/rnas/4kqy

>  <Rbt.Executable>
rbdock ($Id: //depot/dev/client3/rdock/2013.1/src/exe/rbdock.cxx#4 $)

>  <Rbt.Library>
libRbt.so (2013.1, Build901 2013/11/27)

>  <Rbt.Parameter_File>
/export/apps/rDock/src/rDock_2013.1_src/data/scripts/dock_solv.prm

>  <Rbt.Receptor>
prm/blind_docking_60.prm

>  <SCORE>
-17.4181

>  <SCORE.INTER>
-19.8899

>  <SCORE.INTER.CONST>
1

>  <SCORE.INTER.POLAR>
0

>  <SCORE.INTER.ROT>
7

>  <SCORE.INTER.SOLV>
17.9866

>  <SCORE.INTER.VDW>
-27.5221

>  <SCORE.INTER.norm>
-0.736662

>  <SCORE.INTRA>
2.47177

>  <SCORE.INTRA.DIHEDRAL>
-0.832949

>  <SCORE.INTRA.DIHEDRAL.0>
10.4103

>  <SCORE.INTRA.POLAR>
0

>  <SCORE.INTRA.POLAR.0>
0

>  <SCORE.INTRA.REPUL>
0

>  <SCORE.INTRA.REPUL.0>
0

>  <SCORE.INTRA.SOLV>
2.15372

>  <SCORE.INTRA.SOLV.lig_0>
-49.5008

>  <SCORE.INTRA.VDW>
1.81138

>  <SCORE.INTRA.VDW.0>
-2.6946

>  <SCORE.INTRA.norm>
0.091547

>  <SCORE.RESTR>
0

>  <SCORE.RESTR.CAVITY>
0

>  <SCORE.RESTR.norm>
0

>  <SCORE.SYSTEM>
0

>  <SCORE.SYSTEM.CONST>
0

>  <SCORE.SYSTEM.DIHEDRAL>
0

>  <SCORE.SYSTEM.SOLV>
0

>  <SCORE.SYSTEM.norm>
0

>  <SCORE.heavy>
27

>  <SCORE.norm>
-0.645116

>  <RMSD>
14.565

$$$$
ligand
 OpenBabel02271912153D
libRbt.so/2013.1/901 2013/11/27
 27 29  0  0  0  0  0  0  0  0999 V2000
    2.8229  -22.5833    6.0561 N   0  0  0  0  0  0  0  0  0  0  0  0
    3.2075  -21.2672    6.5296 C   0  0  2  0  0  0  0  0  0  0  0  0
    3.7166  -20.5001    5.3482 C   0  0  0  0  0  0  0  0  0  0  0  0
    4.7221  -20.9198    4.7358 O   0  0  0  0  0  0  0  0  0  0  0  0
    4.2971  -21.3806    7.5992 C   0  0  0  0  0  0  0  0  0  0  0  0
    4.5963  -20.0113    8.2488 C   0  0  0  0  0  0  0  0  0  0  0  0
    5.3766  -18.8986    7.2648 S   0  0  2  0  0  0  0  0  0  0  0  0
    7.0195  -19.1062    7.3932 C   0  0  0  0  0  0  0  0  0  0  0  0
    4.9356  -17.3326    7.7139 C   0  0  0  0  0  0  0  0  0  0  0  0
    5.3776  -16.9391    9.1392 C   0  0  1  0  0  0  0  0  0  0  0  0
    5.5448  -15.5217    9.3091 O   0  0  0  0  0  0  0  0  0  0  0  0
    4.3464  -17.2653   10.2074 C   0  0  1  0  0  0  0  0  0  0  0  0
    4.2055  -18.6474   10.5930 O   0  0  0  0  0  0  0  0  0  0  0  0
    4.8123  -16.3646   11.3245 C   0  0  1  0  0  0  0  0  0  0  0  0
    6.0171  -16.8713   11.8910 O   0  0  0  0  0  0  0  0  0  0  0  0
    5.1155  -15.0860   10.6011 C   0  0  2  0  0  0  0  0  0  0  0  0
    3.1075  -19.4690    4.9754 O   0  0  0  0  0  0  0  0  0  0  0  0
   -0.0192  -14.1330   11.6028 N   0  0  0  0  0  0  0  0  0  0  0  0
    0.7060  -15.2506   11.8513 C   0  0  0  0  0  0  0  0  0  0  0  0
    2.0076  -15.3582   11.5357 N   0  0  0  0  0  0  0  0  0  0  0  0
    2.6827  -14.3516   10.9698 C   0  0  0  0  0  0  0  0  0  0  0  0
    1.9642  -13.1157   10.6981 C   0  0  0  0  0  0  0  0  0  0  0  0
    0.5250  -13.0123   11.0329 C   0  0  0  0  0  0  0  0  0  0  0  0
   -0.2096  -11.8694   10.7943 N   0  0  0  0  0  0  0  0  0  0  0  0
    2.8454  -12.3008   10.1638 N   0  0  0  0  0  0  0  0  0  0  0  0
    4.0222  -12.9350   10.0696 C   0  0  0  0  0  0  0  0  0  0  0  0
    3.9337  -14.1712   10.5588 N   0  0  0  0  0  0  0  0  0  0  0  0
  2  1  1  6  0  0  0
  2  3  1  0  0  0  0
  2  5  1  0  0  0  0
  3  4  1  0  0  0  0
  3 17  1  0  0  0  0
  5  6  1  0  0  0  0
  7  6  1  1  0  0  0
  7  8  1  0  0  0  0
  7  9  1  0  0  0  0
 10  9  1  6  0  0  0
 10 11  1  0  0  0  0
 10 12  1  0  0  0  0
 11 16  1  0  0  0  0
 12 13  1  1  0  0  0
 12 14  1  0  0  0  0
 14 15  1  6  0  0  0
 14 16  1  0  0  0  0
 16 27  1  6  0  0  0
 18 19  2  0  0  0  0
 18 23  1  0  0  0  0
 19 20  1  0  0  0  0
 20 21  2  0  0  0  0
 21 22  1  0  0  0  0
 21 27  1  0  0  0  0
 22 23  2  0  0  0  0
 22 25  1  0  0  0  0
 23 24  1  0  0  0  0
 25 26  2  0  0  0  0
 26 27  1  0  0  0  0
M  END
>  <CHROM.1>
-61.60111371,-172.71149662,-70.10855157,-87.99707603,63.98339691,154.17193500
112.05251125,3.76558749,-17.03168549,9.04672518,1.28744874,0.22597789,-2.48343985

>  <Name>
ligand

>  <RI>
0

>  <Rbt.Current_Directory>
/home/itssahil/PROJECTS/Mol_Feturizer/Test_systems_manuscript/rnas/4kqy

>  <Rbt.Executable>
rbdock ($Id: //depot/dev/client3/rdock/2013.1/src/exe/rbdock.cxx#4 $)

>  <Rbt.Library>
libRbt.so (2013.1, Build901 2013/11/27)

>  <Rbt.Parameter_File>
/export/apps/rDock/src/rDock_2013.1_src/data/scripts/dock_solv.prm

>  <Rbt.Receptor>
prm/blind_docking_40.prm

>  <SCORE>
-20.9811

>  <SCORE.INTER>
-19.9029

>  <SCORE.INTER.CONST>
1

>  <SCORE.INTER.POLAR>
0

>  <SCORE.INTER.ROT>
7

>  <SCORE.INTER.SOLV>
17.0042

>  <SCORE.INTER.VDW>
-27.2033

>  <SCORE.INTER.norm>
-0.737143

>  <SCORE.INTRA>
-1.07823

>  <SCORE.INTRA.DIHEDRAL>
-2.81611

>  <SCORE.INTRA.DIHEDRAL.0>
10.4103

>  <SCORE.INTRA.POLAR>
0

>  <SCORE.INTRA.POLAR.0>
0

>  <SCORE.INTRA.REPUL>
0

>  <SCORE.INTRA.REPUL.0>
0

>  <SCORE.INTRA.SOLV>
-0.0567468

>  <SCORE.INTRA.SOLV.lig_0>
-49.5008

>  <SCORE.INTRA.VDW>
0.358204

>  <SCORE.INTRA.VDW.0>
-2.6946

>  <SCORE.INTRA.norm>
-0.0399343

>  <SCORE.RESTR>
0

>  <SCORE.RESTR.CAVITY>
0

>  <SCORE.RESTR.norm>
0

>  <SCORE.SYSTEM>
0

>  <SCORE.SYSTEM.CONST>
0

>  <SCORE.SYSTEM.DIHEDRAL>
0

>  <SCORE.SYSTEM.SOLV>
0

>  <SCORE.SYSTEM.norm>
0

>  <SCORE.heavy>
27

>  <SCORE.norm>
-0.777078

>  <RMSD>
14.575

$$$$
ligand
 OpenBabel02271912153D
libRbt.so/2013.1/901 2013/11/27
 27 29  0  0  0  0  0  0  0  0999 V2000
    1.0545   -8.3423   10.2724 N   0  0  0  0  0  0  0  0  0  0  0  0
    0.9237   -9.3659    9.2530 C   0  0  2  0  0  0  0  0  0  0  0  0
   -0.4951   -9.3389    8.7742 C   0  0  0  0  0  0  0  0  0  0  0  0
   -1.4195   -9.5230    9.5951 O   0  0  0  0  0  0  0  0  0  0  0  0
    1.2636  -10.7426    9.8303 C   0  0  0  0  0  0  0  0  0  0  0  0
    2.7314  -10.8089   10.3075 C   0  0  0  0  0  0  0  0  0  0  0  0
    3.1333  -12.1535   11.2272 S   0  0  2  0  0  0  0  0  0  0  0  0
    4.5065  -11.8309   12.1041 C   0  0  0  0  0  0  0  0  0  0  0  0
    3.3686  -13.4852   10.2175 C   0  0  0  0  0  0  0  0  0  0  0  0
    3.4794  -14.8303   10.9660 C   0  0  1  0  0  0  0  0  0  0  0  0
    3.1655  -15.9647   10.1413 O   0  0  0  0  0  0  0  0  0  0  0  0
    4.8913  -15.1557   11.4260 C   0  0  1  0  0  0  0  0  0  0  0  0
    5.3991  -14.4364   12.5678 O   0  0  0  0  0  0  0  0  0  0  0  0
    4.7736  -16.6437   11.6452 C   0  0  1  0  0  0  0  0  0  0  0  0
    3.9989  -16.9065   12.8113 O   0  0  0  0  0  0  0  0  0  0  0  0
    4.0007  -17.0863   10.4382 C   0  0  2  0  0  0  0  0  0  0  0  0
   -0.7321   -9.1012    7.5657 O   0  0  0  0  0  0  0  0  0  0  0  0
    5.9119  -20.7818    7.1266 N   0  0  0  0  0  0  0  0  0  0  0  0
    4.9907  -20.9128    8.1119 C   0  0  0  0  0  0  0  0  0  0  0  0
    4.6019  -19.8852    8.8853 N   0  0  0  0  0  0  0  0  0  0  0  0
    5.0885  -18.6506    8.7168 C   0  0  0  0  0  0  0  0  0  0  0  0
    6.0655  -18.4409    7.6591 C   0  0  0  0  0  0  0  0  0  0  0  0
    6.5017  -19.5831    6.8229 C   0  0  0  0  0  0  0  0  0  0  0  0
    7.4278  -19.4469    5.8097 N   0  0  0  0  0  0  0  0  0  0  0  0
    6.3648  -17.1623    7.6983 N   0  0  0  0  0  0  0  0  0  0  0  0
    5.6754  -16.5852    8.6921 C   0  0  0  0  0  0  0  0  0  0  0  0
    4.8989  -17.4756    9.3082 N   0  0  0  0  0  0  0  0  0  0  0  0
  2  1  1  1  0  0  0
  2  3  1  0  0  0  0
  2  5  1  0  0  0  0
  3  4  1  0  0  0  0
  3 17  1  0  0  0  0
  5  6  1  0  0  0  0
  7  6  1  6  0  0  0
  7  8  1  0  0  0  0
  7  9  1  0  0  0  0
 10  9  1  6  0  0  0
 10 11  1  0  0  0  0
 10 12  1  0  0  0  0
 11 16  1  0  0  0  0
 12 13  1  1  0  0  0
 12 14  1  0  0  0  0
 14 15  1  1  0  0  0
 14 16  1  0  0  0  0
 16 27  1  6  0  0  0
 18 19  2  0  0  0  0
 18 23  1  0  0  0  0
 19 20  1  0  0  0  0
 20 21  2  0  0  0  0
 21 22  1  0  0  0  0
 21 27  1  0  0  0  0
 22 23  2  0  0  0  0
 22 25  1  0  0  0  0
 23 24  1  0  0  0  0
 25 26  2  0  0  0  0
 26 27  1  0  0  0  0
M  END
>  <CHROM.1>
-58.44628187,-62.66751776,168.43488298,-159.49545825,-169.03482152,157.44164787
-127.65447892,3.66669702,-14.73607704,9.69244508,2.56213477,-0.98048852,1.07179484

>  <Name>
ligand

>  <RI>
0

>  <Rbt.Current_Directory>
/home/itssahil/PROJECTS/Mol_Feturizer/Test_systems_manuscript/rnas/4kqy

>  <Rbt.Executable>
rbdock ($Id: //depot/dev/client3/rdock/2013.1/src/exe/rbdock.cxx#4 $)

>  <Rbt.Library>
libRbt.so (2013.1, Build901 2013/11/27)

>  <Rbt.Parameter_File>
/export/apps/rDock/src/rDock_2013.1_src/data/scripts/dock_solv.prm

>  <Rbt.Receptor>
prm/blind_docking_80.prm

>  <SCORE>
-14.3119

>  <SCORE.INTER>
-13.6553

>  <SCORE.INTER.CONST>
1

>  <SCORE.INTER.POLAR>
0

>  <SCORE.INTER.ROT>
7

>  <SCORE.INTER.SOLV>
16.5487

>  <SCORE.INTER.VDW>
-22.8865

>  <SCORE.INTER.norm>
-0.505754

>  <SCORE.INTRA>
-0.680866

>  <SCORE.INTRA.DIHEDRAL>
-4.07532

>  <SCORE.INTRA.DIHEDRAL.0>
10.4103

>  <SCORE.INTRA.POLAR>
0

>  <SCORE.INTRA.POLAR.0>
0

>  <SCORE.INTRA.REPUL>
0

>  <SCORE.INTRA.REPUL.0>
0

>  <SCORE.INTRA.SOLV>
0.418829

>  <SCORE.INTRA.SOLV.lig_0>
-49.5008

>  <SCORE.INTRA.VDW>
1.14738

>  <SCORE.INTRA.VDW.0>
-2.6946

>  <SCORE.INTRA.norm>
-0.0252173

>  <SCORE.RESTR>
0.0243148

>  <SCORE.RESTR.CAVITY>
0.0243148

>  <SCORE.RESTR.norm>
0.000900547

>  <SCORE.SYSTEM>
0

>  <SCORE.SYSTEM.CONST>
0

>  <SCORE.SYSTEM.DIHEDRAL>
0

>  <SCORE.SYSTEM.SOLV>
0

>  <SCORE.SYSTEM.norm>
0

>  <SCORE.heavy>
27

>  <SCORE.norm>
-0.53007

>  <RMSD>
14.585

$$$$
ligand
 OpenBabel02271912153D
libRbt.so/2013.1/901 2013/11/27
 27 29  0  0  0  0  0  0  0  0999 V2000
    0.1323  -13.6208   13.5722 N   0  0  0  0  0  0  0  0  0  0  0  0
   -0.1193  -12.7615   12.4309 C   0  0  2  0  0  0  0  0  0  0  0  0
   -1.2871  -13.3360   11.6898 C   0  0  0  0  0  0  0  0  0  0  0  0
   -2.2001  -12.5740   11.3052 O   0  0  0  0  0  0  0  0  0  0  0  0
    1.1114  -12.7051   11.5218 C   0  0  0  0  0  0  0  0  0  0  0  0
    2.3888  -12.3629   12.3202 C   0  0  0  0  0  0  0  0  0  0  0  0
    3.8070  -12.3027   11.4255 S   0  0  2  0  0  0  0  0  0  0  0  0
    3.8922  -10.8500   10.6248 C   0  0  0  0  0  0  0  0  0  0  0  0
    3.8474  -13.5894   10.3341 C   0  0  0  0  0  0  0  0  0  0  0  0
    3.7635  -14.9801   10.9980 C   0  0  1  0  0  0  0  0  0  0  0  0
    3.3730  -16.0202   10.0860 O   0  0  0  0  0  0  0  0  0  0  0  0
    5.1011  -15.4926   11.5069 C   0  0  1  0  0  0  0  0  0  0  0  0
    5.6191  -14.9053   12.7175 O   0  0  0  0  0  0  0  0  0  0  0  0
    4.8053  -16.9675   11.6223 C   0  0  1  0  0  0  0  0  0  0  0  0
    3.9398  -17.2077   12.7279 O   0  0  0  0  0  0  0  0  0  0  0  0
    4.0590  -17.2461   10.3512 C   0  0  2  0  0  0  0  0  0  0  0  0
   -1.3134  -14.5650   11.4407 O   0  0  0  0  0  0  0  0  0  0  0  0
    5.8398  -20.9822    7.0127 N   0  0  0  0  0  0  0  0  0  0  0  0
    4.8738  -21.0731    7.9588 C   0  0  0  0  0  0  0  0  0  0  0  0
    4.5266  -20.0405    8.7453 N   0  0  0  0  0  0  0  0  0  0  0  0
    5.1033  -18.8391    8.6293 C   0  0  0  0  0  0  0  0  0  0  0  0
    6.1332  -18.6718    7.6151 C   0  0  0  0  0  0  0  0  0  0  0  0
    6.5222  -19.8206    6.7646 C   0  0  0  0  0  0  0  0  0  0  0  0
    7.4947  -19.7242    5.7910 N   0  0  0  0  0  0  0  0  0  0  0  0
    6.5181  -17.4187    7.7008 N   0  0  0  0  0  0  0  0  0  0  0  0
    5.8316  -16.8198    8.6837 C   0  0  0  0  0  0  0  0  0  0  0  0
    4.9719  -17.6688    9.2454 N   0  0  0  0  0  0  0  0  0  0  0  0
  2  1  1  1  0  0  0
  2  3  1  0  0  0  0
  2  5  1  0  0  0  0
  3  4  1  0  0  0  0
  3 17  1  0  0  0  0
  5  6  1  0  0  0  0
  7  6  1  6  0  0  0
  7  8  1  0  0  0  0
  7  9  1  0  0  0  0
 10  9  1  6  0  0  0
 10 11  1  0  0  0  0
 10 12  1  0  0  0  0
 11 16  1  0  0  0  0
 12 13  1  1  0  0  0
 12 14  1  0  0  0  0
 14 15  1  1  0  0  0
 14 16  1  0  0  0  0
 16 27  1  6  0  0  0
 18 19  2  0  0  0  0
 18 23  1  0  0  0  0
 19 20  1  0  0  0  0
 20 21  2  0  0  0  0
 21 22  1  0  0  0  0
 21 27  1  0  0  0  0
 22 23  2  0  0  0  0
 22 25  1  0  0  0  0
 23 24  1  0  0  0  0
 25 26  2  0  0  0  0
 26 27  1  0  0  0  0
M  END
>  <CHROM.1>
134.57140794,-51.16867592,178.90593024,79.43369824,-58.80029495,161.27683577
-131.05894174,3.59390542,-15.75266468,10.30983072,2.16419008,0.16837135,0.45078968

>  <Name>
ligand

>  <RI>
0

>  <Rbt.Current_Directory>
/home/itssahil/PROJECTS/Mol_Feturizer/Test_systems_manuscript/rnas/4kqy

>  <Rbt.Executable>
rbdock ($Id: //depot/dev/client3/rdock/2013.1/src/exe/rbdock.cxx#4 $)

>  <Rbt.Library>
libRbt.so (2013.1, Build901 2013/11/27)

>  <Rbt.Parameter_File>
/export/apps/rDock/src/rDock_2013.1_src/data/scripts/dock_solv.prm

>  <Rbt.Receptor>
prm/blind_docking_40.prm

>  <SCORE>
-15.0622

>  <SCORE.INTER>
-13.2655

>  <SCORE.INTER.CONST>
1

>  <SCORE.INTER.POLAR>
0

>  <SCORE.INTER.ROT>
7

>  <SCORE.INTER.SOLV>
15.2884

>  <SCORE.INTER.VDW>
-22.2065

>  <SCORE.INTER.norm>
-0.491316

>  <SCORE.INTRA>
-1.79672

>  <SCORE.INTRA.DIHEDRAL>
-5.23561

>  <SCORE.INTRA.DIHEDRAL.0>
10.4103

>  <SCORE.INTRA.POLAR>
0

>  <SCORE.INTRA.POLAR.0>
0

>  <SCORE.INTRA.REPUL>
0

>  <SCORE.INTRA.REPUL.0>
0

>  <SCORE.INTRA.SOLV>
0.372697

>  <SCORE.INTRA.SOLV.lig_0>
-49.5008

>  <SCORE.INTRA.VDW>
0.634736

>  <SCORE.INTRA.VDW.0>
-2.6946

>  <SCORE.INTRA.norm>
-0.0665452

>  <SCORE.RESTR>
8.08084e-06

>  <SCORE.RESTR.CAVITY>
8.08084e-06

>  <SCORE.RESTR.norm>
2.99291e-07

>  <SCORE.SYSTEM>
0

>  <SCORE.SYSTEM.CONST>
0

>  <SCORE.SYSTEM.DIHEDRAL>
0

>  <SCORE.SYSTEM.SOLV>
0

>  <SCORE.SYSTEM.norm>
0

>  <SCORE.heavy>
27

>  <SCORE.norm>
-0.557861

>  <RMSD>
14.589

$$$$
ligand
 OpenBabel02271912153D
libRbt.so/2013.1/901 2013/11/27
 27 29  0  0  0  0  0  0  0  0999 V2000
    2.5664  -20.0791    4.4882 N   0  0  0  0  0  0  0  0  0  0  0  0
    3.6130  -20.9382    5.0086 C   0  0  2  0  0  0  0  0  0  0  0  0
    2.9756  -22.2416    5.3801 C   0  0  0  0  0  0  0  0  0  0  0  0
    1.9904  -22.2414    6.1493 O   0  0  0  0  0  0  0  0  0  0  0  0
    4.2695  -20.2990    6.2352 C   0  0  0  0  0  0  0  0  0  0  0  0
    4.8943  -18.9284    5.8922 C   0  0  0  0  0  0  0  0  0  0  0  0
    5.6789  -18.1540    7.1571 S   0  0  2  0  0  0  0  0  0  0  0  0
    7.0675  -18.9834    7.5347 C   0  0  0  0  0  0  0  0  0  0  0  0
    4.6537  -18.0656    8.4950 C   0  0  0  0  0  0  0  0  0  0  0  0
    5.2780  -17.3656    9.7205 C   0  0  1  0  0  0  0  0  0  0  0  0
    5.4567  -15.9516    9.5348 O   0  0  0  0  0  0  0  0  0  0  0  0
    4.3998  -17.4124   10.9604 C   0  0  1  0  0  0  0  0  0  0  0  0
    4.3207  -18.6650   11.6700 O   0  0  0  0  0  0  0  0  0  0  0  0
    5.0036  -16.2905   11.7684 C   0  0  1  0  0  0  0  0  0  0  0  0
    6.2762  -16.6822   12.2744 O   0  0  0  0  0  0  0  0  0  0  0  0
    5.1995  -15.2201   10.7359 C   0  0  2  0  0  0  0  0  0  0  0  0
    3.4210  -23.3063    4.8889 O   0  0  0  0  0  0  0  0  0  0  0  0
    0.0526  -14.2339   11.6376 N   0  0  0  0  0  0  0  0  0  0  0  0
    0.7774  -15.3366   11.9463 C   0  0  0  0  0  0  0  0  0  0  0  0
    2.0825  -15.4557   11.6498 N   0  0  0  0  0  0  0  0  0  0  0  0
    2.7615  -14.4753   11.0439 C   0  0  0  0  0  0  0  0  0  0  0  0
    2.0433  -13.2556   10.7065 C   0  0  0  0  0  0  0  0  0  0  0  0
    0.6004  -13.1401   11.0209 C   0  0  0  0  0  0  0  0  0  0  0  0
   -0.1339  -12.0116   10.7207 N   0  0  0  0  0  0  0  0  0  0  0  0
    2.9284  -12.4647   10.1434 N   0  0  0  0  0  0  0  0  0  0  0  0
    4.1075  -13.0995   10.0917 C   0  0  0  0  0  0  0  0  0  0  0  0
    4.0164  -14.3115   10.6379 N   0  0  0  0  0  0  0  0  0  0  0  0
  2  1  1  1  0  0  0
  2  3  1  0  0  0  0
  2  5  1  0  0  0  0
  3  4  1  0  0  0  0
  3 17  1  0  0  0  0
  5  6  1  0  0  0  0
  7  6  1  6  0  0  0
  7  8  1  0  0  0  0
  7  9  1  0  0  0  0
 10  9  1  6  0  0  0
 10 11  1  0  0  0  0
 10 12  1  0  0  0  0
 11 16  1  0  0  0  0
 12 13  1  1  0  0  0
 12 14  1  0  0  0  0
 14 15  1  6  0  0  0
 14 16  1  0  0  0  0
 16 27  1  6  0  0  0
 18 19  2  0  0  0  0
 18 23  1  0  0  0  0
 19 20  1  0  0  0  0
 20 21  2  0  0  0  0
 21 22  1  0  0  0  0
 21 27  1  0  0  0  0
 22 23  2  0  0  0  0
 22 25  1  0  0  0  0
 23 24  1  0  0  0  0
 25 26  2  0  0  0  0
 26 27  1  0  0  0  0
M  END
>  <CHROM.1>
-53.72022366,-59.60066274,-178.45105888,69.47128588,-179.88701735,70.01110457
98.57488198,3.71955957,-17.15315937,9.02959226,1.39814593,0.25903143,-2.44300084

>  <Name>
ligand

>  <RI>
0

>  <Rbt.Current_Directory>
/home/itssahil/PROJECTS/Mol_Feturizer/Test_systems_manuscript/rnas/4kqy

>  <Rbt.Executable>
rbdock ($Id: //depot/dev/client3/rdock/2013.1/src/exe/rbdock.cxx#4 $)

>  <Rbt.Library>
libRbt.so (2013.1, Build901 2013/11/27)

>  <Rbt.Parameter_File>
/export/apps/rDock/src/rDock_2013.1_src/data/scripts/dock_solv.prm

>  <Rbt.Receptor>
prm/blind_docking_80.prm

>  <SCORE>
-21.9388

>  <SCORE.INTER>
-19.1409

>  <SCORE.INTER.CONST>
1

>  <SCORE.INTER.POLAR>
0

>  <SCORE.INTER.ROT>
7

>  <SCORE.INTER.SOLV>
20.0473

>  <SCORE.INTER.VDW>
-27.7097

>  <SCORE.INTER.norm>
-0.708924

>  <SCORE.INTRA>
-2.79785

>  <SCORE.INTRA.DIHEDRAL>
-7.05046

>  <SCORE.INTRA.DIHEDRAL.0>
10.4103

>  <SCORE.INTRA.POLAR>
0

>  <SCORE.INTRA.POLAR.0>
0

>  <SCORE.INTRA.REPUL>
0

>  <SCORE.INTRA.REPUL.0>
0

>  <SCORE.INTRA.SOLV>
0.0639621

>  <SCORE.INTRA.SOLV.lig_0>
-49.5008

>  <SCORE.INTRA.VDW>
0.695396

>  <SCORE.INTRA.VDW.0>
-2.6946

>  <SCORE.INTRA.norm>
-0.103624

>  <SCORE.RESTR>
0

>  <SCORE.RESTR.CAVITY>
0

>  <SCORE.RESTR.norm>
0

>  <SCORE.SYSTEM>
0

>  <SCORE.SYSTEM.CONST>
0

>  <SCORE.SYSTEM.DIHEDRAL>
0

>  <SCORE.SYSTEM.SOLV>
0

>  <SCORE.SYSTEM.norm>
0

>  <SCORE.heavy>
27

>  <SCORE.norm>
-0.812548

>  <RMSD>
14.713

$$$$
ligand
 OpenBabel02271912153D
libRbt.so/2013.1/901 2013/11/27
 27 29  0  0  0  0  0  0  0  0999 V2000
  -15.1202   -8.5097   31.0046 N   0  0  0  0  0  0  0  0  0  0  0  0
  -14.5907   -9.7577   30.4884 C   0  0  2  0  0  0  0  0  0  0  0  0
  -14.2325  -10.6105   31.6663 C   0  0  0  0  0  0  0  0  0  0  0  0
  -13.8070  -10.0652   32.7073 O   0  0  0  0  0  0  0  0  0  0  0  0
  -13.3535   -9.4976   29.6248 C   0  0  0  0  0  0  0  0  0  0  0  0
  -13.7018   -8.6563   28.3769 C   0  0  0  0  0  0  0  0  0  0  0  0
  -14.6936   -9.4077   27.2514 S   0  0  2  0  0  0  0  0  0  0  0  0
  -13.8705  -10.6648   26.5437 C   0  0  0  0  0  0  0  0  0  0  0  0
  -15.1874   -8.2879   26.0891 C   0  0  0  0  0  0  0  0  0  0  0  0
  -16.1391   -8.8677   25.0215 C   0  0  1  0  0  0  0  0  0  0  0  0
  -17.1616   -7.9439   24.6128 O   0  0  0  0  0  0  0  0  0  0  0  0
  -15.4531   -9.1828   23.7021 C   0  0  1  0  0  0  0  0  0  0  0  0
  -14.6207  -10.3590   23.6518 O   0  0  0  0  0  0  0  0  0  0  0  0
  -16.6446   -9.2386   22.7783 C   0  0  1  0  0  0  0  0  0  0  0  0
  -17.4001  -10.4206   23.0255 O   0  0  0  0  0  0  0  0  0  0  0  0
  -17.4465   -8.0488   23.2159 C   0  0  2  0  0  0  0  0  0  0  0  0
  -14.3953  -11.8524   31.5988 O   0  0  0  0  0  0  0  0  0  0  0  0
  -13.8844   -4.3817   21.7530 N   0  0  0  0  0  0  0  0  0  0  0  0
  -13.7242   -5.4473   22.5749 C   0  0  0  0  0  0  0  0  0  0  0  0
  -14.7230   -6.2975   22.8664 N   0  0  0  0  0  0  0  0  0  0  0  0
  -15.9457   -6.1573   22.3423 C   0  0  0  0  0  0  0  0  0  0  0  0
  -16.1748   -5.0441   21.4337 C   0  0  0  0  0  0  0  0  0  0  0  0
  -15.0728   -4.1013   21.1320 C   0  0  0  0  0  0  0  0  0  0  0  0
  -15.2314   -3.0255   20.2833 N   0  0  0  0  0  0  0  0  0  0  0  0
  -17.4300   -5.1425   21.0583 N   0  0  0  0  0  0  0  0  0  0  0  0
  -17.9846   -6.1982   21.6698 C   0  0  0  0  0  0  0  0  0  0  0  0
  -17.0939   -6.8190   22.4423 N   0  0  0  0  0  0  0  0  0  0  0  0
  2  1  1  1  0  0  0
  2  3  1  0  0  0  0
  2  5  1  0  0  0  0
  3  4  1  0  0  0  0
  3 17  1  0  0  0  0
  5  6  1  0  0  0  0
  7  6  1  1  0  0  0
  7  8  1  0  0  0  0
  7  9  1  0  0  0  0
 10  9  1  1  0  0  0
 10 11  1  0  0  0  0
 10 12  1  0  0  0  0
 11 16  1  0  0  0  0
 12 13  1  1  0  0  0
 12 14  1  0  0  0  0
 14 15  1  1  0  0  0
 14 16  1  0  0  0  0
 16 27  1  6  0  0  0
 18 19  2  0  0  0  0
 18 23  1  0  0  0  0
 19 20  1  0  0  0  0
 20 21  2  0  0  0  0
 21 22  1  0  0  0  0
 21 27  1  0  0  0  0
 22 23  2  0  0  0  0
 22 25  1  0  0  0  0
 23 24  1  0  0  0  0
 25 26  2  0  0  0  0
 26 27  1  0  0  0  0
M  END
>  <CHROM.1>
-33.78971507,-63.33580267,-66.61989803,-67.70502319,-178.43555727,142.94041076
55.38667487,-15.32730108,-8.09478569,25.34964917,-1.23782091,-1.00810963
-0.81408029

>  <Name>
ligand

>  <RI>
0

>  <Rbt.Current_Directory>
/home/itssahil/PROJECTS/Mol_Feturizer/Test_systems_manuscript/rnas/4kqy

>  <Rbt.Executable>
rbdock ($Id: //depot/dev/client3/rdock/2013.1/src/exe/rbdock.cxx#4 $)

>  <Rbt.Library>
libRbt.so (2013.1, Build901 2013/11/27)

>  <Rbt.Parameter_File>
/export/apps/rDock/src/rDock_2013.1_src/data/scripts/dock_solv.prm

>  <Rbt.Receptor>
prm/blind_docking_60.prm

>  <SCORE>
-10.0358

>  <SCORE.INTER>
-8.64896

>  <SCORE.INTER.CONST>
1

>  <SCORE.INTER.POLAR>
0

>  <SCORE.INTER.ROT>
7

>  <SCORE.INTER.SOLV>
8.61352

>  <SCORE.INTER.VDW>
-16.9038

>  <SCORE.INTER.norm>
-0.320332

>  <SCORE.INTRA>
-1.5036

>  <SCORE.INTRA.DIHEDRAL>
-3.71144

>  <SCORE.INTRA.DIHEDRAL.0>
10.4103

>  <SCORE.INTRA.POLAR>
0

>  <SCORE.INTRA.POLAR.0>
0

>  <SCORE.INTRA.REPUL>
0

>  <SCORE.INTRA.REPUL.0>
0

>  <SCORE.INTRA.SOLV>
0.877948

>  <SCORE.INTRA.SOLV.lig_0>
-49.5008

>  <SCORE.INTRA.VDW>
-0.0868525

>  <SCORE.INTRA.VDW.0>
-2.6946

>  <SCORE.INTRA.norm>
-0.0556889

>  <SCORE.RESTR>
0.116737

>  <SCORE.RESTR.CAVITY>
0.116737

>  <SCORE.RESTR.norm>
0.00432359

>  <SCORE.SYSTEM>
0

>  <SCORE.SYSTEM.CONST>
0

>  <SCORE.SYSTEM.DIHEDRAL>
0

>  <SCORE.SYSTEM.SOLV>
0

>  <SCORE.SYSTEM.norm>
0

>  <SCORE.heavy>
27

>  <SCORE.norm>
-0.371697

>  <RMSD>
14.716

$$$$
ligand
 OpenBabel02271912153D
libRbt.so/2013.1/901 2013/11/27
 27 29  0  0  0  0  0  0  0  0999 V2000
    8.1149  -17.5083    5.6312 N   0  0  0  0  0  0  0  0  0  0  0  0
    8.3477  -18.6436    6.5037 C   0  0  2  0  0  0  0  0  0  0  0  0
    9.8031  -18.9848    6.4118 C   0  0  0  0  0  0  0  0  0  0  0  0
   10.1536  -20.1830    6.4722 O   0  0  0  0  0  0  0  0  0  0  0  0
    7.4935  -19.8373    6.0681 C   0  0  0  0  0  0  0  0  0  0  0  0
    5.9913  -19.5793    6.3198 C   0  0  0  0  0  0  0  0  0  0  0  0
    5.5346  -19.4775    7.9311 S   0  0  2  0  0  0  0  0  0  0  0  0
    4.2964  -20.5458    8.2215 C   0  0  0  0  0  0  0  0  0  0  0  0
    5.0575  -17.8987    8.2896 C   0  0  0  0  0  0  0  0  0  0  0  0
    5.4482  -17.4303    9.7073 C   0  0  1  0  0  0  0  0  0  0  0  0
    5.4062  -16.0021    9.8633 O   0  0  0  0  0  0  0  0  0  0  0  0
    4.4850  -17.8941   10.7880 C   0  0  1  0  0  0  0  0  0  0  0  0
    4.5524  -19.2780   11.1868 O   0  0  0  0  0  0  0  0  0  0  0  0
    4.8222  -16.9236   11.8927 C   0  0  1  0  0  0  0  0  0  0  0  0
    6.0930  -17.2417   12.4522 O   0  0  0  0  0  0  0  0  0  0  0  0
    4.9278  -15.6215   11.1555 C   0  0  2  0  0  0  0  0  0  0  0  0
   10.6409  -18.0665    6.2443 O   0  0  0  0  0  0  0  0  0  0  0  0
    0.1763  -14.5467   13.2873 N   0  0  0  0  0  0  0  0  0  0  0  0
    1.1458  -15.3792   13.7385 C   0  0  0  0  0  0  0  0  0  0  0  0
    2.3073  -15.5628   13.0885 N   0  0  0  0  0  0  0  0  0  0  0  0
    2.5924  -14.9134   11.9543 C   0  0  0  0  0  0  0  0  0  0  0  0
    1.5997  -13.9875   11.4303 C   0  0  0  0  0  0  0  0  0  0  0  0
    0.3145  -13.8048   12.1439 C   0  0  0  0  0  0  0  0  0  0  0  0
   -0.6661  -12.9458   11.6931 N   0  0  0  0  0  0  0  0  0  0  0  0
    2.1249  -13.4823   10.3372 N   0  0  0  0  0  0  0  0  0  0  0  0
    3.3321  -14.0304   10.1420 C   0  0  0  0  0  0  0  0  0  0  0  0
    3.6239  -14.8912   11.1165 N   0  0  0  0  0  0  0  0  0  0  0  0
  2  1  1  6  0  0  0
  2  3  1  0  0  0  0
  2  5  1  0  0  0  0
  3  4  1  0  0  0  0
  3 17  1  0  0  0  0
  5  6  1  0  0  0  0
  7  6  1  6  0  0  0
  7  8  1  0  0  0  0
  7  9  1  0  0  0  0
 10  9  1  6  0  0  0
 10 11  1  0  0  0  0
 10 12  1  0  0  0  0
 11 16  1  0  0  0  0
 12 13  1  1  0  0  0
 12 14  1  0  0  0  0
 14 15  1  6  0  0  0
 14 16  1  0  0  0  0
 16 27  1  6  0  0  0
 18 19  2  0  0  0  0
 18 23  1  0  0  0  0
 19 20  1  0  0  0  0
 20 21  2  0  0  0  0
 21 22  1  0  0  0  0
 21 27  1  0  0  0  0
 22 23  2  0  0  0  0
 22 25  1  0  0  0  0
 23 24  1  0  0  0  0
 25 26  2  0  0  0  0
 26 27  1  0  0  0  0
M  END
>  <CHROM.1>
-144.59393865,-68.70231327,-67.11959213,-126.21389636,-143.84556266,162.44178592
144.39955935,4.87193877,-17.04988693,9.63722903,-0.40401086,0.73595266,-0.13955623

>  <Name>
ligand

>  <RI>
0

>  <Rbt.Current_Directory>
/home/itssahil/PROJECTS/Mol_Feturizer/Test_systems_manuscript/rnas/4kqy

>  <Rbt.Executable>
rbdock ($Id: //depot/dev/client3/rdock/2013.1/src/exe/rbdock.cxx#4 $)

>  <Rbt.Library>
libRbt.so (2013.1, Build901 2013/11/27)

>  <Rbt.Parameter_File>
/export/apps/rDock/src/rDock_2013.1_src/data/scripts/dock_solv.prm

>  <Rbt.Receptor>
prm/blind_docking_40.prm

>  <SCORE>
-14.3702

>  <SCORE.INTER>
-16.3374

>  <SCORE.INTER.CONST>
1

>  <SCORE.INTER.POLAR>
0

>  <SCORE.INTER.ROT>
7

>  <SCORE.INTER.SOLV>
19.9342

>  <SCORE.INTER.VDW>
-25.803

>  <SCORE.INTER.norm>
-0.605089

>  <SCORE.INTRA>
1.96716

>  <SCORE.INTRA.DIHEDRAL>
1.53805

>  <SCORE.INTRA.DIHEDRAL.0>
10.4103

>  <SCORE.INTRA.POLAR>
0

>  <SCORE.INTRA.POLAR.0>
0

>  <SCORE.INTRA.REPUL>
0

>  <SCORE.INTRA.REPUL.0>
0

>  <SCORE.INTRA.SOLV>
1.19244

>  <SCORE.INTRA.SOLV.lig_0>
-49.5008

>  <SCORE.INTRA.VDW>
0.601916

>  <SCORE.INTRA.VDW.0>
-2.6946

>  <SCORE.INTRA.norm>
0.0728578

>  <SCORE.RESTR>
0

>  <SCORE.RESTR.CAVITY>
0

>  <SCORE.RESTR.norm>
0

>  <SCORE.SYSTEM>
0

>  <SCORE.SYSTEM.CONST>
0

>  <SCORE.SYSTEM.DIHEDRAL>
0

>  <SCORE.SYSTEM.SOLV>
0

>  <SCORE.SYSTEM.norm>
0

>  <SCORE.heavy>
27

>  <SCORE.norm>
-0.532231

>  <RMSD>
14.723

$$$$
ligand
 OpenBabel02271912153D
libRbt.so/2013.1/901 2013/11/27
 27 29  0  0  0  0  0  0  0  0999 V2000
    5.2927  -10.0902    9.6560 N   0  0  0  0  0  0  0  0  0  0  0  0
    4.4105  -10.7555    8.7162 C   0  0  2  0  0  0  0  0  0  0  0  0
    4.8644  -10.3825    7.3386 C   0  0  0  0  0  0  0  0  0  0  0  0
    4.9590   -9.1740    7.0339 O   0  0  0  0  0  0  0  0  0  0  0  0
    2.9616  -10.3123    8.9365 C   0  0  0  0  0  0  0  0  0  0  0  0
    2.4033  -10.8489   10.2733 C   0  0  0  0  0  0  0  0  0  0  0  0
    2.2007  -12.5123   10.3571 S   0  0  2  0  0  0  0  0  0  0  0  0
    0.8987  -12.8608   11.3277 C   0  0  0  0  0  0  0  0  0  0  0  0
    3.6046  -13.2278   10.9618 C   0  0  0  0  0  0  0  0  0  0  0  0
    3.4207  -14.6928   11.4110 C   0  0  1  0  0  0  0  0  0  0  0  0
    3.1114  -15.5831   10.3259 O   0  0  0  0  0  0  0  0  0  0  0  0
    4.6841  -15.3172   11.9811 C   0  0  1  0  0  0  0  0  0  0  0  0
    5.0783  -14.9206   13.3100 O   0  0  0  0  0  0  0  0  0  0  0  0
    4.3477  -16.7826   11.8562 C   0  0  1  0  0  0  0  0  0  0  0  0
    3.3619  -17.1420   12.8194 O   0  0  0  0  0  0  0  0  0  0  0  0
    3.7395  -16.8572   10.4870 C   0  0  2  0  0  0  0  0  0  0  0  0
    5.1715  -11.2872    6.5260 O   0  0  0  0  0  0  0  0  0  0  0  0
    6.2162  -20.3350    7.3174 N   0  0  0  0  0  0  0  0  0  0  0  0
    5.2276  -20.5546    8.2180 C   0  0  0  0  0  0  0  0  0  0  0  0
    4.6932  -19.5738    8.9649 N   0  0  0  0  0  0  0  0  0  0  0  0
    5.0920  -18.3021    8.8511 C   0  0  0  0  0  0  0  0  0  0  0  0
    6.1360  -17.9985    7.8839 C   0  0  0  0  0  0  0  0  0  0  0  0
    6.7320  -19.0888    7.0776 C   0  0  0  0  0  0  0  0  0  0  0  0
    7.7274  -18.8632    6.1497 N   0  0  0  0  0  0  0  0  0  0  0  0
    6.3276  -16.7011    7.9613 N   0  0  0  0  0  0  0  0  0  0  0  0
    5.5118  -16.1967    8.8973 C   0  0  0  0  0  0  0  0  0  0  0  0
    4.7592  -17.1556    9.4352 N   0  0  0  0  0  0  0  0  0  0  0  0
  2  1  1  1  0  0  0
  2  3  1  0  0  0  0
  2  5  1  0  0  0  0
  3  4  1  0  0  0  0
  3 17  1  0  0  0  0
  5  6  1  0  0  0  0
  7  6  1  1  0  0  0
  7  8  1  0  0  0  0
  7  9  1  0  0  0  0
 10  9  1  6  0  0  0
 10 11  1  0  0  0  0
 10 12  1  0  0  0  0
 11 16  1  0  0  0  0
 12 13  1  1  0  0  0
 12 14  1  0  0  0  0
 14 15  1  1  0  0  0
 14 16  1  0  0  0  0
 16 27  1  6  0  0  0
 18 19  2  0  0  0  0
 18 23  1  0  0  0  0
 19 20  1  0  0  0  0
 20 21  2  0  0  0  0
 21 22  1  0  0  0  0
 21 27  1  0  0  0  0
 22 23  2  0  0  0  0
 22 25  1  0  0  0  0
 23 24  1  0  0  0  0
 25 26  2  0  0  0  0
 26 27  1  0  0  0  0
M  END
>  <CHROM.1>
-55.11355062,-69.21658697,-67.34552769,-147.61444203,165.56838790,65.54752632
-144.99079157,4.40245133,-14.87134367,9.49739769,-2.07361724,-1.01239664
2.80062556

>  <Name>
ligand

>  <RI>
0

>  <Rbt.Current_Directory>
/home/itssahil/PROJECTS/Mol_Feturizer/Test_systems_manuscript/rnas/4kqy

>  <Rbt.Executable>
rbdock ($Id: //depot/dev/client3/rdock/2013.1/src/exe/rbdock.cxx#4 $)

>  <Rbt.Library>
libRbt.so (2013.1, Build901 2013/11/27)

>  <Rbt.Parameter_File>
/export/apps/rDock/src/rDock_2013.1_src/data/scripts/dock_solv.prm

>  <Rbt.Receptor>
prm/blind_docking_40.prm

>  <SCORE>
-19.2851

>  <SCORE.INTER>
-18.1557

>  <SCORE.INTER.CONST>
1

>  <SCORE.INTER.POLAR>
0

>  <SCORE.INTER.ROT>
7

>  <SCORE.INTER.SOLV>
13.7241

>  <SCORE.INTER.VDW>
-24.9452

>  <SCORE.INTER.norm>
-0.672435

>  <SCORE.INTRA>
-1.12938

>  <SCORE.INTRA.DIHEDRAL>
-3.73696

>  <SCORE.INTRA.DIHEDRAL.0>
10.4103

>  <SCORE.INTRA.POLAR>
0

>  <SCORE.INTRA.POLAR.0>
0

>  <SCORE.INTRA.REPUL>
0

>  <SCORE.INTRA.REPUL.0>
0

>  <SCORE.INTRA.SOLV>
1.08474

>  <SCORE.INTRA.SOLV.lig_0>
-49.5008

>  <SCORE.INTRA.VDW>
0.196727

>  <SCORE.INTRA.VDW.0>
-2.6946

>  <SCORE.INTRA.norm>
-0.0418289

>  <SCORE.RESTR>
0

>  <SCORE.RESTR.CAVITY>
0

>  <SCORE.RESTR.norm>
0

>  <SCORE.SYSTEM>
0

>  <SCORE.SYSTEM.CONST>
0

>  <SCORE.SYSTEM.DIHEDRAL>
0

>  <SCORE.SYSTEM.SOLV>
0

>  <SCORE.SYSTEM.norm>
0

>  <SCORE.heavy>
27

>  <SCORE.norm>
-0.714263

>  <RMSD>
14.803

$$$$
ligand
 OpenBabel02271912153D
libRbt.so/2013.1/901 2013/11/27
 27 29  0  0  0  0  0  0  0  0999 V2000
    2.3384  -20.9610    5.9084 N   0  0  0  0  0  0  0  0  0  0  0  0
    3.4791  -21.7662    6.3017 C   0  0  2  0  0  0  0  0  0  0  0  0
    3.2274  -22.2425    7.6992 C   0  0  0  0  0  0  0  0  0  0  0  0
    2.8385  -23.4161    7.8828 O   0  0  0  0  0  0  0  0  0  0  0  0
    4.7645  -20.9362    6.2466 C   0  0  0  0  0  0  0  0  0  0  0  0
    4.5965  -19.5847    6.9759 C   0  0  0  0  0  0  0  0  0  0  0  0
    5.9007  -18.5350    6.8639 S   0  0  2  0  0  0  0  0  0  0  0  0
    7.2049  -19.1900    7.6568 C   0  0  0  0  0  0  0  0  0  0  0  0
    5.4874  -17.0396    7.5283 C   0  0  0  0  0  0  0  0  0  0  0  0
    5.6460  -16.9671    9.0617 C   0  0  1  0  0  0  0  0  0  0  0  0
    5.6155  -15.6235    9.5712 O   0  0  0  0  0  0  0  0  0  0  0  0
    4.5030  -17.6191    9.8227 C   0  0  1  0  0  0  0  0  0  0  0  0
    4.4664  -19.0600    9.8578 O   0  0  0  0  0  0  0  0  0  0  0  0
    4.6747  -16.9800   11.1785 C   0  0  1  0  0  0  0  0  0  0  0  0
    5.8245  -17.5132   11.8286 O   0  0  0  0  0  0  0  0  0  0  0  0
    4.9366  -15.5455   10.8268 C   0  0  2  0  0  0  0  0  0  0  0  0
    3.4412  -21.4668    8.6614 O   0  0  0  0  0  0  0  0  0  0  0  0
    2.4007  -11.0139    9.6821 N   0  0  0  0  0  0  0  0  0  0  0  0
    3.7144  -11.3159    9.5420 C   0  0  0  0  0  0  0  0  0  0  0  0
    4.2262  -12.5108    9.8817 N   0  0  0  0  0  0  0  0  0  0  0  0
    3.4607  -13.4956   10.3650 C   0  0  0  0  0  0  0  0  0  0  0  0
    2.0363  -13.2401   10.5178 C   0  0  0  0  0  0  0  0  0  0  0  0
    1.4837  -11.9138   10.1576 C   0  0  0  0  0  0  0  0  0  0  0  0
    0.1439  -11.6113   10.2856 N   0  0  0  0  0  0  0  0  0  0  0  0
    1.5226  -14.3537   10.9890 N   0  0  0  0  0  0  0  0  0  0  0  0
    2.5054  -15.2499   11.1532 C   0  0  0  0  0  0  0  0  0  0  0  0
    3.6772  -14.7416   10.7739 N   0  0  0  0  0  0  0  0  0  0  0  0
  2  1  1  1  0  0  0
  2  3  1  0  0  0  0
  2  5  1  0  0  0  0
  3  4  1  0  0  0  0
  3 17  1  0  0  0  0
  5  6  1  0  0  0  0
  7  6  1  1  0  0  0
  7  8  1  0  0  0  0
  7  9  1  0  0  0  0
 10  9  1  6  0  0  0
 10 11  1  0  0  0  0
 10 12  1  0  0  0  0
 11 16  1  0  0  0  0
 12 13  1  1  0  0  0
 12 14  1  0  0  0  0
 14 15  1  6  0  0  0
 14 16  1  0  0  0  0
 16 27  1  6  0  0  0
 18 19  2  0  0  0  0
 18 23  1  0  0  0  0
 19 20  1  0  0  0  0
 20 21  2  0  0  0  0
 21 22  1  0  0  0  0
 21 27  1  0  0  0  0
 22 23  2  0  0  0  0
 22 25  1  0  0  0  0
 23 24  1  0  0  0  0
 25 26  2  0  0  0  0
 26 27  1  0  0  0  0
M  END
>  <CHROM.1>
101.85515431,49.08519800,-174.87398106,-65.85410990,83.67807701,165.47020414
-54.73352734,3.99881176,-17.02007059,9.02975017,1.39718528,-0.00923284,-2.79327074

>  <Name>
ligand

>  <RI>
0

>  <Rbt.Current_Directory>
/home/itssahil/PROJECTS/Mol_Feturizer/Test_systems_manuscript/rnas/4kqy

>  <Rbt.Executable>
rbdock ($Id: //depot/dev/client3/rdock/2013.1/src/exe/rbdock.cxx#4 $)

>  <Rbt.Library>
libRbt.so (2013.1, Build901 2013/11/27)

>  <Rbt.Parameter_File>
/export/apps/rDock/src/rDock_2013.1_src/data/scripts/dock_solv.prm

>  <Rbt.Receptor>
prm/blind_docking_100.prm

>  <SCORE>
-15.3809

>  <SCORE.INTER>
-16.0655

>  <SCORE.INTER.CONST>
1

>  <SCORE.INTER.POLAR>
0

>  <SCORE.INTER.ROT>
7

>  <SCORE.INTER.SOLV>
17.0164

>  <SCORE.INTER.VDW>
-24.6491

>  <SCORE.INTER.norm>
-0.595018

>  <SCORE.INTRA>
0.684591

>  <SCORE.INTRA.DIHEDRAL>
-4.68445

>  <SCORE.INTRA.DIHEDRAL.0>
10.4103

>  <SCORE.INTRA.POLAR>
0

>  <SCORE.INTRA.POLAR.0>
0

>  <SCORE.INTRA.REPUL>
0

>  <SCORE.INTRA.REPUL.0>
0

>  <SCORE.INTRA.SOLV>
0.868741

>  <SCORE.INTRA.SOLV.lig_0>
-49.5008

>  <SCORE.INTRA.VDW>
2.59245

>  <SCORE.INTRA.VDW.0>
-2.6946

>  <SCORE.INTRA.norm>
0.0253552

>  <SCORE.RESTR>
0

>  <SCORE.RESTR.CAVITY>
0

>  <SCORE.RESTR.norm>
0

>  <SCORE.SYSTEM>
0

>  <SCORE.SYSTEM.CONST>
0

>  <SCORE.SYSTEM.DIHEDRAL>
0

>  <SCORE.SYSTEM.SOLV>
0

>  <SCORE.SYSTEM.norm>
0

>  <SCORE.heavy>
27

>  <SCORE.norm>
-0.569662

>  <RMSD>
14.819

$$$$
ligand
 OpenBabel02271912153D
libRbt.so/2013.1/901 2013/11/27
 27 29  0  0  0  0  0  0  0  0999 V2000
    9.8962  -19.1622    4.2644 N   0  0  0  0  0  0  0  0  0  0  0  0
    9.2660  -18.2879    5.2352 C   0  0  2  0  0  0  0  0  0  0  0  0
   10.3343  -17.8254    6.1776 C   0  0  0  0  0  0  0  0  0  0  0  0
   10.6803  -16.6244    6.1654 O   0  0  0  0  0  0  0  0  0  0  0  0
    8.1714  -19.0375    5.9994 C   0  0  0  0  0  0  0  0  0  0  0  0
    7.1022  -18.0684    6.5510 C   0  0  0  0  0  0  0  0  0  0  0  0
    5.8923  -18.7753    7.4740 S   0  0  2  0  0  0  0  0  0  0  0  0
    4.9854  -19.7835    6.5150 C   0  0  0  0  0  0  0  0  0  0  0  0
    4.9249  -17.5751    8.1612 C   0  0  0  0  0  0  0  0  0  0  0  0
    5.3735  -17.1364    9.5712 C   0  0  1  0  0  0  0  0  0  0  0  0
    5.3255  -15.7127    9.7632 O   0  0  0  0  0  0  0  0  0  0  0  0
    4.4633  -17.6354   10.6817 C   0  0  1  0  0  0  0  0  0  0  0  0
    4.5608  -19.0276   11.0437 O   0  0  0  0  0  0  0  0  0  0  0  0
    4.8401  -16.6879   11.7936 C   0  0  1  0  0  0  0  0  0  0  0  0
    6.1372  -17.0062   12.2888 O   0  0  0  0  0  0  0  0  0  0  0  0
    4.9012  -15.3677   11.0840 C   0  0  2  0  0  0  0  0  0  0  0  0
   10.8402  -18.6431    6.9831 O   0  0  0  0  0  0  0  0  0  0  0  0
    0.1910  -14.4765   13.3853 N   0  0  0  0  0  0  0  0  0  0  0  0
    1.1781  -15.3252   13.7619 C   0  0  0  0  0  0  0  0  0  0  0  0
    2.3258  -15.4561   13.0756 N   0  0  0  0  0  0  0  0  0  0  0  0
    2.5787  -14.7348   11.9779 C   0  0  0  0  0  0  0  0  0  0  0  0
    1.5658  -13.7886   11.5350 C   0  0  0  0  0  0  0  0  0  0  0  0
    0.2960  -13.6638   12.2875 C   0  0  0  0  0  0  0  0  0  0  0  0
   -0.7025  -12.7888   11.9132 N   0  0  0  0  0  0  0  0  0  0  0  0
    2.0610  -13.2112   10.4639 N   0  0  0  0  0  0  0  0  0  0  0  0
    3.2683  -13.7336   10.2077 C   0  0  0  0  0  0  0  0  0  0  0  0
    3.5902  -14.6500   11.1199 N   0  0  0  0  0  0  0  0  0  0  0  0
  2  1  1  6  0  0  0
  2  3  1  0  0  0  0
  2  5  1  0  0  0  0
  3  4  1  0  0  0  0
  3 17  1  0  0  0  0
  5  6  1  0  0  0  0
  7  6  1  6  0  0  0
  7  8  1  0  0  0  0
  7  9  1  0  0  0  0
 10  9  1  6  0  0  0
 10 11  1  0  0  0  0
 10 12  1  0  0  0  0
 11 16  1  0  0  0  0
 12 13  1  1  0  0  0
 12 14  1  0  0  0  0
 14 15  1  6  0  0  0
 14 16  1  0  0  0  0
 16 27  1  6  0  0  0
 18 19  2  0  0  0  0
 18 23  1  0  0  0  0
 19 20  1  0  0  0  0
 20 21  2  0  0  0  0
 21 22  1  0  0  0  0
 21 27  1  0  0  0  0
 22 23  2  0  0  0  0
 22 25  1  0  0  0  0
 23 24  1  0  0  0  0
 25 26  2  0  0  0  0
 26 27  1  0  0  0  0
M  END
>  <CHROM.1>
111.64218553,-154.93825493,-177.04480232,-65.56273504,-92.37102167,137.35141925
141.89603818,5.11672795,-16.63414523,9.45063783,-0.41150683,0.68545477,0.01248055

>  <Name>
ligand

>  <RI>
0

>  <Rbt.Current_Directory>
/home/itssahil/PROJECTS/Mol_Feturizer/Test_systems_manuscript/rnas/4kqy

>  <Rbt.Executable>
rbdock ($Id: //depot/dev/client3/rdock/2013.1/src/exe/rbdock.cxx#4 $)

>  <Rbt.Library>
libRbt.so (2013.1, Build901 2013/11/27)

>  <Rbt.Parameter_File>
/export/apps/rDock/src/rDock_2013.1_src/data/scripts/dock_solv.prm

>  <Rbt.Receptor>
prm/blind_docking_80.prm

>  <SCORE>
-19.0003

>  <SCORE.INTER>
-19.8144

>  <SCORE.INTER.CONST>
1

>  <SCORE.INTER.POLAR>
0

>  <SCORE.INTER.ROT>
7

>  <SCORE.INTER.SOLV>
18.8076

>  <SCORE.INTER.VDW>
-27.7455

>  <SCORE.INTER.norm>
-0.733867

>  <SCORE.INTRA>
0.81416

>  <SCORE.INTRA.DIHEDRAL>
1.56201

>  <SCORE.INTRA.DIHEDRAL.0>
10.4103

>  <SCORE.INTRA.POLAR>
0

>  <SCORE.INTRA.POLAR.0>
0

>  <SCORE.INTRA.REPUL>
0

>  <SCORE.INTRA.REPUL.0>
0

>  <SCORE.INTRA.SOLV>
-0.628964

>  <SCORE.INTRA.SOLV.lig_0>
-49.5008

>  <SCORE.INTRA.VDW>
0.347639

>  <SCORE.INTRA.VDW.0>
-2.6946

>  <SCORE.INTRA.norm>
0.0301541

>  <SCORE.RESTR>
0

>  <SCORE.RESTR.CAVITY>
0

>  <SCORE.RESTR.norm>
0

>  <SCORE.SYSTEM>
0

>  <SCORE.SYSTEM.CONST>
0

>  <SCORE.SYSTEM.DIHEDRAL>
0

>  <SCORE.SYSTEM.SOLV>
0

>  <SCORE.SYSTEM.norm>
0

>  <SCORE.heavy>
27

>  <SCORE.norm>
-0.703713

>  <RMSD>
14.822

$$$$
ligand
 OpenBabel02271912153D
libRbt.so/2013.1/901 2013/11/27
 27 29  0  0  0  0  0  0  0  0999 V2000
  -12.1309   -9.6246   29.3978 N   0  0  0  0  0  0  0  0  0  0  0  0
  -13.4091   -8.9394   29.3689 C   0  0  2  0  0  0  0  0  0  0  0  0
  -14.0918   -9.2152   30.6731 C   0  0  0  0  0  0  0  0  0  0  0  0
  -13.9180  -10.3202   31.2308 O   0  0  0  0  0  0  0  0  0  0  0  0
  -14.2628   -9.4481   28.2042 C   0  0  0  0  0  0  0  0  0  0  0  0
  -15.6245   -8.7211   28.1416 C   0  0  0  0  0  0  0  0  0  0  0  0
  -16.6813   -9.2649   26.9573 S   0  0  2  0  0  0  0  0  0  0  0  0
  -17.0457  -10.8614   27.2348 C   0  0  0  0  0  0  0  0  0  0  0  0
  -15.9808   -9.0682   25.4344 C   0  0  0  0  0  0  0  0  0  0  0  0
  -16.8835   -9.5138   24.2646 C   0  0  1  0  0  0  0  0  0  0  0  0
  -17.9149   -8.5630   23.9514 O   0  0  0  0  0  0  0  0  0  0  0  0
  -16.1483   -9.6298   22.9392 C   0  0  1  0  0  0  0  0  0  0  0  0
  -15.2861  -10.7709   22.7568 O   0  0  0  0  0  0  0  0  0  0  0  0
  -17.3081   -9.5811   21.9755 C   0  0  1  0  0  0  0  0  0  0  0  0
  -18.0418  -10.8007   22.0313 O   0  0  0  0  0  0  0  0  0  0  0  0
  -18.1525   -8.4794   22.5442 C   0  0  2  0  0  0  0  0  0  0  0  0
  -14.7996   -8.3225   31.1979 O   0  0  0  0  0  0  0  0  0  0  0  0
  -14.6590   -4.5433   21.7838 N   0  0  0  0  0  0  0  0  0  0  0  0
  -14.5029   -5.7030   22.4674 C   0  0  0  0  0  0  0  0  0  0  0  0
  -15.4828   -6.6145   22.5865 N   0  0  0  0  0  0  0  0  0  0  0  0
  -16.6799   -6.4436   22.0145 C   0  0  0  0  0  0  0  0  0  0  0  0
  -16.9020   -5.2274   21.2472 C   0  0  0  0  0  0  0  0  0  0  0  0
  -15.8221   -4.2196   21.1362 C   0  0  0  0  0  0  0  0  0  0  0  0
  -15.9754   -3.0462   20.4274 N   0  0  0  0  0  0  0  0  0  0  0  0
  -18.1304   -5.3137   20.7894 N   0  0  0  0  0  0  0  0  0  0  0  0
  -18.6766   -6.4576   21.2243 C   0  0  0  0  0  0  0  0  0  0  0  0
  -17.8058   -7.1477   21.9599 N   0  0  0  0  0  0  0  0  0  0  0  0
  2  1  1  1  0  0  0
  2  3  1  0  0  0  0
  2  5  1  0  0  0  0
  3  4  1  0  0  0  0
  3 17  1  0  0  0  0
  5  6  1  0  0  0  0
  7  6  1  1  0  0  0
  7  8  1  0  0  0  0
  7  9  1  0  0  0  0
 10  9  1  1  0  0  0
 10 11  1  0  0  0  0
 10 12  1  0  0  0  0
 11 16  1  0  0  0  0
 12 13  1  1  0  0  0
 12 14  1  0  0  0  0
 14 15  1  1  0  0  0
 14 16  1  0  0  0  0
 16 27  1  6  0  0  0
 18 19  2  0  0  0  0
 18 23  1  0  0  0  0
 19 20  1  0  0  0  0
 20 21  2  0  0  0  0
 21 22  1  0  0  0  0
 21 27  1  0  0  0  0
 22 23  2  0  0  0  0
 22 25  1  0  0  0  0
 23 24  1  0  0  0  0
 25 26  2  0  0  0  0
 26 27  1  0  0  0  0
M  END
>  <CHROM.1>
-33.60394765,-179.33205141,-176.44785036,61.29480231,-178.87722019,77.29202902
53.85581786,-16.03704773,-8.14462996,24.79876148,-1.09905714,-0.95662312
-0.78359051

>  <Name>
ligand

>  <RI>
0

>  <Rbt.Current_Directory>
/home/itssahil/PROJECTS/Mol_Feturizer/Test_systems_manuscript/rnas/4kqy

>  <Rbt.Executable>
rbdock ($Id: //depot/dev/client3/rdock/2013.1/src/exe/rbdock.cxx#4 $)

>  <Rbt.Library>
libRbt.so (2013.1, Build901 2013/11/27)

>  <Rbt.Parameter_File>
/export/apps/rDock/src/rDock_2013.1_src/data/scripts/dock_solv.prm

>  <Rbt.Receptor>
prm/blind_docking_60.prm

>  <SCORE>
-12.3963

>  <SCORE.INTER>
-9.04604

>  <SCORE.INTER.CONST>
1

>  <SCORE.INTER.POLAR>
0

>  <SCORE.INTER.ROT>
7

>  <SCORE.INTER.SOLV>
11.9573

>  <SCORE.INTER.VDW>
-18.2831

>  <SCORE.INTER.norm>
-0.335039

>  <SCORE.INTRA>
-3.35245

>  <SCORE.INTRA.DIHEDRAL>
-6.60004

>  <SCORE.INTRA.DIHEDRAL.0>
10.4103

>  <SCORE.INTRA.POLAR>
0

>  <SCORE.INTRA.POLAR.0>
0

>  <SCORE.INTRA.REPUL>
0

>  <SCORE.INTRA.REPUL.0>
0

>  <SCORE.INTRA.SOLV>
-0.667571

>  <SCORE.INTRA.SOLV.lig_0>
-49.5008

>  <SCORE.INTRA.VDW>
0.28135

>  <SCORE.INTRA.VDW.0>
-2.6946

>  <SCORE.INTRA.norm>
-0.124165

>  <SCORE.RESTR>
0.00222992

>  <SCORE.RESTR.CAVITY>
0.00222992

>  <SCORE.RESTR.norm>
8.25895e-05

>  <SCORE.SYSTEM>
0

>  <SCORE.SYSTEM.CONST>
0

>  <SCORE.SYSTEM.DIHEDRAL>
0

>  <SCORE.SYSTEM.SOLV>
0

>  <SCORE.SYSTEM.norm>
0

>  <SCORE.heavy>
27

>  <SCORE.norm>
-0.459121

>  <RMSD>
14.862

$$$$
ligand
 OpenBabel02271912153D
libRbt.so/2013.1/901 2013/11/27
 27 29  0  0  0  0  0  0  0  0999 V2000
  -15.8504   -8.9856   26.8087 N   0  0  0  0  0  0  0  0  0  0  0  0
  -16.8602   -9.4789   25.8916 C   0  0  2  0  0  0  0  0  0  0  0  0
  -17.5565  -10.6197   26.5676 C   0  0  0  0  0  0  0  0  0  0  0  0
  -16.9218  -11.3265   27.3799 O   0  0  0  0  0  0  0  0  0  0  0  0
  -16.2135   -9.9496   24.5861 C   0  0  0  0  0  0  0  0  0  0  0  0
  -15.6243   -8.7654   23.7880 C   0  0  0  0  0  0  0  0  0  0  0  0
  -16.7179   -7.5684   23.3562 S   0  0  2  0  0  0  0  0  0  0  0  0
  -17.7170   -8.1406   22.1590 C   0  0  0  0  0  0  0  0  0  0  0  0
  -15.8848   -6.1967   22.8338 C   0  0  0  0  0  0  0  0  0  0  0  0
  -15.0109   -6.4299   21.5833 C   0  0  1  0  0  0  0  0  0  0  0  0
  -15.7778   -6.5870   20.3779 O   0  0  0  0  0  0  0  0  0  0  0  0
  -14.1174   -5.2497   21.2372 C   0  0  1  0  0  0  0  0  0  0  0  0
  -12.9511   -5.0379   22.0580 O   0  0  0  0  0  0  0  0  0  0  0  0
  -13.8005   -5.5577   19.7947 C   0  0  1  0  0  0  0  0  0  0  0  0
  -12.9025   -6.6606   19.7159 O   0  0  0  0  0  0  0  0  0  0  0  0
  -15.1355   -5.9783   19.2551 C   0  0  2  0  0  0  0  0  0  0  0  0
  -18.7708  -10.8263   26.3312 O   0  0  0  0  0  0  0  0  0  0  0  0
  -18.2537   -1.7240   19.9290 N   0  0  0  0  0  0  0  0  0  0  0  0
  -17.7462   -2.5667   20.8611 C   0  0  0  0  0  0  0  0  0  0  0  0
  -16.9702   -3.6174   20.5461 N   0  0  0  0  0  0  0  0  0  0  0  0
  -16.6283   -3.8891   19.2818 C   0  0  0  0  0  0  0  0  0  0  0  0
  -17.1239   -3.0067   18.2363 C   0  0  0  0  0  0  0  0  0  0  0  0
  -17.9936   -1.8613   18.5910 C   0  0  0  0  0  0  0  0  0  0  0  0
  -18.4976   -0.9942   17.6439 N   0  0  0  0  0  0  0  0  0  0  0  0
  -16.6396   -3.4802   17.1106 N   0  0  0  0  0  0  0  0  0  0  0  0
  -15.9149   -4.5757   17.3763 C   0  0  0  0  0  0  0  0  0  0  0  0
  -15.8988   -4.8261   18.6849 N   0  0  0  0  0  0  0  0  0  0  0  0
  2  1  1  1  0  0  0
  2  3  1  0  0  0  0
  2  5  1  0  0  0  0
  3  4  1  0  0  0  0
  3 17  1  0  0  0  0
  5  6  1  0  0  0  0
  7  6  1  6  0  0  0
  7  8  1  0  0  0  0
  7  9  1  0  0  0  0
 10  9  1  1  0  0  0
 10 11  1  0  0  0  0
 10 12  1  0  0  0  0
 11 16  1  0  0  0  0
 12 13  1  1  0  0  0
 12 14  1  0  0  0  0
 14 15  1  1  0  0  0
 14 16  1  0  0  0  0
 16 27  1  1  0  0  0
 18 19  2  0  0  0  0
 18 23  1  0  0  0  0
 19 20  1  0  0  0  0
 20 21  2  0  0  0  0
 21 22  1  0  0  0  0
 21 27  1  0  0  0  0
 22 23  2  0  0  0  0
 22 25  1  0  0  0  0
 23 24  1  0  0  0  0
 25 26  2  0  0  0  0
 26 27  1  0  0  0  0
M  END
>  <CHROM.1>
-30.62381014,-67.93809603,-58.95437183,-71.91473012,61.81455641,72.44799698
36.49874163,-16.26967098,-6.24164525,21.72457478,1.59469029,-0.36117202,2.33467457

>  <Name>
ligand

>  <RI>
0

>  <Rbt.Current_Directory>
/home/itssahil/PROJECTS/Mol_Feturizer/Test_systems_manuscript/rnas/4kqy

>  <Rbt.Executable>
rbdock ($Id: //depot/dev/client3/rdock/2013.1/src/exe/rbdock.cxx#4 $)

>  <Rbt.Library>
libRbt.so (2013.1, Build901 2013/11/27)

>  <Rbt.Parameter_File>
/export/apps/rDock/src/rDock_2013.1_src/data/scripts/dock_solv.prm

>  <Rbt.Receptor>
prm/blind_docking_100.prm

>  <SCORE>
-8.92606

>  <SCORE.INTER>
-6.05854

>  <SCORE.INTER.CONST>
1

>  <SCORE.INTER.POLAR>
0

>  <SCORE.INTER.ROT>
7

>  <SCORE.INTER.SOLV>
14.2335

>  <SCORE.INTER.VDW>
-17.0502

>  <SCORE.INTER.norm>
-0.22439

>  <SCORE.INTRA>
-3.12703

>  <SCORE.INTRA.DIHEDRAL>
-6.37024

>  <SCORE.INTRA.DIHEDRAL.0>
10.4103

>  <SCORE.INTRA.POLAR>
0

>  <SCORE.INTRA.POLAR.0>
0

>  <SCORE.INTRA.REPUL>
0

>  <SCORE.INTRA.REPUL.0>
0

>  <SCORE.INTRA.SOLV>
0.719429

>  <SCORE.INTRA.SOLV.lig_0>
-49.5008

>  <SCORE.INTRA.VDW>
-0.301627

>  <SCORE.INTRA.VDW.0>
-2.6946

>  <SCORE.INTRA.norm>
-0.115816

>  <SCORE.RESTR>
0.259513

>  <SCORE.RESTR.CAVITY>
0.259513

>  <SCORE.RESTR.norm>
0.0096116

>  <SCORE.SYSTEM>
0

>  <SCORE.SYSTEM.CONST>
0

>  <SCORE.SYSTEM.DIHEDRAL>
0

>  <SCORE.SYSTEM.SOLV>
0

>  <SCORE.SYSTEM.norm>
0

>  <SCORE.heavy>
27

>  <SCORE.norm>
-0.330595

>  <RMSD>
14.887

$$$$
ligand
 OpenBabel02271912153D
libRbt.so/2013.1/901 2013/11/27
 27 29  0  0  0  0  0  0  0  0999 V2000
   10.5069   -9.0027    4.9103 N   0  0  0  0  0  0  0  0  0  0  0  0
   10.2950   -8.4612    6.2392 C   0  0  2  0  0  0  0  0  0  0  0  0
   11.6298   -8.4079    6.9165 C   0  0  0  0  0  0  0  0  0  0  0  0
   11.7926   -7.6330    7.8835 O   0  0  0  0  0  0  0  0  0  0  0  0
    9.3321   -9.3494    7.0318 C   0  0  0  0  0  0  0  0  0  0  0  0
    8.7898   -8.6209    8.2815 C   0  0  0  0  0  0  0  0  0  0  0  0
    7.4775   -7.6095    8.0169 S   0  0  2  0  0  0  0  0  0  0  0  0
    7.1619   -6.7433    9.3985 C   0  0  0  0  0  0  0  0  0  0  0  0
    6.1335   -8.5256    7.5663 C   0  0  0  0  0  0  0  0  0  0  0  0
    5.7805   -9.6541    8.5580 C   0  0  1  0  0  0  0  0  0  0  0  0
    4.8252   -9.2538    9.5545 O   0  0  0  0  0  0  0  0  0  0  0  0
    5.0817  -10.8377    7.9086 C   0  0  1  0  0  0  0  0  0  0  0  0
    5.8901  -11.7338    7.1197 O   0  0  0  0  0  0  0  0  0  0  0  0
    4.4557  -11.4860    9.1186 C   0  0  1  0  0  0  0  0  0  0  0  0
    5.4590  -12.1142    9.9109 O   0  0  0  0  0  0  0  0  0  0  0  0
    3.9111  -10.3069    9.8693 C   0  0  2  0  0  0  0  0  0  0  0  0
   12.5502   -9.1635    6.5224 O   0  0  0  0  0  0  0  0  0  0  0  0
    0.1519   -6.7995    8.5123 N   0  0  0  0  0  0  0  0  0  0  0  0
    1.4588   -6.5825    8.7979 C   0  0  0  0  0  0  0  0  0  0  0  0
    2.3031   -7.5712    9.1366 N   0  0  0  0  0  0  0  0  0  0  0  0
    1.9088   -8.8482    9.1937 C   0  0  0  0  0  0  0  0  0  0  0  0
    0.5210   -9.1486    8.8757 C   0  0  0  0  0  0  0  0  0  0  0  0
   -0.4071   -8.0501    8.5207 C   0  0  0  0  0  0  0  0  0  0  0  0
   -1.7337   -8.2725    8.2149 N   0  0  0  0  0  0  0  0  0  0  0  0
    0.4024  -10.4518    8.9921 N   0  0  0  0  0  0  0  0  0  0  0  0
    1.5823  -10.9633    9.3692 C   0  0  0  0  0  0  0  0  0  0  0  0
    2.4980  -10.0027    9.4879 N   0  0  0  0  0  0  0  0  0  0  0  0
  2  1  1  6  0  0  0
  2  3  1  0  0  0  0
  2  5  1  0  0  0  0
  3  4  1  0  0  0  0
  3 17  1  0  0  0  0
  5  6  1  0  0  0  0
  7  6  1  1  0  0  0
  7  8  1  0  0  0  0
  7  9  1  0  0  0  0
 10  9  1  6  0  0  0
 10 11  1  0  0  0  0
 10 12  1  0  0  0  0
 11 16  1  0  0  0  0
 12 13  1  1  0  0  0
 12 14  1  0  0  0  0
 14 15  1  1  0  0  0
 14 16  1  0  0  0  0
 16 27  1  6  0  0  0
 18 19  2  0  0  0  0
 18 23  1  0  0  0  0
 19 20  1  0  0  0  0
 20 21  2  0  0  0  0
 21 22  1  0  0  0  0
 21 27  1  0  0  0  0
 22 23  2  0  0  0  0
 22 25  1  0  0  0  0
 23 24  1  0  0  0  0
 25 26  2  0  0  0  0
 26 27  1  0  0  0  0
M  END
>  <CHROM.1>
158.64122872,-164.57052959,83.34700560,-171.80781673,54.35680869,92.21573626
-16.97368971,5.42726899,-9.04348791,8.27011564,0.05364926,0.18997798,-0.11999736

>  <Name>
ligand

>  <RI>
0

>  <Rbt.Current_Directory>
/home/itssahil/PROJECTS/Mol_Feturizer/Test_systems_manuscript/rnas/4kqy

>  <Rbt.Executable>
rbdock ($Id: //depot/dev/client3/rdock/2013.1/src/exe/rbdock.cxx#4 $)

>  <Rbt.Library>
libRbt.so (2013.1, Build901 2013/11/27)

>  <Rbt.Parameter_File>
/export/apps/rDock/src/rDock_2013.1_src/data/scripts/dock_solv.prm

>  <Rbt.Receptor>
prm/blind_docking_100.prm

>  <SCORE>
-13.9571

>  <SCORE.INTER>
-12.8626

>  <SCORE.INTER.CONST>
1

>  <SCORE.INTER.POLAR>
0

>  <SCORE.INTER.ROT>
7

>  <SCORE.INTER.SOLV>
17.5356

>  <SCORE.INTER.VDW>
-22.6869

>  <SCORE.INTER.norm>
-0.476393

>  <SCORE.INTRA>
-1.09444

>  <SCORE.INTRA.DIHEDRAL>
-1.79177

>  <SCORE.INTRA.DIHEDRAL.0>
10.4103

>  <SCORE.INTRA.POLAR>
0

>  <SCORE.INTRA.POLAR.0>
0

>  <SCORE.INTRA.REPUL>
0

>  <SCORE.INTRA.REPUL.0>
0

>  <SCORE.INTRA.SOLV>
-0.416301

>  <SCORE.INTRA.SOLV.lig_0>
-49.5008

>  <SCORE.INTRA.VDW>
0.00959298

>  <SCORE.INTRA.VDW.0>
-2.6946

>  <SCORE.INTRA.norm>
-0.0405349

>  <SCORE.RESTR>
0

>  <SCORE.RESTR.CAVITY>
0

>  <SCORE.RESTR.norm>
0

>  <SCORE.SYSTEM>
0

>  <SCORE.SYSTEM.CONST>
0

>  <SCORE.SYSTEM.DIHEDRAL>
0

>  <SCORE.SYSTEM.SOLV>
0

>  <SCORE.SYSTEM.norm>
0

>  <SCORE.heavy>
27

>  <SCORE.norm>
-0.516928

>  <RMSD>
14.906

$$$$
ligand
 OpenBabel02271912153D
libRbt.so/2013.1/901 2013/11/27
 27 29  0  0  0  0  0  0  0  0999 V2000
    2.5223   -8.9781    8.9616 N   0  0  0  0  0  0  0  0  0  0  0  0
    3.8124   -9.5205    9.3429 C   0  0  2  0  0  0  0  0  0  0  0  0
    4.7947   -9.1177    8.2866 C   0  0  0  0  0  0  0  0  0  0  0  0
    4.3915   -8.9298    7.1185 O   0  0  0  0  0  0  0  0  0  0  0  0
    3.7414  -11.0463    9.4485 C   0  0  0  0  0  0  0  0  0  0  0  0
    2.6595  -11.4936   10.4564 C   0  0  0  0  0  0  0  0  0  0  0  0
    2.4962  -13.1517   10.6543 S   0  0  2  0  0  0  0  0  0  0  0  0
    1.1687  -13.4655   11.6019 C   0  0  0  0  0  0  0  0  0  0  0  0
    3.8947  -13.7822   11.3580 C   0  0  0  0  0  0  0  0  0  0  0  0
    3.8274  -15.2976   11.6425 C   0  0  1  0  0  0  0  0  0  0  0  0
    3.4480  -16.0731   10.4933 O   0  0  0  0  0  0  0  0  0  0  0  0
    5.1713  -15.9084   12.0056 C   0  0  1  0  0  0  0  0  0  0  0  0
    5.6836  -15.6458   13.3274 O   0  0  0  0  0  0  0  0  0  0  0  0
    4.8924  -17.3668   11.7378 C   0  0  1  0  0  0  0  0  0  0  0  0
    4.0307  -17.8925   12.7429 O   0  0  0  0  0  0  0  0  0  0  0  0
    4.1482  -17.3181   10.4363 C   0  0  2  0  0  0  0  0  0  0  0  0
    5.9974   -8.9454    8.5984 O   0  0  0  0  0  0  0  0  0  0  0  0
    6.5453  -20.2785    6.7261 N   0  0  0  0  0  0  0  0  0  0  0  0
    5.6875  -20.6631    7.7022 C   0  0  0  0  0  0  0  0  0  0  0  0
    5.1573  -19.8008    8.5857 N   0  0  0  0  0  0  0  0  0  0  0  0
    5.4284  -18.4915    8.5449 C   0  0  0  0  0  0  0  0  0  0  0  0
    6.3262  -18.0129    7.5045 C   0  0  0  0  0  0  0  0  0  0  0  0
    6.9202  -18.9732    6.5459 C   0  0  0  0  0  0  0  0  0  0  0  0
    7.7813  -18.5798    5.5425 N   0  0  0  0  0  0  0  0  0  0  0  0
    6.4115  -16.7133    7.6771 N   0  0  0  0  0  0  0  0  0  0  0  0
    5.6657  -16.3658    8.7349 C   0  0  0  0  0  0  0  0  0  0  0  0
    5.0649  -17.4325    9.2609 N   0  0  0  0  0  0  0  0  0  0  0  0
  2  1  1  6  0  0  0
  2  3  1  0  0  0  0
  2  5  1  0  0  0  0
  3  4  1  0  0  0  0
  3 17  1  0  0  0  0
  5  6  1  0  0  0  0
  7  6  1  1  0  0  0
  7  8  1  0  0  0  0
  7  9  1  0  0  0  0
 10  9  1  6  0  0  0
 10 11  1  0  0  0  0
 10 12  1  0  0  0  0
 11 16  1  0  0  0  0
 12 13  1  1  0  0  0
 12 14  1  0  0  0  0
 14 15  1  1  0  0  0
 14 16  1  0  0  0  0
 16 27  1  6  0  0  0
 18 19  2  0  0  0  0
 18 23  1  0  0  0  0
 19 20  1  0  0  0  0
 20 21  2  0  0  0  0
 21 22  1  0  0  0  0
 21 27  1  0  0  0  0
 22 23  2  0  0  0  0
 22 25  1  0  0  0  0
 23 24  1  0  0  0  0
 25 26  2  0  0  0  0
 26 27  1  0  0  0  0
M  END
>  <CHROM.1>
-28.27850281,-57.30163346,-179.89006652,-172.37890039,177.47637667,52.49200731
-147.99762172,4.58675525,-14.96349583,9.56108875,-2.10443857,-1.05559792
2.78324964

>  <Name>
ligand

>  <RI>
0

>  <Rbt.Current_Directory>
/home/itssahil/PROJECTS/Mol_Feturizer/Test_systems_manuscript/rnas/4kqy

>  <Rbt.Executable>
rbdock ($Id: //depot/dev/client3/rdock/2013.1/src/exe/rbdock.cxx#4 $)

>  <Rbt.Library>
libRbt.so (2013.1, Build901 2013/11/27)

>  <Rbt.Parameter_File>
/export/apps/rDock/src/rDock_2013.1_src/data/scripts/dock_solv.prm

>  <Rbt.Receptor>
prm/blind_docking_100.prm

>  <SCORE>
-18.9574

>  <SCORE.INTER>
-16.0382

>  <SCORE.INTER.CONST>
1

>  <SCORE.INTER.POLAR>
0

>  <SCORE.INTER.ROT>
7

>  <SCORE.INTER.SOLV>
17.4169

>  <SCORE.INTER.VDW>
-24.7644

>  <SCORE.INTER.norm>
-0.594006

>  <SCORE.INTRA>
-2.91925

>  <SCORE.INTRA.DIHEDRAL>
-7.21818

>  <SCORE.INTRA.DIHEDRAL.0>
10.4103

>  <SCORE.INTRA.POLAR>
0

>  <SCORE.INTRA.POLAR.0>
0

>  <SCORE.INTRA.REPUL>
0

>  <SCORE.INTRA.REPUL.0>
0

>  <SCORE.INTRA.SOLV>
0.138058

>  <SCORE.INTRA.SOLV.lig_0>
-49.5008

>  <SCORE.INTRA.VDW>
0.620809

>  <SCORE.INTRA.VDW.0>
-2.6946

>  <SCORE.INTRA.norm>
-0.10812

>  <SCORE.RESTR>
0

>  <SCORE.RESTR.CAVITY>
0

>  <SCORE.RESTR.norm>
0

>  <SCORE.SYSTEM>
0

>  <SCORE.SYSTEM.CONST>
0

>  <SCORE.SYSTEM.DIHEDRAL>
0

>  <SCORE.SYSTEM.SOLV>
0

>  <SCORE.SYSTEM.norm>
0

>  <SCORE.heavy>
27

>  <SCORE.norm>
-0.702127

>  <RMSD>
14.983

$$$$
ligand
 OpenBabel02271912153D
libRbt.so/2013.1/901 2013/11/27
 27 29  0  0  0  0  0  0  0  0999 V2000
   -0.4632  -10.8621   13.4162 N   0  0  0  0  0  0  0  0  0  0  0  0
   -0.4376  -10.0233   12.2330 C   0  0  2  0  0  0  0  0  0  0  0  0
   -1.1653  -10.7586   11.1500 C   0  0  0  0  0  0  0  0  0  0  0  0
   -0.9481  -11.9789   10.9891 O   0  0  0  0  0  0  0  0  0  0  0  0
    1.0061   -9.7426   11.8072 C   0  0  0  0  0  0  0  0  0  0  0  0
    1.0653   -8.7249   10.6464 C   0  0  0  0  0  0  0  0  0  0  0  0
    1.7235   -9.2990    9.2137 S   0  0  2  0  0  0  0  0  0  0  0  0
    0.7473  -10.4938    8.5986 C   0  0  0  0  0  0  0  0  0  0  0  0
    3.2802   -9.8865    9.4967 C   0  0  0  0  0  0  0  0  0  0  0  0
    4.0152  -10.3584    8.2244 C   0  0  1  0  0  0  0  0  0  0  0  0
    4.4817   -9.2738    7.4048 O   0  0  0  0  0  0  0  0  0  0  0  0
    5.3029  -11.1138    8.5109 C   0  0  1  0  0  0  0  0  0  0  0  0
    5.1845  -12.4687    8.9895 O   0  0  0  0  0  0  0  0  0  0  0  0
    5.9941  -10.9968    7.1750 C   0  0  1  0  0  0  0  0  0  0  0  0
    5.3510  -11.8318    6.2168 O   0  0  0  0  0  0  0  0  0  0  0  0
    5.7499   -9.5621    6.8113 C   0  0  2  0  0  0  0  0  0  0  0  0
   -2.0020  -10.1452   10.4451 O   0  0  0  0  0  0  0  0  0  0  0  0
   10.9278   -8.4139    7.1947 N   0  0  0  0  0  0  0  0  0  0  0  0
   10.3296   -9.4668    6.5862 C   0  0  0  0  0  0  0  0  0  0  0  0
    8.9971   -9.6380    6.5727 N   0  0  0  0  0  0  0  0  0  0  0  0
    8.1662   -8.7606    7.1464 C   0  0  0  0  0  0  0  0  0  0  0  0
    8.7472   -7.5961    7.7974 C   0  0  0  0  0  0  0  0  0  0  0  0
   10.2183   -7.4246    7.8230 C   0  0  0  0  0  0  0  0  0  0  0  0
   10.8267   -6.3450    8.4288 N   0  0  0  0  0  0  0  0  0  0  0  0
    7.7319   -6.9017    8.2587 N   0  0  0  0  0  0  0  0  0  0  0  0
    6.5949   -7.5471    7.9647 C   0  0  0  0  0  0  0  0  0  0  0  0
    6.8481   -8.6672    7.2888 N   0  0  0  0  0  0  0  0  0  0  0  0
  2  1  1  1  0  0  0
  2  3  1  0  0  0  0
  2  5  1  0  0  0  0
  3  4  1  0  0  0  0
  3 17  1  0  0  0  0
  5  6  1  0  0  0  0
  7  6  1  1  0  0  0
  7  8  1  0  0  0  0
  7  9  1  0  0  0  0
 10  9  1  1  0  0  0
 10 11  1  0  0  0  0
 10 12  1  0  0  0  0
 11 16  1  0  0  0  0
 12 13  1  6  0  0  0
 12 14  1  0  0  0  0
 14 15  1  6  0  0  0
 14 16  1  0  0  0  0
 16 27  1  1  0  0  0
 18 19  2  0  0  0  0
 18 23  1  0  0  0  0
 19 20  1  0  0  0  0
 20 21  2  0  0  0  0
 21 22  1  0  0  0  0
 21 27  1  0  0  0  0
 22 23  2  0  0  0  0
 22 25  1  0  0  0  0
 23 24  1  0  0  0  0
 25 26  2  0  0  0  0
 26 27  1  0  0  0  0
M  END
>  <CHROM.1>
-43.79078961,-173.64060909,-117.42719251,64.88723408,-176.29517137,74.84487604
167.44526578,4.47457202,-9.61541066,8.80050179,-3.09185975,-0.41689633,-2.51025557

>  <Name>
ligand

>  <RI>
0

>  <Rbt.Current_Directory>
/home/itssahil/PROJECTS/Mol_Feturizer/Test_systems_manuscript/rnas/4kqy

>  <Rbt.Executable>
rbdock ($Id: //depot/dev/client3/rdock/2013.1/src/exe/rbdock.cxx#4 $)

>  <Rbt.Library>
libRbt.so (2013.1, Build901 2013/11/27)

>  <Rbt.Parameter_File>
/export/apps/rDock/src/rDock_2013.1_src/data/scripts/dock_solv.prm

>  <Rbt.Receptor>
prm/blind_docking_80.prm

>  <SCORE>
-12.8854

>  <SCORE.INTER>
-12.2395

>  <SCORE.INTER.CONST>
1

>  <SCORE.INTER.POLAR>
0

>  <SCORE.INTER.ROT>
7

>  <SCORE.INTER.SOLV>
12.0825

>  <SCORE.INTER.VDW>
-20.4538

>  <SCORE.INTER.norm>
-0.453313

>  <SCORE.INTRA>
-0.647229

>  <SCORE.INTRA.DIHEDRAL>
-1.17836

>  <SCORE.INTRA.DIHEDRAL.0>
10.4103

>  <SCORE.INTRA.POLAR>
0

>  <SCORE.INTRA.POLAR.0>
0

>  <SCORE.INTRA.REPUL>
0

>  <SCORE.INTRA.REPUL.0>
0

>  <SCORE.INTRA.SOLV>
-0.674172

>  <SCORE.INTRA.SOLV.lig_0>
-49.5008

>  <SCORE.INTRA.VDW>
0.279037

>  <SCORE.INTRA.VDW.0>
-2.6946

>  <SCORE.INTRA.norm>
-0.0239714

>  <SCORE.RESTR>
0.00128347

>  <SCORE.RESTR.CAVITY>
0.00128347

>  <SCORE.RESTR.norm>
4.75359e-05

>  <SCORE.SYSTEM>
0

>  <SCORE.SYSTEM.CONST>
0

>  <SCORE.SYSTEM.DIHEDRAL>
0

>  <SCORE.SYSTEM.SOLV>
0

>  <SCORE.SYSTEM.norm>
0

>  <SCORE.heavy>
27

>  <SCORE.norm>
-0.477237

>  <RMSD>
15.047

$$$$
ligand
 OpenBabel02271912153D
libRbt.so/2013.1/901 2013/11/27
 27 29  0  0  0  0  0  0  0  0999 V2000
   -2.3257  -11.3573   12.2256 N   0  0  0  0  0  0  0  0  0  0  0  0
   -1.5967  -10.4788   11.3306 C   0  0  2  0  0  0  0  0  0  0  0  0
   -2.5106  -10.1453   10.1918 C   0  0  0  0  0  0  0  0  0  0  0  0
   -3.6758  -10.5974   10.1924 O   0  0  0  0  0  0  0  0  0  0  0  0
   -0.3331  -11.1711   10.8128 C   0  0  0  0  0  0  0  0  0  0  0  0
    0.6376  -10.1617   10.1605 C   0  0  0  0  0  0  0  0  0  0  0  0
    2.1244  -10.7848    9.6953 S   0  0  2  0  0  0  0  0  0  0  0  0
    2.9787  -11.2385   11.0456 C   0  0  0  0  0  0  0  0  0  0  0  0
    2.9762   -9.6269    8.8109 C   0  0  0  0  0  0  0  0  0  0  0  0
    3.9247  -10.2200    7.7477 C   0  0  1  0  0  0  0  0  0  0  0  0
    4.5712   -9.2189    6.9442 O   0  0  0  0  0  0  0  0  0  0  0  0
    5.1110  -10.9646    8.3387 C   0  0  1  0  0  0  0  0  0  0  0  0
    4.8625  -12.2699    8.8984 O   0  0  0  0  0  0  0  0  0  0  0  0
    6.0465  -10.9762    7.1552 C   0  0  1  0  0  0  0  0  0  0  0  0
    5.5719  -11.8840    6.1654 O   0  0  0  0  0  0  0  0  0  0  0  0
    5.9196   -9.5762    6.6315 C   0  0  2  0  0  0  0  0  0  0  0  0
   -2.1016   -9.3938    9.2747 O   0  0  0  0  0  0  0  0  0  0  0  0
   10.9912   -8.1939    7.4341 N   0  0  0  0  0  0  0  0  0  0  0  0
   10.4923   -9.2369    6.7271 C   0  0  0  0  0  0  0  0  0  0  0  0
    9.1748   -9.4739    6.6124 N   0  0  0  0  0  0  0  0  0  0  0  0
    8.2617   -8.6757    7.1768 C   0  0  0  0  0  0  0  0  0  0  0  0
    8.7346   -7.5249    7.9313 C   0  0  0  0  0  0  0  0  0  0  0  0
   10.1894   -7.2815    8.0676 C   0  0  0  0  0  0  0  0  0  0  0  0
   10.6972   -6.2112    8.7743 N   0  0  0  0  0  0  0  0  0  0  0  0
    7.6551   -6.9117    8.3607 N   0  0  0  0  0  0  0  0  0  0  0  0
    6.5765   -7.5946    7.9531 C   0  0  0  0  0  0  0  0  0  0  0  0
    6.9340   -8.6576    7.2335 N   0  0  0  0  0  0  0  0  0  0  0  0
  2  1  1  1  0  0  0
  2  3  1  0  0  0  0
  2  5  1  0  0  0  0
  3  4  1  0  0  0  0
  3 17  1  0  0  0  0
  5  6  1  0  0  0  0
  7  6  1  1  0  0  0
  7  8  1  0  0  0  0
  7  9  1  0  0  0  0
 10  9  1  1  0  0  0
 10 11  1  0  0  0  0
 10 12  1  0  0  0  0
 11 16  1  0  0  0  0
 12 13  1  6  0  0  0
 12 14  1  0  0  0  0
 14 15  1  6  0  0  0
 14 16  1  0  0  0  0
 16 27  1  1  0  0  0
 18 19  2  0  0  0  0
 18 23  1  0  0  0  0
 19 20  1  0  0  0  0
 20 21  2  0  0  0  0
 21 22  1  0  0  0  0
 21 27  1  0  0  0  0
 22 23  2  0  0  0  0
 22 25  1  0  0  0  0
 23 24  1  0  0  0  0
 25 26  2  0  0  0  0
 26 27  1  0  0  0  0
M  END
>  <CHROM.1>
1.86778573,-165.47659673,174.10520628,-66.33733645,-149.51217636,175.98101903
179.26246895,4.26420792,-9.73494923,8.66118217,3.07572882,-0.34511054,-2.68104350

>  <Name>
ligand

>  <RI>
0

>  <Rbt.Current_Directory>
/home/itssahil/PROJECTS/Mol_Feturizer/Test_systems_manuscript/rnas/4kqy

>  <Rbt.Executable>
rbdock ($Id: //depot/dev/client3/rdock/2013.1/src/exe/rbdock.cxx#4 $)

>  <Rbt.Library>
libRbt.so (2013.1, Build901 2013/11/27)

>  <Rbt.Parameter_File>
/export/apps/rDock/src/rDock_2013.1_src/data/scripts/dock_solv.prm

>  <Rbt.Receptor>
prm/blind_docking_40.prm

>  <SCORE>
-11.8901

>  <SCORE.INTER>
-10.7077

>  <SCORE.INTER.CONST>
1

>  <SCORE.INTER.POLAR>
0

>  <SCORE.INTER.ROT>
7

>  <SCORE.INTER.SOLV>
12.2832

>  <SCORE.INTER.VDW>
-19.4996

>  <SCORE.INTER.norm>
-0.396582

>  <SCORE.INTRA>
-1.18238

>  <SCORE.INTRA.DIHEDRAL>
-4.14591

>  <SCORE.INTRA.DIHEDRAL.0>
10.4103

>  <SCORE.INTRA.POLAR>
0

>  <SCORE.INTRA.POLAR.0>
0

>  <SCORE.INTRA.REPUL>
0

>  <SCORE.INTRA.REPUL.0>
0

>  <SCORE.INTRA.SOLV>
-0.308958

>  <SCORE.INTRA.SOLV.lig_0>
-49.5008

>  <SCORE.INTRA.VDW>
1.04506

>  <SCORE.INTRA.VDW.0>
-2.6946

>  <SCORE.INTRA.norm>
-0.0437918

>  <SCORE.RESTR>
0

>  <SCORE.RESTR.CAVITY>
0

>  <SCORE.RESTR.norm>
0

>  <SCORE.SYSTEM>
0

>  <SCORE.SYSTEM.CONST>
0

>  <SCORE.SYSTEM.DIHEDRAL>
0

>  <SCORE.SYSTEM.SOLV>
0

>  <SCORE.SYSTEM.norm>
0

>  <SCORE.heavy>
27

>  <SCORE.norm>
-0.440374

>  <RMSD>
15.074

$$$$
ligand
 OpenBabel02271912153D
libRbt.so/2013.1/901 2013/11/27
 27 29  0  0  0  0  0  0  0  0999 V2000
    3.3950   -8.2403    8.5878 N   0  0  0  0  0  0  0  0  0  0  0  0
    4.3341   -9.3309    8.7689 C   0  0  2  0  0  0  0  0  0  0  0  0
    4.9786   -9.5886    7.4417 C   0  0  0  0  0  0  0  0  0  0  0  0
    6.1613   -9.9913    7.4059 O   0  0  0  0  0  0  0  0  0  0  0  0
    3.6081  -10.5864    9.2596 C   0  0  0  0  0  0  0  0  0  0  0  0
    4.6042  -11.6583    9.7550 C   0  0  0  0  0  0  0  0  0  0  0  0
    3.9180  -13.0978   10.2768 S   0  0  2  0  0  0  0  0  0  0  0  0
    2.8018  -12.7776   11.4644 C   0  0  0  0  0  0  0  0  0  0  0  0
    5.1240  -14.1283   10.8529 C   0  0  0  0  0  0  0  0  0  0  0  0
    4.5888  -15.4247   11.4969 C   0  0  1  0  0  0  0  0  0  0  0  0
    3.8520  -16.2502   10.5795 O   0  0  0  0  0  0  0  0  0  0  0  0
    5.6847  -16.3701   11.9617 C   0  0  1  0  0  0  0  0  0  0  0  0
    6.3946  -16.0209   13.1670 O   0  0  0  0  0  0  0  0  0  0  0  0
    4.9106  -17.6612   12.0618 C   0  0  1  0  0  0  0  0  0  0  0  0
    4.0371  -17.6218   13.1862 O   0  0  0  0  0  0  0  0  0  0  0  0
    4.0889  -17.6415   10.8069 C   0  0  2  0  0  0  0  0  0  0  0  0
    4.3115   -9.4262    6.3920 O   0  0  0  0  0  0  0  0  0  0  0  0
    6.9842  -17.3862    6.3540 N   0  0  0  0  0  0  0  0  0  0  0  0
    6.5393  -16.3773    7.1420 C   0  0  0  0  0  0  0  0  0  0  0  0
    5.8030  -16.5875    8.2461 N   0  0  0  0  0  0  0  0  0  0  0  0
    5.4765  -17.8190    8.6536 C   0  0  0  0  0  0  0  0  0  0  0  0
    5.9441  -18.9462    7.8611 C   0  0  0  0  0  0  0  0  0  0  0  0
    6.7402  -18.7045    6.6355 C   0  0  0  0  0  0  0  0  0  0  0  0
    7.2062  -19.7318    5.8417 N   0  0  0  0  0  0  0  0  0  0  0  0
    5.5053  -20.0211    8.4760 N   0  0  0  0  0  0  0  0  0  0  0  0
    4.8010  -19.6480    9.5534 C   0  0  0  0  0  0  0  0  0  0  0  0
    4.7833  -18.3208    9.6705 N   0  0  0  0  0  0  0  0  0  0  0  0
  2  1  1  6  0  0  0
  2  3  1  0  0  0  0
  2  5  1  0  0  0  0
  3  4  1  0  0  0  0
  3 17  1  0  0  0  0
  5  6  1  0  0  0  0
  7  6  1  1  0  0  0
  7  8  1  0  0  0  0
  7  9  1  0  0  0  0
 10  9  1  6  0  0  0
 10 11  1  0  0  0  0
 10 12  1  0  0  0  0
 11 16  1  0  0  0  0
 12 13  1  1  0  0  0
 12 14  1  0  0  0  0
 14 15  1  1  0  0  0
 14 16  1  0  0  0  0
 16 27  1  6  0  0  0
 18 19  2  0  0  0  0
 18 23  1  0  0  0  0
 19 20  1  0  0  0  0
 20 21  2  0  0  0  0
 21 22  1  0  0  0  0
 21 27  1  0  0  0  0
 22 23  2  0  0  0  0
 22 25  1  0  0  0  0
 23 24  1  0  0  0  0
 25 26  2  0  0  0  0
 26 27  1  0  0  0  0
M  END
>  <CHROM.1>
147.92915621,-167.48537327,-178.32916048,-55.60056224,173.86958725,61.99858199
17.64797024,4.98002917,-14.97278798,9.42300631,-2.02722187,-1.20894562,2.64133704

>  <Name>
ligand

>  <RI>
0

>  <Rbt.Current_Directory>
/home/itssahil/PROJECTS/Mol_Feturizer/Test_systems_manuscript/rnas/4kqy

>  <Rbt.Executable>
rbdock ($Id: //depot/dev/client3/rdock/2013.1/src/exe/rbdock.cxx#4 $)

>  <Rbt.Library>
libRbt.so (2013.1, Build901 2013/11/27)

>  <Rbt.Parameter_File>
/export/apps/rDock/src/rDock_2013.1_src/data/scripts/dock_solv.prm

>  <Rbt.Receptor>
prm/blind_docking_60.prm

>  <SCORE>
-19.4724

>  <SCORE.INTER>
-15.9223

>  <SCORE.INTER.CONST>
1

>  <SCORE.INTER.POLAR>
0

>  <SCORE.INTER.ROT>
7

>  <SCORE.INTER.SOLV>
20.0556

>  <SCORE.INTER.VDW>
-25.5667

>  <SCORE.INTER.norm>
-0.589714

>  <SCORE.INTRA>
-3.5501

>  <SCORE.INTRA.DIHEDRAL>
-6.9796

>  <SCORE.INTRA.DIHEDRAL.0>
10.4103

>  <SCORE.INTRA.POLAR>
0

>  <SCORE.INTRA.POLAR.0>
0

>  <SCORE.INTRA.REPUL>
0

>  <SCORE.INTRA.REPUL.0>
0

>  <SCORE.INTRA.SOLV>
-0.625424

>  <SCORE.INTRA.SOLV.lig_0>
-49.5008

>  <SCORE.INTRA.VDW>
0.252413

>  <SCORE.INTRA.VDW.0>
-2.6946

>  <SCORE.INTRA.norm>
-0.131485

>  <SCORE.RESTR>
0

>  <SCORE.RESTR.CAVITY>
0

>  <SCORE.RESTR.norm>
0

>  <SCORE.SYSTEM>
0

>  <SCORE.SYSTEM.CONST>
0

>  <SCORE.SYSTEM.DIHEDRAL>
0

>  <SCORE.SYSTEM.SOLV>
0

>  <SCORE.SYSTEM.norm>
0

>  <SCORE.heavy>
27

>  <SCORE.norm>
-0.721199

>  <RMSD>
15.130

$$$$
ligand
 OpenBabel02271912153D
libRbt.so/2013.1/901 2013/11/27
 27 29  0  0  0  0  0  0  0  0999 V2000
   10.7346  -19.4250    4.9609 N   0  0  0  0  0  0  0  0  0  0  0  0
    9.6873  -18.4337    5.1182 C   0  0  2  0  0  0  0  0  0  0  0  0
   10.2918  -17.2543    5.8159 C   0  0  0  0  0  0  0  0  0  0  0  0
    9.8528  -16.1099    5.5709 O   0  0  0  0  0  0  0  0  0  0  0  0
    8.5305  -19.0037    5.9435 C   0  0  0  0  0  0  0  0  0  0  0  0
    7.4096  -17.9594    6.1424 C   0  0  0  0  0  0  0  0  0  0  0  0
    6.0367  -18.5130    6.9323 S   0  0  2  0  0  0  0  0  0  0  0  0
    5.0914  -19.3636    5.8637 C   0  0  0  0  0  0  0  0  0  0  0  0
    5.1834  -17.2067    7.5755 C   0  0  0  0  0  0  0  0  0  0  0  0
    5.5652  -16.8612    9.0304 C   0  0  1  0  0  0  0  0  0  0  0  0
    5.7081  -15.4492    9.2581 O   0  0  0  0  0  0  0  0  0  0  0  0
    4.4978  -17.2379   10.0451 C   0  0  1  0  0  0  0  0  0  0  0  0
    4.3594  -18.6348   10.3743 O   0  0  0  0  0  0  0  0  0  0  0  0
    4.9091  -16.3740   11.2115 C   0  0  1  0  0  0  0  0  0  0  0  0
    6.0974  -16.8878   11.8056 O   0  0  0  0  0  0  0  0  0  0  0  0
    5.2239  -15.0662   10.5475 C   0  0  2  0  0  0  0  0  0  0  0  0
   11.2050  -17.4379    6.6558 O   0  0  0  0  0  0  0  0  0  0  0  0
    0.0907  -14.1330   11.5751 N   0  0  0  0  0  0  0  0  0  0  0  0
    0.8287  -15.2369   11.8462 C   0  0  0  0  0  0  0  0  0  0  0  0
    2.1280  -15.3412   11.5206 N   0  0  0  0  0  0  0  0  0  0  0  0
    2.7882  -14.3442   10.9209 C   0  0  0  0  0  0  0  0  0  0  0  0
    2.0555  -13.1227   10.6234 C   0  0  0  0  0  0  0  0  0  0  0  0
    0.6187  -13.0233   10.9698 C   0  0  0  0  0  0  0  0  0  0  0  0
   -0.1288  -11.8939   10.7080 N   0  0  0  0  0  0  0  0  0  0  0  0
    2.9237  -12.3145   10.0585 N   0  0  0  0  0  0  0  0  0  0  0  0
    4.1054  -12.9403    9.9695 C   0  0  0  0  0  0  0  0  0  0  0  0
    4.0333  -14.1637   10.4926 N   0  0  0  0  0  0  0  0  0  0  0  0
  2  1  1  1  0  0  0
  2  3  1  0  0  0  0
  2  5  1  0  0  0  0
  3  4  1  0  0  0  0
  3 17  1  0  0  0  0
  5  6  1  0  0  0  0
  7  6  1  6  0  0  0
  7  8  1  0  0  0  0
  7  9  1  0  0  0  0
 10  9  1  6  0  0  0
 10 11  1  0  0  0  0
 10 12  1  0  0  0  0
 11 16  1  0  0  0  0
 12 13  1  1  0  0  0
 12 14  1  0  0  0  0
 14 15  1  6  0  0  0
 14 16  1  0  0  0  0
 16 27  1  6  0  0  0
 18 19  2  0  0  0  0
 18 23  1  0  0  0  0
 19 20  1  0  0  0  0
 20 21  2  0  0  0  0
 21 22  1  0  0  0  0
 21 27  1  0  0  0  0
 22 23  2  0  0  0  0
 22 25  1  0  0  0  0
 23 24  1  0  0  0  0
 25 26  2  0  0  0  0
 26 27  1  0  0  0  0
M  END
>  <CHROM.1>
148.80213001,179.20010605,175.44383256,-79.22307699,-91.98855469,136.60874822
116.64686313,5.31935421,-16.25208142,8.80257127,-0.55701335,0.52254970,0.19148607

>  <Name>
ligand

>  <RI>
0

>  <Rbt.Current_Directory>
/home/itssahil/PROJECTS/Mol_Feturizer/Test_systems_manuscript/rnas/4kqy

>  <Rbt.Executable>
rbdock ($Id: //depot/dev/client3/rdock/2013.1/src/exe/rbdock.cxx#4 $)

>  <Rbt.Library>
libRbt.so (2013.1, Build901 2013/11/27)

>  <Rbt.Parameter_File>
/export/apps/rDock/src/rDock_2013.1_src/data/scripts/dock_solv.prm

>  <Rbt.Receptor>
prm/blind_docking_100.prm

>  <SCORE>
-22.159

>  <SCORE.INTER>
-22.4925

>  <SCORE.INTER.CONST>
1

>  <SCORE.INTER.POLAR>
0

>  <SCORE.INTER.ROT>
7

>  <SCORE.INTER.SOLV>
20.0001

>  <SCORE.INTER.VDW>
-29.9284

>  <SCORE.INTER.norm>
-0.833055

>  <SCORE.INTRA>
0.333525

>  <SCORE.INTRA.DIHEDRAL>
0.462524

>  <SCORE.INTRA.DIHEDRAL.0>
10.4103

>  <SCORE.INTRA.POLAR>
0

>  <SCORE.INTRA.POLAR.0>
0

>  <SCORE.INTRA.REPUL>
0

>  <SCORE.INTRA.REPUL.0>
0

>  <SCORE.INTRA.SOLV>
-0.641268

>  <SCORE.INTRA.SOLV.lig_0>
-49.5008

>  <SCORE.INTRA.VDW>
0.422897

>  <SCORE.INTRA.VDW.0>
-2.6946

>  <SCORE.INTRA.norm>
0.0123528

>  <SCORE.RESTR>
0

>  <SCORE.RESTR.CAVITY>
0

>  <SCORE.RESTR.norm>
0

>  <SCORE.SYSTEM>
0

>  <SCORE.SYSTEM.CONST>
0

>  <SCORE.SYSTEM.DIHEDRAL>
0

>  <SCORE.SYSTEM.SOLV>
0

>  <SCORE.SYSTEM.norm>
0

>  <SCORE.heavy>
27

>  <SCORE.norm>
-0.820702

>  <RMSD>
15.183

$$$$
ligand
 OpenBabel02271912153D
libRbt.so/2013.1/901 2013/11/27
 27 29  0  0  0  0  0  0  0  0999 V2000
   -0.8659  -12.5409   12.0499 N   0  0  0  0  0  0  0  0  0  0  0  0
    0.2602  -12.0767   11.2621 C   0  0  2  0  0  0  0  0  0  0  0  0
    1.2238  -13.2175   11.1474 C   0  0  0  0  0  0  0  0  0  0  0  0
    2.1323  -13.1647   10.2906 O   0  0  0  0  0  0  0  0  0  0  0  0
    0.9317  -10.8802   11.9416 C   0  0  0  0  0  0  0  0  0  0  0  0
    2.0987  -10.3294   11.0923 C   0  0  0  0  0  0  0  0  0  0  0  0
    1.6533   -9.4623    9.7266 S   0  0  2  0  0  0  0  0  0  0  0  0
    0.8716  -10.4712    8.6638 C   0  0  0  0  0  0  0  0  0  0  0  0
    3.0230   -8.7851    9.0096 C   0  0  0  0  0  0  0  0  0  0  0  0
    4.0182   -9.8233    8.4499 C   0  0  1  0  0  0  0  0  0  0  0  0
    4.7504   -9.3475    7.3082 O   0  0  0  0  0  0  0  0  0  0  0  0
    5.1366  -10.1766    9.4170 C   0  0  1  0  0  0  0  0  0  0  0  0
    4.8069  -11.0364   10.5264 O   0  0  0  0  0  0  0  0  0  0  0  0
    6.1470  -10.7684    8.4657 C   0  0  1  0  0  0  0  0  0  0  0  0
    5.7073  -12.0475    8.0188 O   0  0  0  0  0  0  0  0  0  0  0  0
    6.1033   -9.8094    7.3130 C   0  0  2  0  0  0  0  0  0  0  0  0
    1.1219  -14.1902   11.9326 O   0  0  0  0  0  0  0  0  0  0  0  0
   11.0919   -8.0275    6.8499 N   0  0  0  0  0  0  0  0  0  0  0  0
   10.5920   -9.2521    6.5550 C   0  0  0  0  0  0  0  0  0  0  0  0
    9.2986   -9.5711    6.7299 N   0  0  0  0  0  0  0  0  0  0  0  0
    8.4087   -8.6852    7.1910 C   0  0  0  0  0  0  0  0  0  0  0  0
    8.8801   -7.3449    7.5049 C   0  0  0  0  0  0  0  0  0  0  0  0
   10.3113   -7.0073    7.3259 C   0  0  0  0  0  0  0  0  0  0  0  0
   10.8174   -5.7562    7.6114 N   0  0  0  0  0  0  0  0  0  0  0  0
    7.8233   -6.6824    7.9174 N   0  0  0  0  0  0  0  0  0  0  0  0
    6.7631   -7.5020    7.9006 C   0  0  0  0  0  0  0  0  0  0  0  0
    7.1070   -8.7110    7.4584 N   0  0  0  0  0  0  0  0  0  0  0  0
  2  1  1  1  0  0  0
  2  3  1  0  0  0  0
  2  5  1  0  0  0  0
  3  4  1  0  0  0  0
  3 17  1  0  0  0  0
  5  6  1  0  0  0  0
  7  6  1  1  0  0  0
  7  8  1  0  0  0  0
  7  9  1  0  0  0  0
 10  9  1  1  0  0  0
 10 11  1  0  0  0  0
 10 12  1  0  0  0  0
 11 16  1  0  0  0  0
 12 13  1  1  0  0  0
 12 14  1  0  0  0  0
 14 15  1  6  0  0  0
 14 16  1  0  0  0  0
 16 27  1  1  0  0  0
 18 19  2  0  0  0  0
 18 23  1  0  0  0  0
 19 20  1  0  0  0  0
 20 21  2  0  0  0  0
 21 22  1  0  0  0  0
 21 27  1  0  0  0  0
 22 23  2  0  0  0  0
 22 25  1  0  0  0  0
 23 24  1  0  0  0  0
 25 26  2  0  0  0  0
 26 27  1  0  0  0  0
M  END
>  <CHROM.1>
165.00122229,-177.61673283,73.99139393,-64.72559626,65.14699734,149.48713302
-161.69025759,4.91360122,-9.93579403,8.96167730,2.66118883,-0.34053470,2.96432990

>  <Name>
ligand

>  <RI>
0

>  <Rbt.Current_Directory>
/home/itssahil/PROJECTS/Mol_Feturizer/Test_systems_manuscript/rnas/4kqy

>  <Rbt.Executable>
rbdock ($Id: //depot/dev/client3/rdock/2013.1/src/exe/rbdock.cxx#4 $)

>  <Rbt.Library>
libRbt.so (2013.1, Build901 2013/11/27)

>  <Rbt.Parameter_File>
/export/apps/rDock/src/rDock_2013.1_src/data/scripts/dock_solv.prm

>  <Rbt.Receptor>
prm/blind_docking_60.prm

>  <SCORE>
-11.9739

>  <SCORE.INTER>
-10.8165

>  <SCORE.INTER.CONST>
1

>  <SCORE.INTER.POLAR>
0

>  <SCORE.INTER.ROT>
7

>  <SCORE.INTER.SOLV>
8.14106

>  <SCORE.INTER.VDW>
-18.1913

>  <SCORE.INTER.norm>
-0.40061

>  <SCORE.INTRA>
-1.15745

>  <SCORE.INTRA.DIHEDRAL>
-4.18903

>  <SCORE.INTRA.DIHEDRAL.0>
10.4103

>  <SCORE.INTRA.POLAR>
0

>  <SCORE.INTRA.POLAR.0>
0

>  <SCORE.INTRA.REPUL>
0

>  <SCORE.INTRA.REPUL.0>
0

>  <SCORE.INTRA.SOLV>
0.230448

>  <SCORE.INTRA.SOLV.lig_0>
-49.5008

>  <SCORE.INTRA.VDW>
0.821835

>  <SCORE.INTRA.VDW.0>
-2.6946

>  <SCORE.INTRA.norm>
-0.0428686

>  <SCORE.RESTR>
0

>  <SCORE.RESTR.CAVITY>
0

>  <SCORE.RESTR.norm>
0

>  <SCORE.SYSTEM>
0

>  <SCORE.SYSTEM.CONST>
0

>  <SCORE.SYSTEM.DIHEDRAL>
0

>  <SCORE.SYSTEM.SOLV>
0

>  <SCORE.SYSTEM.norm>
0

>  <SCORE.heavy>
27

>  <SCORE.norm>
-0.443479

>  <RMSD>
15.190

$$$$
ligand
 OpenBabel02271912153D
libRbt.so/2013.1/901 2013/11/27
 27 29  0  0  0  0  0  0  0  0999 V2000
   10.1691  -19.0889    7.5331 N   0  0  0  0  0  0  0  0  0  0  0  0
    9.6221  -19.4627    6.2427 C   0  0  2  0  0  0  0  0  0  0  0  0
    9.8667  -18.3191    5.3071 C   0  0  0  0  0  0  0  0  0  0  0  0
   10.0298  -18.5511    4.0898 O   0  0  0  0  0  0  0  0  0  0  0  0
    8.1213  -19.7429    6.3585 C   0  0  0  0  0  0  0  0  0  0  0  0
    7.3505  -18.4989    6.8531 C   0  0  0  0  0  0  0  0  0  0  0  0
    5.7071  -18.7205    7.1092 S   0  0  2  0  0  0  0  0  0  0  0  0
    4.9822  -19.1660    5.6827 C   0  0  0  0  0  0  0  0  0  0  0  0
    5.0260  -17.2962    7.7058 C   0  0  0  0  0  0  0  0  0  0  0  0
    5.4262  -16.9686    9.1598 C   0  0  1  0  0  0  0  0  0  0  0  0
    5.4301  -15.5593    9.4422 O   0  0  0  0  0  0  0  0  0  0  0  0
    4.4441  -17.4949   10.1940 C   0  0  1  0  0  0  0  0  0  0  0  0
    4.4649  -18.9102   10.4683 O   0  0  0  0  0  0  0  0  0  0  0  0
    4.8085  -16.6379   11.3811 C   0  0  1  0  0  0  0  0  0  0  0  0
    6.0660  -17.0459   11.9113 O   0  0  0  0  0  0  0  0  0  0  0  0
    4.9593  -15.2796   10.7627 C   0  0  2  0  0  0  0  0  0  0  0  0
    9.8721  -17.1477    5.7556 O   0  0  0  0  0  0  0  0  0  0  0  0
    2.2764  -10.7705    9.8988 N   0  0  0  0  0  0  0  0  0  0  0  0
    3.5911  -11.0329    9.7006 C   0  0  0  0  0  0  0  0  0  0  0  0
    4.1432  -12.2275    9.9717 N   0  0  0  0  0  0  0  0  0  0  0  0
    3.4192  -13.2505   10.4393 C   0  0  0  0  0  0  0  0  0  0  0  0
    1.9955  -13.0378   10.6521 C   0  0  0  0  0  0  0  0  0  0  0  0
    1.3988  -11.7122   10.3675 C   0  0  0  0  0  0  0  0  0  0  0  0
    0.0576  -11.4493   10.5545 N   0  0  0  0  0  0  0  0  0  0  0  0
    1.5258  -14.1826   11.0934 N   0  0  0  0  0  0  0  0  0  0  0  0
    2.5349  -15.0595   11.1854 C   0  0  0  0  0  0  0  0  0  0  0  0
    3.6800  -14.5064   10.7874 N   0  0  0  0  0  0  0  0  0  0  0  0
  2  1  1  1  0  0  0
  2  3  1  0  0  0  0
  2  5  1  0  0  0  0
  3  4  1  0  0  0  0
  3 17  1  0  0  0  0
  5  6  1  0  0  0  0
  7  6  1  6  0  0  0
  7  8  1  0  0  0  0
  7  9  1  0  0  0  0
 10  9  1  6  0  0  0
 10 11  1  0  0  0  0
 10 12  1  0  0  0  0
 11 16  1  0  0  0  0
 12 13  1  1  0  0  0
 12 14  1  0  0  0  0
 14 15  1  6  0  0  0
 14 16  1  0  0  0  0
 16 27  1  6  0  0  0
 18 19  2  0  0  0  0
 18 23  1  0  0  0  0
 19 20  1  0  0  0  0
 20 21  2  0  0  0  0
 21 22  1  0  0  0  0
 21 27  1  0  0  0  0
 22 23  2  0  0  0  0
 22 25  1  0  0  0  0
 23 24  1  0  0  0  0
 25 26  2  0  0  0  0
 26 27  1  0  0  0  0
M  END
>  <CHROM.1>
149.74817528,60.29138307,-176.32602888,-60.71778858,-71.28011049,151.16468191
-68.72703692,5.32854673,-16.19445471,8.77505103,-0.44944313,0.78337898,-0.33502922

>  <Name>
ligand

>  <RI>
0

>  <Rbt.Current_Directory>
/home/itssahil/PROJECTS/Mol_Feturizer/Test_systems_manuscript/rnas/4kqy

>  <Rbt.Executable>
rbdock ($Id: //depot/dev/client3/rdock/2013.1/src/exe/rbdock.cxx#4 $)

>  <Rbt.Library>
libRbt.so (2013.1, Build901 2013/11/27)

>  <Rbt.Parameter_File>
/export/apps/rDock/src/rDock_2013.1_src/data/scripts/dock_solv.prm

>  <Rbt.Receptor>
prm/blind_docking_40.prm

>  <SCORE>
-18.9649

>  <SCORE.INTER>
-18.3187

>  <SCORE.INTER.CONST>
1

>  <SCORE.INTER.POLAR>
0

>  <SCORE.INTER.ROT>
7

>  <SCORE.INTER.SOLV>
20.6446

>  <SCORE.INTER.VDW>
-27.3606

>  <SCORE.INTER.norm>
-0.678469

>  <SCORE.INTRA>
-0.646193

>  <SCORE.INTRA.DIHEDRAL>
-4.88968

>  <SCORE.INTRA.DIHEDRAL.0>
10.4103

>  <SCORE.INTRA.POLAR>
0

>  <SCORE.INTRA.POLAR.0>
0

>  <SCORE.INTRA.REPUL>
0

>  <SCORE.INTRA.REPUL.0>
0

>  <SCORE.INTRA.SOLV>
0.143963

>  <SCORE.INTRA.SOLV.lig_0>
-49.5008

>  <SCORE.INTRA.VDW>
1.72666

>  <SCORE.INTRA.VDW.0>
-2.6946

>  <SCORE.INTRA.norm>
-0.0239331

>  <SCORE.RESTR>
0

>  <SCORE.RESTR.CAVITY>
0

>  <SCORE.RESTR.norm>
0

>  <SCORE.SYSTEM>
0

>  <SCORE.SYSTEM.CONST>
0

>  <SCORE.SYSTEM.DIHEDRAL>
0

>  <SCORE.SYSTEM.SOLV>
0

>  <SCORE.SYSTEM.norm>
0

>  <SCORE.heavy>
27

>  <SCORE.norm>
-0.702402

>  <RMSD>
15.191

$$$$
ligand
 OpenBabel02271912153D
libRbt.so/2013.1/901 2013/11/27
 27 29  0  0  0  0  0  0  0  0999 V2000
    9.8443  -17.2644    5.6631 N   0  0  0  0  0  0  0  0  0  0  0  0
    9.5162  -18.5658    6.2136 C   0  0  2  0  0  0  0  0  0  0  0  0
   10.6063  -19.5090    5.8072 C   0  0  0  0  0  0  0  0  0  0  0  0
   11.1820  -20.1896    6.6833 O   0  0  0  0  0  0  0  0  0  0  0  0
    8.1669  -19.0497    5.6756 C   0  0  0  0  0  0  0  0  0  0  0  0
    7.0059  -18.1664    6.1839 C   0  0  0  0  0  0  0  0  0  0  0  0
    6.5544  -18.4133    7.7809 S   0  0  2  0  0  0  0  0  0  0  0  0
    5.7319  -19.8509    7.9051 C   0  0  0  0  0  0  0  0  0  0  0  0
    5.5945  -17.1287    8.3070 C   0  0  0  0  0  0  0  0  0  0  0  0
    5.6198  -16.9090    9.8344 C   0  0  1  0  0  0  0  0  0  0  0  0
    5.5191  -15.5250   10.2091 O   0  0  0  0  0  0  0  0  0  0  0  0
    4.4290  -17.5188   10.5563 C   0  0  1  0  0  0  0  0  0  0  0  0
    4.4182  -18.9505   10.7254 O   0  0  0  0  0  0  0  0  0  0  0  0
    4.4713  -16.7513   11.8545 C   0  0  1  0  0  0  0  0  0  0  0  0
    5.5716  -17.1892   12.6459 O   0  0  0  0  0  0  0  0  0  0  0  0
    4.7338  -15.3491   11.3906 C   0  0  2  0  0  0  0  0  0  0  0  0
   10.9006  -19.6226    4.5932 O   0  0  0  0  0  0  0  0  0  0  0  0
    2.2175  -11.0067    9.6332 N   0  0  0  0  0  0  0  0  0  0  0  0
    3.5445  -11.2818    9.6365 C   0  0  0  0  0  0  0  0  0  0  0  0
    4.0484  -12.4282   10.1237 N   0  0  0  0  0  0  0  0  0  0  0  0
    3.2631  -13.3895   10.6223 C   0  0  0  0  0  0  0  0  0  0  0  0
    1.8258  -13.1627   10.6259 C   0  0  0  0  0  0  0  0  0  0  0  0
    1.2803  -11.8885   10.1033 C   0  0  0  0  0  0  0  0  0  0  0  0
   -0.0715  -11.6146   10.0856 N   0  0  0  0  0  0  0  0  0  0  0  0
    1.2950  -14.2461   11.1460 N   0  0  0  0  0  0  0  0  0  0  0  0
    2.2774  -15.0964   11.4742 C   0  0  0  0  0  0  0  0  0  0  0  0
    3.4678  -14.5891   11.1564 N   0  0  0  0  0  0  0  0  0  0  0  0
  2  1  1  6  0  0  0
  2  3  1  0  0  0  0
  2  5  1  0  0  0  0
  3  4  1  0  0  0  0
  3 17  1  0  0  0  0
  5  6  1  0  0  0  0
  7  6  1  6  0  0  0
  7  8  1  0  0  0  0
  7  9  1  0  0  0  0
 10  9  1  6  0  0  0
 10 11  1  0  0  0  0
 10 12  1  0  0  0  0
 11 16  1  0  0  0  0
 12 13  1  1  0  0  0
 12 14  1  0  0  0  0
 14 15  1  1  0  0  0
 14 16  1  0  0  0  0
 16 27  1  6  0  0  0
 18 19  2  0  0  0  0
 18 23  1  0  0  0  0
 19 20  1  0  0  0  0
 20 21  2  0  0  0  0
 21 22  1  0  0  0  0
 21 27  1  0  0  0  0
 22 23  2  0  0  0  0
 22 25  1  0  0  0  0
 23 24  1  0  0  0  0
 25 26  2  0  0  0  0
 26 27  1  0  0  0  0
M  END
>  <CHROM.1>
127.32028866,-66.61971822,-75.61139618,-73.53760040,-154.99718414,145.70978118
-55.25169746,5.45322082,-16.32278290,9.03601759,-0.25580588,0.79004634,-0.58798138

>  <Name>
ligand

>  <RI>
0

>  <Rbt.Current_Directory>
/home/itssahil/PROJECTS/Mol_Feturizer/Test_systems_manuscript/rnas/4kqy

>  <Rbt.Executable>
rbdock ($Id: //depot/dev/client3/rdock/2013.1/src/exe/rbdock.cxx#4 $)

>  <Rbt.Library>
libRbt.so (2013.1, Build901 2013/11/27)

>  <Rbt.Parameter_File>
/export/apps/rDock/src/rDock_2013.1_src/data/scripts/dock_solv.prm

>  <Rbt.Receptor>
prm/blind_docking_100.prm

>  <SCORE>
-17.4452

>  <SCORE.INTER>
-17.923

>  <SCORE.INTER.CONST>
1

>  <SCORE.INTER.POLAR>
0

>  <SCORE.INTER.ROT>
7

>  <SCORE.INTER.SOLV>
20.6554

>  <SCORE.INTER.VDW>
-27.1005

>  <SCORE.INTER.norm>
-0.663816

>  <SCORE.INTRA>
0.477878

>  <SCORE.INTRA.DIHEDRAL>
-1.16606

>  <SCORE.INTRA.DIHEDRAL.0>
10.4103

>  <SCORE.INTRA.POLAR>
0

>  <SCORE.INTRA.POLAR.0>
0

>  <SCORE.INTRA.REPUL>
0

>  <SCORE.INTRA.REPUL.0>
0

>  <SCORE.INTRA.SOLV>
0.613584

>  <SCORE.INTRA.SOLV.lig_0>
-49.5008

>  <SCORE.INTRA.VDW>
0.754117

>  <SCORE.INTRA.VDW.0>
-2.6946

>  <SCORE.INTRA.norm>
0.0176992

>  <SCORE.RESTR>
0

>  <SCORE.RESTR.CAVITY>
0

>  <SCORE.RESTR.norm>
0

>  <SCORE.SYSTEM>
0

>  <SCORE.SYSTEM.CONST>
0

>  <SCORE.SYSTEM.DIHEDRAL>
0

>  <SCORE.SYSTEM.SOLV>
0

>  <SCORE.SYSTEM.norm>
0

>  <SCORE.heavy>
27

>  <SCORE.norm>
-0.646117

>  <RMSD>
15.218

$$$$
ligand
 OpenBabel02271912153D
libRbt.so/2013.1/901 2013/11/27
 27 29  0  0  0  0  0  0  0  0999 V2000
    2.8887   -8.0960    8.8323 N   0  0  0  0  0  0  0  0  0  0  0  0
    3.8933   -9.1322    8.9785 C   0  0  2  0  0  0  0  0  0  0  0  0
    4.6211   -9.2341    7.6735 C   0  0  0  0  0  0  0  0  0  0  0  0
    4.0650   -9.7999    6.7076 O   0  0  0  0  0  0  0  0  0  0  0  0
    3.2354  -10.4703    9.3260 C   0  0  0  0  0  0  0  0  0  0  0  0
    4.2391  -11.4379    9.9913 C   0  0  0  0  0  0  0  0  0  0  0  0
    3.6386  -12.9596   10.3643 S   0  0  2  0  0  0  0  0  0  0  0  0
    2.3337  -12.8033   11.3799 C   0  0  0  0  0  0  0  0  0  0  0  0
    4.8488  -13.8889   11.0858 C   0  0  0  0  0  0  0  0  0  0  0  0
    4.3960  -15.3082   11.4884 C   0  0  1  0  0  0  0  0  0  0  0  0
    3.8298  -16.0528   10.3971 O   0  0  0  0  0  0  0  0  0  0  0  0
    5.5389  -16.2099   11.9260 C   0  0  1  0  0  0  0  0  0  0  0  0
    6.1025  -15.9792   13.2329 O   0  0  0  0  0  0  0  0  0  0  0  0
    4.8958  -17.5657   11.7695 C   0  0  1  0  0  0  0  0  0  0  0  0
    3.9291  -17.7698   12.7956 O   0  0  0  0  0  0  0  0  0  0  0  0
    4.1878  -17.4356   10.4535 C   0  0  2  0  0  0  0  0  0  0  0  0
    5.7612   -8.7232    7.5634 O   0  0  0  0  0  0  0  0  0  0  0  0
    5.6936  -21.1822    6.9935 N   0  0  0  0  0  0  0  0  0  0  0  0
    4.7574  -21.2496    7.9710 C   0  0  0  0  0  0  0  0  0  0  0  0
    4.4813  -20.2178    8.7861 N   0  0  0  0  0  0  0  0  0  0  0  0
    5.1042  -19.0397    8.6700 C   0  0  0  0  0  0  0  0  0  0  0  0
    6.1052  -18.8974    7.6235 C   0  0  0  0  0  0  0  0  0  0  0  0
    6.4159  -20.0458    6.7411 C   0  0  0  0  0  0  0  0  0  0  0  0
    7.3578  -19.9727    5.7360 N   0  0  0  0  0  0  0  0  0  0  0  0
    6.5457  -17.6631    7.7166 N   0  0  0  0  0  0  0  0  0  0  0  0
    5.9191  -17.0539    8.7325 C   0  0  0  0  0  0  0  0  0  0  0  0
    5.0438  -17.8762    9.3097 N   0  0  0  0  0  0  0  0  0  0  0  0
  2  1  1  6  0  0  0
  2  3  1  0  0  0  0
  2  5  1  0  0  0  0
  3  4  1  0  0  0  0
  3 17  1  0  0  0  0
  5  6  1  0  0  0  0
  7  6  1  1  0  0  0
  7  8  1  0  0  0  0
  7  9  1  0  0  0  0
 10  9  1  6  0  0  0
 10 11  1  0  0  0  0
 10 12  1  0  0  0  0
 11 16  1  0  0  0  0
 12 13  1  1  0  0  0
 12 14  1  0  0  0  0
 14 15  1  1  0  0  0
 14 16  1  0  0  0  0
 16 27  1  6  0  0  0
 18 19  2  0  0  0  0
 18 23  1  0  0  0  0
 19 20  1  0  0  0  0
 20 21  2  0  0  0  0
 21 22  1  0  0  0  0
 21 27  1  0  0  0  0
 22 23  2  0  0  0  0
 22 25  1  0  0  0  0
 23 24  1  0  0  0  0
 25 26  2  0  0  0  0
 26 27  1  0  0  0  0
M  END
>  <CHROM.1>
-75.56381771,-158.79583565,-177.84165973,-58.14338089,179.23091271,54.92619622
-146.43956295,4.72797174,-15.18131456,9.43969958,-2.16086805,-1.26641945
2.61664068

>  <Name>
ligand

>  <RI>
0

>  <Rbt.Current_Directory>
/home/itssahil/PROJECTS/Mol_Feturizer/Test_systems_manuscript/rnas/4kqy

>  <Rbt.Executable>
rbdock ($Id: //depot/dev/client3/rdock/2013.1/src/exe/rbdock.cxx#4 $)

>  <Rbt.Library>
libRbt.so (2013.1, Build901 2013/11/27)

>  <Rbt.Parameter_File>
/export/apps/rDock/src/rDock_2013.1_src/data/scripts/dock_solv.prm

>  <Rbt.Receptor>
prm/blind_docking_40.prm

>  <SCORE>
-17.2882

>  <SCORE.INTER>
-14.7861

>  <SCORE.INTER.CONST>
1

>  <SCORE.INTER.POLAR>
0

>  <SCORE.INTER.ROT>
7

>  <SCORE.INTER.SOLV>
21.0332

>  <SCORE.INTER.VDW>
-25.1352

>  <SCORE.INTER.norm>
-0.547634

>  <SCORE.INTRA>
-2.50739

>  <SCORE.INTRA.DIHEDRAL>
-5.97452

>  <SCORE.INTRA.DIHEDRAL.0>
10.4103

>  <SCORE.INTRA.POLAR>
0

>  <SCORE.INTRA.POLAR.0>
0

>  <SCORE.INTRA.REPUL>
0

>  <SCORE.INTRA.REPUL.0>
0

>  <SCORE.INTRA.SOLV>
-0.647912

>  <SCORE.INTRA.SOLV.lig_0>
-49.5008

>  <SCORE.INTRA.VDW>
0.803824

>  <SCORE.INTRA.VDW.0>
-2.6946

>  <SCORE.INTRA.norm>
-0.0928663

>  <SCORE.RESTR>
0.00532178

>  <SCORE.RESTR.CAVITY>
0.00532178

>  <SCORE.RESTR.norm>
0.000197103

>  <SCORE.SYSTEM>
0

>  <SCORE.SYSTEM.CONST>
0

>  <SCORE.SYSTEM.DIHEDRAL>
0

>  <SCORE.SYSTEM.SOLV>
0

>  <SCORE.SYSTEM.norm>
0

>  <SCORE.heavy>
27

>  <SCORE.norm>
-0.640304

>  <RMSD>
15.221

$$$$
ligand
 OpenBabel02271912153D
libRbt.so/2013.1/901 2013/11/27
 27 29  0  0  0  0  0  0  0  0999 V2000
    5.1385   -9.9433    6.6119 N   0  0  0  0  0  0  0  0  0  0  0  0
    4.5820  -10.5555    7.8034 C   0  0  2  0  0  0  0  0  0  0  0  0
    3.6042   -9.5834    8.3883 C   0  0  0  0  0  0  0  0  0  0  0  0
    3.9514   -8.3942    8.5542 O   0  0  0  0  0  0  0  0  0  0  0  0
    5.6904  -10.8666    8.8128 C   0  0  0  0  0  0  0  0  0  0  0  0
    5.1098  -11.3742   10.1514 C   0  0  0  0  0  0  0  0  0  0  0  0
    4.3892  -12.8885   10.0997 S   0  0  2  0  0  0  0  0  0  0  0  0
    2.9405  -12.8374   10.9104 C   0  0  0  0  0  0  0  0  0  0  0  0
    5.4193  -14.0339   10.7893 C   0  0  0  0  0  0  0  0  0  0  0  0
    4.7013  -15.3047   11.2904 C   0  0  1  0  0  0  0  0  0  0  0  0
    4.0401  -16.0322   10.2417 O   0  0  0  0  0  0  0  0  0  0  0  0
    5.6453  -16.3538   11.8553 C   0  0  1  0  0  0  0  0  0  0  0  0
    6.2029  -16.1091   13.1622 O   0  0  0  0  0  0  0  0  0  0  0  0
    4.7685  -17.5796   11.7858 C   0  0  1  0  0  0  0  0  0  0  0  0
    3.7508  -17.5100   12.7800 O   0  0  0  0  0  0  0  0  0  0  0  0
    4.1357  -17.4458   10.4323 C   0  0  2  0  0  0  0  0  0  0  0  0
    2.4456   -9.9715    8.6717 O   0  0  0  0  0  0  0  0  0  0  0  0
    7.3387  -17.2361    6.1929 N   0  0  0  0  0  0  0  0  0  0  0  0
    6.8101  -16.2181    6.9147 C   0  0  0  0  0  0  0  0  0  0  0  0
    6.0016  -16.4173    7.9691 N   0  0  0  0  0  0  0  0  0  0  0  0
    5.6804  -17.6455    8.3909 C   0  0  0  0  0  0  0  0  0  0  0  0
    6.2353  -18.7812    7.6701 C   0  0  0  0  0  0  0  0  0  0  0  0
    7.1113  -18.5522    6.4978 C   0  0  0  0  0  0  0  0  0  0  0  0
    7.6620  -19.5882    5.7724 N   0  0  0  0  0  0  0  0  0  0  0  0
    5.7828  -19.8500    8.2856 N   0  0  0  0  0  0  0  0  0  0  0  0
    4.9920  -19.4664    9.2973 C   0  0  0  0  0  0  0  0  0  0  0  0
    4.9293  -18.1374    9.3708 N   0  0  0  0  0  0  0  0  0  0  0  0
  2  1  1  6  0  0  0
  2  3  1  0  0  0  0
  2  5  1  0  0  0  0
  3  4  1  0  0  0  0
  3 17  1  0  0  0  0
  5  6  1  0  0  0  0
  7  6  1  1  0  0  0
  7  8  1  0  0  0  0
  7  9  1  0  0  0  0
 10  9  1  6  0  0  0
 10 11  1  0  0  0  0
 10 12  1  0  0  0  0
 11 16  1  0  0  0  0
 12 13  1  1  0  0  0
 12 14  1  0  0  0  0
 14 15  1  1  0  0  0
 14 16  1  0  0  0  0
 16 27  1  6  0  0  0
 18 19  2  0  0  0  0
 18 23  1  0  0  0  0
 19 20  1  0  0  0  0
 20 21  2  0  0  0  0
 21 22  1  0  0  0  0
 21 27  1  0  0  0  0
 22 23  2  0  0  0  0
 22 25  1  0  0  0  0
 23 24  1  0  0  0  0
 25 26  2  0  0  0  0
 26 27  1  0  0  0  0
M  END
>  <CHROM.1>
-49.23355316,173.70219587,68.65017279,-134.59218385,157.72811076,61.85598657
9.20865051,5.06877615,-14.93440634,9.31787036,-2.16059141,-1.16870029,2.60504293

>  <Name>
ligand

>  <RI>
0

>  <Rbt.Current_Directory>
/home/itssahil/PROJECTS/Mol_Feturizer/Test_systems_manuscript/rnas/4kqy

>  <Rbt.Executable>
rbdock ($Id: //depot/dev/client3/rdock/2013.1/src/exe/rbdock.cxx#4 $)

>  <Rbt.Library>
libRbt.so (2013.1, Build901 2013/11/27)

>  <Rbt.Parameter_File>
/export/apps/rDock/src/rDock_2013.1_src/data/scripts/dock_solv.prm

>  <Rbt.Receptor>
prm/blind_docking_80.prm

>  <SCORE>
-17.4851

>  <SCORE.INTER>
-16.3754

>  <SCORE.INTER.CONST>
1

>  <SCORE.INTER.POLAR>
0

>  <SCORE.INTER.ROT>
7

>  <SCORE.INTER.SOLV>
18.9326

>  <SCORE.INTER.VDW>
-25.4944

>  <SCORE.INTER.norm>
-0.606495

>  <SCORE.INTRA>
-1.10972

>  <SCORE.INTRA.DIHEDRAL>
-1.69357

>  <SCORE.INTRA.DIHEDRAL.0>
10.4103

>  <SCORE.INTRA.POLAR>
0

>  <SCORE.INTRA.POLAR.0>
0

>  <SCORE.INTRA.REPUL>
0

>  <SCORE.INTRA.REPUL.0>
0

>  <SCORE.INTRA.SOLV>
-0.52309

>  <SCORE.INTRA.SOLV.lig_0>
-49.5008

>  <SCORE.INTRA.VDW>
-0.0013917

>  <SCORE.INTRA.VDW.0>
-2.6946

>  <SCORE.INTRA.norm>
-0.0411008

>  <SCORE.RESTR>
0

>  <SCORE.RESTR.CAVITY>
0

>  <SCORE.RESTR.norm>
0

>  <SCORE.SYSTEM>
0

>  <SCORE.SYSTEM.CONST>
0

>  <SCORE.SYSTEM.DIHEDRAL>
0

>  <SCORE.SYSTEM.SOLV>
0

>  <SCORE.SYSTEM.norm>
0

>  <SCORE.heavy>
27

>  <SCORE.norm>
-0.647596

>  <RMSD>
15.234

$$$$
ligand
 OpenBabel02271912153D
libRbt.so/2013.1/901 2013/11/27
 27 29  0  0  0  0  0  0  0  0999 V2000
   11.0837   -8.2524    5.2990 N   0  0  0  0  0  0  0  0  0  0  0  0
   11.3209   -7.6458    6.5951 C   0  0  2  0  0  0  0  0  0  0  0  0
   12.7676   -7.2624    6.6493 C   0  0  0  0  0  0  0  0  0  0  0  0
   13.6367   -8.1224    6.3899 O   0  0  0  0  0  0  0  0  0  0  0  0
   10.9906   -8.6340    7.7170 C   0  0  0  0  0  0  0  0  0  0  0  0
    9.5196   -9.1001    7.6449 C   0  0  0  0  0  0  0  0  0  0  0  0
    8.3702   -7.9198    7.9627 S   0  0  2  0  0  0  0  0  0  0  0  0
    8.4372   -7.5036    9.5693 C   0  0  0  0  0  0  0  0  0  0  0  0
    6.8358   -8.4949    7.5584 C   0  0  0  0  0  0  0  0  0  0  0  0
    6.4109   -9.7563    8.3396 C   0  0  1  0  0  0  0  0  0  0  0  0
    5.6026   -9.4634    9.4915 O   0  0  0  0  0  0  0  0  0  0  0  0
    5.5060  -10.6861    7.5474 C   0  0  1  0  0  0  0  0  0  0  0  0
    6.1175  -11.4862    6.5156 O   0  0  0  0  0  0  0  0  0  0  0  0
    4.8953  -11.4946    8.6652 C   0  0  1  0  0  0  0  0  0  0  0  0
    5.8625  -12.3894    9.2064 O   0  0  0  0  0  0  0  0  0  0  0  0
    4.5802  -10.4431    9.6875 C   0  0  2  0  0  0  0  0  0  0  0  0
   13.0806   -6.0789    6.9227 O   0  0  0  0  0  0  0  0  0  0  0  0
   -0.6908  -11.0952    9.9474 N   0  0  0  0  0  0  0  0  0  0  0  0
    0.2941  -11.9831   10.2273 C   0  0  0  0  0  0  0  0  0  0  0  0
    1.5985  -11.6833   10.1099 N   0  0  0  0  0  0  0  0  0  0  0  0
    2.0128  -10.4708    9.7258 C   0  0  0  0  0  0  0  0  0  0  0  0
    1.0023   -9.4658    9.4323 C   0  0  0  0  0  0  0  0  0  0  0  0
   -0.4337   -9.8106    9.5471 C   0  0  0  0  0  0  0  0  0  0  0  0
   -1.4363   -8.9023    9.2772 N   0  0  0  0  0  0  0  0  0  0  0  0
    1.6642   -8.3813    9.0980 N   0  0  0  0  0  0  0  0  0  0  0  0
    2.9777   -8.6430    9.1431 C   0  0  0  0  0  0  0  0  0  0  0  0
    3.1966   -9.9003    9.5263 N   0  0  0  0  0  0  0  0  0  0  0  0
  2  1  1  6  0  0  0
  2  3  1  0  0  0  0
  2  5  1  0  0  0  0
  3  4  1  0  0  0  0
  3 17  1  0  0  0  0
  5  6  1  0  0  0  0
  7  6  1  1  0  0  0
  7  8  1  0  0  0  0
  7  9  1  0  0  0  0
 10  9  1  6  0  0  0
 10 11  1  0  0  0  0
 10 12  1  0  0  0  0
 11 16  1  0  0  0  0
 12 13  1  6  0  0  0
 12 14  1  0  0  0  0
 14 15  1  1  0  0  0
 14 16  1  0  0  0  0
 16 27  1  6  0  0  0
 18 19  2  0  0  0  0
 18 23  1  0  0  0  0
 19 20  1  0  0  0  0
 20 21  2  0  0  0  0
 21 22  1  0  0  0  0
 21 27  1  0  0  0  0
 22 23  2  0  0  0  0
 22 25  1  0  0  0  0
 23 24  1  0  0  0  0
 25 26  2  0  0  0  0
 26 27  1  0  0  0  0
M  END
>  <CHROM.1>
-52.73466907,-58.81859252,-67.20389797,-69.19862860,60.12751395,96.10750558
-174.38439318,6.02762606,-9.36078059,8.38157579,-0.22263226,-0.25627402,-3.10222955

>  <Name>
ligand

>  <RI>
0

>  <Rbt.Current_Directory>
/home/itssahil/PROJECTS/Mol_Feturizer/Test_systems_manuscript/rnas/4kqy

>  <Rbt.Executable>
rbdock ($Id: //depot/dev/client3/rdock/2013.1/src/exe/rbdock.cxx#4 $)

>  <Rbt.Library>
libRbt.so (2013.1, Build901 2013/11/27)

>  <Rbt.Parameter_File>
/export/apps/rDock/src/rDock_2013.1_src/data/scripts/dock_solv.prm

>  <Rbt.Receptor>
prm/blind_docking_20.prm

>  <SCORE>
-11.375

>  <SCORE.INTER>
-10.2515

>  <SCORE.INTER.CONST>
1

>  <SCORE.INTER.POLAR>
0

>  <SCORE.INTER.ROT>
7

>  <SCORE.INTER.SOLV>
13.1752

>  <SCORE.INTER.VDW>
-19.4927

>  <SCORE.INTER.norm>
-0.379685

>  <SCORE.INTRA>
-1.1235

>  <SCORE.INTRA.DIHEDRAL>
-3.72606

>  <SCORE.INTRA.DIHEDRAL.0>
10.4103

>  <SCORE.INTRA.POLAR>
0

>  <SCORE.INTRA.POLAR.0>
0

>  <SCORE.INTRA.REPUL>
0

>  <SCORE.INTRA.REPUL.0>
0

>  <SCORE.INTRA.SOLV>
0.721644

>  <SCORE.INTRA.SOLV.lig_0>
-49.5008

>  <SCORE.INTRA.VDW>
0.378702

>  <SCORE.INTRA.VDW.0>
-2.6946

>  <SCORE.INTRA.norm>
-0.0416113

>  <SCORE.RESTR>
0

>  <SCORE.RESTR.CAVITY>
0

>  <SCORE.RESTR.norm>
0

>  <SCORE.SYSTEM>
0

>  <SCORE.SYSTEM.CONST>
0

>  <SCORE.SYSTEM.DIHEDRAL>
0

>  <SCORE.SYSTEM.SOLV>
0

>  <SCORE.SYSTEM.norm>
0

>  <SCORE.heavy>
27

>  <SCORE.norm>
-0.421296

>  <RMSD>
15.239

$$$$
ligand
 OpenBabel02271912153D
libRbt.so/2013.1/901 2013/11/27
 27 29  0  0  0  0  0  0  0  0999 V2000
    6.4820  -10.5850    7.5028 N   0  0  0  0  0  0  0  0  0  0  0  0
    5.0694  -10.9136    7.5314 C   0  0  2  0  0  0  0  0  0  0  0  0
    4.3928  -10.0605    6.5030 C   0  0  0  0  0  0  0  0  0  0  0  0
    4.8545   -8.9266    6.2516 O   0  0  0  0  0  0  0  0  0  0  0  0
    4.4839  -10.6380    8.9190 C   0  0  0  0  0  0  0  0  0  0  0  0
    5.0984  -11.5697    9.9872 C   0  0  0  0  0  0  0  0  0  0  0  0
    4.4367  -13.1093   10.0714 S   0  0  2  0  0  0  0  0  0  0  0  0
    2.9057  -13.0170   10.7088 C   0  0  0  0  0  0  0  0  0  0  0  0
    5.4195  -14.1010   11.0196 C   0  0  0  0  0  0  0  0  0  0  0  0
    4.7056  -15.3546   11.5679 C   0  0  1  0  0  0  0  0  0  0  0  0
    3.9746  -16.0754   10.5619 O   0  0  0  0  0  0  0  0  0  0  0  0
    5.6587  -16.4184   12.0883 C   0  0  1  0  0  0  0  0  0  0  0  0
    6.2911  -16.1767   13.3613 O   0  0  0  0  0  0  0  0  0  0  0  0
    4.7561  -17.6273   12.0752 C   0  0  1  0  0  0  0  0  0  0  0  0
    3.7955  -17.5319   13.1226 O   0  0  0  0  0  0  0  0  0  0  0  0
    4.0534  -17.4893   10.7571 C   0  0  2  0  0  0  0  0  0  0  0  0
    3.3952  -10.5105    5.8902 O   0  0  0  0  0  0  0  0  0  0  0  0
    7.0471  -17.3686    6.3641 N   0  0  0  0  0  0  0  0  0  0  0  0
    6.5823  -16.3363    7.1090 C   0  0  0  0  0  0  0  0  0  0  0  0
    5.8219  -16.5130    8.2025 N   0  0  0  0  0  0  0  0  0  0  0  0
    5.4893  -17.7318    8.6422 C   0  0  0  0  0  0  0  0  0  0  0  0
    5.9773  -18.8825    7.8971 C   0  0  0  0  0  0  0  0  0  0  0  0
    6.8001  -18.6779    6.6825 C   0  0  0  0  0  0  0  0  0  0  0  0
    7.2863  -19.7288    5.9329 N   0  0  0  0  0  0  0  0  0  0  0  0
    5.5274  -19.9384    8.5365 N   0  0  0  0  0  0  0  0  0  0  0  0
    4.7982  -19.5330    9.5852 C   0  0  0  0  0  0  0  0  0  0  0  0
    4.7747  -18.2028    9.6590 N   0  0  0  0  0  0  0  0  0  0  0  0
  2  1  1  1  0  0  0
  2  3  1  0  0  0  0
  2  5  1  0  0  0  0
  3  4  1  0  0  0  0
  3 17  1  0  0  0  0
  5  6  1  0  0  0  0
  7  6  1  1  0  0  0
  7  8  1  0  0  0  0
  7  9  1  0  0  0  0
 10  9  1  6  0  0  0
 10 11  1  0  0  0  0
 10 12  1  0  0  0  0
 11 16  1  0  0  0  0
 12 13  1  1  0  0  0
 12 14  1  0  0  0  0
 14 15  1  1  0  0  0
 14 16  1  0  0  0  0
 16 27  1  6  0  0  0
 18 19  2  0  0  0  0
 18 23  1  0  0  0  0
 19 20  1  0  0  0  0
 20 21  2  0  0  0  0
 21 22  1  0  0  0  0
 21 27  1  0  0  0  0
 22 23  2  0  0  0  0
 22 25  1  0  0  0  0
 23 24  1  0  0  0  0
 25 26  2  0  0  0  0
 26 27  1  0  0  0  0
M  END
>  <CHROM.1>
-31.01085400,-65.25260189,-81.32442055,-70.94159875,160.05065807,48.58535260
9.79790625,5.11096206,-15.10059755,9.21818339,-1.93870556,-1.25959433,2.55557239

>  <Name>
ligand

>  <RI>
0

>  <Rbt.Current_Directory>
/home/itssahil/PROJECTS/Mol_Feturizer/Test_systems_manuscript/rnas/4kqy

>  <Rbt.Executable>
rbdock ($Id: //depot/dev/client3/rdock/2013.1/src/exe/rbdock.cxx#4 $)

>  <Rbt.Library>
libRbt.so (2013.1, Build901 2013/11/27)

>  <Rbt.Parameter_File>
/export/apps/rDock/src/rDock_2013.1_src/data/scripts/dock_solv.prm

>  <Rbt.Receptor>
prm/blind_docking_60.prm

>  <SCORE>
-21.0228

>  <SCORE.INTER>
-19.5949

>  <SCORE.INTER.CONST>
1

>  <SCORE.INTER.POLAR>
0

>  <SCORE.INTER.ROT>
7

>  <SCORE.INTER.SOLV>
17.8012

>  <SCORE.INTER.VDW>
-27.2637

>  <SCORE.INTER.norm>
-0.725738

>  <SCORE.INTRA>
-1.4279

>  <SCORE.INTRA.DIHEDRAL>
-3.89837

>  <SCORE.INTRA.DIHEDRAL.0>
10.4103

>  <SCORE.INTRA.POLAR>
0

>  <SCORE.INTRA.POLAR.0>
0

>  <SCORE.INTRA.REPUL>
0

>  <SCORE.INTRA.REPUL.0>
0

>  <SCORE.INTRA.SOLV>
0.461817

>  <SCORE.INTRA.SOLV.lig_0>
-49.5008

>  <SCORE.INTRA.VDW>
0.290383

>  <SCORE.INTRA.VDW.0>
-2.6946

>  <SCORE.INTRA.norm>
-0.052885

>  <SCORE.RESTR>
0

>  <SCORE.RESTR.CAVITY>
0

>  <SCORE.RESTR.norm>
0

>  <SCORE.SYSTEM>
0

>  <SCORE.SYSTEM.CONST>
0

>  <SCORE.SYSTEM.DIHEDRAL>
0

>  <SCORE.SYSTEM.SOLV>
0

>  <SCORE.SYSTEM.norm>
0

>  <SCORE.heavy>
27

>  <SCORE.norm>
-0.778623

>  <RMSD>
15.276

$$$$
ligand
 OpenBabel02271912153D
libRbt.so/2013.1/901 2013/11/27
 27 29  0  0  0  0  0  0  0  0999 V2000
    0.6106  -14.8310   12.0694 N   0  0  0  0  0  0  0  0  0  0  0  0
    1.6688  -14.0450   11.4639 C   0  0  2  0  0  0  0  0  0  0  0  0
    2.7296  -13.8507   12.5032 C   0  0  0  0  0  0  0  0  0  0  0  0
    2.3934  -13.5522   13.6695 O   0  0  0  0  0  0  0  0  0  0  0  0
    1.1289  -12.6908   10.9961 C   0  0  0  0  0  0  0  0  0  0  0  0
    2.2129  -11.8744   10.2579 C   0  0  0  0  0  0  0  0  0  0  0  0
    1.7183  -10.3849    9.6646 S   0  0  2  0  0  0  0  0  0  0  0  0
    0.7058  -10.6166    8.3685 C   0  0  0  0  0  0  0  0  0  0  0  0
    3.0663   -9.4746    9.2142 C   0  0  0  0  0  0  0  0  0  0  0  0
    3.8618  -10.0707    8.0337 C   0  0  1  0  0  0  0  0  0  0  0  0
    4.4816   -9.0717    7.2068 O   0  0  0  0  0  0  0  0  0  0  0  0
    5.0551  -10.9076    8.4654 C   0  0  1  0  0  0  0  0  0  0  0  0
    4.7867  -12.2212    8.9957 O   0  0  0  0  0  0  0  0  0  0  0  0
    5.8608  -10.9174    7.1899 C   0  0  1  0  0  0  0  0  0  0  0  0
    5.2318  -11.7503    6.2205 O   0  0  0  0  0  0  0  0  0  0  0  0
    5.7661   -9.4899    6.7389 C   0  0  2  0  0  0  0  0  0  0  0  0
    3.9329  -14.0216   12.1934 O   0  0  0  0  0  0  0  0  0  0  0  0
   10.9779   -8.5428    7.2040 N   0  0  0  0  0  0  0  0  0  0  0  0
   10.3477   -9.5423    6.5402 C   0  0  0  0  0  0  0  0  0  0  0  0
    9.0102   -9.6663    6.5118 N   0  0  0  0  0  0  0  0  0  0  0  0
    8.2064   -8.7906    7.1254 C   0  0  0  0  0  0  0  0  0  0  0  0
    8.8230   -7.6813    7.8372 C   0  0  0  0  0  0  0  0  0  0  0  0
   10.2989   -7.5625    7.8783 C   0  0  0  0  0  0  0  0  0  0  0  0
   10.9402   -6.5365    8.5408 N   0  0  0  0  0  0  0  0  0  0  0  0
    7.8292   -6.9762    8.3284 N   0  0  0  0  0  0  0  0  0  0  0  0
    6.6725   -7.5661    7.9968 C   0  0  0  0  0  0  0  0  0  0  0  0
    6.8914   -8.6588    7.2663 N   0  0  0  0  0  0  0  0  0  0  0  0
  2  1  1  1  0  0  0
  2  3  1  0  0  0  0
  2  5  1  0  0  0  0
  3  4  1  0  0  0  0
  3 17  1  0  0  0  0
  5  6  1  0  0  0  0
  7  6  1  6  0  0  0
  7  8  1  0  0  0  0
  7  9  1  0  0  0  0
 10  9  1  1  0  0  0
 10 11  1  0  0  0  0
 10 12  1  0  0  0  0
 11 16  1  0  0  0  0
 12 13  1  6  0  0  0
 12 14  1  0  0  0  0
 14 15  1  6  0  0  0
 14 16  1  0  0  0  0
 16 27  1  1  0  0  0
 18 19  2  0  0  0  0
 18 23  1  0  0  0  0
 19 20  1  0  0  0  0
 20 21  2  0  0  0  0
 21 22  1  0  0  0  0
 21 27  1  0  0  0  0
 22 23  2  0  0  0  0
 22 25  1  0  0  0  0
 23 24  1  0  0  0  0
 25 26  2  0  0  0  0
 26 27  1  0  0  0  0
M  END
>  <CHROM.1>
-43.81666570,-175.97608470,178.46869025,-71.38723017,65.09516766,148.06065052
175.25630927,5.10120394,-10.49091861,8.91279992,-2.45036985,-0.11421693,-0.82550618

>  <Name>
ligand

>  <RI>
0

>  <Rbt.Current_Directory>
/home/itssahil/PROJECTS/Mol_Feturizer/Test_systems_manuscript/rnas/4kqy

>  <Rbt.Executable>
rbdock ($Id: //depot/dev/client3/rdock/2013.1/src/exe/rbdock.cxx#4 $)

>  <Rbt.Library>
libRbt.so (2013.1, Build901 2013/11/27)

>  <Rbt.Parameter_File>
/export/apps/rDock/src/rDock_2013.1_src/data/scripts/dock_solv.prm

>  <Rbt.Receptor>
prm/blind_docking_40.prm

>  <SCORE>
-12.4639

>  <SCORE.INTER>
-10.6925

>  <SCORE.INTER.CONST>
1

>  <SCORE.INTER.POLAR>
0

>  <SCORE.INTER.ROT>
7

>  <SCORE.INTER.SOLV>
14.369

>  <SCORE.INTER.VDW>
-20.1847

>  <SCORE.INTER.norm>
-0.396019

>  <SCORE.INTRA>
-1.77135

>  <SCORE.INTRA.DIHEDRAL>
-4.22727

>  <SCORE.INTRA.DIHEDRAL.0>
10.4103

>  <SCORE.INTRA.POLAR>
0

>  <SCORE.INTRA.POLAR.0>
0

>  <SCORE.INTRA.REPUL>
0

>  <SCORE.INTRA.REPUL.0>
0

>  <SCORE.INTRA.SOLV>
-0.235382

>  <SCORE.INTRA.SOLV.lig_0>
-49.5008

>  <SCORE.INTRA.VDW>
0.459973

>  <SCORE.INTRA.VDW.0>
-2.6946

>  <SCORE.INTRA.norm>
-0.0656057

>  <SCORE.RESTR>
0

>  <SCORE.RESTR.CAVITY>
0

>  <SCORE.RESTR.norm>
0

>  <SCORE.SYSTEM>
0

>  <SCORE.SYSTEM.CONST>
0

>  <SCORE.SYSTEM.DIHEDRAL>
0

>  <SCORE.SYSTEM.SOLV>
0

>  <SCORE.SYSTEM.norm>
0

>  <SCORE.heavy>
27

>  <SCORE.norm>
-0.461624

>  <RMSD>
15.338

$$$$
ligand
 OpenBabel02271912153D
libRbt.so/2013.1/901 2013/11/27
 27 29  0  0  0  0  0  0  0  0999 V2000
   10.0599  -16.8668    5.3205 N   0  0  0  0  0  0  0  0  0  0  0  0
    9.4918  -18.0135    6.0036 C   0  0  2  0  0  0  0  0  0  0  0  0
   10.0816  -19.2407    5.3798 C   0  0  0  0  0  0  0  0  0  0  0  0
   10.5812  -20.1189    6.1156 O   0  0  0  0  0  0  0  0  0  0  0  0
    7.9678  -18.0228    5.8567 C   0  0  0  0  0  0  0  0  0  0  0  0
    7.3026  -18.9214    6.9228 C   0  0  0  0  0  0  0  0  0  0  0  0
    5.6461  -18.7249    7.1034 S   0  0  2  0  0  0  0  0  0  0  0  0
    4.8918  -19.0516    5.6601 C   0  0  0  0  0  0  0  0  0  0  0  0
    5.3107  -17.1501    7.6094 C   0  0  0  0  0  0  0  0  0  0  0  0
    5.6132  -16.8907    9.1004 C   0  0  1  0  0  0  0  0  0  0  0  0
    5.5639  -15.4985    9.4542 O   0  0  0  0  0  0  0  0  0  0  0  0
    4.5838  -17.4925   10.0433 C   0  0  1  0  0  0  0  0  0  0  0  0
    4.6241  -18.9195   10.2455 O   0  0  0  0  0  0  0  0  0  0  0  0
    4.8532  -16.6913   11.2930 C   0  0  1  0  0  0  0  0  0  0  0  0
    6.0862  -17.0984   11.8786 O   0  0  0  0  0  0  0  0  0  0  0  0
    5.0066  -15.2993   10.7555 C   0  0  2  0  0  0  0  0  0  0  0  0
   10.0359  -19.3803    4.1341 O   0  0  0  0  0  0  0  0  0  0  0  0
    2.2325  -10.8767    9.7450 N   0  0  0  0  0  0  0  0  0  0  0  0
    3.5565  -11.1111    9.5763 C   0  0  0  0  0  0  0  0  0  0  0  0
    4.1321  -12.2858    9.8833 N   0  0  0  0  0  0  0  0  0  0  0  0
    3.4244  -13.3159   10.3601 C   0  0  0  0  0  0  0  0  0  0  0  0
    1.9923  -13.1335   10.5426 C   0  0  0  0  0  0  0  0  0  0  0  0
    1.3692  -11.8294   10.2184 C   0  0  0  0  0  0  0  0  0  0  0  0
    0.0189  -11.5954   10.3754 N   0  0  0  0  0  0  0  0  0  0  0  0
    1.5422  -14.2797   11.0004 N   0  0  0  0  0  0  0  0  0  0  0  0
    2.5703  -15.1296   11.1297 C   0  0  0  0  0  0  0  0  0  0  0  0
    3.7088  -14.5572   10.7403 N   0  0  0  0  0  0  0  0  0  0  0  0
  2  1  1  6  0  0  0
  2  3  1  0  0  0  0
  2  5  1  0  0  0  0
  3  4  1  0  0  0  0
  3 17  1  0  0  0  0
  5  6  1  0  0  0  0
  7  6  1  6  0  0  0
  7  8  1  0  0  0  0
  7  9  1  0  0  0  0
 10  9  1  6  0  0  0
 10 11  1  0  0  0  0
 10 12  1  0  0  0  0
 11 16  1  0  0  0  0
 12 13  1  1  0  0  0
 12 14  1  0  0  0  0
 14 15  1  6  0  0  0
 14 16  1  0  0  0  0
 16 27  1  6  0  0  0
 18 19  2  0  0  0  0
 18 23  1  0  0  0  0
 19 20  1  0  0  0  0
 20 21  2  0  0  0  0
 21 22  1  0  0  0  0
 21 27  1  0  0  0  0
 22 23  2  0  0  0  0
 22 25  1  0  0  0  0
 23 24  1  0  0  0  0
 25 26  2  0  0  0  0
 26 27  1  0  0  0  0
M  END
>  <CHROM.1>
129.57787799,-161.21618055,165.75734409,59.43549597,-76.03238371,168.98101901
-63.83121779,5.37495067,-16.22397236,8.62992228,-0.40131312,0.79650805,-0.37970076

>  <Name>
ligand

>  <RI>
0

>  <Rbt.Current_Directory>
/home/itssahil/PROJECTS/Mol_Feturizer/Test_systems_manuscript/rnas/4kqy

>  <Rbt.Executable>
rbdock ($Id: //depot/dev/client3/rdock/2013.1/src/exe/rbdock.cxx#4 $)

>  <Rbt.Library>
libRbt.so (2013.1, Build901 2013/11/27)

>  <Rbt.Parameter_File>
/export/apps/rDock/src/rDock_2013.1_src/data/scripts/dock_solv.prm

>  <Rbt.Receptor>
prm/blind_docking_100.prm

>  <SCORE>
-17.7212

>  <SCORE.INTER>
-16.3332

>  <SCORE.INTER.CONST>
1

>  <SCORE.INTER.POLAR>
0

>  <SCORE.INTER.ROT>
7

>  <SCORE.INTER.SOLV>
22.2576

>  <SCORE.INTER.VDW>
-26.5747

>  <SCORE.INTER.norm>
-0.604933

>  <SCORE.INTRA>
-1.38804

>  <SCORE.INTRA.DIHEDRAL>
-4.45001

>  <SCORE.INTRA.DIHEDRAL.0>
10.4103

>  <SCORE.INTRA.POLAR>
0

>  <SCORE.INTRA.POLAR.0>
0

>  <SCORE.INTRA.REPUL>
0

>  <SCORE.INTRA.REPUL.0>
0

>  <SCORE.INTRA.SOLV>
-0.488925

>  <SCORE.INTRA.SOLV.lig_0>
-49.5008

>  <SCORE.INTRA.VDW>
1.08142

>  <SCORE.INTRA.VDW.0>
-2.6946

>  <SCORE.INTRA.norm>
-0.051409

>  <SCORE.RESTR>
0

>  <SCORE.RESTR.CAVITY>
0

>  <SCORE.RESTR.norm>
0

>  <SCORE.SYSTEM>
0

>  <SCORE.SYSTEM.CONST>
0

>  <SCORE.SYSTEM.DIHEDRAL>
0

>  <SCORE.SYSTEM.SOLV>
0

>  <SCORE.SYSTEM.norm>
0

>  <SCORE.heavy>
27

>  <SCORE.norm>
-0.656342

>  <RMSD>
15.358

$$$$
ligand
 OpenBabel02271912153D
libRbt.so/2013.1/901 2013/11/27
 27 29  0  0  0  0  0  0  0  0999 V2000
    6.3250   -8.5473    9.7945 N   0  0  0  0  0  0  0  0  0  0  0  0
    6.1321   -9.3595    8.6082 C   0  0  2  0  0  0  0  0  0  0  0  0
    5.8203   -8.4287    7.4770 C   0  0  0  0  0  0  0  0  0  0  0  0
    4.9403   -8.7484    6.6490 O   0  0  0  0  0  0  0  0  0  0  0  0
    4.9806  -10.3467    8.8169 C   0  0  0  0  0  0  0  0  0  0  0  0
    5.2092  -11.2261   10.0663 C   0  0  0  0  0  0  0  0  0  0  0  0
    4.2504  -12.5991   10.1700 S   0  0  2  0  0  0  0  0  0  0  0  0
    2.7216  -12.1684   10.6557 C   0  0  0  0  0  0  0  0  0  0  0  0
    4.9365  -13.6926   11.2573 C   0  0  0  0  0  0  0  0  0  0  0  0
    4.2130  -15.0543   11.3206 C   0  0  1  0  0  0  0  0  0  0  0  0
    3.7969  -15.5349   10.0314 O   0  0  0  0  0  0  0  0  0  0  0  0
    5.0965  -16.1902   11.8106 C   0  0  1  0  0  0  0  0  0  0  0  0
    5.3914  -16.2398   13.2210 O   0  0  0  0  0  0  0  0  0  0  0  0
    4.3187  -17.3810   11.3076 C   0  0  1  0  0  0  0  0  0  0  0  0
    3.1344  -17.5534   12.0801 O   0  0  0  0  0  0  0  0  0  0  0  0
    3.9368  -16.9533    9.9214 C   0  0  2  0  0  0  0  0  0  0  0  0
    6.4242   -7.3322    7.3983 O   0  0  0  0  0  0  0  0  0  0  0  0
    6.1389  -20.7301    6.8945 N   0  0  0  0  0  0  0  0  0  0  0  0
    5.1104  -20.8306    7.7712 C   0  0  0  0  0  0  0  0  0  0  0  0
    4.6564  -19.7850    8.4826 N   0  0  0  0  0  0  0  0  0  0  0  0
    5.1819  -18.5616    8.3540 C   0  0  0  0  0  0  0  0  0  0  0  0
    6.2755  -18.3845    7.4106 C   0  0  0  0  0  0  0  0  0  0  0  0
    6.7815  -19.5464    6.6438 C   0  0  0  0  0  0  0  0  0  0  0  0
    7.8181  -19.4413    5.7399 N   0  0  0  0  0  0  0  0  0  0  0  0
    6.5923  -17.1108    7.4668 N   0  0  0  0  0  0  0  0  0  0  0  0
    5.8065  -16.5071    8.3690 C   0  0  0  0  0  0  0  0  0  0  0  0
    4.9490  -17.3748    8.9051 N   0  0  0  0  0  0  0  0  0  0  0  0
  2  1  1  1  0  0  0
  2  3  1  0  0  0  0
  2  5  1  0  0  0  0
  3  4  1  0  0  0  0
  3 17  1  0  0  0  0
  5  6  1  0  0  0  0
  7  6  1  1  0  0  0
  7  8  1  0  0  0  0
  7  9  1  0  0  0  0
 10  9  1  6  0  0  0
 10 11  1  0  0  0  0
 10 12  1  0  0  0  0
 11 16  1  0  0  0  0
 12 13  1  1  0  0  0
 12 14  1  0  0  0  0
 14 15  1  1  0  0  0
 14 16  1  0  0  0  0
 16 27  1  6  0  0  0
 18 19  2  0  0  0  0
 18 23  1  0  0  0  0
 19 20  1  0  0  0  0
 20 21  2  0  0  0  0
 21 22  1  0  0  0  0
 21 27  1  0  0  0  0
 22 23  2  0  0  0  0
 22 25  1  0  0  0  0
 23 24  1  0  0  0  0
 25 26  2  0  0  0  0
 26 27  1  0  0  0  0
M  END
>  <CHROM.1>
-139.48191281,-55.78951741,-164.22277572,-77.06737758,-174.00484887,40.38314250
-166.22686544,5.14357952,-14.79205531,9.23159320,-1.60222799,-1.12303271
-3.14142253

>  <Name>
ligand

>  <RI>
0

>  <Rbt.Current_Directory>
/home/itssahil/PROJECTS/Mol_Feturizer/Test_systems_manuscript/rnas/4kqy

>  <Rbt.Executable>
rbdock ($Id: //depot/dev/client3/rdock/2013.1/src/exe/rbdock.cxx#4 $)

>  <Rbt.Library>
libRbt.so (2013.1, Build901 2013/11/27)

>  <Rbt.Parameter_File>
/export/apps/rDock/src/rDock_2013.1_src/data/scripts/dock_solv.prm

>  <Rbt.Receptor>
prm/blind_docking_100.prm

>  <SCORE>
-14.6728

>  <SCORE.INTER>
-14.1166

>  <SCORE.INTER.CONST>
1

>  <SCORE.INTER.POLAR>
0

>  <SCORE.INTER.ROT>
7

>  <SCORE.INTER.SOLV>
16.6478

>  <SCORE.INTER.VDW>
-23.227

>  <SCORE.INTER.norm>
-0.522836

>  <SCORE.INTRA>
-0.565984

>  <SCORE.INTRA.DIHEDRAL>
-4.36494

>  <SCORE.INTRA.DIHEDRAL.0>
10.4103

>  <SCORE.INTRA.POLAR>
0

>  <SCORE.INTRA.POLAR.0>
0

>  <SCORE.INTRA.REPUL>
0

>  <SCORE.INTRA.REPUL.0>
0

>  <SCORE.INTRA.SOLV>
0.122049

>  <SCORE.INTRA.SOLV.lig_0>
-49.5008

>  <SCORE.INTRA.VDW>
1.55546

>  <SCORE.INTRA.VDW.0>
-2.6946

>  <SCORE.INTRA.norm>
-0.0209624

>  <SCORE.RESTR>
0.00978644

>  <SCORE.RESTR.CAVITY>
0.00978644

>  <SCORE.RESTR.norm>
0.000362461

>  <SCORE.SYSTEM>
0

>  <SCORE.SYSTEM.CONST>
0

>  <SCORE.SYSTEM.DIHEDRAL>
0

>  <SCORE.SYSTEM.SOLV>
0

>  <SCORE.SYSTEM.norm>
0

>  <SCORE.heavy>
27

>  <SCORE.norm>
-0.543436

>  <RMSD>
15.404

$$$$
ligand
 OpenBabel02271912153D
libRbt.so/2013.1/901 2013/11/27
 27 29  0  0  0  0  0  0  0  0999 V2000
   10.3327   -6.4843    5.1241 N   0  0  0  0  0  0  0  0  0  0  0  0
   10.8295   -7.5463    5.9781 C   0  0  2  0  0  0  0  0  0  0  0  0
   11.1887   -8.6991    5.0919 C   0  0  0  0  0  0  0  0  0  0  0  0
   10.7805   -8.7106    3.9106 O   0  0  0  0  0  0  0  0  0  0  0  0
    9.7583   -7.9661    6.9882 C   0  0  0  0  0  0  0  0  0  0  0  0
   10.3083   -8.9953    8.0006 C   0  0  0  0  0  0  0  0  0  0  0  0
    9.3230   -9.3079    9.3222 S   0  0  2  0  0  0  0  0  0  0  0  0
   10.2576   -9.8119   10.5994 C   0  0  0  0  0  0  0  0  0  0  0  0
    8.1817  -10.4834    8.9170 C   0  0  0  0  0  0  0  0  0  0  0  0
    7.0570   -9.9750    7.9906 C   0  0  1  0  0  0  0  0  0  0  0  0
    5.9597  -10.8960    7.8741 O   0  0  0  0  0  0  0  0  0  0  0  0
    6.3648   -8.7230    8.5049 C   0  0  1  0  0  0  0  0  0  0  0  0
    7.0772   -7.4752    8.3859 O   0  0  0  0  0  0  0  0  0  0  0  0
    5.0824   -8.7716    7.7117 C   0  0  1  0  0  0  0  0  0  0  0  0
    5.3379   -8.4472    6.3484 O   0  0  0  0  0  0  0  0  0  0  0  0
    4.7022  -10.2197    7.8037 C   0  0  2  0  0  0  0  0  0  0  0  0
   11.9177   -9.6159    5.5404 O   0  0  0  0  0  0  0  0  0  0  0  0
    0.7731   -8.7262   11.0607 N   0  0  0  0  0  0  0  0  0  0  0  0
    1.3037   -8.0646   10.0037 C   0  0  0  0  0  0  0  0  0  0  0  0
    2.3096   -8.5621    9.2648 N   0  0  0  0  0  0  0  0  0  0  0  0
    2.8427   -9.7632    9.5147 C   0  0  0  0  0  0  0  0  0  0  0  0
    2.3001  -10.5330   10.6240 C   0  0  0  0  0  0  0  0  0  0  0  0
    1.2033   -9.9690   11.4444 C   0  0  0  0  0  0  0  0  0  0  0  0
    0.6525  -10.6489   12.5108 N   0  0  0  0  0  0  0  0  0  0  0  0
    2.9785  -11.6579   10.6432 N   0  0  0  0  0  0  0  0  0  0  0  0
    3.8918  -11.6311    9.6628 C   0  0  0  0  0  0  0  0  0  0  0  0
    3.8127  -10.4933    8.9738 N   0  0  0  0  0  0  0  0  0  0  0  0
  2  1  1  6  0  0  0
  2  3  1  0  0  0  0
  2  5  1  0  0  0  0
  3  4  1  0  0  0  0
  3 17  1  0  0  0  0
  5  6  1  0  0  0  0
  7  6  1  6  0  0  0
  7  8  1  0  0  0  0
  7  9  1  0  0  0  0
 10  9  1  1  0  0  0
 10 11  1  0  0  0  0
 10 12  1  0  0  0  0
 11 16  1  0  0  0  0
 12 13  1  6  0  0  0
 12 14  1  0  0  0  0
 14 15  1  6  0  0  0
 14 16  1  0  0  0  0
 16 27  1  1  0  0  0
 18 19  2  0  0  0  0
 18 23  1  0  0  0  0
 19 20  1  0  0  0  0
 20 21  2  0  0  0  0
 21 22  1  0  0  0  0
 21 27  1  0  0  0  0
 22 23  2  0  0  0  0
 22 25  1  0  0  0  0
 23 24  1  0  0  0  0
 25 26  2  0  0  0  0
 26 27  1  0  0  0  0
M  END
>  <CHROM.1>
-14.54598658,-174.29015364,168.85605799,-153.74279391,-73.51348055,-168.14905397
153.46291057,6.44201595,-9.32201671,8.41308686,0.46283714,0.10331846,-1.04970165

>  <Name>
ligand

>  <RI>
0

>  <Rbt.Current_Directory>
/home/itssahil/PROJECTS/Mol_Feturizer/Test_systems_manuscript/rnas/4kqy

>  <Rbt.Executable>
rbdock ($Id: //depot/dev/client3/rdock/2013.1/src/exe/rbdock.cxx#4 $)

>  <Rbt.Library>
libRbt.so (2013.1, Build901 2013/11/27)

>  <Rbt.Parameter_File>
/export/apps/rDock/src/rDock_2013.1_src/data/scripts/dock_solv.prm

>  <Rbt.Receptor>
prm/blind_docking_20.prm

>  <SCORE>
-13.6532

>  <SCORE.INTER>
-11.8533

>  <SCORE.INTER.CONST>
1

>  <SCORE.INTER.POLAR>
0

>  <SCORE.INTER.ROT>
7

>  <SCORE.INTER.SOLV>
9.78071

>  <SCORE.INTER.VDW>
-19.4291

>  <SCORE.INTER.norm>
-0.439013

>  <SCORE.INTRA>
-1.79981

>  <SCORE.INTRA.DIHEDRAL>
-4.17407

>  <SCORE.INTRA.DIHEDRAL.0>
10.4103

>  <SCORE.INTRA.POLAR>
0

>  <SCORE.INTRA.POLAR.0>
0

>  <SCORE.INTRA.REPUL>
0

>  <SCORE.INTRA.REPUL.0>
0

>  <SCORE.INTRA.SOLV>
-0.0921837

>  <SCORE.INTRA.SOLV.lig_0>
-49.5008

>  <SCORE.INTRA.VDW>
0.333318

>  <SCORE.INTRA.VDW.0>
-2.6946

>  <SCORE.INTRA.norm>
-0.0666596

>  <SCORE.RESTR>
0

>  <SCORE.RESTR.CAVITY>
0

>  <SCORE.RESTR.norm>
0

>  <SCORE.SYSTEM>
0

>  <SCORE.SYSTEM.CONST>
0

>  <SCORE.SYSTEM.DIHEDRAL>
0

>  <SCORE.SYSTEM.SOLV>
0

>  <SCORE.SYSTEM.norm>
0

>  <SCORE.heavy>
27

>  <SCORE.norm>
-0.505672

>  <RMSD>
15.428

$$$$
ligand
 OpenBabel02271912153D
libRbt.so/2013.1/901 2013/11/27
 27 29  0  0  0  0  0  0  0  0999 V2000
   12.0159   -9.4640    5.6643 N   0  0  0  0  0  0  0  0  0  0  0  0
   11.7407   -8.1585    6.2337 C   0  0  2  0  0  0  0  0  0  0  0  0
   13.0332   -7.4021    6.2585 C   0  0  0  0  0  0  0  0  0  0  0  0
   14.1042   -8.0183    6.0702 O   0  0  0  0  0  0  0  0  0  0  0  0
   11.1807   -8.3003    7.6516 C   0  0  0  0  0  0  0  0  0  0  0  0
    9.9239   -9.1984    7.6759 C   0  0  0  0  0  0  0  0  0  0  0  0
    9.1627   -9.3375    9.1646 S   0  0  2  0  0  0  0  0  0  0  0  0
   10.2727   -9.8008   10.3100 C   0  0  0  0  0  0  0  0  0  0  0  0
    7.9078  -10.4613    9.0603 C   0  0  0  0  0  0  0  0  0  0  0  0
    6.7894  -10.0654    8.0733 C   0  0  1  0  0  0  0  0  0  0  0  0
    5.6929  -10.9945    8.0579 O   0  0  0  0  0  0  0  0  0  0  0  0
    6.0939   -8.7625    8.4332 C   0  0  1  0  0  0  0  0  0  0  0  0
    6.8071   -7.5365    8.1741 O   0  0  0  0  0  0  0  0  0  0  0  0
    4.8168   -8.9043    7.6426 C   0  0  1  0  0  0  0  0  0  0  0  0
    5.0816   -8.7411    6.2525 O   0  0  0  0  0  0  0  0  0  0  0  0
    4.4359  -10.3320    7.9006 C   0  0  2  0  0  0  0  0  0  0  0  0
   13.0160   -6.1606    6.4362 O   0  0  0  0  0  0  0  0  0  0  0  0
    0.6145   -8.3821   11.0424 N   0  0  0  0  0  0  0  0  0  0  0  0
    1.1761   -7.8313    9.9388 C   0  0  0  0  0  0  0  0  0  0  0  0
    2.1484   -8.4382    9.2376 N   0  0  0  0  0  0  0  0  0  0  0  0
    2.6141   -9.6459    9.5751 C   0  0  0  0  0  0  0  0  0  0  0  0
    2.0348  -10.2998   10.7388 C   0  0  0  0  0  0  0  0  0  0  0  0
    0.9758   -9.6156   11.5164 C   0  0  0  0  0  0  0  0  0  0  0  0
    0.3931  -10.1827   12.6307 N   0  0  0  0  0  0  0  0  0  0  0  0
    2.6486  -11.4569   10.8403 N   0  0  0  0  0  0  0  0  0  0  0  0
    3.5568  -11.5542    9.8597 C   0  0  0  0  0  0  0  0  0  0  0  0
    3.5385  -10.4677    9.0886 N   0  0  0  0  0  0  0  0  0  0  0  0
  2  1  1  1  0  0  0
  2  3  1  0  0  0  0
  2  5  1  0  0  0  0
  3  4  1  0  0  0  0
  3 17  1  0  0  0  0
  5  6  1  0  0  0  0
  7  6  1  6  0  0  0
  7  8  1  0  0  0  0
  7  9  1  0  0  0  0
 10  9  1  1  0  0  0
 10 11  1  0  0  0  0
 10 12  1  0  0  0  0
 11 16  1  0  0  0  0
 12 13  1  6  0  0  0
 12 14  1  0  0  0  0
 14 15  1  6  0  0  0
 14 16  1  0  0  0  0
 16 27  1  1  0  0  0
 18 19  2  0  0  0  0
 18 23  1  0  0  0  0
 19 20  1  0  0  0  0
 20 21  2  0  0  0  0
 21 22  1  0  0  0  0
 21 27  1  0  0  0  0
 22 23  2  0  0  0  0
 22 25  1  0  0  0  0
 23 24  1  0  0  0  0
 25 26  2  0  0  0  0
 26 27  1  0  0  0  0
M  END
>  <CHROM.1>
-13.47249470,-55.75651325,-175.92062905,-52.86870145,-62.44593612,-176.49659719
149.32930860,6.63855987,-9.21821252,8.61708534,-0.33869943,-0.12822184,2.33319600

>  <Name>
ligand

>  <RI>
0

>  <Rbt.Current_Directory>
/home/itssahil/PROJECTS/Mol_Feturizer/Test_systems_manuscript/rnas/4kqy

>  <Rbt.Executable>
rbdock ($Id: //depot/dev/client3/rdock/2013.1/src/exe/rbdock.cxx#4 $)

>  <Rbt.Library>
libRbt.so (2013.1, Build901 2013/11/27)

>  <Rbt.Parameter_File>
/export/apps/rDock/src/rDock_2013.1_src/data/scripts/dock_solv.prm

>  <Rbt.Receptor>
prm/blind_docking_20.prm

>  <SCORE>
-16.0863

>  <SCORE.INTER>
-13.6614

>  <SCORE.INTER.CONST>
1

>  <SCORE.INTER.POLAR>
0

>  <SCORE.INTER.ROT>
7

>  <SCORE.INTER.SOLV>
14.3646

>  <SCORE.INTER.VDW>
-22.1625

>  <SCORE.INTER.norm>
-0.505977

>  <SCORE.INTRA>
-2.42489

>  <SCORE.INTRA.DIHEDRAL>
-7.36489

>  <SCORE.INTRA.DIHEDRAL.0>
10.4103

>  <SCORE.INTRA.POLAR>
0

>  <SCORE.INTRA.POLAR.0>
0

>  <SCORE.INTRA.REPUL>
0

>  <SCORE.INTRA.REPUL.0>
0

>  <SCORE.INTRA.SOLV>
0.435956

>  <SCORE.INTRA.SOLV.lig_0>
-49.5008

>  <SCORE.INTRA.VDW>
1.03957

>  <SCORE.INTRA.VDW.0>
-2.6946

>  <SCORE.INTRA.norm>
-0.0898107

>  <SCORE.RESTR>
0

>  <SCORE.RESTR.CAVITY>
0

>  <SCORE.RESTR.norm>
0

>  <SCORE.SYSTEM>
0

>  <SCORE.SYSTEM.CONST>
0

>  <SCORE.SYSTEM.DIHEDRAL>
0

>  <SCORE.SYSTEM.SOLV>
0

>  <SCORE.SYSTEM.norm>
0

>  <SCORE.heavy>
27

>  <SCORE.norm>
-0.595787

>  <RMSD>
15.498

$$$$
ligand
 OpenBabel02271912153D
libRbt.so/2013.1/901 2013/11/27
 27 29  0  0  0  0  0  0  0  0999 V2000
    9.8335  -17.6558    5.2955 N   0  0  0  0  0  0  0  0  0  0  0  0
    9.8521  -18.6630    6.3393 C   0  0  2  0  0  0  0  0  0  0  0  0
   10.9262  -19.6465    5.9901 C   0  0  0  0  0  0  0  0  0  0  0  0
   11.2318  -19.8155    4.7899 O   0  0  0  0  0  0  0  0  0  0  0  0
    8.4953  -19.3670    6.4279 C   0  0  0  0  0  0  0  0  0  0  0  0
    7.3606  -18.3693    6.7498 C   0  0  0  0  0  0  0  0  0  0  0  0
    5.9202  -19.0549    7.2698 S   0  0  2  0  0  0  0  0  0  0  0  0
    5.1561  -19.7746    5.9827 C   0  0  0  0  0  0  0  0  0  0  0  0
    4.9392  -17.8666    7.9583 C   0  0  0  0  0  0  0  0  0  0  0  0
    5.4383  -17.3534    9.3255 C   0  0  1  0  0  0  0  0  0  0  0  0
    5.4818  -15.9192    9.4104 O   0  0  0  0  0  0  0  0  0  0  0  0
    4.5181  -17.7101   10.4817 C   0  0  1  0  0  0  0  0  0  0  0  0
    4.5355  -19.0749   10.9463 O   0  0  0  0  0  0  0  0  0  0  0  0
    4.9720  -16.7082   11.5144 C   0  0  1  0  0  0  0  0  0  0  0  0
    6.2552  -17.0699   12.0159 O   0  0  0  0  0  0  0  0  0  0  0  0
    5.1024  -15.4509   10.7067 C   0  0  2  0  0  0  0  0  0  0  0  0
   11.5214  -20.2593    6.9085 O   0  0  0  0  0  0  0  0  0  0  0  0
    2.5314  -10.8889    9.7827 N   0  0  0  0  0  0  0  0  0  0  0  0
    3.8441  -11.1789    9.6110 C   0  0  0  0  0  0  0  0  0  0  0  0
    4.3657  -12.3842    9.8949 N   0  0  0  0  0  0  0  0  0  0  0  0
    3.6115  -13.3910   10.3496 C   0  0  0  0  0  0  0  0  0  0  0  0
    2.1886  -13.1484   10.5337 C   0  0  0  0  0  0  0  0  0  0  0  0
    1.6253  -11.8113   10.2353 C   0  0  0  0  0  0  0  0  0  0  0  0
    0.2864  -11.5203   10.3952 N   0  0  0  0  0  0  0  0  0  0  0  0
    1.6866  -14.2823   10.9675 N   0  0  0  0  0  0  0  0  0  0  0  0
    2.6753  -15.1798   11.0809 C   0  0  0  0  0  0  0  0  0  0  0  0
    3.8392  -14.6513   10.7048 N   0  0  0  0  0  0  0  0  0  0  0  0
  2  1  1  6  0  0  0
  2  3  1  0  0  0  0
  2  5  1  0  0  0  0
  3  4  1  0  0  0  0
  3 17  1  0  0  0  0
  5  6  1  0  0  0  0
  7  6  1  6  0  0  0
  7  8  1  0  0  0  0
  7  9  1  0  0  0  0
 10  9  1  6  0  0  0
 10 11  1  0  0  0  0
 10 12  1  0  0  0  0
 11 16  1  0  0  0  0
 12 13  1  1  0  0  0
 12 14  1  0  0  0  0
 14 15  1  6  0  0  0
 14 16  1  0  0  0  0
 16 27  1  6  0  0  0
 18 19  2  0  0  0  0
 18 23  1  0  0  0  0
 19 20  1  0  0  0  0
 20 21  2  0  0  0  0
 21 22  1  0  0  0  0
 21 27  1  0  0  0  0
 22 23  2  0  0  0  0
 22 25  1  0  0  0  0
 23 24  1  0  0  0  0
 25 26  2  0  0  0  0
 26 27  1  0  0  0  0
M  END
>  <CHROM.1>
-27.52317358,-60.01189313,-164.40097139,-73.16753785,-71.23144336,130.80620769
-77.87567785,5.60213543,-16.48052027,8.83126450,-0.51556757,0.70912197,-0.27022938

>  <Name>
ligand

>  <RI>
0

>  <Rbt.Current_Directory>
/home/itssahil/PROJECTS/Mol_Feturizer/Test_systems_manuscript/rnas/4kqy

>  <Rbt.Executable>
rbdock ($Id: //depot/dev/client3/rdock/2013.1/src/exe/rbdock.cxx#4 $)

>  <Rbt.Library>
libRbt.so (2013.1, Build901 2013/11/27)

>  <Rbt.Parameter_File>
/export/apps/rDock/src/rDock_2013.1_src/data/scripts/dock_solv.prm

>  <Rbt.Receptor>
prm/blind_docking_80.prm

>  <SCORE>
-17.7218

>  <SCORE.INTER>
-18.3987

>  <SCORE.INTER.CONST>
1

>  <SCORE.INTER.POLAR>
0

>  <SCORE.INTER.ROT>
7

>  <SCORE.INTER.SOLV>
17.9297

>  <SCORE.INTER.VDW>
-26.509

>  <SCORE.INTER.norm>
-0.681433

>  <SCORE.INTRA>
0.676835

>  <SCORE.INTRA.DIHEDRAL>
-0.993691

>  <SCORE.INTRA.DIHEDRAL.0>
10.4103

>  <SCORE.INTRA.POLAR>
0

>  <SCORE.INTRA.POLAR.0>
0

>  <SCORE.INTRA.REPUL>
0

>  <SCORE.INTRA.REPUL.0>
0

>  <SCORE.INTRA.SOLV>
0.0424706

>  <SCORE.INTRA.SOLV.lig_0>
-49.5008

>  <SCORE.INTRA.VDW>
1.15245

>  <SCORE.INTRA.VDW.0>
-2.6946

>  <SCORE.INTRA.norm>
0.025068

>  <SCORE.RESTR>
0

>  <SCORE.RESTR.CAVITY>
0

>  <SCORE.RESTR.norm>
0

>  <SCORE.SYSTEM>
0

>  <SCORE.SYSTEM.CONST>
0

>  <SCORE.SYSTEM.DIHEDRAL>
0

>  <SCORE.SYSTEM.SOLV>
0

>  <SCORE.SYSTEM.norm>
0

>  <SCORE.heavy>
27

>  <SCORE.norm>
-0.656365

>  <RMSD>
15.501

$$$$
ligand
 OpenBabel02271912153D
libRbt.so/2013.1/901 2013/11/27
 27 29  0  0  0  0  0  0  0  0999 V2000
    2.2683  -12.9919   12.4491 N   0  0  0  0  0  0  0  0  0  0  0  0
    2.3346  -12.2912   11.1807 C   0  0  2  0  0  0  0  0  0  0  0  0
    0.9949  -12.4290   10.5253 C   0  0  0  0  0  0  0  0  0  0  0  0
    0.2013  -13.3022   10.9373 O   0  0  0  0  0  0  0  0  0  0  0  0
    3.4255  -12.8950   10.2921 C   0  0  0  0  0  0  0  0  0  0  0  0
    4.8353  -12.6125   10.8569 C   0  0  0  0  0  0  0  0  0  0  0  0
    6.1110  -12.9507    9.8209 S   0  0  2  0  0  0  0  0  0  0  0  0
    7.5452  -12.5872   10.5756 C   0  0  0  0  0  0  0  0  0  0  0  0
    5.9420  -12.0584    8.3983 C   0  0  0  0  0  0  0  0  0  0  0  0
    5.2501  -10.6924    8.5911 C   0  0  1  0  0  0  0  0  0  0  0  0
    6.0184   -9.7762    9.3887 O   0  0  0  0  0  0  0  0  0  0  0  0
    5.0724   -9.9129    7.2982 C   0  0  1  0  0  0  0  0  0  0  0  0
    4.0365  -10.3516    6.3964 O   0  0  0  0  0  0  0  0  0  0  0  0
    4.8590   -8.5219    7.8422 C   0  0  1  0  0  0  0  0  0  0  0  0
    3.5713   -8.4241    8.4432 O   0  0  0  0  0  0  0  0  0  0  0  0
    5.9040   -8.4324    8.9146 C   0  0  2  0  0  0  0  0  0  0  0  0
    0.6809  -11.6464    9.5968 O   0  0  0  0  0  0  0  0  0  0  0  0
   10.2704   -8.9029    5.9163 N   0  0  0  0  0  0  0  0  0  0  0  0
    9.2543   -9.7829    6.0887 C   0  0  0  0  0  0  0  0  0  0  0  0
    8.2053   -9.5346    6.8907 N   0  0  0  0  0  0  0  0  0  0  0  0
    8.0852   -8.3830    7.5605 C   0  0  0  0  0  0  0  0  0  0  0  0
    9.1340   -7.3873    7.3991 C   0  0  0  0  0  0  0  0  0  0  0  0
   10.2957   -7.6768    6.5269 C   0  0  0  0  0  0  0  0  0  0  0  0
   11.3225   -6.7750    6.3391 N   0  0  0  0  0  0  0  0  0  0  0  0
    8.7720   -6.3645    8.1399 N   0  0  0  0  0  0  0  0  0  0  0  0
    7.6142   -6.6569    8.7480 C   0  0  0  0  0  0  0  0  0  0  0  0
    7.1904   -7.8712    8.3994 N   0  0  0  0  0  0  0  0  0  0  0  0
  2  1  1  1  0  0  0
  2  3  1  0  0  0  0
  2  5  1  0  0  0  0
  3  4  1  0  0  0  0
  3 17  1  0  0  0  0
  5  6  1  0  0  0  0
  7  6  1  1  0  0  0
  7  8  1  0  0  0  0
  7  9  1  0  0  0  0
 10  9  1  6  0  0  0
 10 11  1  0  0  0  0
 10 12  1  0  0  0  0
 11 16  1  0  0  0  0
 12 13  1  1  0  0  0
 12 14  1  0  0  0  0
 14 15  1  1  0  0  0
 14 16  1  0  0  0  0
 16 27  1  6  0  0  0
 18 19  2  0  0  0  0
 18 23  1  0  0  0  0
 19 20  1  0  0  0  0
 20 21  2  0  0  0  0
 21 22  1  0  0  0  0
 21 27  1  0  0  0  0
 22 23  2  0  0  0  0
 22 25  1  0  0  0  0
 23 24  1  0  0  0  0
 25 26  2  0  0  0  0
 26 27  1  0  0  0  0
M  END
>  <CHROM.1>
-16.30916375,-68.64024499,-168.15717564,179.76236113,31.34702879,65.74804266
47.87557782,5.79796600,-10.24465073,8.74027867,-2.45091973,0.15412171,-0.46042019

>  <Name>
ligand

>  <RI>
0

>  <Rbt.Current_Directory>
/home/itssahil/PROJECTS/Mol_Feturizer/Test_systems_manuscript/rnas/4kqy

>  <Rbt.Executable>
rbdock ($Id: //depot/dev/client3/rdock/2013.1/src/exe/rbdock.cxx#4 $)

>  <Rbt.Library>
libRbt.so (2013.1, Build901 2013/11/27)

>  <Rbt.Parameter_File>
/export/apps/rDock/src/rDock_2013.1_src/data/scripts/dock_solv.prm

>  <Rbt.Receptor>
prm/blind_docking_40.prm

>  <SCORE>
-13.7589

>  <SCORE.INTER>
-11.9462

>  <SCORE.INTER.CONST>
1

>  <SCORE.INTER.POLAR>
0

>  <SCORE.INTER.ROT>
7

>  <SCORE.INTER.SOLV>
7.89245

>  <SCORE.INTER.VDW>
-18.8616

>  <SCORE.INTER.norm>
-0.442451

>  <SCORE.INTRA>
-2.44684

>  <SCORE.INTRA.DIHEDRAL>
-4.47401

>  <SCORE.INTRA.DIHEDRAL.0>
10.4103

>  <SCORE.INTRA.POLAR>
0

>  <SCORE.INTRA.POLAR.0>
0

>  <SCORE.INTRA.REPUL>
0

>  <SCORE.INTRA.REPUL.0>
0

>  <SCORE.INTRA.SOLV>
0.185986

>  <SCORE.INTRA.SOLV.lig_0>
-49.5008

>  <SCORE.INTRA.VDW>
-0.302824

>  <SCORE.INTRA.VDW.0>
-2.6946

>  <SCORE.INTRA.norm>
-0.0906235

>  <SCORE.RESTR>
0.634075

>  <SCORE.RESTR.CAVITY>
0.634075

>  <SCORE.RESTR.norm>
0.0234843

>  <SCORE.SYSTEM>
0

>  <SCORE.SYSTEM.CONST>
0

>  <SCORE.SYSTEM.DIHEDRAL>
0

>  <SCORE.SYSTEM.SOLV>
0

>  <SCORE.SYSTEM.norm>
0

>  <SCORE.heavy>
27

>  <SCORE.norm>
-0.509591

>  <RMSD>
15.520

$$$$
ligand
 OpenBabel02271912153D
libRbt.so/2013.1/901 2013/11/27
 27 29  0  0  0  0  0  0  0  0999 V2000
   12.1803   -9.4736    5.7520 N   0  0  0  0  0  0  0  0  0  0  0  0
   11.7057   -8.1762    6.1945 C   0  0  2  0  0  0  0  0  0  0  0  0
   12.8824   -7.2496    6.2000 C   0  0  0  0  0  0  0  0  0  0  0  0
   12.8276   -6.1981    6.8734 O   0  0  0  0  0  0  0  0  0  0  0  0
   11.1023   -8.2772    7.5980 C   0  0  0  0  0  0  0  0  0  0  0  0
    9.9301   -9.2825    7.6385 C   0  0  0  0  0  0  0  0  0  0  0  0
    9.1436   -9.4180    9.1144 S   0  0  2  0  0  0  0  0  0  0  0  0
   10.2278   -9.9072   10.2737 C   0  0  0  0  0  0  0  0  0  0  0  0
    7.8717  -10.5197    8.9835 C   0  0  0  0  0  0  0  0  0  0  0  0
    6.7706  -10.0939    7.9895 C   0  0  1  0  0  0  0  0  0  0  0  0
    5.6529  -10.9971    7.9617 O   0  0  0  0  0  0  0  0  0  0  0  0
    6.1028   -8.7766    8.3494 C   0  0  1  0  0  0  0  0  0  0  0  0
    6.8464   -7.5666    8.1009 O   0  0  0  0  0  0  0  0  0  0  0  0
    4.8291   -8.8854    7.5482 C   0  0  1  0  0  0  0  0  0  0  0  0
    5.1085   -8.7230    6.1609 O   0  0  0  0  0  0  0  0  0  0  0  0
    4.4130  -10.3049    7.7974 C   0  0  2  0  0  0  0  0  0  0  0  0
   13.9125   -7.5597    5.5551 O   0  0  0  0  0  0  0  0  0  0  0  0
    0.5841   -8.2967   10.8930 N   0  0  0  0  0  0  0  0  0  0  0  0
    1.1617   -7.7582    9.7916 C   0  0  0  0  0  0  0  0  0  0  0  0
    2.1338   -8.3793    9.1028 N   0  0  0  0  0  0  0  0  0  0  0  0
    2.5834   -9.5900    9.4512 C   0  0  0  0  0  0  0  0  0  0  0  0
    1.9865  -10.2311   10.6132 C   0  0  0  0  0  0  0  0  0  0  0  0
    0.9279   -9.5312   11.3772 C   0  0  0  0  0  0  0  0  0  0  0  0
    0.3289  -10.0858   12.4892 N   0  0  0  0  0  0  0  0  0  0  0  0
    2.5870  -11.3940   10.7268 N   0  0  0  0  0  0  0  0  0  0  0  0
    3.5030  -11.5066    9.7551 C   0  0  0  0  0  0  0  0  0  0  0  0
    3.5034  -10.4243    8.9778 N   0  0  0  0  0  0  0  0  0  0  0  0
  2  1  1  1  0  0  0
  2  3  1  0  0  0  0
  2  5  1  0  0  0  0
  3  4  1  0  0  0  0
  3 17  1  0  0  0  0
  5  6  1  0  0  0  0
  7  6  1  6  0  0  0
  7  8  1  0  0  0  0
  7  9  1  0  0  0  0
 10  9  1  1  0  0  0
 10 11  1  0  0  0  0
 10 12  1  0  0  0  0
 11 16  1  0  0  0  0
 12 13  1  6  0  0  0
 12 14  1  0  0  0  0
 14 15  1  6  0  0  0
 14 16  1  0  0  0  0
 16 27  1  1  0  0  0
 18 19  2  0  0  0  0
 18 23  1  0  0  0  0
 19 20  1  0  0  0  0
 20 21  2  0  0  0  0
 21 22  1  0  0  0  0
 21 27  1  0  0  0  0
 22 23  2  0  0  0  0
 22 25  1  0  0  0  0
 23 24  1  0  0  0  0
 25 26  2  0  0  0  0
 26 27  1  0  0  0  0
M  END
>  <CHROM.1>
-160.59055569,-58.64665756,-177.13708343,-59.77206078,-62.86126008,-175.88143255
150.24271477,6.60288019,-9.19007062,8.53648124,-0.32865445,-0.13976208,2.37996722

>  <Name>
ligand

>  <RI>
0

>  <Rbt.Current_Directory>
/home/itssahil/PROJECTS/Mol_Feturizer/Test_systems_manuscript/rnas/4kqy

>  <Rbt.Executable>
rbdock ($Id: //depot/dev/client3/rdock/2013.1/src/exe/rbdock.cxx#4 $)

>  <Rbt.Library>
libRbt.so (2013.1, Build901 2013/11/27)

>  <Rbt.Parameter_File>
/export/apps/rDock/src/rDock_2013.1_src/data/scripts/dock_solv.prm

>  <Rbt.Receptor>
prm/blind_docking_20.prm

>  <SCORE>
-15.3397

>  <SCORE.INTER>
-13.0414

>  <SCORE.INTER.CONST>
1

>  <SCORE.INTER.POLAR>
0

>  <SCORE.INTER.ROT>
7

>  <SCORE.INTER.SOLV>
14.9479

>  <SCORE.INTER.VDW>
-21.9436

>  <SCORE.INTER.norm>
-0.483014

>  <SCORE.INTRA>
-2.29836

>  <SCORE.INTRA.DIHEDRAL>
-7.55744

>  <SCORE.INTRA.DIHEDRAL.0>
10.4103

>  <SCORE.INTRA.POLAR>
0

>  <SCORE.INTRA.POLAR.0>
0

>  <SCORE.INTRA.REPUL>
0

>  <SCORE.INTRA.REPUL.0>
0

>  <SCORE.INTRA.SOLV>
0.421073

>  <SCORE.INTRA.SOLV.lig_0>
-49.5008

>  <SCORE.INTRA.VDW>
1.26982

>  <SCORE.INTRA.VDW.0>
-2.6946

>  <SCORE.INTRA.norm>
-0.0851246

>  <SCORE.RESTR>
0

>  <SCORE.RESTR.CAVITY>
0

>  <SCORE.RESTR.norm>
0

>  <SCORE.SYSTEM>
0

>  <SCORE.SYSTEM.CONST>
0

>  <SCORE.SYSTEM.DIHEDRAL>
0

>  <SCORE.SYSTEM.SOLV>
0

>  <SCORE.SYSTEM.norm>
0

>  <SCORE.heavy>
27

>  <SCORE.norm>
-0.568138

>  <RMSD>
15.523

$$$$
ligand
 OpenBabel02271912153D
libRbt.so/2013.1/901 2013/11/27
 27 29  0  0  0  0  0  0  0  0999 V2000
    2.7933  -21.2331    6.5691 N   0  0  0  0  0  0  0  0  0  0  0  0
    3.2472  -20.4489    5.4363 C   0  0  2  0  0  0  0  0  0  0  0  0
    2.4612  -20.8953    4.2421 C   0  0  0  0  0  0  0  0  0  0  0  0
    2.1040  -20.0479    3.3956 O   0  0  0  0  0  0  0  0  0  0  0  0
    4.7439  -20.6676    5.1993 C   0  0  0  0  0  0  0  0  0  0  0  0
    5.5801  -20.2265    6.4211 C   0  0  0  0  0  0  0  0  0  0  0  0
    6.6504  -18.9636    6.1474 S   0  0  2  0  0  0  0  0  0  0  0  0
    8.1962  -19.4679    6.4867 C   0  0  0  0  0  0  0  0  0  0  0  0
    6.2294  -17.6413    7.1081 C   0  0  0  0  0  0  0  0  0  0  0  0
    5.8752  -18.0093    8.5644 C   0  0  1  0  0  0  0  0  0  0  0  0
    6.1184  -16.9401    9.4937 O   0  0  0  0  0  0  0  0  0  0  0  0
    4.3956  -18.2838    8.7796 C   0  0  1  0  0  0  0  0  0  0  0  0
    3.8773  -19.5398    8.2974 O   0  0  0  0  0  0  0  0  0  0  0  0
    4.2995  -18.1183   10.2761 C   0  0  1  0  0  0  0  0  0  0  0  0
    4.9184  -19.2214   10.9310 O   0  0  0  0  0  0  0  0  0  0  0  0
    5.1213  -16.8867   10.5167 C   0  0  2  0  0  0  0  0  0  0  0  0
    2.2025  -22.1139    4.0963 O   0  0  0  0  0  0  0  0  0  0  0  0
    4.6924  -11.6556    9.6637 N   0  0  0  0  0  0  0  0  0  0  0  0
    5.7847  -12.4509    9.5590 C   0  0  0  0  0  0  0  0  0  0  0  0
    5.7514  -13.7696    9.8142 N   0  0  0  0  0  0  0  0  0  0  0  0
    4.6223  -14.3917   10.1712 C   0  0  0  0  0  0  0  0  0  0  0  0
    3.4093  -13.5951   10.2792 C   0  0  0  0  0  0  0  0  0  0  0  0
    3.4591  -12.1387   10.0134 C   0  0  0  0  0  0  0  0  0  0  0  0
    2.3442  -11.3317   10.1049 N   0  0  0  0  0  0  0  0  0  0  0  0
    2.4603  -14.4354   10.6244 N   0  0  0  0  0  0  0  0  0  0  0  0
    2.9900  -15.6596   10.7538 C   0  0  0  0  0  0  0  0  0  0  0  0
    4.2933  -15.6426   10.4768 N   0  0  0  0  0  0  0  0  0  0  0  0
  2  1  1  1  0  0  0
  2  3  1  0  0  0  0
  2  5  1  0  0  0  0
  3  4  1  0  0  0  0
  3 17  1  0  0  0  0
  5  6  1  0  0  0  0
  7  6  1  1  0  0  0
  7  8  1  0  0  0  0
  7  9  1  0  0  0  0
 10  9  1  6  0  0  0
 10 11  1  0  0  0  0
 10 12  1  0  0  0  0
 11 16  1  0  0  0  0
 12 13  1  1  0  0  0
 12 14  1  0  0  0  0
 14 15  1  1  0  0  0
 14 16  1  0  0  0  0
 16 27  1  6  0  0  0
 18 19  2  0  0  0  0
 18 23  1  0  0  0  0
 19 20  1  0  0  0  0
 20 21  2  0  0  0  0
 21 22  1  0  0  0  0
 21 27  1  0  0  0  0
 22 23  2  0  0  0  0
 22 25  1  0  0  0  0
 23 24  1  0  0  0  0
 25 26  2  0  0  0  0
 26 27  1  0  0  0  0
M  END
>  <CHROM.1>
142.47178610,-61.07208597,-117.17701065,-120.77489655,44.08933862,153.02461701
-36.09029922,4.51002863,-17.38345364,8.11210917,1.58163862,0.30353204,-2.54802949

>  <Name>
ligand

>  <RI>
0

>  <Rbt.Current_Directory>
/home/itssahil/PROJECTS/Mol_Feturizer/Test_systems_manuscript/rnas/4kqy

>  <Rbt.Executable>
rbdock ($Id: //depot/dev/client3/rdock/2013.1/src/exe/rbdock.cxx#4 $)

>  <Rbt.Library>
libRbt.so (2013.1, Build901 2013/11/27)

>  <Rbt.Parameter_File>
/export/apps/rDock/src/rDock_2013.1_src/data/scripts/dock_solv.prm

>  <Rbt.Receptor>
prm/blind_docking_100.prm

>  <SCORE>
-11.5708

>  <SCORE.INTER>
-17.5

>  <SCORE.INTER.CONST>
1

>  <SCORE.INTER.POLAR>
0

>  <SCORE.INTER.ROT>
7

>  <SCORE.INTER.SOLV>
15.7489

>  <SCORE.INTER.VDW>
-25.183

>  <SCORE.INTER.norm>
-0.64815

>  <SCORE.INTRA>
5.91098

>  <SCORE.INTRA.DIHEDRAL>
5.52671

>  <SCORE.INTRA.DIHEDRAL.0>
10.4103

>  <SCORE.INTRA.POLAR>
0

>  <SCORE.INTRA.POLAR.0>
0

>  <SCORE.INTRA.REPUL>
0

>  <SCORE.INTRA.REPUL.0>
0

>  <SCORE.INTRA.SOLV>
2.46792

>  <SCORE.INTRA.SOLV.lig_0>
-49.5008

>  <SCORE.INTRA.VDW>
1.91366

>  <SCORE.INTRA.VDW.0>
-2.6946

>  <SCORE.INTRA.norm>
0.218925

>  <SCORE.RESTR>
0.018267

>  <SCORE.RESTR.CAVITY>
0.018267

>  <SCORE.RESTR.norm>
0.000676557

>  <SCORE.SYSTEM>
0

>  <SCORE.SYSTEM.CONST>
0

>  <SCORE.SYSTEM.DIHEDRAL>
0

>  <SCORE.SYSTEM.SOLV>
0

>  <SCORE.SYSTEM.norm>
0

>  <SCORE.heavy>
27

>  <SCORE.norm>
-0.428548

>  <RMSD>
15.685

$$$$
ligand
 OpenBabel02271912153D
libRbt.so/2013.1/901 2013/11/27
 27 29  0  0  0  0  0  0  0  0999 V2000
   13.2086   -7.8514    5.4055 N   0  0  0  0  0  0  0  0  0  0  0  0
   12.2629   -8.6864    6.1213 C   0  0  2  0  0  0  0  0  0  0  0  0
   10.9609   -8.6175    5.3842 C   0  0  0  0  0  0  0  0  0  0  0  0
   10.4230   -9.6768    4.9959 O   0  0  0  0  0  0  0  0  0  0  0  0
   12.0874   -8.1861    7.5577 C   0  0  0  0  0  0  0  0  0  0  0  0
   11.0172   -9.0037    8.3144 C   0  0  0  0  0  0  0  0  0  0  0  0
    9.4366   -8.4711    8.1318 S   0  0  2  0  0  0  0  0  0  0  0  0
    9.1583   -7.2050    9.1701 C   0  0  0  0  0  0  0  0  0  0  0  0
    8.3681   -9.7410    8.4386 C   0  0  0  0  0  0  0  0  0  0  0  0
    7.0762   -9.6935    7.5956 C   0  0  1  0  0  0  0  0  0  0  0  0
    6.2228  -10.8313    7.8029 O   0  0  0  0  0  0  0  0  0  0  0  0
    6.1561   -8.5388    7.9575 C   0  0  1  0  0  0  0  0  0  0  0  0
    6.5384   -7.2218    7.5128 O   0  0  0  0  0  0  0  0  0  0  0  0
    4.8557   -9.0279    7.3693 C   0  0  1  0  0  0  0  0  0  0  0  0
    4.9033   -8.9532    5.9476 O   0  0  0  0  0  0  0  0  0  0  0  0
    4.8397  -10.4706    7.7799 C   0  0  2  0  0  0  0  0  0  0  0  0
   10.4182   -7.5023    5.1973 O   0  0  0  0  0  0  0  0  0  0  0  0
    0.3644  -10.9485   10.6118 N   0  0  0  0  0  0  0  0  0  0  0  0
    0.5146  -10.7532    9.2792 C   0  0  0  0  0  0  0  0  0  0  0  0
    1.7178  -10.6421    8.6914 N   0  0  0  0  0  0  0  0  0  0  0  0
    2.8558  -10.7393    9.3878 C   0  0  0  0  0  0  0  0  0  0  0  0
    2.7608  -10.9716   10.8211 C   0  0  0  0  0  0  0  0  0  0  0  0
    1.4300  -11.0748   11.4634 C   0  0  0  0  0  0  0  0  0  0  0  0
    1.2770  -11.2891   12.8175 N   0  0  0  0  0  0  0  0  0  0  0  0
    3.9992  -11.0391   11.2544 N   0  0  0  0  0  0  0  0  0  0  0  0
    4.8317  -10.8500   10.2213 C   0  0  0  0  0  0  0  0  0  0  0  0
    4.1495  -10.6736    9.0904 N   0  0  0  0  0  0  0  0  0  0  0  0
  2  1  1  6  0  0  0
  2  3  1  0  0  0  0
  2  5  1  0  0  0  0
  3  4  1  0  0  0  0
  3 17  1  0  0  0  0
  5  6  1  0  0  0  0
  7  6  1  1  0  0  0
  7  8  1  0  0  0  0
  7  9  1  0  0  0  0
 10  9  1  1  0  0  0
 10 11  1  0  0  0  0
 10 12  1  0  0  0  0
 11 16  1  0  0  0  0
 12 13  1  6  0  0  0
 12 14  1  0  0  0  0
 14 15  1  6  0  0  0
 14 16  1  0  0  0  0
 16 27  1  1  0  0  0
 18 19  2  0  0  0  0
 18 23  1  0  0  0  0
 19 20  1  0  0  0  0
 20 21  2  0  0  0  0
 21 22  1  0  0  0  0
 21 27  1  0  0  0  0
 22 23  2  0  0  0  0
 22 25  1  0  0  0  0
 23 24  1  0  0  0  0
 25 26  2  0  0  0  0
 26 27  1  0  0  0  0
M  END
>  <CHROM.1>
124.33835960,176.35670144,-86.70643166,-81.60783673,-146.90733294,175.90998380
-163.28602834,6.61573450,-9.47888215,8.22841352,0.43009734,-0.19604784,-1.39084296

>  <Name>
ligand

>  <RI>
0

>  <Rbt.Current_Directory>
/home/itssahil/PROJECTS/Mol_Feturizer/Test_systems_manuscript/rnas/4kqy

>  <Rbt.Executable>
rbdock ($Id: //depot/dev/client3/rdock/2013.1/src/exe/rbdock.cxx#4 $)

>  <Rbt.Library>
libRbt.so (2013.1, Build901 2013/11/27)

>  <Rbt.Parameter_File>
/export/apps/rDock/src/rDock_2013.1_src/data/scripts/dock_solv.prm

>  <Rbt.Receptor>
prm/blind_docking_40.prm

>  <SCORE>
-11.1553

>  <SCORE.INTER>
-10.0385

>  <SCORE.INTER.CONST>
1

>  <SCORE.INTER.POLAR>
0

>  <SCORE.INTER.ROT>
7

>  <SCORE.INTER.SOLV>
13.0096

>  <SCORE.INTER.VDW>
-19.2955

>  <SCORE.INTER.norm>
-0.371796

>  <SCORE.INTRA>
-1.11679

>  <SCORE.INTRA.DIHEDRAL>
-1.10231

>  <SCORE.INTRA.DIHEDRAL.0>
10.4103

>  <SCORE.INTRA.POLAR>
0

>  <SCORE.INTRA.POLAR.0>
0

>  <SCORE.INTRA.REPUL>
0

>  <SCORE.INTRA.REPUL.0>
0

>  <SCORE.INTRA.SOLV>
-0.249383

>  <SCORE.INTRA.SOLV.lig_0>
-49.5008

>  <SCORE.INTRA.VDW>
-0.44094

>  <SCORE.INTRA.VDW.0>
-2.6946

>  <SCORE.INTRA.norm>
-0.0413624

>  <SCORE.RESTR>
0

>  <SCORE.RESTR.CAVITY>
0

>  <SCORE.RESTR.norm>
0

>  <SCORE.SYSTEM>
0

>  <SCORE.SYSTEM.CONST>
0

>  <SCORE.SYSTEM.DIHEDRAL>
0

>  <SCORE.SYSTEM.SOLV>
0

>  <SCORE.SYSTEM.norm>
0

>  <SCORE.heavy>
27

>  <SCORE.norm>
-0.413158

>  <RMSD>
15.696

$$$$
ligand
 OpenBabel02271912153D
libRbt.so/2013.1/901 2013/11/27
 27 29  0  0  0  0  0  0  0  0999 V2000
   11.2165   -5.3457    6.2790 N   0  0  0  0  0  0  0  0  0  0  0  0
   11.1687   -6.5137    7.1378 C   0  0  2  0  0  0  0  0  0  0  0  0
   12.5804   -6.9629    7.3576 C   0  0  0  0  0  0  0  0  0  0  0  0
   13.4163   -6.8187    6.4396 O   0  0  0  0  0  0  0  0  0  0  0  0
   10.3526   -7.6292    6.4791 C   0  0  0  0  0  0  0  0  0  0  0  0
   10.1157   -8.8061    7.4515 C   0  0  0  0  0  0  0  0  0  0  0  0
    9.0842   -8.4872    8.7358 S   0  0  2  0  0  0  0  0  0  0  0  0
    9.3347   -9.6083    9.9354 C   0  0  0  0  0  0  0  0  0  0  0  0
    7.4827   -8.5288    8.2045 C   0  0  0  0  0  0  0  0  0  0  0  0
    7.0693   -9.8677    7.5577 C   0  0  1  0  0  0  0  0  0  0  0  0
    7.0104  -10.9552    8.4956 O   0  0  0  0  0  0  0  0  0  0  0  0
    5.6575   -9.8604    6.9941 C   0  0  1  0  0  0  0  0  0  0  0  0
    5.4413   -9.1534    5.7562 O   0  0  0  0  0  0  0  0  0  0  0  0
    5.3885  -11.3423    6.9054 C   0  0  1  0  0  0  0  0  0  0  0  0
    6.1444  -11.9138    5.8420 O   0  0  0  0  0  0  0  0  0  0  0  0
    5.9288  -11.8457    8.2111 C   0  0  2  0  0  0  0  0  0  0  0  0
   12.9063   -7.4462    8.4682 O   0  0  0  0  0  0  0  0  0  0  0  0
    1.7791   -9.5971   10.6606 N   0  0  0  0  0  0  0  0  0  0  0  0
    2.4910   -9.1459    9.5993 C   0  0  0  0  0  0  0  0  0  0  0  0
    3.5316   -9.8203    9.0820 N   0  0  0  0  0  0  0  0  0  0  0  0
    3.9221  -11.0018    9.5730 C   0  0  0  0  0  0  0  0  0  0  0  0
    3.1825  -11.5505   10.6996 C   0  0  0  0  0  0  0  0  0  0  0  0
    2.0479  -10.7916   11.2750 C   0  0  0  0  0  0  0  0  0  0  0  0
    1.3133  -11.2579   12.3454 N   0  0  0  0  0  0  0  0  0  0  0  0
    3.7515  -12.7027   10.9728 N   0  0  0  0  0  0  0  0  0  0  0  0
    4.7763  -12.8915   10.1301 C   0  0  0  0  0  0  0  0  0  0  0  0
    4.8826  -11.8720    9.2788 N   0  0  0  0  0  0  0  0  0  0  0  0
  2  1  1  6  0  0  0
  2  3  1  0  0  0  0
  2  5  1  0  0  0  0
  3  4  1  0  0  0  0
  3 17  1  0  0  0  0
  5  6  1  0  0  0  0
  7  6  1  6  0  0  0
  7  8  1  0  0  0  0
  7  9  1  0  0  0  0
 10  9  1  1  0  0  0
 10 11  1  0  0  0  0
 10 12  1  0  0  0  0
 11 16  1  0  0  0  0
 12 13  1  6  0  0  0
 12 14  1  0  0  0  0
 14 15  1  6  0  0  0
 14 16  1  0  0  0  0
 16 27  1  1  0  0  0
 18 19  2  0  0  0  0
 18 23  1  0  0  0  0
 19 20  1  0  0  0  0
 20 21  2  0  0  0  0
 21 22  1  0  0  0  0
 21 27  1  0  0  0  0
 22 23  2  0  0  0  0
 22 25  1  0  0  0  0
 23 24  1  0  0  0  0
 25 26  2  0  0  0  0
 26 27  1  0  0  0  0
M  END
>  <CHROM.1>
-33.50839410,-171.88677704,69.22285815,-160.55770176,57.75620476,68.44502156
76.27875628,6.96743651,-9.60204820,8.46477455,-0.20581349,0.48712388,1.35661419

>  <Name>
ligand

>  <RI>
0

>  <Rbt.Current_Directory>
/home/itssahil/PROJECTS/Mol_Feturizer/Test_systems_manuscript/rnas/4kqy

>  <Rbt.Executable>
rbdock ($Id: //depot/dev/client3/rdock/2013.1/src/exe/rbdock.cxx#4 $)

>  <Rbt.Library>
libRbt.so (2013.1, Build901 2013/11/27)

>  <Rbt.Parameter_File>
/export/apps/rDock/src/rDock_2013.1_src/data/scripts/dock_solv.prm

>  <Rbt.Receptor>
prm/blind_docking_60.prm

>  <SCORE>
-12.9372

>  <SCORE.INTER>
-9.60319

>  <SCORE.INTER.CONST>
1

>  <SCORE.INTER.POLAR>
0

>  <SCORE.INTER.ROT>
7

>  <SCORE.INTER.SOLV>
10.1571

>  <SCORE.INTER.VDW>
-18.0545

>  <SCORE.INTER.norm>
-0.355674

>  <SCORE.INTRA>
-3.33769

>  <SCORE.INTRA.DIHEDRAL>
-5.70837

>  <SCORE.INTRA.DIHEDRAL.0>
10.4103

>  <SCORE.INTRA.POLAR>
0

>  <SCORE.INTRA.POLAR.0>
0

>  <SCORE.INTRA.REPUL>
0

>  <SCORE.INTRA.REPUL.0>
0

>  <SCORE.INTRA.SOLV>
-0.381171

>  <SCORE.INTRA.SOLV.lig_0>
-49.5008

>  <SCORE.INTRA.VDW>
-0.292917

>  <SCORE.INTRA.VDW.0>
-2.6946

>  <SCORE.INTRA.norm>
-0.123618

>  <SCORE.RESTR>
0.00367611

>  <SCORE.RESTR.CAVITY>
0.00367611

>  <SCORE.RESTR.norm>
0.000136152

>  <SCORE.SYSTEM>
0

>  <SCORE.SYSTEM.CONST>
0

>  <SCORE.SYSTEM.DIHEDRAL>
0

>  <SCORE.SYSTEM.SOLV>
0

>  <SCORE.SYSTEM.norm>
0

>  <SCORE.heavy>
27

>  <SCORE.norm>
-0.479156

>  <RMSD>
15.733

$$$$
ligand
 OpenBabel02271912153D
libRbt.so/2013.1/901 2013/11/27
 27 29  0  0  0  0  0  0  0  0999 V2000
   10.0615  -18.6859    4.1074 N   0  0  0  0  0  0  0  0  0  0  0  0
   10.1204  -18.3968    5.5276 C   0  0  2  0  0  0  0  0  0  0  0  0
   11.2678  -19.1755    6.0934 C   0  0  0  0  0  0  0  0  0  0  0  0
   12.3345  -19.2472    5.4460 O   0  0  0  0  0  0  0  0  0  0  0  0
    8.8127  -18.8048    6.2115 C   0  0  0  0  0  0  0  0  0  0  0  0
    7.6194  -17.9723    5.6922 C   0  0  0  0  0  0  0  0  0  0  0  0
    6.2077  -18.0923    6.5911 S   0  0  2  0  0  0  0  0  0  0  0  0
    4.8977  -17.9033    5.5876 C   0  0  0  0  0  0  0  0  0  0  0  0
    6.2038  -16.9201    7.8054 C   0  0  0  0  0  0  0  0  0  0  0  0
    5.8082  -17.4575    9.1970 C   0  0  1  0  0  0  0  0  0  0  0  0
    5.7550  -16.4342   10.2049 O   0  0  0  0  0  0  0  0  0  0  0  0
    4.3998  -18.0271    9.2511 C   0  0  1  0  0  0  0  0  0  0  0  0
    4.1837  -19.3196    8.6499 O   0  0  0  0  0  0  0  0  0  0  0  0
    4.1468  -17.9958   10.7381 C   0  0  1  0  0  0  0  0  0  0  0  0
    4.9149  -19.0051   11.3862 O   0  0  0  0  0  0  0  0  0  0  0  0
    4.6845  -16.6506   11.1273 C   0  0  2  0  0  0  0  0  0  0  0  0
   11.1493  -19.7150    7.2196 O   0  0  0  0  0  0  0  0  0  0  0  0
    3.1681  -11.7119    9.8682 N   0  0  0  0  0  0  0  0  0  0  0  0
    4.3766  -12.3023    9.7021 C   0  0  0  0  0  0  0  0  0  0  0  0
    4.6250  -13.5685   10.0766 N   0  0  0  0  0  0  0  0  0  0  0  0
    3.6802  -14.3417   10.6234 C   0  0  0  0  0  0  0  0  0  0  0  0
    2.3542  -13.7715   10.8074 C   0  0  0  0  0  0  0  0  0  0  0  0
    2.0941  -12.3690   10.4081 C   0  0  0  0  0  0  0  0  0  0  0  0
    0.8599  -11.7727   10.5628 N   0  0  0  0  0  0  0  0  0  0  0  0
    1.6260  -14.7265   11.3401 N   0  0  0  0  0  0  0  0  0  0  0  0
    2.3925  -15.8121   11.5128 C   0  0  0  0  0  0  0  0  0  0  0  0
    3.6322  -15.5897   11.0778 N   0  0  0  0  0  0  0  0  0  0  0  0
  2  1  1  6  0  0  0
  2  3  1  0  0  0  0
  2  5  1  0  0  0  0
  3  4  1  0  0  0  0
  3 17  1  0  0  0  0
  5  6  1  0  0  0  0
  7  6  1  6  0  0  0
  7  8  1  0  0  0  0
  7  9  1  0  0  0  0
 10  9  1  6  0  0  0
 10 11  1  0  0  0  0
 10 12  1  0  0  0  0
 11 16  1  0  0  0  0
 12 13  1  1  0  0  0
 12 14  1  0  0  0  0
 14 15  1  1  0  0  0
 14 16  1  0  0  0  0
 16 27  1  6  0  0  0
 18 19  2  0  0  0  0
 18 23  1  0  0  0  0
 19 20  1  0  0  0  0
 20 21  2  0  0  0  0
 21 22  1  0  0  0  0
 21 27  1  0  0  0  0
 22 23  2  0  0  0  0
 22 25  1  0  0  0  0
 23 24  1  0  0  0  0
 25 26  2  0  0  0  0
 26 27  1  0  0  0  0
M  END
>  <CHROM.1>
40.98970923,-64.09286794,-167.30905339,-149.12222011,-132.97971932,-177.48628662
-20.89365704,5.72074374,-16.68664560,8.61821214,-0.36093949,0.70344713,-0.27816169

>  <Name>
ligand

>  <RI>
0

>  <Rbt.Current_Directory>
/home/itssahil/PROJECTS/Mol_Feturizer/Test_systems_manuscript/rnas/4kqy

>  <Rbt.Executable>
rbdock ($Id: //depot/dev/client3/rdock/2013.1/src/exe/rbdock.cxx#4 $)

>  <Rbt.Library>
libRbt.so (2013.1, Build901 2013/11/27)

>  <Rbt.Parameter_File>
/export/apps/rDock/src/rDock_2013.1_src/data/scripts/dock_solv.prm

>  <Rbt.Receptor>
prm/blind_docking_60.prm

>  <SCORE>
-17.6639

>  <SCORE.INTER>
-18.7428

>  <SCORE.INTER.CONST>
1

>  <SCORE.INTER.POLAR>
0

>  <SCORE.INTER.ROT>
7

>  <SCORE.INTER.SOLV>
18.9964

>  <SCORE.INTER.VDW>
-27.094

>  <SCORE.INTER.norm>
-0.694177

>  <SCORE.INTRA>
1.07883

>  <SCORE.INTRA.DIHEDRAL>
-0.422497

>  <SCORE.INTRA.DIHEDRAL.0>
10.4103

>  <SCORE.INTRA.POLAR>
0

>  <SCORE.INTRA.POLAR.0>
0

>  <SCORE.INTRA.REPUL>
0

>  <SCORE.INTRA.REPUL.0>
0

>  <SCORE.INTRA.SOLV>
0.313902

>  <SCORE.INTRA.SOLV.lig_0>
-49.5008

>  <SCORE.INTRA.VDW>
1.13312

>  <SCORE.INTRA.VDW.0>
-2.6946

>  <SCORE.INTRA.norm>
0.0399565

>  <SCORE.RESTR>
0

>  <SCORE.RESTR.CAVITY>
0

>  <SCORE.RESTR.norm>
0

>  <SCORE.SYSTEM>
0

>  <SCORE.SYSTEM.CONST>
0

>  <SCORE.SYSTEM.DIHEDRAL>
0

>  <SCORE.SYSTEM.SOLV>
0

>  <SCORE.SYSTEM.norm>
0

>  <SCORE.heavy>
27

>  <SCORE.norm>
-0.65422

>  <RMSD>
15.740

$$$$
ligand
 OpenBabel02271912153D
libRbt.so/2013.1/901 2013/11/27
 27 29  0  0  0  0  0  0  0  0999 V2000
   12.3152   -6.0344    5.9724 N   0  0  0  0  0  0  0  0  0  0  0  0
   11.8955   -7.3306    6.4700 C   0  0  2  0  0  0  0  0  0  0  0  0
   12.9971   -8.3004    6.1716 C   0  0  0  0  0  0  0  0  0  0  0  0
   12.8016   -9.5211    6.3554 O   0  0  0  0  0  0  0  0  0  0  0  0
   10.5989   -7.7723    5.7859 C   0  0  0  0  0  0  0  0  0  0  0  0
   10.0175   -9.0436    6.4433 C   0  0  0  0  0  0  0  0  0  0  0  0
    9.5528   -8.8810    8.0473 S   0  0  2  0  0  0  0  0  0  0  0  0
   10.8601   -9.1662    9.0314 C   0  0  0  0  0  0  0  0  0  0  0  0
    8.3007   -9.9594    8.3902 C   0  0  0  0  0  0  0  0  0  0  0  0
    7.0444   -9.7631    7.5156 C   0  0  1  0  0  0  0  0  0  0  0  0
    6.1157  -10.8565    7.6050 O   0  0  0  0  0  0  0  0  0  0  0  0
    6.1851   -8.5837    7.9415 C   0  0  1  0  0  0  0  0  0  0  0  0
    6.6632   -7.2630    7.6158 O   0  0  0  0  0  0  0  0  0  0  0  0
    4.8783   -8.9406    7.2773 C   0  0  1  0  0  0  0  0  0  0  0  0
    4.9800   -8.7578    5.8683 O   0  0  0  0  0  0  0  0  0  0  0  0
    4.7591  -10.4070    7.5698 C   0  0  2  0  0  0  0  0  0  0  0  0
   14.0842   -7.8744    5.7132 O   0  0  0  0  0  0  0  0  0  0  0  0
    1.1001   -8.9648   11.1486 N   0  0  0  0  0  0  0  0  0  0  0  0
    1.4784   -8.3315   10.0117 C   0  0  0  0  0  0  0  0  0  0  0  0
    2.4319   -8.8105    9.1952 N   0  0  0  0  0  0  0  0  0  0  0  0
    3.0601   -9.9651    9.4437 C   0  0  0  0  0  0  0  0  0  0  0  0
    2.6819  -10.7040   10.6388 C   0  0  0  0  0  0  0  0  0  0  0  0
    1.6424  -10.1595   11.5427 C   0  0  0  0  0  0  0  0  0  0  0  0
    1.2461  -10.8116   12.6918 N   0  0  0  0  0  0  0  0  0  0  0  0
    3.4261  -11.7867   10.6392 N   0  0  0  0  0  0  0  0  0  0  0  0
    4.2309  -11.7609    9.5679 C   0  0  0  0  0  0  0  0  0  0  0  0
    4.0124  -10.6674    8.8385 N   0  0  0  0  0  0  0  0  0  0  0  0
  2  1  1  6  0  0  0
  2  3  1  0  0  0  0
  2  5  1  0  0  0  0
  3  4  1  0  0  0  0
  3 17  1  0  0  0  0
  5  6  1  0  0  0  0
  7  6  1  6  0  0  0
  7  8  1  0  0  0  0
  7  9  1  0  0  0  0
 10  9  1  1  0  0  0
 10 11  1  0  0  0  0
 10 12  1  0  0  0  0
 11 16  1  0  0  0  0
 12 13  1  6  0  0  0
 12 14  1  0  0  0  0
 14 15  1  6  0  0  0
 14 16  1  0  0  0  0
 16 27  1  1  0  0  0
 18 19  2  0  0  0  0
 18 23  1  0  0  0  0
 19 20  1  0  0  0  0
 20 21  2  0  0  0  0
 21 22  1  0  0  0  0
 21 27  1  0  0  0  0
 22 23  2  0  0  0  0
 22 25  1  0  0  0  0
 23 24  1  0  0  0  0
 25 26  2  0  0  0  0
 26 27  1  0  0  0  0
M  END
>  <CHROM.1>
-171.13105925,-171.52344460,63.20726007,-86.91234497,-59.08072740,166.90741993
145.80728780,6.91390662,-9.23058426,8.19884093,0.39947280,0.14082599,-0.77767661

>  <Name>
ligand

>  <RI>
0

>  <Rbt.Current_Directory>
/home/itssahil/PROJECTS/Mol_Feturizer/Test_systems_manuscript/rnas/4kqy

>  <Rbt.Executable>
rbdock ($Id: //depot/dev/client3/rdock/2013.1/src/exe/rbdock.cxx#4 $)

>  <Rbt.Library>
libRbt.so (2013.1, Build901 2013/11/27)

>  <Rbt.Parameter_File>
/export/apps/rDock/src/rDock_2013.1_src/data/scripts/dock_solv.prm

>  <Rbt.Receptor>
prm/blind_docking_20.prm

>  <SCORE>
-16.9274

>  <SCORE.INTER>
-15.2873

>  <SCORE.INTER.CONST>
1

>  <SCORE.INTER.POLAR>
0

>  <SCORE.INTER.ROT>
7

>  <SCORE.INTER.SOLV>
11.3077

>  <SCORE.INTER.VDW>
-22.2274

>  <SCORE.INTER.norm>
-0.566196

>  <SCORE.INTRA>
-1.64007

>  <SCORE.INTRA.DIHEDRAL>
-4.71111

>  <SCORE.INTRA.DIHEDRAL.0>
10.4103

>  <SCORE.INTRA.POLAR>
0

>  <SCORE.INTRA.POLAR.0>
0

>  <SCORE.INTRA.REPUL>
0

>  <SCORE.INTRA.REPUL.0>
0

>  <SCORE.INTRA.SOLV>
-0.107898

>  <SCORE.INTRA.SOLV.lig_0>
-49.5008

>  <SCORE.INTRA.VDW>
0.769435

>  <SCORE.INTRA.VDW.0>
-2.6946

>  <SCORE.INTRA.norm>
-0.0607432

>  <SCORE.RESTR>
0

>  <SCORE.RESTR.CAVITY>
0

>  <SCORE.RESTR.norm>
0

>  <SCORE.SYSTEM>
0

>  <SCORE.SYSTEM.CONST>
0

>  <SCORE.SYSTEM.DIHEDRAL>
0

>  <SCORE.SYSTEM.SOLV>
0

>  <SCORE.SYSTEM.norm>
0

>  <SCORE.heavy>
27

>  <SCORE.norm>
-0.626939

>  <RMSD>
15.919

$$$$
ligand
 OpenBabel02271912153D
libRbt.so/2013.1/901 2013/11/27
 27 29  0  0  0  0  0  0  0  0999 V2000
   11.0124  -17.4636    6.0221 N   0  0  0  0  0  0  0  0  0  0  0  0
   10.6286  -18.8584    5.9149 C   0  0  2  0  0  0  0  0  0  0  0  0
   11.8022  -19.6015    5.3549 C   0  0  0  0  0  0  0  0  0  0  0  0
   12.0349  -19.5391    4.1285 O   0  0  0  0  0  0  0  0  0  0  0  0
    9.4149  -19.0102    4.9939 C   0  0  0  0  0  0  0  0  0  0  0  0
    8.2297  -18.1429    5.4729 C   0  0  0  0  0  0  0  0  0  0  0  0
    7.3576  -18.7603    6.7665 S   0  0  2  0  0  0  0  0  0  0  0  0
    6.3377  -19.9538    6.2242 C   0  0  0  0  0  0  0  0  0  0  0  0
    6.4849  -17.5211    7.5090 C   0  0  0  0  0  0  0  0  0  0  0  0
    5.9558  -17.8789    8.9139 C   0  0  1  0  0  0  0  0  0  0  0  0
    6.0755  -16.7998    9.8558 O   0  0  0  0  0  0  0  0  0  0  0  0
    4.4627  -18.1626    8.9473 C   0  0  1  0  0  0  0  0  0  0  0  0
    4.0159  -19.4266    8.4168 O   0  0  0  0  0  0  0  0  0  0  0  0
    4.1811  -17.9846   10.4187 C   0  0  1  0  0  0  0  0  0  0  0  0
    4.7213  -19.0773   11.1557 O   0  0  0  0  0  0  0  0  0  0  0  0
    4.9592  -16.7448   10.7472 C   0  0  2  0  0  0  0  0  0  0  0  0
   12.5484  -20.2467    6.1296 O   0  0  0  0  0  0  0  0  0  0  0  0
    0.4398  -14.0765   11.6021 N   0  0  0  0  0  0  0  0  0  0  0  0
    0.7734  -15.3340   11.9813 C   0  0  0  0  0  0  0  0  0  0  0  0
    1.9603  -15.8913   11.6880 N   0  0  0  0  0  0  0  0  0  0  0  0
    2.9058  -15.2264   11.0146 C   0  0  0  0  0  0  0  0  0  0  0  0
    2.6158  -13.8625   10.5990 C   0  0  0  0  0  0  0  0  0  0  0  0
    1.2979  -13.2624   10.9110 C   0  0  0  0  0  0  0  0  0  0  0  0
    0.9638  -11.9769   10.5386 N   0  0  0  0  0  0  0  0  0  0  0  0
    3.6953  -13.4409    9.9802 N   0  0  0  0  0  0  0  0  0  0  0  0
    4.6014  -14.4282    9.9664 C   0  0  0  0  0  0  0  0  0  0  0  0
    4.1346  -15.5073   10.5933 N   0  0  0  0  0  0  0  0  0  0  0  0
  2  1  1  6  0  0  0
  2  3  1  0  0  0  0
  2  5  1  0  0  0  0
  3  4  1  0  0  0  0
  3 17  1  0  0  0  0
  5  6  1  0  0  0  0
  7  6  1  6  0  0  0
  7  8  1  0  0  0  0
  7  9  1  0  0  0  0
 10  9  1  6  0  0  0
 10 11  1  0  0  0  0
 10 12  1  0  0  0  0
 11 16  1  0  0  0  0
 12 13  1  1  0  0  0
 12 14  1  0  0  0  0
 14 15  1  1  0  0  0
 14 16  1  0  0  0  0
 16 27  1  6  0  0  0
 18 19  2  0  0  0  0
 18 23  1  0  0  0  0
 19 20  1  0  0  0  0
 20 21  2  0  0  0  0
 21 22  1  0  0  0  0
 21 27  1  0  0  0  0
 22 23  2  0  0  0  0
 22 25  1  0  0  0  0
 23 24  1  0  0  0  0
 25 26  2  0  0  0  0
 26 27  1  0  0  0  0
M  END
>  <CHROM.1>
-78.24406264,-55.99198973,-78.10372465,-78.01796942,-164.36951466,139.25848768
163.88599520,5.87184352,-17.15227811,8.57549832,-0.42554144,0.58777142,-0.02049843

>  <Name>
ligand

>  <RI>
0

>  <Rbt.Current_Directory>
/home/itssahil/PROJECTS/Mol_Feturizer/Test_systems_manuscript/rnas/4kqy

>  <Rbt.Executable>
rbdock ($Id: //depot/dev/client3/rdock/2013.1/src/exe/rbdock.cxx#4 $)

>  <Rbt.Library>
libRbt.so (2013.1, Build901 2013/11/27)

>  <Rbt.Parameter_File>
/export/apps/rDock/src/rDock_2013.1_src/data/scripts/dock_solv.prm

>  <Rbt.Receptor>
prm/blind_docking_40.prm

>  <SCORE>
-15.1181

>  <SCORE.INTER>
-15.577

>  <SCORE.INTER.CONST>
1

>  <SCORE.INTER.POLAR>
0

>  <SCORE.INTER.ROT>
7

>  <SCORE.INTER.SOLV>
20.1429

>  <SCORE.INTER.VDW>
-25.3656

>  <SCORE.INTER.norm>
-0.576927

>  <SCORE.INTRA>
0.458896

>  <SCORE.INTRA.DIHEDRAL>
-0.826768

>  <SCORE.INTRA.DIHEDRAL.0>
10.4103

>  <SCORE.INTRA.POLAR>
0

>  <SCORE.INTRA.POLAR.0>
0

>  <SCORE.INTRA.REPUL>
0

>  <SCORE.INTRA.REPUL.0>
0

>  <SCORE.INTRA.SOLV>
0.76835

>  <SCORE.INTRA.SOLV.lig_0>
-49.5008

>  <SCORE.INTRA.VDW>
0.488105

>  <SCORE.INTRA.VDW.0>
-2.6946

>  <SCORE.INTRA.norm>
0.0169962

>  <SCORE.RESTR>
0

>  <SCORE.RESTR.CAVITY>
0

>  <SCORE.RESTR.norm>
0

>  <SCORE.SYSTEM>
0

>  <SCORE.SYSTEM.CONST>
0

>  <SCORE.SYSTEM.DIHEDRAL>
0

>  <SCORE.SYSTEM.SOLV>
0

>  <SCORE.SYSTEM.norm>
0

>  <SCORE.heavy>
27

>  <SCORE.norm>
-0.559931

>  <RMSD>
16.019

$$$$
ligand
 OpenBabel02271912153D
libRbt.so/2013.1/901 2013/11/27
 27 29  0  0  0  0  0  0  0  0999 V2000
    2.3489  -13.4386   11.5986 N   0  0  0  0  0  0  0  0  0  0  0  0
    2.8629  -12.0864   11.4909 C   0  0  2  0  0  0  0  0  0  0  0  0
    1.6988  -11.1548   11.6323 C   0  0  0  0  0  0  0  0  0  0  0  0
    0.5991  -11.4723   11.1303 O   0  0  0  0  0  0  0  0  0  0  0  0
    3.5472  -11.8802   10.1369 C   0  0  0  0  0  0  0  0  0  0  0  0
    4.2073  -10.4866   10.0434 C   0  0  0  0  0  0  0  0  0  0  0  0
    4.7391  -10.0388    8.5164 S   0  0  2  0  0  0  0  0  0  0  0  0
    5.9242  -11.0892    8.0155 C   0  0  0  0  0  0  0  0  0  0  0  0
    5.3228   -8.4557    8.5576 C   0  0  0  0  0  0  0  0  0  0  0  0
    6.4147   -8.2155    9.6215 C   0  0  1  0  0  0  0  0  0  0  0  0
    7.7036   -8.7196    9.2338 O   0  0  0  0  0  0  0  0  0  0  0  0
    6.7118   -6.7449    9.8666 C   0  0  1  0  0  0  0  0  0  0  0  0
    5.7489   -5.9925   10.6317 O   0  0  0  0  0  0  0  0  0  0  0  0
    8.0681   -6.8430   10.5201 C   0  0  1  0  0  0  0  0  0  0  0  0
    7.9381   -7.3580   11.8418 O   0  0  0  0  0  0  0  0  0  0  0  0
    8.7628   -7.8629    9.6672 C   0  0  2  0  0  0  0  0  0  0  0  0
    1.8389  -10.0886   12.2779 O   0  0  0  0  0  0  0  0  0  0  0  0
    9.0043   -4.3884    5.6490 N   0  0  0  0  0  0  0  0  0  0  0  0
    7.9817   -4.6360    6.5032 C   0  0  0  0  0  0  0  0  0  0  0  0
    8.0556   -5.5572    7.4785 N   0  0  0  0  0  0  0  0  0  0  0  0
    9.1614   -6.2812    7.6840 C   0  0  0  0  0  0  0  0  0  0  0  0
   10.3029   -6.0456    6.8128 C   0  0  0  0  0  0  0  0  0  0  0  0
   10.2064   -5.0407    5.7289 C   0  0  0  0  0  0  0  0  0  0  0  0
   11.2524   -4.7775    4.8690 N   0  0  0  0  0  0  0  0  0  0  0  0
   11.2443   -6.8615    7.2298 N   0  0  0  0  0  0  0  0  0  0  0  0
   10.7720   -7.5806    8.2573 C   0  0  0  0  0  0  0  0  0  0  0  0
    9.5175   -7.2326    8.5410 N   0  0  0  0  0  0  0  0  0  0  0  0
  2  1  1  6  0  0  0
  2  3  1  0  0  0  0
  2  5  1  0  0  0  0
  3  4  1  0  0  0  0
  3 17  1  0  0  0  0
  5  6  1  0  0  0  0
  7  6  1  1  0  0  0
  7  8  1  0  0  0  0
  7  9  1  0  0  0  0
 10  9  1  6  0  0  0
 10 11  1  0  0  0  0
 10 12  1  0  0  0  0
 11 16  1  0  0  0  0
 12 13  1  1  0  0  0
 12 14  1  0  0  0  0
 14 15  1  1  0  0  0
 14 16  1  0  0  0  0
 16 27  1  6  0  0  0
 18 19  2  0  0  0  0
 18 23  1  0  0  0  0
 19 20  1  0  0  0  0
 20 21  2  0  0  0  0
 21 22  1  0  0  0  0
 21 27  1  0  0  0  0
 22 23  2  0  0  0  0
 22 25  1  0  0  0  0
 23 24  1  0  0  0  0
 25 26  2  0  0  0  0
 26 27  1  0  0  0  0
M  END
>  <CHROM.1>
-37.18526893,-175.20783347,-169.15958895,-62.69167963,54.48916067,77.19951111
71.14077946,6.54567811,-8.30932341,9.06813039,3.11799952,0.76249352,0.98579193

>  <Name>
ligand

>  <RI>
0

>  <Rbt.Current_Directory>
/home/itssahil/PROJECTS/Mol_Feturizer/Test_systems_manuscript/rnas/4kqy

>  <Rbt.Executable>
rbdock ($Id: //depot/dev/client3/rdock/2013.1/src/exe/rbdock.cxx#4 $)

>  <Rbt.Library>
libRbt.so (2013.1, Build901 2013/11/27)

>  <Rbt.Parameter_File>
/export/apps/rDock/src/rDock_2013.1_src/data/scripts/dock_solv.prm

>  <Rbt.Receptor>
prm/blind_docking_80.prm

>  <SCORE>
-9.10607

>  <SCORE.INTER>
-6.07802

>  <SCORE.INTER.CONST>
1

>  <SCORE.INTER.POLAR>
0

>  <SCORE.INTER.ROT>
7

>  <SCORE.INTER.SOLV>
9.48766

>  <SCORE.INTER.VDW>
-15.4812

>  <SCORE.INTER.norm>
-0.225112

>  <SCORE.INTRA>
-3.02805

>  <SCORE.INTRA.DIHEDRAL>
-5.95106

>  <SCORE.INTRA.DIHEDRAL.0>
10.4103

>  <SCORE.INTRA.POLAR>
0

>  <SCORE.INTRA.POLAR.0>
0

>  <SCORE.INTRA.REPUL>
0

>  <SCORE.INTRA.REPUL.0>
0

>  <SCORE.INTRA.SOLV>
-0.562785

>  <SCORE.INTRA.SOLV.lig_0>
-49.5008

>  <SCORE.INTRA.VDW>
0.228871

>  <SCORE.INTRA.VDW.0>
-2.6946

>  <SCORE.INTRA.norm>
-0.11215

>  <SCORE.RESTR>
0

>  <SCORE.RESTR.CAVITY>
0

>  <SCORE.RESTR.norm>
0

>  <SCORE.SYSTEM>
0

>  <SCORE.SYSTEM.CONST>
0

>  <SCORE.SYSTEM.DIHEDRAL>
0

>  <SCORE.SYSTEM.SOLV>
0

>  <SCORE.SYSTEM.norm>
0

>  <SCORE.heavy>
27

>  <SCORE.norm>
-0.337262

>  <RMSD>
16.095

$$$$
ligand
 OpenBabel02271912153D
libRbt.so/2013.1/901 2013/11/27
 27 29  0  0  0  0  0  0  0  0999 V2000
    1.8452  -13.0911   11.5530 N   0  0  0  0  0  0  0  0  0  0  0  0
    1.2396  -14.2627   12.1569 C   0  0  2  0  0  0  0  0  0  0  0  0
    1.4138  -14.1400   13.6394 C   0  0  0  0  0  0  0  0  0  0  0  0
    0.6100  -14.7234   14.3983 O   0  0  0  0  0  0  0  0  0  0  0  0
    1.9157  -15.5380   11.6462 C   0  0  0  0  0  0  0  0  0  0  0  0
    3.4299  -15.5366   11.9524 C   0  0  0  0  0  0  0  0  0  0  0  0
    4.2856  -16.8606   11.3779 S   0  0  2  0  0  0  0  0  0  0  0  0
    5.8112  -16.8580   12.0345 C   0  0  0  0  0  0  0  0  0  0  0  0
    4.3606  -16.8033    9.6928 C   0  0  0  0  0  0  0  0  0  0  0  0
    5.3606  -17.8024    9.0734 C   0  0  1  0  0  0  0  0  0  0  0  0
    5.0727  -19.1709    9.4054 O   0  0  0  0  0  0  0  0  0  0  0  0
    5.3277  -17.8327    7.5539 C   0  0  1  0  0  0  0  0  0  0  0  0
    5.9400  -16.7301    6.8553 O   0  0  0  0  0  0  0  0  0  0  0  0
    5.9871  -19.1638    7.2905 C   0  0  1  0  0  0  0  0  0  0  0  0
    7.3816  -19.0824    7.5692 O   0  0  0  0  0  0  0  0  0  0  0  0
    5.3384  -20.0514    8.3110 C   0  0  2  0  0  0  0  0  0  0  0  0
    2.3799  -13.4811   14.0928 O   0  0  0  0  0  0  0  0  0  0  0  0
    1.7946  -20.7483    4.4082 N   0  0  0  0  0  0  0  0  0  0  0  0
    2.8751  -19.9311    4.4443 C   0  0  0  0  0  0  0  0  0  0  0  0
    3.6895  -19.8488    5.5098 N   0  0  0  0  0  0  0  0  0  0  0  0
    3.4961  -20.5911    6.6057 C   0  0  0  0  0  0  0  0  0  0  0  0
    2.3643  -21.5056    6.6193 C   0  0  0  0  0  0  0  0  0  0  0  0
    1.4613  -21.5766    5.4472 C   0  0  0  0  0  0  0  0  0  0  0  0
    0.3703  -22.4196    5.4041 N   0  0  0  0  0  0  0  0  0  0  0  0
    2.4099  -22.1123    7.7836 N   0  0  0  0  0  0  0  0  0  0  0  0
    3.4505  -21.6361    8.4810 C   0  0  0  0  0  0  0  0  0  0  0  0
    4.1142  -20.7215    7.7750 N   0  0  0  0  0  0  0  0  0  0  0  0
  2  1  1  6  0  0  0
  2  3  1  0  0  0  0
  2  5  1  0  0  0  0
  3  4  1  0  0  0  0
  3 17  1  0  0  0  0
  5  6  1  0  0  0  0
  7  6  1  1  0  0  0
  7  8  1  0  0  0  0
  7  9  1  0  0  0  0
 10  9  1  1  0  0  0
 10 11  1  0  0  0  0
 10 12  1  0  0  0  0
 11 16  1  0  0  0  0
 12 13  1  6  0  0  0
 12 14  1  0  0  0  0
 14 15  1  1  0  0  0
 14 16  1  0  0  0  0
 16 27  1  6  0  0  0
 18 19  2  0  0  0  0
 18 23  1  0  0  0  0
 19 20  1  0  0  0  0
 20 21  2  0  0  0  0
 21 22  1  0  0  0  0
 21 27  1  0  0  0  0
 22 23  2  0  0  0  0
 22 25  1  0  0  0  0
 23 24  1  0  0  0  0
 25 26  2  0  0  0  0
 26 27  1  0  0  0  0
M  END
>  <CHROM.1>
154.64794615,58.51985699,-177.49816318,-169.03577549,168.10062743,58.99454083
112.56696172,3.55021870,-18.07642838,9.13315944,1.65903855,0.10783161,0.81274619

>  <Name>
ligand

>  <RI>
0

>  <Rbt.Current_Directory>
/home/itssahil/PROJECTS/Mol_Feturizer/Test_systems_manuscript/rnas/4kqy

>  <Rbt.Executable>
rbdock ($Id: //depot/dev/client3/rdock/2013.1/src/exe/rbdock.cxx#4 $)

>  <Rbt.Library>
libRbt.so (2013.1, Build901 2013/11/27)

>  <Rbt.Parameter_File>
/export/apps/rDock/src/rDock_2013.1_src/data/scripts/dock_solv.prm

>  <Rbt.Receptor>
prm/blind_docking_80.prm

>  <SCORE>
-19.9259

>  <SCORE.INTER>
-17.5388

>  <SCORE.INTER.CONST>
1

>  <SCORE.INTER.POLAR>
0

>  <SCORE.INTER.ROT>
7

>  <SCORE.INTER.SOLV>
11.9296

>  <SCORE.INTER.VDW>
-23.9358

>  <SCORE.INTER.norm>
-0.649586

>  <SCORE.INTRA>
-2.38709

>  <SCORE.INTRA.DIHEDRAL>
-6.91601

>  <SCORE.INTRA.DIHEDRAL.0>
10.4103

>  <SCORE.INTRA.POLAR>
0

>  <SCORE.INTRA.POLAR.0>
0

>  <SCORE.INTRA.REPUL>
0

>  <SCORE.INTRA.REPUL.0>
0

>  <SCORE.INTRA.SOLV>
0.134436

>  <SCORE.INTRA.SOLV.lig_0>
-49.5008

>  <SCORE.INTRA.VDW>
1.0037

>  <SCORE.INTRA.VDW.0>
-2.6946

>  <SCORE.INTRA.norm>
-0.0884108

>  <SCORE.RESTR>
0

>  <SCORE.RESTR.CAVITY>
0

>  <SCORE.RESTR.norm>
0

>  <SCORE.SYSTEM>
0

>  <SCORE.SYSTEM.CONST>
0

>  <SCORE.SYSTEM.DIHEDRAL>
0

>  <SCORE.SYSTEM.SOLV>
0

>  <SCORE.SYSTEM.norm>
0

>  <SCORE.heavy>
27

>  <SCORE.norm>
-0.737997

>  <RMSD>
16.217

$$$$
ligand
 OpenBabel02271912153D
libRbt.so/2013.1/901 2013/11/27
 27 29  0  0  0  0  0  0  0  0999 V2000
    4.9983  -17.8137    9.5477 N   0  0  0  0  0  0  0  0  0  0  0  0
    5.1762  -16.8028   10.5727 C   0  0  2  0  0  0  0  0  0  0  0  0
    4.2365  -17.1328   11.6914 C   0  0  0  0  0  0  0  0  0  0  0  0
    4.6654  -17.1430   12.8653 O   0  0  0  0  0  0  0  0  0  0  0  0
    4.8673  -15.4120   10.0121 C   0  0  0  0  0  0  0  0  0  0  0  0
    5.2633  -14.3000   11.0087 C   0  0  0  0  0  0  0  0  0  0  0  0
    4.9606  -12.7303   10.4992 S   0  0  2  0  0  0  0  0  0  0  0  0
    3.3258  -12.5245   10.2894 C   0  0  0  0  0  0  0  0  0  0  0  0
    5.7899  -12.4280    9.0606 C   0  0  0  0  0  0  0  0  0  0  0  0
    5.3576  -11.1301    8.3462 C   0  0  1  0  0  0  0  0  0  0  0  0
    5.9310   -9.9466    8.9264 O   0  0  0  0  0  0  0  0  0  0  0  0
    5.8371  -11.0398    6.9065 C   0  0  1  0  0  0  0  0  0  0  0  0
    5.1542  -11.8493    5.9282 O   0  0  0  0  0  0  0  0  0  0  0  0
    5.7103   -9.5557    6.6664 C   0  0  1  0  0  0  0  0  0  0  0  0
    4.3369   -9.1932    6.5595 O   0  0  0  0  0  0  0  0  0  0  0  0
    6.2689   -8.9764    7.9323 C   0  0  2  0  0  0  0  0  0  0  0  0
    3.0304  -17.3619   11.4343 O   0  0  0  0  0  0  0  0  0  0  0  0
   10.3296   -5.5715    7.4925 N   0  0  0  0  0  0  0  0  0  0  0  0
    9.0012   -5.3118    7.5599 C   0  0  0  0  0  0  0  0  0  0  0  0
    8.0752   -6.2798    7.6632 N   0  0  0  0  0  0  0  0  0  0  0  0
    8.4097   -7.5734    7.7280 C   0  0  0  0  0  0  0  0  0  0  0  0
    9.8233   -7.9155    7.6831 C   0  0  0  0  0  0  0  0  0  0  0  0
   10.8364   -6.8429    7.5511 C   0  0  0  0  0  0  0  0  0  0  0  0
   12.1894   -7.1060    7.4981 N   0  0  0  0  0  0  0  0  0  0  0  0
    9.8766   -9.2249    7.7760 N   0  0  0  0  0  0  0  0  0  0  0  0
    8.6281   -9.7060    7.8530 C   0  0  0  0  0  0  0  0  0  0  0  0
    7.7373   -8.7153    7.8300 N   0  0  0  0  0  0  0  0  0  0  0  0
  2  1  1  6  0  0  0
  2  3  1  0  0  0  0
  2  5  1  0  0  0  0
  3  4  1  0  0  0  0
  3 17  1  0  0  0  0
  5  6  1  0  0  0  0
  7  6  1  6  0  0  0
  7  8  1  0  0  0  0
  7  9  1  0  0  0  0
 10  9  1  1  0  0  0
 10 11  1  0  0  0  0
 10 12  1  0  0  0  0
 11 16  1  0  0  0  0
 12 13  1  6  0  0  0
 12 14  1  0  0  0  0
 14 15  1  1  0  0  0
 14 16  1  0  0  0  0
 16 27  1  6  0  0  0
 18 19  2  0  0  0  0
 18 23  1  0  0  0  0
 19 20  1  0  0  0  0
 20 21  2  0  0  0  0
 21 22  1  0  0  0  0
 21 27  1  0  0  0  0
 22 23  2  0  0  0  0
 22 25  1  0  0  0  0
 23 24  1  0  0  0  0
 25 26  2  0  0  0  0
 26 27  1  0  0  0  0
M  END
>  <CHROM.1>
131.75906028,-170.91154923,-179.69140775,62.90294273,167.84146397,78.93532891
-135.53993017,6.47672212,-11.28345661,8.81693459,-2.06908906,-0.31605054
-0.54007552

>  <Name>
ligand

>  <RI>
0

>  <Rbt.Current_Directory>
/home/itssahil/PROJECTS/Mol_Feturizer/Test_systems_manuscript/rnas/4kqy

>  <Rbt.Executable>
rbdock ($Id: //depot/dev/client3/rdock/2013.1/src/exe/rbdock.cxx#4 $)

>  <Rbt.Library>
libRbt.so (2013.1, Build901 2013/11/27)

>  <Rbt.Parameter_File>
/export/apps/rDock/src/rDock_2013.1_src/data/scripts/dock_solv.prm

>  <Rbt.Receptor>
prm/blind_docking_40.prm

>  <SCORE>
-13.9844

>  <SCORE.INTER>
-11.656

>  <SCORE.INTER.CONST>
1

>  <SCORE.INTER.POLAR>
0

>  <SCORE.INTER.ROT>
7

>  <SCORE.INTER.SOLV>
17.2267

>  <SCORE.INTER.VDW>
-21.7796

>  <SCORE.INTER.norm>
-0.431703

>  <SCORE.INTRA>
-2.32842

>  <SCORE.INTRA.DIHEDRAL>
-5.67621

>  <SCORE.INTRA.DIHEDRAL.0>
10.4103

>  <SCORE.INTRA.POLAR>
0

>  <SCORE.INTRA.POLAR.0>
0

>  <SCORE.INTRA.REPUL>
0

>  <SCORE.INTRA.REPUL.0>
0

>  <SCORE.INTRA.SOLV>
-0.717323

>  <SCORE.INTRA.SOLV.lig_0>
-49.5008

>  <SCORE.INTRA.VDW>
0.868345

>  <SCORE.INTRA.VDW.0>
-2.6946

>  <SCORE.INTRA.norm>
-0.0862379

>  <SCORE.RESTR>
0

>  <SCORE.RESTR.CAVITY>
0

>  <SCORE.RESTR.norm>
0

>  <SCORE.SYSTEM>
0

>  <SCORE.SYSTEM.CONST>
0

>  <SCORE.SYSTEM.DIHEDRAL>
0

>  <SCORE.SYSTEM.SOLV>
0

>  <SCORE.SYSTEM.norm>
0

>  <SCORE.heavy>
27

>  <SCORE.norm>
-0.517941

>  <RMSD>
16.255

$$$$
ligand
 OpenBabel02271912153D
libRbt.so/2013.1/901 2013/11/27
 27 29  0  0  0  0  0  0  0  0999 V2000
   -2.6982  -19.6761    5.1966 N   0  0  0  0  0  0  0  0  0  0  0  0
   -2.1343  -19.7063    6.5328 C   0  0  2  0  0  0  0  0  0  0  0  0
   -2.8170  -18.6367    7.3285 C   0  0  0  0  0  0  0  0  0  0  0  0
   -3.6795  -18.9613    8.1729 O   0  0  0  0  0  0  0  0  0  0  0  0
   -0.6256  -19.4502    6.4829 C   0  0  0  0  0  0  0  0  0  0  0  0
    0.1016  -20.5196    5.6379 C   0  0  0  0  0  0  0  0  0  0  0  0
    1.7139  -20.2013    5.2998 S   0  0  2  0  0  0  0  0  0  0  0  0
    2.1335  -20.9383    3.8717 C   0  0  0  0  0  0  0  0  0  0  0  0
    2.6822  -20.7571    6.5656 C   0  0  0  0  0  0  0  0  0  0  0  0
    4.1796  -20.4183    6.4075 C   0  0  1  0  0  0  0  0  0  0  0  0
    4.4366  -19.0057    6.3417 O   0  0  0  0  0  0  0  0  0  0  0  0
    5.0269  -20.8380    7.5977 C   0  0  1  0  0  0  0  0  0  0  0  0
    5.3219  -22.2421    7.7396 O   0  0  0  0  0  0  0  0  0  0  0  0
    6.2472  -19.9767    7.3847 C   0  0  1  0  0  0  0  0  0  0  0  0
    7.0022  -20.4631    6.2791 O   0  0  0  0  0  0  0  0  0  0  0  0
    5.6457  -18.6524    7.0175 C   0  0  2  0  0  0  0  0  0  0  0  0
   -2.4895  -17.4383    7.1565 O   0  0  0  0  0  0  0  0  0  0  0  0
    4.1614  -18.0784   12.0913 N   0  0  0  0  0  0  0  0  0  0  0  0
    4.2005  -19.2024   11.3352 C   0  0  0  0  0  0  0  0  0  0  0  0
    4.5939  -19.2014   10.0505 N   0  0  0  0  0  0  0  0  0  0  0  0
    4.9961  -18.0836    9.4358 C   0  0  0  0  0  0  0  0  0  0  0  0
    4.9982  -16.8466   10.2021 C   0  0  0  0  0  0  0  0  0  0  0  0
    4.5458  -16.8538   11.6126 C   0  0  0  0  0  0  0  0  0  0  0  0
    4.5207  -15.7126   12.3870 N   0  0  0  0  0  0  0  0  0  0  0  0
    5.4412  -15.9201    9.3827 N   0  0  0  0  0  0  0  0  0  0  0  0
    5.6880  -16.4776    8.1893 C   0  0  0  0  0  0  0  0  0  0  0  0
    5.4269  -17.7840    8.2147 N   0  0  0  0  0  0  0  0  0  0  0  0
  2  1  1  6  0  0  0
  2  3  1  0  0  0  0
  2  5  1  0  0  0  0
  3  4  1  0  0  0  0
  3 17  1  0  0  0  0
  5  6  1  0  0  0  0
  7  6  1  1  0  0  0
  7  8  1  0  0  0  0
  7  9  1  0  0  0  0
 10  9  1  1  0  0  0
 10 11  1  0  0  0  0
 10 12  1  0  0  0  0
 11 16  1  0  0  0  0
 12 13  1  6  0  0  0
 12 14  1  0  0  0  0
 14 15  1  6  0  0  0
 14 16  1  0  0  0  0
 16 27  1  1  0  0  0
 18 19  2  0  0  0  0
 18 23  1  0  0  0  0
 19 20  1  0  0  0  0
 20 21  2  0  0  0  0
 21 22  1  0  0  0  0
 21 27  1  0  0  0  0
 22 23  2  0  0  0  0
 22 25  1  0  0  0  0
 23 24  1  0  0  0  0
 25 26  2  0  0  0  0
 26 27  1  0  0  0  0
M  END
>  <CHROM.1>
104.90425188,-60.12236396,170.19074194,-152.25760112,-175.57403374,60.29585960
77.09609842,2.80148564,-19.07112898,7.72828938,2.70473165,0.11324812,-2.19195958

>  <Name>
ligand

>  <RI>
0

>  <Rbt.Current_Directory>
/home/itssahil/PROJECTS/Mol_Feturizer/Test_systems_manuscript/rnas/4kqy

>  <Rbt.Executable>
rbdock ($Id: //depot/dev/client3/rdock/2013.1/src/exe/rbdock.cxx#4 $)

>  <Rbt.Library>
libRbt.so (2013.1, Build901 2013/11/27)

>  <Rbt.Parameter_File>
/export/apps/rDock/src/rDock_2013.1_src/data/scripts/dock_solv.prm

>  <Rbt.Receptor>
prm/blind_docking_60.prm

>  <SCORE>
-25.2291

>  <SCORE.INTER>
-22.9118

>  <SCORE.INTER.CONST>
1

>  <SCORE.INTER.POLAR>
0

>  <SCORE.INTER.ROT>
7

>  <SCORE.INTER.SOLV>
13.0476

>  <SCORE.INTER.VDW>
-27.8904

>  <SCORE.INTER.norm>
-0.848586

>  <SCORE.INTRA>
-2.31724

>  <SCORE.INTRA.DIHEDRAL>
-5.21843

>  <SCORE.INTRA.DIHEDRAL.0>
10.4103

>  <SCORE.INTRA.POLAR>
0

>  <SCORE.INTRA.POLAR.0>
0

>  <SCORE.INTRA.REPUL>
0

>  <SCORE.INTRA.REPUL.0>
0

>  <SCORE.INTRA.SOLV>
0.131856

>  <SCORE.INTRA.SOLV.lig_0>
-49.5008

>  <SCORE.INTRA.VDW>
0.22605

>  <SCORE.INTRA.VDW.0>
-2.6946

>  <SCORE.INTRA.norm>
-0.0858236

>  <SCORE.RESTR>
0

>  <SCORE.RESTR.CAVITY>
0

>  <SCORE.RESTR.norm>
0

>  <SCORE.SYSTEM>
0

>  <SCORE.SYSTEM.CONST>
0

>  <SCORE.SYSTEM.DIHEDRAL>
0

>  <SCORE.SYSTEM.SOLV>
0

>  <SCORE.SYSTEM.norm>
0

>  <SCORE.heavy>
27

>  <SCORE.norm>
-0.934409

>  <RMSD>
16.361

$$$$
ligand
 OpenBabel02271912153D
libRbt.so/2013.1/901 2013/11/27
 27 29  0  0  0  0  0  0  0  0999 V2000
   -2.7011  -19.7215    5.1979 N   0  0  0  0  0  0  0  0  0  0  0  0
   -2.1508  -19.7476    6.5398 C   0  0  2  0  0  0  0  0  0  0  0  0
   -2.8387  -18.6730    7.3242 C   0  0  0  0  0  0  0  0  0  0  0  0
   -2.4871  -17.4838    7.1679 O   0  0  0  0  0  0  0  0  0  0  0  0
   -0.6411  -19.4957    6.5041 C   0  0  0  0  0  0  0  0  0  0  0  0
    0.0892  -20.5572    5.6517 C   0  0  0  0  0  0  0  0  0  0  0  0
    1.6977  -20.2270    5.3072 S   0  0  2  0  0  0  0  0  0  0  0  0
    2.1347  -21.0123    3.9104 C   0  0  0  0  0  0  0  0  0  0  0  0
    2.6693  -20.7177    6.5971 C   0  0  0  0  0  0  0  0  0  0  0  0
    4.1654  -20.3829    6.4205 C   0  0  1  0  0  0  0  0  0  0  0  0
    4.4267  -18.9706    6.3636 O   0  0  0  0  0  0  0  0  0  0  0  0
    5.0283  -20.8163    7.5946 C   0  0  1  0  0  0  0  0  0  0  0  0
    5.3200  -22.2227    7.7196 O   0  0  0  0  0  0  0  0  0  0  0  0
    6.2485  -19.9574    7.3717 C   0  0  1  0  0  0  0  0  0  0  0  0
    6.9858  -20.4366    6.2511 O   0  0  0  0  0  0  0  0  0  0  0  0
    5.6467  -18.6278    7.0251 C   0  0  2  0  0  0  0  0  0  0  0  0
   -3.7753  -18.9810    8.0994 O   0  0  0  0  0  0  0  0  0  0  0  0
    4.1990  -18.0868   12.1131 N   0  0  0  0  0  0  0  0  0  0  0  0
    4.2159  -19.2028   11.3444 C   0  0  0  0  0  0  0  0  0  0  0  0
    4.6024  -19.1938   10.0576 N   0  0  0  0  0  0  0  0  0  0  0  0
    5.0193  -18.0757    9.4531 C   0  0  0  0  0  0  0  0  0  0  0  0
    5.0454  -16.8475   10.2331 C   0  0  0  0  0  0  0  0  0  0  0  0
    4.6005  -16.8632   11.6459 C   0  0  0  0  0  0  0  0  0  0  0  0
    4.5979  -15.7305   12.4331 N   0  0  0  0  0  0  0  0  0  0  0  0
    5.4989  -15.9192    9.4216 N   0  0  0  0  0  0  0  0  0  0  0  0
    5.7302  -16.4672    8.2208 C   0  0  0  0  0  0  0  0  0  0  0  0
    5.4483  -17.7695    8.2330 N   0  0  0  0  0  0  0  0  0  0  0  0
  2  1  1  6  0  0  0
  2  3  1  0  0  0  0
  2  5  1  0  0  0  0
  3  4  1  0  0  0  0
  3 17  1  0  0  0  0
  5  6  1  0  0  0  0
  7  6  1  1  0  0  0
  7  8  1  0  0  0  0
  7  9  1  0  0  0  0
 10  9  1  1  0  0  0
 10 11  1  0  0  0  0
 10 12  1  0  0  0  0
 11 16  1  0  0  0  0
 12 13  1  6  0  0  0
 12 14  1  0  0  0  0
 14 15  1  6  0  0  0
 14 16  1  0  0  0  0
 16 27  1  1  0  0  0
 18 19  2  0  0  0  0
 18 23  1  0  0  0  0
 19 20  1  0  0  0  0
 20 21  2  0  0  0  0
 21 22  1  0  0  0  0
 21 27  1  0  0  0  0
 22 23  2  0  0  0  0
 22 25  1  0  0  0  0
 23 24  1  0  0  0  0
 25 26  2  0  0  0  0
 26 27  1  0  0  0  0
M  END
>  <CHROM.1>
-78.14960693,-59.18142974,169.18223644,-154.81035132,-176.54297844,63.70596909
76.20993435,2.80497132,-19.07764148,7.73796181,2.69692867,0.10655577,-2.19108645

>  <Name>
ligand

>  <RI>
0

>  <Rbt.Current_Directory>
/home/itssahil/PROJECTS/Mol_Feturizer/Test_systems_manuscript/rnas/4kqy

>  <Rbt.Executable>
rbdock ($Id: //depot/dev/client3/rdock/2013.1/src/exe/rbdock.cxx#4 $)

>  <Rbt.Library>
libRbt.so (2013.1, Build901 2013/11/27)

>  <Rbt.Parameter_File>
/export/apps/rDock/src/rDock_2013.1_src/data/scripts/dock_solv.prm

>  <Rbt.Receptor>
prm/blind_docking_100.prm

>  <SCORE>
-25.2968

>  <SCORE.INTER>
-22.9048

>  <SCORE.INTER.CONST>
1

>  <SCORE.INTER.POLAR>
0

>  <SCORE.INTER.ROT>
7

>  <SCORE.INTER.SOLV>
13.077

>  <SCORE.INTER.VDW>
-27.8955

>  <SCORE.INTER.norm>
-0.848324

>  <SCORE.INTRA>
-2.39206

>  <SCORE.INTRA.DIHEDRAL>
-5.522

>  <SCORE.INTRA.DIHEDRAL.0>
10.4103

>  <SCORE.INTRA.POLAR>
0

>  <SCORE.INTRA.POLAR.0>
0

>  <SCORE.INTRA.REPUL>
0

>  <SCORE.INTRA.REPUL.0>
0

>  <SCORE.INTRA.SOLV>
0.158255

>  <SCORE.INTRA.SOLV.lig_0>
-49.5008

>  <SCORE.INTRA.VDW>
0.289818

>  <SCORE.INTRA.VDW.0>
-2.6946

>  <SCORE.INTRA.norm>
-0.0885947

>  <SCORE.RESTR>
0

>  <SCORE.RESTR.CAVITY>
0

>  <SCORE.RESTR.norm>
0

>  <SCORE.SYSTEM>
0

>  <SCORE.SYSTEM.CONST>
0

>  <SCORE.SYSTEM.DIHEDRAL>
0

>  <SCORE.SYSTEM.SOLV>
0

>  <SCORE.SYSTEM.norm>
0

>  <SCORE.heavy>
27

>  <SCORE.norm>
-0.936919

>  <RMSD>
16.365

$$$$
ligand
 OpenBabel02271912153D
libRbt.so/2013.1/901 2013/11/27
 27 29  0  0  0  0  0  0  0  0999 V2000
   -1.5533  -20.6144    4.4878 N   0  0  0  0  0  0  0  0  0  0  0  0
   -0.3431  -20.9341    5.2209 C   0  0  2  0  0  0  0  0  0  0  0  0
   -0.4168  -20.2200    6.5353 C   0  0  0  0  0  0  0  0  0  0  0  0
   -0.7108  -19.0053    6.5539 O   0  0  0  0  0  0  0  0  0  0  0  0
    0.8922  -20.4804    4.4383 C   0  0  0  0  0  0  0  0  0  0  0  0
    1.9483  -21.6043    4.3477 C   0  0  0  0  0  0  0  0  0  0  0  0
    2.5811  -22.1224    5.8128 S   0  0  2  0  0  0  0  0  0  0  0  0
    1.5329  -23.2029    6.5146 C   0  0  0  0  0  0  0  0  0  0  0  0
    2.8369  -20.7957    6.8243 C   0  0  0  0  0  0  0  0  0  0  0  0
    4.2944  -20.2887    6.8401 C   0  0  1  0  0  0  0  0  0  0  0  0
    4.3991  -18.8734    7.0679 O   0  0  0  0  0  0  0  0  0  0  0  0
    5.1226  -20.8542    7.9826 C   0  0  1  0  0  0  0  0  0  0  0  0
    5.5611  -22.2230    7.8694 O   0  0  0  0  0  0  0  0  0  0  0  0
    6.2509  -19.8536    8.0267 C   0  0  1  0  0  0  0  0  0  0  0  0
    7.1080  -20.0333    6.9033 O   0  0  0  0  0  0  0  0  0  0  0  0
    5.5278  -18.5473    7.8824 C   0  0  2  0  0  0  0  0  0  0  0  0
   -0.2136  -20.8595    7.5950 O   0  0  0  0  0  0  0  0  0  0  0  0
    5.1066  -14.3453   11.1138 N   0  0  0  0  0  0  0  0  0  0  0  0
    5.5503  -14.3972    9.8344 C   0  0  0  0  0  0  0  0  0  0  0  0
    5.6108  -15.5406    9.1314 N   0  0  0  0  0  0  0  0  0  0  0  0
    5.2131  -16.7090    9.6474 C   0  0  0  0  0  0  0  0  0  0  0  0
    4.7049  -16.7149   11.0108 C   0  0  0  0  0  0  0  0  0  0  0  0
    4.6587  -15.4527   11.7846 C   0  0  0  0  0  0  0  0  0  0  0  0
    4.1925  -15.3970   13.0817 N   0  0  0  0  0  0  0  0  0  0  0  0
    4.3764  -17.9616   11.2636 N   0  0  0  0  0  0  0  0  0  0  0  0
    4.6565  -18.7111   10.1886 C   0  0  0  0  0  0  0  0  0  0  0  0
    5.1569  -17.9617    9.2070 N   0  0  0  0  0  0  0  0  0  0  0  0
  2  1  1  6  0  0  0
  2  3  1  0  0  0  0
  2  5  1  0  0  0  0
  3  4  1  0  0  0  0
  3 17  1  0  0  0  0
  5  6  1  0  0  0  0
  7  6  1  6  0  0  0
  7  8  1  0  0  0  0
  7  9  1  0  0  0  0
 10  9  1  1  0  0  0
 10 11  1  0  0  0  0
 10 12  1  0  0  0  0
 11 16  1  0  0  0  0
 12 13  1  6  0  0  0
 12 14  1  0  0  0  0
 14 15  1  6  0  0  0
 14 16  1  0  0  0  0
 16 27  1  1  0  0  0
 18 19  2  0  0  0  0
 18 23  1  0  0  0  0
 19 20  1  0  0  0  0
 20 21  2  0  0  0  0
 21 22  1  0  0  0  0
 21 27  1  0  0  0  0
 22 23  2  0  0  0  0
 22 25  1  0  0  0  0
 23 24  1  0  0  0  0
 25 26  2  0  0  0  0
 26 27  1  0  0  0  0
M  END
>  <CHROM.1>
-48.88357859,-131.09420003,-62.22164126,81.48866087,-98.43437189,149.00163529
-104.78492260,3.40310710,-19.25805676,7.86988034,2.11991226,0.20384003,-2.49289915

>  <Name>
ligand

>  <RI>
0

>  <Rbt.Current_Directory>
/home/itssahil/PROJECTS/Mol_Feturizer/Test_systems_manuscript/rnas/4kqy

>  <Rbt.Executable>
rbdock ($Id: //depot/dev/client3/rdock/2013.1/src/exe/rbdock.cxx#4 $)

>  <Rbt.Library>
libRbt.so (2013.1, Build901 2013/11/27)

>  <Rbt.Parameter_File>
/export/apps/rDock/src/rDock_2013.1_src/data/scripts/dock_solv.prm

>  <Rbt.Receptor>
prm/blind_docking_100.prm

>  <SCORE>
-12.0257

>  <SCORE.INTER>
-14.7262

>  <SCORE.INTER.CONST>
1

>  <SCORE.INTER.POLAR>
0

>  <SCORE.INTER.ROT>
7

>  <SCORE.INTER.SOLV>
16.627

>  <SCORE.INTER.VDW>
-23.6265

>  <SCORE.INTER.norm>
-0.545416

>  <SCORE.INTRA>
2.70049

>  <SCORE.INTRA.DIHEDRAL>
5.15123

>  <SCORE.INTRA.DIHEDRAL.0>
10.4103

>  <SCORE.INTRA.POLAR>
0

>  <SCORE.INTRA.POLAR.0>
0

>  <SCORE.INTRA.REPUL>
0

>  <SCORE.INTRA.REPUL.0>
0

>  <SCORE.INTRA.SOLV>
-0.113142

>  <SCORE.INTRA.SOLV.lig_0>
-49.5008

>  <SCORE.INTRA.VDW>
0.181443

>  <SCORE.INTRA.VDW.0>
-2.6946

>  <SCORE.INTRA.norm>
0.100018

>  <SCORE.RESTR>
0

>  <SCORE.RESTR.CAVITY>
0

>  <SCORE.RESTR.norm>
0

>  <SCORE.SYSTEM>
0

>  <SCORE.SYSTEM.CONST>
0

>  <SCORE.SYSTEM.DIHEDRAL>
0

>  <SCORE.SYSTEM.SOLV>
0

>  <SCORE.SYSTEM.norm>
0

>  <SCORE.heavy>
27

>  <SCORE.norm>
-0.445398

>  <RMSD>
16.418

$$$$
ligand
 OpenBabel02271912153D
libRbt.so/2013.1/901 2013/11/27
 27 29  0  0  0  0  0  0  0  0999 V2000
   12.3365   -8.1220    5.0816 N   0  0  0  0  0  0  0  0  0  0  0  0
   12.0322   -7.0302    5.9870 C   0  0  2  0  0  0  0  0  0  0  0  0
   13.2346   -6.1382    6.0289 C   0  0  0  0  0  0  0  0  0  0  0  0
   13.1435   -5.0170    6.5737 O   0  0  0  0  0  0  0  0  0  0  0  0
   11.7196   -7.5668    7.3865 C   0  0  0  0  0  0  0  0  0  0  0  0
   10.5353   -8.5584    7.3603 C   0  0  0  0  0  0  0  0  0  0  0  0
    9.9137   -8.9829    8.8598 S   0  0  2  0  0  0  0  0  0  0  0  0
   11.1394   -9.5585    9.8216 C   0  0  0  0  0  0  0  0  0  0  0  0
    8.7079  -10.1481    8.6679 C   0  0  0  0  0  0  0  0  0  0  0  0
    7.4715   -9.6514    7.8894 C   0  0  1  0  0  0  0  0  0  0  0  0
    6.5616  -10.7073    7.5383 O   0  0  0  0  0  0  0  0  0  0  0  0
    6.5791   -8.7209    8.6949 C   0  0  1  0  0  0  0  0  0  0  0  0
    7.0405   -7.3699    8.8967 O   0  0  0  0  0  0  0  0  0  0  0  0
    5.2972   -8.8163    7.9051 C   0  0  1  0  0  0  0  0  0  0  0  0
    5.4322   -8.1232    6.6680 O   0  0  0  0  0  0  0  0  0  0  0  0
    5.1982  -10.2875    7.6296 C   0  0  2  0  0  0  0  0  0  0  0  0
   14.3185   -6.5437    5.5454 O   0  0  0  0  0  0  0  0  0  0  0  0
    4.6603  -14.3893   10.9706 N   0  0  0  0  0  0  0  0  0  0  0  0
    5.6593  -14.1286   10.0928 C   0  0  0  0  0  0  0  0  0  0  0  0
    5.6634  -13.0468    9.2959 N   0  0  0  0  0  0  0  0  0  0  0  0
    4.6824  -12.1382    9.3333 C   0  0  0  0  0  0  0  0  0  0  0  0
    3.5912  -12.3506   10.2722 C   0  0  0  0  0  0  0  0  0  0  0  0
    3.5859  -13.5552   11.1342 C   0  0  0  0  0  0  0  0  0  0  0  0
    2.5768  -13.8129   12.0387 N   0  0  0  0  0  0  0  0  0  0  0  0
    2.7842  -11.3253   10.1191 N   0  0  0  0  0  0  0  0  0  0  0  0
    3.2755  -10.5249    9.1631 C   0  0  0  0  0  0  0  0  0  0  0  0
    4.4236  -11.0057    8.6876 N   0  0  0  0  0  0  0  0  0  0  0  0
  2  1  1  6  0  0  0
  2  3  1  0  0  0  0
  2  5  1  0  0  0  0
  3  4  1  0  0  0  0
  3 17  1  0  0  0  0
  5  6  1  0  0  0  0
  7  6  1  6  0  0  0
  7  8  1  0  0  0  0
  7  9  1  0  0  0  0
 10  9  1  1  0  0  0
 10 11  1  0  0  0  0
 10 12  1  0  0  0  0
 11 16  1  0  0  0  0
 12 13  1  6  0  0  0
 12 14  1  0  0  0  0
 14 15  1  6  0  0  0
 14 16  1  0  0  0  0
 16 27  1  1  0  0  0
 18 19  2  0  0  0  0
 18 23  1  0  0  0  0
 19 20  1  0  0  0  0
 20 21  2  0  0  0  0
 21 22  1  0  0  0  0
 21 27  1  0  0  0  0
 22 23  2  0  0  0  0
 22 25  1  0  0  0  0
 23 24  1  0  0  0  0
 25 26  2  0  0  0  0
 26 27  1  0  0  0  0
M  END
>  <CHROM.1>
168.75891936,-58.09892322,-168.70876661,-54.33547967,-64.27235743,170.01850247
-17.05528273,7.69242561,-9.77243997,8.40163645,-0.65987501,-0.00109360,2.57403060

>  <Name>
ligand

>  <RI>
0

>  <Rbt.Current_Directory>
/home/itssahil/PROJECTS/Mol_Feturizer/Test_systems_manuscript/rnas/4kqy

>  <Rbt.Executable>
rbdock ($Id: //depot/dev/client3/rdock/2013.1/src/exe/rbdock.cxx#4 $)

>  <Rbt.Library>
libRbt.so (2013.1, Build901 2013/11/27)

>  <Rbt.Parameter_File>
/export/apps/rDock/src/rDock_2013.1_src/data/scripts/dock_solv.prm

>  <Rbt.Receptor>
prm/blind_docking_100.prm

>  <SCORE>
-14.4295

>  <SCORE.INTER>
-12.1553

>  <SCORE.INTER.CONST>
1

>  <SCORE.INTER.POLAR>
0

>  <SCORE.INTER.ROT>
7

>  <SCORE.INTER.SOLV>
10.5583

>  <SCORE.INTER.VDW>
-19.8896

>  <SCORE.INTER.norm>
-0.450196

>  <SCORE.INTRA>
-2.27422

>  <SCORE.INTRA.DIHEDRAL>
-6.75728

>  <SCORE.INTRA.DIHEDRAL.0>
10.4103

>  <SCORE.INTRA.POLAR>
0

>  <SCORE.INTRA.POLAR.0>
0

>  <SCORE.INTRA.REPUL>
0

>  <SCORE.INTRA.REPUL.0>
0

>  <SCORE.INTRA.SOLV>
0.285001

>  <SCORE.INTRA.SOLV.lig_0>
-49.5008

>  <SCORE.INTRA.VDW>
0.961918

>  <SCORE.INTRA.VDW.0>
-2.6946

>  <SCORE.INTRA.norm>
-0.0842304

>  <SCORE.RESTR>
0

>  <SCORE.RESTR.CAVITY>
0

>  <SCORE.RESTR.norm>
0

>  <SCORE.SYSTEM>
0

>  <SCORE.SYSTEM.CONST>
0

>  <SCORE.SYSTEM.DIHEDRAL>
0

>  <SCORE.SYSTEM.SOLV>
0

>  <SCORE.SYSTEM.norm>
0

>  <SCORE.heavy>
27

>  <SCORE.norm>
-0.534426

>  <RMSD>
16.518

$$$$
ligand
 OpenBabel02271912153D
libRbt.so/2013.1/901 2013/11/27
 27 29  0  0  0  0  0  0  0  0999 V2000
    1.0929  -13.4877   11.8678 N   0  0  0  0  0  0  0  0  0  0  0  0
    2.5115  -13.2769   12.0850 C   0  0  2  0  0  0  0  0  0  0  0  0
    2.8891  -12.0163   11.3699 C   0  0  0  0  0  0  0  0  0  0  0  0
    2.5708  -11.8774   10.1693 O   0  0  0  0  0  0  0  0  0  0  0  0
    3.3178  -14.4589   11.5399 C   0  0  0  0  0  0  0  0  0  0  0  0
    2.9775  -15.7677   12.2866 C   0  0  0  0  0  0  0  0  0  0  0  0
    3.8646  -17.1153   11.8258 S   0  0  2  0  0  0  0  0  0  0  0  0
    5.4522  -16.9073   12.2670 C   0  0  0  0  0  0  0  0  0  0  0  0
    3.7329  -17.3415   10.1584 C   0  0  0  0  0  0  0  0  0  0  0  0
    4.9552  -18.0337    9.5192 C   0  0  1  0  0  0  0  0  0  0  0  0
    4.6416  -19.3077    8.9322 O   0  0  0  0  0  0  0  0  0  0  0  0
    5.5337  -17.2749    8.3358 C   0  0  1  0  0  0  0  0  0  0  0  0
    6.3065  -16.0915    8.6206 O   0  0  0  0  0  0  0  0  0  0  0  0
    6.3224  -18.3717    7.6641 C   0  0  1  0  0  0  0  0  0  0  0  0
    7.4819  -18.6808    8.4316 O   0  0  0  0  0  0  0  0  0  0  0  0
    5.3749  -19.5330    7.7259 C   0  0  2  0  0  0  0  0  0  0  0  0
    3.4893  -11.1101   11.9959 O   0  0  0  0  0  0  0  0  0  0  0  0
    2.3628  -22.3790    4.3937 N   0  0  0  0  0  0  0  0  0  0  0  0
    3.0285  -22.7859    5.5017 C   0  0  0  0  0  0  0  0  0  0  0  0
    3.7657  -21.9522    6.2545 N   0  0  0  0  0  0  0  0  0  0  0  0
    3.8738  -20.6502    5.9674 C   0  0  0  0  0  0  0  0  0  0  0  0
    3.1632  -20.1474    4.8014 C   0  0  0  0  0  0  0  0  0  0  0  0
    2.3673  -21.0772    3.9670 C   0  0  0  0  0  0  0  0  0  0  0  0
    1.6770  -20.6603    2.8479 N   0  0  0  0  0  0  0  0  0  0  0  0
    3.4212  -18.8601    4.7540 N   0  0  0  0  0  0  0  0  0  0  0  0
    4.2358  -18.5428    5.7697 C   0  0  0  0  0  0  0  0  0  0  0  0
    4.5093  -19.6166    6.5097 N   0  0  0  0  0  0  0  0  0  0  0  0
  2  1  1  6  0  0  0
  2  3  1  0  0  0  0
  2  5  1  0  0  0  0
  3  4  1  0  0  0  0
  3 17  1  0  0  0  0
  5  6  1  0  0  0  0
  7  6  1  6  0  0  0
  7  8  1  0  0  0  0
  7  9  1  0  0  0  0
 10  9  1  6  0  0  0
 10 11  1  0  0  0  0
 10 12  1  0  0  0  0
 11 16  1  0  0  0  0
 12 13  1  1  0  0  0
 12 14  1  0  0  0  0
 14 15  1  1  0  0  0
 14 16  1  0  0  0  0
 16 27  1  6  0  0  0
 18 19  2  0  0  0  0
 18 23  1  0  0  0  0
 19 20  1  0  0  0  0
 20 21  2  0  0  0  0
 21 22  1  0  0  0  0
 21 27  1  0  0  0  0
 22 23  2  0  0  0  0
 22 25  1  0  0  0  0
 23 24  1  0  0  0  0
 25 26  2  0  0  0  0
 26 27  1  0  0  0  0
M  END
>  <CHROM.1>
-51.23044571,-63.12751582,-176.85715511,67.08240189,151.45671231,116.82214625
-86.85573051,3.92067334,-17.55053195,8.61418809,1.59858836,-0.69413446,0.75338981

>  <Name>
ligand

>  <RI>
0

>  <Rbt.Current_Directory>
/home/itssahil/PROJECTS/Mol_Feturizer/Test_systems_manuscript/rnas/4kqy

>  <Rbt.Executable>
rbdock ($Id: //depot/dev/client3/rdock/2013.1/src/exe/rbdock.cxx#4 $)

>  <Rbt.Library>
libRbt.so (2013.1, Build901 2013/11/27)

>  <Rbt.Parameter_File>
/export/apps/rDock/src/rDock_2013.1_src/data/scripts/dock_solv.prm

>  <Rbt.Receptor>
prm/blind_docking_100.prm

>  <SCORE>
-6.70023

>  <SCORE.INTER>
-8.76952

>  <SCORE.INTER.CONST>
1

>  <SCORE.INTER.POLAR>
0

>  <SCORE.INTER.ROT>
7

>  <SCORE.INTER.SOLV>
26.7799

>  <SCORE.INTER.VDW>
-23.0396

>  <SCORE.INTER.norm>
-0.324797

>  <SCORE.INTRA>
1.91888

>  <SCORE.INTRA.DIHEDRAL>
-0.0973994

>  <SCORE.INTRA.DIHEDRAL.0>
10.4103

>  <SCORE.INTRA.POLAR>
0

>  <SCORE.INTRA.POLAR.0>
0

>  <SCORE.INTRA.REPUL>
0

>  <SCORE.INTRA.REPUL.0>
0

>  <SCORE.INTRA.SOLV>
0.141591

>  <SCORE.INTRA.SOLV.lig_0>
-49.5008

>  <SCORE.INTRA.VDW>
1.89678

>  <SCORE.INTRA.VDW.0>
-2.6946

>  <SCORE.INTRA.norm>
0.0710695

>  <SCORE.RESTR>
0.150416

>  <SCORE.RESTR.CAVITY>
0.150416

>  <SCORE.RESTR.norm>
0.00557097

>  <SCORE.SYSTEM>
0

>  <SCORE.SYSTEM.CONST>
0

>  <SCORE.SYSTEM.DIHEDRAL>
0

>  <SCORE.SYSTEM.SOLV>
0

>  <SCORE.SYSTEM.norm>
0

>  <SCORE.heavy>
27

>  <SCORE.norm>
-0.248157

>  <RMSD>
16.528

$$$$
ligand
 OpenBabel02271912153D
libRbt.so/2013.1/901 2013/11/27
 27 29  0  0  0  0  0  0  0  0999 V2000
  -13.4126  -12.4280   33.4525 N   0  0  0  0  0  0  0  0  0  0  0  0
  -14.7474  -11.9637   33.7797 C   0  0  2  0  0  0  0  0  0  0  0  0
  -15.6992  -13.0689   33.4394 C   0  0  0  0  0  0  0  0  0  0  0  0
  -16.0254  -13.2470   32.2460 O   0  0  0  0  0  0  0  0  0  0  0  0
  -15.0873  -10.7041   32.9784 C   0  0  0  0  0  0  0  0  0  0  0  0
  -14.1144   -9.5486   33.3019 C   0  0  0  0  0  0  0  0  0  0  0  0
  -14.3097   -8.1592   32.3817 S   0  0  2  0  0  0  0  0  0  0  0  0
  -15.8996   -7.6818   32.4352 C   0  0  0  0  0  0  0  0  0  0  0  0
  -13.8286   -8.4565   30.7914 C   0  0  0  0  0  0  0  0  0  0  0  0
  -14.4747   -9.7091   30.1626 C   0  0  1  0  0  0  0  0  0  0  0  0
  -15.7091   -9.4283   29.4820 O   0  0  0  0  0  0  0  0  0  0  0  0
  -13.6395  -10.3338   29.0566 C   0  0  1  0  0  0  0  0  0  0  0  0
  -12.4748  -11.0869   29.4501 O   0  0  0  0  0  0  0  0  0  0  0  0
  -14.6885  -11.1568   28.3507 C   0  0  1  0  0  0  0  0  0  0  0  0
  -15.0430  -12.2839   29.1463 O   0  0  0  0  0  0  0  0  0  0  0  0
  -15.8541  -10.2141   28.2966 C   0  0  2  0  0  0  0  0  0  0  0  0
  -16.1270  -13.8152   34.3522 O   0  0  0  0  0  0  0  0  0  0  0  0
  -18.1022   -8.9145   23.6562 N   0  0  0  0  0  0  0  0  0  0  0  0
  -18.5091   -9.8210   24.5777 C   0  0  0  0  0  0  0  0  0  0  0  0
  -17.8333  -10.0555   25.7151 N   0  0  0  0  0  0  0  0  0  0  0  0
  -16.7161   -9.3876   26.0234 C   0  0  0  0  0  0  0  0  0  0  0  0
  -16.2399   -8.3840   25.0835 C   0  0  0  0  0  0  0  0  0  0  0  0
  -16.9814   -8.1447   23.8237 C   0  0  0  0  0  0  0  0  0  0  0  0
  -16.5759   -7.2111   22.8928 N   0  0  0  0  0  0  0  0  0  0  0  0
  -15.1548   -7.8764   25.6230 N   0  0  0  0  0  0  0  0  0  0  0  0
  -14.9209   -8.4926   26.7898 C   0  0  0  0  0  0  0  0  0  0  0  0
  -15.8615   -9.4023   27.0412 N   0  0  0  0  0  0  0  0  0  0  0  0
  2  1  1  6  0  0  0
  2  3  1  0  0  0  0
  2  5  1  0  0  0  0
  3  4  1  0  0  0  0
  3 17  1  0  0  0  0
  5  6  1  0  0  0  0
  7  6  1  1  0  0  0
  7  8  1  0  0  0  0
  7  9  1  0  0  0  0
 10  9  1  6  0  0  0
 10 11  1  0  0  0  0
 10 12  1  0  0  0  0
 11 16  1  0  0  0  0
 12 13  1  1  0  0  0
 12 14  1  0  0  0  0
 14 15  1  1  0  0  0
 14 16  1  0  0  0  0
 16 27  1  6  0  0  0
 18 19  2  0  0  0  0
 18 23  1  0  0  0  0
 19 20  1  0  0  0  0
 20 21  2  0  0  0  0
 21 22  1  0  0  0  0
 21 27  1  0  0  0  0
 22 23  2  0  0  0  0
 22 25  1  0  0  0  0
 23 24  1  0  0  0  0
 25 26  2  0  0  0  0
 26 27  1  0  0  0  0
M  END
>  <CHROM.1>
-78.52093612,-61.14175033,174.86375608,51.98395918,51.28944988,90.44371133
-128.66409350,-15.39748431,-9.99931484,29.32422350,1.06722524,1.08898650
2.33670079

>  <Name>
ligand

>  <RI>
0

>  <Rbt.Current_Directory>
/home/itssahil/PROJECTS/Mol_Feturizer/Test_systems_manuscript/rnas/4kqy

>  <Rbt.Executable>
rbdock ($Id: //depot/dev/client3/rdock/2013.1/src/exe/rbdock.cxx#4 $)

>  <Rbt.Library>
libRbt.so (2013.1, Build901 2013/11/27)

>  <Rbt.Parameter_File>
/export/apps/rDock/src/rDock_2013.1_src/data/scripts/dock_solv.prm

>  <Rbt.Receptor>
prm/blind_docking_80.prm

>  <SCORE>
-9.74036

>  <SCORE.INTER>
-8.68626

>  <SCORE.INTER.CONST>
1

>  <SCORE.INTER.POLAR>
0

>  <SCORE.INTER.ROT>
7

>  <SCORE.INTER.SOLV>
11.321

>  <SCORE.INTER.VDW>
-17.8312

>  <SCORE.INTER.norm>
-0.321713

>  <SCORE.INTRA>
-1.06141

>  <SCORE.INTRA.DIHEDRAL>
-4.44525

>  <SCORE.INTRA.DIHEDRAL.0>
10.4103

>  <SCORE.INTRA.POLAR>
0

>  <SCORE.INTRA.POLAR.0>
0

>  <SCORE.INTRA.REPUL>
0

>  <SCORE.INTRA.REPUL.0>
0

>  <SCORE.INTRA.SOLV>
0.508119

>  <SCORE.INTRA.SOLV.lig_0>
-49.5008

>  <SCORE.INTRA.VDW>
0.907158

>  <SCORE.INTRA.VDW.0>
-2.6946

>  <SCORE.INTRA.norm>
-0.0393113

>  <SCORE.RESTR>
0.0073095

>  <SCORE.RESTR.CAVITY>
0.0073095

>  <SCORE.RESTR.norm>
0.000270722

>  <SCORE.SYSTEM>
0

>  <SCORE.SYSTEM.CONST>
0

>  <SCORE.SYSTEM.DIHEDRAL>
0

>  <SCORE.SYSTEM.SOLV>
0

>  <SCORE.SYSTEM.norm>
0

>  <SCORE.heavy>
27

>  <SCORE.norm>
-0.360754

>  <RMSD>
16.552

$$$$
ligand
 OpenBabel02271912153D
libRbt.so/2013.1/901 2013/11/27
 27 29  0  0  0  0  0  0  0  0999 V2000
    1.9743  -14.1254   13.4729 N   0  0  0  0  0  0  0  0  0  0  0  0
    2.0645  -13.8099   12.0599 C   0  0  2  0  0  0  0  0  0  0  0  0
    0.6908  -13.9587   11.4819 C   0  0  0  0  0  0  0  0  0  0  0  0
   -0.0162  -14.9284   11.8313 O   0  0  0  0  0  0  0  0  0  0  0  0
    3.0409  -14.7596   11.3607 C   0  0  0  0  0  0  0  0  0  0  0  0
    2.6577  -16.2377   11.5951 C   0  0  0  0  0  0  0  0  0  0  0  0
    3.8081  -17.3663   11.1283 S   0  0  2  0  0  0  0  0  0  0  0  0
    5.1400  -17.2349   12.1119 C   0  0  0  0  0  0  0  0  0  0  0  0
    4.2309  -17.1149    9.5138 C   0  0  0  0  0  0  0  0  0  0  0  0
    5.3338  -18.0630    8.9975 C   0  0  1  0  0  0  0  0  0  0  0  0
    4.9652  -19.4506    9.0659 O   0  0  0  0  0  0  0  0  0  0  0  0
    5.6405  -17.8906    7.5186 C   0  0  1  0  0  0  0  0  0  0  0  0
    6.4045  -16.7311    7.1306 O   0  0  0  0  0  0  0  0  0  0  0  0
    6.3287  -19.2008    7.2254 C   0  0  1  0  0  0  0  0  0  0  0  0
    7.6266  -19.2137    7.8122 O   0  0  0  0  0  0  0  0  0  0  0  0
    5.4596  -20.1887    7.9459 C   0  0  2  0  0  0  0  0  0  0  0  0
    0.2625  -13.0921   10.6826 O   0  0  0  0  0  0  0  0  0  0  0  0
    1.7181  -23.8336    6.9504 N   0  0  0  0  0  0  0  0  0  0  0  0
    2.5537  -23.7362    8.0129 C   0  0  0  0  0  0  0  0  0  0  0  0
    3.4658  -22.7570    8.1334 N   0  0  0  0  0  0  0  0  0  0  0  0
    3.5944  -21.7943    7.2135 C   0  0  0  0  0  0  0  0  0  0  0  0
    2.7095  -21.8313    6.0590 C   0  0  0  0  0  0  0  0  0  0  0  0
    1.7191  -22.9246    5.9255 C   0  0  0  0  0  0  0  0  0  0  0  0
    0.8579  -23.0153    4.8518 N   0  0  0  0  0  0  0  0  0  0  0  0
    3.0290  -20.7853    5.3310 N   0  0  0  0  0  0  0  0  0  0  0  0
    4.0358  -20.1322    5.9275 C   0  0  0  0  0  0  0  0  0  0  0  0
    4.3792  -20.7318    7.0668 N   0  0  0  0  0  0  0  0  0  0  0  0
  2  1  1  1  0  0  0
  2  3  1  0  0  0  0
  2  5  1  0  0  0  0
  3  4  1  0  0  0  0
  3 17  1  0  0  0  0
  5  6  1  0  0  0  0
  7  6  1  1  0  0  0
  7  8  1  0  0  0  0
  7  9  1  0  0  0  0
 10  9  1  6  0  0  0
 10 11  1  0  0  0  0
 10 12  1  0  0  0  0
 11 16  1  0  0  0  0
 12 13  1  1  0  0  0
 12 14  1  0  0  0  0
 14 15  1  1  0  0  0
 14 16  1  0  0  0  0
 16 27  1  6  0  0  0
 18 19  2  0  0  0  0
 18 23  1  0  0  0  0
 19 20  1  0  0  0  0
 20 21  2  0  0  0  0
 21 22  1  0  0  0  0
 21 27  1  0  0  0  0
 22 23  2  0  0  0  0
 22 25  1  0  0  0  0
 23 24  1  0  0  0  0
 25 26  2  0  0  0  0
 26 27  1  0  0  0  0
M  END
>  <CHROM.1>
-41.79464854,55.07022393,-168.83266637,67.34224448,177.41498511,60.43638878
-78.56924985,3.50840640,-18.53160292,8.92920352,1.70651626,0.15012741,0.59696556

>  <Name>
ligand

>  <RI>
0

>  <Rbt.Current_Directory>
/home/itssahil/PROJECTS/Mol_Feturizer/Test_systems_manuscript/rnas/4kqy

>  <Rbt.Executable>
rbdock ($Id: //depot/dev/client3/rdock/2013.1/src/exe/rbdock.cxx#4 $)

>  <Rbt.Library>
libRbt.so (2013.1, Build901 2013/11/27)

>  <Rbt.Parameter_File>
/export/apps/rDock/src/rDock_2013.1_src/data/scripts/dock_solv.prm

>  <Rbt.Receptor>
prm/blind_docking_60.prm

>  <SCORE>
-20.0045

>  <SCORE.INTER>
-18.7007

>  <SCORE.INTER.CONST>
1

>  <SCORE.INTER.POLAR>
0

>  <SCORE.INTER.ROT>
7

>  <SCORE.INTER.SOLV>
14.763

>  <SCORE.INTER.VDW>
-25.6548

>  <SCORE.INTER.norm>
-0.692618

>  <SCORE.INTRA>
-1.30383

>  <SCORE.INTRA.DIHEDRAL>
-6.97453

>  <SCORE.INTRA.DIHEDRAL.0>
10.4103

>  <SCORE.INTRA.POLAR>
0

>  <SCORE.INTRA.POLAR.0>
0

>  <SCORE.INTRA.REPUL>
0

>  <SCORE.INTRA.REPUL.0>
0

>  <SCORE.INTRA.SOLV>
0.307666

>  <SCORE.INTRA.SOLV.lig_0>
-49.5008

>  <SCORE.INTRA.VDW>
2.0296

>  <SCORE.INTRA.VDW.0>
-2.6946

>  <SCORE.INTRA.norm>
-0.04829

>  <SCORE.RESTR>
0

>  <SCORE.RESTR.CAVITY>
0

>  <SCORE.RESTR.norm>
0

>  <SCORE.SYSTEM>
0

>  <SCORE.SYSTEM.CONST>
0

>  <SCORE.SYSTEM.DIHEDRAL>
0

>  <SCORE.SYSTEM.SOLV>
0

>  <SCORE.SYSTEM.norm>
0

>  <SCORE.heavy>
27

>  <SCORE.norm>
-0.740908

>  <RMSD>
16.579

$$$$
ligand
 OpenBabel02271912153D
libRbt.so/2013.1/901 2013/11/27
 27 29  0  0  0  0  0  0  0  0999 V2000
    2.4997  -13.7533   13.1977 N   0  0  0  0  0  0  0  0  0  0  0  0
    1.9348  -13.9077   11.8706 C   0  0  2  0  0  0  0  0  0  0  0  0
    0.5385  -14.4230   12.0382 C   0  0  0  0  0  0  0  0  0  0  0  0
   -0.3199  -14.1517   11.1712 O   0  0  0  0  0  0  0  0  0  0  0  0
    2.7687  -14.8911   11.0450 C   0  0  0  0  0  0  0  0  0  0  0  0
    2.7189  -16.3149   11.6423 C   0  0  0  0  0  0  0  0  0  0  0  0
    3.9241  -17.3602   11.1227 S   0  0  2  0  0  0  0  0  0  0  0  0
    5.3522  -16.9733   11.8775 C   0  0  0  0  0  0  0  0  0  0  0  0
    4.0870  -17.2540    9.4462 C   0  0  0  0  0  0  0  0  0  0  0  0
    5.2097  -18.1399    8.8660 C   0  0  1  0  0  0  0  0  0  0  0  0
    5.0608  -19.5309    9.1958 O   0  0  0  0  0  0  0  0  0  0  0  0
    5.2313  -18.1765    7.3464 C   0  0  1  0  0  0  0  0  0  0  0  0
    5.7437  -17.0154    6.6624 O   0  0  0  0  0  0  0  0  0  0  0  0
    6.0397  -19.4287    7.1125 C   0  0  1  0  0  0  0  0  0  0  0  0
    7.4070  -19.1958    7.4369 O   0  0  0  0  0  0  0  0  0  0  0  0
    5.4572  -20.3795    8.1158 C   0  0  2  0  0  0  0  0  0  0  0  0
    0.2632  -15.1431   13.0275 O   0  0  0  0  0  0  0  0  0  0  0  0
    1.9361  -21.2661    4.2310 N   0  0  0  0  0  0  0  0  0  0  0  0
    2.8815  -20.2994    4.3220 C   0  0  0  0  0  0  0  0  0  0  0  0
    3.7078  -20.1871    5.3755 N   0  0  0  0  0  0  0  0  0  0  0  0
    3.6638  -21.0434    6.4022 C   0  0  0  0  0  0  0  0  0  0  0  0
    2.6840  -22.1181    6.3527 C   0  0  0  0  0  0  0  0  0  0  0  0
    1.7650  -22.2235    5.1958 C   0  0  0  0  0  0  0  0  0  0  0  0
    0.8129  -23.2167    5.0957 N   0  0  0  0  0  0  0  0  0  0  0  0
    2.8578  -22.8104    7.4557 N   0  0  0  0  0  0  0  0  0  0  0  0
    3.8364  -22.2434    8.1746 C   0  0  0  0  0  0  0  0  0  0  0  0
    4.3316  -21.1796    7.5432 N   0  0  0  0  0  0  0  0  0  0  0  0
  2  1  1  1  0  0  0
  2  3  1  0  0  0  0
  2  5  1  0  0  0  0
  3  4  1  0  0  0  0
  3 17  1  0  0  0  0
  5  6  1  0  0  0  0
  7  6  1  1  0  0  0
  7  8  1  0  0  0  0
  7  9  1  0  0  0  0
 10  9  1  6  0  0  0
 10 11  1  0  0  0  0
 10 12  1  0  0  0  0
 11 16  1  0  0  0  0
 12 13  1  6  0  0  0
 12 14  1  0  0  0  0
 14 15  1  1  0  0  0
 14 16  1  0  0  0  0
 16 27  1  6  0  0  0
 18 19  2  0  0  0  0
 18 23  1  0  0  0  0
 19 20  1  0  0  0  0
 20 21  2  0  0  0  0
 21 22  1  0  0  0  0
 21 27  1  0  0  0  0
 22 23  2  0  0  0  0
 22 25  1  0  0  0  0
 23 24  1  0  0  0  0
 25 26  2  0  0  0  0
 26 27  1  0  0  0  0
M  END
>  <CHROM.1>
151.71516400,64.81869086,-162.45066556,75.72898658,177.84560352,56.82151788
105.74140608,3.46485820,-18.46520593,8.76291194,-1.72374355,-0.00261051,-2.39210657

>  <Name>
ligand

>  <RI>
0

>  <Rbt.Current_Directory>
/home/itssahil/PROJECTS/Mol_Feturizer/Test_systems_manuscript/rnas/4kqy

>  <Rbt.Executable>
rbdock ($Id: //depot/dev/client3/rdock/2013.1/src/exe/rbdock.cxx#4 $)

>  <Rbt.Library>
libRbt.so (2013.1, Build901 2013/11/27)

>  <Rbt.Parameter_File>
/export/apps/rDock/src/rDock_2013.1_src/data/scripts/dock_solv.prm

>  <Rbt.Receptor>
prm/blind_docking_60.prm

>  <SCORE>
-22.2991

>  <SCORE.INTER>
-20.917

>  <SCORE.INTER.CONST>
1

>  <SCORE.INTER.POLAR>
0

>  <SCORE.INTER.ROT>
7

>  <SCORE.INTER.SOLV>
12.5286

>  <SCORE.INTER.VDW>
-26.3876

>  <SCORE.INTER.norm>
-0.774705

>  <SCORE.INTRA>
-1.38205

>  <SCORE.INTRA.DIHEDRAL>
-5.82319

>  <SCORE.INTRA.DIHEDRAL.0>
10.4103

>  <SCORE.INTRA.POLAR>
0

>  <SCORE.INTRA.POLAR.0>
0

>  <SCORE.INTRA.REPUL>
0

>  <SCORE.INTRA.REPUL.0>
0

>  <SCORE.INTRA.SOLV>
0.355073

>  <SCORE.INTRA.SOLV.lig_0>
-49.5008

>  <SCORE.INTRA.VDW>
1.35201

>  <SCORE.INTRA.VDW.0>
-2.6946

>  <SCORE.INTRA.norm>
-0.051187

>  <SCORE.RESTR>
0

>  <SCORE.RESTR.CAVITY>
0

>  <SCORE.RESTR.norm>
0

>  <SCORE.SYSTEM>
0

>  <SCORE.SYSTEM.CONST>
0

>  <SCORE.SYSTEM.DIHEDRAL>
0

>  <SCORE.SYSTEM.SOLV>
0

>  <SCORE.SYSTEM.norm>
0

>  <SCORE.heavy>
27

>  <SCORE.norm>
-0.825892

>  <RMSD>
16.584

$$$$
ligand
 OpenBabel02271912153D
libRbt.so/2013.1/901 2013/11/27
 27 29  0  0  0  0  0  0  0  0999 V2000
    3.9569  -11.6108   12.0129 N   0  0  0  0  0  0  0  0  0  0  0  0
    3.3346  -11.0959   10.8080 C   0  0  2  0  0  0  0  0  0  0  0  0
    2.5032  -12.1993   10.2297 C   0  0  0  0  0  0  0  0  0  0  0  0
    2.9782  -13.3539   10.1701 O   0  0  0  0  0  0  0  0  0  0  0  0
    4.4007  -10.6513    9.8031 C   0  0  0  0  0  0  0  0  0  0  0  0
    3.7627  -10.1079    8.5053 C   0  0  0  0  0  0  0  0  0  0  0  0
    4.8381   -9.7251    7.2756 S   0  0  2  0  0  0  0  0  0  0  0  0
    5.8524  -11.0131    7.0097 C   0  0  0  0  0  0  0  0  0  0  0  0
    5.7190   -8.3484    7.6967 C   0  0  0  0  0  0  0  0  0  0  0  0
    6.4640   -8.4659    9.0432 C   0  0  1  0  0  0  0  0  0  0  0  0
    7.5448   -9.4129    9.0114 O   0  0  0  0  0  0  0  0  0  0  0  0
    7.1760   -7.1884    9.4577 C   0  0  1  0  0  0  0  0  0  0  0  0
    6.3626   -6.1091    9.9600 O   0  0  0  0  0  0  0  0  0  0  0  0
    8.1563   -7.7341   10.4664 C   0  0  1  0  0  0  0  0  0  0  0  0
    7.4733   -8.1097   11.6586 O   0  0  0  0  0  0  0  0  0  0  0  0
    8.6624   -8.9714    9.7858 C   0  0  2  0  0  0  0  0  0  0  0  0
    1.3351  -11.9526    9.8450 O   0  0  0  0  0  0  0  0  0  0  0  0
   11.2601   -9.2213    5.1527 N   0  0  0  0  0  0  0  0  0  0  0  0
   10.0086   -9.6454    5.4537 C   0  0  0  0  0  0  0  0  0  0  0  0
    9.4754   -9.5248    6.6810 N   0  0  0  0  0  0  0  0  0  0  0  0
   10.1443   -8.9536    7.6888 C   0  0  0  0  0  0  0  0  0  0  0  0
   11.4860   -8.4573    7.4225 C   0  0  0  0  0  0  0  0  0  0  0  0
   12.0728   -8.6107    6.0711 C   0  0  0  0  0  0  0  0  0  0  0  0
   13.3407   -8.1651    5.7604 N   0  0  0  0  0  0  0  0  0  0  0  0
   11.9067   -7.9410    8.5549 N   0  0  0  0  0  0  0  0  0  0  0  0
   10.9533   -8.0965    9.4838 C   0  0  0  0  0  0  0  0  0  0  0  0
    9.8844   -8.7020    8.9677 N   0  0  0  0  0  0  0  0  0  0  0  0
  2  1  1  1  0  0  0
  2  3  1  0  0  0  0
  2  5  1  0  0  0  0
  3  4  1  0  0  0  0
  3 17  1  0  0  0  0
  5  6  1  0  0  0  0
  7  6  1  1  0  0  0
  7  8  1  0  0  0  0
  7  9  1  0  0  0  0
 10  9  1  6  0  0  0
 10 11  1  0  0  0  0
 10 12  1  0  0  0  0
 11 16  1  0  0  0  0
 12 13  1  1  0  0  0
 12 14  1  0  0  0  0
 14 15  1  1  0  0  0
 14 16  1  0  0  0  0
 16 27  1  6  0  0  0
 18 19  2  0  0  0  0
 18 23  1  0  0  0  0
 19 20  1  0  0  0  0
 20 21  2  0  0  0  0
 21 22  1  0  0  0  0
 21 27  1  0  0  0  0
 22 23  2  0  0  0  0
 22 25  1  0  0  0  0
 23 24  1  0  0  0  0
 25 26  2  0  0  0  0
 26 27  1  0  0  0  0
M  END
>  <CHROM.1>
-44.30368587,179.57928195,-174.49869504,51.17598934,55.64762089,68.25213749
-9.06361325,7.20707485,-9.42491048,8.64756011,-3.02951084,-0.44733025,-2.08811532

>  <Name>
ligand

>  <RI>
0

>  <Rbt.Current_Directory>
/home/itssahil/PROJECTS/Mol_Feturizer/Test_systems_manuscript/rnas/4kqy

>  <Rbt.Executable>
rbdock ($Id: //depot/dev/client3/rdock/2013.1/src/exe/rbdock.cxx#4 $)

>  <Rbt.Library>
libRbt.so (2013.1, Build901 2013/11/27)

>  <Rbt.Parameter_File>
/export/apps/rDock/src/rDock_2013.1_src/data/scripts/dock_solv.prm

>  <Rbt.Receptor>
prm/blind_docking_40.prm

>  <SCORE>
-13.8294

>  <SCORE.INTER>
-10.8979

>  <SCORE.INTER.CONST>
1

>  <SCORE.INTER.POLAR>
0

>  <SCORE.INTER.ROT>
7

>  <SCORE.INTER.SOLV>
16.2337

>  <SCORE.INTER.VDW>
-20.9432

>  <SCORE.INTER.norm>
-0.403627

>  <SCORE.INTRA>
-2.94861

>  <SCORE.INTRA.DIHEDRAL>
-6.91551

>  <SCORE.INTRA.DIHEDRAL.0>
10.4103

>  <SCORE.INTRA.POLAR>
0

>  <SCORE.INTRA.POLAR.0>
0

>  <SCORE.INTRA.REPUL>
0

>  <SCORE.INTRA.REPUL.0>
0

>  <SCORE.INTRA.SOLV>
-0.415789

>  <SCORE.INTRA.SOLV.lig_0>
-49.5008

>  <SCORE.INTRA.VDW>
0.717039

>  <SCORE.INTRA.VDW.0>
-2.6946

>  <SCORE.INTRA.norm>
-0.109208

>  <SCORE.RESTR>
0.0171137

>  <SCORE.RESTR.CAVITY>
0.0171137

>  <SCORE.RESTR.norm>
0.000633841

>  <SCORE.SYSTEM>
0

>  <SCORE.SYSTEM.CONST>
0

>  <SCORE.SYSTEM.DIHEDRAL>
0

>  <SCORE.SYSTEM.SOLV>
0

>  <SCORE.SYSTEM.norm>
0

>  <SCORE.heavy>
27

>  <SCORE.norm>
-0.512201

>  <RMSD>
16.635

$$$$
ligand
 OpenBabel02271912153D
libRbt.so/2013.1/901 2013/11/27
 27 29  0  0  0  0  0  0  0  0999 V2000
    1.0840  -11.6066   10.5287 N   0  0  0  0  0  0  0  0  0  0  0  0
    1.6603  -10.4085    9.9487 C   0  0  2  0  0  0  0  0  0  0  0  0
    0.7544   -9.9705    8.8394 C   0  0  0  0  0  0  0  0  0  0  0  0
    0.6023  -10.7143    7.8464 O   0  0  0  0  0  0  0  0  0  0  0  0
    3.0627  -10.6977    9.4066 C   0  0  0  0  0  0  0  0  0  0  0  0
    3.7841   -9.3989    8.9831 C   0  0  0  0  0  0  0  0  0  0  0  0
    4.8906   -9.5606    7.7323 S   0  0  2  0  0  0  0  0  0  0  0  0
    5.7136  -10.9928    7.9063 C   0  0  0  0  0  0  0  0  0  0  0  0
    5.9582   -8.2534    7.7430 C   0  0  0  0  0  0  0  0  0  0  0  0
    6.9304   -8.2452    8.9416 C   0  0  1  0  0  0  0  0  0  0  0  0
    8.2467   -8.7150    8.6061 O   0  0  0  0  0  0  0  0  0  0  0  0
    7.2198   -6.8535    9.4803 C   0  0  1  0  0  0  0  0  0  0  0  0
    6.1899   -6.2184   10.2642 O   0  0  0  0  0  0  0  0  0  0  0  0
    8.4950   -7.1132   10.2437 C   0  0  1  0  0  0  0  0  0  0  0  0
    8.2137   -7.8523   11.4284 O   0  0  0  0  0  0  0  0  0  0  0  0
    9.2642   -7.9863    9.2971 C   0  0  2  0  0  0  0  0  0  0  0  0
    0.1405   -8.8814    8.9402 O   0  0  0  0  0  0  0  0  0  0  0  0
    9.8723   -4.2383    5.5744 N   0  0  0  0  0  0  0  0  0  0  0  0
    8.7359   -4.6703    6.1732 C   0  0  0  0  0  0  0  0  0  0  0  0
    8.7272   -5.6406    7.1025 N   0  0  0  0  0  0  0  0  0  0  0  0
    9.8530   -6.2334    7.5155 C   0  0  0  0  0  0  0  0  0  0  0  0
   11.1096   -5.7971    6.9258 C   0  0  0  0  0  0  0  0  0  0  0  0
   11.1080   -4.7393    5.8888 C   0  0  0  0  0  0  0  0  0  0  0  0
   12.2662   -4.2885    5.2904 N   0  0  0  0  0  0  0  0  0  0  0  0
   12.0442   -6.5160    7.5051 N   0  0  0  0  0  0  0  0  0  0  0  0
   11.4683   -7.3581    8.3741 C   0  0  0  0  0  0  0  0  0  0  0  0
   10.1465   -7.1901    8.3902 N   0  0  0  0  0  0  0  0  0  0  0  0
  2  1  1  6  0  0  0
  2  3  1  0  0  0  0
  2  5  1  0  0  0  0
  3  4  1  0  0  0  0
  3 17  1  0  0  0  0
  5  6  1  0  0  0  0
  7  6  1  1  0  0  0
  7  8  1  0  0  0  0
  7  9  1  0  0  0  0
 10  9  1  6  0  0  0
 10 11  1  0  0  0  0
 10 12  1  0  0  0  0
 11 16  1  0  0  0  0
 12 13  1  1  0  0  0
 12 14  1  0  0  0  0
 14 15  1  1  0  0  0
 14 16  1  0  0  0  0
 16 27  1  6  0  0  0
 18 19  2  0  0  0  0
 18 23  1  0  0  0  0
 19 20  1  0  0  0  0
 20 21  2  0  0  0  0
 21 22  1  0  0  0  0
 21 27  1  0  0  0  0
 22 23  2  0  0  0  0
 22 25  1  0  0  0  0
 23 24  1  0  0  0  0
 25 26  2  0  0  0  0
 26 27  1  0  0  0  0
M  END
>  <CHROM.1>
-63.85248628,-171.19354101,-150.17469638,-38.57194493,69.45596081,101.27542310
58.02538168,6.73429011,-7.92783975,8.34400674,-2.72145204,-0.30362463,-0.99632933

>  <Name>
ligand

>  <RI>
0

>  <Rbt.Current_Directory>
/home/itssahil/PROJECTS/Mol_Feturizer/Test_systems_manuscript/rnas/4kqy

>  <Rbt.Executable>
rbdock ($Id: //depot/dev/client3/rdock/2013.1/src/exe/rbdock.cxx#4 $)

>  <Rbt.Library>
libRbt.so (2013.1, Build901 2013/11/27)

>  <Rbt.Parameter_File>
/export/apps/rDock/src/rDock_2013.1_src/data/scripts/dock_solv.prm

>  <Rbt.Receptor>
prm/blind_docking_80.prm

>  <SCORE>
-8.80811

>  <SCORE.INTER>
-9.72513

>  <SCORE.INTER.CONST>
1

>  <SCORE.INTER.POLAR>
0

>  <SCORE.INTER.ROT>
7

>  <SCORE.INTER.SOLV>
7.94034

>  <SCORE.INTER.VDW>
-17.3969

>  <SCORE.INTER.norm>
-0.36019

>  <SCORE.INTRA>
0.91702

>  <SCORE.INTRA.DIHEDRAL>
0.901994

>  <SCORE.INTRA.DIHEDRAL.0>
10.4103

>  <SCORE.INTRA.POLAR>
0

>  <SCORE.INTRA.POLAR.0>
0

>  <SCORE.INTRA.REPUL>
0

>  <SCORE.INTRA.REPUL.0>
0

>  <SCORE.INTRA.SOLV>
-0.553159

>  <SCORE.INTRA.SOLV.lig_0>
-49.5008

>  <SCORE.INTRA.VDW>
0.742603

>  <SCORE.INTRA.VDW.0>
-2.6946

>  <SCORE.INTRA.norm>
0.0339637

>  <SCORE.RESTR>
0

>  <SCORE.RESTR.CAVITY>
0

>  <SCORE.RESTR.norm>
0

>  <SCORE.SYSTEM>
0

>  <SCORE.SYSTEM.CONST>
0

>  <SCORE.SYSTEM.DIHEDRAL>
0

>  <SCORE.SYSTEM.SOLV>
0

>  <SCORE.SYSTEM.norm>
0

>  <SCORE.heavy>
27

>  <SCORE.norm>
-0.326226

>  <RMSD>
16.654

$$$$
ligand
 OpenBabel02271912153D
libRbt.so/2013.1/901 2013/11/27
 27 29  0  0  0  0  0  0  0  0999 V2000
  -13.4764  -10.9567   37.0727 N   0  0  0  0  0  0  0  0  0  0  0  0
  -13.7535  -10.0103   36.0089 C   0  0  2  0  0  0  0  0  0  0  0  0
  -14.3934   -8.8102   36.6360 C   0  0  0  0  0  0  0  0  0  0  0  0
  -13.7250   -8.1022   37.4198 O   0  0  0  0  0  0  0  0  0  0  0  0
  -14.6921  -10.6315   34.9709 C   0  0  0  0  0  0  0  0  0  0  0  0
  -13.9797  -11.7291   34.1497 C   0  0  0  0  0  0  0  0  0  0  0  0
  -14.7901  -12.2439   32.7736 S   0  0  2  0  0  0  0  0  0  0  0  0
  -13.8237  -13.2956   31.9260 C   0  0  0  0  0  0  0  0  0  0  0  0
  -15.2010  -10.9117   31.8223 C   0  0  0  0  0  0  0  0  0  0  0  0
  -14.0014  -10.0214   31.4349 C   0  0  1  0  0  0  0  0  0  0  0  0
  -13.4316  -10.3623   30.1601 O   0  0  0  0  0  0  0  0  0  0  0  0
  -14.3681   -8.5597   31.2359 C   0  0  1  0  0  0  0  0  0  0  0  0
  -14.6184   -7.7720   32.4172 O   0  0  0  0  0  0  0  0  0  0  0  0
  -13.1862   -8.0868   30.4262 C   0  0  1  0  0  0  0  0  0  0  0  0
  -12.0283   -8.0067   31.2520 O   0  0  0  0  0  0  0  0  0  0  0  0
  -13.0042   -9.2032   29.4409 C   0  0  2  0  0  0  0  0  0  0  0  0
  -15.5769   -8.5188   36.3399 O   0  0  0  0  0  0  0  0  0  0  0  0
  -13.1642   -8.8483   24.1377 N   0  0  0  0  0  0  0  0  0  0  0  0
  -12.1087   -9.1182   24.9437 C   0  0  0  0  0  0  0  0  0  0  0  0
  -12.2106   -9.1702   26.2825 N   0  0  0  0  0  0  0  0  0  0  0  0
  -13.3760   -8.9778   26.9102 C   0  0  0  0  0  0  0  0  0  0  0  0
  -14.5520   -8.7058   26.0975 C   0  0  0  0  0  0  0  0  0  0  0  0
  -14.4269   -8.6326   24.6233 C   0  0  0  0  0  0  0  0  0  0  0  0
  -15.5041   -8.3732   23.8016 N   0  0  0  0  0  0  0  0  0  0  0  0
  -15.5477   -8.5723   26.9441 N   0  0  0  0  0  0  0  0  0  0  0  0
  -15.0798   -8.7186   28.1913 C   0  0  0  0  0  0  0  0  0  0  0  0
  -13.7711   -8.9688   28.1792 N   0  0  0  0  0  0  0  0  0  0  0  0
  2  1  1  1  0  0  0
  2  3  1  0  0  0  0
  2  5  1  0  0  0  0
  3  4  1  0  0  0  0
  3 17  1  0  0  0  0
  5  6  1  0  0  0  0
  7  6  1  1  0  0  0
  7  8  1  0  0  0  0
  7  9  1  0  0  0  0
 10  9  1  6  0  0  0
 10 11  1  0  0  0  0
 10 12  1  0  0  0  0
 11 16  1  0  0  0  0
 12 13  1  1  0  0  0
 12 14  1  0  0  0  0
 14 15  1  1  0  0  0
 14 16  1  0  0  0  0
 16 27  1  6  0  0  0
 18 19  2  0  0  0  0
 18 23  1  0  0  0  0
 19 20  1  0  0  0  0
 20 21  2  0  0  0  0
 21 22  1  0  0  0  0
 21 27  1  0  0  0  0
 22 23  2  0  0  0  0
 22 25  1  0  0  0  0
 23 24  1  0  0  0  0
 25 26  2  0  0  0  0
 26 27  1  0  0  0  0
M  END
>  <CHROM.1>
66.10069545,-70.59650264,-167.17825484,173.96972324,55.71406924,93.80609448
-115.92558459,-14.03009631,-9.59491096,30.82615690,2.06661239,1.48553856
1.19965874

>  <Name>
ligand

>  <RI>
0

>  <Rbt.Current_Directory>
/home/itssahil/PROJECTS/Mol_Feturizer/Test_systems_manuscript/rnas/4kqy

>  <Rbt.Executable>
rbdock ($Id: //depot/dev/client3/rdock/2013.1/src/exe/rbdock.cxx#4 $)

>  <Rbt.Library>
libRbt.so (2013.1, Build901 2013/11/27)

>  <Rbt.Parameter_File>
/export/apps/rDock/src/rDock_2013.1_src/data/scripts/dock_solv.prm

>  <Rbt.Receptor>
prm/blind_docking_80.prm

>  <SCORE>
-15.1335

>  <SCORE.INTER>
-14.7949

>  <SCORE.INTER.CONST>
1

>  <SCORE.INTER.POLAR>
0

>  <SCORE.INTER.ROT>
7

>  <SCORE.INTER.SOLV>
7.97897

>  <SCORE.INTER.VDW>
-20.7896

>  <SCORE.INTER.norm>
-0.547958

>  <SCORE.INTRA>
-0.346436

>  <SCORE.INTRA.DIHEDRAL>
-3.3138

>  <SCORE.INTRA.DIHEDRAL.0>
10.4103

>  <SCORE.INTRA.POLAR>
0

>  <SCORE.INTRA.POLAR.0>
0

>  <SCORE.INTRA.REPUL>
0

>  <SCORE.INTRA.REPUL.0>
0

>  <SCORE.INTRA.SOLV>
0.1315

>  <SCORE.INTRA.SOLV.lig_0>
-49.5008

>  <SCORE.INTRA.VDW>
1.24471

>  <SCORE.INTRA.VDW.0>
-2.6946

>  <SCORE.INTRA.norm>
-0.012831

>  <SCORE.RESTR>
0.00784771

>  <SCORE.RESTR.CAVITY>
0.00784771

>  <SCORE.RESTR.norm>
0.000290656

>  <SCORE.SYSTEM>
0

>  <SCORE.SYSTEM.CONST>
0

>  <SCORE.SYSTEM.DIHEDRAL>
0

>  <SCORE.SYSTEM.SOLV>
0

>  <SCORE.SYSTEM.norm>
0

>  <SCORE.heavy>
27

>  <SCORE.norm>
-0.560498

>  <RMSD>
16.663

$$$$
ligand
 OpenBabel02271912153D
libRbt.so/2013.1/901 2013/11/27
 27 29  0  0  0  0  0  0  0  0999 V2000
    2.6536  -13.6960   12.8787 N   0  0  0  0  0  0  0  0  0  0  0  0
    2.2359  -14.4096   11.6869 C   0  0  2  0  0  0  0  0  0  0  0  0
    0.8051  -14.0487   11.4303 C   0  0  0  0  0  0  0  0  0  0  0  0
    0.5450  -13.0543   10.7191 O   0  0  0  0  0  0  0  0  0  0  0  0
    2.3743  -15.9206   11.8917 C   0  0  0  0  0  0  0  0  0  0  0  0
    3.8312  -16.3155   12.2199 C   0  0  0  0  0  0  0  0  0  0  0  0
    4.8606  -16.4445   10.9012 S   0  0  2  0  0  0  0  0  0  0  0  0
    5.0340  -14.9538   10.1895 C   0  0  0  0  0  0  0  0  0  0  0  0
    4.2394  -17.5630    9.8005 C   0  0  0  0  0  0  0  0  0  0  0  0
    5.3135  -18.2630    8.9413 C   0  0  1  0  0  0  0  0  0  0  0  0
    5.3286  -19.6908    9.1064 O   0  0  0  0  0  0  0  0  0  0  0  0
    5.0833  -18.1209    7.4454 C   0  0  1  0  0  0  0  0  0  0  0  0
    5.3838  -16.8442    6.8467 O   0  0  0  0  0  0  0  0  0  0  0  0
    5.9343  -19.2535    6.9268 C   0  0  1  0  0  0  0  0  0  0  0  0
    7.3148  -18.9290    7.0607 O   0  0  0  0  0  0  0  0  0  0  0  0
    5.6022  -20.3661    7.8765 C   0  0  2  0  0  0  0  0  0  0  0  0
   -0.1056  -14.7677   11.9065 O   0  0  0  0  0  0  0  0  0  0  0  0
    1.9477  -21.4682    4.1743 N   0  0  0  0  0  0  0  0  0  0  0  0
    2.8904  -20.4946    4.1801 C   0  0  0  0  0  0  0  0  0  0  0  0
    3.7537  -20.3242    5.1954 N   0  0  0  0  0  0  0  0  0  0  0  0
    3.7516  -21.1256    6.2665 C   0  0  0  0  0  0  0  0  0  0  0  0
    2.7767  -22.2049    6.3091 C   0  0  0  0  0  0  0  0  0  0  0  0
    1.8170  -22.3743    5.1935 C   0  0  0  0  0  0  0  0  0  0  0  0
    0.8674  -23.3748    5.1802 N   0  0  0  0  0  0  0  0  0  0  0  0
    2.9941  -22.8377    7.4396 N   0  0  0  0  0  0  0  0  0  0  0  0
    3.9950  -22.2302    8.0918 C   0  0  0  0  0  0  0  0  0  0  0  0
    4.4610  -21.1993    7.3880 N   0  0  0  0  0  0  0  0  0  0  0  0
  2  1  1  1  0  0  0
  2  3  1  0  0  0  0
  2  5  1  0  0  0  0
  3  4  1  0  0  0  0
  3 17  1  0  0  0  0
  5  6  1  0  0  0  0
  7  6  1  1  0  0  0
  7  8  1  0  0  0  0
  7  9  1  0  0  0  0
 10  9  1  1  0  0  0
 10 11  1  0  0  0  0
 10 12  1  0  0  0  0
 11 16  1  0  0  0  0
 12 13  1  6  0  0  0
 12 14  1  0  0  0  0
 14 15  1  1  0  0  0
 14 16  1  0  0  0  0
 16 27  1  6  0  0  0
 18 19  2  0  0  0  0
 18 23  1  0  0  0  0
 19 20  1  0  0  0  0
 20 21  2  0  0  0  0
 21 22  1  0  0  0  0
 21 27  1  0  0  0  0
 22 23  2  0  0  0  0
 22 25  1  0  0  0  0
 23 24  1  0  0  0  0
 25 26  2  0  0  0  0
 26 27  1  0  0  0  0
M  END
>  <CHROM.1>
89.37644335,-59.05531806,-80.98198274,64.59928487,-152.40240761,119.94558664
119.06862447,3.62304210,-18.32267724,8.59886258,1.67116516,-0.00542626,0.68742946

>  <Name>
ligand

>  <RI>
0

>  <Rbt.Current_Directory>
/home/itssahil/PROJECTS/Mol_Feturizer/Test_systems_manuscript/rnas/4kqy

>  <Rbt.Executable>
rbdock ($Id: //depot/dev/client3/rdock/2013.1/src/exe/rbdock.cxx#4 $)

>  <Rbt.Library>
libRbt.so (2013.1, Build901 2013/11/27)

>  <Rbt.Parameter_File>
/export/apps/rDock/src/rDock_2013.1_src/data/scripts/dock_solv.prm

>  <Rbt.Receptor>
prm/blind_docking_100.prm

>  <SCORE>
-17.4032

>  <SCORE.INTER>
-19.8267

>  <SCORE.INTER.CONST>
1

>  <SCORE.INTER.POLAR>
0

>  <SCORE.INTER.ROT>
7

>  <SCORE.INTER.SOLV>
11.3301

>  <SCORE.INTER.VDW>
-25.2612

>  <SCORE.INTER.norm>
-0.734324

>  <SCORE.INTRA>
2.4235

>  <SCORE.INTRA.DIHEDRAL>
1.14114

>  <SCORE.INTRA.DIHEDRAL.0>
10.4103

>  <SCORE.INTRA.POLAR>
0

>  <SCORE.INTRA.POLAR.0>
0

>  <SCORE.INTRA.REPUL>
0

>  <SCORE.INTRA.REPUL.0>
0

>  <SCORE.INTRA.SOLV>
1.25082

>  <SCORE.INTRA.SOLV.lig_0>
-49.5008

>  <SCORE.INTRA.VDW>
1.22752

>  <SCORE.INTRA.VDW.0>
-2.6946

>  <SCORE.INTRA.norm>
0.0897593

>  <SCORE.RESTR>
0

>  <SCORE.RESTR.CAVITY>
0

>  <SCORE.RESTR.norm>
0

>  <SCORE.SYSTEM>
0

>  <SCORE.SYSTEM.CONST>
0

>  <SCORE.SYSTEM.DIHEDRAL>
0

>  <SCORE.SYSTEM.SOLV>
0

>  <SCORE.SYSTEM.norm>
0

>  <SCORE.heavy>
27

>  <SCORE.norm>
-0.644564

>  <RMSD>
16.682

$$$$
ligand
 OpenBabel02271912153D
libRbt.so/2013.1/901 2013/11/27
 27 29  0  0  0  0  0  0  0  0999 V2000
   -2.8021  -18.8402    4.8446 N   0  0  0  0  0  0  0  0  0  0  0  0
   -2.4450  -19.3904    6.1385 C   0  0  2  0  0  0  0  0  0  0  0  0
   -2.7813  -18.3576    7.1697 C   0  0  0  0  0  0  0  0  0  0  0  0
   -2.1466  -17.2810    7.1844 O   0  0  0  0  0  0  0  0  0  0  0  0
   -0.9508  -19.7212    6.1853 C   0  0  0  0  0  0  0  0  0  0  0  0
   -0.5426  -20.6583    5.0270 C   0  0  0  0  0  0  0  0  0  0  0  0
    1.0026  -21.3042    5.1290 S   0  0  2  0  0  0  0  0  0  0  0  0
    1.0408  -22.4557    6.3254 C   0  0  0  0  0  0  0  0  0  0  0  0
    2.1143  -20.0749    5.4476 C   0  0  0  0  0  0  0  0  0  0  0  0
    3.5322  -20.5815    5.7865 C   0  0  1  0  0  0  0  0  0  0  0  0
    4.5700  -19.6754    5.3769 O   0  0  0  0  0  0  0  0  0  0  0  0
    3.7929  -20.7059    7.2790 C   0  0  1  0  0  0  0  0  0  0  0  0
    3.1904  -21.8207    7.9667 O   0  0  0  0  0  0  0  0  0  0  0  0
    5.3014  -20.7224    7.2947 C   0  0  1  0  0  0  0  0  0  0  0  0
    5.7823  -21.9649    6.7909 O   0  0  0  0  0  0  0  0  0  0  0  0
    5.6449  -19.6364    6.3186 C   0  0  2  0  0  0  0  0  0  0  0  0
   -3.7136  -18.5776    7.9794 O   0  0  0  0  0  0  0  0  0  0  0  0
    4.5717  -16.3521   10.3606 N   0  0  0  0  0  0  0  0  0  0  0  0
    4.1538  -17.6258   10.1616 C   0  0  0  0  0  0  0  0  0  0  0  0
    4.4996  -18.3440    9.0799 N   0  0  0  0  0  0  0  0  0  0  0  0
    5.3032  -17.8502    8.1314 C   0  0  0  0  0  0  0  0  0  0  0  0
    5.8036  -16.4942    8.2993 C   0  0  0  0  0  0  0  0  0  0  0  0
    5.4029  -15.7034    9.4860 C   0  0  0  0  0  0  0  0  0  0  0  0
    5.8405  -14.4123    9.6966 N   0  0  0  0  0  0  0  0  0  0  0  0
    6.5666  -16.2636    7.2549 N   0  0  0  0  0  0  0  0  0  0  0  0
    6.5580  -17.3451    6.4635 C   0  0  0  0  0  0  0  0  0  0  0  0
    5.8021  -18.3089    6.9881 N   0  0  0  0  0  0  0  0  0  0  0  0
  2  1  1  6  0  0  0
  2  3  1  0  0  0  0
  2  5  1  0  0  0  0
  3  4  1  0  0  0  0
  3 17  1  0  0  0  0
  5  6  1  0  0  0  0
  7  6  1  1  0  0  0
  7  8  1  0  0  0  0
  7  9  1  0  0  0  0
 10  9  1  1  0  0  0
 10 11  1  0  0  0  0
 10 12  1  0  0  0  0
 11 16  1  0  0  0  0
 12 13  1  6  0  0  0
 12 14  1  0  0  0  0
 14 15  1  6  0  0  0
 14 16  1  0  0  0  0
 16 27  1  1  0  0  0
 18 19  2  0  0  0  0
 18 23  1  0  0  0  0
 19 20  1  0  0  0  0
 20 21  2  0  0  0  0
 21 22  1  0  0  0  0
 21 27  1  0  0  0  0
 22 23  2  0  0  0  0
 22 25  1  0  0  0  0
 23 24  1  0  0  0  0
 25 26  2  0  0  0  0
 26 27  1  0  0  0  0
M  END
>  <CHROM.1>
-66.19928657,-54.88314960,-169.64241761,72.45649712,170.66348359,149.12815681
92.80729850,2.61767667,-19.08607688,7.06445654,2.77284051,0.09088916,-2.61270235

>  <Name>
ligand

>  <RI>
0

>  <Rbt.Current_Directory>
/home/itssahil/PROJECTS/Mol_Feturizer/Test_systems_manuscript/rnas/4kqy

>  <Rbt.Executable>
rbdock ($Id: //depot/dev/client3/rdock/2013.1/src/exe/rbdock.cxx#4 $)

>  <Rbt.Library>
libRbt.so (2013.1, Build901 2013/11/27)

>  <Rbt.Parameter_File>
/export/apps/rDock/src/rDock_2013.1_src/data/scripts/dock_solv.prm

>  <Rbt.Receptor>
prm/blind_docking_80.prm

>  <SCORE>
-16.6988

>  <SCORE.INTER>
-16.9887

>  <SCORE.INTER.CONST>
1

>  <SCORE.INTER.POLAR>
0

>  <SCORE.INTER.ROT>
7

>  <SCORE.INTER.SOLV>
19.9687

>  <SCORE.INTER.VDW>
-26.2487

>  <SCORE.INTER.norm>
-0.629212

>  <SCORE.INTRA>
0.289968

>  <SCORE.INTRA.DIHEDRAL>
-3.77385

>  <SCORE.INTRA.DIHEDRAL.0>
10.4103

>  <SCORE.INTRA.POLAR>
0

>  <SCORE.INTRA.POLAR.0>
0

>  <SCORE.INTRA.REPUL>
0

>  <SCORE.INTRA.REPUL.0>
0

>  <SCORE.INTRA.SOLV>
0.433157

>  <SCORE.INTRA.SOLV.lig_0>
-49.5008

>  <SCORE.INTRA.VDW>
1.96032

>  <SCORE.INTRA.VDW.0>
-2.6946

>  <SCORE.INTRA.norm>
0.0107396

>  <SCORE.RESTR>
0

>  <SCORE.RESTR.CAVITY>
0

>  <SCORE.RESTR.norm>
0

>  <SCORE.SYSTEM>
0

>  <SCORE.SYSTEM.CONST>
0

>  <SCORE.SYSTEM.DIHEDRAL>
0

>  <SCORE.SYSTEM.SOLV>
0

>  <SCORE.SYSTEM.norm>
0

>  <SCORE.heavy>
27

>  <SCORE.norm>
-0.618472

>  <RMSD>
16.762

$$$$
ligand
 OpenBabel02271912153D
libRbt.so/2013.1/901 2013/11/27
 27 29  0  0  0  0  0  0  0  0999 V2000
   11.0157   -4.4690    4.9392 N   0  0  0  0  0  0  0  0  0  0  0  0
   10.9592   -4.6352    6.3792 C   0  0  2  0  0  0  0  0  0  0  0  0
   11.9699   -3.7042    6.9749 C   0  0  0  0  0  0  0  0  0  0  0  0
   11.6229   -2.9377    7.8992 O   0  0  0  0  0  0  0  0  0  0  0  0
   11.2783   -6.0824    6.7638 C   0  0  0  0  0  0  0  0  0  0  0  0
   10.2741   -7.0704    6.1297 C   0  0  0  0  0  0  0  0  0  0  0  0
   10.5216   -8.6888    6.4966 S   0  0  2  0  0  0  0  0  0  0  0  0
   10.3709   -9.5967    5.1139 C   0  0  0  0  0  0  0  0  0  0  0  0
    9.4066   -9.1861    7.6620 C   0  0  0  0  0  0  0  0  0  0  0  0
    7.9338   -9.0538    7.2202 C   0  0  1  0  0  0  0  0  0  0  0  0
    7.3415  -10.3074    6.8416 O   0  0  0  0  0  0  0  0  0  0  0  0
    7.0054   -8.5887    8.3305 C   0  0  1  0  0  0  0  0  0  0  0  0
    7.0584   -7.1959    8.6992 O   0  0  0  0  0  0  0  0  0  0  0  0
    5.6717   -9.0224    7.7742 C   0  0  1  0  0  0  0  0  0  0  0  0
    5.2993   -8.1823    6.6858 O   0  0  0  0  0  0  0  0  0  0  0  0
    5.9737  -10.3943    7.2481 C   0  0  2  0  0  0  0  0  0  0  0  0
   13.1527   -3.7319    6.5583 O   0  0  0  0  0  0  0  0  0  0  0  0
    2.8756  -12.5526   10.9923 N   0  0  0  0  0  0  0  0  0  0  0  0
    2.6566  -11.4513   10.2336 C   0  0  0  0  0  0  0  0  0  0  0  0
    3.5380  -11.0101    9.3205 N   0  0  0  0  0  0  0  0  0  0  0  0
    4.6899  -11.6481    9.0848 C   0  0  0  0  0  0  0  0  0  0  0  0
    4.9728  -12.8514    9.8525 C   0  0  0  0  0  0  0  0  0  0  0  0
    4.0036  -13.3203   10.8698 C   0  0  0  0  0  0  0  0  0  0  0  0
    4.2191  -14.4501   11.6313 N   0  0  0  0  0  0  0  0  0  0  0  0
    6.1380  -13.2818    9.4246 N   0  0  0  0  0  0  0  0  0  0  0  0
    6.5933  -12.4411    8.4855 C   0  0  0  0  0  0  0  0  0  0  0  0
    5.7228  -11.4555    8.2709 N   0  0  0  0  0  0  0  0  0  0  0  0
  2  1  1  6  0  0  0
  2  3  1  0  0  0  0
  2  5  1  0  0  0  0
  3  4  1  0  0  0  0
  3 17  1  0  0  0  0
  5  6  1  0  0  0  0
  7  6  1  6  0  0  0
  7  8  1  0  0  0  0
  7  9  1  0  0  0  0
 10  9  1  1  0  0  0
 10 11  1  0  0  0  0
 10 12  1  0  0  0  0
 11 16  1  0  0  0  0
 12 13  1  6  0  0  0
 12 14  1  0  0  0  0
 14 15  1  6  0  0  0
 14 16  1  0  0  0  0
 16 27  1  1  0  0  0
 18 19  2  0  0  0  0
 18 23  1  0  0  0  0
 19 20  1  0  0  0  0
 20 21  2  0  0  0  0
 21 22  1  0  0  0  0
 21 27  1  0  0  0  0
 22 23  2  0  0  0  0
 22 25  1  0  0  0  0
 23 24  1  0  0  0  0
 25 26  2  0  0  0  0
 26 27  1  0  0  0  0
M  END
>  <CHROM.1>
129.44898513,-59.93862377,-179.48708969,-135.50759363,60.46356702,102.86069314
163.52669199,7.72651424,-9.02701123,7.87090680,0.70202180,0.52471299,0.10182794

>  <Name>
ligand

>  <RI>
0

>  <Rbt.Current_Directory>
/home/itssahil/PROJECTS/Mol_Feturizer/Test_systems_manuscript/rnas/4kqy

>  <Rbt.Executable>
rbdock ($Id: //depot/dev/client3/rdock/2013.1/src/exe/rbdock.cxx#4 $)

>  <Rbt.Library>
libRbt.so (2013.1, Build901 2013/11/27)

>  <Rbt.Parameter_File>
/export/apps/rDock/src/rDock_2013.1_src/data/scripts/dock_solv.prm

>  <Rbt.Receptor>
prm/blind_docking_80.prm

>  <SCORE>
-10.8677

>  <SCORE.INTER>
-11.3542

>  <SCORE.INTER.CONST>
1

>  <SCORE.INTER.POLAR>
0

>  <SCORE.INTER.ROT>
7

>  <SCORE.INTER.SOLV>
9.37565

>  <SCORE.INTER.VDW>
-18.9614

>  <SCORE.INTER.norm>
-0.420527

>  <SCORE.INTRA>
0.486525

>  <SCORE.INTRA.DIHEDRAL>
0.435019

>  <SCORE.INTRA.DIHEDRAL.0>
10.4103

>  <SCORE.INTRA.POLAR>
0

>  <SCORE.INTRA.POLAR.0>
0

>  <SCORE.INTRA.REPUL>
0

>  <SCORE.INTRA.REPUL.0>
0

>  <SCORE.INTRA.SOLV>
0.150555

>  <SCORE.INTRA.SOLV.lig_0>
-49.5008

>  <SCORE.INTRA.VDW>
0.193738

>  <SCORE.INTRA.VDW.0>
-2.6946

>  <SCORE.INTRA.norm>
0.0180195

>  <SCORE.RESTR>
0

>  <SCORE.RESTR.CAVITY>
0

>  <SCORE.RESTR.norm>
0

>  <SCORE.SYSTEM>
0

>  <SCORE.SYSTEM.CONST>
0

>  <SCORE.SYSTEM.DIHEDRAL>
0

>  <SCORE.SYSTEM.SOLV>
0

>  <SCORE.SYSTEM.norm>
0

>  <SCORE.heavy>
27

>  <SCORE.norm>
-0.402507

>  <RMSD>
16.785

$$$$
ligand
 OpenBabel02271912153D
libRbt.so/2013.1/901 2013/11/27
 27 29  0  0  0  0  0  0  0  0999 V2000
   -1.6056  -20.5686    7.8561 N   0  0  0  0  0  0  0  0  0  0  0  0
   -1.5449  -21.7395    7.0020 C   0  0  2  0  0  0  0  0  0  0  0  0
   -0.7405  -22.7762    7.7240 C   0  0  0  0  0  0  0  0  0  0  0  0
   -0.2209  -22.4883    8.8237 O   0  0  0  0  0  0  0  0  0  0  0  0
   -0.8862  -21.3924    5.6641 C   0  0  0  0  0  0  0  0  0  0  0  0
    0.4911  -20.7233    5.8689 C   0  0  0  0  0  0  0  0  0  0  0  0
    1.5874  -20.9254    4.6149 S   0  0  2  0  0  0  0  0  0  0  0  0
    1.9874  -22.5323    4.4862 C   0  0  0  0  0  0  0  0  0  0  0  0
    2.9618  -19.9891    4.9028 C   0  0  0  0  0  0  0  0  0  0  0  0
    3.9548  -20.6202    5.9015 C   0  0  1  0  0  0  0  0  0  0  0  0
    5.1030  -19.7941    6.1567 O   0  0  0  0  0  0  0  0  0  0  0  0
    3.3805  -20.8020    7.2972 C   0  0  1  0  0  0  0  0  0  0  0  0
    2.4422  -21.8791    7.4930 O   0  0  0  0  0  0  0  0  0  0  0  0
    4.6494  -20.9445    8.1009 C   0  0  1  0  0  0  0  0  0  0  0  0
    5.2507  -22.2102    7.8452 O   0  0  0  0  0  0  0  0  0  0  0  0
    5.5188  -19.8676    7.5225 C   0  0  2  0  0  0  0  0  0  0  0  0
   -0.6287  -23.9231    7.2287 O   0  0  0  0  0  0  0  0  0  0  0  0
    4.1635  -17.1810   11.9067 N   0  0  0  0  0  0  0  0  0  0  0  0
    4.1194  -18.5156   11.6756 C   0  0  0  0  0  0  0  0  0  0  0  0
    4.4892  -19.0637   10.5059 N   0  0  0  0  0  0  0  0  0  0  0  0
    4.9488  -18.3218    9.4921 C   0  0  0  0  0  0  0  0  0  0  0  0
    5.0411  -16.8828    9.6869 C   0  0  0  0  0  0  0  0  0  0  0  0
    4.6144  -16.2853   10.9734 C   0  0  0  0  0  0  0  0  0  0  0  0
    4.6737  -14.9284   11.2144 N   0  0  0  0  0  0  0  0  0  0  0  0
    5.5260  -16.4013    8.5648 N   0  0  0  0  0  0  0  0  0  0  0  0
    5.7164  -17.4115    7.7051 C   0  0  0  0  0  0  0  0  0  0  0  0
    5.3755  -18.5745    8.2590 N   0  0  0  0  0  0  0  0  0  0  0  0
  2  1  1  1  0  0  0
  2  3  1  0  0  0  0
  2  5  1  0  0  0  0
  3  4  1  0  0  0  0
  3 17  1  0  0  0  0
  5  6  1  0  0  0  0
  7  6  1  1  0  0  0
  7  8  1  0  0  0  0
  7  9  1  0  0  0  0
 10  9  1  6  0  0  0
 10 11  1  0  0  0  0
 10 12  1  0  0  0  0
 11 16  1  0  0  0  0
 12 13  1  6  0  0  0
 12 14  1  0  0  0  0
 14 15  1  6  0  0  0
 14 16  1  0  0  0  0
 16 27  1  1  0  0  0
 18 19  2  0  0  0  0
 18 23  1  0  0  0  0
 19 20  1  0  0  0  0
 20 21  2  0  0  0  0
 21 22  1  0  0  0  0
 21 27  1  0  0  0  0
 22 23  2  0  0  0  0
 22 25  1  0  0  0  0
 23 24  1  0  0  0  0
 25 26  2  0  0  0  0
 26 27  1  0  0  0  0
M  END
>  <CHROM.1>
-3.62856806,53.52952613,153.13699886,-65.14777710,79.83951191,-178.64922361
138.83866153,2.86184905,-20.02531147,7.72971999,2.33378589,-0.43141578,-2.10022322

>  <Name>
ligand

>  <RI>
0

>  <Rbt.Current_Directory>
/home/itssahil/PROJECTS/Mol_Feturizer/Test_systems_manuscript/rnas/4kqy

>  <Rbt.Executable>
rbdock ($Id: //depot/dev/client3/rdock/2013.1/src/exe/rbdock.cxx#4 $)

>  <Rbt.Library>
libRbt.so (2013.1, Build901 2013/11/27)

>  <Rbt.Parameter_File>
/export/apps/rDock/src/rDock_2013.1_src/data/scripts/dock_solv.prm

>  <Rbt.Receptor>
prm/blind_docking_80.prm

>  <SCORE>
-19.7613

>  <SCORE.INTER>
-19.6976

>  <SCORE.INTER.CONST>
1

>  <SCORE.INTER.POLAR>
0

>  <SCORE.INTER.ROT>
7

>  <SCORE.INTER.SOLV>
14.4978

>  <SCORE.INTER.VDW>
-26.231

>  <SCORE.INTER.norm>
-0.729541

>  <SCORE.INTRA>
-0.0693828

>  <SCORE.INTRA.DIHEDRAL>
-3.99725

>  <SCORE.INTRA.DIHEDRAL.0>
10.4103

>  <SCORE.INTRA.POLAR>
0

>  <SCORE.INTRA.POLAR.0>
0

>  <SCORE.INTRA.REPUL>
0

>  <SCORE.INTRA.REPUL.0>
0

>  <SCORE.INTRA.SOLV>
1.05869

>  <SCORE.INTRA.SOLV.lig_0>
-49.5008

>  <SCORE.INTRA.VDW>
1.3999

>  <SCORE.INTRA.VDW.0>
-2.6946

>  <SCORE.INTRA.norm>
-0.00256973

>  <SCORE.RESTR>
0.00564034

>  <SCORE.RESTR.CAVITY>
0.00564034

>  <SCORE.RESTR.norm>
0.000208902

>  <SCORE.SYSTEM>
0

>  <SCORE.SYSTEM.CONST>
0

>  <SCORE.SYSTEM.DIHEDRAL>
0

>  <SCORE.SYSTEM.SOLV>
0

>  <SCORE.SYSTEM.norm>
0

>  <SCORE.heavy>
27

>  <SCORE.norm>
-0.731901

>  <RMSD>
16.796

$$$$
ligand
 OpenBabel02271912153D
libRbt.so/2013.1/901 2013/11/27
 27 29  0  0  0  0  0  0  0  0999 V2000
   -2.5610  -19.3847    4.8162 N   0  0  0  0  0  0  0  0  0  0  0  0
   -1.6620  -20.3003    5.4926 C   0  0  2  0  0  0  0  0  0  0  0  0
   -1.4930  -19.8036    6.8954 C   0  0  0  0  0  0  0  0  0  0  0  0
   -1.4923  -18.5724    7.1106 O   0  0  0  0  0  0  0  0  0  0  0  0
   -0.3084  -20.3466    4.7786 C   0  0  0  0  0  0  0  0  0  0  0  0
    0.4767  -21.6277    5.1377 C   0  0  0  0  0  0  0  0  0  0  0  0
    2.1466  -21.5080    5.0266 S   0  0  2  0  0  0  0  0  0  0  0  0
    2.8252  -23.0000    5.2952 C   0  0  0  0  0  0  0  0  0  0  0  0
    2.7134  -20.3832    6.1500 C   0  0  0  0  0  0  0  0  0  0  0  0
    4.2257  -20.0946    6.0429 C   0  0  1  0  0  0  0  0  0  0  0  0
    4.5420  -18.6948    6.1232 O   0  0  0  0  0  0  0  0  0  0  0  0
    5.0372  -20.6679    7.1933 C   0  0  1  0  0  0  0  0  0  0  0  0
    5.2715  -22.0906    7.1952 O   0  0  0  0  0  0  0  0  0  0  0  0
    6.2951  -19.8425    7.0815 C   0  0  1  0  0  0  0  0  0  0  0  0
    7.0456  -20.2469    5.9404 O   0  0  0  0  0  0  0  0  0  0  0  0
    5.7546  -18.4635    6.8441 C   0  0  2  0  0  0  0  0  0  0  0  0
   -1.3868  -20.6308    7.8323 O   0  0  0  0  0  0  0  0  0  0  0  0
    4.3050  -18.3611   11.9592 N   0  0  0  0  0  0  0  0  0  0  0  0
    4.3243  -19.4074   11.0982 C   0  0  0  0  0  0  0  0  0  0  0  0
    4.7110  -19.2880    9.8170 N   0  0  0  0  0  0  0  0  0  0  0  0
    5.1257  -18.1216    9.3101 C   0  0  0  0  0  0  0  0  0  0  0  0
    5.1492  -16.9643   10.1919 C   0  0  0  0  0  0  0  0  0  0  0  0
    4.7041  -17.1013   11.5981 C   0  0  0  0  0  0  0  0  0  0  0  0
    4.6991  -16.0398   12.4790 N   0  0  0  0  0  0  0  0  0  0  0  0
    5.6010  -15.9693    9.4627 N   0  0  0  0  0  0  0  0  0  0  0  0
    5.8336  -16.4125    8.2196 C   0  0  0  0  0  0  0  0  0  0  0  0
    5.5543  -17.7116    8.1207 N   0  0  0  0  0  0  0  0  0  0  0  0
  2  1  1  6  0  0  0
  2  3  1  0  0  0  0
  2  5  1  0  0  0  0
  3  4  1  0  0  0  0
  3 17  1  0  0  0  0
  5  6  1  0  0  0  0
  7  6  1  1  0  0  0
  7  8  1  0  0  0  0
  7  9  1  0  0  0  0
 10  9  1  1  0  0  0
 10 11  1  0  0  0  0
 10 12  1  0  0  0  0
 11 16  1  0  0  0  0
 12 13  1  6  0  0  0
 12 14  1  0  0  0  0
 14 15  1  6  0  0  0
 14 16  1  0  0  0  0
 16 27  1  1  0  0  0
 18 19  2  0  0  0  0
 18 23  1  0  0  0  0
 19 20  1  0  0  0  0
 20 21  2  0  0  0  0
 21 22  1  0  0  0  0
 21 27  1  0  0  0  0
 22 23  2  0  0  0  0
 22 25  1  0  0  0  0
 23 24  1  0  0  0  0
 25 26  2  0  0  0  0
 26 27  1  0  0  0  0
M  END
>  <CHROM.1>
-34.55795204,-159.91820421,-153.40000856,-174.39942820,-174.47878849,135.59241758
79.05734855,3.14491009,-19.46241434,7.48102621,2.41374124,0.04947311,-2.23072249

>  <Name>
ligand

>  <RI>
0

>  <Rbt.Current_Directory>
/home/itssahil/PROJECTS/Mol_Feturizer/Test_systems_manuscript/rnas/4kqy

>  <Rbt.Executable>
rbdock ($Id: //depot/dev/client3/rdock/2013.1/src/exe/rbdock.cxx#4 $)

>  <Rbt.Library>
libRbt.so (2013.1, Build901 2013/11/27)

>  <Rbt.Parameter_File>
/export/apps/rDock/src/rDock_2013.1_src/data/scripts/dock_solv.prm

>  <Rbt.Receptor>
prm/blind_docking_60.prm

>  <SCORE>
-20.0474

>  <SCORE.INTER>
-19.7929

>  <SCORE.INTER.CONST>
1

>  <SCORE.INTER.POLAR>
0

>  <SCORE.INTER.ROT>
7

>  <SCORE.INTER.SOLV>
15.2383

>  <SCORE.INTER.VDW>
-26.5414

>  <SCORE.INTER.norm>
-0.733072

>  <SCORE.INTRA>
-0.254437

>  <SCORE.INTRA.DIHEDRAL>
0.647689

>  <SCORE.INTRA.DIHEDRAL.0>
10.4103

>  <SCORE.INTRA.POLAR>
0

>  <SCORE.INTRA.POLAR.0>
0

>  <SCORE.INTRA.REPUL>
0

>  <SCORE.INTRA.REPUL.0>
0

>  <SCORE.INTRA.SOLV>
-0.396153

>  <SCORE.INTRA.SOLV.lig_0>
-49.5008

>  <SCORE.INTRA.VDW>
-0.380205

>  <SCORE.INTRA.VDW.0>
-2.6946

>  <SCORE.INTRA.norm>
-0.00942361

>  <SCORE.RESTR>
0

>  <SCORE.RESTR.CAVITY>
0

>  <SCORE.RESTR.norm>
0

>  <SCORE.SYSTEM>
0

>  <SCORE.SYSTEM.CONST>
0

>  <SCORE.SYSTEM.DIHEDRAL>
0

>  <SCORE.SYSTEM.SOLV>
0

>  <SCORE.SYSTEM.norm>
0

>  <SCORE.heavy>
27

>  <SCORE.norm>
-0.742495

>  <RMSD>
16.804

$$$$
ligand
 OpenBabel02271912153D
libRbt.so/2013.1/901 2013/11/27
 27 29  0  0  0  0  0  0  0  0999 V2000
    3.6416  -16.2777    9.9895 N   0  0  0  0  0  0  0  0  0  0  0  0
    4.5186  -17.4331    9.9772 C   0  0  2  0  0  0  0  0  0  0  0  0
    5.0870  -17.5755   11.3555 C   0  0  0  0  0  0  0  0  0  0  0  0
    4.8315  -18.6045   12.0173 O   0  0  0  0  0  0  0  0  0  0  0  0
    5.6430  -17.2407    8.9560 C   0  0  0  0  0  0  0  0  0  0  0  0
    5.1684  -17.5713    7.5235 C   0  0  0  0  0  0  0  0  0  0  0  0
    4.8794  -19.1948    7.2137 S   0  0  2  0  0  0  0  0  0  0  0  0
    6.3262  -19.9795    6.9913 C   0  0  0  0  0  0  0  0  0  0  0  0
    3.9003  -19.3488    5.8476 C   0  0  0  0  0  0  0  0  0  0  0  0
    3.3865  -20.7830    5.6005 C   0  0  1  0  0  0  0  0  0  0  0  0
    2.8014  -21.3837    6.7679 O   0  0  0  0  0  0  0  0  0  0  0  0
    2.2430  -20.8556    4.6016 C   0  0  1  0  0  0  0  0  0  0  0  0
    2.5696  -20.6929    3.2067 O   0  0  0  0  0  0  0  0  0  0  0  0
    1.6672  -22.2085    4.9397 C   0  0  1  0  0  0  0  0  0  0  0  0
    2.5406  -23.2387    4.4872 O   0  0  0  0  0  0  0  0  0  0  0  0
    1.6697  -22.1931    6.4397 C   0  0  2  0  0  0  0  0  0  0  0  0
    5.8339  -16.6756   11.8089 O   0  0  0  0  0  0  0  0  0  0  0  0
   -2.1052  -18.4522    6.6168 N   0  0  0  0  0  0  0  0  0  0  0  0
   -0.9844  -18.4986    5.8565 C   0  0  0  0  0  0  0  0  0  0  0  0
   -0.1042  -19.5118    5.9195 N   0  0  0  0  0  0  0  0  0  0  0  0
   -0.2905  -20.5600    6.7295 C   0  0  0  0  0  0  0  0  0  0  0  0
   -1.4882  -20.5794    7.5556 C   0  0  0  0  0  0  0  0  0  0  0  0
   -2.4440  -19.4495    7.4928 C   0  0  0  0  0  0  0  0  0  0  0  0
   -3.5929  -19.4094    8.2552 N   0  0  0  0  0  0  0  0  0  0  0  0
   -1.4357  -21.7034    8.2336 N   0  0  0  0  0  0  0  0  0  0  0  0
   -0.3101  -22.3543    7.9090 C   0  0  0  0  0  0  0  0  0  0  0  0
    0.3839  -21.6733    6.9979 N   0  0  0  0  0  0  0  0  0  0  0  0
  2  1  1  1  0  0  0
  2  3  1  0  0  0  0
  2  5  1  0  0  0  0
  3  4  1  0  0  0  0
  3 17  1  0  0  0  0
  5  6  1  0  0  0  0
  7  6  1  6  0  0  0
  7  8  1  0  0  0  0
  7  9  1  0  0  0  0
 10  9  1  1  0  0  0
 10 11  1  0  0  0  0
 10 12  1  0  0  0  0
 11 16  1  0  0  0  0
 12 13  1  6  0  0  0
 12 14  1  0  0  0  0
 14 15  1  1  0  0  0
 14 16  1  0  0  0  0
 16 27  1  6  0  0  0
 18 19  2  0  0  0  0
 18 23  1  0  0  0  0
 19 20  1  0  0  0  0
 20 21  2  0  0  0  0
 21 22  1  0  0  0  0
 21 27  1  0  0  0  0
 22 23  2  0  0  0  0
 22 25  1  0  0  0  0
 23 24  1  0  0  0  0
 25 26  2  0  0  0  0
 26 27  1  0  0  0  0
M  END
>  <CHROM.1>
117.33247088,-81.07283663,-70.31921168,-77.41675876,-170.77595711,49.63294265
65.71063687,2.25559214,-19.72662371,7.37959579,0.66835578,0.08892214,0.95699580

>  <Name>
ligand

>  <RI>
0

>  <Rbt.Current_Directory>
/home/itssahil/PROJECTS/Mol_Feturizer/Test_systems_manuscript/rnas/4kqy

>  <Rbt.Executable>
rbdock ($Id: //depot/dev/client3/rdock/2013.1/src/exe/rbdock.cxx#4 $)

>  <Rbt.Library>
libRbt.so (2013.1, Build901 2013/11/27)

>  <Rbt.Parameter_File>
/export/apps/rDock/src/rDock_2013.1_src/data/scripts/dock_solv.prm

>  <Rbt.Receptor>
prm/blind_docking_100.prm

>  <SCORE>
-20.3514

>  <SCORE.INTER>
-18.1308

>  <SCORE.INTER.CONST>
1

>  <SCORE.INTER.POLAR>
0

>  <SCORE.INTER.ROT>
7

>  <SCORE.INTER.SOLV>
21.0512

>  <SCORE.INTER.VDW>
-27.3709

>  <SCORE.INTER.norm>
-0.671511

>  <SCORE.INTRA>
-2.22065

>  <SCORE.INTRA.DIHEDRAL>
-4.0795

>  <SCORE.INTRA.DIHEDRAL.0>
10.4103

>  <SCORE.INTRA.POLAR>
0

>  <SCORE.INTRA.POLAR.0>
0

>  <SCORE.INTRA.REPUL>
0

>  <SCORE.INTRA.REPUL.0>
0

>  <SCORE.INTRA.SOLV>
0.222591

>  <SCORE.INTRA.SOLV.lig_0>
-49.5008

>  <SCORE.INTRA.VDW>
-0.292199

>  <SCORE.INTRA.VDW.0>
-2.6946

>  <SCORE.INTRA.norm>
-0.0822463

>  <SCORE.RESTR>
0

>  <SCORE.RESTR.CAVITY>
0

>  <SCORE.RESTR.norm>
0

>  <SCORE.SYSTEM>
0

>  <SCORE.SYSTEM.CONST>
0

>  <SCORE.SYSTEM.DIHEDRAL>
0

>  <SCORE.SYSTEM.SOLV>
0

>  <SCORE.SYSTEM.norm>
0

>  <SCORE.heavy>
27

>  <SCORE.norm>
-0.753757

>  <RMSD>
16.847

$$$$
ligand
 OpenBabel02271912153D
libRbt.so/2013.1/901 2013/11/27
 27 29  0  0  0  0  0  0  0  0999 V2000
   11.3430   -5.4800    4.6832 N   0  0  0  0  0  0  0  0  0  0  0  0
   11.8454   -6.3816    5.7025 C   0  0  2  0  0  0  0  0  0  0  0  0
   13.3091   -6.1053    5.8593 C   0  0  0  0  0  0  0  0  0  0  0  0
   13.9826   -6.8108    6.6408 O   0  0  0  0  0  0  0  0  0  0  0  0
   11.6212   -7.8379    5.2865 C   0  0  0  0  0  0  0  0  0  0  0  0
   11.8018   -8.8012    6.4806 C   0  0  0  0  0  0  0  0  0  0  0  0
   10.6091   -8.7254    7.6583 S   0  0  2  0  0  0  0  0  0  0  0  0
   11.1924   -9.3659    9.0754 C   0  0  0  0  0  0  0  0  0  0  0  0
    9.2419   -9.5685    7.1401 C   0  0  0  0  0  0  0  0  0  0  0  0
    7.9193   -9.0569    7.7489 C   0  0  1  0  0  0  0  0  0  0  0  0
    6.7875   -9.8776    7.4151 O   0  0  0  0  0  0  0  0  0  0  0  0
    7.8962   -9.0905    9.2685 C   0  0  1  0  0  0  0  0  0  0  0  0
    8.6510   -8.0791    9.9657 O   0  0  0  0  0  0  0  0  0  0  0  0
    6.4104   -9.0269    9.5230 C   0  0  1  0  0  0  0  0  0  0  0  0
    5.9202   -7.7211    9.2338 O   0  0  0  0  0  0  0  0  0  0  0  0
    5.8686   -9.9860    8.5048 C   0  0  2  0  0  0  0  0  0  0  0  0
   13.8389   -5.1929    5.1811 O   0  0  0  0  0  0  0  0  0  0  0  0
    2.9401  -13.8542   10.6813 N   0  0  0  0  0  0  0  0  0  0  0  0
    2.5655  -12.6055   10.3109 C   0  0  0  0  0  0  0  0  0  0  0  0
    3.4206  -11.7189    9.7741 N   0  0  0  0  0  0  0  0  0  0  0  0
    4.7040  -12.0222    9.5494 C   0  0  0  0  0  0  0  0  0  0  0  0
    5.1621  -13.3566    9.9055 C   0  0  0  0  0  0  0  0  0  0  0  0
    4.2168  -14.3216   10.5133 C   0  0  0  0  0  0  0  0  0  0  0  0
    4.5940  -15.5978   10.8762 N   0  0  0  0  0  0  0  0  0  0  0  0
    6.4331  -13.3973    9.5754 N   0  0  0  0  0  0  0  0  0  0  0  0
    6.7894  -12.2075    9.0721 C   0  0  0  0  0  0  0  0  0  0  0  0
    5.7502  -11.3738    9.0481 N   0  0  0  0  0  0  0  0  0  0  0  0
  2  1  1  6  0  0  0
  2  3  1  0  0  0  0
  2  5  1  0  0  0  0
  3  4  1  0  0  0  0
  3 17  1  0  0  0  0
  5  6  1  0  0  0  0
  7  6  1  6  0  0  0
  7  8  1  0  0  0  0
  7  9  1  0  0  0  0
 10  9  1  6  0  0  0
 10 11  1  0  0  0  0
 10 12  1  0  0  0  0
 11 16  1  0  0  0  0
 12 13  1  1  0  0  0
 12 14  1  0  0  0  0
 14 15  1  6  0  0  0
 14 16  1  0  0  0  0
 16 27  1  1  0  0  0
 18 19  2  0  0  0  0
 18 23  1  0  0  0  0
 19 20  1  0  0  0  0
 20 21  2  0  0  0  0
 21 22  1  0  0  0  0
 21 27  1  0  0  0  0
 22 23  2  0  0  0  0
 22 25  1  0  0  0  0
 23 24  1  0  0  0  0
 25 26  2  0  0  0  0
 26 27  1  0  0  0  0
M  END
>  <CHROM.1>
-176.40472624,-165.27544367,69.98179564,-159.63881716,-152.64645673,-173.43705777
-145.17451626,8.19153127,-9.75090645,8.25125476,0.70211122,0.26596214,-0.26832745

>  <Name>
ligand

>  <RI>
0

>  <Rbt.Current_Directory>
/home/itssahil/PROJECTS/Mol_Feturizer/Test_systems_manuscript/rnas/4kqy

>  <Rbt.Executable>
rbdock ($Id: //depot/dev/client3/rdock/2013.1/src/exe/rbdock.cxx#4 $)

>  <Rbt.Library>
libRbt.so (2013.1, Build901 2013/11/27)

>  <Rbt.Parameter_File>
/export/apps/rDock/src/rDock_2013.1_src/data/scripts/dock_solv.prm

>  <Rbt.Receptor>
prm/blind_docking_20.prm

>  <SCORE>
-13.9826

>  <SCORE.INTER>
-13.2563

>  <SCORE.INTER.CONST>
1

>  <SCORE.INTER.POLAR>
0

>  <SCORE.INTER.ROT>
7

>  <SCORE.INTER.SOLV>
9.88094

>  <SCORE.INTER.VDW>
-20.3978

>  <SCORE.INTER.norm>
-0.490973

>  <SCORE.INTRA>
-0.726361

>  <SCORE.INTRA.DIHEDRAL>
-3.13703

>  <SCORE.INTRA.DIHEDRAL.0>
10.4103

>  <SCORE.INTRA.POLAR>
0

>  <SCORE.INTRA.POLAR.0>
0

>  <SCORE.INTRA.REPUL>
0

>  <SCORE.INTRA.REPUL.0>
0

>  <SCORE.INTRA.SOLV>
-0.0918408

>  <SCORE.INTRA.SOLV.lig_0>
-49.5008

>  <SCORE.INTRA.VDW>
0.888075

>  <SCORE.INTRA.VDW.0>
-2.6946

>  <SCORE.INTRA.norm>
-0.0269023

>  <SCORE.RESTR>
0

>  <SCORE.RESTR.CAVITY>
0

>  <SCORE.RESTR.norm>
0

>  <SCORE.SYSTEM>
0

>  <SCORE.SYSTEM.CONST>
0

>  <SCORE.SYSTEM.DIHEDRAL>
0

>  <SCORE.SYSTEM.SOLV>
0

>  <SCORE.SYSTEM.norm>
0

>  <SCORE.heavy>
27

>  <SCORE.norm>
-0.517875

>  <RMSD>
16.888

$$$$
ligand
 OpenBabel02271912153D
libRbt.so/2013.1/901 2013/11/27
 27 29  0  0  0  0  0  0  0  0999 V2000
    0.8950  -11.7066   10.4255 N   0  0  0  0  0  0  0  0  0  0  0  0
    2.2241  -11.1344   10.5268 C   0  0  2  0  0  0  0  0  0  0  0  0
    2.2431  -10.2654   11.7464 C   0  0  0  0  0  0  0  0  0  0  0  0
    3.2161  -10.3325   12.5281 O   0  0  0  0  0  0  0  0  0  0  0  0
    2.5470  -10.3070    9.2797 C   0  0  0  0  0  0  0  0  0  0  0  0
    3.9958   -9.7720    9.3157 C   0  0  0  0  0  0  0  0  0  0  0  0
    4.4783   -8.8984    7.9669 S   0  0  2  0  0  0  0  0  0  0  0  0
    4.5500   -9.9103    6.6517 C   0  0  0  0  0  0  0  0  0  0  0  0
    5.9815   -8.1875    8.2560 C   0  0  0  0  0  0  0  0  0  0  0  0
    7.1215   -9.2008    8.4918 C   0  0  1  0  0  0  0  0  0  0  0  0
    7.8412   -9.5326    7.2927 O   0  0  0  0  0  0  0  0  0  0  0  0
    8.2293   -8.6719    9.3885 C   0  0  1  0  0  0  0  0  0  0  0  0
    7.9573   -8.5930   10.8022 O   0  0  0  0  0  0  0  0  0  0  0  0
    9.3473   -9.6210    9.0342 C   0  0  1  0  0  0  0  0  0  0  0  0
    9.0892  -10.9085    9.5862 O   0  0  0  0  0  0  0  0  0  0  0  0
    9.2389   -9.7019    7.5403 C   0  0  2  0  0  0  0  0  0  0  0  0
    1.2990   -9.4640   11.9455 O   0  0  0  0  0  0  0  0  0  0  0  0
   10.2257   -4.6415    6.2384 N   0  0  0  0  0  0  0  0  0  0  0  0
    9.2019   -5.1520    6.9649 C   0  0  0  0  0  0  0  0  0  0  0  0
    9.0707   -6.4659    7.2134 N   0  0  0  0  0  0  0  0  0  0  0  0
    9.9622   -7.3606    6.7730 C   0  0  0  0  0  0  0  0  0  0  0  0
   11.0974   -6.8715    6.0051 C   0  0  0  0  0  0  0  0  0  0  0  0
   11.2245   -5.4233    5.7207 C   0  0  0  0  0  0  0  0  0  0  0  0
   12.2748   -4.9016    4.9944 N   0  0  0  0  0  0  0  0  0  0  0  0
   11.8135   -7.9330    5.7115 N   0  0  0  0  0  0  0  0  0  0  0  0
   11.2074   -9.0180    6.2128 C   0  0  0  0  0  0  0  0  0  0  0  0
   10.0923   -8.6805    6.8594 N   0  0  0  0  0  0  0  0  0  0  0  0
  2  1  1  6  0  0  0
  2  3  1  0  0  0  0
  2  5  1  0  0  0  0
  3  4  1  0  0  0  0
  3 17  1  0  0  0  0
  5  6  1  0  0  0  0
  7  6  1  1  0  0  0
  7  8  1  0  0  0  0
  7  9  1  0  0  0  0
 10  9  1  6  0  0  0
 10 11  1  0  0  0  0
 10 12  1  0  0  0  0
 11 16  1  0  0  0  0
 12 13  1  1  0  0  0
 12 14  1  0  0  0  0
 14 15  1  1  0  0  0
 14 16  1  0  0  0  0
 16 27  1  6  0  0  0
 18 19  2  0  0  0  0
 18 23  1  0  0  0  0
 19 20  1  0  0  0  0
 20 21  2  0  0  0  0
 21 22  1  0  0  0  0
 21 27  1  0  0  0  0
 22 23  2  0  0  0  0
 22 25  1  0  0  0  0
 23 24  1  0  0  0  0
 25 26  2  0  0  0  0
 26 27  1  0  0  0  0
M  END
>  <CHROM.1>
135.13863478,-175.82254688,177.73379364,-67.03490940,63.02650855,93.09303369
45.84062531,7.04525432,-8.68840231,8.33600656,2.56433877,-0.14181087,2.47751378

>  <Name>
ligand

>  <RI>
0

>  <Rbt.Current_Directory>
/home/itssahil/PROJECTS/Mol_Feturizer/Test_systems_manuscript/rnas/4kqy

>  <Rbt.Executable>
rbdock ($Id: //depot/dev/client3/rdock/2013.1/src/exe/rbdock.cxx#4 $)

>  <Rbt.Library>
libRbt.so (2013.1, Build901 2013/11/27)

>  <Rbt.Parameter_File>
/export/apps/rDock/src/rDock_2013.1_src/data/scripts/dock_solv.prm

>  <Rbt.Receptor>
prm/blind_docking_20.prm

>  <SCORE>
-12.0456

>  <SCORE.INTER>
-9.38619

>  <SCORE.INTER.CONST>
1

>  <SCORE.INTER.POLAR>
0

>  <SCORE.INTER.ROT>
7

>  <SCORE.INTER.SOLV>
9.41899

>  <SCORE.INTER.VDW>
-17.6638

>  <SCORE.INTER.norm>
-0.347637

>  <SCORE.INTRA>
-2.65938

>  <SCORE.INTRA.DIHEDRAL>
-4.4288

>  <SCORE.INTRA.DIHEDRAL.0>
10.4103

>  <SCORE.INTRA.POLAR>
0

>  <SCORE.INTRA.POLAR.0>
0

>  <SCORE.INTRA.REPUL>
0

>  <SCORE.INTRA.REPUL.0>
0

>  <SCORE.INTRA.SOLV>
-0.585834

>  <SCORE.INTRA.SOLV.lig_0>
-49.5008

>  <SCORE.INTRA.VDW>
-0.152069

>  <SCORE.INTRA.VDW.0>
-2.6946

>  <SCORE.INTRA.norm>
-0.0984957

>  <SCORE.RESTR>
0

>  <SCORE.RESTR.CAVITY>
0

>  <SCORE.RESTR.norm>
0

>  <SCORE.SYSTEM>
0

>  <SCORE.SYSTEM.CONST>
0

>  <SCORE.SYSTEM.DIHEDRAL>
0

>  <SCORE.SYSTEM.SOLV>
0

>  <SCORE.SYSTEM.norm>
0

>  <SCORE.heavy>
27

>  <SCORE.norm>
-0.446132

>  <RMSD>
16.893

$$$$
ligand
 OpenBabel02271912153D
libRbt.so/2013.1/901 2013/11/27
 27 29  0  0  0  0  0  0  0  0999 V2000
    0.6828  -14.9880   12.6608 N   0  0  0  0  0  0  0  0  0  0  0  0
    2.0393  -15.4106   12.9534 C   0  0  2  0  0  0  0  0  0  0  0  0
    2.7616  -14.2276   13.5207 C   0  0  0  0  0  0  0  0  0  0  0  0
    2.1006  -13.2562   13.9471 O   0  0  0  0  0  0  0  0  0  0  0  0
    2.7349  -15.8971   11.6792 C   0  0  0  0  0  0  0  0  0  0  0  0
    4.0766  -16.5933   11.9982 C   0  0  0  0  0  0  0  0  0  0  0  0
    5.1065  -16.8125   10.6919 S   0  0  2  0  0  0  0  0  0  0  0  0
    5.2114  -15.3971    9.8292 C   0  0  0  0  0  0  0  0  0  0  0  0
    4.5322  -18.0648    9.7171 C   0  0  0  0  0  0  0  0  0  0  0  0
    5.5728  -18.6110    8.7168 C   0  0  1  0  0  0  0  0  0  0  0  0
    5.4650  -20.0286    8.5052 O   0  0  0  0  0  0  0  0  0  0  0  0
    5.4045  -18.0679    7.3070 C   0  0  1  0  0  0  0  0  0  0  0  0
    5.8285  -16.7115    7.0639 O   0  0  0  0  0  0  0  0  0  0  0  0
    6.1762  -19.0986    6.5206 C   0  0  1  0  0  0  0  0  0  0  0  0
    7.5735  -18.9423    6.7487 O   0  0  0  0  0  0  0  0  0  0  0  0
    5.7226  -20.3849    7.1449 C   0  0  2  0  0  0  0  0  0  0  0  0
    4.0140  -14.2452   13.5869 O   0  0  0  0  0  0  0  0  0  0  0  0
    1.6110  -23.7554    7.0455 N   0  0  0  0  0  0  0  0  0  0  0  0
    2.5323  -23.5614    8.0202 C   0  0  0  0  0  0  0  0  0  0  0  0
    3.5330  -22.6718    7.9083 N   0  0  0  0  0  0  0  0  0  0  0  0
    3.6729  -21.8983    6.8259 C   0  0  0  0  0  0  0  0  0  0  0  0
    2.7007  -22.0440    5.7531 C   0  0  0  0  0  0  0  0  0  0  0  0
    1.6112  -23.0399    5.8773 C   0  0  0  0  0  0  0  0  0  0  0  0
    0.6641  -23.2267    4.8920 N   0  0  0  0  0  0  0  0  0  0  0  0
    3.0523  -21.1751    4.8326 N   0  0  0  0  0  0  0  0  0  0  0  0
    4.1558  -20.5331    5.2403 C   0  0  0  0  0  0  0  0  0  0  0  0
    4.5336  -20.9601    6.4446 N   0  0  0  0  0  0  0  0  0  0  0  0
  2  1  1  6  0  0  0
  2  3  1  0  0  0  0
  2  5  1  0  0  0  0
  3  4  1  0  0  0  0
  3 17  1  0  0  0  0
  5  6  1  0  0  0  0
  7  6  1  1  0  0  0
  7  8  1  0  0  0  0
  7  9  1  0  0  0  0
 10  9  1  1  0  0  0
 10 11  1  0  0  0  0
 10 12  1  0  0  0  0
 11 16  1  0  0  0  0
 12 13  1  1  0  0  0
 12 14  1  0  0  0  0
 14 15  1  1  0  0  0
 14 16  1  0  0  0  0
 16 27  1  6  0  0  0
 18 19  2  0  0  0  0
 18 23  1  0  0  0  0
 19 20  1  0  0  0  0
 20 21  2  0  0  0  0
 21 22  1  0  0  0  0
 21 27  1  0  0  0  0
 22 23  2  0  0  0  0
 22 25  1  0  0  0  0
 23 24  1  0  0  0  0
 25 26  2  0  0  0  0
 26 27  1  0  0  0  0
M  END
>  <CHROM.1>
16.94792328,-169.43736824,-164.86387702,47.08338223,-164.21474169,144.32479240
-47.07689818,3.92399376,-18.65768103,8.88472899,1.57631145,0.46274694,0.72656709

>  <Name>
ligand

>  <RI>
0

>  <Rbt.Current_Directory>
/home/itssahil/PROJECTS/Mol_Feturizer/Test_systems_manuscript/rnas/4kqy

>  <Rbt.Executable>
rbdock ($Id: //depot/dev/client3/rdock/2013.1/src/exe/rbdock.cxx#4 $)

>  <Rbt.Library>
libRbt.so (2013.1, Build901 2013/11/27)

>  <Rbt.Parameter_File>
/export/apps/rDock/src/rDock_2013.1_src/data/scripts/dock_solv.prm

>  <Rbt.Receptor>
prm/blind_docking_100.prm

>  <SCORE>
-14.1641

>  <SCORE.INTER>
-15.4621

>  <SCORE.INTER.CONST>
1

>  <SCORE.INTER.POLAR>
0

>  <SCORE.INTER.ROT>
7

>  <SCORE.INTER.SOLV>
15.8767

>  <SCORE.INTER.VDW>
-23.867

>  <SCORE.INTER.norm>
-0.572671

>  <SCORE.INTRA>
1.29802

>  <SCORE.INTRA.DIHEDRAL>
-1.81479

>  <SCORE.INTRA.DIHEDRAL.0>
10.4103

>  <SCORE.INTRA.POLAR>
0

>  <SCORE.INTRA.POLAR.0>
0

>  <SCORE.INTRA.REPUL>
0

>  <SCORE.INTRA.REPUL.0>
0

>  <SCORE.INTRA.SOLV>
-0.411552

>  <SCORE.INTRA.SOLV.lig_0>
-49.5008

>  <SCORE.INTRA.VDW>
2.41119

>  <SCORE.INTRA.VDW.0>
-2.6946

>  <SCORE.INTRA.norm>
0.0480749

>  <SCORE.RESTR>
0

>  <SCORE.RESTR.CAVITY>
0

>  <SCORE.RESTR.norm>
0

>  <SCORE.SYSTEM>
0

>  <SCORE.SYSTEM.CONST>
0

>  <SCORE.SYSTEM.DIHEDRAL>
0

>  <SCORE.SYSTEM.SOLV>
0

>  <SCORE.SYSTEM.norm>
0

>  <SCORE.heavy>
27

>  <SCORE.norm>
-0.524596

>  <RMSD>
16.940

$$$$
ligand
 OpenBabel02271912153D
libRbt.so/2013.1/901 2013/11/27
 27 29  0  0  0  0  0  0  0  0999 V2000
    2.1578   -8.4236    9.3304 N   0  0  0  0  0  0  0  0  0  0  0  0
    2.3666   -9.8173    8.9869 C   0  0  2  0  0  0  0  0  0  0  0  0
    1.8268  -10.6400   10.1160 C   0  0  0  0  0  0  0  0  0  0  0  0
    1.9436  -10.2195   11.2872 O   0  0  0  0  0  0  0  0  0  0  0  0
    3.8578  -10.1018    8.7877 C   0  0  0  0  0  0  0  0  0  0  0  0
    4.4302   -9.3077    7.5926 C   0  0  0  0  0  0  0  0  0  0  0  0
    5.9634   -9.7652    7.0875 S   0  0  2  0  0  0  0  0  0  0  0  0
    5.9255  -11.3435    6.5715 C   0  0  0  0  0  0  0  0  0  0  0  0
    7.0609   -9.5779    8.3560 C   0  0  0  0  0  0  0  0  0  0  0  0
    8.5193   -9.3626    7.8992 C   0  0  1  0  0  0  0  0  0  0  0  0
    8.6584   -8.3162    6.9237 O   0  0  0  0  0  0  0  0  0  0  0  0
    9.4398   -8.8830    9.0098 C   0  0  1  0  0  0  0  0  0  0  0  0
    9.8525   -9.8524    9.9940 O   0  0  0  0  0  0  0  0  0  0  0  0
   10.5778   -8.3148    8.1984 C   0  0  1  0  0  0  0  0  0  0  0  0
   11.3299   -9.3693    7.6055 O   0  0  0  0  0  0  0  0  0  0  0  0
    9.8583   -7.5637    7.1176 C   0  0  2  0  0  0  0  0  0  0  0  0
    1.2400  -11.7197    9.8648 O   0  0  0  0  0  0  0  0  0  0  0  0
   11.5097   -2.5169    7.3994 N   0  0  0  0  0  0  0  0  0  0  0  0
   12.1612   -3.6026    6.9163 C   0  0  0  0  0  0  0  0  0  0  0  0
   11.6215   -4.8331    6.9135 N   0  0  0  0  0  0  0  0  0  0  0  0
   10.3864   -5.0638    7.3726 C   0  0  0  0  0  0  0  0  0  0  0  0
    9.6267   -3.9332    7.8844 C   0  0  0  0  0  0  0  0  0  0  0  0
   10.2363   -2.5833    7.9002 C   0  0  0  0  0  0  0  0  0  0  0  0
    9.5675   -1.4753    8.3777 N   0  0  0  0  0  0  0  0  0  0  0  0
    8.4640   -4.4220    8.2524 N   0  0  0  0  0  0  0  0  0  0  0  0
    8.4581   -5.7434    8.0290 C   0  0  0  0  0  0  0  0  0  0  0  0
    9.6127   -6.1376    7.4932 N   0  0  0  0  0  0  0  0  0  0  0  0
  2  1  1  1  0  0  0
  2  3  1  0  0  0  0
  2  5  1  0  0  0  0
  3  4  1  0  0  0  0
  3 17  1  0  0  0  0
  5  6  1  0  0  0  0
  7  6  1  1  0  0  0
  7  8  1  0  0  0  0
  7  9  1  0  0  0  0
 10  9  1  1  0  0  0
 10 11  1  0  0  0  0
 10 12  1  0  0  0  0
 11 16  1  0  0  0  0
 12 13  1  1  0  0  0
 12 14  1  0  0  0  0
 14 15  1  6  0  0  0
 14 16  1  0  0  0  0
 16 27  1  1  0  0  0
 18 19  2  0  0  0  0
 18 23  1  0  0  0  0
 19 20  1  0  0  0  0
 20 21  2  0  0  0  0
 21 22  1  0  0  0  0
 21 27  1  0  0  0  0
 22 23  2  0  0  0  0
 22 25  1  0  0  0  0
 23 24  1  0  0  0  0
 25 26  2  0  0  0  0
 26 27  1  0  0  0  0
M  END
>  <CHROM.1>
-35.69341381,-63.77389861,-168.22856091,61.99500211,-154.67172328,51.11946292
-157.39988732,7.50297784,-7.74270226,8.16787104,2.50000394,-0.24906913,-3.08069912

>  <Name>
ligand

>  <RI>
0

>  <Rbt.Current_Directory>
/home/itssahil/PROJECTS/Mol_Feturizer/Test_systems_manuscript/rnas/4kqy

>  <Rbt.Executable>
rbdock ($Id: //depot/dev/client3/rdock/2013.1/src/exe/rbdock.cxx#4 $)

>  <Rbt.Library>
libRbt.so (2013.1, Build901 2013/11/27)

>  <Rbt.Parameter_File>
/export/apps/rDock/src/rDock_2013.1_src/data/scripts/dock_solv.prm

>  <Rbt.Receptor>
prm/blind_docking_100.prm

>  <SCORE>
-11.2965

>  <SCORE.INTER>
-9.39383

>  <SCORE.INTER.CONST>
1

>  <SCORE.INTER.POLAR>
0

>  <SCORE.INTER.ROT>
7

>  <SCORE.INTER.SOLV>
8.96615

>  <SCORE.INTER.VDW>
-17.5179

>  <SCORE.INTER.norm>
-0.34792

>  <SCORE.INTRA>
-1.90661

>  <SCORE.INTRA.DIHEDRAL>
-5.02522

>  <SCORE.INTRA.DIHEDRAL.0>
10.4103

>  <SCORE.INTRA.POLAR>
0

>  <SCORE.INTRA.POLAR.0>
0

>  <SCORE.INTRA.REPUL>
0

>  <SCORE.INTRA.REPUL.0>
0

>  <SCORE.INTRA.SOLV>
-0.00467315

>  <SCORE.INTRA.SOLV.lig_0>
-49.5008

>  <SCORE.INTRA.VDW>
0.608341

>  <SCORE.INTRA.VDW.0>
-2.6946

>  <SCORE.INTRA.norm>
-0.0706151

>  <SCORE.RESTR>
0.00396765

>  <SCORE.RESTR.CAVITY>
0.00396765

>  <SCORE.RESTR.norm>
0.00014695

>  <SCORE.SYSTEM>
0

>  <SCORE.SYSTEM.CONST>
0

>  <SCORE.SYSTEM.DIHEDRAL>
0

>  <SCORE.SYSTEM.SOLV>
0

>  <SCORE.SYSTEM.norm>
0

>  <SCORE.heavy>
27

>  <SCORE.norm>
-0.418388

>  <RMSD>
17.222

$$$$
ligand
 OpenBabel02271912153D
libRbt.so/2013.1/901 2013/11/27
 27 29  0  0  0  0  0  0  0  0999 V2000
   -0.6992  -23.5336    5.2551 N   0  0  0  0  0  0  0  0  0  0  0  0
    0.3317  -23.1024    6.1800 C   0  0  2  0  0  0  0  0  0  0  0  0
    0.4752  -24.1729    7.2175 C   0  0  0  0  0  0  0  0  0  0  0  0
    0.2620  -25.3628    6.8998 O   0  0  0  0  0  0  0  0  0  0  0  0
   -0.0590  -21.7754    6.8361 C   0  0  0  0  0  0  0  0  0  0  0  0
    0.1473  -20.5858    5.8724 C   0  0  0  0  0  0  0  0  0  0  0  0
    1.7358  -20.2853    5.4234 S   0  0  2  0  0  0  0  0  0  0  0  0
    2.0731  -21.0968    4.0140 C   0  0  0  0  0  0  0  0  0  0  0  0
    2.7789  -20.7728    6.6575 C   0  0  0  0  0  0  0  0  0  0  0  0
    4.2518  -20.3715    6.4312 C   0  0  1  0  0  0  0  0  0  0  0  0
    4.4501  -18.9487    6.3842 O   0  0  0  0  0  0  0  0  0  0  0  0
    5.1751  -20.7813    7.5672 C   0  0  1  0  0  0  0  0  0  0  0  0
    5.5311  -22.1752    7.6622 O   0  0  0  0  0  0  0  0  0  0  0  0
    6.3484  -19.8679    7.3118 C   0  0  1  0  0  0  0  0  0  0  0  0
    7.0637  -20.3012    6.1587 O   0  0  0  0  0  0  0  0  0  0  0  0
    5.6780  -18.5614    7.0055 C   0  0  2  0  0  0  0  0  0  0  0  0
    0.8370  -23.8610    8.3773 O   0  0  0  0  0  0  0  0  0  0  0  0
    4.2010  -18.1074   12.0936 N   0  0  0  0  0  0  0  0  0  0  0  0
    4.2008  -19.2055   11.2994 C   0  0  0  0  0  0  0  0  0  0  0  0
    4.5978  -19.1750   10.0161 N   0  0  0  0  0  0  0  0  0  0  0  0
    5.0427  -18.0522    9.4408 C   0  0  0  0  0  0  0  0  0  0  0  0
    5.0880  -16.8432   10.2492 C   0  0  0  0  0  0  0  0  0  0  0  0
    4.6316  -16.8820   11.6578 C   0  0  0  0  0  0  0  0  0  0  0  0
    4.6462  -15.7679   12.4710 N   0  0  0  0  0  0  0  0  0  0  0  0
    5.5673  -15.9061    9.4629 N   0  0  0  0  0  0  0  0  0  0  0  0
    5.7968  -16.4311    8.2515 C   0  0  0  0  0  0  0  0  0  0  0  0
    5.4878  -17.7271    8.2314 N   0  0  0  0  0  0  0  0  0  0  0  0
  2  1  1  6  0  0  0
  2  3  1  0  0  0  0
  2  5  1  0  0  0  0
  3  4  1  0  0  0  0
  3 17  1  0  0  0  0
  5  6  1  0  0  0  0
  7  6  1  1  0  0  0
  7  8  1  0  0  0  0
  7  9  1  0  0  0  0
 10  9  1  1  0  0  0
 10 11  1  0  0  0  0
 10 12  1  0  0  0  0
 11 16  1  0  0  0  0
 12 13  1  6  0  0  0
 12 14  1  0  0  0  0
 14 15  1  6  0  0  0
 14 16  1  0  0  0  0
 16 27  1  1  0  0  0
 18 19  2  0  0  0  0
 18 23  1  0  0  0  0
 19 20  1  0  0  0  0
 20 21  2  0  0  0  0
 21 22  1  0  0  0  0
 21 27  1  0  0  0  0
 22 23  2  0  0  0  0
 22 25  1  0  0  0  0
 23 24  1  0  0  0  0
 25 26  2  0  0  0  0
 26 27  1  0  0  0  0
M  END
>  <CHROM.1>
31.38870175,-76.61044017,-64.69931162,92.50357884,-172.27916754,62.69044827
71.71075869,3.42599817,-20.09440610,7.75284098,2.36792641,-0.66548142,-1.97366874

>  <Name>
ligand

>  <RI>
0

>  <Rbt.Current_Directory>
/home/itssahil/PROJECTS/Mol_Feturizer/Test_systems_manuscript/rnas/4kqy

>  <Rbt.Executable>
rbdock ($Id: //depot/dev/client3/rdock/2013.1/src/exe/rbdock.cxx#4 $)

>  <Rbt.Library>
libRbt.so (2013.1, Build901 2013/11/27)

>  <Rbt.Parameter_File>
/export/apps/rDock/src/rDock_2013.1_src/data/scripts/dock_solv.prm

>  <Rbt.Receptor>
prm/blind_docking_60.prm

>  <SCORE>
-20.1541

>  <SCORE.INTER>
-19.8928

>  <SCORE.INTER.CONST>
1

>  <SCORE.INTER.POLAR>
0

>  <SCORE.INTER.ROT>
7

>  <SCORE.INTER.SOLV>
13.4578

>  <SCORE.INTER.VDW>
-26.0145

>  <SCORE.INTER.norm>
-0.736769

>  <SCORE.INTRA>
-0.261364

>  <SCORE.INTRA.DIHEDRAL>
-3.83347

>  <SCORE.INTRA.DIHEDRAL.0>
10.4103

>  <SCORE.INTRA.POLAR>
0

>  <SCORE.INTRA.POLAR.0>
0

>  <SCORE.INTRA.REPUL>
0

>  <SCORE.INTRA.REPUL.0>
0

>  <SCORE.INTRA.SOLV>
1.05695

>  <SCORE.INTRA.SOLV.lig_0>
-49.5008

>  <SCORE.INTRA.VDW>
1.1269

>  <SCORE.INTRA.VDW.0>
-2.6946

>  <SCORE.INTRA.norm>
-0.00968015

>  <SCORE.RESTR>
0

>  <SCORE.RESTR.CAVITY>
0

>  <SCORE.RESTR.norm>
0

>  <SCORE.SYSTEM>
0

>  <SCORE.SYSTEM.CONST>
0

>  <SCORE.SYSTEM.DIHEDRAL>
0

>  <SCORE.SYSTEM.SOLV>
0

>  <SCORE.SYSTEM.norm>
0

>  <SCORE.heavy>
27

>  <SCORE.norm>
-0.746449

>  <RMSD>
17.232

$$$$
ligand
 OpenBabel02271912153D
libRbt.so/2013.1/901 2013/11/27
 27 29  0  0  0  0  0  0  0  0999 V2000
    4.4622  -12.0841   11.8026 N   0  0  0  0  0  0  0  0  0  0  0  0
    4.0678  -12.1812   10.4100 C   0  0  2  0  0  0  0  0  0  0  0  0
    2.9381  -13.1616   10.3345 C   0  0  0  0  0  0  0  0  0  0  0  0
    3.1556  -14.3642   10.5965 O   0  0  0  0  0  0  0  0  0  0  0  0
    5.2435  -12.6581    9.5529 C   0  0  0  0  0  0  0  0  0  0  0  0
    6.3806  -11.6129    9.5212 C   0  0  0  0  0  0  0  0  0  0  0  0
    6.0125  -10.1661    8.7554 S   0  0  2  0  0  0  0  0  0  0  0  0
    6.0310  -10.3932    7.1102 C   0  0  0  0  0  0  0  0  0  0  0  0
    7.1271   -8.9822    9.2074 C   0  0  0  0  0  0  0  0  0  0  0  0
    8.6006   -9.4028    9.0238 C   0  0  1  0  0  0  0  0  0  0  0  0
    8.9639   -9.6071    7.6482 O   0  0  0  0  0  0  0  0  0  0  0  0
    9.5954   -8.3385    9.4580 C   0  0  1  0  0  0  0  0  0  0  0  0
    9.7877   -8.1490   10.8743 O   0  0  0  0  0  0  0  0  0  0  0  0
   10.8326   -8.8048    8.7313 C   0  0  1  0  0  0  0  0  0  0  0  0
   11.3477   -9.9812    9.3477 O   0  0  0  0  0  0  0  0  0  0  0  0
   10.2948   -9.1612    7.3771 C   0  0  2  0  0  0  0  0  0  0  0  0
    1.7887  -12.7543   10.0408 O   0  0  0  0  0  0  0  0  0  0  0  0
    8.6345   -4.3419    5.8628 N   0  0  0  0  0  0  0  0  0  0  0  0
    8.2456   -5.0828    6.9288 C   0  0  0  0  0  0  0  0  0  0  0  0
    8.7485   -6.3010    7.1902 N   0  0  0  0  0  0  0  0  0  0  0  0
    9.6897   -6.8570    6.4191 C   0  0  0  0  0  0  0  0  0  0  0  0
   10.1653   -6.1005    5.2707 C   0  0  0  0  0  0  0  0  0  0  0  0
    9.5923   -4.7659    4.9799 C   0  0  0  0  0  0  0  0  0  0  0  0
    9.9991   -4.0049    3.9037 N   0  0  0  0  0  0  0  0  0  0  0  0
   11.0796   -6.8531    4.7016 N   0  0  0  0  0  0  0  0  0  0  0  0
   11.1863   -7.9998    5.3869 C   0  0  0  0  0  0  0  0  0  0  0  0
   10.3547   -8.0077    6.4280 N   0  0  0  0  0  0  0  0  0  0  0  0
  2  1  1  1  0  0  0
  2  3  1  0  0  0  0
  2  5  1  0  0  0  0
  3  4  1  0  0  0  0
  3 17  1  0  0  0  0
  5  6  1  0  0  0  0
  7  6  1  1  0  0  0
  7  8  1  0  0  0  0
  7  9  1  0  0  0  0
 10  9  1  6  0  0  0
 10 11  1  0  0  0  0
 10 12  1  0  0  0  0
 11 16  1  0  0  0  0
 12 13  1  1  0  0  0
 12 14  1  0  0  0  0
 14 15  1  1  0  0  0
 14 16  1  0  0  0  0
 16 27  1  6  0  0  0
 18 19  2  0  0  0  0
 18 23  1  0  0  0  0
 19 20  1  0  0  0  0
 20 21  2  0  0  0  0
 21 22  1  0  0  0  0
 21 27  1  0  0  0  0
 22 23  2  0  0  0  0
 22 25  1  0  0  0  0
 23 24  1  0  0  0  0
 25 26  2  0  0  0  0
 26 27  1  0  0  0  0
M  END
>  <CHROM.1>
-66.73154389,-66.07139645,-66.16072600,-75.91975337,52.11561864,65.38390693
49.20311196,7.78914928,-9.12053213,8.13895935,-2.25440024,-0.17910383,-0.73626295

>  <Name>
ligand

>  <RI>
0

>  <Rbt.Current_Directory>
/home/itssahil/PROJECTS/Mol_Feturizer/Test_systems_manuscript/rnas/4kqy

>  <Rbt.Executable>
rbdock ($Id: //depot/dev/client3/rdock/2013.1/src/exe/rbdock.cxx#4 $)

>  <Rbt.Library>
libRbt.so (2013.1, Build901 2013/11/27)

>  <Rbt.Parameter_File>
/export/apps/rDock/src/rDock_2013.1_src/data/scripts/dock_solv.prm

>  <Rbt.Receptor>
prm/blind_docking_40.prm

>  <SCORE>
-11.9205

>  <SCORE.INTER>
-8.80488

>  <SCORE.INTER.CONST>
1

>  <SCORE.INTER.POLAR>
0

>  <SCORE.INTER.ROT>
7

>  <SCORE.INTER.SOLV>
7.37688

>  <SCORE.INTER.VDW>
-16.5955

>  <SCORE.INTER.norm>
-0.326107

>  <SCORE.INTRA>
-3.11562

>  <SCORE.INTRA.DIHEDRAL>
-6.27781

>  <SCORE.INTRA.DIHEDRAL.0>
10.4103

>  <SCORE.INTRA.POLAR>
0

>  <SCORE.INTRA.POLAR.0>
0

>  <SCORE.INTRA.REPUL>
0

>  <SCORE.INTRA.REPUL.0>
0

>  <SCORE.INTRA.SOLV>
0.673359

>  <SCORE.INTRA.SOLV.lig_0>
-49.5008

>  <SCORE.INTRA.VDW>
-0.313395

>  <SCORE.INTRA.VDW.0>
-2.6946

>  <SCORE.INTRA.norm>
-0.115393

>  <SCORE.RESTR>
0

>  <SCORE.RESTR.CAVITY>
0

>  <SCORE.RESTR.norm>
0

>  <SCORE.SYSTEM>
0

>  <SCORE.SYSTEM.CONST>
0

>  <SCORE.SYSTEM.DIHEDRAL>
0

>  <SCORE.SYSTEM.SOLV>
0

>  <SCORE.SYSTEM.norm>
0

>  <SCORE.heavy>
27

>  <SCORE.norm>
-0.4415

>  <RMSD>
17.456

$$$$
ligand
 OpenBabel02271912153D
libRbt.so/2013.1/901 2013/11/27
 27 29  0  0  0  0  0  0  0  0999 V2000
    1.2762  -11.3638    9.6781 N   0  0  0  0  0  0  0  0  0  0  0  0
    2.6420  -10.9726    9.9708 C   0  0  2  0  0  0  0  0  0  0  0  0
    2.6430  -10.3406   11.3287 C   0  0  0  0  0  0  0  0  0  0  0  0
    3.5965  -10.5648   12.1051 O   0  0  0  0  0  0  0  0  0  0  0  0
    3.1506   -9.9796    8.9223 C   0  0  0  0  0  0  0  0  0  0  0  0
    4.6184   -9.5782    9.1889 C   0  0  0  0  0  0  0  0  0  0  0  0
    5.3303   -8.6157    8.0133 S   0  0  2  0  0  0  0  0  0  0  0  0
    5.6951   -9.5455    6.6863 C   0  0  0  0  0  0  0  0  0  0  0  0
    6.7218   -7.8912    8.6355 C   0  0  0  0  0  0  0  0  0  0  0  0
    7.7917   -8.8940    9.1166 C   0  0  1  0  0  0  0  0  0  0  0  0
    8.5955   -9.4205    8.0477 O   0  0  0  0  0  0  0  0  0  0  0  0
    8.8413   -8.2743   10.0250 C   0  0  1  0  0  0  0  0  0  0  0  0
    8.4536   -7.9805   11.3822 O   0  0  0  0  0  0  0  0  0  0  0  0
    9.9424   -9.2997    9.9133 C   0  0  1  0  0  0  0  0  0  0  0  0
    9.5816  -10.4836   10.6184 O   0  0  0  0  0  0  0  0  0  0  0  0
    9.9582   -9.5954    8.4427 C   0  0  2  0  0  0  0  0  0  0  0  0
    1.7043   -9.5736   11.6509 O   0  0  0  0  0  0  0  0  0  0  0  0
   11.7906   -7.5940    3.8697 N   0  0  0  0  0  0  0  0  0  0  0  0
   10.7782   -8.4718    4.0725 C   0  0  0  0  0  0  0  0  0  0  0  0
   10.4230   -8.9027    5.2946 N   0  0  0  0  0  0  0  0  0  0  0  0
   11.0383   -8.4725    6.4017 C   0  0  0  0  0  0  0  0  0  0  0  0
   12.1200   -7.5109    6.2512 C   0  0  0  0  0  0  0  0  0  0  0  0
   12.5167   -7.0550    4.8987 C   0  0  0  0  0  0  0  0  0  0  0  0
   13.5370   -6.1497    4.6931 N   0  0  0  0  0  0  0  0  0  0  0  0
   12.5356   -7.2478    7.4694 N   0  0  0  0  0  0  0  0  0  0  0  0
   11.8200   -7.9745    8.3388 C   0  0  0  0  0  0  0  0  0  0  0  0
   10.9108   -8.7122    7.7027 N   0  0  0  0  0  0  0  0  0  0  0  0
  2  1  1  6  0  0  0
  2  3  1  0  0  0  0
  2  5  1  0  0  0  0
  3  4  1  0  0  0  0
  3 17  1  0  0  0  0
  5  6  1  0  0  0  0
  7  6  1  1  0  0  0
  7  8  1  0  0  0  0
  7  9  1  0  0  0  0
 10  9  1  6  0  0  0
 10 11  1  0  0  0  0
 10 12  1  0  0  0  0
 11 16  1  0  0  0  0
 12 13  1  1  0  0  0
 12 14  1  0  0  0  0
 14 15  1  1  0  0  0
 14 16  1  0  0  0  0
 16 27  1  6  0  0  0
 18 19  2  0  0  0  0
 18 23  1  0  0  0  0
 19 20  1  0  0  0  0
 20 21  2  0  0  0  0
 21 22  1  0  0  0  0
 21 27  1  0  0  0  0
 22 23  2  0  0  0  0
 22 25  1  0  0  0  0
 23 24  1  0  0  0  0
 25 26  2  0  0  0  0
 26 27  1  0  0  0  0
M  END
>  <CHROM.1>
141.27372601,-178.35779295,173.97816094,-75.17938314,59.61942945,81.03006906
-48.48337101,7.83705521,-8.92434168,8.32421472,2.66498111,0.20471078,1.69863292

>  <Name>
ligand

>  <RI>
0

>  <Rbt.Current_Directory>
/home/itssahil/PROJECTS/Mol_Feturizer/Test_systems_manuscript/rnas/4kqy

>  <Rbt.Executable>
rbdock ($Id: //depot/dev/client3/rdock/2013.1/src/exe/rbdock.cxx#4 $)

>  <Rbt.Library>
libRbt.so (2013.1, Build901 2013/11/27)

>  <Rbt.Parameter_File>
/export/apps/rDock/src/rDock_2013.1_src/data/scripts/dock_solv.prm

>  <Rbt.Receptor>
prm/blind_docking_60.prm

>  <SCORE>
-12.5197

>  <SCORE.INTER>
-11.2966

>  <SCORE.INTER.CONST>
1

>  <SCORE.INTER.POLAR>
0

>  <SCORE.INTER.ROT>
7

>  <SCORE.INTER.SOLV>
14.4857

>  <SCORE.INTER.VDW>
-20.6263

>  <SCORE.INTER.norm>
-0.418392

>  <SCORE.INTRA>
-1.82819

>  <SCORE.INTRA.DIHEDRAL>
-5.36235

>  <SCORE.INTRA.DIHEDRAL.0>
10.4103

>  <SCORE.INTRA.POLAR>
0

>  <SCORE.INTRA.POLAR.0>
0

>  <SCORE.INTRA.REPUL>
0

>  <SCORE.INTRA.REPUL.0>
0

>  <SCORE.INTRA.SOLV>
-0.613397

>  <SCORE.INTRA.SOLV.lig_0>
-49.5008

>  <SCORE.INTRA.VDW>
1.15968

>  <SCORE.INTRA.VDW.0>
-2.6946

>  <SCORE.INTRA.norm>
-0.0677109

>  <SCORE.RESTR>
0.605091

>  <SCORE.RESTR.CAVITY>
0.605091

>  <SCORE.RESTR.norm>
0.0224108

>  <SCORE.SYSTEM>
0

>  <SCORE.SYSTEM.CONST>
0

>  <SCORE.SYSTEM.DIHEDRAL>
0

>  <SCORE.SYSTEM.SOLV>
0

>  <SCORE.SYSTEM.norm>
0

>  <SCORE.heavy>
27

>  <SCORE.norm>
-0.463692

>  <RMSD>
17.480

$$$$
ligand
 OpenBabel02271912153D
libRbt.so/2013.1/901 2013/11/27
 27 29  0  0  0  0  0  0  0  0999 V2000
    2.2606  -13.3522   12.1635 N   0  0  0  0  0  0  0  0  0  0  0  0
    1.4719  -14.3978   11.5399 C   0  0  2  0  0  0  0  0  0  0  0  0
    0.1570  -14.4503   12.2550 C   0  0  0  0  0  0  0  0  0  0  0  0
    0.1432  -14.4883   13.5043 O   0  0  0  0  0  0  0  0  0  0  0  0
    2.1896  -15.7459   11.6476 C   0  0  0  0  0  0  0  0  0  0  0  0
    3.3983  -15.8212   10.6885 C   0  0  0  0  0  0  0  0  0  0  0  0
    4.2062  -17.2913   10.6567 S   0  0  2  0  0  0  0  0  0  0  0  0
    4.6935  -17.6859   12.1947 C   0  0  0  0  0  0  0  0  0  0  0  0
    5.5324  -17.1905    9.6175 C   0  0  0  0  0  0  0  0  0  0  0  0
    5.1898  -17.4438    8.1342 C   0  0  1  0  0  0  0  0  0  0  0  0
    6.1676  -16.9071    7.2277 O   0  0  0  0  0  0  0  0  0  0  0  0
    5.1820  -18.9157    7.7546 C   0  0  1  0  0  0  0  0  0  0  0  0
    4.0567  -19.7063    8.1876 O   0  0  0  0  0  0  0  0  0  0  0  0
    5.3157  -18.8144    6.2553 C   0  0  1  0  0  0  0  0  0  0  0  0
    4.0986  -18.3407    5.6866 O   0  0  0  0  0  0  0  0  0  0  0  0
    6.3694  -17.7585    6.0972 C   0  0  2  0  0  0  0  0  0  0  0  0
   -0.9063  -14.4233   11.5903 O   0  0  0  0  0  0  0  0  0  0  0  0
   11.6173  -17.1482    5.4948 N   0  0  0  0  0  0  0  0  0  0  0  0
   10.6416  -16.2078    5.4828 C   0  0  0  0  0  0  0  0  0  0  0  0
    9.3414  -16.5067    5.6418 N   0  0  0  0  0  0  0  0  0  0  0  0
    8.9248  -17.7616    5.8449 C   0  0  0  0  0  0  0  0  0  0  0  0
    9.9280  -18.8145    5.8906 C   0  0  0  0  0  0  0  0  0  0  0  0
   11.3575  -18.4781    5.6965 C   0  0  0  0  0  0  0  0  0  0  0  0
   12.3524  -19.4331    5.7240 N   0  0  0  0  0  0  0  0  0  0  0  0
    9.2668  -19.9280    6.1118 N   0  0  0  0  0  0  0  0  0  0  0  0
    7.9581  -19.6487    6.1844 C   0  0  0  0  0  0  0  0  0  0  0  0
    7.7439  -18.3427    6.0296 N   0  0  0  0  0  0  0  0  0  0  0  0
  2  1  1  1  0  0  0
  2  3  1  0  0  0  0
  2  5  1  0  0  0  0
  3  4  1  0  0  0  0
  3 17  1  0  0  0  0
  5  6  1  0  0  0  0
  7  6  1  1  0  0  0
  7  8  1  0  0  0  0
  7  9  1  0  0  0  0
 10  9  1  1  0  0  0
 10 11  1  0  0  0  0
 10 12  1  0  0  0  0
 11 16  1  0  0  0  0
 12 13  1  6  0  0  0
 12 14  1  0  0  0  0
 14 15  1  6  0  0  0
 14 16  1  0  0  0  0
 16 27  1  1  0  0  0
 18 19  2  0  0  0  0
 18 23  1  0  0  0  0
 19 20  1  0  0  0  0
 20 21  2  0  0  0  0
 21 22  1  0  0  0  0
 21 27  1  0  0  0  0
 22 23  2  0  0  0  0
 22 25  1  0  0  0  0
 23 24  1  0  0  0  0
 25 26  2  0  0  0  0
 26 27  1  0  0  0  0
M  END
>  <CHROM.1>
-48.98803380,-73.24882901,-176.51796243,-55.92190168,-84.49122063,159.19049594
-65.81274608,5.65948507,-17.20166677,8.46249627,-2.50835051,-0.29096915,-2.42504520

>  <Name>
ligand

>  <RI>
0

>  <Rbt.Current_Directory>
/home/itssahil/PROJECTS/Mol_Feturizer/Test_systems_manuscript/rnas/4kqy

>  <Rbt.Executable>
rbdock ($Id: //depot/dev/client3/rdock/2013.1/src/exe/rbdock.cxx#4 $)

>  <Rbt.Library>
libRbt.so (2013.1, Build901 2013/11/27)

>  <Rbt.Parameter_File>
/export/apps/rDock/src/rDock_2013.1_src/data/scripts/dock_solv.prm

>  <Rbt.Receptor>
prm/blind_docking_100.prm

>  <SCORE>
-25.3451

>  <SCORE.INTER>
-24.6407

>  <SCORE.INTER.CONST>
1

>  <SCORE.INTER.POLAR>
0

>  <SCORE.INTER.ROT>
7

>  <SCORE.INTER.SOLV>
15.8133

>  <SCORE.INTER.VDW>
-29.9649

>  <SCORE.INTER.norm>
-0.912618

>  <SCORE.INTRA>
-0.704423

>  <SCORE.INTRA.DIHEDRAL>
-3.80857

>  <SCORE.INTRA.DIHEDRAL.0>
10.4103

>  <SCORE.INTRA.POLAR>
0

>  <SCORE.INTRA.POLAR.0>
0

>  <SCORE.INTRA.REPUL>
0

>  <SCORE.INTRA.REPUL.0>
0

>  <SCORE.INTRA.SOLV>
0.00342651

>  <SCORE.INTRA.SOLV.lig_0>
-49.5008

>  <SCORE.INTRA.VDW>
1.19815

>  <SCORE.INTRA.VDW.0>
-2.6946

>  <SCORE.INTRA.norm>
-0.0260897

>  <SCORE.RESTR>
0

>  <SCORE.RESTR.CAVITY>
0

>  <SCORE.RESTR.norm>
0

>  <SCORE.SYSTEM>
0

>  <SCORE.SYSTEM.CONST>
0

>  <SCORE.SYSTEM.DIHEDRAL>
0

>  <SCORE.SYSTEM.SOLV>
0

>  <SCORE.SYSTEM.norm>
0

>  <SCORE.heavy>
27

>  <SCORE.norm>
-0.938708

>  <RMSD>
17.543

$$$$
ligand
 OpenBabel02271912153D
libRbt.so/2013.1/901 2013/11/27
 27 29  0  0  0  0  0  0  0  0999 V2000
    2.5169  -13.7198   11.5274 N   0  0  0  0  0  0  0  0  0  0  0  0
    1.9958  -15.0636   11.6917 C   0  0  2  0  0  0  0  0  0  0  0  0
    0.6546  -14.9440   12.3476 C   0  0  0  0  0  0  0  0  0  0  0  0
    0.5863  -14.9148   13.5952 O   0  0  0  0  0  0  0  0  0  0  0  0
    2.9390  -15.9009   12.5597 C   0  0  0  0  0  0  0  0  0  0  0  0
    4.2609  -16.2099   11.8224 C   0  0  0  0  0  0  0  0  0  0  0  0
    4.1596  -17.3630   10.6079 S   0  0  2  0  0  0  0  0  0  0  0  0
    4.2073  -18.8799   11.2828 C   0  0  0  0  0  0  0  0  0  0  0  0
    5.4303  -17.1548    9.5167 C   0  0  0  0  0  0  0  0  0  0  0  0
    5.0946  -17.5802    8.0717 C   0  0  1  0  0  0  0  0  0  0  0  0
    6.0153  -17.0580    7.0993 O   0  0  0  0  0  0  0  0  0  0  0  0
    5.2046  -19.0783    7.8377 C   0  0  1  0  0  0  0  0  0  0  0  0
    4.1531  -19.9110    8.3664 O   0  0  0  0  0  0  0  0  0  0  0  0
    5.3141  -19.1149    6.3334 C   0  0  1  0  0  0  0  0  0  0  0  0
    4.0562  -18.8002    5.7438 O   0  0  0  0  0  0  0  0  0  0  0  0
    6.2751  -17.9976    6.0538 C   0  0  2  0  0  0  0  0  0  0  0  0
   -0.3722  -14.8436   11.6343 O   0  0  0  0  0  0  0  0  0  0  0  0
   11.4614  -16.9963    5.4406 N   0  0  0  0  0  0  0  0  0  0  0  0
   10.4136  -16.1389    5.3812 C   0  0  0  0  0  0  0  0  0  0  0  0
    9.1404  -16.5337    5.5497 N   0  0  0  0  0  0  0  0  0  0  0  0
    8.8242  -17.8071    5.8103 C   0  0  0  0  0  0  0  0  0  0  0  0
    9.9083  -18.7727    5.9088 C   0  0  0  0  0  0  0  0  0  0  0  0
   11.3076  -18.3319    5.7038 C   0  0  0  0  0  0  0  0  0  0  0  0
   12.3756  -19.2016    5.7795 N   0  0  0  0  0  0  0  0  0  0  0  0
    9.3369  -19.9242    6.1800 N   0  0  0  0  0  0  0  0  0  0  0  0
    8.0095  -19.7480    6.2350 C   0  0  0  0  0  0  0  0  0  0  0  0
    7.6924  -18.4721    6.0183 N   0  0  0  0  0  0  0  0  0  0  0  0
  2  1  1  1  0  0  0
  2  3  1  0  0  0  0
  2  5  1  0  0  0  0
  3  4  1  0  0  0  0
  3 17  1  0  0  0  0
  5  6  1  0  0  0  0
  7  6  1  1  0  0  0
  7  8  1  0  0  0  0
  7  9  1  0  0  0  0
 10  9  1  1  0  0  0
 10 11  1  0  0  0  0
 10 12  1  0  0  0  0
 11 16  1  0  0  0  0
 12 13  1  6  0  0  0
 12 14  1  0  0  0  0
 14 15  1  6  0  0  0
 14 16  1  0  0  0  0
 16 27  1  1  0  0  0
 18 19  2  0  0  0  0
 18 23  1  0  0  0  0
 19 20  1  0  0  0  0
 20 21  2  0  0  0  0
 21 22  1  0  0  0  0
 21 27  1  0  0  0  0
 22 23  2  0  0  0  0
 22 25  1  0  0  0  0
 23 24  1  0  0  0  0
 25 26  2  0  0  0  0
 26 27  1  0  0  0  0
M  END
>  <CHROM.1>
-87.66251806,-69.58403291,-74.13905806,-81.22343428,-149.78046798,163.29188224
-62.65381008,5.74159102,-17.40673193,8.48705336,-2.53279881,-0.38791853,-2.47782197

>  <Name>
ligand

>  <RI>
0

>  <Rbt.Current_Directory>
/home/itssahil/PROJECTS/Mol_Feturizer/Test_systems_manuscript/rnas/4kqy

>  <Rbt.Executable>
rbdock ($Id: //depot/dev/client3/rdock/2013.1/src/exe/rbdock.cxx#4 $)

>  <Rbt.Library>
libRbt.so (2013.1, Build901 2013/11/27)

>  <Rbt.Parameter_File>
/export/apps/rDock/src/rDock_2013.1_src/data/scripts/dock_solv.prm

>  <Rbt.Receptor>
prm/blind_docking_40.prm

>  <SCORE>
-23.5747

>  <SCORE.INTER>
-24.1825

>  <SCORE.INTER.CONST>
1

>  <SCORE.INTER.POLAR>
0

>  <SCORE.INTER.ROT>
7

>  <SCORE.INTER.SOLV>
15.7967

>  <SCORE.INTER.VDW>
-29.6539

>  <SCORE.INTER.norm>
-0.895647

>  <SCORE.INTRA>
0.607769

>  <SCORE.INTRA.DIHEDRAL>
-1.99411

>  <SCORE.INTRA.DIHEDRAL.0>
10.4103

>  <SCORE.INTRA.POLAR>
0

>  <SCORE.INTRA.POLAR.0>
0

>  <SCORE.INTRA.REPUL>
0

>  <SCORE.INTRA.REPUL.0>
0

>  <SCORE.INTRA.SOLV>
0.646102

>  <SCORE.INTRA.SOLV.lig_0>
-49.5008

>  <SCORE.INTRA.VDW>
1.28178

>  <SCORE.INTRA.VDW.0>
-2.6946

>  <SCORE.INTRA.norm>
0.02251

>  <SCORE.RESTR>
0

>  <SCORE.RESTR.CAVITY>
0

>  <SCORE.RESTR.norm>
0

>  <SCORE.SYSTEM>
0

>  <SCORE.SYSTEM.CONST>
0

>  <SCORE.SYSTEM.DIHEDRAL>
0

>  <SCORE.SYSTEM.SOLV>
0

>  <SCORE.SYSTEM.norm>
0

>  <SCORE.heavy>
27

>  <SCORE.norm>
-0.873137

>  <RMSD>
17.586

$$$$
ligand
 OpenBabel02271912153D
libRbt.so/2013.1/901 2013/11/27
 27 29  0  0  0  0  0  0  0  0999 V2000
    1.1816  -13.9022   11.1215 N   0  0  0  0  0  0  0  0  0  0  0  0
    1.7794  -14.5266   12.2864 C   0  0  2  0  0  0  0  0  0  0  0  0
    2.9098  -13.6501   12.7305 C   0  0  0  0  0  0  0  0  0  0  0  0
    3.6026  -13.9983   13.7108 O   0  0  0  0  0  0  0  0  0  0  0  0
    2.2964  -15.9250   11.9381 C   0  0  0  0  0  0  0  0  0  0  0  0
    3.3923  -15.8679   10.8507 C   0  0  0  0  0  0  0  0  0  0  0  0
    4.1409  -17.3281   10.5006 S   0  0  2  0  0  0  0  0  0  0  0  0
    4.6445  -18.0419   11.9133 C   0  0  0  0  0  0  0  0  0  0  0  0
    5.4479  -17.0649    9.4657 C   0  0  0  0  0  0  0  0  0  0  0  0
    5.1444  -17.3602    7.9816 C   0  0  1  0  0  0  0  0  0  0  0  0
    6.1513  -16.8583    7.0871 O   0  0  0  0  0  0  0  0  0  0  0  0
    5.1350  -18.8428    7.6462 C   0  0  1  0  0  0  0  0  0  0  0  0
    3.9916  -19.6116    8.0711 O   0  0  0  0  0  0  0  0  0  0  0  0
    5.3109  -18.7877    6.1488 C   0  0  1  0  0  0  0  0  0  0  0  0
    4.1140  -18.3224    5.5325 O   0  0  0  0  0  0  0  0  0  0  0  0
    6.3772  -17.7449    5.9886 C   0  0  2  0  0  0  0  0  0  0  0  0
    3.1610  -12.5997   12.0928 O   0  0  0  0  0  0  0  0  0  0  0  0
   11.6512  -17.1788    5.6139 N   0  0  0  0  0  0  0  0  0  0  0  0
   10.6852  -16.2297    5.5650 C   0  0  0  0  0  0  0  0  0  0  0  0
    9.3768  -16.5177    5.6668 N   0  0  0  0  0  0  0  0  0  0  0  0
    8.9409  -17.7697    5.8457 C   0  0  0  0  0  0  0  0  0  0  0  0
    9.9321  -18.8318    5.9290 C   0  0  0  0  0  0  0  0  0  0  0  0
   11.3714  -18.5072    5.7978 C   0  0  0  0  0  0  0  0  0  0  0  0
   12.3559  -19.4713    5.8631 N   0  0  0  0  0  0  0  0  0  0  0  0
    9.2523  -19.9402    6.1163 N   0  0  0  0  0  0  0  0  0  0  0  0
    7.9441  -19.6497    6.1342 C   0  0  0  0  0  0  0  0  0  0  0  0
    7.7482  -18.3411    5.9769 N   0  0  0  0  0  0  0  0  0  0  0  0
  2  1  1  6  0  0  0
  2  3  1  0  0  0  0
  2  5  1  0  0  0  0
  3  4  1  0  0  0  0
  3 17  1  0  0  0  0
  5  6  1  0  0  0  0
  7  6  1  1  0  0  0
  7  8  1  0  0  0  0
  7  9  1  0  0  0  0
 10  9  1  1  0  0  0
 10 11  1  0  0  0  0
 10 12  1  0  0  0  0
 11 16  1  0  0  0  0
 12 13  1  6  0  0  0
 12 14  1  0  0  0  0
 14 15  1  6  0  0  0
 14 16  1  0  0  0  0
 16 27  1  1  0  0  0
 18 19  2  0  0  0  0
 18 23  1  0  0  0  0
 19 20  1  0  0  0  0
 20 21  2  0  0  0  0
 21 22  1  0  0  0  0
 21 27  1  0  0  0  0
 22 23  2  0  0  0  0
 22 25  1  0  0  0  0
 23 24  1  0  0  0  0
 25 26  2  0  0  0  0
 26 27  1  0  0  0  0
M  END
>  <CHROM.1>
-178.47952516,61.44844062,174.09127476,-50.39707420,-99.49167094,167.06039090
-63.63984636,6.01606018,-17.11901328,8.46185935,2.39725051,0.30973346,0.74030859

>  <Name>
ligand

>  <RI>
0

>  <Rbt.Current_Directory>
/home/itssahil/PROJECTS/Mol_Feturizer/Test_systems_manuscript/rnas/4kqy

>  <Rbt.Executable>
rbdock ($Id: //depot/dev/client3/rdock/2013.1/src/exe/rbdock.cxx#4 $)

>  <Rbt.Library>
libRbt.so (2013.1, Build901 2013/11/27)

>  <Rbt.Parameter_File>
/export/apps/rDock/src/rDock_2013.1_src/data/scripts/dock_solv.prm

>  <Rbt.Receptor>
prm/blind_docking_40.prm

>  <SCORE>
-20.4875

>  <SCORE.INTER>
-21.1594

>  <SCORE.INTER.CONST>
1

>  <SCORE.INTER.POLAR>
0

>  <SCORE.INTER.ROT>
7

>  <SCORE.INTER.SOLV>
19.7523

>  <SCORE.INTER.VDW>
-28.9571

>  <SCORE.INTER.norm>
-0.783683

>  <SCORE.INTRA>
0.671907

>  <SCORE.INTRA.DIHEDRAL>
-3.18556

>  <SCORE.INTRA.DIHEDRAL.0>
10.4103

>  <SCORE.INTRA.POLAR>
0

>  <SCORE.INTRA.POLAR.0>
0

>  <SCORE.INTRA.REPUL>
0

>  <SCORE.INTRA.REPUL.0>
0

>  <SCORE.INTRA.SOLV>
0.194108

>  <SCORE.INTRA.SOLV.lig_0>
-49.5008

>  <SCORE.INTRA.VDW>
2.16763

>  <SCORE.INTRA.VDW.0>
-2.6946

>  <SCORE.INTRA.norm>
0.0248854

>  <SCORE.RESTR>
0

>  <SCORE.RESTR.CAVITY>
0

>  <SCORE.RESTR.norm>
0

>  <SCORE.SYSTEM>
0

>  <SCORE.SYSTEM.CONST>
0

>  <SCORE.SYSTEM.DIHEDRAL>
0

>  <SCORE.SYSTEM.SOLV>
0

>  <SCORE.SYSTEM.norm>
0

>  <SCORE.heavy>
27

>  <SCORE.norm>
-0.758798

>  <RMSD>
17.620

$$$$
ligand
 OpenBabel02271912153D
libRbt.so/2013.1/901 2013/11/27
 27 29  0  0  0  0  0  0  0  0999 V2000
    2.0361  -13.7299   12.3700 N   0  0  0  0  0  0  0  0  0  0  0  0
    3.0545  -13.4345   11.3801 C   0  0  2  0  0  0  0  0  0  0  0  0
    2.5619  -12.2781   10.5657 C   0  0  0  0  0  0  0  0  0  0  0  0
    1.3896  -12.2927   10.1324 O   0  0  0  0  0  0  0  0  0  0  0  0
    3.2974  -14.6511   10.4828 C   0  0  0  0  0  0  0  0  0  0  0  0
    3.8226  -15.8562   11.2942 C   0  0  0  0  0  0  0  0  0  0  0  0
    4.1018  -17.2560   10.4122 S   0  0  2  0  0  0  0  0  0  0  0  0
    4.3998  -18.5141   11.4548 C   0  0  0  0  0  0  0  0  0  0  0  0
    5.4085  -17.0219    9.3699 C   0  0  0  0  0  0  0  0  0  0  0  0
    5.1118  -17.3817    7.8988 C   0  0  1  0  0  0  0  0  0  0  0  0
    6.1086  -16.8947    6.9848 O   0  0  0  0  0  0  0  0  0  0  0  0
    5.1333  -18.8763    7.6220 C   0  0  1  0  0  0  0  0  0  0  0  0
    4.0059  -19.6512    8.0772 O   0  0  0  0  0  0  0  0  0  0  0  0
    5.3087  -18.8766    6.1235 C   0  0  1  0  0  0  0  0  0  0  0  0
    4.1027  -18.4608    5.4898 O   0  0  0  0  0  0  0  0  0  0  0  0
    6.3534  -17.8190    5.9220 C   0  0  2  0  0  0  0  0  0  0  0  0
    3.3226  -11.3024   10.3597 O   0  0  0  0  0  0  0  0  0  0  0  0
   11.6186  -17.1482    5.6003 N   0  0  0  0  0  0  0  0  0  0  0  0
   10.6338  -16.2200    5.5285 C   0  0  0  0  0  0  0  0  0  0  0  0
    9.3305  -16.5339    5.6190 N   0  0  0  0  0  0  0  0  0  0  0  0
    8.9185  -17.7923    5.8086 C   0  0  0  0  0  0  0  0  0  0  0  0
    9.9303  -18.8325    5.9164 C   0  0  0  0  0  0  0  0  0  0  0  0
   11.3641  -18.4798    5.7975 C   0  0  0  0  0  0  0  0  0  0  0  0
   12.3674  -19.4223    5.8860 N   0  0  0  0  0  0  0  0  0  0  0  0
    9.2714  -19.9525    6.1098 N   0  0  0  0  0  0  0  0  0  0  0  0
    7.9574  -19.6889    6.1092 C   0  0  0  0  0  0  0  0  0  0  0  0
    7.7363  -18.3868    5.9334 N   0  0  0  0  0  0  0  0  0  0  0  0
  2  1  1  1  0  0  0
  2  3  1  0  0  0  0
  2  5  1  0  0  0  0
  3  4  1  0  0  0  0
  3 17  1  0  0  0  0
  5  6  1  0  0  0  0
  7  6  1  1  0  0  0
  7  8  1  0  0  0  0
  7  9  1  0  0  0  0
 10  9  1  1  0  0  0
 10 11  1  0  0  0  0
 10 12  1  0  0  0  0
 11 16  1  0  0  0  0
 12 13  1  6  0  0  0
 12 14  1  0  0  0  0
 14 15  1  6  0  0  0
 14 16  1  0  0  0  0
 16 27  1  1  0  0  0
 18 19  2  0  0  0  0
 18 23  1  0  0  0  0
 19 20  1  0  0  0  0
 20 21  2  0  0  0  0
 21 22  1  0  0  0  0
 21 27  1  0  0  0  0
 22 23  2  0  0  0  0
 22 25  1  0  0  0  0
 23 24  1  0  0  0  0
 25 26  2  0  0  0  0
 26 27  1  0  0  0  0
M  END
>  <CHROM.1>
-46.90993384,-62.21189643,179.09231084,-170.12406309,-127.72697329,166.45768711
-61.95800815,6.02389894,-16.89229240,8.10847281,-2.52627689,-0.49493165,-2.87893027

>  <Name>
ligand

>  <RI>
0

>  <Rbt.Current_Directory>
/home/itssahil/PROJECTS/Mol_Feturizer/Test_systems_manuscript/rnas/4kqy

>  <Rbt.Executable>
rbdock ($Id: //depot/dev/client3/rdock/2013.1/src/exe/rbdock.cxx#4 $)

>  <Rbt.Library>
libRbt.so (2013.1, Build901 2013/11/27)

>  <Rbt.Parameter_File>
/export/apps/rDock/src/rDock_2013.1_src/data/scripts/dock_solv.prm

>  <Rbt.Receptor>
prm/blind_docking_40.prm

>  <SCORE>
-23.0639

>  <SCORE.INTER>
-22.8354

>  <SCORE.INTER.CONST>
1

>  <SCORE.INTER.POLAR>
0

>  <SCORE.INTER.ROT>
7

>  <SCORE.INTER.SOLV>
15.5058

>  <SCORE.INTER.VDW>
-28.6589

>  <SCORE.INTER.norm>
-0.845756

>  <SCORE.INTRA>
-0.228488

>  <SCORE.INTRA.DIHEDRAL>
-2.20503

>  <SCORE.INTRA.DIHEDRAL.0>
10.4103

>  <SCORE.INTRA.POLAR>
0

>  <SCORE.INTRA.POLAR.0>
0

>  <SCORE.INTRA.REPUL>
0

>  <SCORE.INTRA.REPUL.0>
0

>  <SCORE.INTRA.SOLV>
0.299388

>  <SCORE.INTRA.SOLV.lig_0>
-49.5008

>  <SCORE.INTRA.VDW>
0.724331

>  <SCORE.INTRA.VDW.0>
-2.6946

>  <SCORE.INTRA.norm>
-0.00846253

>  <SCORE.RESTR>
0

>  <SCORE.RESTR.CAVITY>
0

>  <SCORE.RESTR.norm>
0

>  <SCORE.SYSTEM>
0

>  <SCORE.SYSTEM.CONST>
0

>  <SCORE.SYSTEM.DIHEDRAL>
0

>  <SCORE.SYSTEM.SOLV>
0

>  <SCORE.SYSTEM.norm>
0

>  <SCORE.heavy>
27

>  <SCORE.norm>
-0.854218

>  <RMSD>
17.643

$$$$
ligand
 OpenBabel02271912153D
libRbt.so/2013.1/901 2013/11/27
 27 29  0  0  0  0  0  0  0  0999 V2000
   -0.4289  -23.2340    6.0271 N   0  0  0  0  0  0  0  0  0  0  0  0
    0.4835  -22.8680    4.9604 C   0  0  2  0  0  0  0  0  0  0  0  0
    1.4663  -23.9882    4.8110 C   0  0  0  0  0  0  0  0  0  0  0  0
    1.7715  -24.3829    3.6650 O   0  0  0  0  0  0  0  0  0  0  0  0
    1.2110  -21.5648    5.3021 C   0  0  0  0  0  0  0  0  0  0  0  0
    2.2898  -21.2268    4.2493 C   0  0  0  0  0  0  0  0  0  0  0  0
    3.7790  -20.7581    4.8641 S   0  0  2  0  0  0  0  0  0  0  0  0
    4.2366  -21.8121    6.0634 C   0  0  0  0  0  0  0  0  0  0  0  0
    3.6792  -19.1822    5.4601 C   0  0  0  0  0  0  0  0  0  0  0  0
    5.0429  -18.4716    5.5906 C   0  0  1  0  0  0  0  0  0  0  0  0
    4.9436  -17.1564    6.1618 O   0  0  0  0  0  0  0  0  0  0  0  0
    5.9986  -19.1613    6.5507 C   0  0  1  0  0  0  0  0  0  0  0  0
    6.6326  -20.3745    6.0981 O   0  0  0  0  0  0  0  0  0  0  0  0
    6.9641  -18.0370    6.8336 C   0  0  1  0  0  0  0  0  0  0  0  0
    7.7858  -17.7999    5.6945 O   0  0  0  0  0  0  0  0  0  0  0  0
    6.0466  -16.8655    7.0235 C   0  0  2  0  0  0  0  0  0  0  0  0
    1.9889  -24.4887    5.8354 O   0  0  0  0  0  0  0  0  0  0  0  0
    4.2498  -18.8882   11.6012 N   0  0  0  0  0  0  0  0  0  0  0  0
    4.4782  -19.5158   10.4220 C   0  0  0  0  0  0  0  0  0  0  0  0
    4.9307  -18.8735    9.3320 N   0  0  0  0  0  0  0  0  0  0  0  0
    5.2074  -17.5648    9.3473 C   0  0  0  0  0  0  0  0  0  0  0  0
    5.0038  -16.8389   10.5919 C   0  0  0  0  0  0  0  0  0  0  0  0
    4.4876  -17.5515   11.7835 C   0  0  0  0  0  0  0  0  0  0  0  0
    4.2698  -16.9161   12.9884 N   0  0  0  0  0  0  0  0  0  0  0  0
    5.3570  -15.5982   10.3431 N   0  0  0  0  0  0  0  0  0  0  0  0
    5.7356  -15.5032    9.0611 C   0  0  0  0  0  0  0  0  0  0  0  0
    5.6533  -16.6869    8.4547 N   0  0  0  0  0  0  0  0  0  0  0  0
  2  1  1  1  0  0  0
  2  3  1  0  0  0  0
  2  5  1  0  0  0  0
  3  4  1  0  0  0  0
  3 17  1  0  0  0  0
  5  6  1  0  0  0  0
  7  6  1  1  0  0  0
  7  8  1  0  0  0  0
  7  9  1  0  0  0  0
 10  9  1  1  0  0  0
 10 11  1  0  0  0  0
 10 12  1  0  0  0  0
 11 16  1  0  0  0  0
 12 13  1  6  0  0  0
 12 14  1  0  0  0  0
 14 15  1  6  0  0  0
 14 16  1  0  0  0  0
 16 27  1  1  0  0  0
 18 19  2  0  0  0  0
 18 23  1  0  0  0  0
 19 20  1  0  0  0  0
 20 21  2  0  0  0  0
 21 22  1  0  0  0  0
 21 27  1  0  0  0  0
 22 23  2  0  0  0  0
 22 25  1  0  0  0  0
 23 24  1  0  0  0  0
 25 26  2  0  0  0  0
 26 27  1  0  0  0  0
M  END
>  <CHROM.1>
136.34877068,174.32923970,-134.01682106,46.89478985,-159.71740733,-177.07558405
69.07802600,4.17133983,-19.59211808,7.16144352,2.19674993,-0.75582218,-1.98948706

>  <Name>
ligand

>  <RI>
0

>  <Rbt.Current_Directory>
/home/itssahil/PROJECTS/Mol_Feturizer/Test_systems_manuscript/rnas/4kqy

>  <Rbt.Executable>
rbdock ($Id: //depot/dev/client3/rdock/2013.1/src/exe/rbdock.cxx#4 $)

>  <Rbt.Library>
libRbt.so (2013.1, Build901 2013/11/27)

>  <Rbt.Parameter_File>
/export/apps/rDock/src/rDock_2013.1_src/data/scripts/dock_solv.prm

>  <Rbt.Receptor>
prm/blind_docking_40.prm

>  <SCORE>
-18.9814

>  <SCORE.INTER>
-19.7034

>  <SCORE.INTER.CONST>
1

>  <SCORE.INTER.POLAR>
0

>  <SCORE.INTER.ROT>
7

>  <SCORE.INTER.SOLV>
19.7289

>  <SCORE.INTER.VDW>
-27.9786

>  <SCORE.INTER.norm>
-0.729756

>  <SCORE.INTRA>
0.721972

>  <SCORE.INTRA.DIHEDRAL>
-0.982067

>  <SCORE.INTRA.DIHEDRAL.0>
10.4103

>  <SCORE.INTRA.POLAR>
0

>  <SCORE.INTRA.POLAR.0>
0

>  <SCORE.INTRA.REPUL>
0

>  <SCORE.INTRA.REPUL.0>
0

>  <SCORE.INTRA.SOLV>
-0.233875

>  <SCORE.INTRA.SOLV.lig_0>
-49.5008

>  <SCORE.INTRA.VDW>
1.32994

>  <SCORE.INTRA.VDW.0>
-2.6946

>  <SCORE.INTRA.norm>
0.0267397

>  <SCORE.RESTR>
0

>  <SCORE.RESTR.CAVITY>
0

>  <SCORE.RESTR.norm>
0

>  <SCORE.SYSTEM>
0

>  <SCORE.SYSTEM.CONST>
0

>  <SCORE.SYSTEM.DIHEDRAL>
0

>  <SCORE.SYSTEM.SOLV>
0

>  <SCORE.SYSTEM.norm>
0

>  <SCORE.heavy>
27

>  <SCORE.norm>
-0.703016

>  <RMSD>
17.644

$$$$
ligand
 OpenBabel02271912153D
libRbt.so/2013.1/901 2013/11/27
 27 29  0  0  0  0  0  0  0  0999 V2000
    2.3304  -12.7530   10.5461 N   0  0  0  0  0  0  0  0  0  0  0  0
    2.9018  -13.3655   11.7304 C   0  0  2  0  0  0  0  0  0  0  0  0
    3.5248  -12.2711   12.5412 C   0  0  0  0  0  0  0  0  0  0  0  0
    3.4819  -11.0967   12.1157 O   0  0  0  0  0  0  0  0  0  0  0  0
    3.9570  -14.4039   11.3398 C   0  0  0  0  0  0  0  0  0  0  0  0
    3.3090  -15.6655   10.7275 C   0  0  0  0  0  0  0  0  0  0  0  0
    4.3565  -16.9390   10.4171 S   0  0  2  0  0  0  0  0  0  0  0  0
    5.1196  -17.3804   11.8248 C   0  0  0  0  0  0  0  0  0  0  0  0
    5.4821  -16.4789    9.2467 C   0  0  0  0  0  0  0  0  0  0  0  0
    5.4143  -17.3099    7.9480 C   0  0  1  0  0  0  0  0  0  0  0  0
    6.0170  -16.6506    6.8219 O   0  0  0  0  0  0  0  0  0  0  0  0
    6.2042  -18.6070    8.0141 C   0  0  1  0  0  0  0  0  0  0  0  0
    5.6383  -19.6896    8.7799 O   0  0  0  0  0  0  0  0  0  0  0  0
    6.3552  -18.9129    6.5445 C   0  0  1  0  0  0  0  0  0  0  0  0
    5.1079  -19.3362    6.0023 O   0  0  0  0  0  0  0  0  0  0  0  0
    6.7042  -17.5713    5.9712 C   0  0  2  0  0  0  0  0  0  0  0  0
    4.0501  -12.5470   13.6463 O   0  0  0  0  0  0  0  0  0  0  0  0
   11.6660  -19.4686    6.2106 N   0  0  0  0  0  0  0  0  0  0  0  0
   10.4910  -20.1351    6.3193 C   0  0  0  0  0  0  0  0  0  0  0  0
    9.2977  -19.5220    6.2462 N   0  0  0  0  0  0  0  0  0  0  0  0
    9.1917  -18.2048    6.0384 C   0  0  0  0  0  0  0  0  0  0  0  0
   10.4187  -17.4366    5.8909 C   0  0  0  0  0  0  0  0  0  0  0  0
   11.7302  -18.1179    5.9908 C   0  0  0  0  0  0  0  0  0  0  0  0
   12.9261  -17.4422    5.8647 N   0  0  0  0  0  0  0  0  0  0  0  0
   10.0400  -16.1953    5.6867 N   0  0  0  0  0  0  0  0  0  0  0  0
    8.7014  -16.1391    5.7165 C   0  0  0  0  0  0  0  0  0  0  0  0
    8.1818  -17.3486    5.9230 N   0  0  0  0  0  0  0  0  0  0  0  0
  2  1  1  6  0  0  0
  2  3  1  0  0  0  0
  2  5  1  0  0  0  0
  3  4  1  0  0  0  0
  3 17  1  0  0  0  0
  5  6  1  0  0  0  0
  7  6  1  1  0  0  0
  7  8  1  0  0  0  0
  7  9  1  0  0  0  0
 10  9  1  1  0  0  0
 10 11  1  0  0  0  0
 10 12  1  0  0  0  0
 11 16  1  0  0  0  0
 12 13  1  1  0  0  0
 12 14  1  0  0  0  0
 14 15  1  6  0  0  0
 14 16  1  0  0  0  0
 16 27  1  1  0  0  0
 18 19  2  0  0  0  0
 18 23  1  0  0  0  0
 19 20  1  0  0  0  0
 20 21  2  0  0  0  0
 21 22  1  0  0  0  0
 21 27  1  0  0  0  0
 22 23  2  0  0  0  0
 22 25  1  0  0  0  0
 23 24  1  0  0  0  0
 25 26  2  0  0  0  0
 26 27  1  0  0  0  0
M  END
>  <CHROM.1>
-0.73722589,-71.82420346,-173.56806371,57.70807585,-117.67603315,159.75101610
132.38938363,6.54518245,-16.67801041,8.47822827,-2.37388488,-0.43641225,-2.67164961

>  <Name>
ligand

>  <RI>
0

>  <Rbt.Current_Directory>
/home/itssahil/PROJECTS/Mol_Feturizer/Test_systems_manuscript/rnas/4kqy

>  <Rbt.Executable>
rbdock ($Id: //depot/dev/client3/rdock/2013.1/src/exe/rbdock.cxx#4 $)

>  <Rbt.Library>
libRbt.so (2013.1, Build901 2013/11/27)

>  <Rbt.Parameter_File>
/export/apps/rDock/src/rDock_2013.1_src/data/scripts/dock_solv.prm

>  <Rbt.Receptor>
prm/blind_docking_80.prm

>  <SCORE>
-14.9844

>  <SCORE.INTER>
-15.5225

>  <SCORE.INTER.CONST>
1

>  <SCORE.INTER.POLAR>
0

>  <SCORE.INTER.ROT>
7

>  <SCORE.INTER.SOLV>
22.8994

>  <SCORE.INTER.VDW>
-26.2481

>  <SCORE.INTER.norm>
-0.574906

>  <SCORE.INTRA>
0.386527

>  <SCORE.INTRA.DIHEDRAL>
-0.9176

>  <SCORE.INTRA.DIHEDRAL.0>
10.4103

>  <SCORE.INTRA.POLAR>
0

>  <SCORE.INTRA.POLAR.0>
0

>  <SCORE.INTRA.REPUL>
0

>  <SCORE.INTRA.REPUL.0>
0

>  <SCORE.INTRA.SOLV>
0.111313

>  <SCORE.INTRA.SOLV.lig_0>
-49.5008

>  <SCORE.INTRA.VDW>
0.78967

>  <SCORE.INTRA.VDW.0>
-2.6946

>  <SCORE.INTRA.norm>
0.0143158

>  <SCORE.RESTR>
0.151527

>  <SCORE.RESTR.CAVITY>
0.151527

>  <SCORE.RESTR.norm>
0.00561211

>  <SCORE.SYSTEM>
0

>  <SCORE.SYSTEM.CONST>
0

>  <SCORE.SYSTEM.DIHEDRAL>
0

>  <SCORE.SYSTEM.SOLV>
0

>  <SCORE.SYSTEM.norm>
0

>  <SCORE.heavy>
27

>  <SCORE.norm>
-0.554978

>  <RMSD>
17.713

$$$$
ligand
 OpenBabel02271912153D
libRbt.so/2013.1/901 2013/11/27
 27 29  0  0  0  0  0  0  0  0999 V2000
    5.4263  -13.7534   11.0204 N   0  0  0  0  0  0  0  0  0  0  0  0
    4.1418  -14.2024   10.5179 C   0  0  2  0  0  0  0  0  0  0  0  0
    3.3259  -12.9808   10.2264 C   0  0  0  0  0  0  0  0  0  0  0  0
    2.0802  -13.0748   10.1857 O   0  0  0  0  0  0  0  0  0  0  0  0
    3.4363  -15.0770   11.5579 C   0  0  0  0  0  0  0  0  0  0  0  0
    4.2065  -16.3930   11.8060 C   0  0  0  0  0  0  0  0  0  0  0  0
    4.2188  -17.4767   10.5251 S   0  0  2  0  0  0  0  0  0  0  0  0
    4.4198  -19.0184   11.1095 C   0  0  0  0  0  0  0  0  0  0  0  0
    5.4599  -17.0779    9.4531 C   0  0  0  0  0  0  0  0  0  0  0  0
    5.1454  -17.4038    7.9777 C   0  0  1  0  0  0  0  0  0  0  0  0
    6.1342  -16.9012    7.0636 O   0  0  0  0  0  0  0  0  0  0  0  0
    5.1569  -18.8920    7.6679 C   0  0  1  0  0  0  0  0  0  0  0  0
    4.0311  -19.6719    8.1184 O   0  0  0  0  0  0  0  0  0  0  0  0
    5.3159  -18.8600    6.1679 C   0  0  1  0  0  0  0  0  0  0  0  0
    4.1049  -18.4251    5.5569 O   0  0  0  0  0  0  0  0  0  0  0  0
    6.3630  -17.8028    5.9782 C   0  0  2  0  0  0  0  0  0  0  0  0
    3.9040  -11.8802   10.0599 O   0  0  0  0  0  0  0  0  0  0  0  0
   11.6246  -17.1532    5.5654 N   0  0  0  0  0  0  0  0  0  0  0  0
   10.6428  -16.2203    5.5163 C   0  0  0  0  0  0  0  0  0  0  0  0
    9.3399  -16.5290    5.6285 N   0  0  0  0  0  0  0  0  0  0  0  0
    8.9258  -17.7866    5.8188 C   0  0  0  0  0  0  0  0  0  0  0  0
    9.9348  -18.8318    5.9028 C   0  0  0  0  0  0  0  0  0  0  0  0
   11.3677  -18.4847    5.7601 C   0  0  0  0  0  0  0  0  0  0  0  0
   12.3682  -19.4320    5.8255 N   0  0  0  0  0  0  0  0  0  0  0  0
    9.2744  -19.9499    6.1020 N   0  0  0  0  0  0  0  0  0  0  0  0
    7.9619  -19.6807    6.1265 C   0  0  0  0  0  0  0  0  0  0  0  0
    7.7435  -18.3766    5.9616 N   0  0  0  0  0  0  0  0  0  0  0  0
  2  1  1  1  0  0  0
  2  3  1  0  0  0  0
  2  5  1  0  0  0  0
  3  4  1  0  0  0  0
  3 17  1  0  0  0  0
  5  6  1  0  0  0  0
  7  6  1  1  0  0  0
  7  8  1  0  0  0  0
  7  9  1  0  0  0  0
 10  9  1  1  0  0  0
 10 11  1  0  0  0  0
 10 12  1  0  0  0  0
 11 16  1  0  0  0  0
 12 13  1  6  0  0  0
 12 14  1  0  0  0  0
 14 15  1  6  0  0  0
 14 16  1  0  0  0  0
 16 27  1  1  0  0  0
 18 19  2  0  0  0  0
 18 23  1  0  0  0  0
 19 20  1  0  0  0  0
 20 21  2  0  0  0  0
 21 22  1  0  0  0  0
 21 27  1  0  0  0  0
 22 23  2  0  0  0  0
 22 25  1  0  0  0  0
 23 24  1  0  0  0  0
 25 26  2  0  0  0  0
 26 27  1  0  0  0  0
M  END
>  <CHROM.1>
-157.87793489,-65.51758812,-68.27388222,-153.91777541,-147.76338079,172.35991987
-62.99173181,6.29493194,-17.06967146,8.07848627,-2.53279232,-0.50278005,-2.81316383

>  <Name>
ligand

>  <RI>
0

>  <Rbt.Current_Directory>
/home/itssahil/PROJECTS/Mol_Feturizer/Test_systems_manuscript/rnas/4kqy

>  <Rbt.Executable>
rbdock ($Id: //depot/dev/client3/rdock/2013.1/src/exe/rbdock.cxx#4 $)

>  <Rbt.Library>
libRbt.so (2013.1, Build901 2013/11/27)

>  <Rbt.Parameter_File>
/export/apps/rDock/src/rDock_2013.1_src/data/scripts/dock_solv.prm

>  <Rbt.Receptor>
prm/blind_docking_80.prm

>  <SCORE>
-22.2149

>  <SCORE.INTER>
-23.0504

>  <SCORE.INTER.CONST>
1

>  <SCORE.INTER.POLAR>
0

>  <SCORE.INTER.ROT>
7

>  <SCORE.INTER.SOLV>
16.4928

>  <SCORE.INTER.VDW>
-29.1312

>  <SCORE.INTER.norm>
-0.853718

>  <SCORE.INTRA>
0.835497

>  <SCORE.INTRA.DIHEDRAL>
-2.66241

>  <SCORE.INTRA.DIHEDRAL.0>
10.4103

>  <SCORE.INTRA.POLAR>
0

>  <SCORE.INTRA.POLAR.0>
0

>  <SCORE.INTRA.REPUL>
0

>  <SCORE.INTRA.REPUL.0>
0

>  <SCORE.INTRA.SOLV>
1.59502

>  <SCORE.INTRA.SOLV.lig_0>
-49.5008

>  <SCORE.INTRA.VDW>
1.36919

>  <SCORE.INTRA.VDW.0>
-2.6946

>  <SCORE.INTRA.norm>
0.0309443

>  <SCORE.RESTR>
0

>  <SCORE.RESTR.CAVITY>
0

>  <SCORE.RESTR.norm>
0

>  <SCORE.SYSTEM>
0

>  <SCORE.SYSTEM.CONST>
0

>  <SCORE.SYSTEM.DIHEDRAL>
0

>  <SCORE.SYSTEM.SOLV>
0

>  <SCORE.SYSTEM.norm>
0

>  <SCORE.heavy>
27

>  <SCORE.norm>
-0.822774

>  <RMSD>
17.782

$$$$
ligand
 OpenBabel02271912153D
libRbt.so/2013.1/901 2013/11/27
 27 29  0  0  0  0  0  0  0  0999 V2000
    0.9568  -25.8270    5.7117 N   0  0  0  0  0  0  0  0  0  0  0  0
    0.9106  -24.4336    5.3113 C   0  0  2  0  0  0  0  0  0  0  0  0
   -0.0125  -24.3383    4.1357 C   0  0  0  0  0  0  0  0  0  0  0  0
   -1.1845  -23.9411    4.3111 O   0  0  0  0  0  0  0  0  0  0  0  0
    2.3089  -23.9396    4.9303 C   0  0  0  0  0  0  0  0  0  0  0  0
    2.2865  -22.4561    4.4997 C   0  0  0  0  0  0  0  0  0  0  0  0
    1.8516  -21.3621    5.6952 S   0  0  2  0  0  0  0  0  0  0  0  0
    0.2038  -21.1538    5.6786 C   0  0  0  0  0  0  0  0  0  0  0  0
    2.6419  -19.8931    5.4385 C   0  0  0  0  0  0  0  0  0  0  0  0
    4.1625  -19.9433    5.6974 C   0  0  1  0  0  0  0  0  0  0  0  0
    4.7478  -18.6442    5.8864 O   0  0  0  0  0  0  0  0  0  0  0  0
    4.5361  -20.6489    6.9911 C   0  0  1  0  0  0  0  0  0  0  0  0
    4.4480  -22.0878    7.0108 O   0  0  0  0  0  0  0  0  0  0  0  0
    5.9336  -20.1201    7.1997 C   0  0  1  0  0  0  0  0  0  0  0  0
    6.8248  -20.7081    6.2568 O   0  0  0  0  0  0  0  0  0  0  0  0
    5.7774  -18.6633    6.8780 C   0  0  2  0  0  0  0  0  0  0  0  0
    0.4151  -24.6282    2.9927 O   0  0  0  0  0  0  0  0  0  0  0  0
    4.0997  -18.3670   11.9152 N   0  0  0  0  0  0  0  0  0  0  0  0
    4.2551  -19.4607   11.1301 C   0  0  0  0  0  0  0  0  0  0  0  0
    4.6852  -19.3885    9.8592 N   0  0  0  0  0  0  0  0  0  0  0  0
    5.0107  -18.2232    9.2887 C   0  0  0  0  0  0  0  0  0  0  0  0
    4.8865  -17.0139   10.0885 C   0  0  0  0  0  0  0  0  0  0  0  0
    4.3945  -17.1009   11.4829 C   0  0  0  0  0  0  0  0  0  0  0  0
    4.2510  -15.9895   12.2873 N   0  0  0  0  0  0  0  0  0  0  0  0
    5.2748  -16.0297    9.3096 N   0  0  0  0  0  0  0  0  0  0  0  0
    5.6028  -16.5288    8.1099 C   0  0  0  0  0  0  0  0  0  0  0  0
    5.4512  -17.8524    8.0908 N   0  0  0  0  0  0  0  0  0  0  0  0
  2  1  1  6  0  0  0
  2  3  1  0  0  0  0
  2  5  1  0  0  0  0
  3  4  1  0  0  0  0
  3 17  1  0  0  0  0
  5  6  1  0  0  0  0
  7  6  1  6  0  0  0
  7  8  1  0  0  0  0
  7  9  1  0  0  0  0
 10  9  1  1  0  0  0
 10 11  1  0  0  0  0
 10 12  1  0  0  0  0
 11 16  1  0  0  0  0
 12 13  1  6  0  0  0
 12 14  1  0  0  0  0
 14 15  1  6  0  0  0
 14 16  1  0  0  0  0
 16 27  1  1  0  0  0
 18 19  2  0  0  0  0
 18 23  1  0  0  0  0
 19 20  1  0  0  0  0
 20 21  2  0  0  0  0
 21 22  1  0  0  0  0
 21 27  1  0  0  0  0
 22 23  2  0  0  0  0
 22 25  1  0  0  0  0
 23 24  1  0  0  0  0
 25 26  2  0  0  0  0
 26 27  1  0  0  0  0
M  END
>  <CHROM.1>
100.46127851,-179.99272277,64.50058478,-89.63178353,-69.94902106,-161.68349424
100.80820462,3.38562539,-20.45902622,7.09497851,2.13848771,-0.56104361,-2.11053104

>  <Name>
ligand

>  <RI>
0

>  <Rbt.Current_Directory>
/home/itssahil/PROJECTS/Mol_Feturizer/Test_systems_manuscript/rnas/4kqy

>  <Rbt.Executable>
rbdock ($Id: //depot/dev/client3/rdock/2013.1/src/exe/rbdock.cxx#4 $)

>  <Rbt.Library>
libRbt.so (2013.1, Build901 2013/11/27)

>  <Rbt.Parameter_File>
/export/apps/rDock/src/rDock_2013.1_src/data/scripts/dock_solv.prm

>  <Rbt.Receptor>
prm/blind_docking_60.prm

>  <SCORE>
-19.8468

>  <SCORE.INTER>
-18.3003

>  <SCORE.INTER.CONST>
1

>  <SCORE.INTER.POLAR>
0

>  <SCORE.INTER.ROT>
7

>  <SCORE.INTER.SOLV>
14.4179

>  <SCORE.INTER.VDW>
-25.2728

>  <SCORE.INTER.norm>
-0.677788

>  <SCORE.INTRA>
-1.5465

>  <SCORE.INTRA.DIHEDRAL>
-3.6259

>  <SCORE.INTRA.DIHEDRAL.0>
10.4103

>  <SCORE.INTRA.POLAR>
0

>  <SCORE.INTRA.POLAR.0>
0

>  <SCORE.INTRA.REPUL>
0

>  <SCORE.INTRA.REPUL.0>
0

>  <SCORE.INTRA.SOLV>
-0.0143324

>  <SCORE.INTRA.SOLV.lig_0>
-49.5008

>  <SCORE.INTRA.VDW>
0.27362

>  <SCORE.INTRA.VDW.0>
-2.6946

>  <SCORE.INTRA.norm>
-0.0572777

>  <SCORE.RESTR>
0

>  <SCORE.RESTR.CAVITY>
0

>  <SCORE.RESTR.norm>
0

>  <SCORE.SYSTEM>
0

>  <SCORE.SYSTEM.CONST>
0

>  <SCORE.SYSTEM.DIHEDRAL>
0

>  <SCORE.SYSTEM.SOLV>
0

>  <SCORE.SYSTEM.norm>
0

>  <SCORE.heavy>
27

>  <SCORE.norm>
-0.735066

>  <RMSD>
17.815

$$$$
ligand
 OpenBabel02271912153D
libRbt.so/2013.1/901 2013/11/27
 27 29  0  0  0  0  0  0  0  0999 V2000
    6.2204  -13.8335    9.3457 N   0  0  0  0  0  0  0  0  0  0  0  0
    6.1085  -12.6975   10.2408 C   0  0  2  0  0  0  0  0  0  0  0  0
    4.6569  -12.5309   10.5696 C   0  0  0  0  0  0  0  0  0  0  0  0
    4.3143  -11.6531   11.3908 O   0  0  0  0  0  0  0  0  0  0  0  0
    6.6500  -11.4322    9.5701 C   0  0  0  0  0  0  0  0  0  0  0  0
    5.8342  -11.0669    8.3101 C   0  0  0  0  0  0  0  0  0  0  0  0
    6.1474   -9.5525    7.6592 S   0  0  2  0  0  0  0  0  0  0  0  0
    4.9567   -9.1646    6.5681 C   0  0  0  0  0  0  0  0  0  0  0  0
    7.6621   -9.5543    6.9146 C   0  0  0  0  0  0  0  0  0  0  0  0
    8.8413   -9.7614    7.8883 C   0  0  1  0  0  0  0  0  0  0  0  0
   10.1191   -9.7952    7.2311 O   0  0  0  0  0  0  0  0  0  0  0  0
    9.0238   -8.6188    8.8742 C   0  0  1  0  0  0  0  0  0  0  0  0
    8.0883   -8.5308    9.9678 O   0  0  0  0  0  0  0  0  0  0  0  0
   10.4494   -8.8543    9.3082 C   0  0  1  0  0  0  0  0  0  0  0  0
   10.5218  -10.0029   10.1474 O   0  0  0  0  0  0  0  0  0  0  0  0
   11.1350   -9.1576    8.0089 C   0  0  2  0  0  0  0  0  0  0  0  0
    3.8087  -13.2526    9.9926 O   0  0  0  0  0  0  0  0  0  0  0  0
   10.4376   -4.2867    5.9929 N   0  0  0  0  0  0  0  0  0  0  0  0
    9.5209   -5.1268    6.5318 C   0  0  0  0  0  0  0  0  0  0  0  0
    9.8383   -6.3451    7.0012 N   0  0  0  0  0  0  0  0  0  0  0  0
   11.0951   -6.8028    6.9858 C   0  0  0  0  0  0  0  0  0  0  0  0
   12.1296   -5.9374    6.4396 C   0  0  0  0  0  0  0  0  0  0  0  0
   11.7679   -4.6030    5.9078 C   0  0  0  0  0  0  0  0  0  0  0  0
   12.7032   -3.7414    5.3734 N   0  0  0  0  0  0  0  0  0  0  0  0
   13.2532   -6.6086    6.5537 N   0  0  0  0  0  0  0  0  0  0  0  0
   12.9912   -7.8044    7.0989 C   0  0  0  0  0  0  0  0  0  0  0  0
   11.6919   -7.9273    7.3675 N   0  0  0  0  0  0  0  0  0  0  0  0
  2  1  1  6  0  0  0
  2  3  1  0  0  0  0
  2  5  1  0  0  0  0
  3  4  1  0  0  0  0
  3 17  1  0  0  0  0
  5  6  1  0  0  0  0
  7  6  1  6  0  0  0
  7  8  1  0  0  0  0
  7  9  1  0  0  0  0
 10  9  1  6  0  0  0
 10 11  1  0  0  0  0
 10 12  1  0  0  0  0
 11 16  1  0  0  0  0
 12 13  1  1  0  0  0
 12 14  1  0  0  0  0
 14 15  1  1  0  0  0
 14 16  1  0  0  0  0
 16 27  1  6  0  0  0
 18 19  2  0  0  0  0
 18 23  1  0  0  0  0
 19 20  1  0  0  0  0
 20 21  2  0  0  0  0
 21 22  1  0  0  0  0
 21 27  1  0  0  0  0
 22 23  2  0  0  0  0
 22 25  1  0  0  0  0
 23 24  1  0  0  0  0
 25 26  2  0  0  0  0
 26 27  1  0  0  0  0
M  END
>  <CHROM.1>
176.10642888,62.30359620,168.95000279,-166.18427531,-65.17168756,178.45179887
59.03020472,8.66351762,-8.95881684,8.08147627,-2.33091018,-0.13328486,-0.60123107

>  <Name>
ligand

>  <RI>
0

>  <Rbt.Current_Directory>
/home/itssahil/PROJECTS/Mol_Feturizer/Test_systems_manuscript/rnas/4kqy

>  <Rbt.Executable>
rbdock ($Id: //depot/dev/client3/rdock/2013.1/src/exe/rbdock.cxx#4 $)

>  <Rbt.Library>
libRbt.so (2013.1, Build901 2013/11/27)

>  <Rbt.Parameter_File>
/export/apps/rDock/src/rDock_2013.1_src/data/scripts/dock_solv.prm

>  <Rbt.Receptor>
prm/blind_docking_20.prm

>  <SCORE>
-11.64

>  <SCORE.INTER>
-8.48457

>  <SCORE.INTER.CONST>
1

>  <SCORE.INTER.POLAR>
0

>  <SCORE.INTER.ROT>
7

>  <SCORE.INTER.SOLV>
14.5149

>  <SCORE.INTER.VDW>
-18.7613

>  <SCORE.INTER.norm>
-0.314243

>  <SCORE.INTRA>
-3.15538

>  <SCORE.INTRA.DIHEDRAL>
-6.61886

>  <SCORE.INTRA.DIHEDRAL.0>
10.4103

>  <SCORE.INTRA.POLAR>
0

>  <SCORE.INTRA.POLAR.0>
0

>  <SCORE.INTRA.REPUL>
0

>  <SCORE.INTRA.REPUL.0>
0

>  <SCORE.INTRA.SOLV>
0.570088

>  <SCORE.INTRA.SOLV.lig_0>
-49.5008

>  <SCORE.INTRA.VDW>
-0.130992

>  <SCORE.INTRA.VDW.0>
-2.6946

>  <SCORE.INTRA.norm>
-0.116866

>  <SCORE.RESTR>
0

>  <SCORE.RESTR.CAVITY>
0

>  <SCORE.RESTR.norm>
0

>  <SCORE.SYSTEM>
0

>  <SCORE.SYSTEM.CONST>
0

>  <SCORE.SYSTEM.DIHEDRAL>
0

>  <SCORE.SYSTEM.SOLV>
0

>  <SCORE.SYSTEM.norm>
0

>  <SCORE.heavy>
27

>  <SCORE.norm>
-0.431109

>  <RMSD>
17.960

$$$$
ligand
 OpenBabel02271912153D
libRbt.so/2013.1/901 2013/11/27
 27 29  0  0  0  0  0  0  0  0999 V2000
    4.0145  -13.5571   12.5145 N   0  0  0  0  0  0  0  0  0  0  0  0
    3.5014  -13.5601   11.1577 C   0  0  2  0  0  0  0  0  0  0  0  0
    2.0218  -13.7769   11.2416 C   0  0  0  0  0  0  0  0  0  0  0  0
    1.2580  -13.0282   10.5949 O   0  0  0  0  0  0  0  0  0  0  0  0
    4.1565  -14.6767   10.3403 C   0  0  0  0  0  0  0  0  0  0  0  0
    4.1536  -16.0166   11.1093 C   0  0  0  0  0  0  0  0  0  0  0  0
    4.2900  -17.3948   10.1621 S   0  0  2  0  0  0  0  0  0  0  0  0
    4.4633  -18.7233   11.1438 C   0  0  0  0  0  0  0  0  0  0  0  0
    5.6113  -17.2438    9.1229 C   0  0  0  0  0  0  0  0  0  0  0  0
    5.4539  -18.0063    7.7904 C   0  0  1  0  0  0  0  0  0  0  0  0
    6.4279  -17.6284    6.8033 O   0  0  0  0  0  0  0  0  0  0  0  0
    5.6940  -19.5023    7.9139 C   0  0  1  0  0  0  0  0  0  0  0  0
    4.6569  -20.2916    8.5306 O   0  0  0  0  0  0  0  0  0  0  0  0
    5.9564  -19.8592    6.4717 C   0  0  1  0  0  0  0  0  0  0  0  0
    4.7449  -19.7998    5.7249 O   0  0  0  0  0  0  0  0  0  0  0  0
    6.8582  -18.7471    6.0244 C   0  0  2  0  0  0  0  0  0  0  0  0
    1.5771  -14.7240   11.9332 O   0  0  0  0  0  0  0  0  0  0  0  0
   11.6958  -19.6242    3.9984 N   0  0  0  0  0  0  0  0  0  0  0  0
   10.5462  -19.3047    3.3557 C   0  0  0  0  0  0  0  0  0  0  0  0
    9.3816  -19.1168    3.9988 N   0  0  0  0  0  0  0  0  0  0  0  0
    9.2859  -19.2132    5.3296 C   0  0  0  0  0  0  0  0  0  0  0  0
   10.4918  -19.5320    6.0790 C   0  0  0  0  0  0  0  0  0  0  0  0
   11.7676  -19.7553    5.3602 C   0  0  0  0  0  0  0  0  0  0  0  0
   12.9412  -20.0652    6.0154 N   0  0  0  0  0  0  0  0  0  0  0  0
   10.1317  -19.5528    7.3422 N   0  0  0  0  0  0  0  0  0  0  0  0
    8.8190  -19.2960    7.4240 C   0  0  0  0  0  0  0  0  0  0  0  0
    8.3023  -19.0847    6.2141 N   0  0  0  0  0  0  0  0  0  0  0  0
  2  1  1  1  0  0  0
  2  3  1  0  0  0  0
  2  5  1  0  0  0  0
  3  4  1  0  0  0  0
  3 17  1  0  0  0  0
  5  6  1  0  0  0  0
  7  6  1  1  0  0  0
  7  8  1  0  0  0  0
  7  9  1  0  0  0  0
 10  9  1  1  0  0  0
 10 11  1  0  0  0  0
 10 12  1  0  0  0  0
 11 16  1  0  0  0  0
 12 13  1  6  0  0  0
 12 14  1  0  0  0  0
 14 15  1  6  0  0  0
 14 16  1  0  0  0  0
 16 27  1  1  0  0  0
 18 19  2  0  0  0  0
 18 23  1  0  0  0  0
 19 20  1  0  0  0  0
 20 21  2  0  0  0  0
 21 22  1  0  0  0  0
 21 27  1  0  0  0  0
 22 23  2  0  0  0  0
 22 25  1  0  0  0  0
 23 24  1  0  0  0  0
 25 26  2  0  0  0  0
 26 27  1  0  0  0  0
M  END
>  <CHROM.1>
131.64741351,47.32552411,157.80207989,172.92475224,-150.39660661,166.55664039
-125.25600878,6.36000899,-17.76009713,8.09299188,-2.38808435,-0.30276650
-2.55974179

>  <Name>
ligand

>  <RI>
0

>  <Rbt.Current_Directory>
/home/itssahil/PROJECTS/Mol_Feturizer/Test_systems_manuscript/rnas/4kqy

>  <Rbt.Executable>
rbdock ($Id: //depot/dev/client3/rdock/2013.1/src/exe/rbdock.cxx#4 $)

>  <Rbt.Library>
libRbt.so (2013.1, Build901 2013/11/27)

>  <Rbt.Parameter_File>
/export/apps/rDock/src/rDock_2013.1_src/data/scripts/dock_solv.prm

>  <Rbt.Receptor>
prm/blind_docking_40.prm

>  <SCORE>
-18.6213

>  <SCORE.INTER>
-18.5919

>  <SCORE.INTER.CONST>
1

>  <SCORE.INTER.POLAR>
0

>  <SCORE.INTER.ROT>
7

>  <SCORE.INTER.SOLV>
17.6146

>  <SCORE.INTER.VDW>
-26.5328

>  <SCORE.INTER.norm>
-0.688587

>  <SCORE.INTRA>
-0.0294861

>  <SCORE.INTRA.DIHEDRAL>
-2.36213

>  <SCORE.INTRA.DIHEDRAL.0>
10.4103

>  <SCORE.INTRA.POLAR>
0

>  <SCORE.INTRA.POLAR.0>
0

>  <SCORE.INTRA.REPUL>
0

>  <SCORE.INTRA.REPUL.0>
0

>  <SCORE.INTRA.SOLV>
0.474236

>  <SCORE.INTRA.SOLV.lig_0>
-49.5008

>  <SCORE.INTRA.VDW>
0.91446

>  <SCORE.INTRA.VDW.0>
-2.6946

>  <SCORE.INTRA.norm>
-0.00109208

>  <SCORE.RESTR>
0

>  <SCORE.RESTR.CAVITY>
0

>  <SCORE.RESTR.norm>
0

>  <SCORE.SYSTEM>
0

>  <SCORE.SYSTEM.CONST>
0

>  <SCORE.SYSTEM.DIHEDRAL>
0

>  <SCORE.SYSTEM.SOLV>
0

>  <SCORE.SYSTEM.norm>
0

>  <SCORE.heavy>
27

>  <SCORE.norm>
-0.68968

>  <RMSD>
18.284

$$$$
ligand
 OpenBabel02271912153D
libRbt.so/2013.1/901 2013/11/27
 27 29  0  0  0  0  0  0  0  0999 V2000
   12.0141   -2.2326    4.5567 N   0  0  0  0  0  0  0  0  0  0  0  0
   12.0122   -3.5258    5.2138 C   0  0  2  0  0  0  0  0  0  0  0  0
   11.6144   -3.3000    6.6400 C   0  0  0  0  0  0  0  0  0  0  0  0
   10.4605   -3.6093    7.0076 O   0  0  0  0  0  0  0  0  0  0  0  0
   13.4025   -4.1633    5.1445 C   0  0  0  0  0  0  0  0  0  0  0  0
   13.3139   -5.7005    5.0188 C   0  0  0  0  0  0  0  0  0  0  0  0
   12.9277   -6.5209    6.4306 S   0  0  2  0  0  0  0  0  0  0  0  0
   13.3637   -8.1163    6.2777 C   0  0  0  0  0  0  0  0  0  0  0  0
   11.2740   -6.3804    6.7372 C   0  0  0  0  0  0  0  0  0  0  0  0
   10.9082   -6.4034    8.2364 C   0  0  1  0  0  0  0  0  0  0  0  0
    9.6056   -5.8607    8.5096 O   0  0  0  0  0  0  0  0  0  0  0  0
   10.7932   -7.8052    8.8129 C   0  0  1  0  0  0  0  0  0  0  0  0
   12.0190   -8.5218    9.0634 O   0  0  0  0  0  0  0  0  0  0  0  0
    9.9844   -7.5267   10.0556 C   0  0  1  0  0  0  0  0  0  0  0  0
   10.7885   -6.8582   11.0228 O   0  0  0  0  0  0  0  0  0  0  0  0
    8.9387   -6.5762    9.5522 C   0  0  2  0  0  0  0  0  0  0  0  0
   12.4546   -2.8348    7.4467 O   0  0  0  0  0  0  0  0  0  0  0  0
    6.5740  -10.1081    6.3569 N   0  0  0  0  0  0  0  0  0  0  0  0
    7.8809   -9.7550    6.4201 C   0  0  0  0  0  0  0  0  0  0  0  0
    8.3443   -8.8326    7.2802 N   0  0  0  0  0  0  0  0  0  0  0  0
    7.5409   -8.2131    8.1521 C   0  0  0  0  0  0  0  0  0  0  0  0
    6.1292   -8.5657    8.1486 C   0  0  0  0  0  0  0  0  0  0  0  0
    5.6240   -9.5706    7.1847 C   0  0  0  0  0  0  0  0  0  0  0  0
    4.2964   -9.9416    7.1307 N   0  0  0  0  0  0  0  0  0  0  0  0
    5.5770   -7.8366    9.0917 N   0  0  0  0  0  0  0  0  0  0  0  0
    6.5185   -7.0635    9.6502 C   0  0  0  0  0  0  0  0  0  0  0  0
    7.7075   -7.2886    9.0923 N   0  0  0  0  0  0  0  0  0  0  0  0
  2  1  1  6  0  0  0
  2  3  1  0  0  0  0
  2  5  1  0  0  0  0
  3  4  1  0  0  0  0
  3 17  1  0  0  0  0
  5  6  1  0  0  0  0
  7  6  1  6  0  0  0
  7  8  1  0  0  0  0
  7  9  1  0  0  0  0
 10  9  1  6  0  0  0
 10 11  1  0  0  0  0
 10 12  1  0  0  0  0
 11 16  1  0  0  0  0
 12 13  1  1  0  0  0
 12 14  1  0  0  0  0
 14 15  1  1  0  0  0
 14 16  1  0  0  0  0
 16 27  1  6  0  0  0
 18 19  2  0  0  0  0
 18 23  1  0  0  0  0
 19 20  1  0  0  0  0
 20 21  2  0  0  0  0
 21 22  1  0  0  0  0
 21 27  1  0  0  0  0
 22 23  2  0  0  0  0
 22 25  1  0  0  0  0
 23 24  1  0  0  0  0
 25 26  2  0  0  0  0
 26 27  1  0  0  0  0
M  END
>  <CHROM.1>
104.58916346,-145.94363659,-76.12684703,-161.07661099,-149.61987957,160.95428709
57.92978527,9.95570850,-6.71706457,7.52040977,0.64542809,-0.17825476,-0.65563569

>  <Name>
ligand

>  <RI>
0

>  <Rbt.Current_Directory>
/home/itssahil/PROJECTS/Mol_Feturizer/Test_systems_manuscript/rnas/4kqy

>  <Rbt.Executable>
rbdock ($Id: //depot/dev/client3/rdock/2013.1/src/exe/rbdock.cxx#4 $)

>  <Rbt.Library>
libRbt.so (2013.1, Build901 2013/11/27)

>  <Rbt.Parameter_File>
/export/apps/rDock/src/rDock_2013.1_src/data/scripts/dock_solv.prm

>  <Rbt.Receptor>
prm/blind_docking_20.prm

>  <SCORE>
-12.4081

>  <SCORE.INTER>
-11.7401

>  <SCORE.INTER.CONST>
1

>  <SCORE.INTER.POLAR>
0

>  <SCORE.INTER.ROT>
7

>  <SCORE.INTER.SOLV>
14.4839

>  <SCORE.INTER.VDW>
-20.9214

>  <SCORE.INTER.norm>
-0.434818

>  <SCORE.INTRA>
-0.668022

>  <SCORE.INTRA.DIHEDRAL>
1.37711

>  <SCORE.INTRA.DIHEDRAL.0>
10.4103

>  <SCORE.INTRA.POLAR>
0

>  <SCORE.INTRA.POLAR.0>
0

>  <SCORE.INTRA.REPUL>
0

>  <SCORE.INTRA.REPUL.0>
0

>  <SCORE.INTRA.SOLV>
-0.0761527

>  <SCORE.INTRA.SOLV.lig_0>
-49.5008

>  <SCORE.INTRA.VDW>
-1.3185

>  <SCORE.INTRA.VDW.0>
-2.6946

>  <SCORE.INTRA.norm>
-0.0247416

>  <SCORE.RESTR>
0

>  <SCORE.RESTR.CAVITY>
0

>  <SCORE.RESTR.norm>
0

>  <SCORE.SYSTEM>
0

>  <SCORE.SYSTEM.CONST>
0

>  <SCORE.SYSTEM.DIHEDRAL>
0

>  <SCORE.SYSTEM.SOLV>
0

>  <SCORE.SYSTEM.norm>
0

>  <SCORE.heavy>
27

>  <SCORE.norm>
-0.45956

>  <RMSD>
18.753

$$$$
ligand
 OpenBabel02271912153D
libRbt.so/2013.1/901 2013/11/27
 27 29  0  0  0  0  0  0  0  0999 V2000
    3.1275  -10.7084    9.1405 N   0  0  0  0  0  0  0  0  0  0  0  0
    4.4050  -10.3855    8.5340 C   0  0  2  0  0  0  0  0  0  0  0  0
    5.4668  -10.6814    9.5479 C   0  0  0  0  0  0  0  0  0  0  0  0
    5.3592  -10.2080   10.6997 O   0  0  0  0  0  0  0  0  0  0  0  0
    4.4492   -8.9083    8.1337 C   0  0  0  0  0  0  0  0  0  0  0  0
    5.7697   -8.5572    7.4130 C   0  0  0  0  0  0  0  0  0  0  0  0
    7.1130   -8.3900    8.4044 S   0  0  2  0  0  0  0  0  0  0  0  0
    6.8759   -7.1160    9.4434 C   0  0  0  0  0  0  0  0  0  0  0  0
    8.4905   -8.1428    7.4611 C   0  0  0  0  0  0  0  0  0  0  0  0
    9.8153   -8.4537    8.1891 C   0  0  1  0  0  0  0  0  0  0  0  0
   10.8831   -8.8082    7.2946 O   0  0  0  0  0  0  0  0  0  0  0  0
   10.4016   -7.2578    8.9219 C   0  0  1  0  0  0  0  0  0  0  0  0
    9.7724   -6.8638   10.1578 O   0  0  0  0  0  0  0  0  0  0  0  0
   11.8329   -7.7074    9.0821 C   0  0  1  0  0  0  0  0  0  0  0  0
   11.9144   -8.7408   10.0591 O   0  0  0  0  0  0  0  0  0  0  0  0
   12.1402   -8.2881    7.7336 C   0  0  2  0  0  0  0  0  0  0  0  0
    6.4278  -11.4236    9.2336 O   0  0  0  0  0  0  0  0  0  0  0  0
   12.3598   -3.2992    5.9062 N   0  0  0  0  0  0  0  0  0  0  0  0
   11.5801   -3.8155    6.8871 C   0  0  0  0  0  0  0  0  0  0  0  0
   11.6234   -5.1099    7.2451 N   0  0  0  0  0  0  0  0  0  0  0  0
   12.4620   -5.9756    6.6648 C   0  0  0  0  0  0  0  0  0  0  0  0
   13.3418   -5.4764    5.6187 C   0  0  0  0  0  0  0  0  0  0  0  0
   13.2746   -4.0519    5.2182 C   0  0  0  0  0  0  0  0  0  0  0  0
   14.0790   -3.5227    4.2304 N   0  0  0  0  0  0  0  0  0  0  0  0
   14.0587   -6.5076    5.2334 N   0  0  0  0  0  0  0  0  0  0  0  0
   13.6809   -7.5855    5.9343 C   0  0  0  0  0  0  0  0  0  0  0  0
   12.7214   -7.2716    6.8040 N   0  0  0  0  0  0  0  0  0  0  0  0
  2  1  1  1  0  0  0
  2  3  1  0  0  0  0
  2  5  1  0  0  0  0
  3  4  1  0  0  0  0
  3 17  1  0  0  0  0
  5  6  1  0  0  0  0
  7  6  1  6  0  0  0
  7  8  1  0  0  0  0
  7  9  1  0  0  0  0
 10  9  1  6  0  0  0
 10 11  1  0  0  0  0
 10 12  1  0  0  0  0
 11 16  1  0  0  0  0
 12 13  1  1  0  0  0
 12 14  1  0  0  0  0
 14 15  1  1  0  0  0
 14 16  1  0  0  0  0
 16 27  1  6  0  0  0
 18 19  2  0  0  0  0
 18 23  1  0  0  0  0
 19 20  1  0  0  0  0
 20 21  2  0  0  0  0
 21 22  1  0  0  0  0
 21 27  1  0  0  0  0
 22 23  2  0  0  0  0
 22 25  1  0  0  0  0
 23 24  1  0  0  0  0
 25 26  2  0  0  0  0
 26 27  1  0  0  0  0
M  END
>  <CHROM.1>
-51.22499542,-176.79374028,-76.71306528,-63.28393395,-160.10634956,154.48531319
80.99693267,9.54642006,-7.63736507,7.85151274,2.52996368,0.00868343,2.53675240

>  <Name>
ligand

>  <RI>
0

>  <Rbt.Current_Directory>
/home/itssahil/PROJECTS/Mol_Feturizer/Test_systems_manuscript/rnas/4kqy

>  <Rbt.Executable>
rbdock ($Id: //depot/dev/client3/rdock/2013.1/src/exe/rbdock.cxx#4 $)

>  <Rbt.Library>
libRbt.so (2013.1, Build901 2013/11/27)

>  <Rbt.Parameter_File>
/export/apps/rDock/src/rDock_2013.1_src/data/scripts/dock_solv.prm

>  <Rbt.Receptor>
prm/blind_docking_20.prm

>  <SCORE>
-12.2292

>  <SCORE.INTER>
-9.98833

>  <SCORE.INTER.CONST>
1

>  <SCORE.INTER.POLAR>
0

>  <SCORE.INTER.ROT>
7

>  <SCORE.INTER.SOLV>
18.9817

>  <SCORE.INTER.VDW>
-21.2528

>  <SCORE.INTER.norm>
-0.369938

>  <SCORE.INTRA>
-2.24089

>  <SCORE.INTRA.DIHEDRAL>
-3.46056

>  <SCORE.INTRA.DIHEDRAL.0>
10.4103

>  <SCORE.INTRA.POLAR>
0

>  <SCORE.INTRA.POLAR.0>
0

>  <SCORE.INTRA.REPUL>
0

>  <SCORE.INTRA.REPUL.0>
0

>  <SCORE.INTRA.SOLV>
-0.235985

>  <SCORE.INTRA.SOLV.lig_0>
-49.5008

>  <SCORE.INTRA.VDW>
-0.392617

>  <SCORE.INTRA.VDW.0>
-2.6946

>  <SCORE.INTRA.norm>
-0.0829959

>  <SCORE.RESTR>
0

>  <SCORE.RESTR.CAVITY>
0

>  <SCORE.RESTR.norm>
0

>  <SCORE.SYSTEM>
0

>  <SCORE.SYSTEM.CONST>
0

>  <SCORE.SYSTEM.DIHEDRAL>
0

>  <SCORE.SYSTEM.SOLV>
0

>  <SCORE.SYSTEM.norm>
0

>  <SCORE.heavy>
27

>  <SCORE.norm>
-0.452934

>  <RMSD>
19.044

$$$$
ligand
 OpenBabel02271912153D
libRbt.so/2013.1/901 2013/11/27
 27 29  0  0  0  0  0  0  0  0999 V2000
    5.0368  -10.0652    9.1468 N   0  0  0  0  0  0  0  0  0  0  0  0
    6.1277   -9.5376    8.3494 C   0  0  2  0  0  0  0  0  0  0  0  0
    5.7011   -9.5992    6.9150 C   0  0  0  0  0  0  0  0  0  0  0  0
    5.8324  -10.6708    6.2852 O   0  0  0  0  0  0  0  0  0  0  0  0
    7.3965  -10.3674    8.5626 C   0  0  0  0  0  0  0  0  0  0  0  0
    8.6305   -9.6862    7.9304 C   0  0  0  0  0  0  0  0  0  0  0  0
    9.1727   -8.3033    8.7107 S   0  0  2  0  0  0  0  0  0  0  0  0
    8.1456   -7.0421    8.3744 C   0  0  0  0  0  0  0  0  0  0  0  0
   10.7436   -7.9443    8.2086 C   0  0  0  0  0  0  0  0  0  0  0  0
   10.9121   -7.8676    6.6765 C   0  0  1  0  0  0  0  0  0  0  0  0
    9.8978   -7.0773    6.0342 O   0  0  0  0  0  0  0  0  0  0  0  0
   12.1857   -7.1621    6.2394 C   0  0  1  0  0  0  0  0  0  0  0  0
   13.4251   -7.8858    6.3763 O   0  0  0  0  0  0  0  0  0  0  0  0
   11.8344   -6.8179    4.8131 C   0  0  1  0  0  0  0  0  0  0  0  0
   11.8402   -7.9946    4.0104 O   0  0  0  0  0  0  0  0  0  0  0  0
   10.4240   -6.3229    4.9398 C   0  0  2  0  0  0  0  0  0  0  0  0
    5.1914   -8.5854    6.3807 O   0  0  0  0  0  0  0  0  0  0  0  0
    7.8130   -2.0034    6.6131 N   0  0  0  0  0  0  0  0  0  0  0  0
    7.4155   -3.2989    6.6243 C   0  0  0  0  0  0  0  0  0  0  0  0
    8.1821   -4.2990    6.1581 N   0  0  0  0  0  0  0  0  0  0  0  0
    9.4072   -4.0802    5.6676 C   0  0  0  0  0  0  0  0  0  0  0  0
    9.9003   -2.7113    5.6493 C   0  0  0  0  0  0  0  0  0  0  0  0
    9.0413   -1.6128    6.1488 C   0  0  0  0  0  0  0  0  0  0  0  0
    9.4517   -0.2958    6.1518 N   0  0  0  0  0  0  0  0  0  0  0  0
   11.1102   -2.7747    5.1411 N   0  0  0  0  0  0  0  0  0  0  0  0
   11.3856   -4.0495    4.8332 C   0  0  0  0  0  0  0  0  0  0  0  0
   10.3651   -4.8443    5.1528 N   0  0  0  0  0  0  0  0  0  0  0  0
  2  1  1  1  0  0  0
  2  3  1  0  0  0  0
  2  5  1  0  0  0  0
  3  4  1  0  0  0  0
  3 17  1  0  0  0  0
  5  6  1  0  0  0  0
  7  6  1  6  0  0  0
  7  8  1  0  0  0  0
  7  9  1  0  0  0  0
 10  9  1  1  0  0  0
 10 11  1  0  0  0  0
 10 12  1  0  0  0  0
 11 16  1  0  0  0  0
 12 13  1  6  0  0  0
 12 14  1  0  0  0  0
 14 15  1  6  0  0  0
 14 16  1  0  0  0  0
 16 27  1  1  0  0  0
 18 19  2  0  0  0  0
 18 23  1  0  0  0  0
 19 20  1  0  0  0  0
 20 21  2  0  0  0  0
 21 22  1  0  0  0  0
 21 27  1  0  0  0  0
 22 23  2  0  0  0  0
 22 25  1  0  0  0  0
 23 24  1  0  0  0  0
 25 26  2  0  0  0  0
 26 27  1  0  0  0  0
M  END
>  <CHROM.1>
-83.04020783,-169.79805833,71.10224411,-75.06816627,52.51344189,47.46470263
-41.80947711,9.12933064,-6.59814077,6.63122811,2.03517452,-0.29383862,2.95699381

>  <Name>
ligand

>  <RI>
0

>  <Rbt.Current_Directory>
/home/itssahil/PROJECTS/Mol_Feturizer/Test_systems_manuscript/rnas/4kqy

>  <Rbt.Executable>
rbdock ($Id: //depot/dev/client3/rdock/2013.1/src/exe/rbdock.cxx#4 $)

>  <Rbt.Library>
libRbt.so (2013.1, Build901 2013/11/27)

>  <Rbt.Parameter_File>
/export/apps/rDock/src/rDock_2013.1_src/data/scripts/dock_solv.prm

>  <Rbt.Receptor>
prm/blind_docking_20.prm

>  <SCORE>
-9.2529

>  <SCORE.INTER>
-7.72006

>  <SCORE.INTER.CONST>
1

>  <SCORE.INTER.POLAR>
0

>  <SCORE.INTER.ROT>
7

>  <SCORE.INTER.SOLV>
7.24787

>  <SCORE.INTER.VDW>
-15.8293

>  <SCORE.INTER.norm>
-0.285928

>  <SCORE.INTRA>
-1.53284

>  <SCORE.INTRA.DIHEDRAL>
-5.36784

>  <SCORE.INTRA.DIHEDRAL.0>
10.4103

>  <SCORE.INTRA.POLAR>
0

>  <SCORE.INTRA.POLAR.0>
0

>  <SCORE.INTRA.REPUL>
0

>  <SCORE.INTRA.REPUL.0>
0

>  <SCORE.INTRA.SOLV>
-0.0756075

>  <SCORE.INTRA.SOLV.lig_0>
-49.5008

>  <SCORE.INTRA.VDW>
1.18888

>  <SCORE.INTRA.VDW.0>
-2.6946

>  <SCORE.INTRA.norm>
-0.056772

>  <SCORE.RESTR>
0

>  <SCORE.RESTR.CAVITY>
0

>  <SCORE.RESTR.norm>
0

>  <SCORE.SYSTEM>
0

>  <SCORE.SYSTEM.CONST>
0

>  <SCORE.SYSTEM.DIHEDRAL>
0

>  <SCORE.SYSTEM.SOLV>
0

>  <SCORE.SYSTEM.norm>
0

>  <SCORE.heavy>
27

>  <SCORE.norm>
-0.3427

>  <RMSD>
19.362

$$$$
ligand
 OpenBabel02271912153D
libRbt.so/2013.1/901 2013/11/27
 27 29  0  0  0  0  0  0  0  0999 V2000
   10.4851   -0.4716    8.5738 N   0  0  0  0  0  0  0  0  0  0  0  0
   10.6460   -0.1683    7.1644 C   0  0  2  0  0  0  0  0  0  0  0  0
    9.2744   -0.0251    6.5802 C   0  0  0  0  0  0  0  0  0  0  0  0
    8.4271   -0.9205    6.7865 O   0  0  0  0  0  0  0  0  0  0  0  0
   11.4094   -1.2925    6.4588 C   0  0  0  0  0  0  0  0  0  0  0  0
   10.6758   -2.6453    6.5938 C   0  0  0  0  0  0  0  0  0  0  0  0
   11.6413   -4.0097    6.4478 S   0  0  2  0  0  0  0  0  0  0  0  0
   12.5899   -3.8710    5.0914 C   0  0  0  0  0  0  0  0  0  0  0  0
   10.6711   -5.3879    6.3595 C   0  0  0  0  0  0  0  0  0  0  0  0
   11.4606   -6.7139    6.3591 C   0  0  1  0  0  0  0  0  0  0  0  0
   11.5446   -7.3233    7.6581 O   0  0  0  0  0  0  0  0  0  0  0  0
   10.8047   -7.8119    5.5374 C   0  0  1  0  0  0  0  0  0  0  0  0
   10.8994   -7.7124    4.1022 O   0  0  0  0  0  0  0  0  0  0  0  0
   11.4861   -9.0297    6.1109 C   0  0  1  0  0  0  0  0  0  0  0  0
   12.8410   -9.0829    5.6748 O   0  0  0  0  0  0  0  0  0  0  0  0
   11.4603   -8.7484    7.5842 C   0  0  2  0  0  0  0  0  0  0  0  0
    8.9906    1.0040    5.9217 O   0  0  0  0  0  0  0  0  0  0  0  0
    6.4475  -10.4961    7.2788 N   0  0  0  0  0  0  0  0  0  0  0  0
    7.2510  -10.0309    6.2916 C   0  0  0  0  0  0  0  0  0  0  0  0
    8.5076   -9.6106    6.5141 N   0  0  0  0  0  0  0  0  0  0  0  0
    9.0586   -9.6446    7.7326 C   0  0  0  0  0  0  0  0  0  0  0  0
    8.2531  -10.1553    8.8315 C   0  0  0  0  0  0  0  0  0  0  0  0
    6.8625  -10.5998    8.5803 C   0  0  0  0  0  0  0  0  0  0  0  0
    6.0497  -11.0879    9.5822 N   0  0  0  0  0  0  0  0  0  0  0  0
    9.0213  -10.0942    9.8954 N   0  0  0  0  0  0  0  0  0  0  0  0
   10.2070   -9.5767    9.5458 C   0  0  0  0  0  0  0  0  0  0  0  0
   10.2394   -9.3077    8.2411 N   0  0  0  0  0  0  0  0  0  0  0  0
  2  1  1  1  0  0  0
  2  3  1  0  0  0  0
  2  5  1  0  0  0  0
  3  4  1  0  0  0  0
  3 17  1  0  0  0  0
  5  6  1  0  0  0  0
  7  6  1  6  0  0  0
  7  8  1  0  0  0  0
  7  9  1  0  0  0  0
 10  9  1  1  0  0  0
 10 11  1  0  0  0  0
 10 12  1  0  0  0  0
 11 16  1  0  0  0  0
 12 13  1  6  0  0  0
 12 14  1  0  0  0  0
 14 15  1  6  0  0  0
 14 16  1  0  0  0  0
 16 27  1  6  0  0  0
 18 19  2  0  0  0  0
 18 23  1  0  0  0  0
 19 20  1  0  0  0  0
 20 21  2  0  0  0  0
 21 22  1  0  0  0  0
 21 27  1  0  0  0  0
 22 23  2  0  0  0  0
 22 25  1  0  0  0  0
 23 24  1  0  0  0  0
 25 26  2  0  0  0  0
 26 27  1  0  0  0  0
M  END
>  <CHROM.1>
-50.46975049,59.03731149,-155.86449381,-48.96503526,-174.44564544,97.17207727
95.37006829,10.02804570,-6.25322410,7.01143443,1.36469444,0.48761956,-0.04708993

>  <Name>
ligand

>  <RI>
0

>  <Rbt.Current_Directory>
/home/itssahil/PROJECTS/Mol_Feturizer/Test_systems_manuscript/rnas/4kqy

>  <Rbt.Executable>
rbdock ($Id: //depot/dev/client3/rdock/2013.1/src/exe/rbdock.cxx#4 $)

>  <Rbt.Library>
libRbt.so (2013.1, Build901 2013/11/27)

>  <Rbt.Parameter_File>
/export/apps/rDock/src/rDock_2013.1_src/data/scripts/dock_solv.prm

>  <Rbt.Receptor>
prm/blind_docking_20.prm

>  <SCORE>
-6.45187

>  <SCORE.INTER>
-7.22755

>  <SCORE.INTER.CONST>
1

>  <SCORE.INTER.POLAR>
0

>  <SCORE.INTER.ROT>
7

>  <SCORE.INTER.SOLV>
7.59798

>  <SCORE.INTER.VDW>
-15.6177

>  <SCORE.INTER.norm>
-0.267687

>  <SCORE.INTRA>
0.763127

>  <SCORE.INTRA.DIHEDRAL>
-1.73192

>  <SCORE.INTRA.DIHEDRAL.0>
10.4103

>  <SCORE.INTRA.POLAR>
0

>  <SCORE.INTRA.POLAR.0>
0

>  <SCORE.INTRA.REPUL>
0

>  <SCORE.INTRA.REPUL.0>
0

>  <SCORE.INTRA.SOLV>
0.246474

>  <SCORE.INTRA.SOLV.lig_0>
-49.5008

>  <SCORE.INTRA.VDW>
1.50585

>  <SCORE.INTRA.VDW.0>
-2.6946

>  <SCORE.INTRA.norm>
0.028264

>  <SCORE.RESTR>
0.0125585

>  <SCORE.RESTR.CAVITY>
0.0125585

>  <SCORE.RESTR.norm>
0.000465129

>  <SCORE.SYSTEM>
0

>  <SCORE.SYSTEM.CONST>
0

>  <SCORE.SYSTEM.DIHEDRAL>
0

>  <SCORE.SYSTEM.SOLV>
0

>  <SCORE.SYSTEM.norm>
0

>  <SCORE.heavy>
27

>  <SCORE.norm>
-0.238958

>  <RMSD>
19.474

$$$$
ligand
 OpenBabel02271912153D
libRbt.so/2013.1/901 2013/11/27
 27 29  0  0  0  0  0  0  0  0999 V2000
   -0.5025  -23.3072    8.3863 N   0  0  0  0  0  0  0  0  0  0  0  0
    0.5937  -22.3987    8.1086 C   0  0  2  0  0  0  0  0  0  0  0  0
    0.2149  -21.6003    6.8993 C   0  0  0  0  0  0  0  0  0  0  0  0
    0.4357  -20.3702    6.8869 O   0  0  0  0  0  0  0  0  0  0  0  0
    1.8836  -23.1807    7.8464 C   0  0  0  0  0  0  0  0  0  0  0  0
    3.0635  -22.2351    7.5299 C   0  0  0  0  0  0  0  0  0  0  0  0
    3.1477  -21.6882    5.9459 S   0  0  2  0  0  0  0  0  0  0  0  0
    2.9028  -22.9625    4.9091 C   0  0  0  0  0  0  0  0  0  0  0  0
    4.6513  -20.9734    5.6688 C   0  0  0  0  0  0  0  0  0  0  0  0
    4.9302  -19.7348    6.5462 C   0  0  1  0  0  0  0  0  0  0  0  0
    5.9181  -19.9721    7.5629 O   0  0  0  0  0  0  0  0  0  0  0  0
    5.5390  -18.5715    5.7802 C   0  0  1  0  0  0  0  0  0  0  0  0
    4.6639  -17.8121    4.9221 O   0  0  0  0  0  0  0  0  0  0  0  0
    6.1256  -17.7704    6.9161 C   0  0  1  0  0  0  0  0  0  0  0  0
    5.0857  -17.1422    7.6597 O   0  0  0  0  0  0  0  0  0  0  0  0
    6.7573  -18.8328    7.7660 C   0  0  2  0  0  0  0  0  0  0  0  0
   -0.2874  -22.1842    5.9093 O   0  0  0  0  0  0  0  0  0  0  0  0
   10.5597  -19.2402    4.0712 N   0  0  0  0  0  0  0  0  0  0  0  0
    9.2406  -18.9731    3.9127 C   0  0  0  0  0  0  0  0  0  0  0  0
    8.3830  -18.9064    4.9449 N   0  0  0  0  0  0  0  0  0  0  0  0
    8.7842  -19.0802    6.2091 C   0  0  0  0  0  0  0  0  0  0  0  0
   10.1946  -19.3481    6.4465 C   0  0  0  0  0  0  0  0  0  0  0  0
   11.1297  -19.4378    5.3012 C   0  0  0  0  0  0  0  0  0  0  0  0
   12.4754  -19.6943    5.4633 N   0  0  0  0  0  0  0  0  0  0  0  0
   10.3217  -19.4626    7.7490 N   0  0  0  0  0  0  0  0  0  0  0  0
    9.1182  -19.3084    8.3180 C   0  0  0  0  0  0  0  0  0  0  0  0
    8.1859  -19.0720    7.3958 N   0  0  0  0  0  0  0  0  0  0  0  0
  2  1  1  6  0  0  0
  2  3  1  0  0  0  0
  2  5  1  0  0  0  0
  3  4  1  0  0  0  0
  3 17  1  0  0  0  0
  5  6  1  0  0  0  0
  7  6  1  1  0  0  0
  7  8  1  0  0  0  0
  7  9  1  0  0  0  0
 10  9  1  6  0  0  0
 10 11  1  0  0  0  0
 10 12  1  0  0  0  0
 11 16  1  0  0  0  0
 12 13  1  1  0  0  0
 12 14  1  0  0  0  0
 14 15  1  1  0  0  0
 14 16  1  0  0  0  0
 16 27  1  6  0  0  0
 18 19  2  0  0  0  0
 18 23  1  0  0  0  0
 19 20  1  0  0  0  0
 20 21  2  0  0  0  0
 21 22  1  0  0  0  0
 21 27  1  0  0  0  0
 22 23  2  0  0  0  0
 22 25  1  0  0  0  0
 23 24  1  0  0  0  0
 25 26  2  0  0  0  0
 26 27  1  0  0  0  0
M  END
>  <CHROM.1>
136.72241853,179.27310887,-81.75596326,-45.41861932,-61.98390914,108.45691664
79.45420846,5.43316425,-20.20861369,6.45972182,-2.87018720,0.21450054,0.33015986

>  <Name>
ligand

>  <RI>
0

>  <Rbt.Current_Directory>
/home/itssahil/PROJECTS/Mol_Feturizer/Test_systems_manuscript/rnas/4kqy

>  <Rbt.Executable>
rbdock ($Id: //depot/dev/client3/rdock/2013.1/src/exe/rbdock.cxx#4 $)

>  <Rbt.Library>
libRbt.so (2013.1, Build901 2013/11/27)

>  <Rbt.Parameter_File>
/export/apps/rDock/src/rDock_2013.1_src/data/scripts/dock_solv.prm

>  <Rbt.Receptor>
prm/blind_docking_80.prm

>  <SCORE>
-11.4335

>  <SCORE.INTER>
-10.8083

>  <SCORE.INTER.CONST>
1

>  <SCORE.INTER.POLAR>
0

>  <SCORE.INTER.ROT>
7

>  <SCORE.INTER.SOLV>
20.4071

>  <SCORE.INTER.VDW>
-22.2746

>  <SCORE.INTER.norm>
-0.400309

>  <SCORE.INTRA>
-0.625181

>  <SCORE.INTRA.DIHEDRAL>
-0.765239

>  <SCORE.INTRA.DIHEDRAL.0>
10.4103

>  <SCORE.INTRA.POLAR>
0

>  <SCORE.INTRA.POLAR.0>
0

>  <SCORE.INTRA.REPUL>
0

>  <SCORE.INTRA.REPUL.0>
0

>  <SCORE.INTRA.SOLV>
-0.536415

>  <SCORE.INTRA.SOLV.lig_0>
-49.5008

>  <SCORE.INTRA.VDW>
0.0256462

>  <SCORE.INTRA.VDW.0>
-2.6946

>  <SCORE.INTRA.norm>
-0.0231549

>  <SCORE.RESTR>
0

>  <SCORE.RESTR.CAVITY>
0

>  <SCORE.RESTR.norm>
0

>  <SCORE.SYSTEM>
0

>  <SCORE.SYSTEM.CONST>
0

>  <SCORE.SYSTEM.DIHEDRAL>
0

>  <SCORE.SYSTEM.SOLV>
0

>  <SCORE.SYSTEM.norm>
0

>  <SCORE.heavy>
27

>  <SCORE.norm>
-0.423464

>  <RMSD>
19.528

$$$$
ligand
 OpenBabel02271912153D
libRbt.so/2013.1/901 2013/11/27
 27 29  0  0  0  0  0  0  0  0999 V2000
    6.6314   -9.5217    8.0634 N   0  0  0  0  0  0  0  0  0  0  0  0
    7.0347   -9.7577    9.4367 C   0  0  2  0  0  0  0  0  0  0  0  0
    6.7999   -8.4873   10.1943 C   0  0  0  0  0  0  0  0  0  0  0  0
    6.5659   -7.4346    9.5624 O   0  0  0  0  0  0  0  0  0  0  0  0
    8.5136  -10.1489    9.5005 C   0  0  0  0  0  0  0  0  0  0  0  0
    9.4200   -9.0243    8.9525 C   0  0  0  0  0  0  0  0  0  0  0  0
   11.0683   -9.3337    9.0040 S   0  0  2  0  0  0  0  0  0  0  0  0
   11.5476   -9.5052   10.5850 C   0  0  0  0  0  0  0  0  0  0  0  0
   11.9083   -8.0738    8.2587 C   0  0  0  0  0  0  0  0  0  0  0  0
   11.6316   -7.9415    6.7462 C   0  0  1  0  0  0  0  0  0  0  0  0
   10.3202   -7.4314    6.4530 O   0  0  0  0  0  0  0  0  0  0  0  0
   12.5268   -6.9288    6.0505 C   0  0  1  0  0  0  0  0  0  0  0  0
   13.8948   -7.3120    5.8041 O   0  0  0  0  0  0  0  0  0  0  0  0
   11.7295   -6.6724    4.7956 C   0  0  1  0  0  0  0  0  0  0  0  0
   11.8050   -7.8005    3.9291 O   0  0  0  0  0  0  0  0  0  0  0  0
   10.3297   -6.5568    5.3222 C   0  0  2  0  0  0  0  0  0  0  0  0
    6.8109   -8.5079   11.4484 O   0  0  0  0  0  0  0  0  0  0  0  0
   11.5985   -1.8618    7.4723 N   0  0  0  0  0  0  0  0  0  0  0  0
   12.3419   -2.9920    7.3903 C   0  0  0  0  0  0  0  0  0  0  0  0
   11.8883   -4.1210    6.8203 N   0  0  0  0  0  0  0  0  0  0  0  0
   10.6699   -4.1960    6.2733 C   0  0  0  0  0  0  0  0  0  0  0  0
    9.8313   -3.0074    6.3097 C   0  0  0  0  0  0  0  0  0  0  0  0
   10.3327   -1.7725    6.9561 C   0  0  0  0  0  0  0  0  0  0  0  0
    9.5821   -0.6173    7.0260 N   0  0  0  0  0  0  0  0  0  0  0  0
    8.7140   -3.3404    5.7043 N   0  0  0  0  0  0  0  0  0  0  0  0
    8.7919   -4.6229    5.3235 C   0  0  0  0  0  0  0  0  0  0  0  0
    9.9713   -5.1449    5.6585 N   0  0  0  0  0  0  0  0  0  0  0  0
  2  1  1  6  0  0  0
  2  3  1  0  0  0  0
  2  5  1  0  0  0  0
  3  4  1  0  0  0  0
  3 17  1  0  0  0  0
  5  6  1  0  0  0  0
  7  6  1  1  0  0  0
  7  8  1  0  0  0  0
  7  9  1  0  0  0  0
 10  9  1  1  0  0  0
 10 11  1  0  0  0  0
 10 12  1  0  0  0  0
 11 16  1  0  0  0  0
 12 13  1  6  0  0  0
 12 14  1  0  0  0  0
 14 15  1  6  0  0  0
 14 16  1  0  0  0  0
 16 27  1  1  0  0  0
 18 19  2  0  0  0  0
 18 23  1  0  0  0  0
 19 20  1  0  0  0  0
 20 21  2  0  0  0  0
 21 22  1  0  0  0  0
 21 27  1  0  0  0  0
 22 23  2  0  0  0  0
 22 25  1  0  0  0  0
 23 24  1  0  0  0  0
 25 26  2  0  0  0  0
 26 27  1  0  0  0  0
M  END
>  <CHROM.1>
-12.75612281,61.27466379,178.78692423,-62.98404401,-65.26256075,71.98090321
74.53367745,10.12956491,-6.60606774,7.47831581,1.98097075,-0.55978814,2.83874361

>  <Name>
ligand

>  <RI>
0

>  <Rbt.Current_Directory>
/home/itssahil/PROJECTS/Mol_Feturizer/Test_systems_manuscript/rnas/4kqy

>  <Rbt.Executable>
rbdock ($Id: //depot/dev/client3/rdock/2013.1/src/exe/rbdock.cxx#4 $)

>  <Rbt.Library>
libRbt.so (2013.1, Build901 2013/11/27)

>  <Rbt.Parameter_File>
/export/apps/rDock/src/rDock_2013.1_src/data/scripts/dock_solv.prm

>  <Rbt.Receptor>
prm/blind_docking_20.prm

>  <SCORE>
-11.0925

>  <SCORE.INTER>
-8.30536

>  <SCORE.INTER.CONST>
1

>  <SCORE.INTER.POLAR>
0

>  <SCORE.INTER.ROT>
7

>  <SCORE.INTER.SOLV>
8.00855

>  <SCORE.INTER.VDW>
-16.4731

>  <SCORE.INTER.norm>
-0.307606

>  <SCORE.INTRA>
-2.78717

>  <SCORE.INTRA.DIHEDRAL>
-6.9737

>  <SCORE.INTRA.DIHEDRAL.0>
10.4103

>  <SCORE.INTRA.POLAR>
0

>  <SCORE.INTRA.POLAR.0>
0

>  <SCORE.INTRA.REPUL>
0

>  <SCORE.INTRA.REPUL.0>
0

>  <SCORE.INTRA.SOLV>
0.135617

>  <SCORE.INTRA.SOLV.lig_0>
-49.5008

>  <SCORE.INTRA.VDW>
0.631869

>  <SCORE.INTRA.VDW.0>
-2.6946

>  <SCORE.INTRA.norm>
-0.103229

>  <SCORE.RESTR>
0

>  <SCORE.RESTR.CAVITY>
0

>  <SCORE.RESTR.norm>
0

>  <SCORE.SYSTEM>
0

>  <SCORE.SYSTEM.CONST>
0

>  <SCORE.SYSTEM.DIHEDRAL>
0

>  <SCORE.SYSTEM.SOLV>
0

>  <SCORE.SYSTEM.norm>
0

>  <SCORE.heavy>
27

>  <SCORE.norm>
-0.410835

>  <RMSD>
19.553

$$$$
ligand
 OpenBabel02271912153D
libRbt.so/2013.1/901 2013/11/27
 27 29  0  0  0  0  0  0  0  0999 V2000
    6.0058  -11.2518    7.1581 N   0  0  0  0  0  0  0  0  0  0  0  0
    5.9128   -9.9561    7.8037 C   0  0  2  0  0  0  0  0  0  0  0  0
    4.5820   -9.3725    7.4413 C   0  0  0  0  0  0  0  0  0  0  0  0
    4.2110   -9.3942    6.2479 O   0  0  0  0  0  0  0  0  0  0  0  0
    7.0426   -9.0388    7.3278 C   0  0  0  0  0  0  0  0  0  0  0  0
    7.0198   -7.6831    8.0681 C   0  0  0  0  0  0  0  0  0  0  0  0
    7.8334   -7.6459    9.5350 S   0  0  2  0  0  0  0  0  0  0  0  0
    6.9923   -6.6970   10.6078 C   0  0  0  0  0  0  0  0  0  0  0  0
    9.3949   -7.0479    9.3058 C   0  0  0  0  0  0  0  0  0  0  0  0
   10.1852   -7.7640    8.1903 C   0  0  1  0  0  0  0  0  0  0  0  0
    9.6968   -7.4685    6.8712 O   0  0  0  0  0  0  0  0  0  0  0  0
   11.6371   -7.3239    8.0950 C   0  0  1  0  0  0  0  0  0  0  0  0
   12.5455   -7.8121    9.1027 O   0  0  0  0  0  0  0  0  0  0  0  0
   11.9729   -7.7821    6.6973 C   0  0  1  0  0  0  0  0  0  0  0  0
   12.0759   -9.2023    6.6597 O   0  0  0  0  0  0  0  0  0  0  0  0
   10.7598   -7.3619    5.9213 C   0  0  2  0  0  0  0  0  0  0  0  0
    3.8503   -8.9015    8.3446 O   0  0  0  0  0  0  0  0  0  0  0  0
   13.8493   -3.4090    4.1590 N   0  0  0  0  0  0  0  0  0  0  0  0
   14.2090   -4.6220    4.6445 C   0  0  0  0  0  0  0  0  0  0  0  0
   13.3140   -5.5313    5.0659 N   0  0  0  0  0  0  0  0  0  0  0  0
   11.9970   -5.3032    5.0131 C   0  0  0  0  0  0  0  0  0  0  0  0
   11.5465   -4.0264    4.4801 C   0  0  0  0  0  0  0  0  0  0  0  0
   12.5408   -3.0228    4.0345 C   0  0  0  0  0  0  0  0  0  0  0  0
   12.1744   -1.7941    3.5259 N   0  0  0  0  0  0  0  0  0  0  0  0
   10.2341   -4.0637    4.5260 N   0  0  0  0  0  0  0  0  0  0  0  0
    9.8511   -5.2343    5.0542 C   0  0  0  0  0  0  0  0  0  0  0  0
   10.9089   -5.9901    5.3459 N   0  0  0  0  0  0  0  0  0  0  0  0
  2  1  1  6  0  0  0
  2  3  1  0  0  0  0
  2  5  1  0  0  0  0
  3  4  1  0  0  0  0
  3 17  1  0  0  0  0
  5  6  1  0  0  0  0
  7  6  1  6  0  0  0
  7  8  1  0  0  0  0
  7  9  1  0  0  0  0
 10  9  1  1  0  0  0
 10 11  1  0  0  0  0
 10 12  1  0  0  0  0
 11 16  1  0  0  0  0
 12 13  1  1  0  0  0
 12 14  1  0  0  0  0
 14 15  1  1  0  0  0
 14 16  1  0  0  0  0
 16 27  1  1  0  0  0
 18 19  2  0  0  0  0
 18 23  1  0  0  0  0
 19 20  1  0  0  0  0
 20 21  2  0  0  0  0
 21 22  1  0  0  0  0
 21 27  1  0  0  0  0
 22 23  2  0  0  0  0
 22 25  1  0  0  0  0
 23 24  1  0  0  0  0
 25 26  2  0  0  0  0
 26 27  1  0  0  0  0
M  END
>  <CHROM.1>
-47.17912147,-176.35110166,86.00832139,-142.50365722,-51.79916416,70.70202464
142.80817577,9.55256218,-6.95478862,6.84123091,2.45408595,0.17974088,2.29403791

>  <Name>
ligand

>  <RI>
0

>  <Rbt.Current_Directory>
/home/itssahil/PROJECTS/Mol_Feturizer/Test_systems_manuscript/rnas/4kqy

>  <Rbt.Executable>
rbdock ($Id: //depot/dev/client3/rdock/2013.1/src/exe/rbdock.cxx#4 $)

>  <Rbt.Library>
libRbt.so (2013.1, Build901 2013/11/27)

>  <Rbt.Parameter_File>
/export/apps/rDock/src/rDock_2013.1_src/data/scripts/dock_solv.prm

>  <Rbt.Receptor>
prm/blind_docking_40.prm

>  <SCORE>
-11.0895

>  <SCORE.INTER>
-9.90687

>  <SCORE.INTER.CONST>
1

>  <SCORE.INTER.POLAR>
0

>  <SCORE.INTER.ROT>
7

>  <SCORE.INTER.SOLV>
15.2198

>  <SCORE.INTER.VDW>
-19.9445

>  <SCORE.INTER.norm>
-0.366921

>  <SCORE.INTRA>
-1.18536

>  <SCORE.INTRA.DIHEDRAL>
-1.64171

>  <SCORE.INTRA.DIHEDRAL.0>
10.4103

>  <SCORE.INTRA.POLAR>
0

>  <SCORE.INTRA.POLAR.0>
0

>  <SCORE.INTRA.REPUL>
0

>  <SCORE.INTRA.REPUL.0>
0

>  <SCORE.INTRA.SOLV>
-0.446945

>  <SCORE.INTRA.SOLV.lig_0>
-49.5008

>  <SCORE.INTRA.VDW>
-0.141026

>  <SCORE.INTRA.VDW.0>
-2.6946

>  <SCORE.INTRA.norm>
-0.0439021

>  <SCORE.RESTR>
0.00267754

>  <SCORE.RESTR.CAVITY>
0.00267754

>  <SCORE.RESTR.norm>
9.91683e-05

>  <SCORE.SYSTEM>
0

>  <SCORE.SYSTEM.CONST>
0

>  <SCORE.SYSTEM.DIHEDRAL>
0

>  <SCORE.SYSTEM.SOLV>
0

>  <SCORE.SYSTEM.norm>
0

>  <SCORE.heavy>
27

>  <SCORE.norm>
-0.410724

>  <RMSD>
19.809

$$$$
ligand
 OpenBabel02271912153D
libRbt.so/2013.1/901 2013/11/27
 27 29  0  0  0  0  0  0  0  0999 V2000
    5.0268   -8.8246    7.4740 N   0  0  0  0  0  0  0  0  0  0  0  0
    5.6067  -10.0419    6.9389 C   0  0  2  0  0  0  0  0  0  0  0  0
    5.4269  -11.1120    7.9713 C   0  0  0  0  0  0  0  0  0  0  0  0
    6.1664  -12.1191    7.9410 O   0  0  0  0  0  0  0  0  0  0  0  0
    7.0940   -9.8387    6.6376 C   0  0  0  0  0  0  0  0  0  0  0  0
    7.8777   -9.4347    7.9061 C   0  0  0  0  0  0  0  0  0  0  0  0
    9.5386   -9.2914    7.7155 S   0  0  2  0  0  0  0  0  0  0  0  0
   10.2621   -9.2363    9.2096 C   0  0  0  0  0  0  0  0  0  0  0  0
    9.8926   -7.8995    6.8290 C   0  0  0  0  0  0  0  0  0  0  0  0
   11.3540   -7.8206    6.3391 C   0  0  1  0  0  0  0  0  0  0  0  0
   11.5131   -7.0140    5.1602 O   0  0  0  0  0  0  0  0  0  0  0  0
   12.2881   -7.1320    7.3210 C   0  0  1  0  0  0  0  0  0  0  0  0
   12.6823   -7.8737    8.4928 O   0  0  0  0  0  0  0  0  0  0  0  0
   13.4359   -6.7786    6.4078 C   0  0  1  0  0  0  0  0  0  0  0  0
   14.1629   -7.9528    6.0591 O   0  0  0  0  0  0  0  0  0  0  0  0
   12.7298   -6.2640    5.1885 C   0  0  2  0  0  0  0  0  0  0  0  0
    4.5600  -10.9645    8.8656 O   0  0  0  0  0  0  0  0  0  0  0  0
   10.7929   -1.9739    7.6623 N   0  0  0  0  0  0  0  0  0  0  0  0
   10.7400   -3.2741    8.0407 C   0  0  0  0  0  0  0  0  0  0  0  0
   11.2707   -4.2671    7.3075 N   0  0  0  0  0  0  0  0  0  0  0  0
   11.9097   -4.0314    6.1562 C   0  0  0  0  0  0  0  0  0  0  0  0
   12.0195   -2.6517    5.7070 C   0  0  0  0  0  0  0  0  0  0  0  0
   11.4159   -1.5651    6.5127 C   0  0  0  0  0  0  0  0  0  0  0  0
   11.4831   -0.2399    6.1355 N   0  0  0  0  0  0  0  0  0  0  0  0
   12.6916   -2.6962    4.5791 N   0  0  0  0  0  0  0  0  0  0  0  0
   12.9805   -3.9738    4.2957 C   0  0  0  0  0  0  0  0  0  0  0  0
   12.5167   -4.7853    5.2454 N   0  0  0  0  0  0  0  0  0  0  0  0
  2  1  1  1  0  0  0
  2  3  1  0  0  0  0
  2  5  1  0  0  0  0
  3  4  1  0  0  0  0
  3 17  1  0  0  0  0
  5  6  1  0  0  0  0
  7  6  1  1  0  0  0
  7  8  1  0  0  0  0
  7  9  1  0  0  0  0
 10  9  1  1  0  0  0
 10 11  1  0  0  0  0
 10 12  1  0  0  0  0
 11 16  1  0  0  0  0
 12 13  1  1  0  0  0
 12 14  1  0  0  0  0
 14 15  1  6  0  0  0
 14 16  1  0  0  0  0
 16 27  1  1  0  0  0
 18 19  2  0  0  0  0
 18 23  1  0  0  0  0
 19 20  1  0  0  0  0
 20 21  2  0  0  0  0
 21 22  1  0  0  0  0
 21 27  1  0  0  0  0
 22 23  2  0  0  0  0
 22 25  1  0  0  0  0
 23 24  1  0  0  0  0
 25 26  2  0  0  0  0
 26 27  1  0  0  0  0
M  END
>  <CHROM.1>
-158.71923683,59.12306074,175.83891097,-165.81607039,-167.78798376,154.30420534
60.98026503,10.20463810,-6.88219570,6.89488738,2.25271693,-0.19384488,3.03498011

>  <Name>
ligand

>  <RI>
0

>  <Rbt.Current_Directory>
/home/itssahil/PROJECTS/Mol_Feturizer/Test_systems_manuscript/rnas/4kqy

>  <Rbt.Executable>
rbdock ($Id: //depot/dev/client3/rdock/2013.1/src/exe/rbdock.cxx#4 $)

>  <Rbt.Library>
libRbt.so (2013.1, Build901 2013/11/27)

>  <Rbt.Parameter_File>
/export/apps/rDock/src/rDock_2013.1_src/data/scripts/dock_solv.prm

>  <Rbt.Receptor>
prm/blind_docking_20.prm

>  <SCORE>
-12.1171

>  <SCORE.INTER>
-11.2541

>  <SCORE.INTER.CONST>
1

>  <SCORE.INTER.POLAR>
0

>  <SCORE.INTER.ROT>
7

>  <SCORE.INTER.SOLV>
16.0104

>  <SCORE.INTER.VDW>
-21.1062

>  <SCORE.INTER.norm>
-0.416817

>  <SCORE.INTRA>
-0.863049

>  <SCORE.INTRA.DIHEDRAL>
-4.59674

>  <SCORE.INTRA.DIHEDRAL.0>
10.4103

>  <SCORE.INTRA.POLAR>
0

>  <SCORE.INTRA.POLAR.0>
0

>  <SCORE.INTRA.REPUL>
0

>  <SCORE.INTRA.REPUL.0>
0

>  <SCORE.INTRA.SOLV>
0.414294

>  <SCORE.INTRA.SOLV.lig_0>
-49.5008

>  <SCORE.INTRA.VDW>
1.22818

>  <SCORE.INTRA.VDW.0>
-2.6946

>  <SCORE.INTRA.norm>
-0.0319648

>  <SCORE.RESTR>
0

>  <SCORE.RESTR.CAVITY>
0

>  <SCORE.RESTR.norm>
0

>  <SCORE.SYSTEM>
0

>  <SCORE.SYSTEM.CONST>
0

>  <SCORE.SYSTEM.DIHEDRAL>
0

>  <SCORE.SYSTEM.SOLV>
0

>  <SCORE.SYSTEM.norm>
0

>  <SCORE.heavy>
27

>  <SCORE.norm>
-0.448782

>  <RMSD>
20.057

$$$$
ligand
 OpenBabel02271912153D
libRbt.so/2013.1/901 2013/11/27
 27 29  0  0  0  0  0  0  0  0999 V2000
    5.9226  -11.0298    6.8696 N   0  0  0  0  0  0  0  0  0  0  0  0
    5.8015   -9.9453    7.8253 C   0  0  2  0  0  0  0  0  0  0  0  0
    4.6667   -9.0785    7.3738 C   0  0  0  0  0  0  0  0  0  0  0  0
    3.9417   -8.5278    8.2302 O   0  0  0  0  0  0  0  0  0  0  0  0
    7.0992   -9.1348    7.8823 C   0  0  0  0  0  0  0  0  0  0  0  0
    8.3049  -10.0237    8.2602 C   0  0  0  0  0  0  0  0  0  0  0  0
    9.7922   -9.2480    8.2977 S   0  0  2  0  0  0  0  0  0  0  0  0
    9.8144   -8.1592    9.5517 C   0  0  0  0  0  0  0  0  0  0  0  0
   10.0661   -8.4691    6.8256 C   0  0  0  0  0  0  0  0  0  0  0  0
   11.5575   -8.3412    6.4498 C   0  0  1  0  0  0  0  0  0  0  0  0
   11.7663   -7.7623    5.1509 O   0  0  0  0  0  0  0  0  0  0  0  0
   12.3314   -7.3894    7.3475 C   0  0  1  0  0  0  0  0  0  0  0  0
   12.6668   -7.8517    8.6713 O   0  0  0  0  0  0  0  0  0  0  0  0
   13.5312   -7.1049    6.4783 C   0  0  1  0  0  0  0  0  0  0  0  0
   14.3817   -8.2466    6.4298 O   0  0  0  0  0  0  0  0  0  0  0  0
   12.9095   -6.9043    5.1279 C   0  0  2  0  0  0  0  0  0  0  0  0
    4.4831   -8.8951    6.1467 O   0  0  0  0  0  0  0  0  0  0  0  0
    9.3366   -2.9719    4.9129 N   0  0  0  0  0  0  0  0  0  0  0  0
    9.1537   -4.2746    5.2384 C   0  0  0  0  0  0  0  0  0  0  0  0
   10.1552   -5.1703    5.2445 N   0  0  0  0  0  0  0  0  0  0  0  0
   11.4130   -4.8255    4.9472 C   0  0  0  0  0  0  0  0  0  0  0  0
   11.6778   -3.4348    4.6107 C   0  0  0  0  0  0  0  0  0  0  0  0
   10.5645   -2.4580    4.5891 C   0  0  0  0  0  0  0  0  0  0  0  0
   10.7531   -1.1286    4.2728 N   0  0  0  0  0  0  0  0  0  0  0  0
   12.9689   -3.3635    4.3787 N   0  0  0  0  0  0  0  0  0  0  0  0
   13.5044   -4.5834    4.5243 C   0  0  0  0  0  0  0  0  0  0  0  0
   12.5728   -5.4702    4.8725 N   0  0  0  0  0  0  0  0  0  0  0  0
  2  1  1  6  0  0  0
  2  3  1  0  0  0  0
  2  5  1  0  0  0  0
  3  4  1  0  0  0  0
  3 17  1  0  0  0  0
  5  6  1  0  0  0  0
  7  6  1  6  0  0  0
  7  8  1  0  0  0  0
  7  9  1  0  0  0  0
 10  9  1  1  0  0  0
 10 11  1  0  0  0  0
 10 12  1  0  0  0  0
 11 16  1  0  0  0  0
 12 13  1  1  0  0  0
 12 14  1  0  0  0  0
 14 15  1  6  0  0  0
 14 16  1  0  0  0  0
 16 27  1  1  0  0  0
 18 19  2  0  0  0  0
 18 23  1  0  0  0  0
 19 20  1  0  0  0  0
 20 21  2  0  0  0  0
 21 22  1  0  0  0  0
 21 27  1  0  0  0  0
 22 23  2  0  0  0  0
 22 25  1  0  0  0  0
 23 24  1  0  0  0  0
 25 26  2  0  0  0  0
 26 27  1  0  0  0  0
M  END
>  <CHROM.1>
145.17427947,-57.99688024,177.86993864,67.54000934,-151.01016418,175.80004507
16.26997510,9.99583816,-7.00895994,6.46077134,2.37705357,-0.00038598,2.64792433

>  <Name>
ligand

>  <RI>
0

>  <Rbt.Current_Directory>
/home/itssahil/PROJECTS/Mol_Feturizer/Test_systems_manuscript/rnas/4kqy

>  <Rbt.Executable>
rbdock ($Id: //depot/dev/client3/rdock/2013.1/src/exe/rbdock.cxx#4 $)

>  <Rbt.Library>
libRbt.so (2013.1, Build901 2013/11/27)

>  <Rbt.Parameter_File>
/export/apps/rDock/src/rDock_2013.1_src/data/scripts/dock_solv.prm

>  <Rbt.Receptor>
prm/blind_docking_20.prm

>  <SCORE>
-12.8331

>  <SCORE.INTER>
-10.8179

>  <SCORE.INTER.CONST>
1

>  <SCORE.INTER.POLAR>
0

>  <SCORE.INTER.ROT>
7

>  <SCORE.INTER.SOLV>
12.8594

>  <SCORE.INTER.VDW>
-19.765

>  <SCORE.INTER.norm>
-0.400662

>  <SCORE.INTRA>
-2.02742

>  <SCORE.INTRA.DIHEDRAL>
-5.34332

>  <SCORE.INTRA.DIHEDRAL.0>
10.4103

>  <SCORE.INTRA.POLAR>
0

>  <SCORE.INTRA.POLAR.0>
0

>  <SCORE.INTRA.REPUL>
0

>  <SCORE.INTRA.REPUL.0>
0

>  <SCORE.INTRA.SOLV>
0.495765

>  <SCORE.INTRA.SOLV.lig_0>
-49.5008

>  <SCORE.INTRA.VDW>
0.396351

>  <SCORE.INTRA.VDW.0>
-2.6946

>  <SCORE.INTRA.norm>
-0.0750898

>  <SCORE.RESTR>
0.0121931

>  <SCORE.RESTR.CAVITY>
0.0121931

>  <SCORE.RESTR.norm>
0.000451597

>  <SCORE.SYSTEM>
0

>  <SCORE.SYSTEM.CONST>
0

>  <SCORE.SYSTEM.DIHEDRAL>
0

>  <SCORE.SYSTEM.SOLV>
0

>  <SCORE.SYSTEM.norm>
0

>  <SCORE.heavy>
27

>  <SCORE.norm>
-0.4753

>  <RMSD>
20.119

$$$$
ligand
 OpenBabel02271912153D
libRbt.so/2013.1/901 2013/11/27
 27 29  0  0  0  0  0  0  0  0999 V2000
    8.2850   -7.6819    9.1941 N   0  0  0  0  0  0  0  0  0  0  0  0
    7.7731   -8.0234    7.8805 C   0  0  2  0  0  0  0  0  0  0  0  0
    6.2781   -8.0200    7.9704 C   0  0  0  0  0  0  0  0  0  0  0  0
    5.7339   -7.7951    9.0729 O   0  0  0  0  0  0  0  0  0  0  0  0
    8.2766   -9.4045    7.4524 C   0  0  0  0  0  0  0  0  0  0  0  0
    9.8190   -9.4811    7.4918 C   0  0  0  0  0  0  0  0  0  0  0  0
   10.6139   -8.7193    6.2257 S   0  0  2  0  0  0  0  0  0  0  0  0
   12.1854   -9.2530    6.1607 C   0  0  0  0  0  0  0  0  0  0  0  0
   10.5598   -7.0464    6.4430 C   0  0  0  0  0  0  0  0  0  0  0  0
   11.5602   -6.2655    5.5648 C   0  0  1  0  0  0  0  0  0  0  0  0
   11.0429   -5.0081    5.0987 O   0  0  0  0  0  0  0  0  0  0  0  0
   12.8144   -5.8347    6.3080 C   0  0  1  0  0  0  0  0  0  0  0  0
   13.7987   -6.8493    6.5914 O   0  0  0  0  0  0  0  0  0  0  0  0
   13.3118   -4.7394    5.3973 C   0  0  1  0  0  0  0  0  0  0  0  0
   13.8385   -5.3013    4.1991 O   0  0  0  0  0  0  0  0  0  0  0  0
   12.0509   -3.9948    5.0718 C   0  0  2  0  0  0  0  0  0  0  0  0
    5.5991   -8.2112    6.9334 O   0  0  0  0  0  0  0  0  0  0  0  0
   11.4940    1.2013    6.0549 N   0  0  0  0  0  0  0  0  0  0  0  0
   11.7478    0.5774    4.8789 C   0  0  0  0  0  0  0  0  0  0  0  0
   11.8722   -0.7564    4.7753 N   0  0  0  0  0  0  0  0  0  0  0  0
   11.7313   -1.5633    5.8329 C   0  0  0  0  0  0  0  0  0  0  0  0
   11.4354   -0.9544    7.1209 C   0  0  0  0  0  0  0  0  0  0  0  0
   11.3177    0.5182    7.2292 C   0  0  0  0  0  0  0  0  0  0  0  0
   11.0440    1.1525    8.4232 N   0  0  0  0  0  0  0  0  0  0  0  0
   11.3349   -1.9504    7.9717 N   0  0  0  0  0  0  0  0  0  0  0  0
   11.5616   -3.1007    7.3225 C   0  0  0  0  0  0  0  0  0  0  0  0
   11.7964   -2.8760    6.0302 N   0  0  0  0  0  0  0  0  0  0  0  0
  2  1  1  1  0  0  0
  2  3  1  0  0  0  0
  2  5  1  0  0  0  0
  3  4  1  0  0  0  0
  3 17  1  0  0  0  0
  5  6  1  0  0  0  0
  7  6  1  1  0  0  0
  7  8  1  0  0  0  0
  7  9  1  0  0  0  0
 10  9  1  1  0  0  0
 10 11  1  0  0  0  0
 10 12  1  0  0  0  0
 11 16  1  0  0  0  0
 12 13  1  6  0  0  0
 12 14  1  0  0  0  0
 14 15  1  6  0  0  0
 14 16  1  0  0  0  0
 16 27  1  1  0  0  0
 18 19  2  0  0  0  0
 18 23  1  0  0  0  0
 19 20  1  0  0  0  0
 20 21  2  0  0  0  0
 21 22  1  0  0  0  0
 21 27  1  0  0  0  0
 22 23  2  0  0  0  0
 22 25  1  0  0  0  0
 23 24  1  0  0  0  0
 25 26  2  0  0  0  0
 26 27  1  0  0  0  0
M  END
>  <CHROM.1>
-2.49777291,-55.68056199,-76.17419190,-163.61361468,164.57497236,143.68360542
-125.99550580,10.67161445,-5.10331747,6.59692245,2.01467101,-0.45768152,-3.08017262

>  <Name>
ligand

>  <RI>
0

>  <Rbt.Current_Directory>
/home/itssahil/PROJECTS/Mol_Feturizer/Test_systems_manuscript/rnas/4kqy

>  <Rbt.Executable>
rbdock ($Id: //depot/dev/client3/rdock/2013.1/src/exe/rbdock.cxx#4 $)

>  <Rbt.Library>
libRbt.so (2013.1, Build901 2013/11/27)

>  <Rbt.Parameter_File>
/export/apps/rDock/src/rDock_2013.1_src/data/scripts/dock_solv.prm

>  <Rbt.Receptor>
prm/blind_docking_20.prm

>  <SCORE>
-11.6411

>  <SCORE.INTER>
-12.8852

>  <SCORE.INTER.CONST>
1

>  <SCORE.INTER.POLAR>
0

>  <SCORE.INTER.ROT>
7

>  <SCORE.INTER.SOLV>
8.47813

>  <SCORE.INTER.VDW>
-19.6829

>  <SCORE.INTER.norm>
-0.477231

>  <SCORE.INTRA>
1.24414

>  <SCORE.INTRA.DIHEDRAL>
-1.73781

>  <SCORE.INTRA.DIHEDRAL.0>
10.4103

>  <SCORE.INTRA.POLAR>
0

>  <SCORE.INTRA.POLAR.0>
0

>  <SCORE.INTRA.REPUL>
0

>  <SCORE.INTRA.REPUL.0>
0

>  <SCORE.INTRA.SOLV>
1.64482

>  <SCORE.INTRA.SOLV.lig_0>
-49.5008

>  <SCORE.INTRA.VDW>
1.29063

>  <SCORE.INTRA.VDW.0>
-2.6946

>  <SCORE.INTRA.norm>
0.0460792

>  <SCORE.RESTR>
0

>  <SCORE.RESTR.CAVITY>
0

>  <SCORE.RESTR.norm>
0

>  <SCORE.SYSTEM>
0

>  <SCORE.SYSTEM.CONST>
0

>  <SCORE.SYSTEM.DIHEDRAL>
0

>  <SCORE.SYSTEM.SOLV>
0

>  <SCORE.SYSTEM.norm>
0

>  <SCORE.heavy>
27

>  <SCORE.norm>
-0.431152

>  <RMSD>
20.757

$$$$
ligand
 OpenBabel02271912153D
libRbt.so/2013.1/901 2013/11/27
 27 29  0  0  0  0  0  0  0  0999 V2000
    8.4565   -5.8339    9.3165 N   0  0  0  0  0  0  0  0  0  0  0  0
    8.4424   -6.8472    8.2786 C   0  0  2  0  0  0  0  0  0  0  0  0
    7.1156   -7.5384    8.3492 C   0  0  0  0  0  0  0  0  0  0  0  0
    6.7614   -8.2766    7.4048 O   0  0  0  0  0  0  0  0  0  0  0  0
    9.5772   -7.8518    8.4959 C   0  0  0  0  0  0  0  0  0  0  0  0
    9.8233   -8.7084    7.2342 C   0  0  0  0  0  0  0  0  0  0  0  0
   10.4482   -7.8861    5.9118 S   0  0  2  0  0  0  0  0  0  0  0  0
   10.7833   -8.9687    4.6976 C   0  0  0  0  0  0  0  0  0  0  0  0
   11.8415   -7.0495    6.3673 C   0  0  0  0  0  0  0  0  0  0  0  0
   12.3088   -5.9987    5.3381 C   0  0  1  0  0  0  0  0  0  0  0  0
   11.3678   -4.9276    5.1555 O   0  0  0  0  0  0  0  0  0  0  0  0
   13.5619   -5.2490    5.7607 C   0  0  1  0  0  0  0  0  0  0  0  0
   14.8176   -5.9515    5.6685 O   0  0  0  0  0  0  0  0  0  0  0  0
   13.4733   -4.0376    4.8658 C   0  0  1  0  0  0  0  0  0  0  0  0
   13.7677   -4.4009    3.5203 O   0  0  0  0  0  0  0  0  0  0  0  0
   12.0220   -3.6711    4.9639 C   0  0  2  0  0  0  0  0  0  0  0  0
    6.3980   -7.3900    9.3671 O   0  0  0  0  0  0  0  0  0  0  0  0
   11.5605    1.3489    6.6560 N   0  0  0  0  0  0  0  0  0  0  0  0
   11.8375    0.8896    5.4115 C   0  0  0  0  0  0  0  0  0  0  0  0
   11.9326   -0.4194    5.1238 N   0  0  0  0  0  0  0  0  0  0  0  0
   11.7372   -1.3627    6.0519 C   0  0  0  0  0  0  0  0  0  0  0  0
   11.4141   -0.9328    7.4040 C   0  0  0  0  0  0  0  0  0  0  0  0
   11.3290    0.5127    7.7162 C   0  0  0  0  0  0  0  0  0  0  0  0
   11.0318    0.9803    8.9795 N   0  0  0  0  0  0  0  0  0  0  0  0
   11.2613   -2.0353    8.1019 N   0  0  0  0  0  0  0  0  0  0  0  0
   11.4810   -3.0888    7.3033 C   0  0  0  0  0  0  0  0  0  0  0  0
   11.7635   -2.6914    6.0633 N   0  0  0  0  0  0  0  0  0  0  0  0
  2  1  1  1  0  0  0
  2  3  1  0  0  0  0
  2  5  1  0  0  0  0
  3  4  1  0  0  0  0
  3 17  1  0  0  0  0
  5  6  1  0  0  0  0
  7  6  1  1  0  0  0
  7  8  1  0  0  0  0
  7  9  1  0  0  0  0
 10  9  1  1  0  0  0
 10 11  1  0  0  0  0
 10 12  1  0  0  0  0
 11 16  1  0  0  0  0
 12 13  1  6  0  0  0
 12 14  1  0  0  0  0
 14 15  1  6  0  0  0
 14 16  1  0  0  0  0
 16 27  1  1  0  0  0
 18 19  2  0  0  0  0
 18 23  1  0  0  0  0
 19 20  1  0  0  0  0
 20 21  2  0  0  0  0
 21 22  1  0  0  0  0
 21 27  1  0  0  0  0
 22 23  2  0  0  0  0
 22 25  1  0  0  0  0
 23 24  1  0  0  0  0
 25 26  2  0  0  0  0
 26 27  1  0  0  0  0
M  END
>  <CHROM.1>
166.64331335,-165.01747208,67.94903700,174.78729156,-166.10487577,64.15538935
-151.51005877,10.93297974,-4.63517176,6.59669327,2.07118986,-0.65437193,-2.94226956

>  <Name>
ligand

>  <RI>
0

>  <Rbt.Current_Directory>
/home/itssahil/PROJECTS/Mol_Feturizer/Test_systems_manuscript/rnas/4kqy

>  <Rbt.Executable>
rbdock ($Id: //depot/dev/client3/rdock/2013.1/src/exe/rbdock.cxx#4 $)

>  <Rbt.Library>
libRbt.so (2013.1, Build901 2013/11/27)

>  <Rbt.Parameter_File>
/export/apps/rDock/src/rDock_2013.1_src/data/scripts/dock_solv.prm

>  <Rbt.Receptor>
prm/blind_docking_20.prm

>  <SCORE>
-10.0623

>  <SCORE.INTER>
-7.04625

>  <SCORE.INTER.CONST>
1

>  <SCORE.INTER.POLAR>
0

>  <SCORE.INTER.ROT>
7

>  <SCORE.INTER.SOLV>
10.1701

>  <SCORE.INTER.VDW>
-16.3542

>  <SCORE.INTER.norm>
-0.260972

>  <SCORE.INTRA>
-3.01609

>  <SCORE.INTRA.DIHEDRAL>
-5.85983

>  <SCORE.INTRA.DIHEDRAL.0>
10.4103

>  <SCORE.INTRA.POLAR>
0

>  <SCORE.INTRA.POLAR.0>
0

>  <SCORE.INTRA.REPUL>
0

>  <SCORE.INTRA.REPUL.0>
0

>  <SCORE.INTRA.SOLV>
-0.442461

>  <SCORE.INTRA.SOLV.lig_0>
-49.5008

>  <SCORE.INTRA.VDW>
0.135058

>  <SCORE.INTRA.VDW.0>
-2.6946

>  <SCORE.INTRA.norm>
-0.111707

>  <SCORE.RESTR>
0

>  <SCORE.RESTR.CAVITY>
0

>  <SCORE.RESTR.norm>
0

>  <SCORE.SYSTEM>
0

>  <SCORE.SYSTEM.CONST>
0

>  <SCORE.SYSTEM.DIHEDRAL>
0

>  <SCORE.SYSTEM.SOLV>
0

>  <SCORE.SYSTEM.norm>
0

>  <SCORE.heavy>
27

>  <SCORE.norm>
-0.372679

>  <RMSD>
21.035

$$$$
ligand
 OpenBabel02271912153D
libRbt.so/2013.1/901 2013/11/27
 27 29  0  0  0  0  0  0  0  0999 V2000
   12.1768   -9.5590    6.3717 N   0  0  0  0  0  0  0  0  0  0  0  0
   11.5265   -8.5516    7.1881 C   0  0  2  0  0  0  0  0  0  0  0  0
   10.1095   -8.9912    7.3932 C   0  0  0  0  0  0  0  0  0  0  0  0
    9.4909   -9.5183    6.4436 O   0  0  0  0  0  0  0  0  0  0  0  0
   11.5646   -7.1899    6.4891 C   0  0  0  0  0  0  0  0  0  0  0  0
   13.0149   -6.7431    6.2003 C   0  0  0  0  0  0  0  0  0  0  0  0
   13.1737   -5.3883    5.2232 S   0  0  2  0  0  0  0  0  0  0  0  0
   14.6344   -5.4455    4.4348 C   0  0  0  0  0  0  0  0  0  0  0  0
   13.0565   -3.9911    6.1626 C   0  0  0  0  0  0  0  0  0  0  0  0
   11.6774   -3.7935    6.8266 C   0  0  1  0  0  0  0  0  0  0  0  0
   11.6387   -2.6759    7.7296 O   0  0  0  0  0  0  0  0  0  0  0  0
   10.5734   -3.4422    5.8424 C   0  0  1  0  0  0  0  0  0  0  0  0
   10.0624   -4.5045    5.0122 O   0  0  0  0  0  0  0  0  0  0  0  0
    9.5476   -2.8519    6.7781 C   0  0  1  0  0  0  0  0  0  0  0  0
    8.9499   -3.8811    7.5607 O   0  0  0  0  0  0  0  0  0  0  0  0
   10.3872   -1.9874    7.6714 C   0  0  2  0  0  0  0  0  0  0  0  0
    9.5794   -8.8518    8.5213 O   0  0  0  0  0  0  0  0  0  0  0  0
    8.5919    3.0135    7.4637 N   0  0  0  0  0  0  0  0  0  0  0  0
    8.1022    1.9590    8.1599 C   0  0  0  0  0  0  0  0  0  0  0  0
    8.6571    0.7362    8.1137 N   0  0  0  0  0  0  0  0  0  0  0  0
    9.7515    0.4841    7.3870 C   0  0  0  0  0  0  0  0  0  0  0  0
   10.3383    1.5823    6.6339 C   0  0  0  0  0  0  0  0  0  0  0  0
    9.7094    2.9228    6.6765 C   0  0  0  0  0  0  0  0  0  0  0  0
   10.2166    4.0001    5.9802 N   0  0  0  0  0  0  0  0  0  0  0  0
   11.3906    1.0785    6.0299 N   0  0  0  0  0  0  0  0  0  0  0  0
   11.4826   -0.2239    6.3318 C   0  0  0  0  0  0  0  0  0  0  0  0
   10.5002   -0.5891    7.1546 N   0  0  0  0  0  0  0  0  0  0  0  0
  2  1  1  6  0  0  0
  2  3  1  0  0  0  0
  2  5  1  0  0  0  0
  3  4  1  0  0  0  0
  3 17  1  0  0  0  0
  5  6  1  0  0  0  0
  7  6  1  1  0  0  0
  7  8  1  0  0  0  0
  7  9  1  0  0  0  0
 10  9  1  6  0  0  0
 10 11  1  0  0  0  0
 10 12  1  0  0  0  0
 11 16  1  0  0  0  0
 12 13  1  1  0  0  0
 12 14  1  0  0  0  0
 14 15  1  1  0  0  0
 14 16  1  0  0  0  0
 16 27  1  6  0  0  0
 18 19  2  0  0  0  0
 18 23  1  0  0  0  0
 19 20  1  0  0  0  0
 20 21  2  0  0  0  0
 21 22  1  0  0  0  0
 21 27  1  0  0  0  0
 22 23  2  0  0  0  0
 22 25  1  0  0  0  0
 23 24  1  0  0  0  0
 25 26  2  0  0  0  0
 26 27  1  0  0  0  0
M  END
>  <CHROM.1>
-39.42660616,-58.69074991,170.64473727,-153.45147001,-64.55366925,173.98161914
-152.21946963,10.86530212,-3.30755216,6.65205086,-1.36570269,0.51869529,-0.05228604

>  <Name>
ligand

>  <RI>
0

>  <Rbt.Current_Directory>
/home/itssahil/PROJECTS/Mol_Feturizer/Test_systems_manuscript/rnas/4kqy

>  <Rbt.Executable>
rbdock ($Id: //depot/dev/client3/rdock/2013.1/src/exe/rbdock.cxx#4 $)

>  <Rbt.Library>
libRbt.so (2013.1, Build901 2013/11/27)

>  <Rbt.Parameter_File>
/export/apps/rDock/src/rDock_2013.1_src/data/scripts/dock_solv.prm

>  <Rbt.Receptor>
prm/blind_docking_20.prm

>  <SCORE>
-10.6894

>  <SCORE.INTER>
-7.99941

>  <SCORE.INTER.CONST>
1

>  <SCORE.INTER.POLAR>
0

>  <SCORE.INTER.ROT>
7

>  <SCORE.INTER.SOLV>
11.6559

>  <SCORE.INTER.VDW>
-17.4849

>  <SCORE.INTER.norm>
-0.296275

>  <SCORE.INTRA>
-2.68997

>  <SCORE.INTRA.DIHEDRAL>
-5.2267

>  <SCORE.INTRA.DIHEDRAL.0>
10.4103

>  <SCORE.INTRA.POLAR>
0

>  <SCORE.INTRA.POLAR.0>
0

>  <SCORE.INTRA.REPUL>
0

>  <SCORE.INTRA.REPUL.0>
0

>  <SCORE.INTRA.SOLV>
0.576192

>  <SCORE.INTRA.SOLV.lig_0>
-49.5008

>  <SCORE.INTRA.VDW>
-0.364715

>  <SCORE.INTRA.VDW.0>
-2.6946

>  <SCORE.INTRA.norm>
-0.0996284

>  <SCORE.RESTR>
0

>  <SCORE.RESTR.CAVITY>
0

>  <SCORE.RESTR.norm>
0

>  <SCORE.SYSTEM>
0

>  <SCORE.SYSTEM.CONST>
0

>  <SCORE.SYSTEM.DIHEDRAL>
0

>  <SCORE.SYSTEM.SOLV>
0

>  <SCORE.SYSTEM.norm>
0

>  <SCORE.heavy>
27

>  <SCORE.norm>
-0.395903

>  <RMSD>
21.165

$$$$
ligand
 OpenBabel02271912153D
libRbt.so/2013.1/901 2013/11/27
 27 29  0  0  0  0  0  0  0  0999 V2000
    9.3765    5.1194    6.2790 N   0  0  0  0  0  0  0  0  0  0  0  0
    9.1829    3.7149    6.5857 C   0  0  2  0  0  0  0  0  0  0  0  0
    8.7895    3.6242    8.0280 C   0  0  0  0  0  0  0  0  0  0  0  0
    8.3706    2.5362    8.4787 O   0  0  0  0  0  0  0  0  0  0  0  0
   10.4735    2.9298    6.3365 C   0  0  0  0  0  0  0  0  0  0  0  0
   10.2004    1.4133    6.2268 C   0  0  0  0  0  0  0  0  0  0  0  0
   11.5302    0.4645    5.8437 S   0  0  2  0  0  0  0  0  0  0  0  0
   12.2086    1.0116    4.4298 C   0  0  0  0  0  0  0  0  0  0  0  0
   11.0555   -1.1482    5.6934 C   0  0  0  0  0  0  0  0  0  0  0  0
   12.2265   -2.1316    5.4849 C   0  0  1  0  0  0  0  0  0  0  0  0
   12.5277   -2.9096    6.6553 O   0  0  0  0  0  0  0  0  0  0  0  0
   11.9377   -3.2111    4.4542 C   0  0  1  0  0  0  0  0  0  0  0  0
   11.9655   -2.8259    3.0651 O   0  0  0  0  0  0  0  0  0  0  0  0
   12.9838   -4.2331    4.8251 C   0  0  1  0  0  0  0  0  0  0  0  0
   14.2755   -3.7730    4.4393 O   0  0  0  0  0  0  0  0  0  0  0  0
   12.9007   -4.2490    6.3228 C   0  0  2  0  0  0  0  0  0  0  0  0
    8.9169    4.6311    8.7649 O   0  0  0  0  0  0  0  0  0  0  0  0
   11.4751   -9.3385    6.9066 N   0  0  0  0  0  0  0  0  0  0  0  0
   12.5795   -8.8240    6.3131 C   0  0  0  0  0  0  0  0  0  0  0  0
   12.8117   -7.5033    6.2295 N   0  0  0  0  0  0  0  0  0  0  0  0
   11.9699   -6.6036    6.7504 C   0  0  0  0  0  0  0  0  0  0  0  0
   10.7758   -7.0951    7.4212 C   0  0  0  0  0  0  0  0  0  0  0  0
   10.5188   -8.5521    7.4929 C   0  0  0  0  0  0  0  0  0  0  0  0
    9.4025   -9.0767    8.1106 N   0  0  0  0  0  0  0  0  0  0  0  0
   10.1399   -6.0267    7.8458 N   0  0  0  0  0  0  0  0  0  0  0  0
   10.8275   -4.9370    7.4774 C   0  0  0  0  0  0  0  0  0  0  0  0
   11.9359   -5.2769    6.8205 N   0  0  0  0  0  0  0  0  0  0  0  0
  2  1  1  1  0  0  0
  2  3  1  0  0  0  0
  2  5  1  0  0  0  0
  3  4  1  0  0  0  0
  3 17  1  0  0  0  0
  5  6  1  0  0  0  0
  7  6  1  6  0  0  0
  7  8  1  0  0  0  0
  7  9  1  0  0  0  0
 10  9  1  1  0  0  0
 10 11  1  0  0  0  0
 10 12  1  0  0  0  0
 11 16  1  0  0  0  0
 12 13  1  6  0  0  0
 12 14  1  0  0  0  0
 14 15  1  1  0  0  0
 14 16  1  0  0  0  0
 16 27  1  6  0  0  0
 18 19  2  0  0  0  0
 18 23  1  0  0  0  0
 19 20  1  0  0  0  0
 20 21  2  0  0  0  0
 21 22  1  0  0  0  0
 21 27  1  0  0  0  0
 22 23  2  0  0  0  0
 22 25  1  0  0  0  0
 23 24  1  0  0  0  0
 25 26  2  0  0  0  0
 26 27  1  0  0  0  0
M  END
>  <CHROM.1>
169.21987109,-162.41241377,175.78241965,-55.81715935,-174.02996406,105.56728893
-177.21304115,11.18145600,-2.38955238,6.36821480,1.82562928,0.80735885,-0.16925319

>  <Name>
ligand

>  <RI>
0

>  <Rbt.Current_Directory>
/home/itssahil/PROJECTS/Mol_Feturizer/Test_systems_manuscript/rnas/4kqy

>  <Rbt.Executable>
rbdock ($Id: //depot/dev/client3/rdock/2013.1/src/exe/rbdock.cxx#4 $)

>  <Rbt.Library>
libRbt.so (2013.1, Build901 2013/11/27)

>  <Rbt.Parameter_File>
/export/apps/rDock/src/rDock_2013.1_src/data/scripts/dock_solv.prm

>  <Rbt.Receptor>
prm/blind_docking_20.prm

>  <SCORE>
-9.81397

>  <SCORE.INTER>
-9.46223

>  <SCORE.INTER.CONST>
1

>  <SCORE.INTER.POLAR>
0

>  <SCORE.INTER.ROT>
7

>  <SCORE.INTER.SOLV>
12.9505

>  <SCORE.INTER.VDW>
-18.8917

>  <SCORE.INTER.norm>
-0.350453

>  <SCORE.INTRA>
-0.351735

>  <SCORE.INTRA.DIHEDRAL>
-1.87155

>  <SCORE.INTRA.DIHEDRAL.0>
10.4103

>  <SCORE.INTRA.POLAR>
0

>  <SCORE.INTRA.POLAR.0>
0

>  <SCORE.INTRA.REPUL>
0

>  <SCORE.INTRA.REPUL.0>
0

>  <SCORE.INTRA.SOLV>
-0.623137

>  <SCORE.INTRA.SOLV.lig_0>
-49.5008

>  <SCORE.INTRA.VDW>
0.895606

>  <SCORE.INTRA.VDW.0>
-2.6946

>  <SCORE.INTRA.norm>
-0.0130272

>  <SCORE.RESTR>
0

>  <SCORE.RESTR.CAVITY>
0

>  <SCORE.RESTR.norm>
0

>  <SCORE.SYSTEM>
0

>  <SCORE.SYSTEM.CONST>
0

>  <SCORE.SYSTEM.DIHEDRAL>
0

>  <SCORE.SYSTEM.SOLV>
0

>  <SCORE.SYSTEM.norm>
0

>  <SCORE.heavy>
27

>  <SCORE.norm>
-0.36348

>  <RMSD>
22.175

$$$$
ligand
 OpenBabel02271912153D
libRbt.so/2013.1/901 2013/11/27
 27 29  0  0  0  0  0  0  0  0999 V2000
    9.0800   -8.1756    9.5315 N   0  0  0  0  0  0  0  0  0  0  0  0
    8.5800   -8.1433    8.1702 C   0  0  2  0  0  0  0  0  0  0  0  0
    8.4590   -9.5622    7.7064 C   0  0  0  0  0  0  0  0  0  0  0  0
    8.9750  -10.4732    8.3891 O   0  0  0  0  0  0  0  0  0  0  0  0
    9.5416   -7.3685    7.2651 C   0  0  0  0  0  0  0  0  0  0  0  0
    9.6206   -5.8791    7.6675 C   0  0  0  0  0  0  0  0  0  0  0  0
   10.5151   -4.8987    6.6410 S   0  0  2  0  0  0  0  0  0  0  0  0
   12.0981   -5.4012    6.6397 C   0  0  0  0  0  0  0  0  0  0  0  0
   10.3992   -3.2915    7.1433 C   0  0  0  0  0  0  0  0  0  0  0  0
   10.5473   -2.2636    6.0017 C   0  0  1  0  0  0  0  0  0  0  0  0
   10.1923   -0.9271    6.3938 O   0  0  0  0  0  0  0  0  0  0  0  0
   11.9804   -2.0833    5.5280 C   0  0  1  0  0  0  0  0  0  0  0  0
   12.5448   -3.1279    4.7100 O   0  0  0  0  0  0  0  0  0  0  0  0
   11.8738   -0.7508    4.8283 C   0  0  1  0  0  0  0  0  0  0  0  0
   11.1585   -0.8966    3.6052 O   0  0  0  0  0  0  0  0  0  0  0  0
   11.0413    0.0493    5.7859 C   0  0  2  0  0  0  0  0  0  0  0  0
    7.8161   -9.8145    6.6594 O   0  0  0  0  0  0  0  0  0  0  0  0
   14.5902    3.8630    6.8522 N   0  0  0  0  0  0  0  0  0  0  0  0
   14.0535    3.5054    5.6603 C   0  0  0  0  0  0  0  0  0  0  0  0
   13.1632    2.5071    5.5337 N   0  0  0  0  0  0  0  0  0  0  0  0
   12.7296    1.8093    6.5894 C   0  0  0  0  0  0  0  0  0  0  0  0
   13.2525    2.1609    7.9010 C   0  0  0  0  0  0  0  0  0  0  0  0
   14.2471    3.2510    8.0289 C   0  0  0  0  0  0  0  0  0  0  0  0
   14.7820    3.6255    9.2440 N   0  0  0  0  0  0  0  0  0  0  0  0
   12.6651    1.3473    8.7490 N   0  0  0  0  0  0  0  0  0  0  0  0
   11.8525    0.5256    8.0706 C   0  0  0  0  0  0  0  0  0  0  0  0
   11.8817    0.8014    6.7673 N   0  0  0  0  0  0  0  0  0  0  0  0
  2  1  1  1  0  0  0
  2  3  1  0  0  0  0
  2  5  1  0  0  0  0
  3  4  1  0  0  0  0
  3 17  1  0  0  0  0
  5  6  1  0  0  0  0
  7  6  1  1  0  0  0
  7  8  1  0  0  0  0
  7  9  1  0  0  0  0
 10  9  1  1  0  0  0
 10 11  1  0  0  0  0
 10 12  1  0  0  0  0
 11 16  1  0  0  0  0
 12 13  1  6  0  0  0
 12 14  1  0  0  0  0
 14 15  1  6  0  0  0
 14 16  1  0  0  0  0
 16 27  1  1  0  0  0
 18 19  2  0  0  0  0
 18 23  1  0  0  0  0
 19 20  1  0  0  0  0
 20 21  2  0  0  0  0
 21 22  1  0  0  0  0
 21 27  1  0  0  0  0
 22 23  2  0  0  0  0
 22 25  1  0  0  0  0
 23 24  1  0  0  0  0
 25 26  2  0  0  0  0
 26 27  1  0  0  0  0
M  END
>  <CHROM.1>
-11.62783374,-65.00026066,-173.58630385,-63.00646401,-151.48978073,168.67536659
-176.45764395,11.29858989,-2.48459680,6.85218934,-2.82835163,-1.17104343
-1.29731533

>  <Name>
ligand

>  <RI>
0

>  <Rbt.Current_Directory>
/home/itssahil/PROJECTS/Mol_Feturizer/Test_systems_manuscript/rnas/4kqy

>  <Rbt.Executable>
rbdock ($Id: //depot/dev/client3/rdock/2013.1/src/exe/rbdock.cxx#4 $)

>  <Rbt.Library>
libRbt.so (2013.1, Build901 2013/11/27)

>  <Rbt.Parameter_File>
/export/apps/rDock/src/rDock_2013.1_src/data/scripts/dock_solv.prm

>  <Rbt.Receptor>
prm/blind_docking_20.prm

>  <SCORE>
-7.10958

>  <SCORE.INTER>
-5.71155

>  <SCORE.INTER.CONST>
1

>  <SCORE.INTER.POLAR>
0

>  <SCORE.INTER.ROT>
7

>  <SCORE.INTER.SOLV>
4.86142

>  <SCORE.INTER.VDW>
-13.6948

>  <SCORE.INTER.norm>
-0.211539

>  <SCORE.INTRA>
-1.40144

>  <SCORE.INTRA.DIHEDRAL>
-4.78469

>  <SCORE.INTRA.DIHEDRAL.0>
10.4103

>  <SCORE.INTRA.POLAR>
0

>  <SCORE.INTRA.POLAR.0>
0

>  <SCORE.INTRA.REPUL>
0

>  <SCORE.INTRA.REPUL.0>
0

>  <SCORE.INTRA.SOLV>
0.308688

>  <SCORE.INTRA.SOLV.lig_0>
-49.5008

>  <SCORE.INTRA.VDW>
0.836566

>  <SCORE.INTRA.VDW.0>
-2.6946

>  <SCORE.INTRA.norm>
-0.051905

>  <SCORE.RESTR>
0.00341146

>  <SCORE.RESTR.CAVITY>
0.00341146

>  <SCORE.RESTR.norm>
0.00012635

>  <SCORE.SYSTEM>
0

>  <SCORE.SYSTEM.CONST>
0

>  <SCORE.SYSTEM.DIHEDRAL>
0

>  <SCORE.SYSTEM.SOLV>
0

>  <SCORE.SYSTEM.norm>
0

>  <SCORE.heavy>
27

>  <SCORE.norm>
-0.263318

>  <RMSD>
22.204

$$$$
ligand
 OpenBabel02271912153D
libRbt.so/2013.1/901 2013/11/27
 27 29  0  0  0  0  0  0  0  0999 V2000
   14.6810    3.0793    7.3740 N   0  0  0  0  0  0  0  0  0  0  0  0
   13.9933    3.4012    6.1381 C   0  0  2  0  0  0  0  0  0  0  0  0
   14.1423    4.8749    5.9164 C   0  0  0  0  0  0  0  0  0  0  0  0
   14.1674    5.6408    6.9038 O   0  0  0  0  0  0  0  0  0  0  0  0
   12.5122    3.0257    6.2362 C   0  0  0  0  0  0  0  0  0  0  0  0
   12.2920    1.5199    5.9705 C   0  0  0  0  0  0  0  0  0  0  0  0
   10.9366    0.8478    6.6960 S   0  0  2  0  0  0  0  0  0  0  0  0
   11.3396    0.2921    8.2085 C   0  0  0  0  0  0  0  0  0  0  0  0
   10.3404   -0.4072    5.7379 C   0  0  0  0  0  0  0  0  0  0  0  0
   11.4293   -1.3594    5.1997 C   0  0  1  0  0  0  0  0  0  0  0  0
   12.1389   -2.0532    6.2394 O   0  0  0  0  0  0  0  0  0  0  0  0
   10.8769   -2.5094    4.3731 C   0  0  1  0  0  0  0  0  0  0  0  0
   10.4270   -2.2092    3.0367 O   0  0  0  0  0  0  0  0  0  0  0  0
   12.0400   -3.4690    4.4243 C   0  0  1  0  0  0  0  0  0  0  0  0
   13.1071   -2.9878    3.6127 O   0  0  0  0  0  0  0  0  0  0  0  0
   12.4536   -3.3963    5.8644 C   0  0  2  0  0  0  0  0  0  0  0  0
   14.2708    5.3113    4.7475 O   0  0  0  0  0  0  0  0  0  0  0  0
   12.3156   -8.2544    8.0221 N   0  0  0  0  0  0  0  0  0  0  0  0
   13.2711   -7.6939    7.2413 C   0  0  0  0  0  0  0  0  0  0  0  0
   13.1720   -6.4458    6.7537 N   0  0  0  0  0  0  0  0  0  0  0  0
   12.1236   -5.6615    7.0278 C   0  0  0  0  0  0  0  0  0  0  0  0
   11.0740   -6.1989    7.8802 C   0  0  0  0  0  0  0  0  0  0  0  0
   11.1829   -7.5822    8.3986 C   0  0  0  0  0  0  0  0  0  0  0  0
   10.2179   -8.1476    9.2061 N   0  0  0  0  0  0  0  0  0  0  0  0
   10.1855   -5.2386    8.0005 N   0  0  0  0  0  0  0  0  0  0  0  0
   10.5906   -4.1801    7.2854 C   0  0  0  0  0  0  0  0  0  0  0  0
   11.7620   -4.4254    6.6997 N   0  0  0  0  0  0  0  0  0  0  0  0
  2  1  1  1  0  0  0
  2  3  1  0  0  0  0
  2  5  1  0  0  0  0
  3  4  1  0  0  0  0
  3 17  1  0  0  0  0
  5  6  1  0  0  0  0
  7  6  1  6  0  0  0
  7  8  1  0  0  0  0
  7  9  1  0  0  0  0
 10  9  1  1  0  0  0
 10 11  1  0  0  0  0
 10 12  1  0  0  0  0
 11 16  1  0  0  0  0
 12 13  1  6  0  0  0
 12 14  1  0  0  0  0
 14 15  1  6  0  0  0
 14 16  1  0  0  0  0
 16 27  1  1  0  0  0
 18 19  2  0  0  0  0
 18 23  1  0  0  0  0
 19 20  1  0  0  0  0
 20 21  2  0  0  0  0
 21 22  1  0  0  0  0
 21 27  1  0  0  0  0
 22 23  2  0  0  0  0
 22 25  1  0  0  0  0
 23 24  1  0  0  0  0
 25 26  2  0  0  0  0
 26 27  1  0  0  0  0
M  END
>  <CHROM.1>
-33.89350533,-81.41785880,153.21545772,-89.45245139,44.67565074,62.57493542
-151.17891193,12.07526221,-1.73284191,6.38229161,-0.67565121,1.35241040,2.13222195

>  <Name>
ligand

>  <RI>
0

>  <Rbt.Current_Directory>
/home/itssahil/PROJECTS/Mol_Feturizer/Test_systems_manuscript/rnas/4kqy

>  <Rbt.Executable>
rbdock ($Id: //depot/dev/client3/rdock/2013.1/src/exe/rbdock.cxx#4 $)

>  <Rbt.Library>
libRbt.so (2013.1, Build901 2013/11/27)

>  <Rbt.Parameter_File>
/export/apps/rDock/src/rDock_2013.1_src/data/scripts/dock_solv.prm

>  <Rbt.Receptor>
prm/blind_docking_20.prm

>  <SCORE>
-5.20857

>  <SCORE.INTER>
-5.4289

>  <SCORE.INTER.CONST>
1

>  <SCORE.INTER.POLAR>
0

>  <SCORE.INTER.ROT>
7

>  <SCORE.INTER.SOLV>
9.5239

>  <SCORE.INTER.VDW>
-15.0606

>  <SCORE.INTER.norm>
-0.20107

>  <SCORE.INTRA>
-0.0040105

>  <SCORE.INTRA.DIHEDRAL>
-0.4447

>  <SCORE.INTRA.DIHEDRAL.0>
10.4103

>  <SCORE.INTRA.POLAR>
0

>  <SCORE.INTRA.POLAR.0>
0

>  <SCORE.INTRA.REPUL>
0

>  <SCORE.INTRA.REPUL.0>
0

>  <SCORE.INTRA.SOLV>
0.364173

>  <SCORE.INTRA.SOLV.lig_0>
-49.5008

>  <SCORE.INTRA.VDW>
0.0362526

>  <SCORE.INTRA.VDW.0>
-2.6946

>  <SCORE.INTRA.norm>
-0.000148537

>  <SCORE.RESTR>
0.224343

>  <SCORE.RESTR.CAVITY>
0.224343

>  <SCORE.RESTR.norm>
0.00830901

>  <SCORE.SYSTEM>
0

>  <SCORE.SYSTEM.CONST>
0

>  <SCORE.SYSTEM.DIHEDRAL>
0

>  <SCORE.SYSTEM.SOLV>
0

>  <SCORE.SYSTEM.norm>
0

>  <SCORE.heavy>
27

>  <SCORE.norm>
-0.19291

>  <RMSD>
22.923

$$$$
ligand
 OpenBabel02271912153D
libRbt.so/2013.1/901 2013/11/27
 27 29  0  0  0  0  0  0  0  0999 V2000
   13.4639   -4.7623    4.6180 N   0  0  0  0  0  0  0  0  0  0  0  0
   13.2708   -5.1423    6.0046 C   0  0  2  0  0  0  0  0  0  0  0  0
   13.0860   -6.6282    6.0376 C   0  0  0  0  0  0  0  0  0  0  0  0
   13.6259   -7.2899    6.9501 O   0  0  0  0  0  0  0  0  0  0  0  0
   12.0401   -4.4407    6.5853 C   0  0  0  0  0  0  0  0  0  0  0  0
   12.1638   -2.9043    6.4820 C   0  0  0  0  0  0  0  0  0  0  0  0
   10.9010   -2.0296    7.1569 S   0  0  2  0  0  0  0  0  0  0  0  0
    9.4930   -2.3822    6.3494 C   0  0  0  0  0  0  0  0  0  0  0  0
   11.2412   -0.3788    7.0711 C   0  0  0  0  0  0  0  0  0  0  0  0
   10.2647    0.5072    7.8732 C   0  0  1  0  0  0  0  0  0  0  0  0
   10.9022    1.6387    8.4889 O   0  0  0  0  0  0  0  0  0  0  0  0
    9.2018    1.1728    7.0140 C   0  0  1  0  0  0  0  0  0  0  0  0
    8.1200    0.3465    6.5390 O   0  0  0  0  0  0  0  0  0  0  0  0
    8.7617    2.2855    7.9329 C   0  0  1  0  0  0  0  0  0  0  0  0
    8.0001    1.7551    9.0134 O   0  0  0  0  0  0  0  0  0  0  0  0
   10.0672    2.7988    8.4643 C   0  0  2  0  0  0  0  0  0  0  0  0
   12.3679   -7.1782    5.1686 O   0  0  0  0  0  0  0  0  0  0  0  0
   13.7858    4.6859    5.1647 N   0  0  0  0  0  0  0  0  0  0  0  0
   13.6941    3.4606    5.7364 C   0  0  0  0  0  0  0  0  0  0  0  0
   12.6938    3.1178    6.5652 N   0  0  0  0  0  0  0  0  0  0  0  0
   11.7033    3.9652    6.8654 C   0  0  0  0  0  0  0  0  0  0  0  0
   11.7333    5.2901    6.2644 C   0  0  0  0  0  0  0  0  0  0  0  0
   12.8496    5.6656    5.3660 C   0  0  0  0  0  0  0  0  0  0  0  0
   12.9349    6.9075    4.7717 N   0  0  0  0  0  0  0  0  0  0  0  0
   10.6596    5.9060    6.7046 N   0  0  0  0  0  0  0  0  0  0  0  0
    9.9954    5.0848    7.5295 C   0  0  0  0  0  0  0  0  0  0  0  0
   10.6159    3.9097    7.6276 N   0  0  0  0  0  0  0  0  0  0  0  0
  2  1  1  6  0  0  0
  2  3  1  0  0  0  0
  2  5  1  0  0  0  0
  3  4  1  0  0  0  0
  3 17  1  0  0  0  0
  5  6  1  0  0  0  0
  7  6  1  6  0  0  0
  7  8  1  0  0  0  0
  7  9  1  0  0  0  0
 10  9  1  6  0  0  0
 10 11  1  0  0  0  0
 10 12  1  0  0  0  0
 11 16  1  0  0  0  0
 12 13  1  1  0  0  0
 12 14  1  0  0  0  0
 14 15  1  1  0  0  0
 14 16  1  0  0  0  0
 16 27  1  6  0  0  0
 18 19  2  0  0  0  0
 18 23  1  0  0  0  0
 19 20  1  0  0  0  0
 20 21  2  0  0  0  0
 21 22  1  0  0  0  0
 21 27  1  0  0  0  0
 22 23  2  0  0  0  0
 22 25  1  0  0  0  0
 23 24  1  0  0  0  0
 25 26  2  0  0  0  0
 26 27  1  0  0  0  0
M  END
>  <CHROM.1>
139.52832361,-57.92450878,-177.16502790,-62.75924352,-170.15803197,143.78006609
3.68805941,11.33568810,0.30567675,6.71655269,-1.44488748,0.50638970,-0.01244011

>  <Name>
ligand

>  <RI>
0

>  <Rbt.Current_Directory>
/home/itssahil/PROJECTS/Mol_Feturizer/Test_systems_manuscript/rnas/4kqy

>  <Rbt.Executable>
rbdock ($Id: //depot/dev/client3/rdock/2013.1/src/exe/rbdock.cxx#4 $)

>  <Rbt.Library>
libRbt.so (2013.1, Build901 2013/11/27)

>  <Rbt.Parameter_File>
/export/apps/rDock/src/rDock_2013.1_src/data/scripts/dock_solv.prm

>  <Rbt.Receptor>
prm/blind_docking_20.prm

>  <SCORE>
-7.21274

>  <SCORE.INTER>
-5.69665

>  <SCORE.INTER.CONST>
1

>  <SCORE.INTER.POLAR>
0

>  <SCORE.INTER.ROT>
7

>  <SCORE.INTER.SOLV>
8.53117

>  <SCORE.INTER.VDW>
-14.9082

>  <SCORE.INTER.norm>
-0.210987

>  <SCORE.INTRA>
-1.52367

>  <SCORE.INTRA.DIHEDRAL>
-3.99659

>  <SCORE.INTRA.DIHEDRAL.0>
10.4103

>  <SCORE.INTRA.POLAR>
0

>  <SCORE.INTRA.POLAR.0>
0

>  <SCORE.INTRA.REPUL>
0

>  <SCORE.INTRA.REPUL.0>
0

>  <SCORE.INTRA.SOLV>
0.360586

>  <SCORE.INTRA.SOLV.lig_0>
-49.5008

>  <SCORE.INTRA.VDW>
0.294331

>  <SCORE.INTRA.VDW.0>
-2.6946

>  <SCORE.INTRA.norm>
-0.0564322

>  <SCORE.RESTR>
0.00757821

>  <SCORE.RESTR.CAVITY>
0.00757821

>  <SCORE.RESTR.norm>
0.000280675

>  <SCORE.SYSTEM>
0

>  <SCORE.SYSTEM.CONST>
0

>  <SCORE.SYSTEM.DIHEDRAL>
0

>  <SCORE.SYSTEM.SOLV>
0

>  <SCORE.SYSTEM.norm>
0

>  <SCORE.heavy>
27

>  <SCORE.norm>
-0.267139

>  <RMSD>
23.284

$$$$
