@<TRIPOS>MOLECULE
4kqy_rdock.pdb
 2556 2866 0 0 0
SMALL
GASTEIGER

@<TRIPOS>ATOM
      1  C5'       12.8270  -15.9820   29.2630 C.3     0  G0          0.2141
      2  O5'       14.1110  -15.3180   29.1350 O.3     0  G0         -0.2176
      3  C4'       13.0270  -17.4770   29.3630 C.3     0  G0          0.1802
      4  O4'       13.0780  -17.8790   30.7680 O.3     0  G0         -0.3306
      5  C3'       11.9310  -18.3440   28.7500 C.3     0  G0          0.1861
      6  O3'       12.0040  -18.4350   27.3220 O.3     0  G0         -0.3112
      7  C2'       12.1040  -19.6290   29.5540 C.3     0  G0          0.2309
      8  O2'       13.2240  -20.4250   29.2060 O.3     0  G0         -0.2156
      9  C1'       12.2980  -19.0510   30.9540 C.3     0  G0          0.2408
     10  N1         8.7010  -20.4260   34.2690 N.ar    0  G0         -0.1709
     11  C2         9.8190  -21.1130   33.8590 C.ar    0  G0          0.2606
     12  N2        10.0030  -22.3230   34.4020 N.pl3   0  G0         -0.0859
     13  N3        10.6890  -20.6490   32.9750 N.ar    0  G0         -0.1918
     14  C4        10.3490  -19.4220   32.5280 C.ar    0  G0          0.1723
     15  C5         9.2600  -18.6490   32.8780 C.ar    0  G0          0.1748
     16  C6         8.3360  -19.1560   33.8310 C.ar    0  G0          0.3023
     17  O6         7.3130  -18.6210   34.2750 O.2     0  G0         -0.2633
     18  N7         9.2790  -17.4370   32.2020 N.ar    0  G0         -0.2173
     19  C8        10.3550  -17.4940   31.4660 C.ar    0  G0          0.1817
     20  N9        11.0510  -18.6710   31.6160 N.ar    0  G0         -0.2693
     21  P         11.0490  -19.4490   26.5090 P.3     1  U1          0.2141
     22  C5'       10.8730  -22.0600   26.6100 C.3     1  U1          0.1812
     23  O5'       11.4660  -20.8610   27.1030 O.3     1  U1         -0.3114
     24  C4'       11.0500  -23.1610   27.6210 C.3     1  U1          0.1773
     25  O4'       11.1330  -22.5950   28.9560 O.3     1  U1         -0.3307
     26  C3'        9.9040  -24.1540   27.6900 C.3     1  U1          0.1860
     27  O3'       10.0990  -25.1410   26.6930 O.3     1  U1         -0.3112
     28  C2'       10.0050  -24.6810   29.1140 C.3     1  U1          0.2309
     29  O2'       10.9090  -25.7650   29.2390 O.3     1  U1         -0.2156
     30  C1'       10.4240  -23.4170   29.8680 C.3     1  U1          0.2420
     31  N1         9.2940  -22.6470   30.4050 N.ar    1  U1         -0.2534
     32  C2         8.6380  -23.1630   31.5060 C.ar    1  U1          0.3546
     33  O2         8.9500  -24.2210   32.0270 O.2     1  U1         -0.2443
     34  N3         7.6010  -22.3940   31.9740 N.ar    1  U1         -0.1530
     35  C4         7.1620  -21.1880   31.4680 C.ar    1  U1          0.2846
     36  O4         6.2120  -20.6180   32.0020 O.2     1  U1         -0.2650
     37  C5         7.8960  -20.7160   30.3340 C.ar    1  U1          0.0814
     38  C6         8.9090  -21.4450   29.8500 C.ar    1  U1          0.0870
     39  OP1       11.4710  -19.4420   25.0840 O.2     1  U1         -0.5172
     40  OP2        9.6420  -19.1580   26.8650 O.co2   1  U1         -0.4373
     41  P          9.2950  -25.0370   25.3370 P.3     2  U2          0.2141
     42  C5'        8.4300  -27.4190   25.9670 C.3     2  U2          0.1812
     43  O5'        8.1190  -26.0870   25.5490 O.3     2  U2         -0.3114
     44  C4'        7.5640  -27.8240   27.1310 C.3     2  U2          0.1773
     45  O4'        7.5970  -26.8450   28.1970 O.3     2  U2         -0.3307
     46  C3'        6.0810  -27.9060   26.8400 C.3     2  U2          0.1860
     47  O3'        5.7610  -29.0400   26.0470 O.3     2  U2         -0.3112
     48  C2'        5.5030  -27.9620   28.2450 C.3     2  U2          0.2309
     49  O2'        5.5480  -29.2570   28.8030 O.3     2  U2         -0.2156
     50  C1'        6.4340  -27.0060   28.9930 C.3     2  U2          0.2420
     51  N1         5.8340  -25.6880   29.2350 N.ar    2  U2         -0.2534
     52  C2         4.6430  -25.6450   29.9380 C.ar    2  U2          0.3546
     53  O2         4.0750  -26.6450   30.3460 O.2     2  U2         -0.2443
     54  N3         4.1430  -24.3830   30.1460 N.ar    2  U2         -0.1530
     55  C4         4.6980  -23.1880   29.7430 C.ar    2  U2          0.2846
     56  O4         4.1230  -22.1320   30.0120 O.2     2  U2         -0.2650
     57  C5         5.9300  -23.3170   29.0270 C.ar    2  U2          0.0814
     58  C6         6.4440  -24.5330   28.8050 C.ar    2  U2          0.0870
     59  OP1       10.1850  -25.4990   24.2520 O.2     2  U2         -0.5172
     60  OP2        8.6860  -23.6910   25.2620 O.co2   2  U2         -0.4373
     61  P          4.6970  -28.9060   24.8770 P.3     3  C3          0.2141
     62  C5'        3.1350  -30.3150   26.4670 C.3     3  C3          0.1812
     63  O5'        3.3030  -29.1660   25.6120 O.3     3  C3         -0.3114
     64  C4'        1.8950  -30.1870   27.3210 C.3     3  C3          0.1773
     65  O4'        2.1140  -29.2800   28.4360 O.3     3  C3         -0.3307
     66  C3'        0.6680  -29.6220   26.6310 C.3     3  C3          0.1860
     67  O3'        0.0240  -30.6160   25.8580 O.3     3  C3         -0.3112
     68  C2'       -0.1770  -29.1680   27.8120 C.3     3  C3          0.2309
     69  O2'       -0.9910  -30.1680   28.3920 O.3     3  C3         -0.2156
     70  C1'        0.9030  -28.5990   28.7340 C.3     3  C3          0.2420
     71  N1         1.1080  -27.1670   28.4810 N.ar    3  C3         -0.2535
     72  C2         0.1790  -26.2480   28.9830 C.ar    3  C3          0.3532
     73  O2        -0.7770  -26.6660   29.6520 O.2     3  C3         -0.2443
     74  N3         0.3540  -24.9290   28.7340 N.ar    3  C3         -0.1739
     75  C4         1.3960  -24.5200   28.0050 C.ar    3  C3          0.1759
     76  N4         1.5320  -23.2110   27.7850 N.pl3   3  C3         -0.1070
     77  C5         2.3480  -25.4380   27.4710 C.ar    3  C3          0.0566
     78  C6         2.1600  -26.7400   27.7190 C.ar    3  C3          0.0850
     79  OP1        4.9900  -29.9910   23.9080 O.2     3  C3         -0.5172
     80  OP2        4.7170  -27.4990   24.4200 O.co2   3  C3         -0.4373
     81  P         -0.7090  -30.2000   24.5300 P.3     4  U4          0.2141
     82  C5'       -2.9770  -30.1520   25.8710 C.3     4  U4          0.1812
     83  O5'       -2.0060  -29.4570   25.0830 O.3     4  U4         -0.3114
     84  C4'       -3.8740  -29.1670   26.5670 C.3     4  U4          0.1773
     85  O4'       -3.0740  -28.2370   27.3280 O.3     4  U4         -0.3307
     86  C3'       -4.6810  -28.2560   25.6680 C.3     4  U4          0.1860
     87  O3'       -5.8380  -28.8700   25.1410 O.3     4  U4         -0.3112
     88  C2'       -5.0400  -27.1140   26.6070 C.3     4  U4          0.2309
     89  O2'       -6.2150  -27.2620   27.3830 O.3     4  U4         -0.2156
     90  C1'       -3.7600  -26.9980   27.4350 C.3     4  U4          0.2420
     91  N1        -2.8910  -25.9320   26.9200 N.ar    4  U4         -0.2534
     92  C2        -3.2730  -24.6240   27.1630 C.ar    4  U4          0.3546
     93  O2        -4.2750  -24.3340   27.7960 O.2     4  U4         -0.2443
     94  N3        -2.4380  -23.6710   26.6350 N.ar    4  U4         -0.1530
     95  C4        -1.2910  -23.8820   25.8930 C.ar    4  U4          0.2846
     96  O4        -0.6430  -22.9140   25.4870 O.2     4  U4         -0.2650
     97  C5        -0.9700  -25.2610   25.6740 C.ar    4  U4          0.0814
     98  C6        -1.7650  -26.2150   26.1760 C.ar    4  U4          0.0870
     99  OP1       -1.0750  -31.4530   23.8130 O.2     4  U4         -0.5172
    100  OP2        0.1510  -29.1990   23.8480 O.co2   4  U4         -0.4373
    101  P         -6.2470  -28.5660   23.6320 P.3     5  U5          0.2141
    102  C5'       -8.2700  -27.0230   24.1730 C.3     5  U5          0.1812
    103  O5'       -6.9250  -27.1290   23.7180 O.3     5  U5         -0.3114
    104  C4'       -8.5860  -25.5940   24.5360 C.3     5  U5          0.1773
    105  O4'       -7.5610  -25.0320   25.3980 O.3     5  U5         -0.3307
    106  C3'       -8.6560  -24.6170   23.3810 C.3     5  U5          0.1860
    107  O3'       -9.8560  -24.7780   22.6450 O.3     5  U5         -0.3112
    108  C2'       -8.5200  -23.2920   24.1080 C.3     5  U5          0.2309
    109  O2'       -9.7310  -22.8450   24.6790 O.3     5  U5         -0.2156
    110  C1'       -7.4400  -23.6410   25.1330 C.3     5  U5          0.2420
    111  N1        -6.0930  -23.4090   24.6050 N.ar    5  U5         -0.2534
    112  C2        -5.5910  -22.1210   24.6380 C.ar    5  U5          0.3546
    113  O2        -6.2210  -21.1740   25.0860 O.2     5  U5         -0.2443
    114  N3        -4.3290  -21.9860   24.1060 N.ar    5  U5         -0.1530
    115  C4        -3.5410  -22.9800   23.5610 C.ar    5  U5          0.2846
    116  O4        -2.4210  -22.7050   23.1430 O.2     5  U5         -0.2650
    117  C5        -4.1310  -24.2800   23.5730 C.ar    5  U5          0.0814
    118  C6        -5.3620  -24.4440   24.0640 C.ar    5  U5          0.0870
    119  OP1       -7.3300  -29.5150   23.2470 O.3     5  U5         -0.4373
    120  OP2       -4.9790  -28.4810   22.8330 O.co2   5  U5         -0.5172
    121  P         -9.8390  -24.5550   21.0660 P.3     6  A6          0.2141
    122  C5'      -10.9290  -22.2270   21.3470 C.3     6  A6          0.1812
    123  O5'       -9.7850  -22.9790   20.9390 O.3     6  A6         -0.3114
    124  C4'      -10.5450  -20.7810   21.3920 C.3     6  A6          0.1773
    125  O4'       -9.4190  -20.6290   22.2860 O.3     6  A6         -0.3307
    126  C3'       -9.9860  -20.2190   20.0930 C.3     6  A6          0.1860
    127  O3'      -10.9600  -20.0150   19.0880 O.3     6  A6         -0.3112
    128  C2'       -9.3080  -18.9780   20.6140 C.3     6  A6          0.2309
    129  O2'      -10.2580  -18.0100   21.0210 O.3     6  A6         -0.2156
    130  C1'       -8.5970  -19.5710   21.8250 C.3     6  A6          0.2408
    131  N1        -3.7090  -18.3050   21.0450 N.ar    6  A6         -0.2040
    132  C2        -4.8070  -17.5790   21.3090 C.ar    6  A6          0.2016
    133  N3        -6.0600  -17.9880   21.5050 N.ar    6  A6         -0.2048
    134  C4        -6.1420  -19.3260   21.4040 C.ar    6  A6          0.1692
    135  C5        -5.1070  -20.2050   21.1330 C.ar    6  A6          0.1518
    136  C6        -3.8260  -19.6460   20.9510 C.ar    6  A6          0.1919
    137  N6        -2.7300  -20.3630   20.6930 N.pl3   6  A6         -0.1054
    138  N7        -5.5710  -21.5140   21.1010 N.ar    6  A6         -0.2193
    139  C8        -6.8610  -21.3960   21.3230 C.ar    6  A6          0.1816
    140  N9        -7.2710  -20.1010   21.5240 N.ar    6  A6         -0.2693
    141  OP1      -11.1700  -24.9260   20.5410 O.3     6  A6         -0.4373
    142  OP2       -8.5740  -25.1080   20.4830 O.co2   6  A6         -0.5172
    143  P        -10.6610  -20.5540   17.6210 P.3     7  U7          0.2141
    144  C5'      -10.7010  -18.0350   17.0370 C.3     7  U7          0.1812
    145  O5'       -9.9930  -19.2770   16.9590 O.3     7  U7         -0.3114
    146  C4'       -9.7020  -16.9270   17.0010 C.3     7  U7          0.1773
    147  O4'       -8.6600  -17.2170   17.9560 O.3     7  U7         -0.3307
    148  C3'       -8.9220  -16.8440   15.7080 C.3     7  U7          0.1860
    149  O3'       -9.7180  -16.3680   14.6400 O.3     7  U7         -0.3112
    150  C2'       -7.7210  -16.0210   16.1410 C.3     7  U7          0.2309
    151  O2'       -7.9300  -14.6510   16.4050 O.3     7  U7         -0.2156
    152  C1'       -7.4460  -16.6440   17.5030 C.3     7  U7          0.2420
    153  N1        -6.4270  -17.6930   17.4600 N.ar    7  U7         -0.2534
    154  C2        -5.1320  -17.2970   17.2130 C.ar    7  U7          0.3546
    155  O2        -4.8280  -16.1380   16.9850 O.2     7  U7         -0.2443
    156  N3        -4.2070  -18.3090   17.2380 N.ar    7  U7         -0.1530
    157  C4        -4.4410  -19.6450   17.4790 C.ar    7  U7          0.2846
    158  O4        -3.5020  -20.4410   17.4440 O.2     7  U7         -0.2650
    159  C5        -5.8070  -19.9700   17.7390 C.ar    7  U7          0.0814
    160  C6        -6.7320  -19.0070   17.7160 C.ar    7  U7          0.0870
    161  OP1      -11.9680  -20.7940   16.9630 O.2     7  U7         -0.5172
    162  OP2       -9.6400  -21.6430   17.6980 O.co2   7  U7         -0.4373
    163  P         -9.4600  -16.9470   13.2120 P.3     8  C8          0.2141
    164  C5'       -7.8250  -14.9830   12.5900 C.3     8  C8          0.1812
    165  O5'       -8.0110  -16.3830   12.8570 O.3     8  C8         -0.3114
    166  C4'       -6.4160  -14.7160   12.1220 C.3     8  C8          0.1773
    167  O4'       -5.4900  -15.1390   13.1490 O.3     8  C8         -0.3307
    168  C3'       -5.9870  -15.4790   10.8860 C.3     8  C8          0.1860
    169  O3'       -6.4960  -14.8740    9.6980 O.3     8  C8         -0.3112
    170  C2'       -4.4680  -15.5800   11.0500 C.3     8  C8          0.2309
    171  O2'       -3.6870  -14.5290   10.5440 O.3     8  C8         -0.2156
    172  C1'       -4.3080  -15.6460   12.5680 C.3     8  C8          0.2420
    173  N1        -4.1290  -17.0110   13.0670 N.ar    8  C8         -0.2535
    174  C2        -2.8490  -17.5700   13.0770 C.ar    8  C8          0.3532
    175  O2        -1.8960  -16.8910   12.6680 O.2     8  C8         -0.2443
    176  N3        -2.6830  -18.8390   13.5210 N.ar    8  C8         -0.1739
    177  C4        -3.7380  -19.5340   13.9570 C.ar    8  C8          0.1759
    178  N4        -3.5320  -20.7770   14.4080 N.pl3   8  C8         -0.1070
    179  C5        -5.0520  -18.9820   13.9650 C.ar    8  C8          0.0566
    180  C6        -5.2020  -17.7330   13.5080 C.ar    8  C8          0.0850
    181  OP1      -10.5600  -16.4530   12.3690 O.2     8  C8         -0.5172
    182  OP2       -9.2050  -18.4040   13.3300 O.co2   8  C8         -0.4373
    183  P         -6.9430  -15.8330    8.4910 P.3     9  A9          0.2141
    184  C5'       -5.9170  -14.4040    6.5840 C.3     9  A9          0.1812
    185  O5'       -7.1170  -14.8220    7.2570 O.3     9  A9         -0.3114
    186  C4'       -6.1390  -13.4690    5.4220 C.3     9  A9          0.1773
    187  O4'       -6.2180  -14.2280    4.1950 O.3     9  A9         -0.3307
    188  C3'       -7.3650  -12.5620    5.4450 C.3     9  A9          0.1860
    189  O3'       -7.1200  -11.2970    4.8310 O.3     9  A9         -0.3112
    190  C2'       -8.3300  -13.2790    4.5160 C.3     9  A9          0.2309
    191  O2'       -9.1840  -12.3980    3.8210 O.3     9  A9         -0.2156
    192  C1'       -7.3690  -13.8490    3.4830 C.3     9  A9          0.2408
    193  N1        -7.2740  -16.6560   -0.8240 N.ar    9  A9         -0.2040
    194  C2        -6.6190  -15.5480   -0.4660 C.ar    9  A9          0.2016
    195  N3        -6.6720  -14.8720    0.6810 N.ar    9  A9         -0.2048
    196  C4        -7.5450  -15.4440    1.5270 C.ar    9  A9          0.1692
    197  C5        -8.2700  -16.5980    1.3090 C.ar    9  A9          0.1518
    198  C6        -8.1130  -17.2250    0.0670 C.ar    9  A9          0.1919
    199  N6        -8.7530  -18.3420   -0.2800 N.pl3   9  A9         -0.1054
    200  N7        -9.0410  -16.9100    2.4170 N.ar    9  A9         -0.2193
    201  C8        -8.7800  -15.9450    3.2630 C.ar    9  A9          0.1816
    202  N9        -7.8820  -15.0230    2.7900 N.ar    9  A9         -0.2693
    203  OP1       -8.2670  -16.4280    8.8380 O.3     9  A9         -0.4373
    204  OP2       -5.7830  -16.7630    8.2580 O.co2   9  A9         -0.5172
    205  P         -5.9390  -10.3020    5.3130 P.3    10  A10         0.2141
    206  C5'       -7.7830   -8.4980    5.0570 C.3    10  A10         0.1812
    207  O5'       -6.8070   -9.1050    5.9020 O.3    10  A10        -0.3114
    208  C4'       -8.8370   -7.8190    5.8840 C.3    10  A10         0.1773
    209  O4'       -9.2810   -8.7170    6.9240 O.3    10  A10        -0.3307
    210  C3'       -8.4020   -6.5790    6.6530 C.3    10  A10         0.1860
    211  O3'       -8.4480   -5.4540    5.8080 O.3    10  A10        -0.3112
    212  C2'       -9.4600   -6.5050    7.7300 C.3    10  A10         0.2309
    213  O2'      -10.6910   -6.0850    7.1830 O.3    10  A10        -0.2156
    214  C1'       -9.5600   -7.9750    8.1010 C.3    10  A10         0.2408
    215  N1        -7.8930   -7.2380   12.8880 N.ar   10  A10        -0.2040
    216  C2        -8.8800   -6.6710   12.1810 C.ar   10  A10         0.2016
    217  N3        -9.2520   -6.8990   10.9220 N.ar   10  A10        -0.2048
    218  C4        -8.4930   -7.8590   10.3720 C.ar   10  A10         0.1692
    219  C5        -7.4560   -8.5480   10.9760 C.ar   10  A10         0.1518
    220  C6        -7.1510   -8.2060   12.3040 C.ar   10  A10         0.1919
    221  N6        -6.1790   -8.7860   13.0150 N.pl3  10  A10        -0.1054
    222  N7        -6.9030   -9.4700   10.0980 N.ar   10  A10        -0.2193
    223  C8        -7.6130   -9.3290    9.0060 C.ar   10  A10         0.1816
    224  N9        -8.5890   -8.3670    9.1030 N.ar   10  A10        -0.2693
    225  OP1       -5.2580   -9.8100    4.0930 O.2    10  A10        -0.5172
    226  OP2       -5.0930  -10.9560    6.3650 O.co2  10  A10        -0.4373
    227  P         -7.1180   -4.7310    5.4580 P.3    11  G11         0.2141
    228  C5'       -8.2440   -3.1610    7.2310 C.3    11  G11         0.1812
    229  O5'       -7.0450   -3.6470    6.6140 O.3    11  G11        -0.3114
    230  C4'       -7.9110   -2.6110    8.5960 C.3    11  G11         0.1773
    231  O4'       -7.7940   -3.7010    9.5240 O.3    11  G11        -0.3307
    232  C3'       -6.5800   -1.8930    8.6710 C.3    11  G11         0.1860
    233  O3'       -6.7870   -0.5550    8.2200 O.3    11  G11        -0.3112
    234  C2'       -6.1560   -2.0850   10.1210 C.3    11  G11         0.2309
    235  O2'       -6.6450   -1.0630   10.9600 O.3    11  G11        -0.2156
    236  C1'       -6.7870   -3.4300   10.4620 C.3    11  G11         0.2408
    237  N1        -3.9000   -6.4930   13.2520 N.ar   11  G11        -0.1709
    238  C2        -4.6370   -5.3980   13.6330 C.ar   11  G11         0.2606
    239  N2        -4.5900   -5.0740   14.9330 N.pl3  11  G11        -0.0859
    240  N3        -5.3540   -4.6680   12.8010 N.ar   11  G11        -0.1918
    241  C4        -5.2820   -5.1280   11.5390 C.ar   11  G11         0.1723
    242  C5        -4.6030   -6.2270   11.0600 C.ar   11  G11         0.1748
    243  C6        -3.8240   -6.9960   11.9600 C.ar   11  G11         0.3023
    244  O6        -3.1290   -7.9920   11.7280 O.2    11  G11        -0.2633
    245  N7        -4.8030   -6.3710    9.6940 N.ar   11  G11        -0.2173
    246  C8        -5.5830   -5.3720    9.3770 C.ar   11  G11         0.1817
    247  N9        -5.8780   -4.5600   10.4450 N.ar   11  G11        -0.2693
    248  OP1       -7.2840   -4.1650    4.0960 O.2    11  G11        -0.5172
    249  OP2       -6.0000   -5.6790    5.7200 O.co2  11  G11        -0.4373
    250  P         -5.7430    0.0690    7.2020 P.3    12  A12         0.2141
    251  C5'       -4.9130    1.6930    9.1250 C.3    12  A12         0.1812
    252  O5'       -4.6190    0.6340    8.1870 O.3    12  A12        -0.3114
    253  C4'       -3.8940    1.7060   10.2300 C.3    12  A12         0.1773
    254  O4'       -3.9740    0.4610   10.9580 O.3    12  A12        -0.3307
    255  C3'       -2.4400    1.7760    9.7820 C.3    12  A12         0.1860
    256  O3'       -2.0390    3.1150    9.5370 O.3    12  A12        -0.3112
    257  C2'       -1.6960    1.1760   10.9660 C.3    12  A12         0.2309
    258  O2'       -1.3680    2.1790   11.9020 O.3    12  A12        -0.2156
    259  C1'       -2.6890    0.1150   11.4610 C.3    12  A12         0.2408
    260  N1        -1.1720   -4.6980   12.6710 N.ar   12  A12        -0.2040
    261  C2        -1.3250   -3.6040   13.4240 C.ar   12  A12         0.2016
    262  N3        -1.7250   -2.3820   13.0660 N.ar   12  A12        -0.2048
    263  C4        -1.9690   -2.3300   11.7440 C.ar   12  A12         0.1692
    264  C5        -1.8590   -3.3740   10.8450 C.ar   12  A12         0.1518
    265  C6        -1.4310   -4.6120   11.3500 C.ar   12  A12         0.1919
    266  N6        -1.2730   -5.6990   10.5980 N.pl3  12  A12        -0.1054
    267  N7        -2.2180   -2.9620    9.5700 N.ar   12  A12        -0.2193
    268  C8        -2.5280   -1.6980    9.7210 C.ar   12  A12         0.1816
    269  N9        -2.3860   -1.2440   11.0080 N.ar   12  A12        -0.2693
    270  OP1       -6.4560    1.0770    6.3790 O.2    12  A12        -0.5172
    271  OP2       -5.0560   -1.0480    6.5260 O.co2  12  A12        -0.4373
    272  P         -0.8860    3.4200    8.4700 P.3    13  G13         0.2141
    273  C5'        1.5720    2.4430    8.3730 C.3    13  G13         0.1812
    274  O5'        0.3080    2.5230    9.0300 O.3    13  G13        -0.3114
    275  C4'        2.4740    3.5160    8.9120 C.3    13  G13         0.1773
    276  O4'        2.7760    3.2480   10.3020 O.3    13  G13        -0.3307
    277  C3'        3.8230    3.6440    8.2050 C.3    13  G13         0.1860
    278  O3'        3.9370    4.9590    7.6680 O.3    13  G13        -0.3112
    279  C2'        4.8470    3.2460    9.2780 C.3    13  G13         0.2309
    280  O2'        6.0990    3.8900    9.1910 O.3    13  G13        -0.2156
    281  C1'        4.1080    3.6350   10.5510 C.3    13  G13         0.2408
    282  N1         5.2900    4.3530   15.4210 N.ar   13  G13        -0.1709
    283  C2         4.8860    5.2620   14.4740 C.ar   13  G13         0.2606
    284  N2         4.7750    6.5370   14.8810 N.pl3  13  G13        -0.0859
    285  N3         4.5940    4.9460   13.2260 N.ar   13  G13        -0.1918
    286  C4         4.7580    3.6290   12.9870 C.ar   13  G13         0.1723
    287  C5         5.1640    2.6410   13.8570 C.ar   13  G13         0.1748
    288  C6         5.4560    2.9910   15.2000 C.ar   13  G13         0.3023
    289  O6         5.8160    2.2580   16.1260 O.2    13  G13        -0.2633
    290  N7         5.2110    1.4100   13.2170 N.ar   13  G13        -0.2173
    291  C8         4.8460    1.6690   11.9910 C.ar   13  G13         0.1817
    292  N9         4.5630    2.9970   11.7830 N.ar   13  G13        -0.2693
    293  OP1       -0.5750    4.8760    8.5570 O.3    13  G13        -0.4373
    294  OP2       -1.3200    2.8580    7.1610 O.co2  13  G13        -0.5172
    295  P          4.9050    5.2180    6.4280 P.3    14  A14         0.2141
    296  C5'        6.6520    6.7640    7.6240 C.3    14  A14         0.1812
    297  O5'        5.4910    6.6570    6.7770 O.3    14  A14        -0.3114
    298  C4'        6.5660    7.9520    8.5530 C.3    14  A14         0.1773
    299  O4'        5.8130    7.6070    9.7520 O.3    14  A14        -0.3307
    300  C3'        7.9280    8.4000    9.0710 C.3    14  A14         0.1860
    301  O3'        8.5790    9.2970    8.1910 O.3    14  A14        -0.3112
    302  C2'        7.5870    9.0260   10.4100 C.3    14  A14         0.2309
    303  O2'        7.1700   10.3680   10.2730 O.3    14  A14        -0.2156
    304  C1'        6.5060    8.0670   10.9030 C.3    14  A14         0.2408
    305  N1         8.6440    6.3880   15.2700 N.ar   14  A14        -0.2040
    306  C2         8.2530    7.6050   14.8680 C.ar   14  A14         0.2016
    307  N3         7.7100    7.9760   13.7090 N.ar   14  A14        -0.2048
    308  C4         7.5690    6.9180   12.8920 C.ar   14  A14         0.1692
    309  C5         7.9200    5.6080   13.1650 C.ar   14  A14         0.1518
    310  C6         8.4810    5.3460   14.4270 C.ar   14  A14         0.1919
    311  N6         8.8740    4.1370   14.8260 N.pl3  14  A14        -0.1054
    312  N7         7.6240    4.7870   12.0860 N.ar   14  A14        -0.2193
    313  C8         7.1160    5.6060   11.1970 C.ar   14  A14         0.1816
    314  N9         7.0460    6.9090   11.6210 N.ar   14  A14        -0.2693
    315  OP1        4.0810    5.2560    5.1910 O.2    14  A14        -0.5172
    316  OP2        6.0220    4.2400    6.5140 O.co2  14  A14        -0.4373
    317  P         10.1090    9.0630    7.8760 P.3    15  A15         0.2141
    318  C5'       12.0900   10.3400    8.9920 C.3    15  A15         0.1812
    319  O5'       10.7900   10.4030    8.3880 O.3    15  A15        -0.3114
    320  C4'       12.0460   10.9140   10.3800 C.3    15  A15         0.1773
    321  O4'       10.9810   10.2970   11.1510 O.3    15  A15        -0.3307
    322  C3'       13.2750   10.6600   11.2380 C.3    15  A15         0.1860
    323  O3'       14.4110   11.4330   10.8770 O.3    15  A15        -0.3112
    324  C2'       12.7180   10.9450   12.6220 C.3    15  A15         0.2309
    325  O2'       12.5850   12.3200   12.9330 O.3    15  A15        -0.2156
    326  C1'       11.3600   10.2510   12.5190 C.3    15  A15         0.2408
    327  N1        13.1160    6.9360   16.0200 N.ar   15  A15        -0.2040
    328  C2        13.1630    8.2730   15.9460 C.ar   15  A15         0.2016
    329  N3        12.6790    9.0820   15.0030 N.ar   15  A15        -0.2048
    330  C4        12.0840    8.3710   14.0300 C.ar   15  A15         0.1692
    331  C5        11.9600    6.9960   13.9650 C.ar   15  A15         0.1518
    332  C6        12.5080    6.2560   15.0240 C.ar   15  A15         0.1919
    333  N6        12.4580    4.9260   15.0970 N.pl3  15  A15        -0.1054
    334  N7        11.2740    6.6190   12.8200 N.ar   15  A15        -0.2193
    335  C8        11.0160    7.7540   12.2190 C.ar   15  A15         0.1816
    336  N9        11.4630    8.8550   12.9050 N.ar   15  A15        -0.2693
    337  OP1       10.2550    8.9020    6.4050 O.2    15  A15        -0.5172
    338  OP2       10.6130    8.0010    8.7980 O.co2  15  A15        -0.4373
    339  P         15.8410   10.7700   11.0000 P.3    16  G16         0.2141
    340  C5'       15.9420   11.1800   13.5970 C.3    16  G16         0.1812
    341  O5'       15.8520   10.2520   12.5070 O.3    16  G16        -0.3114
    342  C4'       16.8420   10.6320   14.6690 C.3    16  G16         0.1773
    343  O4'       16.0940    9.7270   15.5230 O.3    16  G16        -0.3307
    344  C3'       18.0040    9.7700   14.2180 C.3    16  G16         0.1860
    345  O3'       19.1100   10.4860   13.7060 O.3    16  G16        -0.3112
    346  C2'       18.3600    9.0740   15.5180 C.3    16  G16         0.2309
    347  O2'       19.0750    9.9020   16.4100 O.3    16  G16        -0.2156
    348  C1'       16.9690    8.7330   16.0450 C.3    16  G16         0.2408
    349  N1        16.5160    3.7960   17.1800 N.ar   16  G16        -0.1709
    350  C2        17.1010    4.8030   17.9050 C.ar   16  G16         0.2606
    351  N2        17.6260    4.4480   19.0860 N.pl3  16  G16        -0.0859
    352  N3        17.1630    6.0630   17.5050 N.ar   16  G16        -0.1918
    353  C4        16.5880    6.2360   16.2960 C.ar   16  G16         0.1723
    354  C5        15.9800    5.2960   15.4910 C.ar   16  G16         0.1748
    355  C6        15.9200    3.9510   15.9340 C.ar   16  G16         0.3023
    356  O6        15.4270    2.9730   15.3630 O.2    16  G16        -0.2633
    357  N7        15.5150    5.8770   14.3190 N.ar   16  G16        -0.2173
    358  C8        15.8400    7.1360   14.4310 C.ar   16  G16         0.1817
    359  N9        16.4910    7.4230   15.6070 N.ar   16  G16        -0.2693
    360  OP1       16.8530   11.8430   10.8460 O.3    16  G16        -0.4373
    361  OP2       15.8720    9.5830   10.0950 O.co2  16  G16        -0.5172
    362  P         20.1770    9.7220   12.8040 P.3    17  C17         0.2141
    363  C5'       21.7250    9.3990   14.9160 C.3    17  C17         0.1812
    364  O5'       20.9580    8.8170   13.8570 O.3    17  C17        -0.3114
    365  C4'       22.1060    8.3420   15.9260 C.3    17  C17         0.1773
    366  O4'       20.9130    7.7330   16.4930 O.3    17  C17        -0.3307
    367  C3'       22.9160    7.1690   15.3890 C.3    17  C17         0.1860
    368  O3'       24.3020    7.4690   15.3070 O.3    17  C17        -0.3112
    369  C2'       22.6010    6.0680   16.3990 C.3    17  C17         0.2309
    370  O2'       23.3530    6.0610   17.5980 O.3    17  C17        -0.2156
    371  C1'       21.1210    6.3330   16.6700 C.3    17  C17         0.2420
    372  N1        20.2380    5.6020   15.7410 N.ar   17  C17        -0.2535
    373  C2        19.9450    4.2610   15.9990 C.ar   17  C17         0.3532
    374  O2        20.4220    3.7270   17.0110 O.2    17  C17        -0.2443
    375  N3        19.1430    3.5840   15.1430 N.ar   17  C17        -0.1739
    376  C4        18.6550    4.1970   14.0600 C.ar   17  C17         0.1759
    377  N4        17.8660    3.4980   13.2410 N.pl3  17  C17        -0.1070
    378  C5        18.9430    5.5600   13.7740 C.ar   17  C17         0.0566
    379  C6        19.7410    6.2140   14.6250 C.ar   17  C17         0.0850
    380  OP1       21.1440   10.7260   12.2940 O.3    17  C17        -0.4373
    381  OP2       19.4290    8.8640   11.8400 O.co2  17  C17        -0.5172
    382  P         25.1090    7.1360   13.9800 P.3    18  A18         0.2141
    383  C5'       25.5900    4.7860   15.1050 C.3    18  A18         0.1812
    384  O5'       25.1370    5.5410   13.9570 O.3    18  A18        -0.3114
    385  C4'       25.1270    3.3480   15.0220 C.3    18  A18         0.1773
    386  O4'       23.6800    3.2720   15.1780 O.3    18  A18        -0.3307
    387  C3'       25.4290    2.6420   13.7040 C.3    18  A18         0.1860
    388  O3'       26.7050    2.0180   13.7560 O.3    18  A18        -0.3112
    389  C2'       24.3110    1.6150   13.6170 C.3    18  A18         0.2309
    390  O2'       24.6420    0.4760   14.3750 O.3    18  A18        -0.2156
    391  C1'       23.1350    2.3970   14.2020 C.3    18  A18         0.2408
    392  N1        19.3640    2.5710   10.6810 N.ar   18  A18        -0.2040
    393  C2        19.8060    1.5810   11.4670 C.ar   18  A18         0.2016
    394  N3        20.7960    1.5920   12.3590 N.ar   18  A18        -0.2048
    395  C4        21.3670    2.8090   12.4180 C.ar   18  A18         0.1692
    396  C5        21.0230    3.9220   11.6710 C.ar   18  A18         0.1518
    397  C6        19.9630    3.7790   10.7620 C.ar   18  A18         0.1919
    398  N6        19.5220    4.7680    9.9790 N.pl3  18  A18        -0.1054
    399  N7        21.8330    5.0000   11.9950 N.ar   18  A18        -0.2193
    400  C8        22.6370    4.5240   12.9130 C.ar   18  A18         0.1816
    401  N9        22.4100    3.2050   13.2190 N.ar   18  A18        -0.2693
    402  OP1       26.5130    7.5900   14.1800 O.3    18  A18        -0.4373
    403  OP2       24.3150    7.6490   12.8370 O.co2  18  A18        -0.5172
    404  P         27.7060    2.1590   12.5220 P.3    19  G19         0.2141
    405  C5'       28.2970    0.1960   10.8490 C.3    19  G19         0.1812
    406  O5'       28.0780    0.6430   12.1990 O.3    19  G19        -0.3114
    407  C4'       27.2000   -0.7550   10.4260 C.3    19  G19         0.1773
    408  O4'       25.9190   -0.0690   10.4790 O.3    19  G19        -0.3307
    409  C3'       27.3240   -1.2780    8.9980 C.3    19  G19         0.1860
    410  O3'       26.7670   -2.5680    8.8180 O.3    19  G19        -0.3112
    411  C2'       26.5210   -0.2580    8.2100 C.3    19  G19         0.2309
    412  O2'       26.0130   -0.6950    6.9680 O.3    19  G19        -0.2156
    413  C1'       25.3770    0.0180    9.1770 C.3    19  G19         0.2408
    414  N1        21.2910    2.6960    7.8460 N.ar   19  G19        -0.1709
    415  C2        21.4450    1.3370    7.9660 C.ar   19  G19         0.2606
    416  N2        20.3710    0.5920    7.6780 N.pl3  19  G19        -0.0859
    417  N3        22.5740    0.7500    8.3240 N.ar   19  G19        -0.1918
    418  C4        23.5510    1.6460    8.5750 C.ar   19  G19         0.1723
    419  C5        23.5000    3.0210    8.4920 C.ar   19  G19         0.1748
    420  C6        22.2830    3.6390    8.1010 C.ar   19  G19         0.3023
    421  O6        22.0380    4.8450    7.9680 O.2    19  G19        -0.2633
    422  N7        24.7250    3.5800    8.8310 N.ar   19  G19        -0.2173
    423  C8        25.4830    2.5530    9.1040 C.ar   19  G19         0.1817
    424  N9        24.8260    1.3520    8.9860 N.ar   19  G19        -0.2693
    425  OP1       28.9350    2.8530   12.9960 O.3    19  G19        -0.4373
    426  OP2       26.9410    2.7380   11.3920 O.co2  19  G19        -0.5172
    427  P         27.5220   -3.8300    9.3990 P.3    20  A20         0.2141
    428  C5'       26.9830   -6.3980    9.1630 C.3    20  A20         0.1812
    429  O5'       26.7780   -5.0510    8.6930 O.3    20  A20        -0.3114
    430  C4'       26.1710   -7.3560    8.3260 C.3    20  A20         0.1773
    431  O4'       24.8730   -6.7550    8.1000 O.3    20  A20        -0.3307
    432  C3'       26.7790   -7.6960    6.9570 C.3    20  A20         0.1860
    433  O3'       27.0130   -9.0700    6.6010 O.3    20  A20        -0.3112
    434  C2'       25.8750   -6.9760    5.9430 C.3    20  A20         0.2309
    435  O2'       25.5520   -7.7710    4.8110 O.3    20  A20        -0.2156
    436  C1'       24.5830   -6.7350    6.7270 C.3    20  A20         0.2408
    437  N1        20.9280   -4.3350    4.0390 N.ar   20  A20        -0.2040
    438  C2        21.2510   -5.6320    4.1730 C.ar   20  A20         0.2016
    439  N3        22.2180   -6.1890    4.9020 N.ar   20  A20        -0.2048
    440  C4        22.9210   -5.2470    5.5560 C.ar   20  A20         0.1692
    441  C5        22.7140   -3.8780    5.5150 C.ar   20  A20         0.1518
    442  C6        21.6580   -3.4150    4.7080 C.ar   20  A20         0.1919
    443  N6        21.3340   -2.1270    4.5800 N.pl3  20  A20        -0.1054
    444  N7        23.6290   -3.2190    6.3240 N.ar   20  A20        -0.2193
    445  C8        24.3660   -4.1870    6.8190 C.ar   20  A20         0.1816
    446  N9        23.9840   -5.4410    6.4050 N.ar   20  A20        -0.2693
    447  OP1       27.2750   -3.8700   10.8650 O.3    20  A20        -0.4373
    448  OP2       28.9160   -3.8110    8.8860 O.co2  20  A20        -0.5172
    449  P         26.2430  -10.2630    7.3360 P.3    21  G21         0.2141
    450  C5'       23.6820  -10.7050    7.5490 C.3    21  G21         0.1812
    451  O5'       24.7340   -9.7810    7.2790 O.3    21  G21        -0.3114
    452  C4'       22.4640   -9.9240    7.9440 C.3    21  G21         0.1773
    453  O4'       22.2810   -8.8460    6.9900 O.3    21  G21        -0.3307
    454  C3'       21.1620  -10.6980    7.9240 C.3    21  G21         0.1860
    455  O3'       20.9110  -11.3080    9.1780 O.3    21  G21        -0.3112
    456  C2'       20.1530   -9.6030    7.6380 C.3    21  G21         0.2309
    457  O2'       19.8590   -8.8690    8.8010 O.3    21  G21        -0.2156
    458  C1'       20.9210   -8.7590    6.6290 C.3    21  G21         0.2408
    459  N1        17.7790   -9.2970    2.7010 N.ar   21  G21        -0.1709
    460  C2        17.5550   -8.7260    3.9280 C.ar   21  G21         0.2606
    461  N2        16.3270   -8.2340    4.1350 N.pl3  21  G21        -0.0859
    462  N3        18.4630   -8.6520    4.8860 N.ar   21  G21        -0.1918
    463  C4        19.6410   -9.1910    4.5070 C.ar   21  G21         0.1723
    464  C5        19.9700   -9.7820    3.3070 C.ar   21  G21         0.1748
    465  C6        18.9780   -9.8650    2.2910 C.ar   21  G21         0.3023
    466  O6        19.0670  -10.3610    1.1620 O.2    21  G21        -0.2633
    467  N7        21.2870  -10.2200    3.3200 N.ar   21  G21        -0.2173
    468  C8        21.7250   -9.8950    4.5060 C.ar   21  G21         0.1817
    469  N9        20.7790   -9.2570    5.2700 N.ar   21  G21        -0.2693
    470  OP1       26.7520  -10.3720    8.7350 O.3    21  G21        -0.4373
    471  OP2       26.2670  -11.4530    6.4470 O.co2  21  G21        -0.5172
    472  P         20.1060  -12.6780    9.2290 P.3    22  G22         0.2141
    473  C5'       18.0590  -11.1650    9.9280 C.3    22  G22         0.1812
    474  O5'       18.5900  -12.2180    9.1100 O.3    22  G22        -0.3114
    475  C4'       16.8270  -10.6200    9.2610 C.3    22  G22         0.1773
    476  O4'       17.1570  -10.1640    7.9270 O.3    22  G22        -0.3307
    477  C3'       15.7500  -11.6440    8.9730 C.3    22  G22         0.1860
    478  O3'       14.9600  -11.9730   10.0750 O.3    22  G22        -0.3112
    479  C2'       14.9130  -10.9090    7.9590 C.3    22  G22         0.2309
    480  O2'       14.1290   -9.9090    8.5590 O.3    22  G22        -0.2156
    481  C1'       16.0150  -10.3090    7.0950 C.3    22  G22         0.2408
    482  N1        14.4690  -11.8060    2.5320 N.ar   22  G22        -0.1709
    483  C2        13.8990  -10.9190    3.4130 C.ar   22  G22         0.2606
    484  N2        12.7530  -10.3490    3.0200 N.pl3  22  G22        -0.0859
    485  N3        14.4170  -10.6070    4.5870 N.ar   22  G22        -0.1918
    486  C4        15.5640  -11.2740    4.8270 C.ar   22  G22         0.1723
    487  C5        16.2250  -12.1720    4.0170 C.ar   22  G22         0.1748
    488  C6        15.6570  -12.4970    2.7490 C.ar   22  G22         0.3023
    489  O6        16.0860  -13.2710    1.8820 O.2    22  G22        -0.2633
    490  N7        17.3860  -12.6230    4.6290 N.ar   22  G22        -0.2173
    491  C8        17.4080  -12.0040    5.7780 C.ar   22  G22         0.1817
    492  N9        16.3370  -11.1610    5.9540 N.ar   22  G22        -0.2693
    493  OP1       20.3210  -13.2740   10.5730 O.3    22  G22        -0.4373
    494  OP2       20.4010  -13.4490    7.9830 O.co2  22  G22        -0.5172
    495  P         14.3280  -13.4040   10.1490 P.3    23  G23         0.2141
    496  C5'       11.8460  -13.0990    9.4900 C.3    23  G23         0.1812
    497  O5'       13.1860  -13.3330    9.0410 O.3    23  G23        -0.3114
    498  C4'       10.8790  -12.7740    8.3730 C.3    23  G23         0.1773
    499  O4'       11.5160  -12.0580    7.2760 O.3    23  G23        -0.3307
    500  C3'       10.1710  -13.9420    7.7050 C.3    23  G23         0.1860
    501  O3'        9.0390  -14.3820    8.4300 O.3    23  G23        -0.3112
    502  C2'        9.7240  -13.2860    6.4140 C.3    23  G23         0.2309
    503  O2'        8.6380  -12.4250    6.6900 O.3    23  G23        -0.2156
    504  C1'       10.9960  -12.5320    6.0430 C.3    23  G23         0.2408
    505  N1        12.2870  -15.2710    1.9710 N.ar   23  G23        -0.1709
    506  C2        11.2230  -14.4190    2.1480 C.ar   23  G23         0.2606
    507  N2        10.4000  -14.2770    1.1010 N.pl3  23  G23        -0.0859
    508  N3        10.9880  -13.7510    3.2670 N.ar   23  G23        -0.1918
    509  C4        11.9250  -13.9970    4.2070 C.ar   23  G23         0.1723
    510  C5        13.0220  -14.8310    4.1340 C.ar   23  G23         0.1748
    511  C6        13.2600  -15.5460    2.9290 C.ar   23  G23         0.3023
    512  O6        14.1780  -16.3360    2.6690 O.2    23  G23        -0.2633
    513  N7        13.7220  -14.8310    5.3320 N.ar   23  G23        -0.2173
    514  C8        13.0600  -14.0020    6.0920 C.ar   23  G23         0.1817
    515  N9        11.9710  -13.4460    5.4640 N.ar   23  G23        -0.2693
    516  OP1       13.6440  -13.5100   11.4630 O.3    23  G23        -0.4373
    517  OP2       15.3890  -14.3850    9.8100 O.co2  23  G23        -0.5172
    518  P          9.1060  -15.7050    9.2940 P.3    24  A24         0.2141
    519  C5'       11.5270  -16.6290    9.6970 C.3    24  A24         0.1812
    520  O5'       10.5280  -15.6510    9.9960 O.3    24  A24        -0.3114
    521  C4'       11.9420  -17.3720   10.9320 C.3    24  A24         0.1773
    522  O4'       10.8110  -17.5170   11.8160 O.3    24  A24        -0.3307
    523  C3'       12.4510  -18.7730   10.6440 C.3    24  A24         0.1860
    524  O3'       13.8550  -18.6850   10.5240 O.3    24  A24        -0.3112
    525  C2'       11.9670  -19.6110   11.8230 C.3    24  A24         0.2309
    526  O2'       12.9940  -19.8390   12.7670 O.3    24  A24        -0.2156
    527  C1'       10.7120  -18.8540   12.2710 C.3    24  A24         0.2408
    528  N1         7.5850  -22.9510   11.7080 N.ar   24  A24        -0.2040
    529  C2         8.8000  -22.8320   12.2580 C.ar   24  A24         0.2016
    530  N3         9.5740  -21.7500   12.3660 N.ar   24  A24        -0.2048
    531  C4         8.9630  -20.6740   11.8380 C.ar   24  A24         0.1692
    532  C5         7.7090  -20.6380   11.2530 C.ar   24  A24         0.1518
    533  C6         6.9980  -21.8470   11.1900 C.ar   24  A24         0.1919
    534  N6         5.7770  -21.9560   10.6610 N.pl3  24  A24        -0.1054
    535  N7         7.4030  -19.3560   10.8240 N.ar   24  A24        -0.2193
    536  C8         8.4560  -18.6540   11.1580 C.ar   24  A24         0.1816
    537  N9         9.4420  -19.3880   11.7710 N.ar   24  A24        -0.2693
    538  OP1        9.0210  -16.8390    8.3560 O.2    24  A24        -0.5172
    539  OP2        8.1100  -15.5910   10.3860 O.co2  24  A24        -0.4373
    540  P         14.5070  -19.0240    9.1210 P.3    25  C25         0.2141
    541  C5'       15.0710  -21.2810   10.3900 C.3    25  C25         0.1812
    542  O5'       14.6740  -20.6050    9.1780 O.3    25  C25        -0.3114
    543  C4'       14.8400  -22.7660   10.2440 C.3    25  C25         0.1773
    544  O4'       13.5030  -23.0940   10.7100 O.3    25  C25        -0.3307
    545  C3'       14.8880  -23.2850    8.8120 C.3    25  C25         0.1860
    546  O3'       16.2210  -23.5520    8.3960 O.3    25  C25        -0.3112
    547  C2'       14.0140  -24.5270    8.8780 C.3    25  C25         0.2309
    548  O2'       14.7320  -25.6450    9.3550 O.3    25  C25        -0.2156
    549  C1'       12.9380  -24.0930    9.8760 C.3    25  C25         0.2420
    550  N1        11.6820  -23.5780    9.2900 N.ar   25  C25        -0.2535
    551  C2        10.8240  -24.4780    8.6500 C.ar   25  C25         0.3532
    552  O2        11.1700  -25.6610    8.5450 O.2    25  C25        -0.2443
    553  N3         9.6490  -24.0340    8.1510 N.ar   25  C25        -0.1739
    554  C4         9.3090  -22.7510    8.2880 C.ar   25  C25         0.1759
    555  N4         8.1380  -22.3560    7.7790 N.pl3  25  C25        -0.1070
    556  C5        10.1610  -21.8110    8.9410 C.ar   25  C25         0.0566
    557  C6        11.3220  -22.2660    9.4310 C.ar   25  C25         0.0850
    558  OP1       15.8680  -18.4190    9.0890 O.3    25  C25        -0.4373
    559  OP2       13.5060  -18.7050    8.0540 O.co2  25  C25        -0.5172
    560  P         16.6890  -23.0720    6.9580 P.3    26  U26         0.2141
    561  C5'       16.0830  -25.4680    6.1060 C.3    26  U26         0.1812
    562  O5'       15.8890  -24.0540    5.9950 O.3    26  U26        -0.3114
    563  C4'       15.1730  -26.1930    5.1540 C.3    26  U26         0.1773
    564  O4'       13.8050  -26.0930    5.6190 O.3    26  U26        -0.3307
    565  C3'       15.1130  -25.6280    3.7480 C.3    26  U26         0.1860
    566  O3'       16.2610  -26.0200    3.0190 O.3    26  U26        -0.3112
    567  C2'       13.7880  -26.1890    3.2400 C.3    26  U26         0.2309
    568  O2'       13.8230  -27.5140    2.7520 O.3    26  U26        -0.2156
    569  C1'       12.9270  -26.1410    4.5050 C.3    26  U26         0.2420
    570  N1        12.0290  -24.9780    4.5530 N.ar   26  U26        -0.2534
    571  C2        10.9130  -25.0120    3.7380 C.ar   26  U26         0.3546
    572  O2        10.6590  -25.9490    3.0040 O.2    26  U26        -0.2443
    573  N3        10.1090  -23.9040    3.8140 N.ar   26  U26        -0.1530
    574  C4        10.3020  -22.7850    4.5900 C.ar   26  U26         0.2846
    575  O4         9.4830  -21.8660    4.5390 O.2    26  U26        -0.2650
    576  C5        11.4830  -22.8190    5.4020 C.ar   26  U26         0.0814
    577  C6        12.2880  -23.8870    5.3550 C.ar   26  U26         0.0870
    578  OP1       18.1580  -23.2860    6.8580 O.3    26  U26        -0.4373
    579  OP2       16.1320  -21.7140    6.7330 O.co2  26  U26        -0.5172
    580  P         16.7400  -25.1580    1.7760 P.3    27  G27         0.2141
    581  C5'       15.0450  -26.2490    0.1760 C.3    27  G27         0.1812
    582  O5'       15.4250  -25.0610    0.8810 O.3    27  G27        -0.3114
    583  C4'       13.9690  -25.9860   -0.8340 C.3    27  G27         0.1773
    584  O4'       12.6660  -26.0140   -0.2020 O.3    27  G27        -0.3307
    585  C3'       14.0090  -24.6350   -1.5170 C.3    27  G27         0.1860
    586  O3'       14.9680  -24.5490   -2.5520 O.3    27  G27        -0.3112
    587  C2'       12.5920  -24.5300   -2.0610 C.3    27  G27         0.2309
    588  O2'       12.4220  -25.1040   -3.3370 O.3    27  G27        -0.2156
    589  C1'       11.7880  -25.1570   -0.9170 C.3    27  G27         0.2408
    590  N1         7.9830  -21.9860    0.1480 N.ar   27  G27        -0.1709
    591  C2         8.0890  -22.9140   -0.8550 C.ar   27  G27         0.2606
    592  N2         7.0500  -23.0010   -1.6910 N.pl3  27  G27        -0.0859
    593  N3         9.1390  -23.6960   -1.0270 N.ar   27  G27        -0.1918
    594  C4        10.0960  -23.4670   -0.1040 C.ar   27  G27         0.1723
    595  C5        10.0880  -22.5660    0.9360 C.ar   27  G27         0.1748
    596  C6         8.9520  -21.7380    1.1140 C.ar   27  G27         0.3023
    597  O6         8.7640  -20.8620    1.9660 O.2    27  G27        -0.2633
    598  N7        11.2740  -22.6310    1.6530 N.ar   27  G27        -0.2173
    599  C8        11.9630  -23.5630    1.0550 C.ar   27  G27         0.1817
    600  N9        11.2970  -24.1260   -0.0070 N.ar   27  G27        -0.2693
    601  OP1       17.6690  -25.9990    0.9830 O.2    27  G27        -0.5172
    602  OP2       17.2110  -23.8420    2.2850 O.co2  27  G27        -0.4373
    603  P         15.1690  -23.1630   -3.2820 P.3    28  G28         0.2141
    604  C5'       13.3460  -22.5080   -5.0560 C.3    28  G28         0.1812
    605  O5'       13.6840  -22.7520   -3.6880 O.3    28  G28        -0.3114
    606  C4'       11.8570  -22.3190   -5.2040 C.3    28  G28         0.1773
    607  O4'       11.1880  -22.7220   -3.9820 O.3    28  G28        -0.3307
    608  C3'       11.3950  -20.8880   -5.4310 C.3    28  G28         0.1860
    609  O3'       11.4830  -20.4700   -6.7810 O.3    28  G28        -0.3112
    610  C2'        9.9580  -20.9340   -4.9420 C.3    28  G28         0.2309
    611  O2'        9.0580  -21.4340   -5.8960 O.3    28  G28        -0.2156
    612  C1'       10.1060  -21.8390   -3.7220 C.3    28  G28         0.2408
    613  N1         8.3940  -18.4480   -0.3760 N.ar   28  G28        -0.1709
    614  C2         7.7670  -18.9840   -1.4740 C.ar   28  G28         0.2606
    615  N2         6.5160  -18.5590   -1.7120 N.pl3  28  G28        -0.0859
    616  N3         8.3240  -19.8730   -2.2800 N.ar   28  G28        -0.1918
    617  C4         9.5810  -20.1820   -1.8980 C.ar   28  G28         0.1723
    618  C5        10.2950  -19.7050   -0.8190 C.ar   28  G28         0.1748
    619  C6         9.6830  -18.7620    0.0430 C.ar   28  G28         0.3023
    620  O6        10.1460  -18.2370    1.0610 O.2    28  G28        -0.2633
    621  N7        11.5520  -20.2930   -0.7600 N.ar   28  G28        -0.2173
    622  C8        11.5850  -21.0870   -1.7950 C.ar   28  G28         0.1817
    623  N9        10.4150  -21.0800   -2.5180 N.ar   28  G28        -0.2693
    624  OP1       15.9950  -23.3980   -4.4900 O.2    28  G28        -0.5172
    625  OP2       15.6430  -22.1940   -2.2700 O.co2  28  G28        -0.4373
    626  P         12.2100  -19.1040   -7.1100 P.3    29  C29         0.2141
    627  C5'       10.2080  -17.3960   -7.3070 C.3    29  C29         0.1812
    628  O5'       11.2130  -18.0230   -6.5060 O.3    29  C29        -0.3114
    629  C4'        9.3490  -16.5590   -6.4040 C.3    29  C29         0.1773
    630  O4'        9.1930  -17.2510   -5.1390 O.3    29  C29        -0.3307
    631  C3'        9.9220  -15.2090   -6.0090 C.3    29  C29         0.1860
    632  O3'        9.6340  -14.2140   -6.9760 O.3    29  C29        -0.3112
    633  C2'        9.1740  -14.9300   -4.7180 C.3    29  C29         0.2309
    634  O2'        7.8600  -14.4510   -4.9540 O.3    29  C29        -0.2156
    635  C1'        9.1940  -16.3150   -4.0760 C.3    29  C29         0.2420
    636  N1        10.3880  -16.5610   -3.2530 N.ar   29  C29        -0.2535
    637  C2        10.4620  -15.9880   -1.9760 C.ar   29  C29         0.3532
    638  O2         9.5180  -15.2850   -1.5760 O.2    29  C29        -0.2443
    639  N3        11.5600  -16.2140   -1.2150 N.ar   29  C29        -0.1739
    640  C4        12.5460  -16.9830   -1.6790 C.ar   29  C29         0.1759
    641  N4        13.6090  -17.1740   -0.8990 N.pl3  29  C29        -0.1070
    642  C5        12.4910  -17.5840   -2.9690 C.ar   29  C29         0.0566
    643  C6        11.4080  -17.3430   -3.7180 C.ar   29  C29         0.0850
    644  OP1       12.2270  -18.9360   -8.5840 O.2    29  C29        -0.5172
    645  OP2       13.4740  -19.0520   -6.3290 O.co2  29  C29        -0.4373
    646  P         10.5520  -12.9360   -7.0680 P.3    30  C30         0.2141
    647  C5'        9.2470  -11.2760   -5.5650 C.3    30  C30         0.1812
    648  O5'       10.3090  -12.2300   -5.6690 O.3    30  C30        -0.3114
    649  C4'        9.0370  -10.8770   -4.1300 C.3    30  C30         0.1773
    650  O4'        9.3330  -11.9830   -3.2290 O.3    30  C30        -0.3307
    651  C3'        9.9400   -9.7930   -3.5820 C.3    30  C30         0.1860
    652  O3'        9.7020   -8.4930   -4.1200 O.3    30  C30        -0.3112
    653  C2'        9.6300   -9.9440   -2.1060 C.3    30  C30         0.2309
    654  O2'        8.3000   -9.5340   -1.8380 O.3    30  C30        -0.2156
    655  C1'        9.7060  -11.4630   -1.9660 C.3    30  C30         0.2420
    656  N1        11.0420  -11.9710   -1.6260 N.ar   30  C30        -0.2535
    657  C2        11.5950  -11.6250   -0.3890 C.ar   30  C30         0.3532
    658  O2        10.9480  -10.8920    0.3730 O.2    30  C30        -0.2443
    659  N3        12.8190  -12.0990   -0.0520 N.ar   30  C30        -0.1739
    660  C4        13.4810  -12.8900   -0.8970 C.ar   30  C30         0.1759
    661  N4        14.6840  -13.3310   -0.5260 N.pl3  30  C30        -0.1070
    662  C5        12.9350  -13.2700   -2.1590 C.ar   30  C30         0.0566
    663  C6        11.7210  -12.7970   -2.4770 C.ar   30  C30         0.0850
    664  OP1        9.9970  -12.0700   -8.1390 O.2    30  C30        -0.5172
    665  OP2       11.9820  -13.3620   -7.0810 O.co2  30  C30        -0.4373
    666  P         10.9040   -7.4170   -4.1610 P.3    31  C31         0.2141
    667  C5'       10.3200   -6.5560   -1.7510 C.3    31  C31         0.1812
    668  O5'       11.2750   -7.1970   -2.6270 O.3    31  C31        -0.3114
    669  C4'       10.9040   -6.3700   -0.3800 C.3    31  C31         0.1773
    670  O4'       11.3010   -7.6540    0.1520 O.3    31  C31        -0.3307
    671  C3'       12.1980   -5.5810   -0.3230 C.3    31  C31         0.1860
    672  O3'       12.0550   -4.1720   -0.4850 O.3    31  C31        -0.3112
    673  C2'       12.7530   -5.9990    1.0310 C.3    31  C31         0.2309
    674  O2'       12.1470   -5.4020    2.1460 O.3    31  C31        -0.2156
    675  C1'       12.3730   -7.4720    1.0660 C.3    31  C31         0.2420
    676  N1        13.5010   -8.3230    0.6760 N.ar   31  C31        -0.2535
    677  C2        14.5110   -8.5360    1.6140 C.ar   31  C31         0.3532
    678  O2        14.4040   -8.0220    2.7350 O.2    31  C31        -0.2443
    679  N3        15.5650   -9.3160    1.2890 N.ar   31  C31        -0.1739
    680  C4        15.6460   -9.8500    0.0690 C.ar   31  C31         0.1759
    681  N4        16.7120  -10.6030   -0.2120 N.pl3  31  C31        -0.1070
    682  C5        14.6330   -9.6410   -0.9140 C.ar   31  C31         0.0566
    683  C6        13.5910   -8.8710   -0.5740 C.ar   31  C31         0.0850
    684  OP1       10.3580   -6.1280   -4.6840 O.3    31  C31        -0.4373
    685  OP2       12.0630   -8.0630   -4.8030 O.co2  31  C31        -0.5172
    686  P         13.1870   -3.3680   -1.2870 P.3    32  G32         0.2141
    687  C5'       14.4380   -3.0330    1.0170 C.3    32  G32         0.1812
    688  O5'       14.4700   -3.5160   -0.3440 O.3    32  G32        -0.3114
    689  C4'       15.8150   -2.9720    1.6420 C.3    32  G32         0.1773
    690  O4'       16.1670   -4.2550    2.2370 O.3    32  G32        -0.3307
    691  C3'       16.9710   -2.6270    0.7200 C.3    32  G32         0.1860
    692  O3'       17.0190   -1.2150    0.6040 O.3    32  G32        -0.3112
    693  C2'       18.1480   -3.2650    1.4510 C.3    32  G32         0.2309
    694  O2'       18.6570   -2.5000    2.5240 O.3    32  G32        -0.2156
    695  C1'       17.5170   -4.5730    1.9350 C.3    32  G32         0.2408
    696  N1        20.1090   -8.3670   -0.2640 N.ar   32  G32        -0.1709
    697  C2        20.4570   -7.5890    0.8120 C.ar   32  G32         0.2606
    698  N2        21.6520   -7.8500    1.3650 N.pl3  32  G32        -0.0859
    699  N3        19.6900   -6.6310    1.3130 N.ar   32  G32        -0.1918
    700  C4        18.5270   -6.5090    0.6350 C.ar   32  G32         0.1723
    701  C5        18.0850   -7.2360   -0.4500 C.ar   32  G32         0.1748
    702  C6        18.9150   -8.2640   -0.9720 C.ar   32  G32         0.3023
    703  O6        18.6940   -9.0260   -1.9220 O.2    32  G32        -0.2633
    704  N7        16.8310   -6.8000   -0.8580 N.ar   32  G32        -0.2173
    705  C8        16.5410   -5.8320   -0.0330 C.ar   32  G32         0.1817
    706  N9        17.5210   -5.6090    0.9050 N.ar   32  G32        -0.2693
    707  OP1       12.7850   -1.9390   -1.3190 O.3    32  G32        -0.4373
    708  OP2       13.4240   -4.0870   -2.5760 O.co2  32  G32        -0.5172
    709  P         17.6860   -0.5250   -0.6660 P.3    33  A33         0.2141
    710  C5'       20.2460   -0.3660   -1.3010 C.3    33  A33         0.1812
    711  O5'       19.1950   -1.0290   -0.5780 O.3    33  A33        -0.3114
    712  C4'       20.7520    0.8180   -0.5090 C.3    33  A33         0.1773
    713  O4'       21.1850    0.3600    0.7900 O.3    33  A33        -0.3307
    714  C3'       21.9570    1.5390   -1.1140 C.3    33  A33         0.1860
    715  O3'       21.5630    2.4940   -2.1170 O.3    33  A33        -0.3112
    716  C2'       22.7330    2.0640    0.1050 C.3    33  A33         0.2309
    717  O2'       22.5370    3.4190    0.4620 O.3    33  A33        -0.2156
    718  C1'       22.2160    1.1980    1.2610 C.3    33  A33         0.2408
    719  N1        24.0680   -3.5610    2.0940 N.ar   33  A33        -0.2040
    720  C2        23.0010   -3.1270    1.4110 C.ar   33  A33         0.2016
    721  N3        22.5700   -1.8790    1.2260 N.ar   33  A33        -0.2048
    722  C4        23.3770   -0.9990    1.8450 C.ar   33  A33         0.1692
    723  C5        24.5090   -1.2930    2.5830 C.ar   33  A33         0.1518
    724  C6        24.8570   -2.6510    2.7080 C.ar   33  A33         0.1919
    725  N6        25.9210   -3.0830    3.3900 N.pl3  33  A33        -0.1054
    726  N7        25.0910   -0.1320    3.0710 N.ar   33  A33        -0.2193
    727  C8        24.3130    0.8230    2.6240 C.ar   33  A33         0.1816
    728  N9        23.2530    0.3700    1.8790 N.ar   33  A33        -0.2693
    729  OP1       17.6060    0.9440   -0.4520 O.3    33  A33        -0.4373
    730  OP2       17.1060   -1.1260   -1.9000 O.co2  33  A33        -0.5172
    731  P         21.0370    3.9890   -1.7420 P.3    34  C34         0.2141
    732  C5'       19.2400    4.8160    0.0020 C.3    34  C34         0.1812
    733  O5'       19.8180    3.7300   -0.7490 O.3    34  C34        -0.3114
    734  C4'       17.7940    5.0210   -0.3880 C.3    34  C34         0.1773
    735  O4'       17.7030    5.6370   -1.6950 O.3    34  C34        -0.3307
    736  C3'       16.9530    3.7580   -0.5090 C.3    34  C34         0.1860
    737  O3'       16.5870    3.2400    0.7750 O.3    34  C34        -0.3112
    738  C2'       15.8110    4.2000   -1.4280 C.3    34  C34         0.2309
    739  O2'       14.6740    4.7910   -0.8370 O.3    34  C34        -0.2156
    740  C1'       16.4930    5.2470   -2.3150 C.3    34  C34         0.2420
    741  N1        16.8200    4.7460   -3.6510 N.ar   34  C34        -0.2535
    742  C2        15.9390    5.0020   -4.7100 C.ar   34  C34         0.3532
    743  O2        14.8990    5.6430   -4.4880 O.2    34  C34        -0.2443
    744  N3        16.2420    4.5400   -5.9460 N.ar   34  C34        -0.1739
    745  C4        17.3710    3.8500   -6.1410 C.ar   34  C34         0.1759
    746  N4        17.6310    3.4170   -7.3760 N.pl3  34  C34        -0.1070
    747  C5        18.2840    3.5750   -5.0770 C.ar   34  C34         0.0566
    748  C6        17.9690    4.0320   -3.8590 C.ar   34  C34         0.0850
    749  OP1       20.5150    4.6130   -2.9900 O.2    34  C34        -0.5172
    750  OP2       22.1010    4.6930   -0.9720 O.co2  34  C34        -0.4373
    751  P         15.8460    4.1770    1.8570 P.3    35  G35         0.2141
    752  C5'       15.2850    2.0090    3.2550 C.3    35  G35         0.1812
    753  O5'       15.9090    3.3250    3.2010 O.3    35  G35        -0.3114
    754  C4'       16.3000    1.0650    3.8610 C.3    35  G35         0.1773
    755  O4'       17.5750    1.2350    3.1800 O.3    35  G35        -0.3307
    756  C3'       16.6290    1.3430    5.3310 C.3    35  G35         0.1860
    757  O3'       15.7250    0.8250    6.3080 O.3    35  G35        -0.3112
    758  C2'       18.0240    0.7400    5.4750 C.3    35  G35         0.2309
    759  O2'       18.0320   -0.6380    5.7850 O.3    35  G35        -0.2156
    760  C1'       18.6360    1.0390    4.1030 C.3    35  G35         0.2408
    761  N1        23.2030    2.9800    5.1620 N.ar   35  G35        -0.1709
    762  C2        22.7640    1.6840    5.2620 C.ar   35  G35         0.2606
    763  N2        23.6630    0.7890    5.7070 N.pl3  35  G35        -0.0859
    764  N3        21.5360    1.2940    4.9570 N.ar   35  G35        -0.1918
    765  C4        20.7680    2.3240    4.5380 C.ar   35  G35         0.1723
    766  C5        21.1120    3.6510    4.3960 C.ar   35  G35         0.1748
    767  C6        22.4320    4.0550    4.7270 C.ar   35  G35         0.3023
    768  O6        22.9280    5.1860    4.6740 O.2    35  G35        -0.2633
    769  N7        20.0360    4.3930    3.9250 N.ar   35  G35        -0.2173
    770  C8        19.0760    3.5190    3.7870 C.ar   35  G35         0.1817
    771  N9        19.4570    2.2430    4.1290 N.ar   35  G35        -0.2693
    772  OP1       14.4130    4.2850    1.4810 O.2    35  G35        -0.5172
    773  OP2       16.6630    5.3940    2.0880 O.co2  35  G35        -0.4373
    774  P         15.1600   -0.6730    6.1980 P.3    36  A36         0.2141
    775  C5'       16.4120   -2.5140    7.6000 C.3    36  A36         0.1812
    776  O5'       16.4400   -1.5670    6.5190 O.3    36  A36        -0.3114
    777  C4'       16.0840   -3.9110    7.1020 C.3    36  A36         0.1773
    778  O4'       16.9720   -4.2730    6.0100 O.3    36  A36        -0.3307
    779  C3'       16.2660   -4.9920    8.1720 C.3    36  A36         0.1860
    780  O3'       15.0210   -5.5080    8.6300 O.3    36  A36        -0.3112
    781  C2'       17.1970   -6.0150    7.5220 C.3    36  A36         0.2309
    782  O2'       16.5180   -7.0720    6.8860 O.3    36  A36        -0.2156
    783  C1'       17.9450   -5.1620    6.4990 C.3    36  A36         0.2408
    784  N1        22.0100   -5.0210    9.6840 N.ar   36  A36        -0.2040
    785  C2        21.1370   -5.9940    9.3940 C.ar   36  A36         0.2016
    786  N3        20.0990   -5.9730    8.5570 N.ar   36  A36        -0.2048
    787  C4        19.9900   -4.7710    7.9650 C.ar   36  A36         0.1692
    788  C5        20.8100   -3.6730    8.1620 C.ar   36  A36         0.1518
    789  C6        21.8740   -3.8250    9.0710 C.ar   36  A36         0.1919
    790  N6        22.7450   -2.8550    9.3590 N.pl3  36  A36        -0.1054
    791  N7        20.3920   -2.6020    7.3850 N.ar   36  A36        -0.2193
    792  C8        19.3500   -3.0680    6.7410 C.ar   36  A36         0.1816
    793  N9        19.0440   -4.3710    7.0510 N.ar   36  A36        -0.2693
    794  OP1       14.7250   -0.9130    4.7930 O.2    36  A36        -0.5172
    795  OP2       14.1850   -0.8780    7.3020 O.co2  36  A36        -0.4373
    796  P         14.2820   -4.8100    9.8600 P.3    37  A37         0.2141
    797  C5'       14.8200   -7.1840   10.9100 C.3    37  A37         0.1812
    798  O5'       14.5200   -5.7950   11.0880 O.3    37  A37        -0.3114
    799  C4'       16.0670   -7.5430   11.6740 C.3    37  A37         0.1773
    800  O4'       17.2390   -7.0570   10.9680 O.3    37  A37        -0.3307
    801  C3'       16.2340   -6.9260   13.0580 C.3    37  A37         0.1860
    802  O3'       15.4340   -7.5050   14.0840 O.3    37  A37        -0.3112
    803  C2'       17.7210   -7.1550   13.2870 C.3    37  A37         0.2309
    804  O2'       18.1220   -8.4630   13.6560 O.3    37  A37        -0.2156
    805  C1'       18.2740   -6.7950   11.9070 C.3    37  A37         0.2408
    806  N1        21.4670   -3.1770   13.6370 N.ar   37  A37        -0.2040
    807  C2        21.3990   -4.4970   13.8500 C.ar   37  A37         0.2016
    808  N3        20.5320   -5.3830   13.3650 N.ar   37  A37        -0.2048
    809  C4        19.6450   -4.7840   12.5500 C.ar   37  A37         0.1692
    810  C5        19.5840   -3.4380   12.2370 C.ar   37  A37         0.1518
    811  C6        20.5520   -2.6040   12.8210 C.ar   37  A37         0.1919
    812  N6        20.6160   -1.2870   12.6110 N.pl3  37  A37        -0.1054
    813  N7        18.5260   -3.1820   11.3740 N.ar   37  A37        -0.2193
    814  C8        17.9820   -4.3600   11.1870 C.ar   37  A37         0.1816
    815  N9        18.6220   -5.3780   11.8500 N.ar   37  A37        -0.2693
    816  OP1       12.8310   -4.7630    9.5760 O.2    37  A37        -0.5172
    817  OP2       15.0080   -3.5640   10.2030 O.co2  37  A37        -0.4373
    818  P         14.5080   -6.5880   15.0280 P.3    38  G38         0.2141
    819  C5'       16.5020   -6.9720   16.7390 C.3    38  G38         0.1812
    820  O5'       15.4930   -6.1090   16.1840 O.3    38  G38        -0.3114
    821  C4'       17.6570   -6.1450   17.2540 C.3    38  G38         0.1773
    822  O4'       18.4060   -5.5990   16.1320 O.3    38  G38        -0.3307
    823  C3'       17.2770   -4.9320   18.0930 C.3    38  G38         0.1860
    824  O3'       17.0660   -5.2840   19.4530 O.3    38  G38        -0.3112
    825  C2'       18.4790   -4.0200   17.8890 C.3    38  G38         0.2309
    826  O2'       19.6000   -4.3220   18.7000 O.3    38  G38        -0.2156
    827  C1'       18.7710   -4.2570   16.4070 C.3    38  G38         0.2408
    828  N1        18.1190    0.5030   14.7840 N.ar   38  G38        -0.1709
    829  C2        19.0160    0.0090   15.6990 C.ar   38  G38         0.2606
    830  N2        19.8460    0.9010   16.2600 N.pl3  38  G38        -0.0859
    831  N3        19.0920   -1.2670   16.0410 N.ar   38  G38        -0.1918
    832  C4        18.1800   -2.0200   15.3900 C.ar   38  G38         0.1723
    833  C5        17.2430   -1.6240   14.4580 C.ar   38  G38         0.1748
    834  C6        17.1790   -0.2550   14.0930 C.ar   38  G38         0.3023
    835  O6        16.4230    0.2910   13.2800 O.2    38  G38        -0.2633
    836  N7        16.5000   -2.7090   14.0160 N.ar   38  G38        -0.2173
    837  C8        16.9840   -3.7250   14.6780 C.ar   38  G38         0.1817
    838  N9        18.0090   -3.3770   15.5250 N.ar   38  G38        -0.2693
    839  OP1       13.4580   -7.4610   15.6220 O.3    38  G38        -0.4373
    840  OP2       14.1100   -5.3830   14.2630 O.co2  38  G38        -0.5172
    841  P         15.6020   -5.2010   20.0940 P.3    39  C39         0.2141
    842  C5'       17.0950   -4.0280   21.9180 C.3    39  C39         0.1812
    843  O5'       15.8060   -4.1790   21.2980 O.3    39  C39        -0.3114
    844  C4'       17.5290   -2.5830   21.9050 C.3    39  C39         0.1773
    845  O4'       18.0520   -2.1990   20.6010 O.3    39  C39        -0.3307
    846  C3'       16.4510   -1.5390   22.1180 C.3    39  C39         0.1860
    847  O3'       15.9350   -1.4310   23.4250 O.3    39  C39        -0.3112
    848  C2'       17.2030   -0.2900   21.6970 C.3    39  C39         0.2309
    849  O2'       18.1210    0.1250   22.6900 O.3    39  C39        -0.2156
    850  C1'       17.8680   -0.7950   20.4200 C.3    39  C39         0.2420
    851  N1        16.9780   -0.5720   19.2690 N.ar   39  C39        -0.2535
    852  C2        16.9800    0.6850   18.6550 C.ar   39  C39         0.3532
    853  O2        17.7670    1.5540   19.0630 O.2    39  C39        -0.2443
    854  N3        16.1420    0.9140   17.6180 N.ar   39  C39        -0.1739
    855  C4        15.3080   -0.0450   17.2110 C.ar   39  C39         0.1759
    856  N4        14.4940    0.2270   16.1900 N.pl3  39  C39        -0.1070
    857  C5        15.2610   -1.3230   17.8420 C.ar   39  C39         0.0566
    858  C6        16.0980   -1.5370   18.8650 C.ar   39  C39         0.0850
    859  OP1       15.2660   -6.5470   20.6230 O.3    39  C39        -0.4373
    860  OP2       14.6880   -4.5520   19.1170 O.co2  39  C39        -0.5172
    861  P         14.5950   -0.6160   23.6450 P.3    40  U40         0.2141
    862  C5'       15.8110    1.7250   23.7980 C.3    40  U40         0.1812
    863  O5'       14.9500    0.8230   23.0670 O.3    40  U40        -0.3114
    864  C4'       15.6050    3.1320   23.3090 C.3    40  U40         0.1773
    865  O4'       15.9170    3.2240   21.8940 O.3    40  U40        -0.3307
    866  C3'       14.1660    3.6100   23.3600 C.3    40  U40         0.1860
    867  O3'       13.6810    3.7970   24.6900 O.3    40  U40        -0.3112
    868  C2'       14.2100    4.7990   22.4020 C.3    40  U40         0.2309
    869  O2'       14.6470    6.0550   22.8780 O.3    40  U40        -0.2156
    870  C1'       15.1440    4.2650   21.3130 C.3    40  U40         0.2420
    871  N1        14.3700    3.7260   20.1870 N.ar   40  U40        -0.2534
    872  C2        13.8040    4.6410   19.3140 C.ar   40  U40         0.3546
    873  O2        13.9550    5.8450   19.4230 O.2    40  U40        -0.2443
    874  N3        13.0520    4.0900   18.3110 N.ar   40  U40        -0.1530
    875  C4        12.7930    2.7560   18.1000 C.ar   40  U40         0.2846
    876  O4        12.0910    2.4220   17.1460 O.2    40  U40        -0.2650
    877  C5        13.3950    1.8730   19.0560 C.ar   40  U40         0.0814
    878  C6        14.1320    2.3770   20.0510 C.ar   40  U40         0.0870
    879  OP1       14.3900   -0.4670   25.1090 O.3    40  U40        -0.4373
    880  OP2       13.5410   -1.2240   22.7910 O.co2  40  U40        -0.5172
    881  P         12.1490    4.2260   24.9210 P.3    41  U41         0.2141
    882  C5'       11.0110    6.5190   24.3640 C.3    41  U41         0.1812
    883  O5'       12.0850    5.6120   24.1450 O.3    41  U41        -0.3114
    884  C4'       11.0330    7.5390   23.2660 C.3    41  U41         0.1773
    885  O4'       11.8060    7.0260   22.1430 O.3    41  U41        -0.3307
    886  C3'        9.6890    7.8430   22.6380 C.3    41  U41         0.1860
    887  O3'        8.8630    8.6040   23.4890 O.3    41  U41        -0.3112
    888  C2'       10.1280    8.4400   21.3190 C.3    41  U41         0.2309
    889  O2'       10.7430    9.7020   21.4790 O.3    41  U41        -0.2156
    890  C1'       11.1860    7.4160   20.9160 C.3    41  U41         0.2420
    891  N1        10.6780    6.2060   20.2390 N.ar   41  U41        -0.2534
    892  C2        10.0310    6.3420   19.0190 C.ar   41  U41         0.3546
    893  O2         9.8200    7.4190   18.4940 O.2    41  U41        -0.2443
    894  N3         9.6260    5.1630   18.4470 N.ar   41  U41        -0.1530
    895  C4         9.8090    3.8870   18.9410 C.ar   41  U41         0.2846
    896  O4         9.3900    2.9220   18.3010 O.2    41  U41        -0.2650
    897  C5        10.4880    3.8290   20.1980 C.ar   41  U41         0.0814
    898  C6        10.8910    4.9610   20.7890 C.ar   41  U41         0.0870
    899  OP1       11.9610    4.5000   26.3680 O.3    41  U41        -0.4373
    900  OP2       11.2700    3.2410   24.2280 O.co2  41  U41        -0.5172
    901  P          7.5130    7.9480   24.0170 P.3    42  C42         0.2141
    902  C5'        6.4750    9.9380   22.7270 C.3    42  C42         0.1812
    903  O5'        6.4690    8.5240   22.9680 O.3    42  C42        -0.3114
    904  C4'        6.1480   10.2310   21.2920 C.3    42  C42         0.1773
    905  O4'        7.1210    9.5970   20.4240 O.3    42  C42        -0.3307
    906  C3'        4.8210    9.6890   20.7990 C.3    42  C42         0.1860
    907  O3'        3.7190   10.4610   21.2530 O.3    42  C42        -0.3112
    908  C2'        5.0680    9.6650   19.3050 C.3    42  C42         0.2309
    909  O2'        5.1660   10.9520   18.7420 O.3    42  C42        -0.2156
    910  C1'        6.4680    9.0640   19.2800 C.3    42  C42         0.2420
    911  N1         6.5140    7.5880   19.3670 N.ar   42  C42        -0.2535
    912  C2         5.9340    6.8150   18.3490 C.ar   42  C42         0.3532
    913  O2         5.3580    7.3890   17.4090 O.2    42  C42        -0.2443
    914  N3         6.0000    5.4650   18.4280 N.ar   42  C42        -0.1739
    915  C4         6.6120    4.8860   19.4650 C.ar   42  C42         0.1759
    916  N4         6.6490    3.5520   19.5060 N.pl3  42  C42        -0.1070
    917  C5         7.2220    5.6480   20.5020 C.ar   42  C42         0.0566
    918  C6         7.1490    6.9820   20.4160 C.ar   42  C42         0.0850
    919  OP1        7.2330    8.4980   25.3610 O.3    42  C42        -0.4373
    920  OP2        7.6150    6.4740   23.8810 O.co2  42  C42        -0.5172
    921  P          2.4340    9.7090   21.8470 P.3    43  A43         0.2141
    922  C5'        1.3230   10.3120   19.5420 C.3    43  A43         0.1812
    923  O5'        1.6460    9.3040   20.5220 O.3    43  A43        -0.3114
    924  C4'        1.0940    9.6830   18.1920 C.3    43  A43         0.1773
    925  O4'        2.2910    8.9910   17.7340 O.3    43  A43        -0.3307
    926  C3'        0.0300    8.5980   18.1320 C.3    43  A43         0.1860
    927  O3'       -1.2900    9.1060   18.1090 O.3    43  A43        -0.3112
    928  C2'        0.3880    7.9190   16.8220 C.3    43  A43         0.2309
    929  O2'       -0.1190    8.6510   15.7210 O.3    43  A43        -0.2156
    930  C1'        1.9140    7.8870   16.9290 C.3    43  A43         0.2408
    931  N1         2.4390    2.8150   16.4530 N.ar   43  A43        -0.2040
    932  C2         1.9510    3.7560   15.6320 C.ar   43  A43         0.2016
    933  N3         1.8270    5.0660   15.8320 N.ar   43  A43        -0.2048
    934  C4         2.3090    5.4070   17.0390 C.ar   43  A43         0.1692
    935  C5         2.8490    4.5580   17.9880 C.ar   43  A43         0.1518
    936  C6         2.9050    3.1880   17.6610 C.ar   43  A43         0.1919
    937  N6         3.3830    2.2460   18.4750 N.pl3  43  A43        -0.1054
    938  N7         3.2340    5.2690   19.1180 N.ar   43  A43        -0.2193
    939  C8         2.9240    6.5100   18.8300 C.ar   43  A43         0.1816
    940  N9         2.3820    6.6680   17.5790 N.ar   43  A43        -0.2693
    941  OP1        1.6070   10.7090   22.5700 O.2    43  A43        -0.5172
    942  OP2        2.8960    8.4910   22.5750 O.co2  43  A43        -0.4373
    943  P         -2.5080    8.0970   18.3240 P.3    44  G44         0.2141
    944  C5'       -2.9940    7.1050   15.9170 C.3    44  G44         0.1812
    945  O5'       -2.3000    7.0270   17.1670 O.3    44  G44        -0.3114
    946  C4'       -2.7740    5.8040   15.2060 C.3    44  G44         0.1773
    947  O4'       -1.4980    5.2600   15.6230 O.3    44  G44        -0.3307
    948  C3'       -3.7320    4.6910   15.5850 C.3    44  G44         0.1860
    949  O3'       -5.0160    4.8640   14.9850 O.3    44  G44        -0.3112
    950  C2'       -2.9550    3.4480   15.1570 C.3    44  G44         0.2309
    951  O2'       -3.0460    3.0780   13.7990 O.3    44  G44        -0.2156
    952  C1'       -1.5110    3.8650   15.4280 C.3    44  G44         0.2408
    953  N1        -0.0330   -0.5160   17.4980 N.ar   44  G44        -0.1709
    954  C2        -0.6190   -0.2770   16.2770 C.ar   44  G44         0.2606
    955  N2        -0.8430   -1.3520   15.5100 N.pl3  44  G44        -0.0859
    956  N3        -0.9520    0.9270   15.8380 N.ar   44  G44        -0.1918
    957  C4        -0.6740    1.8860   16.7420 C.ar   44  G44         0.1723
    958  C5        -0.0920    1.7550   17.9840 C.ar   44  G44         0.1748
    959  C6         0.2760    0.4580   18.4370 C.ar   44  G44         0.3023
    960  O6         0.7990    0.1320   19.5040 O.2    44  G44        -0.2633
    961  N7         0.0380    2.9920   18.5970 N.ar   44  G44        -0.2173
    962  C8        -0.4720    3.8340   17.7390 C.ar   44  G44         0.1817
    963  N9        -0.9310    3.2270   16.5980 N.ar   44  G44        -0.2693
    964  OP1       -3.7810    8.8580   18.1310 O.2    44  G44        -0.5172
    965  OP2       -2.2470    7.3050   19.5650 O.co2  44  G44        -0.4373
    966  P         -6.2800    3.9990   15.5120 P.3    45  C45         0.2141
    967  C5'       -5.6740    2.1550   13.7530 C.3    45  C45         0.1812
    968  O5'       -5.8640    2.5080   15.1350 O.3    45  C45        -0.3114
    969  C4'       -5.4730    0.6710   13.5980 C.3    45  C45         0.1773
    970  O4'       -4.1470    0.2870   14.0550 O.3    45  C45        -0.3307
    971  C3'       -6.4320   -0.1920   14.3970 C.3    45  C45         0.1860
    972  O3'       -7.6830   -0.2950   13.7450 O.3    45  C45        -0.3112
    973  C2'       -5.6240   -1.4650   14.5770 C.3    45  C45         0.2309
    974  O2'       -5.4130   -2.2530   13.4290 O.3    45  C45        -0.2156
    975  C1'       -4.2440   -0.8860   14.8480 C.3    45  C45         0.2420
    976  N1        -4.0120   -0.5190   16.2560 N.ar   45  C45        -0.2535
    977  C2        -3.3960   -1.4430   17.1040 C.ar   45  C45         0.3532
    978  O2        -3.0900   -2.5530   16.6600 O.2    45  C45        -0.2443
    979  N3        -3.1290   -1.0950   18.3750 N.ar   45  C45        -0.1739
    980  C4        -3.4500    0.1200   18.8120 C.ar   45  C45         0.1759
    981  N4        -3.1770    0.4140   20.0780 N.pl3  45  C45        -0.1070
    982  C5        -4.0850    1.0790   17.9760 C.ar   45  C45         0.0566
    983  C6        -4.3480    0.7210   16.7180 C.ar   45  C45         0.0850
    984  OP1       -7.4950    4.4360   14.7620 O.2    45  C45        -0.5172
    985  OP2       -6.2910    4.0200   16.9940 O.co2  45  C45        -0.4373
    986  P         -8.9110   -0.6620   14.6210 P.3    46  A46         0.2141
    987  C5'       -8.1440   -3.1530   14.8250 C.3    46  A46         0.1812
    988  O5'       -8.3110   -1.8740   15.4530 O.3    46  A46        -0.3114
    989  C4'       -7.6190   -4.1590   15.8130 C.3    46  A46         0.1773
    990  O4'       -6.4150   -3.6530   16.4410 O.3    46  A46        -0.3307
    991  C3'       -8.5490   -4.4730   16.9730 C.3    46  A46         0.1860
    992  O3'       -9.3250   -5.5500   16.5540 O.3    46  A46        -0.3112
    993  C2'       -7.5830   -4.9550   18.0320 C.3    46  A46         0.2309
    994  O2'       -7.1770   -6.2780   17.7680 O.3    46  A46        -0.2156
    995  C1'       -6.4150   -3.9960   17.8230 C.3    46  A46         0.2408
    996  N1        -4.9440   -1.4960   22.0830 N.ar   46  A46        -0.2040
    997  C2        -4.7160   -2.7410   21.6560 C.ar   46  A46         0.2016
    998  N3        -5.1410   -3.3430   20.5430 N.ar   46  A46        -0.2048
    999  C4        -5.8740   -2.4970   19.8010 C.ar   46  A46         0.1692
   1000  C5        -6.1740   -1.1810   20.1020 C.ar   46  A46         0.1518
   1001  C6        -5.6820   -0.6750   21.3090 C.ar   46  A46         0.1919
   1002  N6        -5.9070    0.5680   21.7260 N.pl3  46  A46        -0.1054
   1003  N7        -6.9710   -0.6200   19.1160 N.ar   46  A46        -0.2193
   1004  C8        -7.1180   -1.5870   18.2430 C.ar   46  A46         0.1816
   1005  N9        -6.4840   -2.7540   18.5980 N.ar   46  A46        -0.2693
   1006  OP1      -10.0160   -1.1030   13.7410 O.2    46  A46        -0.5172
   1007  OP2       -9.1690    0.4540   15.5420 O.co2  46  A46        -0.4373
   1008  P        -10.6290   -5.9220   17.3210 P.3    47  A47         0.2141
   1009  C5'       -9.7790   -7.7610   19.0120 C.3    47  A47         0.1812
   1010  O5'      -10.0850   -6.3940   18.7400 O.3    47  A47        -0.3114
   1011  C4'       -9.5050   -7.9380   20.4840 C.3    47  A47         0.1773
   1012  O4'       -8.7590   -6.7930   20.9750 O.3    47  A47        -0.3307
   1013  C3'      -10.7560   -8.0790   21.3560 C.3    47  A47         0.1860
   1014  O3'      -10.7100   -9.0550   22.3800 O.3    47  A47        -0.3112
   1015  C2'      -10.8470   -6.7530   22.0950 C.3    47  A47         0.2309
   1016  O2'      -11.3070   -6.9880   23.4080 O.3    47  A47        -0.2156
   1017  C1'       -9.3960   -6.2670   22.1170 C.3    47  A47         0.2408
   1018  N1        -7.3450   -1.9650   24.0950 N.ar   47  A47        -0.2040
   1019  C2        -7.1240   -3.2590   24.3530 C.ar   47  A47         0.2016
   1020  N3        -7.6800   -4.3340   23.7990 N.ar   47  A47        -0.2048
   1021  C4        -8.5760   -3.9760   22.8650 C.ar   47  A47         0.1692
   1022  C5        -8.9070   -2.6880   22.4870 C.ar   47  A47         0.1518
   1023  C6        -8.2570   -1.6410   23.1550 C.ar   47  A47         0.1919
   1024  N6        -8.4790   -0.3500   22.8960 N.pl3  47  A47        -0.1054
   1025  N7        -9.8620   -2.7010   21.4820 N.ar   47  A47        -0.2193
   1026  C8       -10.0960   -3.9750   21.2880 C.ar   47  A47         0.1816
   1027  N9        -9.3310   -4.8050   22.0710 N.ar   47  A47        -0.2693
   1028  OP1      -11.2110   -7.1030   16.6400 O.2    47  A47        -0.5172
   1029  OP2      -11.4380   -4.6650   17.4750 O.co2  47  A47        -0.4373
   1030  P        -10.9640  -10.5730   22.0550 P.3    48  C48         0.2141
   1031  C5'      -10.0880  -12.5860   23.4810 C.3    48  C48         0.1812
   1032  O5'       -9.8880  -11.2670   22.9950 O.3    48  C48        -0.3114
   1033  C4'       -8.8260  -13.0540   24.1550 C.3    48  C48         0.1773
   1034  O4'       -7.6730  -12.5080   23.4600 O.3    48  C48        -0.3307
   1035  C3'       -8.6240  -12.6140   25.5960 C.3    48  C48         0.1860
   1036  O3'       -9.4470  -13.3570   26.4860 O.3    48  C48        -0.3112
   1037  C2'       -7.1170  -12.7800   25.7470 C.3    48  C48         0.2309
   1038  O2'       -6.6780  -14.1180   25.9010 O.3    48  C48        -0.2156
   1039  C1'       -6.6340  -12.2440   24.3930 C.3    48  C48         0.2420
   1040  N1        -6.3970  -10.7960   24.3940 N.ar   48  C48        -0.2535
   1041  C2        -5.3240  -10.2750   25.1330 C.ar   48  C48         0.3532
   1042  O2        -4.5790  -11.0610   25.7510 O.2    48  C48        -0.2443
   1043  N3        -5.1290   -8.9350   25.1550 N.ar   48  C48        -0.1739
   1044  C4        -5.9460   -8.1310   24.4690 C.ar   48  C48         0.1759
   1045  N4        -5.7100   -6.8160   24.5060 N.pl3  48  C48        -0.1070
   1046  C5        -7.0320   -8.6390   23.6970 C.ar   48  C48         0.0566
   1047  C6        -7.2240   -9.9620   23.6940 C.ar   48  C48         0.0850
   1048  OP1      -10.5930  -10.8310   20.6370 O.2    48  C48        -0.5172
   1049  OP2      -12.3240  -10.9040   22.4960 O.co2  48  C48        -0.4373
   1050  P        -10.3400  -12.5770   27.5640 P.3    49  C49         0.2141
   1051  C5'       -8.5260  -12.8890   29.4520 C.3    49  C49         0.1812
   1052  O5'       -9.2370  -12.0160   28.5620 O.3    49  C49        -0.3114
   1053  C4'       -7.5640  -12.0850   30.2900 C.3    49  C49         0.1773
   1054  O4'       -6.6140  -11.4170   29.4140 O.3    49  C49        -0.3307
   1055  C3'       -8.1380  -10.9320   31.1090 C.3    49  C49         0.1860
   1056  O3'       -8.8170  -11.2370   32.3300 O.3    49  C49        -0.3112
   1057  C2'       -6.8770  -10.1310   31.3860 C.3    49  C49         0.2309
   1058  O2'       -6.1610  -10.6790   32.4850 O.3    49  C49        -0.2156
   1059  C1'       -6.1790  -10.2110   30.0230 C.3    49  C49         0.2420
   1060  N1        -6.5690   -9.0930   29.1570 N.ar   49  C49        -0.2535
   1061  C2        -6.1370   -7.8040   29.4860 C.ar   49  C49         0.3532
   1062  O2        -5.4080   -7.6510   30.4750 O.2    49  C49        -0.2443
   1063  N3        -6.5220   -6.7600   28.7180 N.ar   49  C49        -0.1739
   1064  C4        -7.3050   -6.9660   27.6590 C.ar   49  C49         0.1759
   1065  N4        -7.6630   -5.9070   26.9320 N.pl3  49  C49        -0.1070
   1066  C5        -7.7670   -8.2680   27.3050 C.ar   49  C49         0.0566
   1067  C6        -7.3880   -9.2920   28.0810 C.ar   49  C49         0.0850
   1068  OP1      -11.2320  -13.5680   28.2080 O.3    49  C49        -0.4373
   1069  OP2      -10.9040  -11.3300   26.9740 O.co2  49  C49        -0.5172
   1070  P        -10.1840  -10.4530   32.6850 P.3    50  G50         0.2141
   1071  C5'       -8.9310   -8.2510   33.2960 C.3    50  G50         0.1812
   1072  O5'       -9.8230   -8.9280   32.3980 O.3    50  G50        -0.3114
   1073  C4'       -8.8020   -6.8160   32.9040 C.3    50  G50         0.1773
   1074  O4'       -8.5800   -6.7310   31.4760 O.3    50  G50        -0.3307
   1075  C3'      -10.0710   -6.0140   33.1060 C.3    50  G50         0.1860
   1076  O3'      -10.3960   -5.7770   34.4680 O.3    50  G50        -0.3112
   1077  C2'       -9.8670   -4.8430   32.1540 C.3    50  G50         0.2309
   1078  O2'       -9.0660   -3.7610   32.5830 O.3    50  G50        -0.2156
   1079  C1'       -9.2020   -5.5510   30.9710 C.3    50  G50         0.2408
   1080  N1       -12.9040   -3.9460   27.8870 N.ar   50  G50        -0.1709
   1081  C2       -12.2840   -3.2930   28.9210 C.ar   50  G50         0.2606
   1082  N2       -12.6990   -2.0420   29.1550 N.pl3  50  G50        -0.0859
   1083  N3       -11.3320   -3.8260   29.6680 N.ar   50  G50        -0.1918
   1084  C4       -11.0400   -5.0860   29.2900 C.ar   50  G50         0.1723
   1085  C5       -11.5980   -5.8300   28.2720 C.ar   50  G50         0.1748
   1086  C6       -12.6300   -5.2480   27.4860 C.ar   50  G50         0.3023
   1087  O6       -13.2550   -5.7440   26.5370 O.2    50  G50        -0.2633
   1088  N7       -11.0160   -7.0890   28.2060 N.ar   50  G50        -0.2173
   1089  C8       -10.1400   -7.0920   29.1730 C.ar   50  G50         0.1817
   1090  N9       -10.1080   -5.9090   29.8750 N.ar   50  G50        -0.2693
   1091  OP1      -10.3980  -10.5300   34.1560 O.3    50  G50        -0.4373
   1092  OP2      -11.2550  -10.9410   31.7670 O.co2  50  G50        -0.5172
   1093  P        -11.7660   -6.4130   35.0420 P.3    51  G51         0.2141
   1094  C5'      -12.6530   -3.9850   34.9860 C.3    51  G51         0.1812
   1095  O5'      -12.8540   -5.3420   34.5950 O.3    51  G51        -0.3114
   1096  C4'      -13.7940   -3.1340   34.5170 C.3    51  G51         0.1773
   1097  O4'      -13.5770   -2.7760   33.1270 O.3    51  G51        -0.3307
   1098  C3'      -15.1790   -3.7640   34.4990 C.3    51  G51         0.1860
   1099  O3'      -15.8130   -3.9280   35.7730 O.3    51  G51        -0.3112
   1100  C2'      -15.8910   -2.8130   33.5480 C.3    51  G51         0.2309
   1101  O2'      -16.1290   -1.5080   34.0280 O.3    51  G51        -0.2156
   1102  C1'      -14.8300   -2.6710   32.4650 C.3    51  G51         0.2408
   1103  N1       -16.7760   -3.8170   27.9540 N.ar   51  G51        -0.1709
   1104  C2       -16.8840   -2.6670   28.6930 C.ar   51  G51         0.2606
   1105  N2       -17.6140   -1.6810   28.1520 N.pl3  51  G51        -0.0859
   1106  N3       -16.3080   -2.4880   29.8660 N.ar   51  G51        -0.1918
   1107  C4       -15.6250   -3.5790   30.2630 C.ar   51  G51         0.1723
   1108  C5       -15.4650   -4.7820   29.6070 C.ar   51  G51         0.1748
   1109  C6       -16.0720   -4.9510   28.3390 C.ar   51  G51         0.3023
   1110  O6       -16.0410   -5.9360   27.5940 O.2    51  G51        -0.2633
   1111  N7       -14.6790   -5.6490   30.3520 N.ar   51  G51        -0.2173
   1112  C8       -14.3900   -4.9740   31.4330 C.ar   51  G51         0.1817
   1113  N9       -14.9270   -3.7060   31.4360 N.ar   51  G51        -0.2693
   1114  OP1      -11.7010   -6.3770   36.5180 O.3    51  G51        -0.4373
   1115  OP2      -11.9990   -7.7290   34.3630 O.co2  51  G51        -0.5172
   1116  P        -17.0920   -4.9200   35.9460 P.3    52  U52         0.2141
   1117  C5'      -18.6900   -2.8830   35.5860 C.3    52  U52         0.1812
   1118  O5'      -18.2370   -4.1700   35.1190 O.3    52  U52        -0.3114
   1119  C4'      -19.6380   -2.2360   34.6100 C.3    52  U52         0.1773
   1120  O4'      -19.0420   -2.2670   33.2950 O.3    52  U52        -0.3307
   1121  C3'      -21.0030   -2.8860   34.4200 C.3    52  U52         0.1860
   1122  O3'      -21.9740   -2.5600   35.4170 O.3    52  U52        -0.3112
   1123  C2'      -21.4110   -2.3740   33.0430 C.3    52  U52         0.2309
   1124  O2'      -22.0510   -1.1090   33.0320 O.3    52  U52        -0.2156
   1125  C1'      -20.0600   -2.3450   32.3170 C.3    52  U52         0.2420
   1126  N1       -19.7860   -3.5110   31.4660 N.ar   52  U52        -0.2534
   1127  C2       -20.5170   -3.6360   30.3030 C.ar   52  U52         0.3546
   1128  O2       -21.3910   -2.8510   29.9830 O.2    52  U52        -0.2443
   1129  N3       -20.1980   -4.7270   29.5360 N.ar   52  U52        -0.1530
   1130  C4       -19.2380   -5.6790   29.7980 C.ar   52  U52         0.2846
   1131  O4       -19.0660   -6.6010   29.0000 O.2    52  U52        -0.2650
   1132  C5       -18.5210   -5.4790   31.0200 C.ar   52  U52         0.0814
   1133  C6       -18.8140   -4.4290   31.7940 C.ar   52  U52         0.0870
   1134  OP1      -17.4540   -4.8900   37.3820 O.3    52  U52        -0.4373
   1135  OP2      -16.7890   -6.2430   35.3160 O.co2  52  U52        -0.5172
   1136  P        -22.9150   -3.7250   36.0130 P.3    53  G53         0.2141
   1137  C5'      -20.8550   -5.1190   36.9330 C.3    53  G53         0.1812
   1138  O5'      -22.0400   -4.3490   37.1940 O.3    53  G53        -0.3114
   1139  C4'      -21.2470   -6.4900   36.4850 C.3    53  G53         0.1773
   1140  O4'      -21.2560   -6.5980   35.0400 O.3    53  G53        -0.3307
   1141  C3'      -20.3030   -7.6200   36.8220 C.3    53  G53         0.1860
   1142  O3'      -20.1610   -7.8110   38.2250 O.3    53  G53        -0.3112
   1143  C2'      -20.9410   -8.7360   35.9990 C.3    53  G53         0.2309
   1144  O2'      -22.0920   -9.3530   36.5420 O.3    53  G53        -0.2156
   1145  C1'      -21.3020   -7.9760   34.7140 C.3    53  G53         0.2408
   1146  N1       -20.5720   -8.6150   29.7210 N.ar   53  G53        -0.1709
   1147  C2       -21.6790   -8.1480   30.3790 C.ar   53  G53         0.2606
   1148  N2       -22.7320   -7.8410   29.6100 N.pl3  53  G53        -0.0859
   1149  N3       -21.7500   -7.9940   31.6920 N.ar   53  G53        -0.1918
   1150  C4       -20.6070   -8.3630   32.3040 C.ar   53  G53         0.1723
   1151  C5       -19.4440   -8.8370   31.7370 C.ar   53  G53         0.1748
   1152  C6       -19.3820   -8.9920   30.3320 C.ar   53  G53         0.3023
   1153  O6       -18.4350   -9.3860   29.6420 O.2    53  G53        -0.2633
   1154  N7       -18.4880   -9.0880   32.7100 N.ar   53  G53        -0.2173
   1155  C8       -19.0760   -8.7720   33.8310 C.ar   53  G53         0.1817
   1156  N9       -20.3500   -8.2870   33.6520 N.ar   53  G53        -0.2693
   1157  OP1      -23.1040   -4.7540   34.9530 O.2    53  G53        -0.5172
   1158  OP2      -24.1070   -3.0880   36.6290 O.co2  53  G53        -0.4373
   1159  P        -18.8080   -8.4410   38.8390 P.3    54  U54         0.2141
   1160  C5'      -20.1800  -10.6780   38.8470 C.3    54  U54         0.1812
   1161  O5'      -19.3550   -9.7490   39.5650 O.3    54  U54        -0.3114
   1162  C4'      -19.4080  -11.1970   37.6590 C.3    54  U54         0.1773
   1163  O4'      -18.0600  -11.5360   38.0790 O.3    54  U54        -0.3307
   1164  C3'      -19.9600  -12.4430   36.9840 C.3    54  U54         0.1860
   1165  O3'      -20.8800  -12.0960   35.9570 O.3    54  U54        -0.3112
   1166  C2'      -18.7040  -13.0950   36.4150 C.3    54  U54         0.2309
   1167  O2'      -18.3210  -12.6040   35.1450 O.3    54  U54        -0.2156
   1168  C1'      -17.6740  -12.7660   37.4970 C.3    54  U54         0.2420
   1169  N1       -17.6160  -13.7800   38.5600 N.ar   54  U54        -0.2534
   1170  C2       -16.6710  -14.7830   38.4440 C.ar   54  U54         0.3546
   1171  O2       -15.8850  -14.8490   37.5130 O.2    54  U54        -0.2443
   1172  N3       -16.6790  -15.7020   39.4650 N.ar   54  U54        -0.1530
   1173  C4       -17.5150  -15.7260   40.5640 C.ar   54  U54         0.2846
   1174  O4       -17.3940  -16.6230   41.4010 O.2    54  U54        -0.2650
   1175  C5       -18.4670  -14.6580   40.6090 C.ar   54  U54         0.0814
   1176  C6       -18.4860  -13.7460   39.6300 C.ar   54  U54         0.0870
   1177  OP1      -18.2850   -7.5020   39.8670 O.3    54  U54        -0.4373
   1178  OP2      -17.9240   -8.8330   37.7140 O.co2  54  U54        -0.5172
   1179  P        -22.1340  -13.0390   35.6480 P.3    55  A55         0.2141
   1180  C5'      -24.4290  -12.1730   34.6980 C.3    55  A55         0.1812
   1181  O5'      -23.3340  -11.9970   35.6010 O.3    55  A55        -0.3114
   1182  C4'      -24.6020  -10.9260   33.8710 C.3    55  A55         0.1773
   1183  O4'      -23.3670  -10.6350   33.1620 O.3    55  A55        -0.3307
   1184  C3'      -25.6470  -10.9870   32.7640 C.3    55  A55         0.1860
   1185  O3'      -26.9580  -10.6930   33.2030 O.3    55  A55        -0.3112
   1186  C2'      -25.1670   -9.8890   31.8450 C.3    55  A55         0.2309
   1187  O2'      -25.4380   -8.6180   32.3960 O.3    55  A55        -0.2156
   1188  C1'      -23.6680  -10.1620   31.8570 C.3    55  A55         0.2408
   1189  N1       -24.2480  -12.0330   27.0960 N.ar   55  A55        -0.2040
   1190  C2       -24.8250  -11.0040   27.7330 C.ar   55  A55         0.2016
   1191  N3       -24.6250  -10.5640   28.9750 N.ar   55  A55        -0.2048
   1192  C4       -23.7060  -11.3190   29.6030 C.ar   55  A55         0.1692
   1193  C5       -23.0330  -12.4090   29.0830 C.ar   55  A55         0.1518
   1194  C6       -23.3330  -12.7740   27.7590 C.ar   55  A55         0.1919
   1195  N6       -22.7660  -13.8040   27.1290 N.pl3  55  A55        -0.1054
   1196  N7       -22.1650  -12.9440   30.0240 N.ar   55  A55        -0.2193
   1197  C8       -22.3280  -12.1770   31.0740 C.ar   55  A55         0.1816
   1198  N9       -23.2480  -11.1740   30.8900 N.ar   55  A55        -0.2693
   1199  OP1      -22.3640  -13.9190   36.8270 O.3    55  A55        -0.4373
   1200  OP2      -21.9280  -13.6490   34.3070 O.co2  55  A55        -0.5172
   1201  P        -27.6760  -11.6400   34.2450 P.3    56  A56         0.2141
   1202  C5'      -29.7770  -12.6260   33.0010 C.3    56  A56         0.1812
   1203  O5'      -29.1920  -11.5580   33.7670 O.3    56  A56        -0.3114
   1204  C4'      -29.6400  -12.3670   31.5200 C.3    56  A56         0.1773
   1205  O4'      -28.2850  -11.9580   31.1760 O.3    56  A56        -0.3307
   1206  C3'      -29.8640  -13.5780   30.6250 C.3    56  A56         0.1860
   1207  O3'      -31.2300  -13.8890   30.4520 O.3    56  A56        -0.3112
   1208  C2'      -29.2200  -13.1050   29.3420 C.3    56  A56         0.2309
   1209  O2'      -30.0390  -12.1590   28.6890 O.3    56  A56        -0.2156
   1210  C1'      -27.9430  -12.4830   29.8990 C.3    56  A56         0.2408
   1211  N1       -25.0730  -16.0510   27.5740 N.ar   56  A56        -0.2040
   1212  C2       -26.0310  -15.2280   27.1240 C.ar   56  A56         0.2016
   1213  N3       -26.7430  -14.3190   27.7900 N.ar   56  A56        -0.2048
   1214  C4       -26.3870  -14.2940   29.0860 C.ar   56  A56         0.1692
   1215  C5       -25.4290  -15.0820   29.6980 C.ar   56  A56         0.1518
   1216  C6       -24.7410  -16.0000   28.8830 C.ar   56  A56         0.1919
   1217  N6       -23.7920  -16.8230   29.3330 N.pl3  56  A56        -0.1054
   1218  N7       -25.3360  -14.7790   31.0490 N.ar   56  A56        -0.2193
   1219  C8       -26.2290  -13.8350   31.2220 C.ar   56  A56         0.1816
   1220  N9       -26.8900  -13.4820   30.0730 N.ar   56  A56        -0.2693
   1221  OP1      -27.5620  -11.0000   35.5800 O.3    56  A56        -0.4373
   1222  OP2      -27.1670  -13.0280   34.0410 O.co2  56  A56        -0.5172
   1223  P        -31.9060  -14.9670   31.3860 P.3    57  U57         0.2141
   1224  C5'      -32.9610  -15.9700   29.2030 C.3    57  U57         0.1812
   1225  O5'      -32.1640  -16.1730   30.3770 O.3    57  U57        -0.3114
   1226  C4'      -32.2580  -16.4930   27.9790 C.3    57  U57         0.1773
   1227  O4'      -30.8780  -16.0510   27.9430 O.3    57  U57        -0.3307
   1228  C3'      -32.0960  -17.9970   27.8810 C.3    57  U57         0.1860
   1229  O3'      -33.3210  -18.6840   27.6600 O.3    57  U57        -0.3112
   1230  C2'      -31.0700  -18.0980   26.7590 C.3    57  U57         0.2309
   1231  O2'      -31.5450  -17.9000   25.4460 O.3    57  U57        -0.2156
   1232  C1'      -30.1330  -16.9470   27.1240 C.3    57  U57         0.2420
   1233  N1       -28.9750  -17.4410   27.8760 N.ar   57  U57        -0.2534
   1234  C2       -27.9920  -18.0890   27.1550 C.ar   57  U57         0.3546
   1235  O2       -28.0390  -18.2230   25.9460 O.2    57  U57        -0.2443
   1236  N3       -26.9430  -18.5590   27.9030 N.ar   57  U57        -0.1530
   1237  C4       -26.7870  -18.4670   29.2690 C.ar   57  U57         0.2846
   1238  O4       -25.7810  -18.9390   29.7960 O.2    57  U57        -0.2650
   1239  C5       -27.8530  -17.7920   29.9460 C.ar   57  U57         0.0814
   1240  C6       -28.8910  -17.3220   29.2440 C.ar   57  U57         0.0870
   1241  OP1      -33.1650  -14.3640   31.8980 O.2    57  U57        -0.5172
   1242  OP2      -30.8890  -15.4460   32.3490 O.co2  57  U57        -0.4373
   1243  P        -33.5310  -20.1540   28.2640 P.3    58  G58         0.2141
   1244  C5'      -33.3040  -21.0940   25.8650 C.3    58  G58         0.1812
   1245  O5'      -32.8090  -21.0810   27.2030 O.3    58  G58        -0.3114
   1246  C4'      -32.3040  -21.7860   24.9910 C.3    58  G58         0.1773
   1247  O4'      -31.0420  -21.0690   25.0510 O.3    58  G58        -0.3307
   1248  C3'      -31.9450  -23.1890   25.4400 C.3    58  G58         0.1860
   1249  O3'      -32.9660  -24.1240   25.1100 O.3    58  G58        -0.3112
   1250  C2'      -30.5930  -23.3790   24.7710 C.3    58  G58         0.2309
   1251  O2'      -30.6460  -23.7220   23.4040 O.3    58  G58        -0.2156
   1252  C1'      -29.9750  -21.9950   24.9710 C.3    58  G58         0.2408
   1253  N1       -25.7360  -23.4750   27.2810 N.ar   58  G58        -0.1709
   1254  C2       -26.1720  -23.7230   26.0010 C.ar   58  G58         0.2606
   1255  N2       -25.3700  -24.4740   25.2340 N.pl3  58  G58        -0.0859
   1256  N3       -27.3140  -23.2740   25.5110 N.ar   58  G58        -0.1918
   1257  C4       -27.9930  -22.5340   26.4120 C.ar   58  G58         0.1723
   1258  C5       -27.6440  -22.2210   27.7080 C.ar   58  G58         0.1748
   1259  C6       -26.4220  -22.7190   28.2260 C.ar   58  G58         0.3023
   1260  O6       -25.9380  -22.5530   29.3490 O.2    58  G58        -0.2633
   1261  N7       -28.6180  -21.4310   28.3030 N.ar   58  G58        -0.2173
   1262  C8       -29.5270  -21.2880   27.3770 C.ar   58  G58         0.1817
   1263  N9       -29.2040  -21.9260   26.2030 N.ar   58  G58        -0.2693
   1264  OP1      -34.9770  -20.4790   28.1690 O.2    58  G58        -0.5172
   1265  OP2      -32.8110  -20.2420   29.5660 O.co2  58  G58        -0.4373
   1266  P        -33.0930  -25.4760   25.9630 P.3    59  G59         0.2141
   1267  C5'      -31.5180  -26.6340   24.2310 C.3    59  G59         0.1812
   1268  O5'      -31.7480  -26.2450   25.5950 O.3    59  G59        -0.3114
   1269  C4'      -30.1290  -27.1860   24.0620 C.3    59  G59         0.1773
   1270  O4'      -29.1330  -26.2210   24.4930 O.3    59  G59        -0.3307
   1271  C3'      -29.8060  -28.4260   24.8670 C.3    59  G59         0.1860
   1272  O3'      -30.3670  -29.5330   24.1790 O.3    59  G59        -0.3112
   1273  C2'      -28.2860  -28.4030   24.8530 C.3    59  G59         0.2309
   1274  O2'      -27.7400  -28.8580   23.6340 O.3    59  G59        -0.2156
   1275  C1'      -28.0050  -26.9080   25.0160 C.3    59  G59         0.2408
   1276  N1       -25.1640  -27.2870   29.2220 N.ar   59  G59        -0.1709
   1277  C2       -25.0160  -27.9250   28.0140 C.ar   59  G59         0.2606
   1278  N2       -23.9750  -28.7670   27.9140 N.pl3  59  G59        -0.0859
   1279  N3       -25.8230  -27.7450   26.9780 N.ar   59  G59        -0.1918
   1280  C4       -26.8110  -26.8660   27.2550 C.ar   59  G59         0.1723
   1281  C5       -27.0450  -26.1760   28.4270 C.ar   59  G59         0.1748
   1282  C6       -26.1720  -26.3730   29.5260 C.ar   59  G59         0.3023
   1283  O6       -26.2190  -25.8550   30.6500 O.2    59  G59        -0.2633
   1284  N7       -28.1690  -25.3710   28.3080 N.ar   59  G59        -0.2173
   1285  C8       -28.5940  -25.5860   27.0930 C.ar   59  G59         0.1817
   1286  N9       -27.8150  -26.4810   26.3990 N.ar   59  G59        -0.2693
   1287  OP1      -34.2380  -26.2480   25.4270 O.2    59  G59        -0.5172
   1288  OP2      -33.0380  -25.1350   27.4080 O.co2  59  G59        -0.4373
   1289  P        -31.1800  -30.6410   24.9800 P.3    60  C60         0.2141
   1290  C5'      -29.0310  -32.0480   24.4330 C.3    60  C60         0.1812
   1291  O5'      -30.0140  -31.6430   25.4030 O.3    60  C60        -0.3114
   1292  C4'      -27.7720  -32.5260   25.1140 C.3    60  C60         0.1773
   1293  O4'      -27.0230  -31.3910   25.6260 O.3    60  C60        -0.3307
   1294  C3'      -27.9550  -33.3890   26.3490 C.3    60  C60         0.1860
   1295  O3'      -28.2690  -34.7480   26.1590 O.3    60  C60        -0.3112
   1296  C2'      -26.5960  -33.2620   27.0050 C.3    60  C60         0.2309
   1297  O2'      -25.6320  -34.0970   26.3930 O.3    60  C60        -0.2156
   1298  C1'      -26.3580  -31.7650   26.8280 C.3    60  C60         0.2420
   1299  N1       -26.9160  -30.9800   27.9420 N.ar   60  C60        -0.2535
   1300  C2       -26.2250  -30.9650   29.1580 C.ar   60  C60         0.3532
   1301  O2       -25.1690  -31.6090   29.2560 O.2    60  C60        -0.2443
   1302  N3       -26.7160  -30.2400   30.1900 N.ar   60  C60        -0.1739
   1303  C4       -27.8570  -29.5620   30.0440 C.ar   60  C60         0.1759
   1304  N4       -28.3070  -28.8640   31.0880 N.pl3  60  C60        -0.1070
   1305  C5       -28.5850  -29.5680   28.8180 C.ar   60  C60         0.0566
   1306  C6       -28.0900  -30.2920   27.8070 C.ar   60  C60         0.0850
   1307  OP1      -32.0850  -31.3320   24.0220 O.2    60  C60        -0.5172
   1308  OP2      -31.7850  -29.9910   26.1770 O.co2  60  C60        -0.4373
   1309  P        -29.3130  -35.3800   27.1430 P.3    61  G61         0.2141
   1310  C5'      -27.3100  -35.9920   28.7630 C.3    61  G61         0.1812
   1311  O5'      -28.5540  -35.2920   28.5430 O.3    61  G61        -0.3114
   1312  C4'      -26.8360  -35.8220   30.1890 C.3    61  G61         0.1773
   1313  O4'      -26.5490  -34.4260   30.4800 O.3    61  G61        -0.3307
   1314  C3'      -27.8290  -36.1680   31.2840 C.3    61  G61         0.1860
   1315  O3'      -28.0640  -37.5580   31.4740 O.3    61  G61        -0.3112
   1316  C2'      -27.1680  -35.5200   32.4920 C.3    61  G61         0.2309
   1317  O2'      -26.1230  -36.2830   33.0570 O.3    61  G61        -0.2156
   1318  C1'      -26.6680  -34.2090   31.8820 C.3    61  G61         0.2408
   1319  N1       -28.1620  -30.5570   35.0570 N.ar   61  G61        -0.1709
   1320  C2       -27.0730  -31.3880   35.1370 C.ar   61  G61         0.2606
   1321  N2       -26.2800  -31.2290   36.2120 N.pl3  61  G61        -0.0859
   1322  N3       -26.7770  -32.3040   34.2290 N.ar   61  G61        -0.1918
   1323  C4       -27.6740  -32.3240   33.2210 C.ar   61  G61         0.1723
   1324  C5       -28.7870  -31.5330   33.0460 C.ar   61  G61         0.1748
   1325  C6       -29.0930  -30.5570   34.0250 C.ar   61  G61         0.3023
   1326  O6       -30.0440  -29.7710   34.0570 O.2    61  G61        -0.2633
   1327  N7       -29.4530  -31.8720   31.8770 N.ar   61  G61        -0.2173
   1328  C8       -28.7420  -32.8420   31.3700 C.ar   61  G61         0.1817
   1329  N9       -27.6350  -33.1460   32.1220 N.ar   61  G61        -0.2693
   1330  OP1      -29.5250  -36.7980   26.7260 O.2    61  G61        -0.5172
   1331  OP2      -30.4760  -34.4410   27.2420 O.co2  61  G61        -0.4373
   1332  P        -29.5220  -38.0560   31.9050 P.3    62  A62         0.2141
   1333  C5'      -30.7310  -37.6090   34.2300 C.3    62  A62         0.1812
   1334  O5'      -29.5210  -37.8920   33.4900 O.3    62  A62        -0.3114
   1335  C4'      -30.4680  -37.8920   35.6820 C.3    62  A62         0.1773
   1336  O4'      -29.6830  -39.0990   35.7500 O.3    62  A62        -0.3307
   1337  C3'      -29.5950  -36.8450   36.3650 C.3    62  A62         0.1860
   1338  O3'      -30.4250  -35.8070   36.8890 O.3    62  A62        -0.3112
   1339  C2'      -28.7640  -37.6400   37.3870 C.3    62  A62         0.2309
   1340  O2'      -29.2050  -37.5000   38.7210 O.3    62  A62        -0.2156
   1341  C1'      -28.9260  -39.0960   36.9360 C.3    62  A62         0.2408
   1342  N1       -26.6140  -43.6780   37.2130 N.ar   62  A62        -0.2040
   1343  C2       -27.8390  -43.2610   37.5630 C.ar   62  A62         0.2016
   1344  N3       -28.3740  -42.0450   37.4680 N.ar   62  A62        -0.2048
   1345  C4       -27.4930  -41.1770   36.9350 C.ar   62  A62         0.1692
   1346  C5       -26.1980  -41.4550   36.5270 C.ar   62  A62         0.1518
   1347  C6       -25.7510  -42.7840   36.6820 C.ar   62  A62         0.1919
   1348  N6       -24.5320  -43.2050   36.3350 N.pl3  62  A62        -0.1054
   1349  N7       -25.5870  -40.3130   36.0270 N.ar   62  A62        -0.2193
   1350  C8       -26.5130  -39.3890   36.1280 C.ar   62  A62         0.1816
   1351  N9       -27.6860  -39.8380   36.6860 N.ar   62  A62        -0.2693
   1352  OP1      -29.6340  -39.4960   31.5330 O.3    62  A62        -0.4373
   1353  OP2      -30.5130  -37.0520   31.4200 O.co2  62  A62        -0.5172
   1354  P        -30.3570  -34.3280   36.2480 P.3    63  A63         0.2141
   1355  C5'      -29.5520  -33.3130   38.5440 C.3    63  A63         0.1812
   1356  O5'      -29.2870  -33.5730   37.1530 O.3    63  A63        -0.3114
   1357  C4'      -28.4960  -33.9750   39.3900 C.3    63  A63         0.1773
   1358  O4'      -28.0540  -35.2010   38.7580 O.3    63  A63        -0.3307
   1359  C3'      -27.2160  -33.1790   39.5240 C.3    63  A63         0.1860
   1360  O3'      -27.4570  -32.1570   40.4640 O.3    63  A63        -0.3112
   1361  C2'      -26.2020  -34.2500   39.9010 C.3    63  A63         0.2309
   1362  O2'      -26.2010  -34.6050   41.2620 O.3    63  A63        -0.2156
   1363  C1'      -26.7040  -35.4530   39.1020 C.3    63  A63         0.2408
   1364  N1       -23.1160  -38.3630   36.8560 N.ar   63  A63        -0.2040
   1365  C2       -23.6210  -38.3530   38.0950 C.ar   63  A63         0.2016
   1366  N3       -24.5540  -37.5590   38.6180 N.ar   63  A63        -0.2048
   1367  C4       -24.9950  -36.6810   37.7030 C.ar   63  A63         0.1692
   1368  C5       -24.5720  -36.5670   36.3910 C.ar   63  A63         0.1518
   1369  C6       -23.5810  -37.4660   35.9600 C.ar   63  A63         0.1919
   1370  N6       -23.0780  -37.4790   34.7260 N.pl3  63  A63        -0.1054
   1371  N7       -25.2600  -35.5540   35.7400 N.ar   63  A63        -0.2193
   1372  C8       -26.0740  -35.0870   36.6570 C.ar   63  A63         0.1816
   1373  N9       -25.9580  -35.7160   37.8720 N.ar   63  A63        -0.2693
   1374  OP1      -31.6480  -33.6320   36.5030 O.3    63  A63        -0.4373
   1375  OP2      -29.8240  -34.4430   34.8650 O.co2  63  A63        -0.5172
   1376  P        -26.7910  -30.7320   40.2150 P.3    64  A64         0.2141
   1377  C5'      -24.5010  -30.8560   41.4670 C.3    64  A64         0.1812
   1378  O5'      -25.2380  -31.0780   40.2610 O.3    64  A64        -0.3114
   1379  C4'      -23.1950  -31.6020   41.4180 C.3    64  A64         0.1773
   1380  O4'      -23.3780  -32.8780   40.7470 O.3    64  A64        -0.3307
   1381  C3'      -22.0660  -30.9390   40.6340 C.3    64  A64         0.1860
   1382  O3'      -21.3500  -29.9450   41.3490 O.3    64  A64        -0.3112
   1383  C2'      -21.1610  -32.1270   40.3750 C.3    64  A64         0.2309
   1384  O2'      -20.3870  -32.3740   41.5310 O.3    64  A64        -0.2156
   1385  C1'      -22.1930  -33.2060   40.0350 C.3    64  A64         0.2408
   1386  N1       -21.2510  -35.4850   35.5190 N.ar   64  A64        -0.2040
   1387  C2       -20.7860  -35.7130   36.7520 C.ar   64  A64         0.2016
   1388  N3       -21.0720  -35.0820   37.8900 N.ar   64  A64        -0.2048
   1389  C4       -21.9610  -34.0960   37.6750 C.ar   64  A64         0.1692
   1390  C5       -22.5360  -33.7490   36.4660 C.ar   64  A64         0.1518
   1391  C6       -22.1460  -34.4890   35.3410 C.ar   64  A64         0.1919
   1392  N6       -22.6140  -34.2620   34.1140 N.pl3  64  A64        -0.1054
   1393  N7       -23.4170  -32.6900   36.6260 N.ar   64  A64        -0.2193
   1394  C8       -23.3620  -32.4260   37.9090 C.ar   64  A64         0.1816
   1395  N9       -22.5040  -33.2430   38.6050 N.ar   64  A64        -0.2693
   1396  OP1      -27.0990  -29.8440   41.3700 O.3    64  A64        -0.4373
   1397  OP2      -27.1540  -30.2900   38.8390 O.co2  64  A64        -0.5172
   1398  P        -21.2550  -28.4580   40.7600 P.3    65  G65         0.2141
   1399  C5'      -19.3480  -29.3520   39.2080 C.3    65  G65         0.1812
   1400  O5'      -20.6140  -28.6930   39.3240 O.3    65  G65        -0.3114
   1401  C4'      -19.1680  -29.8890   37.8120 C.3    65  G65         0.1773
   1402  O4'      -20.3070  -30.7130   37.4310 O.3    65  G65        -0.3307
   1403  C3'      -19.1010  -28.8510   36.7070 C.3    65  G65         0.1860
   1404  O3'      -17.8410  -28.1950   36.6150 O.3    65  G65        -0.3112
   1405  C2'      -19.4300  -29.7130   35.5040 C.3    65  G65         0.2309
   1406  O2'      -18.3260  -30.5190   35.1540 O.3    65  G65        -0.2156
   1407  C1'      -20.5940  -30.5240   36.0590 C.3    65  G65         0.2408
   1408  N1       -24.8320  -29.7650   33.3650 N.ar   65  G65        -0.1709
   1409  C2       -23.7860  -30.6190   33.1180 C.ar   65  G65         0.2606
   1410  N2       -23.8790  -31.3600   32.0070 N.pl3  65  G65        -0.0859
   1411  N3       -22.7230  -30.7330   33.8980 N.ar   65  G65        -0.1918
   1412  C4       -22.7970  -29.9170   34.9710 C.ar   65  G65         0.1723
   1413  C5       -23.8000  -29.0340   35.3130 C.ar   65  G65         0.1748
   1414  C6       -24.9290  -28.9160   34.4630 C.ar   65  G65         0.3023
   1415  O6       -25.9170  -28.1840   34.5910 O.2    65  G65        -0.2633
   1416  N7       -23.4940  -28.3760   36.4960 N.ar   65  G65        -0.2173
   1417  C8       -22.3310  -28.8570   36.8430 C.ar   65  G65         0.1817
   1418  N9       -21.8550  -29.8010   35.9650 N.ar   65  G65        -0.2693
   1419  OP1      -20.3000  -27.6870   41.6120 O.3    65  G65        -0.4373
   1420  OP2      -22.6380  -27.9470   40.5460 O.co2  65  G65        -0.5172
   1421  P        -17.5360  -27.2870   35.3560 P.3    66  C66         0.2141
   1422  C5'      -16.8980  -27.9230   32.9120 C.3    66  C66         0.1812
   1423  O5'      -17.1210  -28.3570   34.2580 O.3    66  C66        -0.3114
   1424  C4'      -17.4140  -28.9430   31.9280 C.3    66  C66         0.1773
   1425  O4'      -18.5750  -29.6230   32.4750 O.3    66  C66        -0.3307
   1426  C3'      -17.9110  -28.4030   30.5960 C.3    66  C66         0.1860
   1427  O3'      -16.8690  -28.0660   29.6970 O.3    66  C66        -0.3112
   1428  C2'      -18.7940  -29.5470   30.1440 C.3    66  C66         0.2309
   1429  O2'      -18.0840  -30.7110   29.7950 O.3    66  C66        -0.2156
   1430  C1'      -19.5260  -29.8440   31.4450 C.3    66  C66         0.2420
   1431  N1       -20.6550  -28.9330   31.6540 N.ar   66  C66        -0.2535
   1432  C2       -21.8400  -29.1700   30.9560 C.ar   66  C66         0.3532
   1433  O2       -21.9000  -30.1470   30.1940 O.2    66  C66        -0.2443
   1434  N3       -22.8860  -28.3260   31.1230 N.ar   66  C66        -0.1739
   1435  C4       -22.7700  -27.2760   31.9420 C.ar   66  C66         0.1759
   1436  N4       -23.8220  -26.4670   32.0800 N.pl3  66  C66        -0.1070
   1437  C5       -21.5670  -27.0060   32.6560 C.ar   66  C66         0.0566
   1438  C6       -20.5400  -27.8440   32.4740 C.ar   66  C66         0.0850
   1439  OP1      -16.3860  -26.4170   35.6910 O.3    66  C66        -0.4373
   1440  OP2      -18.8120  -26.6710   34.9160 O.co2  66  C66        -0.5172
   1441  P        -16.7700  -26.5740   29.1100 P.3    67  C67         0.2141
   1442  C5'      -17.8630  -27.5710   26.9410 C.3    67  C67         0.1812
   1443  O5'      -17.8930  -26.5640   27.9770 O.3    67  C67        -0.3114
   1444  C4'      -19.0180  -27.4090   25.9850 C.3    67  C67         0.1773
   1445  O4'      -20.2490  -27.7900   26.6520 O.3    67  C67        -0.3307
   1446  C3'      -19.2690  -25.9990   25.4710 C.3    67  C67         0.1860
   1447  O3'      -18.4360  -25.7350   24.3520 O.3    67  C67        -0.3112
   1448  C2'      -20.7550  -26.0430   25.1270 C.3    67  C67         0.2309
   1449  O2'      -21.0940  -26.5770   23.8610 O.3    67  C67        -0.2156
   1450  C1'      -21.2950  -26.9210   26.2560 C.3    67  C67         0.2420
   1451  N1       -21.7110  -26.1290   27.4190 N.ar   67  C67        -0.2535
   1452  C2       -22.9480  -25.4850   27.3680 C.ar   67  C67         0.3532
   1453  O2       -23.6520  -25.6270   26.3600 O.2    67  C67        -0.2443
   1454  N3       -23.3470  -24.7300   28.4180 N.ar   67  C67        -0.1739
   1455  C4       -22.5540  -24.6020   29.4850 C.ar   67  C67         0.1759
   1456  N4       -22.9870  -23.8500   30.4990 N.pl3  67  C67        -0.1070
   1457  C5       -21.2820  -25.2420   29.5590 C.ar   67  C67         0.0566
   1458  C6       -20.8990  -25.9800   28.5090 C.ar   67  C67         0.0850
   1459  OP1      -15.4650  -26.4670   28.4110 O.2    67  C67        -0.5172
   1460  OP2      -17.0810  -25.6060   30.2020 O.co2  67  C67        -0.4373
   1461  P        -17.8860  -24.2610   24.0760 P.3    68  A68         0.2141
   1462  C5'      -19.3980  -24.0510   21.9410 C.3    68  A68         0.1812
   1463  O5'      -19.0700  -23.5910   23.2590 O.3    68  A68        -0.3114
   1464  C4'      -20.6710  -23.3880   21.4900 C.3    68  A68         0.1773
   1465  O4'      -21.7450  -23.7820   22.3880 O.3    68  A68        -0.3307
   1466  C3'      -20.6760  -21.8650   21.5520 C.3    68  A68         0.1860
   1467  O3'      -20.0270  -21.2790   20.4290 O.3    68  A68        -0.3112
   1468  C2'      -22.1650  -21.5730   21.6580 C.3    68  A68         0.2309
   1469  O2'      -22.8940  -21.6780   20.4490 O.3    68  A68        -0.2156
   1470  C1'      -22.6040  -22.6760   22.6180 C.3    68  A68         0.2408
   1471  N1       -25.0030  -20.5060   26.6030 N.ar   68  A68        -0.2040
   1472  C2       -25.3870  -20.7500   25.3440 C.ar   68  A68         0.2016
   1473  N3       -24.7110  -21.3320   24.3550 N.ar   68  A68        -0.2048
   1474  C4       -23.4800  -21.6830   24.7650 C.ar   68  A68         0.1692
   1475  C5       -22.9400  -21.4940   26.0240 C.ar   68  A68         0.1518
   1476  C6       -23.7610  -20.8770   26.9830 C.ar   68  A68         0.1919
   1477  N6       -23.3800  -20.6400   28.2400 N.pl3  68  A68        -0.1054
   1478  N7       -21.6420  -21.9830   26.0800 N.ar   68  A68        -0.2193
   1479  C8       -21.4250  -22.4380   24.8700 C.ar   68  A68         0.1816
   1480  N9       -22.4970  -22.2900   24.0220 N.ar   68  A68        -0.2693
   1481  OP1      -16.7200  -24.3800   23.1650 O.2    68  A68        -0.5172
   1482  OP2      -17.7630  -23.5350   25.3660 O.co2  68  A68        -0.4373
   1483  P        -19.1060  -19.9700   20.6210 P.3    69  U69         0.2141
   1484  C5'      -21.1330  -18.8830   19.2970 C.3    69  U69         0.1812
   1485  O5'      -20.0880  -18.7610   20.2780 O.3    69  U69        -0.3114
   1486  C4'      -22.2900  -17.9880   19.6650 C.3    69  U69         0.1773
   1487  O4'      -23.0340  -18.5410   20.7790 O.3    69  U69        -0.3307
   1488  C3'      -21.9040  -16.6110   20.1660 C.3    69  U69         0.1860
   1489  O3'      -21.4900  -15.7960   19.0820 O.3    69  U69        -0.3112
   1490  C2'      -23.1680  -16.1660   20.8980 C.3    69  U69         0.2309
   1491  O2'      -24.1960  -15.5560   20.1430 O.3    69  U69        -0.2156
   1492  C1'      -23.6530  -17.4880   21.4960 C.3    69  U69         0.2420
   1493  N1       -23.2990  -17.6090   22.9150 N.ar   69  U69        -0.2534
   1494  C2       -24.1130  -16.9570   23.8190 C.ar   69  U69         0.3546
   1495  O2       -25.0930  -16.3150   23.4830 O.2    69  U69        -0.2443
   1496  N3       -23.7400  -17.0890   25.1330 N.ar   69  U69        -0.1530
   1497  C4       -22.6580  -17.7870   25.6260 C.ar   69  U69         0.2846
   1498  O4       -22.4560  -17.8100   26.8410 O.2    69  U69        -0.2650
   1499  C5       -21.8520  -18.4210   24.6260 C.ar   69  U69         0.0814
   1500  C6       -22.1830  -18.3000   23.3350 C.ar   69  U69         0.0870
   1501  OP1      -18.0360  -20.0100   19.5940 O.2    69  U69        -0.5172
   1502  OP2      -18.7380  -19.8620   22.0600 O.co2  69  U69        -0.4373
   1503  P        -20.4590  -14.6160   19.3410 P.3    70  G70         0.2141
   1504  C5'      -21.1890  -12.2580   20.1040 C.3    70  G70         0.1812
   1505  O5'      -21.2610  -13.6600   20.3170 O.3    70  G70        -0.3114
   1506  C4'      -22.5660  -11.6680   20.1440 C.3    70  G70         0.1773
   1507  O4'      -23.2940  -12.2140   21.2740 O.3    70  G70        -0.3307
   1508  C3'      -22.5480  -10.1660   20.3510 C.3    70  G70         0.1860
   1509  O3'      -22.4780   -9.5890   19.0540 O.3    70  G70        -0.3112
   1510  C2'      -23.8260   -9.9320   21.1330 C.3    70  G70         0.2309
   1511  O2'      -24.9590   -9.9600   20.3000 O.3    70  G70        -0.2156
   1512  C1'      -23.8440  -11.1570   22.0430 C.3    70  G70         0.2408
   1513  N1       -23.2620   -8.4500   26.3060 N.ar   70  G70        -0.1709
   1514  C2       -24.1300   -8.2600   25.2590 C.ar   70  G70         0.2606
   1515  N2       -24.9530   -7.2070   25.3590 N.pl3  70  G70        -0.0859
   1516  N3       -24.1880   -9.0430   24.1940 N.ar   70  G70        -0.1918
   1517  C4       -23.2950  -10.0520   24.2580 C.ar   70  G70         0.1723
   1518  C5       -22.3850  -10.3330   25.2560 C.ar   70  G70         0.1748
   1519  C6       -22.3330   -9.4820   26.3960 C.ar   70  G70         0.3023
   1520  O6       -21.6030   -9.5670   27.3920 O.2    70  G70        -0.2633
   1521  N7       -21.6430  -11.4630   24.9410 N.ar   70  G70        -0.2173
   1522  C8       -22.0990  -11.8370   23.7760 C.ar   70  G70         0.1817
   1523  N9       -23.0930  -11.0160   23.2970 N.ar   70  G70        -0.2693
   1524  OP1      -20.2690  -13.8960   18.0610 O.2    70  G70        -0.5172
   1525  OP2      -19.2840  -15.1550   20.0780 O.co2  70  G70        -0.4373
   1526  P        -21.3660   -8.4950   18.7050 P.3    71  A71         0.2141
   1527  C5'      -23.2450   -6.8890   19.3710 C.3    71  A71         0.1812
   1528  O5'      -21.8780   -7.2400   19.5230 O.3    71  A71        -0.3114
   1529  C4'      -23.5840   -5.7970   20.3310 C.3    71  A71         0.1773
   1530  O4'      -23.8230   -6.3680   21.6440 O.3    71  A71        -0.3307
   1531  C3'      -22.4970   -4.7590   20.5680 C.3    71  A71         0.1860
   1532  O3'      -22.4810   -3.8020   19.5110 O.3    71  A71        -0.3112
   1533  C2'      -22.9450   -4.2040   21.9010 C.3    71  A71         0.2309
   1534  O2'      -24.0850   -3.4050   21.6620 O.3    71  A71        -0.2156
   1535  C1'      -23.3180   -5.4940   22.6340 C.3    71  A71         0.2408
   1536  N1       -20.3030   -5.6140   26.7970 N.ar   71  A71        -0.2040
   1537  C2       -21.2730   -4.7770   26.4150 C.ar   71  A71         0.2016
   1538  N3       -22.0200   -4.8020   25.3150 N.ar   71  A71        -0.2048
   1539  C4       -21.6830   -5.8440   24.5360 C.ar   71  A71         0.1692
   1540  C5       -20.7080   -6.7880   24.7930 C.ar   71  A71         0.1518
   1541  C6       -19.9910   -6.6540   25.9950 C.ar   71  A71         0.1919
   1542  N6       -19.0120   -7.4820   26.3730 N.pl3  71  A71        -0.1054
   1543  N7       -20.6370   -7.7130   23.7610 N.ar   71  A71        -0.2193
   1544  C8       -21.5560   -7.3120   22.9160 C.ar   71  A71         0.1816
   1545  N9       -22.2170   -6.1760   23.3150 N.ar   71  A71        -0.2693
   1546  OP1      -21.4860   -8.2050   17.2480 O.2    71  A71        -0.5172
   1547  OP2      -20.0650   -8.9250   19.2930 O.co2  71  A71        -0.4373
   1548  P        -21.0760   -3.1580   19.0140 P.3    72  C72         0.2141
   1549  C5'      -21.8140   -0.9450   20.2560 C.3    72  C72         0.1812
   1550  O5'      -20.8300   -1.9820   20.0660 O.3    72  C72        -0.3114
   1551  C4'      -21.6220   -0.2440   21.5840 C.3    72  C72         0.1773
   1552  O4'      -21.8790   -1.1560   22.6920 O.3    72  C72        -0.3307
   1553  C3'      -20.2270    0.2950   21.8800 C.3    72  C72         0.1860
   1554  O3'      -19.8560    1.4880   21.1790 O.3    72  C72        -0.3112
   1555  C2'      -20.2940    0.4640   23.3960 C.3    72  C72         0.2309
   1556  O2'      -20.9670    1.6350   23.8450 O.3    72  C72        -0.2156
   1557  C1'      -21.0380   -0.8150   23.7870 C.3    72  C72         0.2420
   1558  N1       -20.1380   -1.9480   24.0460 N.ar   72  C72        -0.2535
   1559  C2       -19.4970   -2.0400   25.2890 C.ar   72  C72         0.3532
   1560  O2       -19.7000   -1.1600   26.1410 O.2    72  C72        -0.2443
   1561  N3       -18.6790   -3.0900   25.5330 N.ar   72  C72        -0.1739
   1562  C4       -18.4810   -4.0130   24.5920 C.ar   72  C72         0.1759
   1563  N4       -17.6580   -5.0240   24.8720 N.pl3  72  C72        -0.1070
   1564  C5       -19.1180   -3.9420   23.3200 C.ar   72  C72         0.0566
   1565  C6       -19.9250   -2.9000   23.0890 C.ar   72  C72         0.0850
   1566  OP1      -21.2990   -2.5530   17.6760 O.2    72  C72        -0.5172
   1567  OP2      -19.9960   -4.1680   19.1820 O.co2  72  C72        -0.4373
   1568  P        -18.3070    1.8150   20.9660 P.3    73  C73         0.2141
   1569  C5'      -16.5520    2.7660   22.6420 C.3    73  C73         0.1812
   1570  O5'      -17.9250    2.6100   22.2820 O.3    73  C73        -0.3114
   1571  C4'      -16.4040    2.5790   24.1300 C.3    73  C73         0.1773
   1572  O4'      -16.9550    1.3000   24.5370 O.3    73  C73        -0.3307
   1573  C3'      -14.9830    2.5270   24.6530 C.3    73  C73         0.1860
   1574  O3'      -14.4660    3.8460   24.6860 O.3    73  C73        -0.3112
   1575  C2'      -15.1900    1.8860   26.0130 C.3    73  C73         0.2309
   1576  O2'      -15.6630    2.8180   26.9660 O.3    73  C73        -0.2156
   1577  C1'      -16.2780    0.8550   25.6970 C.3    73  C73         0.2420
   1578  N1       -15.7900   -0.5040   25.4530 N.ar   73  C73        -0.2535
   1579  C2       -14.9690   -1.0970   26.4120 C.ar   73  C73         0.3532
   1580  O2       -14.6600   -0.4450   27.4170 O.2    73  C73        -0.2443
   1581  N3       -14.5350   -2.3650   26.2210 N.ar   73  C73        -0.1739
   1582  C4       -14.9090   -3.0390   25.1340 C.ar   73  C73         0.1759
   1583  N4       -14.4620   -4.2860   24.9900 N.pl3  73  C73        -0.1070
   1584  C5       -15.7600   -2.4620   24.1450 C.ar   73  C73         0.0566
   1585  C6       -16.1800   -1.2070   24.3480 C.ar   73  C73         0.0850
   1586  OP1      -18.1620    2.8590   19.9270 O.2    73  C73        -0.5172
   1587  OP2      -17.5540    0.5270   20.8970 O.co2  73  C73        -0.4373
   1588  P        -13.5270    4.3390   23.4990 P.3    74  A74         0.2141
   1589  C5'      -11.6990    4.5290   25.3620 C.3    74  A74         0.1812
   1590  O5'      -12.0730    4.0500   24.0730 O.3    74  A74        -0.3114
   1591  C4'      -10.8570    3.4890   26.0340 C.3    74  A74         0.1773
   1592  O4'      -11.4530    2.2070   25.7940 O.3    74  A74        -0.3307
   1593  C3'       -9.4190    3.3590   25.5160 C.3    74  A74         0.1860
   1594  O3'       -8.5110    4.0270   26.3990 O.3    74  A74        -0.3112
   1595  C2'       -9.2160    1.8470   25.2880 C.3    74  A74         0.2309
   1596  O2'       -7.9990    1.2880   25.7560 O.3    74  A74        -0.2156
   1597  C1'      -10.4520    1.2350   25.9530 C.3    74  A74         0.2408
   1598  N1       -10.1860   -3.9070   26.0230 N.ar   74  A74        -0.2040
   1599  C2        -9.5730   -2.9670   26.7520 C.ar   74  A74         0.2016
   1600  N3        -9.6890   -1.6400   26.6860 N.ar   74  A74        -0.2048
   1601  C4       -10.5670   -1.2870   25.7320 C.ar   74  A74         0.1692
   1602  C5       -11.2770   -2.1370   24.9060 C.ar   74  A74         0.1518
   1603  C6       -11.0630   -3.5150   25.0720 C.ar   74  A74         0.1919
   1604  N6       -11.6770   -4.4480   24.3460 N.pl3  74  A74        -0.1054
   1605  N7       -12.0860   -1.4180   24.0380 N.ar   74  A74        -0.2193
   1606  C8       -11.8450   -0.1680   24.3470 C.ar   74  A74         0.1816
   1607  N9       -10.9240   -0.0160   25.3560 N.ar   74  A74        -0.2693
   1608  OP1      -13.7800    5.7840   23.2600 O.3    74  A74        -0.4373
   1609  OP2      -13.6530    3.3730   22.3800 O.co2  74  A74        -0.5172
   1610  P         -8.1490    5.5930   26.1450 P.3    75  A75         0.2141
   1611  C5'       -5.8400    5.8940   27.3630 C.3    75  A75         0.1812
   1612  O5'       -7.2730    5.9590   27.4210 O.3    75  A75        -0.3114
   1613  C4'       -5.3420    4.7100   28.1540 C.3    75  A75         0.1773
   1614  O4'       -5.1610    3.5770   27.2610 O.3    75  A75        -0.3307
   1615  C3'       -4.0170    4.9520   28.8800 C.3    75  A75         0.1860
   1616  O3'       -4.1580    4.7180   30.2780 O.3    75  A75        -0.3112
   1617  C2'       -2.9850    4.1390   28.0870 C.3    75  A75         0.2309
   1618  O2'       -1.9630    3.5720   28.8820 O.3    75  A75        -0.2156
   1619  C1'       -3.8370    3.0890   27.3630 C.3    75  A75         0.2408
   1620  N1        -0.6810    0.1920   24.5020 N.ar   75  A75        -0.2040
   1621  C2        -0.9410    0.2110   25.8170 C.ar   75  A75         0.2016
   1622  N3        -1.7780    0.9930   26.5000 N.ar   75  A75        -0.2048
   1623  C4        -2.4080    1.8500   25.6760 C.ar   75  A75         0.1692
   1624  C5        -2.2470    1.9510   24.3050 C.ar   75  A75         0.1518
   1625  C6        -1.3300    1.0680   23.7020 C.ar   75  A75         0.1919
   1626  N6        -1.0700    1.0500   22.3930 N.pl3  75  A75        -0.1054
   1627  N7        -3.0630    2.9490   23.7880 N.ar   75  A75        -0.2193
   1628  C8        -3.6870    3.4230   24.8400 C.ar   75  A75         0.1816
   1629  N9        -3.3440    2.7990   26.0150 N.ar   75  A75        -0.2693
   1630  OP1       -9.3870    6.4140   26.2520 O.3    75  A75        -0.4373
   1631  OP2       -7.3190    5.6790   24.9140 O.co2  75  A75        -0.5172
   1632  P         -3.8100    3.2920   30.9210 P.3    76  G76         0.2141
   1633  C5'       -1.4180    2.2450   31.2050 C.3    76  G76         0.1812
   1634  O5'       -2.2580    3.4030   31.2530 O.3    76  G76        -0.3114
   1635  C4'       -1.8880    1.2140   32.1990 C.3    76  G76         0.1773
   1636  O4'       -3.3450    1.1310   32.2280 O.3    76  G76        -0.3307
   1637  C3'       -1.4320   -0.1850   31.8510 C.3    76  G76         0.1860
   1638  O3'       -0.0810   -0.3960   32.2080 O.3    76  G76        -0.3112
   1639  C2'       -2.4880   -1.0590   32.5270 C.3    76  G76         0.2309
   1640  O2'       -2.3540   -1.3360   33.9030 O.3    76  G76        -0.2156
   1641  C1'       -3.7550   -0.2320   32.2990 C.3    76  G76         0.2408
   1642  N1        -5.9890   -3.9200   29.5720 N.ar   76  G76        -0.1709
   1643  C2        -5.3700   -4.0000   30.7970 C.ar   76  G76         0.2606
   1644  N2        -5.3400   -5.2140   31.3670 N.pl3  76  G76        -0.0859
   1645  N3        -4.8170   -2.9660   31.4160 N.ar   76  G76        -0.1918
   1646  C4        -4.9410   -1.8260   30.7020 C.ar   76  G76         0.1723
   1647  C5        -5.5440   -1.6410   29.4760 C.ar   76  G76         0.1748
   1648  C6        -6.1330   -2.7550   28.8230 C.ar   76  G76         0.3023
   1649  O6        -6.7140   -2.7900   27.7290 O.2    76  G76        -0.2633
   1650  N7        -5.4510   -0.3160   29.0770 N.ar   76  G76        -0.2173
   1651  C8        -4.8190    0.2730   30.0540 C.ar   76  G76         0.1817
   1652  N9        -4.4750   -0.5830   31.0710 N.ar   76  G76        -0.2693
   1653  OP1       -3.7150    2.3010   29.8450 O.2    76  G76        -0.5172
   1654  OP2       -4.7340    3.0560   32.0770 O.co2  76  G76        -0.4373
   1655  P          0.7560   -1.4250   31.3580 P.3    77  G77         0.2141
   1656  C5'        0.1940   -3.4120   32.9200 C.3    77  G77         0.1812
   1657  O5'        0.0110   -2.7910   31.6450 O.3    77  G77        -0.3114
   1658  C4'        0.6850   -4.8260   32.7420 C.3    77  G77         0.1773
   1659  O4'       -0.4680   -5.7200   32.7250 O.3    77  G77        -0.3307
   1660  C3'        1.4470   -5.1280   31.4560 C.3    77  G77         0.1860
   1661  O3'        2.8590   -4.9730   31.5730 O.3    77  G77        -0.3112
   1662  C2'        1.0660   -6.5800   31.2300 C.3    77  G77         0.2309
   1663  O2'        1.7450   -7.4230   32.1380 O.3    77  G77        -0.2156
   1664  C1'       -0.4150   -6.5320   31.5800 C.3    77  G77         0.2408
   1665  N1        -3.3550   -7.4510   27.5780 N.ar   77  G77        -0.1709
   1666  C2        -2.6630   -8.3270   28.3790 C.ar   77  G77         0.2606
   1667  N2        -2.7720   -9.6280   28.0730 N.pl3  77  G77        -0.0859
   1668  N3        -1.9200   -7.9560   29.4070 N.ar   77  G77        -0.1918
   1669  C4        -1.9250   -6.6180   29.5730 C.ar   77  G77         0.1723
   1670  C5        -2.5800   -5.6590   28.8300 C.ar   77  G77         0.1748
   1671  C6        -3.3730   -6.0700   27.7340 C.ar   77  G77         0.3023
   1672  O6        -4.0280   -5.3710   26.9570 O.2    77  G77        -0.2633
   1673  N7        -2.3230   -4.3890   29.3280 N.ar   77  G77        -0.2173
   1674  C8        -1.5290   -4.5960   30.3430 C.ar   77  G77         0.1817
   1675  N9        -1.2510   -5.9280   30.5480 N.ar   77  G77        -0.2693
   1676  OP1        2.1000   -1.6140   31.9710 O.3    77  G77        -0.4373
   1677  OP2        0.6170   -1.0410   29.9370 O.co2  77  G77        -0.5172
   1678  P          3.7810   -5.0150   30.2610 P.3    78  U78         0.2141
   1679  C5'        3.1740   -5.8190   27.7970 C.3    78  U78         0.1812
   1680  O5'        2.7470   -5.4350   29.1210 O.3    78  U78        -0.3114
   1681  C4'        2.7620   -7.2430   27.4940 C.3    78  U78         0.1773
   1682  O4'        1.3550   -7.4440   27.8120 O.3    78  U78        -0.3307
   1683  C3'        2.8470   -7.6370   26.0310 C.3    78  U78         0.1860
   1684  O3'        4.1490   -7.9040   25.5420 O.3    78  U78        -0.3112
   1685  C2'        1.9100   -8.8260   25.9900 C.3    78  U78         0.2309
   1686  O2'        2.4770  -10.0100   26.5110 O.3    78  U78        -0.2156
   1687  C1'        0.7620   -8.2830   26.8320 C.3    78  U78         0.2420
   1688  N1        -0.1340   -7.4700   26.0040 N.ar   78  U78        -0.2534
   1689  C2        -0.9700   -8.1240   25.1180 C.ar   78  U78         0.3546
   1690  O2        -1.0200   -9.3430   25.0210 O.2    78  U78        -0.2443
   1691  N3        -1.7580   -7.2970   24.3590 N.ar   78  U78        -0.1530
   1692  C4        -1.8010   -5.9230   24.3950 C.ar   78  U78         0.2846
   1693  O4        -2.5780   -5.3230   23.6570 O.2    78  U78        -0.2650
   1694  C5        -0.8980   -5.3270   25.3210 C.ar   78  U78         0.0814
   1695  C6        -0.1010   -6.1010   26.0630 C.ar   78  U78         0.0870
   1696  OP1        4.8070   -6.0850   30.4470 O.3    78  U78        -0.4373
   1697  OP2        4.1470   -3.6080   29.9180 O.co2  78  U78        -0.5172
   1698  P          4.5830   -7.2040   24.2030 P.3    79  G79         0.2141
   1699  C5'        3.1670   -8.9050   22.8460 C.3    79  G79         0.1812
   1700  O5'        3.3700   -7.5420   23.2320 O.3    79  G79        -0.3114
   1701  C4'        2.0390   -9.0240   21.8510 C.3    79  G79         0.1773
   1702  O4'        0.8450   -8.3250   22.2930 O.3    79  G79        -0.3307
   1703  C3'        2.3030   -8.4250   20.4920 C.3    79  G79         0.1860
   1704  O3'        3.0340   -9.3730   19.7760 O.3    79  G79        -0.3112
   1705  C2'        0.9010   -8.3360   19.9370 C.3    79  G79         0.2309
   1706  O2'        0.5060   -9.6430   19.5680 O.3    79  G79        -0.2156
   1707  C1'        0.1390   -7.8410   21.1630 C.3    79  G79         0.2408
   1708  N1        -2.0030   -3.5210   19.5400 N.ar   79  G79        -0.1709
   1709  C2        -2.1040   -4.7820   19.0160 C.ar   79  G79         0.2606
   1710  N2        -2.8850   -4.9090   17.9360 N.pl3  79  G79        -0.0859
   1711  N3        -1.4820   -5.8380   19.5090 N.ar   79  G79        -0.1918
   1712  C4        -0.7530   -5.5300   20.5960 C.ar   79  G79         0.1723
   1713  C5        -0.5870   -4.3040   21.1990 C.ar   79  G79         0.1748
   1714  C6        -1.2580   -3.1790   20.6600 C.ar   79  G79         0.3023
   1715  O6        -1.2360   -2.0040   21.0520 O.2    79  G79        -0.2633
   1716  N7         0.2710   -4.4010   22.2810 N.ar   79  G79        -0.2173
   1717  C8         0.5890   -5.6650   22.3290 C.ar   79  G79         0.1817
   1718  N9         0.0180   -6.4010   21.3240 N.ar   79  G79        -0.2693
   1719  OP1        5.8130   -7.8710   23.7290 O.2    79  G79        -0.5172
   1720  OP2        4.5670   -5.7250   24.4300 O.co2  79  G79        -0.4373
   1721  P          4.1350   -8.8990   18.7860 P.3    80  C80         0.2141
   1722  C5'        2.4480   -9.0900   16.7260 C.3    80  C80         0.1812
   1723  O5'        3.2860   -8.2960   17.5740 O.3    80  C80        -0.3114
   1724  C4'        1.5570   -8.2120   15.8610 C.3    80  C80         0.1773
   1725  O4'        0.6390   -7.4520   16.6890 O.3    80  C80        -0.3307
   1726  C3'        2.2610   -7.1830   14.9960 C.3    80  C80         0.1860
   1727  O3'        2.6480   -7.7430   13.7500 O.3    80  C80        -0.3112
   1728  C2'        1.2120   -6.0890   14.8430 C.3    80  C80         0.2309
   1729  O2'        0.2920   -6.3120   13.8100 O.3    80  C80        -0.2156
   1730  C1'        0.5080   -6.1330   16.1960 C.3    80  C80         0.2420
   1731  N1         1.0470   -5.2030   17.2090 N.ar   80  C80        -0.2535
   1732  C2         0.5150   -3.9080   17.3090 C.ar   80  C80         0.3532
   1733  O2        -0.3930   -3.5700   16.5380 O.2    80  C80        -0.2443
   1734  N3         1.0200   -3.0520   18.2280 N.ar   80  C80        -0.1739
   1735  C4         1.9930   -3.4560   19.0490 C.ar   80  C80         0.1759
   1736  N4         2.4550   -2.5850   19.9510 N.pl3  80  C80        -0.1070
   1737  C5         2.5450   -4.7720   18.9750 C.ar   80  C80         0.0566
   1738  C6         2.0570   -5.5980   18.0410 C.ar   80  C80         0.0850
   1739  OP1        5.0050  -10.0810   18.5150 O.2    80  C80        -0.5172
   1740  OP2        4.7670   -7.6690   19.3320 O.co2  80  C80        -0.4373
   1741  P          3.9300   -7.1660   12.9780 P.3    81  U81         0.2141
   1742  C5'        2.3500   -5.5520   11.7510 C.3    81  U81         0.1812
   1743  O5'        3.4730   -5.6690   12.6460 O.3    81  U81        -0.3114
   1744  C4'        2.0080   -4.1380   11.3560 C.3    81  U81         0.1773
   1745  O4'        1.2910   -3.4370   12.4070 O.3    81  U81        -0.3307
   1746  C3'        3.1360   -3.2040   10.9580 C.3    81  U81         0.1860
   1747  O3'        3.4790   -3.6340    9.6410 O.3    81  U81        -0.3112
   1748  C2'        2.4270   -1.8570   11.0800 C.3    81  U81         0.2309
   1749  O2'        1.4770   -1.6270   10.0470 O.3    81  U81        -0.2156
   1750  C1'        1.6260   -2.0570   12.3720 C.3    81  U81         0.2420
   1751  N1         2.3180   -1.7430   13.6370 N.ar   81  U81        -0.2534
   1752  C2         2.0790   -0.5190   14.2410 C.ar   81  U81         0.3546
   1753  O2         1.3780    0.3500   13.7440 O.2    81  U81        -0.2443
   1754  N3         2.7170   -0.3410   15.4430 N.ar   81  U81        -0.1530
   1755  C4         3.5410   -1.2340   16.0940 C.ar   81  U81         0.2846
   1756  O4         4.0500   -0.9130   17.1680 O.2    81  U81        -0.2650
   1757  C5         3.7200   -2.4810   15.4200 C.ar   81  U81         0.0814
   1758  C6         3.1090   -2.6930   14.2500 C.ar   81  U81         0.0870
   1759  OP1        3.9530   -7.7900   11.6170 O.2    81  U81        -0.5172
   1760  OP2        5.1180   -7.3510   13.8640 O.co2  81  U81        -0.4373
   1761  P          4.8980   -3.3170    8.9550 P.3    82  A82         0.2141
   1762  C5'        4.2300   -5.5360    7.6250 C.3    82  A82         0.1812
   1763  O5'        5.2450   -4.6900    8.2160 O.3    82  A82        -0.3114
   1764  C4'        4.1040   -5.2440    6.1450 C.3    82  A82         0.1773
   1765  O4'        5.4220   -5.2690    5.5600 O.3    82  A82        -0.3307
   1766  C3'        3.3650   -6.2740    5.3000 C.3    82  A82         0.1860
   1767  O3'        1.9410   -6.2220    5.3220 O.3    82  A82        -0.3112
   1768  C2'        3.8710   -5.9560    3.9040 C.3    82  A82         0.2309
   1769  O2'        3.2220   -4.8420    3.3520 O.3    82  A82        -0.2156
   1770  C1'        5.3150   -5.5800    4.1930 C.3    82  A82         0.2408
   1771  N1         7.2270   -8.5590    0.5130 N.ar   82  A82        -0.2040
   1772  C2         6.2320   -7.6550    0.5240 C.ar   82  A82         0.2016
   1773  N3         5.7720   -6.9210    1.5360 N.ar   82  A82        -0.2048
   1774  C4         6.4580   -7.1880    2.6610 C.ar   82  A82         0.1692
   1775  C5         7.4900   -8.0970    2.8120 C.ar   82  A82         0.1518
   1776  C6         7.8860   -8.8100    1.6660 C.ar   82  A82         0.1919
   1777  N6         8.8590   -9.7240    1.6610 N.pl3  82  A82        -0.1054
   1778  N7         7.9370   -8.1180    4.1250 N.ar   82  A82        -0.2193
   1779  C8         7.1990   -7.2140    4.7210 C.ar   82  A82         0.1816
   1780  N9         6.2740   -6.6240    3.8970 N.ar   82  A82        -0.2693
   1781  OP1        5.9900   -3.2990    9.9760 O.3    82  A82        -0.4373
   1782  OP2        4.6770   -2.1610    8.0700 O.co2  82  A82        -0.5172
   1783  P          1.1440   -7.5840    5.3810 P.3    83  A83         0.2141
   1784  C5'        0.7970   -7.7060    2.7780 C.3    83  A83         0.1812
   1785  O5'        1.4290   -8.2410    3.9640 O.3    83  A83        -0.3114
   1786  C4'        1.2490   -8.4890    1.5780 C.3    83  A83         0.1773
   1787  O4'        2.6920   -8.4140    1.5180 O.3    83  A83        -0.3307
   1788  C3'        0.9860   -9.9920    1.6210 C.3    83  A83         0.1860
   1789  O3'       -0.3020  -10.2950    1.1110 O.3    83  A83        -0.3112
   1790  C2'        2.0220  -10.5170    0.6460 C.3    83  A83         0.2309
   1791  O2'        1.5840  -10.3290   -0.6820 O.3    83  A83        -0.2156
   1792  C1'        3.1980   -9.5880    0.9250 C.3    83  A83         0.2408
   1793  N1         7.3960  -12.4690    1.1170 N.ar   83  A83        -0.2040
   1794  C2         6.5950  -12.0940    0.1080 C.ar   83  A83         0.2016
   1795  N3         5.5000  -11.3370    0.1400 N.ar   83  A83        -0.2048
   1796  C4         5.2360  -10.9400    1.3960 C.ar   83  A83         0.1692
   1797  C5         5.9500  -11.2590    2.5340 C.ar   83  A83         0.1518
   1798  C6         7.0870  -12.0710    2.3670 C.ar   83  A83         0.1919
   1799  N6         7.8760  -12.4560    3.3660 N.pl3  83  A83        -0.1054
   1800  N7         5.3700  -10.6810    3.6520 N.ar   83  A83        -0.2193
   1801  C8         4.3360  -10.0330    3.1710 C.ar   83  A83         0.1816
   1802  N9         4.1930  -10.1570    1.8150 N.ar   83  A83        -0.2693
   1803  OP1       -0.2880   -7.2590    5.4020 O.2    83  A83        -0.5172
   1804  OP2        1.7680   -8.4260    6.4210 O.co2  83  A83        -0.4373
   1805  P         -0.9220  -11.7620    1.2680 P.3    84  A84         0.2141
   1806  C5'       -2.3200  -11.3260    3.4140 C.3    84  A84         0.1812
   1807  O5'       -1.1390  -11.9060    2.8390 O.3    84  A84        -0.3114
   1808  C4'       -3.0640  -12.3170    4.2750 C.3    84  A84         0.1773
   1809  O4'       -3.7020  -13.3440    3.4630 O.3    84  A84        -0.3307
   1810  C3'       -2.2080  -13.0690    5.2910 C.3    84  A84         0.1860
   1811  O3'       -3.0240  -13.3620    6.4190 O.3    84  A84        -0.3112
   1812  C2'       -1.8940  -14.3550    4.5520 C.3    84  A84         0.2309
   1813  O2'       -1.5840  -15.4990    5.3170 O.3    84  A84        -0.2156
   1814  C1'       -3.2320  -14.6120    3.8790 C.3    84  A84         0.2408
   1815  N1        -5.2160  -18.4970    1.1670 N.ar   84  A84        -0.2040
   1816  C2        -5.6430  -17.8640    2.2690 C.ar   84  A84         0.2016
   1817  N3        -5.0810  -16.8550    2.9310 N.ar   84  A84        -0.2048
   1818  C4        -3.9400  -16.4740    2.3300 C.ar   84  A84         0.1692
   1819  C5        -3.3830  -17.0180    1.1870 C.ar   84  A84         0.1518
   1820  C6        -4.0660  -18.0850    0.5920 C.ar   84  A84         0.1919
   1821  N6        -3.6440  -18.7000   -0.5090 N.pl3  84  A84        -0.1054
   1822  N7        -2.1940  -16.3800    0.8670 N.ar   84  A84        -0.2193
   1823  C8        -2.0600  -15.4760    1.8060 C.ar   84  A84         0.1816
   1824  N9        -3.0880  -15.4690    2.7160 N.ar   84  A84        -0.2693
   1825  OP1        0.1100  -12.7630    0.8510 O.3    84  A84        -0.4373
   1826  OP2       -2.2680  -11.7160    0.6130 O.co2  84  A84        -0.5172
   1827  P         -2.7460  -12.6840    7.8160 P.3    85  U85         0.2141
   1828  C5'       -0.5050  -13.9290    7.6990 C.3    85  U85         0.1812
   1829  O5'       -1.6920  -13.6970    8.4520 O.3    85  U85        -0.3114
   1830  C4'        0.4910  -14.8260    8.3760 C.3    85  U85         0.1773
   1831  O4'       -0.1230  -15.8390    9.1980 O.3    85  U85        -0.3307
   1832  C3'        1.3740  -15.5930    7.3970 C.3    85  U85         0.1860
   1833  O3'        2.6930  -15.2310    7.7100 O.3    85  U85        -0.3112
   1834  C2'        1.0770  -17.0580    7.6780 C.3    85  U85         0.2309
   1835  O2'        2.1330  -17.9480    7.3470 O.3    85  U85        -0.2156
   1836  C1'        0.7100  -16.9760    9.1500 C.3    85  U85         0.2420
   1837  N1         0.0170  -18.1490    9.7100 N.ar   85  U85        -0.2534
   1838  C2         0.7830  -19.2830    9.9010 C.ar   85  U85         0.3546
   1839  O2         1.9580  -19.3490    9.5810 O.2    85  U85        -0.2443
   1840  N3         0.1190  -20.3390   10.4690 N.ar   85  U85        -0.1530
   1841  C4        -1.1970  -20.3800   10.8700 C.ar   85  U85         0.2846
   1842  O4        -1.6450  -21.4140   11.3750 O.2    85  U85        -0.2650
   1843  C5        -1.9280  -19.1710   10.6360 C.ar   85  U85         0.0814
   1844  C6        -1.3110  -18.1210   10.0820 C.ar   85  U85         0.0870
   1845  OP1       -4.0190  -12.7140    8.5660 O.3    85  U85        -0.4373
   1846  OP2       -2.1090  -11.3650    7.5500 O.co2  85  U85        -0.5172
   1847  P          3.3680  -14.0420    6.9170 P.3    86  C86         0.2141
   1848  C5'        1.9950  -13.5510    4.7010 C.3    86  C86         0.1812
   1849  O5'        2.9770  -14.3390    5.3950 O.3    86  C86        -0.3114
   1850  C4'        2.0690  -13.8100    3.2200 C.3    86  C86         0.1773
   1851  O4'        3.3400  -13.3370    2.7070 O.3    86  C86        -0.3307
   1852  C3'        2.0090  -15.2600    2.7650 C.3    86  C86         0.1860
   1853  O3'        0.6720  -15.7800    2.6930 O.3    86  C86        -0.3112
   1854  C2'        2.6340  -15.1560    1.3850 C.3    86  C86         0.2309
   1855  O2'        1.7490  -14.5170    0.4970 O.3    86  C86        -0.2156
   1856  C1'        3.7720  -14.1790    1.6540 C.3    86  C86         0.2420
   1857  N1         5.0250  -14.8220    2.0680 N.ar   86  C86        -0.2535
   1858  C2         5.9030  -15.2930    1.0860 C.ar   86  C86         0.3532
   1859  O2         5.5910  -15.1620   -0.1100 O.2    86  C86        -0.2443
   1860  N3         7.0720  -15.8660    1.4640 N.ar   86  C86        -0.1739
   1861  C4         7.3700  -15.9780    2.7630 C.ar   86  C86         0.1759
   1862  N4         8.5360  -16.5400    3.0980 N.pl3  86  C86        -0.1070
   1863  C5         6.4910  -15.5070    3.7790 C.ar   86  C86         0.0566
   1864  C6         5.3460  -14.9320    3.3910 C.ar   86  C86         0.0850
   1865  OP1        4.8430  -14.2800    6.9990 O.2    86  C86        -0.5172
   1866  OP2        2.7220  -12.7520    7.3460 O.co2  86  C86        -0.4373
   1867  P          0.3790  -17.2780    3.1620 P.3    87  C87         0.2141
   1868  C5'        0.0970  -18.0900    0.7040 C.3    87  C87         0.1812
   1869  O5'        0.8670  -18.1170    1.9050 O.3    87  C87        -0.3114
   1870  C4'        0.7060  -19.0100   -0.3150 C.3    87  C87         0.1773
   1871  O4'        2.0510  -18.5530   -0.6040 O.3    87  C87        -0.3307
   1872  C3'        0.8810  -20.4620    0.1000 C.3    87  C87         0.1860
   1873  O3'       -0.3420  -21.1890   -0.0190 O.3    87  C87        -0.3112
   1874  C2'        1.9830  -20.9010   -0.8480 C.3    87  C87         0.2309
   1875  O2'        1.4700  -21.0880   -2.1550 O.3    87  C87        -0.2156
   1876  C1'        2.8920  -19.6680   -0.8330 C.3    87  C87         0.2420
   1877  N1         3.8970  -19.6740    0.2240 N.ar   87  C87        -0.2535
   1878  C2         5.0120  -20.5040    0.1080 C.ar   87  C87         0.3532
   1879  O2         5.1190  -21.2230   -0.8920 O.2    87  C87        -0.2443
   1880  N3         5.9410  -20.5060    1.0890 N.ar   87  C87        -0.1739
   1881  C4         5.7850  -19.7170    2.1550 C.ar   87  C87         0.1759
   1882  N4         6.7190  -19.7560    3.1080 N.pl3  87  C87        -0.1070
   1883  C5         4.6650  -18.8490    2.2910 C.ar   87  C87         0.0566
   1884  C6         3.7570  -18.8550    1.3090 C.ar   87  C87         0.0850
   1885  OP1       -1.0860  -17.4430    3.3240 O.2    87  C87        -0.5172
   1886  OP2        1.2910  -17.5760    4.3050 O.co2  87  C87        -0.4373
   1887  P         -0.6540  -22.4120    0.9810 P.3    88  A88         0.2141
   1888  C5'        0.3520  -24.3700   -0.5050 C.3    88  A88         0.1812
   1889  O5'        0.4870  -23.4620    0.6030 O.3    88  A88        -0.3114
   1890  C4'        1.6600  -25.0780   -0.7630 C.3    88  A88         0.1773
   1891  O4'        2.7590  -24.1240   -0.7800 O.3    88  A88        -0.3307
   1892  C3'        2.0780  -26.0790    0.3070 C.3    88  A88         0.1860
   1893  O3'        1.4080  -27.3270    0.2540 O.3    88  A88        -0.3112
   1894  C2'        3.5770  -26.1970    0.0690 C.3    88  A88         0.2309
   1895  O2'        3.9420  -27.1320   -0.9210 O.3    88  A88        -0.2156
   1896  C1'        3.9340  -24.7560   -0.2970 C.3    88  A88         0.2408
   1897  N1         7.7660  -24.1680    3.0620 N.ar   88  A88        -0.2040
   1898  C2         7.6000  -24.9920    2.0170 C.ar   88  A88         0.2016
   1899  N3         6.5710  -25.0900    1.1780 N.ar   88  A88        -0.2048
   1900  C4         5.6060  -24.2140    1.5070 C.ar   88  A88         0.1692
   1901  C5         5.6260  -23.3120    2.5550 C.ar   88  A88         0.1518
   1902  C6         6.7780  -23.2950    3.3590 C.ar   88  A88         0.1919
   1903  N6         6.9410  -22.4760    4.3990 N.pl3  88  A88        -0.1054
   1904  N7         4.4550  -22.5690    2.5850 N.ar   88  A88        -0.2193
   1905  C8         3.7660  -23.0240    1.5660 C.ar   88  A88         0.1816
   1906  N9         4.4070  -24.0150    0.8650 N.ar   88  A88        -0.2693
   1907  OP1       -2.0660  -22.8090    0.7630 O.2    88  A88        -0.5172
   1908  OP2       -0.2410  -22.0410    2.3510 O.co2  88  A88        -0.4373
   1909  P          1.0280  -28.0570    1.6180 P.3    89  G89         0.2141
   1910  C5'        2.8520  -29.7860    0.7910 C.3    89  G89         0.1812
   1911  O5'        2.2580  -29.0400    1.8640 O.3    89  G89        -0.3114
   1912  C4'        4.3150  -30.0120    1.0710 C.3    89  G89         0.1773
   1913  O4'        4.9490  -28.7310    1.2940 O.3    89  G89        -0.3307
   1914  C3'        4.6140  -30.8850    2.2870 C.3    89  G89         0.1860
   1915  O3'        4.5720  -32.2450    1.7860 O.3    89  G89        -0.3112
   1916  C2'        5.8980  -30.2660    2.8620 C.3    89  G89         0.2309
   1917  O2'        7.1240  -30.7990    2.3890 O.3    89  G89        -0.2156
   1918  C1'        5.7990  -28.7980    2.4210 C.3    89  G89         0.2408
   1919  N1         6.9690  -25.5700    6.1890 N.ar   89  G89        -0.1709
   1920  C2         7.7950  -26.4050    5.4800 C.ar   89  G89         0.2606
   1921  N2         9.0920  -26.3730    5.8130 N.pl3  89  G89        -0.0859
   1922  N3         7.3800  -27.2070    4.5120 N.ar   89  G89        -0.1918
   1923  C4         6.0480  -27.1100    4.3140 C.ar   89  G89         0.1723
   1924  C5         5.1380  -26.3060    4.9680 C.ar   89  G89         0.1748
   1925  C6         5.5960  -25.4490    5.9960 C.ar   89  G89         0.3023
   1926  O6         4.9430  -24.6530    6.6840 O.2    89  G89        -0.2633
   1927  N7         3.8590  -26.4980    4.4660 N.ar   89  G89        -0.2173
   1928  C8         4.0090  -27.4040    3.5380 C.ar   89  G89         0.1817
   1929  N9         5.3070  -27.8360    3.4090 N.ar   89  G89        -0.2693
   1930  OP1       -0.2250  -28.8130    1.4020 O.2    89  G89        -0.5172
   1931  OP2        1.0650  -27.0580    2.7110 O.co2  89  G89        -0.4373
   1932  P          5.3700  -33.4850    2.4920 P.3    90  C90         0.2141
   1933  C5'        4.5100  -35.1980    4.3250 C.3    90  C90         0.1812
   1934  O5'        4.2220  -34.3460    3.1930 O.3    90  C90        -0.3114
   1935  C4'        3.2840  -35.4070    5.2000 C.3    90  C90         0.1773
   1936  O4'        2.8310  -34.1550    5.7850 O.3    90  C90        -0.3307
   1937  C3'        2.0410  -35.9350    4.5050 C.3    90  C90         0.1860
   1938  O3'        2.1390  -37.3250    4.2500 O.3    90  C90        -0.3112
   1939  C2'        0.9280  -35.5650    5.4820 C.3    90  C90         0.2309
   1940  O2'        0.6140  -36.4900    6.5030 O.3    90  C90        -0.2156
   1941  C1'        1.4330  -34.2290    6.0320 C.3    90  C90         0.2420
   1942  N1         0.7720  -33.1120    5.3440 N.ar   90  C90        -0.2535
   1943  C2        -0.4810  -32.6830    5.8020 C.ar   90  C90         0.3532
   1944  O2        -0.9730  -33.2240    6.8040 O.2    90  C90        -0.2443
   1945  N3        -1.1140  -31.6800    5.1530 N.ar   90  C90        -0.1739
   1946  C4        -0.5540  -31.1250    4.0740 C.ar   90  C90         0.1759
   1947  N4        -1.2150  -30.1360    3.4660 N.pl3  90  C90        -0.1070
   1948  C5         0.7090  -31.5580    3.5730 C.ar   90  C90         0.0566
   1949  C6         1.3260  -32.5530    4.2250 C.ar   90  C90         0.0850
   1950  OP1        6.2440  -32.9350    3.5530 O.3    90  C90        -0.4373
   1951  OP2        5.9700  -34.2950    1.4100 O.co2  90  C90        -0.5172
   1952  P          1.5810  -37.8960    2.8820 P.3    91  A91         0.2141
   1953  C5'       -0.5390  -38.9020    4.0680 C.3    91  A91         0.1812
   1954  O5'        0.0110  -37.9460    3.1510 O.3    91  A91        -0.3114
   1955  C4'       -1.9040  -38.4580    4.5290 C.3    91  A91         0.1773
   1956  O4'       -1.8570  -37.0700    4.9550 O.3    91  A91        -0.3307
   1957  C3'       -2.9960  -38.4490    3.4650 C.3    91  A91         0.1860
   1958  O3'       -3.5070  -39.7270    3.0920 O.3    91  A91        -0.3112
   1959  C2'       -4.0330  -37.5200    4.0910 C.3    91  A91         0.2309
   1960  O2'       -4.9760  -38.1460    4.9390 O.3    91  A91        -0.2156
   1961  C1'       -3.1360  -36.4810    4.7720 C.3    91  A91         0.2408
   1962  N1        -5.3570  -32.1460    3.1920 N.ar   91  A91        -0.2040
   1963  C2        -5.7340  -33.0890    4.0660 C.ar   91  A91         0.2016
   1964  N3        -5.0980  -34.2010    4.4320 N.ar   91  A91        -0.2048
   1965  C4        -3.9200  -34.3050    3.7920 C.ar   91  A91         0.1692
   1966  C5        -3.3950  -33.4190    2.8690 C.ar   91  A91         0.1518
   1967  C6        -4.1690  -32.2870    2.5610 C.ar   91  A91         0.1919
   1968  N6        -3.7900  -31.3490    1.6920 N.pl3  91  A91        -0.1054
   1969  N7        -2.1610  -33.8600    2.4110 N.ar   91  A91        -0.2193
   1970  C8        -1.9700  -34.9850    3.0570 C.ar   91  A91         0.1816
   1971  N9        -2.9840  -35.3000    3.9300 N.ar   91  A91        -0.2693
   1972  OP1        2.1840  -39.2400    2.6810 O.3    91  A91        -0.4373
   1973  OP2        1.7730  -36.8580    1.8350 O.co2  91  A91        -0.5172
   1974  P         -4.2220  -39.8930    1.6680 P.3    92  A92         0.2141
   1975  C5'       -6.7490  -40.0990    2.3690 C.3    92  A92         0.1812
   1976  O5'       -5.6640  -39.2640    1.9320 O.3    92  A92        -0.3114
   1977  C4'       -7.9600  -39.2800    2.7520 C.3    92  A92         0.1773
   1978  O4'       -7.5600  -38.0680    3.4570 O.3    92  A92        -0.3307
   1979  C3'       -8.8170  -38.7540    1.6050 C.3    92  A92         0.1860
   1980  O3'       -9.6620  -39.7030    0.9630 O.3    92  A92        -0.3112
   1981  C2'       -9.5680  -37.6320    2.3030 C.3    92  A92         0.2309
   1982  O2'      -10.5920  -38.0630    3.1690 O.3    92  A92        -0.2156
   1983  C1'       -8.4260  -36.9960    3.0900 C.3    92  A92         0.2408
   1984  N1        -8.6960  -32.5920    0.4810 N.ar   92  A92        -0.2040
   1985  C2        -9.5810  -33.2510    1.2430 C.ar   92  A92         0.2016
   1986  N3        -9.4380  -34.4040    1.8970 N.ar   92  A92        -0.2048
   1987  C4        -8.2020  -34.9030    1.7160 C.ar   92  A92         0.1692
   1988  C5        -7.1850  -34.3460    0.9610 C.ar   92  A92         0.1518
   1989  C6        -7.4640  -33.1240    0.3140 C.ar   92  A92         0.1919
   1990  N6        -6.5840  -32.4680   -0.4440 N.pl3  92  A92        -0.1054
   1991  N7        -6.0480  -35.1430    1.0060 N.ar   92  A92        -0.2193
   1992  C8        -6.3990  -36.1470    1.7710 C.ar   92  A92         0.1816
   1993  N9        -7.6820  -36.0540    2.2540 N.ar   92  A92        -0.2693
   1994  OP1       -4.3500  -41.3390    1.3980 O.3    92  A92        -0.4373
   1995  OP2       -3.4910  -39.0530    0.6750 O.co2  92  A92        -0.5172
   1996  P         -9.8370  -39.6550   -0.6360 P.3    93  G93         0.2141
   1997  C5'      -12.1490  -38.5590   -0.0260 C.3    93  G93         0.1812
   1998  O5'      -10.9780  -38.5690   -0.8500 O.3    93  G93        -0.3114
   1999  C4'      -12.9150  -37.2810   -0.2430 C.3    93  G93         0.1773
   2000  O4'      -12.1610  -36.1570    0.3000 O.3    93  G93        -0.3307
   2001  C3'      -13.1580  -36.8780   -1.6910 C.3    93  G93         0.1860
   2002  O3'      -14.2010  -37.5820   -2.3490 O.3    93  G93        -0.3112
   2003  C2'      -13.4150  -35.3900   -1.5290 C.3    93  G93         0.2309
   2004  O2'      -14.7090  -35.1050   -1.0250 O.3    93  G93        -0.2156
   2005  C1'      -12.2840  -35.0370   -0.5670 C.3    93  G93         0.2408
   2006  N1        -9.3610  -31.8350   -3.2080 N.ar   93  G93        -0.1709
   2007  C2       -10.5980  -31.6280   -2.6480 C.ar   93  G93         0.2606
   2008  N2       -11.1260  -30.4100   -2.8200 N.pl3  93  G93        -0.0859
   2009  N3       -11.2690  -32.5500   -1.9750 N.ar   93  G93        -0.1918
   2010  C4       -10.5900  -33.7140   -1.9000 C.ar   93  G93         0.1723
   2011  C5        -9.3480  -34.0220   -2.4150 C.ar   93  G93         0.1748
   2012  C6        -8.6390  -33.0230   -3.1380 C.ar   93  G93         0.3023
   2013  O6        -7.5300  -33.1030   -3.6820 O.2    93  G93        -0.2633
   2014  N7        -9.0020  -35.3330   -2.1180 N.ar   93  G93        -0.2173
   2015  C8       -10.0200  -35.7890   -1.4410 C.ar   93  G93         0.1817
   2016  N9       -11.0140  -34.8550   -1.2640 N.ar   93  G93        -0.2693
   2017  OP1      -10.3570  -40.9740   -1.0840 O.3    93  G93        -0.4373
   2018  OP2       -8.5860  -39.1120   -1.2280 O.co2  93  G93        -0.5172
   2019  P        -14.0690  -37.9220   -3.9100 P.3    94  C94         0.2141
   2020  C5'      -16.1640  -36.3060   -3.7690 C.3    94  C94         0.1812
   2021  O5'      -15.1690  -36.9770   -4.5760 O.3    94  C94        -0.3114
   2022  C4'      -16.4470  -34.9190   -4.3020 C.3    94  C94         0.1773
   2023  O4'      -15.5140  -33.9530   -3.7480 O.3    94  C94        -0.3307
   2024  C3'      -16.3140  -34.7660   -5.8050 C.3    94  C94         0.1860
   2025  O3'      -17.5310  -35.1480   -6.4100 O.3    94  C94        -0.3112
   2026  C2'      -16.0350  -33.2790   -5.9600 C.3    94  C94         0.2309
   2027  O2'      -17.1660  -32.4380   -5.8920 O.3    94  C94        -0.2156
   2028  C1'      -15.1430  -33.0200   -4.7530 C.3    94  C94         0.2420
   2029  N1       -13.7210  -33.2070   -5.0580 N.ar   94  C94        -0.2535
   2030  C2       -13.0090  -32.1550   -5.6350 C.ar   94  C94         0.3532
   2031  O2       -13.6040  -31.0990   -5.8940 O.2    94  C94        -0.2443
   2032  N3       -11.6910  -32.3170   -5.9020 N.ar   94  C94        -0.1739
   2033  C4       -11.0890  -33.4730   -5.6090 C.ar   94  C94         0.1759
   2034  N4        -9.7880  -33.5950   -5.8850 N.pl3  94  C94        -0.1070
   2035  C5       -11.7960  -34.5610   -5.0230 C.ar   94  C94         0.0566
   2036  C6       -13.0980  -34.3890   -4.7750 C.ar   94  C94         0.0850
   2037  OP1      -14.4600  -39.3420   -4.0880 O.3    94  C94        -0.4373
   2038  OP2      -12.7300  -37.4810   -4.3770 O.co2  94  C94        -0.5172
   2039  P        -17.5760  -35.3730   -7.9650 P.3    95  U95         0.2141
   2040  C5'      -15.7380  -34.8430   -9.7600 C.3    95  U95         0.1812
   2041  O5'      -16.0630  -35.1070   -8.3880 O.3    95  U95        -0.3114
   2042  C4'      -15.9020  -33.3720  -10.0690 C.3    95  U95         0.1773
   2043  O4'      -15.0980  -32.5960   -9.1430 O.3    95  U95        -0.3307
   2044  C3'      -15.4770  -32.9600  -11.4740 C.3    95  U95         0.1860
   2045  O3'      -16.6190  -32.7450  -12.3040 O.3    95  U95        -0.3112
   2046  C2'      -14.7810  -31.6260  -11.2530 C.3    95  U95         0.2309
   2047  O2'      -15.7070  -30.5640  -11.2600 O.3    95  U95        -0.2156
   2048  C1'      -14.1730  -31.8110   -9.8630 C.3    95  U95         0.2420
   2049  N1       -12.8610  -32.4820   -9.8420 N.ar   95  U95        -0.2534
   2050  C2       -11.8130  -31.8510  -10.4900 C.ar   95  U95         0.3546
   2051  O2       -11.9380  -30.7870  -11.0770 O.2    95  U95        -0.2443
   2052  N3       -10.6130  -32.5180  -10.4300 N.ar   95  U95        -0.1530
   2053  C4       -10.3560  -33.7210   -9.8020 C.ar   95  U95         0.2846
   2054  O4        -9.2200  -34.1950   -9.8440 O.2    95  U95        -0.2650
   2055  C5       -11.4880  -34.3080   -9.1500 C.ar   95  U95         0.0814
   2056  C6       -12.6710  -33.6840   -9.1880 C.ar   95  U95         0.0870
   2057  OP1      -18.4440  -34.3120   -8.5580 O.2    95  U95        -0.5172
   2058  OP2      -17.9120  -36.8040   -8.1910 O.co2  95  U95        -0.4373
   2059  P        -17.1150  -33.8730  -13.3480 P.3    96  C96         0.2141
   2060  C5'      -15.2250  -32.8970  -14.8990 C.3    96  C96         0.1812
   2061  O5'      -15.8490  -34.0530  -14.3020 O.3    96  C96        -0.3114
   2062  C4'      -14.0280  -33.2870  -15.7360 C.3    96  C96         0.1773
   2063  O4'      -12.8270  -33.2340  -14.9260 O.3    96  C96        -0.3307
   2064  C3'      -14.0440  -34.6850  -16.3340 C.3    96  C96         0.1860
   2065  O3'      -14.7700  -34.6530  -17.5560 O.3    96  C96        -0.3112
   2066  C2'      -12.5580  -34.9880  -16.5220 C.3    96  C96         0.2309
   2067  O2'      -12.0180  -34.5650  -17.7620 O.3    96  C96        -0.2156
   2068  C1'      -11.9300  -34.2530  -15.3330 C.3    96  C96         0.2420
   2069  N1       -11.6510  -35.1140  -14.1680 N.ar   96  C96        -0.2535
   2070  C2       -10.3200  -35.3690  -13.8160 C.ar   96  C96         0.3532
   2071  O2        -9.4110  -34.8750  -14.5000 O.2    96  C96        -0.2443
   2072  N3       -10.0580  -36.1510  -12.7450 N.ar   96  C96        -0.1739
   2073  C4       -11.0630  -36.6630  -12.0310 C.ar   96  C96         0.1759
   2074  N4       -10.7540  -37.4290  -10.9820 N.pl3  96  C96        -0.1070
   2075  C5       -12.4280  -36.4150  -12.3630 C.ar   96  C96         0.0566
   2076  C6       -12.6740  -35.6400  -13.4270 C.ar   96  C96         0.0850
   2077  OP1      -18.2410  -33.3040  -14.1380 O.2    96  C96        -0.5172
   2078  OP2      -17.3390  -35.1310  -12.5940 O.co2  96  C96        -0.4373
   2079  P        -15.5540  -35.9480  -18.0600 P.3    97  G97         0.2141
   2080  C5'      -14.6890  -38.4340  -18.1390 C.3    97  G97         0.1812
   2081  O5'      -14.3910  -37.0290  -18.2190 O.3    97  G97        -0.3114
   2082  C4'      -13.5080  -39.2430  -18.6090 C.3    97  G97         0.1773
   2083  O4'      -13.0660  -38.7640  -19.9010 O.3    97  G97        -0.3307
   2084  C3'      -12.2740  -39.1560  -17.7300 C.3    97  G97         0.1860
   2085  O3'      -12.4450  -40.0410  -16.6250 O.3    97  G97        -0.3112
   2086  C2'      -11.1470  -39.5130  -18.6990 C.3    97  G97         0.2309
   2087  O2'      -10.8660  -40.8900  -18.8140 O.3    97  G97        -0.2156
   2088  C1'      -11.6680  -38.9410  -20.0200 C.3    97  G97         0.2408
   2089  N1        -7.4910  -36.5650  -21.6490 N.ar   97  G97        -0.1709
   2090  C2        -7.6730  -37.8870  -21.3190 C.ar   97  G97         0.2606
   2091  N2        -6.6060  -38.6860  -21.4600 N.pl3  97  G97        -0.0859
   2092  N3        -8.8180  -38.3900  -20.8870 N.ar   97  G97        -0.1918
   2093  C4        -9.7870  -37.4540  -20.8190 C.ar   97  G97         0.1723
   2094  C5        -9.7100  -36.1100  -21.1200 C.ar   97  G97         0.1748
   2095  C6        -8.4730  -35.5810  -21.5790 C.ar   97  G97         0.3023
   2096  O6        -8.2010  -34.4160  -21.8920 O.2    97  G97        -0.2633
   2097  N7       -10.9300  -35.4860  -20.9020 N.ar   97  G97        -0.2173
   2098  C8       -11.7140  -36.4430  -20.4860 C.ar   97  G97         0.1817
   2099  N9       -11.0810  -37.6610  -20.4070 N.ar   97  G97        -0.2693
   2100  OP1      -16.0970  -35.6360  -19.4090 O.2    97  G97        -0.5172
   2101  OP2      -16.4780  -36.3840  -16.9750 O.co2  97  G97        -0.4373
   2102  P        -12.4220  -39.4710  -15.1260 P.3    98  A98         0.2141
   2103  C5'       -9.9850  -40.4200  -14.8620 C.3    98  A98         0.1812
   2104  O5'      -10.8560  -39.2800  -14.8680 O.3    98  A98        -0.3114
   2105  C4'       -8.6510  -40.0840  -15.4780 C.3    98  A98         0.1773
   2106  O4'       -8.8330  -39.5290  -16.8060 O.3    98  A98        -0.3307
   2107  C3'       -7.8190  -39.0220  -14.7680 C.3    98  A98         0.1860
   2108  O3'       -7.1840  -39.4950  -13.5860 O.3    98  A98        -0.3112
   2109  C2'       -6.8420  -38.6180  -15.8690 C.3    98  A98         0.2309
   2110  O2'       -5.7270  -39.4550  -16.0790 O.3    98  A98        -0.2156
   2111  C1'       -7.7610  -38.6360  -17.0920 C.3    98  A98         0.2408
   2112  N1        -6.9190  -34.0780  -19.2880 N.ar   98  A98        -0.2040
   2113  C2        -6.1860  -35.1970  -19.2210 C.ar   98  A98         0.2016
   2114  N3        -6.4690  -36.3540  -18.6270 N.ar   98  A98        -0.2048
   2115  C4        -7.6770  -36.3030  -18.0400 C.ar   98  A98         0.1692
   2116  C5        -8.5450  -35.2280  -18.0200 C.ar   98  A98         0.1518
   2117  C6        -8.1300  -34.0620  -18.6840 C.ar   98  A98         0.1919
   2118  N6        -8.8610  -32.9460  -18.7500 N.pl3  98  A98        -0.1054
   2119  N7        -9.7010  -35.5440  -17.3210 N.ar   98  A98        -0.2193
   2120  C8        -9.5090  -36.7800  -16.9340 C.ar   98  A98         0.1816
   2121  N9        -8.3140  -37.3100  -17.3570 N.ar   98  A98        -0.2693
   2122  OP1      -12.9580  -40.5290  -14.2320 O.3    98  A98        -0.4373
   2123  OP2      -13.0950  -38.1470  -15.1300 O.co2  98  A98        -0.5172
   2124  P         -6.6860  -38.4530  -12.4790 P.3    99  A99         0.2141
   2125  C5'       -4.8210  -36.5600  -12.7270 C.3    99  A99         0.1812
   2126  O5'       -5.4160  -37.7920  -13.1850 O.3    99  A99        -0.3114
   2127  C4'       -3.8440  -36.0660  -13.7710 C.3    99  A99         0.1773
   2128  O4'       -4.5340  -35.9860  -15.0470 O.3    99  A99        -0.3307
   2129  C3'       -3.2290  -34.6800  -13.5580 C.3    99  A99         0.1860
   2130  O3'       -2.0000  -34.6820  -12.8270 O.3    99  A99        -0.3112
   2131  C2'       -2.9630  -34.2330  -14.9890 C.3    99  A99         0.2309
   2132  O2'       -1.7840  -34.7680  -15.5520 O.3    99  A99        -0.2156
   2133  C1'       -4.1980  -34.7740  -15.6980 C.3    99  A99         0.2408
   2134  N1        -6.5530  -30.7370  -17.8250 N.ar   99  A99        -0.2040
   2135  C2        -5.4260  -31.3910  -18.1380 C.ar   99  A99         0.2016
   2136  N3        -4.8650  -32.4380  -17.5340 N.ar   99  A99        -0.2048
   2137  C4        -5.6000  -32.8260  -16.4760 C.ar   99  A99         0.1692
   2138  C5        -6.7760  -32.2510  -16.0280 C.ar   99  A99         0.1518
   2139  C6        -7.2640  -31.1480  -16.7510 C.ar   99  A99         0.1919
   2140  N6        -8.3850  -30.4960  -16.4380 N.pl3  99  A99        -0.1054
   2141  N7        -7.2530  -32.9180  -14.9080 N.ar   99  A99        -0.2193
   2142  C8        -6.3720  -33.8680  -14.7090 C.ar   99  A99         0.1816
   2143  N9        -5.3450  -33.8710  -15.6220 N.ar   99  A99        -0.2693
   2144  OP1       -6.2560  -39.2400  -11.2930 O.3    99  A99        -0.4373
   2145  OP2       -7.7390  -37.4190  -12.3140 O.co2  99  A99        -0.5172
   2146  P         -1.9010  -34.0000  -11.3670 P.3   100  C100        0.2141
   2147  C5'       -1.8330  -31.3810  -11.7300 C.3   100  C100        0.1812
   2148  O5'       -2.6050  -32.5840  -11.5570 O.3   100  C100       -0.3114
   2149  C4'       -1.5390  -31.1660  -13.1930 C.3   100  C100        0.1773
   2150  O4'       -2.7190  -31.4910  -13.9770 O.3   100  C100       -0.3307
   2151  C3'       -1.1880  -29.7390  -13.5700 C.3   100  C100        0.1860
   2152  O3'        0.2140  -29.5570  -13.4720 O.3   100  C100       -0.3112
   2153  C2'       -1.6620  -29.6410  -15.0140 C.3   100  C100        0.2309
   2154  O2'       -0.7070  -30.1390  -15.9280 O.3   100  C100       -0.2156
   2155  C1'       -2.9100  -30.5260  -14.9970 C.3   100  C100        0.2420
   2156  N1        -4.1940  -29.8400  -14.7500 N.ar  100  C100       -0.2535
   2157  C2        -4.5300  -28.7220  -15.5220 C.ar  100  C100        0.3532
   2158  O2        -3.7240  -28.3160  -16.3730 O.2   100  C100       -0.2443
   2159  N3        -5.7150  -28.1040  -15.3110 N.ar  100  C100       -0.1739
   2160  C4        -6.5590  -28.5770  -14.3900 C.ar  100  C100        0.1759
   2161  N4        -7.7170  -27.9350  -14.2130 N.pl3 100  C100       -0.1070
   2162  C5        -6.2480  -29.7210  -13.5990 C.ar  100  C100        0.0566
   2163  C6        -5.0710  -30.3210  -13.8160 C.ar  100  C100        0.0850
   2164  OP1       -0.4670  -33.7290  -11.0820 O.2   100  C100       -0.5172
   2165  OP2       -2.7210  -34.8080  -10.4180 O.co2 100  C100       -0.4373
   2166  P          0.8140  -28.0860  -13.4850 P.3   101  A101        0.2141
   2167  C5'       -0.0130  -25.9510  -12.1360 C.3   101  A101        0.1812
   2168  O5'        0.0500  -27.3870  -12.2700 O.3   101  A101       -0.3114
   2169  C4'       -1.3070  -25.5430  -11.4650 C.3   101  A101        0.1773
   2170  O4'       -1.2030  -25.7350  -10.0350 O.3   101  A101       -0.3307
   2171  C3'       -1.7540  -24.0980  -11.7260 C.3   101  A101        0.1860
   2172  O3'       -2.9900  -23.9420  -12.4360 O.3   101  A101       -0.3112
   2173  C2'       -1.8330  -23.4250  -10.3430 C.3   101  A101        0.2309
   2174  O2'       -3.1220  -22.9400   -9.9940 O.3   101  A101       -0.2156
   2175  C1'       -1.3510  -24.5050   -9.3660 C.3   101  A101        0.2408
   2176  N1         1.0660  -21.3580   -6.0950 N.ar  101  A101       -0.2040
   2177  C2        -0.2000  -21.4030   -6.5350 C.ar  101  A101        0.2016
   2178  N3        -0.7640  -22.2540   -7.3920 N.ar  101  A101       -0.2048
   2179  C4         0.1330  -23.1580   -7.8250 C.ar  101  A101        0.1692
   2180  C5         1.4670  -23.2400   -7.4660 C.ar  101  A101        0.1518
   2181  C6         1.9420  -22.2820   -6.5490 C.ar  101  A101        0.1919
   2182  N6         3.2020  -22.2380   -6.1100 N.pl3 101  A101       -0.1054
   2183  N7         2.0850  -24.3010   -8.1140 N.ar  101  A101       -0.2193
   2184  C8         1.1280  -24.8280   -8.8390 C.ar  101  A101        0.1816
   2185  N9        -0.0790  -24.1840   -8.7150 N.ar  101  A101       -0.2693
   2186  OP1        0.3930  -27.4380  -14.7550 O.2   101  A101       -0.5172
   2187  OP2        2.2600  -28.1840  -13.1600 O.co2 101  A101       -0.4373
   2188  P         -3.7840  -25.2130  -12.9910 P.3   102  G102        0.2141
   2189  C5'       -5.2870  -26.9140  -11.7230 C.3   102  G102        0.1812
   2190  O5'       -4.2320  -25.9580  -11.6620 O.3   102  G102       -0.3114
   2191  C4'       -6.6110  -26.2440  -11.4460 C.3   102  G102        0.1773
   2192  O4'       -7.6710  -27.2370  -11.5660 O.3   102  G102       -0.3307
   2193  C3'       -6.7780  -25.6340  -10.0540 C.3   102  G102        0.1860
   2194  O3'       -6.3420  -24.2870   -9.9060 O.3   102  G102       -0.3112
   2195  C2'       -8.2730  -25.8050   -9.8200 C.3   102  G102        0.2309
   2196  O2'       -9.0770  -24.8180  -10.4400 O.3   102  G102       -0.2156
   2197  C1'       -8.4840  -27.1970  -10.4120 C.3   102  G102        0.2408
   2198  N1        -9.9960  -30.8270   -7.2280 N.ar  102  G102       -0.1709
   2199  C2       -10.7430  -29.9640   -7.9920 C.ar  102  G102        0.2606
   2200  N2       -12.0760  -30.0850   -7.8940 N.pl3 102  G102       -0.0859
   2201  N3       -10.2240  -29.0510   -8.7950 N.ar  102  G102       -0.1918
   2202  C4        -8.8750  -29.0690   -8.7730 C.ar  102  G102        0.1723
   2203  C5        -8.0350  -29.8870   -8.0450 C.ar  102  G102        0.1748
   2204  C6        -8.6050  -30.8630   -7.1890 C.ar  102  G102        0.3023
   2205  O6        -8.0310  -31.6800   -6.4570 O.2   102  G102       -0.2633
   2206  N7        -6.7050  -29.5790   -8.2990 N.ar  102  G102       -0.2173
   2207  C8        -6.7600  -28.6080   -9.1690 C.ar  102  G102        0.1817
   2208  N9        -8.0480  -28.2560   -9.5050 N.ar  102  G102       -0.2693
   2209  OP1       -2.8340  -26.0770  -13.7380 O.2   102  G102       -0.5172
   2210  OP2       -5.0060  -24.7300  -13.6680 O.co2 102  G102       -0.4373
   2211  P         -6.0770  -23.6850   -8.4380 P.3   103  C103        0.2141
   2212  C5'       -7.8370  -23.3050   -6.4610 C.3   103  C103        0.1812
   2213  O5'       -7.5540  -23.4340   -7.8780 O.3   103  C103       -0.3114
   2214  C4'       -9.2720  -23.6970   -6.1580 C.3   103  C103        0.1773
   2215  O4'       -9.6510  -24.8770   -6.9270 O.3   103  C103       -0.3307
   2216  C3'       -9.5880  -24.0690   -4.7130 C.3   103  C103        0.1860
   2217  O3'       -9.8820  -22.9530   -3.8910 O.3   103  C103       -0.3112
   2218  C2'      -10.8010  -24.9750   -4.8830 C.3   103  C103        0.2309
   2219  O2'      -12.0500  -24.3560   -5.1230 O.3   103  C103       -0.2156
   2220  C1'      -10.3570  -25.7900   -6.0930 C.3   103  C103        0.2420
   2221  N1        -9.4380  -26.8670   -5.6840 N.ar  103  C103       -0.2535
   2222  C2        -9.9610  -27.9830   -5.0240 C.ar  103  C103        0.3532
   2223  O2       -11.1890  -28.0550   -4.8480 O.2   103  C103       -0.2443
   2224  N3        -9.1180  -28.9590   -4.6060 N.ar  103  C103       -0.1739
   2225  C4        -7.8030  -28.8410   -4.8200 C.ar  103  C103        0.1759
   2226  N4        -7.0050  -29.8260   -4.4020 N.pl3 103  C103       -0.1070
   2227  C5        -7.2460  -27.7100   -5.4790 C.ar  103  C103        0.0566
   2228  C6        -8.0890  -26.7520   -5.8820 C.ar  103  C103        0.0850
   2229  OP1       -5.3720  -22.3910   -8.6150 O.2   103  C103       -0.5172
   2230  OP2       -5.4400  -24.7450   -7.6150 O.co2 103  C103       -0.4373
   2231  P         -9.4330  -22.9580   -2.3730 P.3   104  U104        0.2141
   2232  C5'      -11.7970  -23.6840   -1.4440 C.3   104  U104        0.1812
   2233  O5'      -10.4270  -24.0120   -1.7160 O.3   104  U104       -0.3114
   2234  C4'      -12.4660  -24.8330   -0.7320 C.3   104  U104        0.1773
   2235  O4'      -12.3280  -26.0540   -1.5200 O.3   104  U104       -0.3307
   2236  C3'      -11.8840  -25.2230    0.6180 C.3   104  U104        0.1860
   2237  O3'      -12.2480  -24.4320    1.7440 O.3   104  U104       -0.3112
   2238  C2'      -12.4190  -26.6340    0.7480 C.3   104  U104        0.2309
   2239  O2'      -13.8070  -26.6270    1.0110 O.3   104  U104       -0.2156
   2240  C1'      -12.1340  -27.1660   -0.6530 C.3   104  U104        0.2420
   2241  N1       -10.7590  -27.6690   -0.8230 N.ar  104  U104       -0.2534
   2242  C2       -10.3200  -28.6740    0.0230 C.ar  104  U104        0.3546
   2243  O2       -11.0150  -29.1540    0.9010 O.2   104  U104       -0.2443
   2244  N3        -9.0330  -29.0950   -0.2020 N.ar  104  U104       -0.1530
   2245  C4        -8.1560  -28.6280   -1.1580 C.ar  104  U104        0.2846
   2246  O4        -7.0230  -29.1070   -1.2300 O.2   104  U104       -0.2650
   2247  C5        -8.6820  -27.5900   -1.9890 C.ar  104  U104        0.0814
   2248  C6        -9.9340  -27.1570   -1.7990 C.ar  104  U104        0.0870
   2249  OP1       -9.6980  -21.5970   -1.8080 O.3   104  U104       -0.4373
   2250  OP2       -8.0670  -23.5520   -2.3170 O.co2 104  U104       -0.5172
   2251  P        -11.5560  -24.7200    3.1760 P.3   105  U105        0.2141
   2252  C5'      -13.0030  -26.7430    4.1280 C.3   105  U105        0.1812
   2253  O5'      -11.8410  -26.2680    3.4190 O.3   105  U105       -0.3114
   2254  C4'      -12.6240  -27.9690    4.9150 C.3   105  U105        0.1773
   2255  O4'      -12.0530  -28.9490    4.0160 O.3   105  U105       -0.3307
   2256  C3'      -11.5210  -27.7570    5.9380 C.3   105  U105        0.1860
   2257  O3'      -11.9570  -27.1750    7.1580 O.3   105  U105       -0.3112
   2258  C2'      -10.9810  -29.1670    6.1290 C.3   105  U105        0.2309
   2259  O2'      -11.6470  -29.9920    7.0640 O.3   105  U105       -0.2156
   2260  C1'      -11.0980  -29.7280    4.7160 C.3   105  U105        0.2420
   2261  N1        -9.8120  -29.6430    4.0170 N.ar  105  U105       -0.2534
   2262  C2        -8.9640  -30.7280    4.1150 C.ar  105  U105        0.3546
   2263  O2        -9.2560  -31.7450    4.7220 O.2   105  U105       -0.2443
   2264  N3        -7.7650  -30.5830    3.4650 N.ar  105  U105       -0.1530
   2265  C4        -7.3270  -29.4840    2.7600 C.ar  105  U105        0.2846
   2266  O4        -6.2160  -29.5070    2.2310 O.2   105  U105       -0.2650
   2267  C5        -8.2540  -28.3930    2.7230 C.ar  105  U105        0.0814
   2268  C6        -9.4320  -28.5030    3.3460 C.ar  105  U105        0.0870
   2269  OP1      -12.2250  -23.8650    4.1970 O.3   105  U105       -0.4373
   2270  OP2      -10.0840  -24.6730    3.0080 O.co2 105  U105       -0.5172
   2271  P        -10.9000  -26.9340    8.3290 P.3   106  G106        0.2141
   2272  C5'       -9.7950  -28.7770    9.8610 C.3   106  G106        0.1812
   2273  O5'      -10.9230  -28.3320    9.0940 O.3   106  G106       -0.3114
   2274  C4'       -9.4440  -30.2130    9.5450 C.3   106  G106        0.1773
   2275  O4'       -9.3110  -30.4120    8.1120 O.3   106  G106       -0.3307
   2276  C3'       -8.0940  -30.6210   10.1070 C.3   106  G106        0.1860
   2277  O3'       -8.1750  -30.9100   11.4900 O.3   106  G106       -0.3112
   2278  C2'       -7.6730  -31.7560    9.1910 C.3   106  G106        0.2309
   2279  O2'       -8.1620  -33.0220    9.5500 O.3   106  G106       -0.2156
   2280  C1'       -8.1880  -31.2440    7.8490 C.3   106  G106        0.2408
   2281  N1        -3.5030  -31.2530    5.9090 N.ar  106  G106       -0.1709
   2282  C2        -4.1730  -32.2470    6.5770 C.ar  106  G106        0.2606
   2283  N2        -3.5140  -33.4030    6.7310 N.pl3 106  G106       -0.0859
   2284  N3        -5.4080  -32.1250    7.0390 N.ar  106  G106       -0.1918
   2285  C4        -5.9240  -30.9050    6.7810 C.ar  106  G106        0.1723
   2286  C5        -5.3350  -29.8410    6.1320 C.ar  106  G106        0.1748
   2287  C6        -4.0130  -29.9870    5.6370 C.ar  106  G106        0.3023
   2288  O6        -3.3180  -29.1580    5.0350 O.2   106  G106       -0.2633
   2289  N7        -6.1940  -28.7520    6.0910 N.ar  106  G106       -0.2173
   2290  C8        -7.2680  -29.1640    6.7060 C.ar  106  G106        0.1817
   2291  N9        -7.1750  -30.4650    7.1410 N.ar  106  G106       -0.2693
   2292  OP1      -11.4220  -25.8470    9.1920 O.3   106  G106       -0.4373
   2293  OP2       -9.5530  -26.8010    7.7150 O.co2 106  G106       -0.5172
   2294  P         -7.6610  -29.8300   12.5410 P.3   107  G107        0.2141
   2295  C5'       -5.2900  -30.5910   13.4530 C.3   107  G107        0.1812
   2296  O5'       -6.7180  -30.7280   13.4600 O.3   107  G107       -0.3114
   2297  C4'       -4.6400  -31.6620   12.6110 C.3   107  G107        0.1773
   2298  O4'       -5.0990  -31.5730   11.2370 O.3   107  G107       -0.3307
   2299  C3'       -3.1330  -31.5210   12.4910 C.3   107  G107        0.1860
   2300  O3'       -2.4580  -32.0200   13.6260 O.3   107  G107       -0.3112
   2301  C2'       -2.8430  -32.2970   11.2210 C.3   107  G107        0.2309
   2302  O2'       -2.7800  -33.6940   11.3800 O.3   107  G107       -0.2156
   2303  C1'       -4.0200  -31.8610   10.3530 C.3   107  G107        0.2408
   2304  N1        -0.5110  -29.3320    7.6860 N.ar  107  G107       -0.1709
   2305  C2        -0.4230  -30.5600    8.2900 C.ar  107  G107        0.2606
   2306  N2         0.7520  -31.1920    8.1700 N.pl3 107  G107       -0.0859
   2307  N3        -1.4160  -31.1310    8.9560 N.ar  107  G107       -0.1918
   2308  C4        -2.5170  -30.3480    8.9880 C.ar  107  G107        0.1723
   2309  C5        -2.7040  -29.1030    8.4260 C.ar  107  G107        0.1748
   2310  C6        -1.6370  -28.5120    7.7020 C.ar  107  G107        0.3023
   2311  O6        -1.6130  -27.4210    7.1250 O.2   107  G107       -0.2633
   2312  N7        -3.9870  -28.6370    8.6730 N.ar  107  G107       -0.2173
   2313  C8        -4.5450  -29.5840    9.3780 C.ar  107  G107        0.1817
   2314  N9        -3.7120  -30.6540    9.5980 N.ar  107  G107       -0.2693
   2315  OP1       -8.8430  -29.3660   13.3280 O.3   107  G107       -0.4373
   2316  OP2       -6.8500  -28.8180   11.8110 O.co2 107  G107       -0.5172
   2317  P         -2.0040  -31.0200   14.7890 P.3   108  A108        0.2141
   2318  C5'        0.2220  -32.3740   14.4120 C.3   108  A108        0.1812
   2319  O5'       -0.4180  -31.1170   14.7030 O.3   108  A108       -0.3114
   2320  C4'        1.5370  -32.1370   13.7130 C.3   108  A108        0.1773
   2321  O4'        1.3370  -32.1000   12.2720 O.3   108  A108       -0.3307
   2322  C3'        2.2250  -30.8150   14.0310 C.3   108  A108        0.1860
   2323  O3'        2.9770  -30.8950   15.2240 O.3   108  A108       -0.3112
   2324  C2'        3.0820  -30.6150   12.7960 C.3   108  A108        0.2309
   2325  O2'        4.2570  -31.3920   12.8100 O.3   108  A108       -0.2156
   2326  C1'        2.0970  -31.0400   11.7150 C.3   108  A108        0.2408
   2327  N1         1.7300  -26.5190    9.3660 N.ar  108  A108       -0.2040
   2328  C2         2.7350  -27.3970    9.4940 C.ar  108  A108        0.2016
   2329  N3         2.7510  -28.5710   10.1200 N.ar  108  A108       -0.2048
   2330  C4         1.5560  -28.8240   10.6800 C.ar  108  A108        0.1692
   2331  C5         0.4320  -28.0200   10.6400 C.ar  108  A108        0.1518
   2332  C6         0.5410  -26.8060    9.9400 C.ar  108  A108        0.1919
   2333  N6        -0.4580  -25.9280    9.8150 N.pl3 108  A108       -0.1054
   2334  N7        -0.6180  -28.6090   11.3330 N.ar  108  A108       -0.2193
   2335  C8        -0.1110  -29.7370   11.7710 C.ar  108  A108        0.1816
   2336  N9         1.1950  -29.9380   11.3960 N.ar  108  A108       -0.2693
   2337  OP1       -2.4410  -31.6170   16.0810 O.3   108  A108       -0.4373
   2338  OP2       -2.4320  -29.6290   14.4400 O.co2 108  A108       -0.5172
   2339  P          3.1830  -29.5910   16.0950 P.3   109  A109        0.2141
   2340  C5'        5.2990  -28.9740   14.6330 C.3   109  A109        0.1812
   2341  O5'        3.9870  -28.6380   15.1120 O.3   109  A109       -0.3114
   2342  C4'        5.7730  -27.8600   13.7330 C.3   109  A109        0.1773
   2343  O4'        4.8880  -27.7440   12.5810 O.3   109  A109       -0.3307
   2344  C3'        5.7140  -26.4670   14.3400 C.3   109  A109        0.1860
   2345  O3'        6.7680  -26.1800   15.2380 O.3   109  A109       -0.3112
   2346  C2'        5.7140  -25.6120   13.0950 C.3   109  A109        0.2309
   2347  O2'        6.9930  -25.6430   12.5100 O.3   109  A109       -0.2156
   2348  C1'        4.7130  -26.3750   12.2420 C.3   109  A109        0.2408
   2349  N1         1.1130  -22.8370   11.4060 N.ar  109  A109       -0.2040
   2350  C2         2.3670  -22.9830   10.9580 C.ar  109  A109        0.2016
   2351  N3         3.2480  -23.9450   11.2170 N.ar  109  A109       -0.2048
   2352  C4         2.7240  -24.8510   12.0560 C.ar  109  A109        0.1692
   2353  C5         1.4500  -24.8420   12.5990 C.ar  109  A109        0.1518
   2354  C6         0.6140  -23.7680   12.2430 C.ar  109  A109        0.1919
   2355  N6        -0.6340  -23.6160   12.6880 N.pl3 109  A109       -0.1054
   2356  N7         1.2610  -25.9430   13.4240 N.ar  109  A109       -0.2193
   2357  C8         2.4050  -26.5830   13.3630 C.ar  109  A109        0.1816
   2358  N9         3.3350  -25.9800   12.5450 N.ar  109  A109       -0.2693
   2359  OP1        4.0690  -29.9550   17.2290 O.3   109  A109       -0.4373
   2360  OP2        1.8560  -28.9530   16.3280 O.co2 109  A109       -0.5172
   2361  P          6.4180  -25.3680   16.5720 P.3   110  G110        0.2141
   2362  C5'        7.1930  -23.2340   15.2370 C.3   110  G110        0.1812
   2363  O5'        6.1780  -23.8810   16.0340 O.3   110  G110       -0.3114
   2364  C4'        6.7220  -21.9110   14.6940 C.3   110  G110        0.1773
   2365  O4'        5.6210  -22.0570   13.7450 O.3   110  G110       -0.3307
   2366  C3'        6.1610  -20.9320   15.6910 C.3   110  G110        0.1860
   2367  O3'        7.1950  -20.4250   16.4950 O.3   110  G110       -0.3112
   2368  C2'        5.5040  -19.9370   14.7460 C.3   110  G110        0.2309
   2369  O2'        6.4890  -19.1670   14.0790 O.3   110  G110       -0.2156
   2370  C1'        4.7900  -20.8950   13.7880 C.3   110  G110        0.2408
   2371  N1        -0.2060  -19.8410   14.1420 N.ar  110  G110       -0.1709
   2372  C2         0.7930  -19.0860   13.5930 C.ar  110  G110        0.2606
   2373  N2         0.4120  -17.9100   13.0800 N.pl3 110  G110       -0.0859
   2374  N3         2.0690  -19.4500   13.5570 N.ar  110  G110       -0.1918
   2375  C4         2.2630  -20.6570   14.1240 C.ar  110  G110        0.1723
   2376  C5         1.3270  -21.4990   14.6890 C.ar  110  G110        0.1748
   2377  C6        -0.0340  -21.0930   14.7180 C.ar  110  G110        0.3023
   2378  O6        -1.0110  -21.6980   15.1780 O.2   110  G110       -0.2633
   2379  N7         1.9250  -22.6620   15.1510 N.ar  110  G110       -0.2173
   2380  C8         3.1890  -22.5150   14.8610 C.ar  110  G110        0.1817
   2381  N9         3.4650  -21.3210   14.2370 N.ar  110  G110       -0.2693
   2382  OP1        7.6240  -25.3860   17.4600 O.3   110  G110       -0.4373
   2383  OP2        5.1180  -25.8870   17.0750 O.co2 110  G110       -0.5172
   2384  P          6.8150  -19.6080   17.8100 P.3   111  A111        0.2141
   2385  C5'        6.4950  -17.1970   16.8720 C.3   111  A111        0.1812
   2386  O5'        5.8920  -18.4240   17.2780 O.3   111  A111       -0.3114
   2387  C4'        5.4370  -16.1920   16.5370 C.3   111  A111        0.1773
   2388  O4'        4.4260  -16.8160   15.7120 O.3   111  A111       -0.3307
   2389  C3'        4.6690  -15.6890   17.7460 C.3   111  A111        0.1860
   2390  O3'        5.4400  -14.7280   18.4530 O.3   111  A111       -0.3112
   2391  C2'        3.3380  -15.2640   17.1330 C.3   111  A111        0.2309
   2392  O2'        3.2840  -13.9800   16.5610 O.3   111  A111       -0.2156
   2393  C1'        3.1390  -16.3550   16.0880 C.3   111  A111        0.2408
   2394  N1        -1.5440  -18.1950   17.0650 N.ar  111  A111       -0.2040
   2395  C2        -1.1180  -17.0340   16.5560 C.ar  111  A111        0.2016
   2396  N3         0.1280  -16.6190   16.3290 N.ar  111  A111       -0.2048
   2397  C4         1.0150  -17.5590   16.6980 C.ar  111  A111        0.1692
   2398  C5         0.7320  -18.7980   17.2430 C.ar  111  A111        0.1518
   2399  C6        -0.6260  -19.1210   17.4200 C.ar  111  A111        0.1919
   2400  N6        -1.0530  -20.2760   17.9390 N.pl3 111  A111       -0.1054
   2401  N7         1.9030  -19.4910   17.5190 N.ar  111  A111       -0.2193
   2402  C8         2.8500  -18.6850   17.1080 C.ar  111  A111        0.1816
   2403  N9         2.3830  -17.4940   16.6040 N.ar  111  A111       -0.2693
   2404  OP1        8.0710  -18.9880   18.3230 O.2   111  A111       -0.5172
   2405  OP2        5.9900  -20.4870   18.6800 O.co2 111  A111       -0.4373
   2406  P          5.4820  -14.7940   20.0370 P.3   112  U112        0.2141
   2407  C5'        3.7260  -12.8820   20.0960 C.3   112  U112        0.1812
   2408  O5'        4.0350  -14.2460   20.3990 O.3   112  U112       -0.3114
   2409  C4'        2.2890  -12.5680   20.4230 C.3   112  U112        0.1773
   2410  O4'        1.4080  -13.2850   19.5180 O.3   112  U112       -0.3307
   2411  C3'        1.7720  -12.9840   21.7830 C.3   112  U112        0.1860
   2412  O3'        2.2020  -12.1850   22.8670 O.3   112  U112       -0.3112
   2413  C2'        0.2750  -12.9300   21.5340 C.3   112  U112        0.2309
   2414  O2'       -0.2690  -11.6280   21.3810 O.3   112  U112       -0.2156
   2415  C1'        0.2090  -13.6440   20.1910 C.3   112  U112        0.2420
   2416  N1         0.1660  -15.1090   20.3050 N.ar  112  U112       -0.2534
   2417  C2        -1.0630  -15.7100   20.5190 C.ar  112  U112        0.3546
   2418  O2        -2.0980  -15.0800   20.6440 O.2   112  U112       -0.2443
   2419  N3        -1.0300  -17.0800   20.5880 N.ar  112  U112       -0.1530
   2420  C4         0.0750  -17.8990   20.4590 C.ar  112  U112        0.2846
   2421  O4        -0.0630  -19.1230   20.5470 O.2   112  U112       -0.2650
   2422  C5         1.3040  -17.2050   20.2140 C.ar  112  U112        0.0814
   2423  C6         1.3090  -15.8670   20.1550 C.ar  112  U112        0.0870
   2424  OP1        6.5200  -13.8270   20.4960 O.3   112  U112       -0.4373
   2425  OP2        5.5860  -16.2230   20.4230 O.co2 112  U112       -0.5172
   2426  P          2.3490  -12.8620   24.3190 P.3   113  A113        0.2141
   2427  C5'       -0.0470  -11.9020   24.8230 C.3   113  A113        0.1812
   2428  O5'        0.8330  -13.0410   24.7750 O.3   113  A113       -0.3114
   2429  C4'       -1.4790  -12.3680   24.9650 C.3   113  A113        0.1773
   2430  O4'       -1.7880  -13.3240   23.9160 O.3   113  A113       -0.3307
   2431  C3'       -1.8110  -13.1160   26.2530 C.3   113  A113        0.1860
   2432  O3'       -2.1890  -12.2530   27.3080 O.3   113  A113       -0.3112
   2433  C2'       -3.0230  -13.9300   25.8490 C.3   113  A113        0.2309
   2434  O2'       -4.1880  -13.1270   25.9770 O.3   113  A113       -0.2156
   2435  C1'       -2.6160  -14.3520   24.4340 C.3   113  A113        0.2408
   2436  N1        -2.8430  -19.4960   24.0530 N.ar  113  A113       -0.2040
   2437  C2        -3.7960  -18.5660   24.2010 C.ar  113  A113        0.2016
   2438  N3        -3.6760  -17.2400   24.2990 N.ar  113  A113       -0.2048
   2439  C4        -2.3830  -16.8740   24.2460 C.ar  113  A113        0.1692
   2440  C5        -1.2900  -17.7130   24.1150 C.ar  113  A113        0.1518
   2441  C6        -1.5530  -19.0960   24.0090 C.ar  113  A113        0.1919
   2442  N6        -0.6030  -20.0240   23.8750 N.pl3 113  A113       -0.1054
   2443  N7        -0.1130  -16.9790   24.0810 N.ar  113  A113       -0.2193
   2444  C8        -0.5090  -15.7380   24.2260 C.ar  113  A113        0.1816
   2445  N9        -1.8680  -15.6010   24.3380 N.ar  113  A113       -0.2693
   2446  OP1        3.0170  -11.8600   25.1900 O.3   113  A113       -0.4373
   2447  OP2        2.9530  -14.2220   24.1710 O.co2 113  A113       -0.5172
   2448  P         -1.9340  -12.7070   28.8130 P.3   114  A114        0.2141
   2449  C5'       -4.4580  -13.2490   29.2530 C.3   114  A114        0.1812
   2450  O5'       -3.1290  -13.7220   29.0520 O.3   114  A114       -0.3114
   2451  C4'       -5.3140  -14.4330   29.5600 C.3   114  A114        0.1773
   2452  O4'       -5.2550  -15.3570   28.4420 O.3   114  A114       -0.3307
   2453  C3'       -4.8170  -15.2670   30.7270 C.3   114  A114        0.1860
   2454  O3'       -5.1050  -14.6090   31.9490 O.3   114  A114       -0.3112
   2455  C2'       -5.4860  -16.6010   30.4360 C.3   114  A114        0.2309
   2456  O2'       -6.8720  -16.6870   30.7260 O.3   114  A114       -0.2156
   2457  C1'       -5.2800  -16.6900   28.9250 C.3   114  A114        0.2408
   2458  N1        -2.9380  -20.9950   27.3640 N.ar  114  A114       -0.2040
   2459  C2        -4.2150  -20.7310   27.6710 C.ar  114  A114        0.2016
   2460  N3        -4.7630  -19.5880   28.0870 N.ar  114  A114       -0.2048
   2461  C4        -3.8350  -18.6170   28.1580 C.ar  114  A114        0.1692
   2462  C5        -2.4850  -18.7400   27.8850 C.ar  114  A114        0.1518
   2463  C6        -2.0300  -19.9990   27.4670 C.ar  114  A114        0.1919
   2464  N6        -0.7580  -20.2590   27.1720 N.pl3 114  A114       -0.1054
   2465  N7        -1.8290  -17.5380   28.1040 N.ar  114  A114       -0.2193
   2466  C8        -2.7810  -16.7260   28.4950 C.ar  114  A114        0.1816
   2467  N9        -4.0200  -17.3150   28.5510 N.ar  114  A114       -0.2693
   2468  OP1       -2.1090  -11.4910   29.6520 O.3   114  A114       -0.4373
   2469  OP2       -0.6750  -13.5310   28.8900 O.co2 114  A114       -0.5172
   2470  P         -4.4160  -15.1130   33.2950 P.3   115  G115        0.2141
   2471  C5'       -4.5770  -17.4870   34.2950 C.3   115  G115        0.1812
   2472  O5'       -5.2090  -16.4580   33.5650 O.3   115  G115       -0.3114
   2473  C4'       -5.3200  -18.7570   34.0620 C.3   115  G115        0.1773
   2474  O4'       -5.5490  -18.9240   32.6370 O.3   115  G115       -0.3307
   2475  C3'       -4.5700  -20.0120   34.4790 C.3   115  G115        0.1860
   2476  O3'       -4.7350  -20.2630   35.8560 O.3   115  G115       -0.3112
   2477  C2'       -5.1940  -21.0310   33.5500 C.3   115  G115        0.2309
   2478  O2'       -6.5210  -21.3400   33.9470 O.3   115  G115       -0.2156
   2479  C1'       -5.1400  -20.2310   32.2520 C.3   115  G115        0.2408
   2480  N1        -1.2750  -22.8390   30.2620 N.ar  115  G115       -0.1709
   2481  C2        -2.4990  -23.2840   30.7010 C.ar  115  G115        0.2606
   2482  N2        -2.7290  -24.5980   30.5870 N.pl3 115  G115       -0.0859
   2483  N3        -3.4350  -22.4960   31.2020 N.ar  115  G115       -0.1918
   2484  C4        -3.0370  -21.2100   31.2500 C.ar  115  G115        0.1723
   2485  C5        -1.8370  -20.6630   30.8450 C.ar  115  G115        0.1748
   2486  C6        -0.8480  -21.5150   30.2930 C.ar  115  G115        0.3023
   2487  O6         0.2820  -21.2210   29.8830 O.2   115  G115       -0.2633
   2488  N7        -1.8230  -19.2920   31.0590 N.ar  115  G115       -0.2173
   2489  C8        -2.9890  -19.0360   31.5860 C.ar  115  G115        0.1817
   2490  N9        -3.7820  -20.1540   31.7120 N.ar  115  G115       -0.2693
   2491  OP1       -4.6590  -14.0820   34.3270 O.3   115  G115       -0.4373
   2492  OP2       -3.0130  -15.5240   33.0010 O.co2 115  G115       -0.5172
   2493  P         -3.5950  -19.8490   36.8890 P.3   116  A116        0.2141
   2494  C5'       -4.0860  -22.3800   37.3190 C.3   116  A116        0.1812
   2495  O5'       -3.1770  -21.2730   37.4600 O.3   116  A116       -0.3114
   2496  C4'       -3.3750  -23.5510   36.7110 C.3   116  A116        0.1773
   2497  O4'       -3.1820  -23.3420   35.2900 O.3   116  A116       -0.3307
   2498  C3'       -1.9530  -23.7740   37.2090 C.3   116  A116        0.1860
   2499  O3'       -1.8850  -24.2870   38.5320 O.3   116  A116       -0.3112
   2500  C2'       -1.4070  -24.6890   36.1230 C.3   116  A116        0.2309
   2501  O2'       -1.7660  -26.0460   36.2690 O.3   116  A116       -0.2156
   2502  C1'       -2.0020  -24.0290   34.8770 C.3   116  A116        0.2408
   2503  N1         2.1480  -23.4620   31.9180 N.ar  116  A116       -0.2040
   2504  C2         1.4630  -24.5430   32.3190 C.ar  116  A116        0.2016
   2505  N3         0.3830  -24.6140   33.0960 N.ar  116  A116       -0.2048
   2506  C4         0.0000  -23.3870   33.4900 C.ar  116  A116        0.1692
   2507  C5         0.6020  -22.1850   33.1620 C.ar  116  A116        0.1518
   2508  C6         1.7310  -22.2430   32.3260 C.ar  116  A116        0.1919
   2509  N6         2.4100  -21.1680   31.9210 N.pl3 116  A116       -0.1054
   2510  N7        -0.0750  -21.1230   33.7460 N.ar  116  A116       -0.2193
   2511  C8        -1.0520  -21.6980   34.4070 C.ar  116  A116        0.1816
   2512  N9        -1.0750  -23.0660   34.2810 N.ar  116  A116       -0.2693
   2513  OP1       -4.2440  -19.0080   37.9250 O.3   116  A116       -0.4373
   2514  OP2       -2.4270  -19.3220   36.1440 O.co2 116  A116       -0.5172
   2515  P         -0.7500  -23.7750   39.5440 P.3   117  A117        0.2141
   2516  C5'        1.3690  -25.3220   40.0400 C.3   117  A117        0.1812
   2517  O5'       -0.0650  -25.1490   39.9870 O.3   117  A117       -0.3114
   2518  C4'        1.8110  -26.4290   39.1080 C.3   117  A117        0.1773
   2519  O4'        1.2100  -26.2330   37.7960 O.3   117  A117       -0.3307
   2520  C3'        3.3180  -26.5010   38.8530 C.3   117  A117        0.1860
   2521  O3'        4.0460  -27.2510   39.8150 O.3   117  A117       -0.3112
   2522  C2'        3.3980  -27.0830   37.4450 C.3   117  A117        0.2309
   2523  O2'        3.4360  -28.4900   37.3050 O.3   117  A117       -0.2156
   2524  C1'        2.1930  -26.4100   36.7890 C.3   117  A117        0.2408
   2525  N1         4.9960  -23.9880   33.2630 N.ar  117  A117       -0.2040
   2526  C2         4.8170  -25.2850   33.5440 C.ar  117  A117        0.2016
   2527  N3         4.0630  -25.8440   34.4860 N.ar  117  A117       -0.2048
   2528  C4         3.4330  -24.9040   35.2090 C.ar  117  A117        0.1692
   2529  C5         3.5110  -23.5360   35.0370 C.ar  117  A117        0.1518
   2530  C6         4.3440  -23.0700   34.0060 C.ar  117  A117        0.1919
   2531  N6         4.5290  -21.7790   33.7280 N.pl3 117  A117       -0.1054
   2532  N7         2.7250  -22.8780   35.9720 N.ar  117  A117       -0.2193
   2533  C8         2.1900  -23.8490   36.6710 C.ar  117  A117        0.1816
   2534  N9         2.5590  -25.1020   36.2490 N.ar  117  A117       -0.2693
   2535  OP1       -1.4410  -23.1460   40.6890 O.3   117  A117       -0.4373
   2536  OP2        0.2310  -22.9550   38.7970 O.co2 117  A117       -0.5172
   2537  P          4.7700  -26.4870   41.0190 P.3   118  C118        0.2141
   2538  C5'        7.1490  -27.6280   40.7910 C.3   118  C118        0.1813
   2539  O5'        6.3040  -26.4770   40.5900 O.3   118  C118       -0.3114
   2540  C4'        8.4990  -27.4180   40.1430 C.3   118  C118        0.1801
   2541  O4'        8.3580  -27.4450   38.6940 O.3   118  C118       -0.3306
   2542  C3'        9.1870  -26.0940   40.4480 C.3   118  C118        0.2161
   2543  O3'        9.8800  -26.1230   41.6910 O.3   118  C118       -0.2175
   2544  C2'       10.0810  -25.9110   39.2240 C.3   118  C118        0.2338
   2545  O2'       11.3300  -26.5740   39.2430 O.3   118  C118       -0.2155
   2546  C1'        9.1690  -26.4350   38.1130 C.3   118  C118        0.2421
   2547  N1         8.2950  -25.3780   37.5650 N.ar  118  C118       -0.2535
   2548  C2         8.7810  -24.5750   36.5270 C.ar  118  C118        0.3532
   2549  O2         9.9150  -24.8020   36.0690 O.2   118  C118       -0.2443
   2550  N3         8.0000  -23.5810   36.0410 N.ar  118  C118       -0.1739
   2551  C4         6.7860  -23.3740   36.5560 C.ar  118  C118        0.1759
   2552  N4         6.0540  -22.3810   36.0500 N.pl3 118  C118       -0.1070
   2553  C5         6.2730  -24.1700   37.6190 C.ar  118  C118        0.0566
   2554  C6         7.0550  -25.1470   38.0940 C.ar  118  C118        0.0850
   2555  OP1        4.6370  -27.3360   42.2290 O.3   118  C118       -0.4373
   2556  OP2        4.2840  -25.0760   41.0440 O.co2 118  C118       -0.5172
@<TRIPOS>BOND
     1  2096  2095    2
     2  2089  2095   ar
     3  2089  2090   ar
     4  2095  2094   ar
     5  2091  2090    1
     6  2090  2092   ar
     7  2094  2097   ar
     8  2094  2093   ar
     9  2097  2098   ar
    10  2092  2093   ar
    11  2093  2099   ar
    12  2098  2099   ar
    13  2099  2088    1
    14  2088  2083    1
    15  2088  2086    1
    16  2083  2082    1
    17  2100  2079    2
    18  2112  2113   ar
    19  2112  2117   ar
    20  2113  2114   ar
    21  2087  2086    1
    22  2118  2117    1
    23  2086  2084    1
    24  2117  2116   ar
    25  2114  2115   ar
    26  2082  2080    1
    27  2082  2084    1
    28  2081  2080    1
    29  2081  2079    1
    30  2135  2134   ar
    31  2135  2136   ar
    32  2079  2065    1
    33  2079  2101    1
    34  2115  2116   ar
    35  2115  2121   ar
    36  2116  2119   ar
    37  2134  2139   ar
    38  2067  2066    1
    39  2084  2085    1
    40  2065  2064    1
    41  2136  2137   ar
    42  2121  2111    1
    43  2121  2120   ar
    44  2119  2120   ar
    45  2111  2106    1
    46  2111  2109    1
    47  2106  2105    1
    48  2139  2140    1
    49  2139  2138   ar
    50  2085  2102    1
    51  2066  2064    1
    52  2066  2068    1
    53  2137  2138   ar
    54  2137  2143   ar
    55  2158  2157    2
    56  2064  2062    1
    57  2110  2109    1
    58  2138  2141   ar
    59  2154  2153    1
    60  2109  2107    1
    61  2062  2063    1
    62  2062  2060    1
    63  2133  2143    1
    64  2133  2128    1
    65  2133  2131    1
    66  2143  2142   ar
    67  2132  2131    1
    68  2157  2159   ar
    69  2157  2156   ar
    70  2105  2103    1
    71  2105  2107    1
    72  2068  2063    1
    73  2068  2069    1
    74  2159  2160   ar
    75  2123  2102    2
    76  2102  2104    1
    77  2102  2122    1
    78  2128  2127    1
    79  2153  2155    1
    80  2153  2151    1
    81  2155  2156    1
    82  2155  2150    1
    83  2131  2129    1
    84  2141  2142   ar
    85  2060  2061    1
    86  2104  2103    1
    87  2107  2108    1
    88  2186  2166    2
    89  2156  2163   ar
    90  2071  2070    2
    91  2160  2161    1
    92  2160  2162   ar
    93  2061  2059    1
    94  2069  2070   ar
    95  2069  2076   ar
    96  2077  2059    2
    97  2150  2149    1
    98  2163  2162   ar
    99  2070  2072   ar
   100  2127  2129    1
   101  2127  2125    1
   102  2209  2188    2
   103  2210  2188    1
   104  2108  2124    1
   105  2151  2152    1
   106  2151  2149    1
   107  2129  2130    1
   108  2166  2152    1
   109  2166  2187    1
   110  2166  2168    1
   111  2076  2075   ar
   112  2059  2078    1
   113  2059  2045    1
   114  2149  2147    1
   115  2126  2125    1
   116  2126  2124    1
   117  2188  2172    1
   118  2188  2190    1
   119  2130  2146    1
   120  2072  2073   ar
   121  2124  2145    2
   122  2124  2144    1
   123  2172  2171    1
   124  2075  2073   ar
   125  2045  2044    1
   126  2168  2167    1
   127  2167  2169    1
   128  2073  2074    1
   129  2147  2148    1
   130  2171  2169    1
   131  2171  2173    1
   132  2189  2190    1
   133  2189  2191    1
   134  2192  2191    1
   135  2192  2197    1
   136  2148  2146    1
   137  2044  2046    1
   138  2044  2042    1
   139  2169  2170    1
   140  2191  2193    1
   141  2146  2164    2
   142  2146  2165    1
   143  2047  2046    1
   144  2046  2048    1
   145  2051  2050    2
   146  2050  2052   ar
   147  2050  2049   ar
   148  2196  2195    1
   149  2052  2053   ar
   150  2197  2195    1
   151  2197  2208    1
   152  2173  2174    1
   153  2173  2175    1
   154  2042  2040    1
   155  2042  2043    1
   156  2193  2194    1
   157  2193  2195    1
   158  2170  2175    1
   159  2194  2211    1
   160  2048  2049    1
   161  2048  2043    1
   162  2054  2053    2
   163  2049  2056   ar
   164  2053  2055   ar
   165  2040  2041    1
   166  2208  2207   ar
   167  2208  2202   ar
   168  2175  2185    1
   169  2056  2055   ar
   170  2207  2206   ar
   171  2184  2185   ar
   172  2184  2183   ar
   173  2201  2202   ar
   174  2201  2199   ar
   175  2202  2203   ar
   176  2185  2179   ar
   177  2229  2211    2
   178   644   626    2
   179  2057  2039    2
   180  2211  2213    1
   181  2211  2230    1
   182  2041  2039    1
   183  2206  2203   ar
   184  2058  2039    1
   185   664   646    2
   186  2183  2180   ar
   187  2203  2204   ar
   188  2199  2200    1
   189  2199  2198   ar
   190  2039  2025    1
   191  2213  2212    1
   192  2179  2180   ar
   193  2179  2178   ar
   194  2180  2181   ar
   195  2178  2177   ar
   196   746   745    1
   197   627   628    1
   198   627   629    1
   199  2198  2204   ar
   200  2204  2205    2
   201   626   609    1
   202   626   628    1
   203   626   645    1
   204   665   646    1
   205   646   632    1
   206   646   648    1
   207   632   631    1
   208  2215  2214    1
   209  2215  2220    1
   210   609   608    1
   211  2181  2182    1
   212  2181  2176   ar
   213  2177  2176   ar
   214  2212  2214    1
   215  2025  2024    1
   216   629   631    1
   217   629   630    1
   218  2214  2216    1
   219   745   744   ar
   220   745   747   ar
   221  2220  2221    1
   222  2220  2218    1
   223   631   633    1
   224  2026  2027    1
   225  2026  2024    1
   226  2026  2028    1
   227   744   742   ar
   228  2032  2030   ar
   229  2032  2033   ar
   230   611   610    1
   231  2031  2030    2
   232  2034  2033    1
   233  2228  2221   ar
   234  2228  2227   ar
   235  2024  2022    1
   236  2221  2222   ar
   237   648   647    1
   238  2030  2029   ar
   239  2033  2035   ar
   240   647   649    1
   241  2227  2225   ar
   242   608   606    1
   243   608   610    1
   244   606   604    1
   245   606   607    1
   246   630   635    1
   247  2219  2218    1
   248   747   748   ar
   249  2029  2036   ar
   250  2029  2028    1
   251   604   605    1
   252  2222  2223    2
   253  2222  2224   ar
   254  2035  2036   ar
   255   634   633    1
   256   610   612    1
   257  2218  2216    1
   258  2225  2224   ar
   259  2225  2226    1
   260   685   666    2
   261  2028  2023    1
   262   633   635    1
   263  2216  2217    1
   264   742   743    2
   265   742   741   ar
   266   684   666    1
   267  2021  2019    1
   268  2021  2020    1
   269   624   603    2
   270  2038  2019    2
   271  2022  2020    1
   272  2022  2023    1
   273   666   652    1
   274   666   668    1
   275   649   651    1
   276   649   650    1
   277   652   651    1
   278  2037  2019    1
   279   635   636    1
   280   607   612    1
   281  2019  2002    1
   282  2217  2231    1
   283   748   741   ar
   284   612   623    1
   285   643   636   ar
   286   643   642   ar
   287   605   603    1
   288  2013  2012    2
   289   741   740    1
   290   651   653    1
   291   588   587    1
   292   603   586    1
   293   603   625    1
   294   636   637   ar
   295   650   655    1
   296  2006  2012   ar
   297  2006  2007   ar
   298  2012  2011   ar
   299   749   731    2
   300   642   640   ar
   301  2008  2007    1
   302  2007  2009   ar
   303   668   667    1
   304   708   686    2
   305   586   585    1
   306   623   617   ar
   307   623   622   ar
   308   663   662   ar
   309   663   656   ar
   310  2011  2014   ar
   311  2011  2010   ar
   312  2231  2250    2
   313  2231  2249    1
   314  2231  2233    1
   315  2002  2001    1
   316   740   735    1
   317   740   738    1
   318   616   617   ar
   319   616   614   ar
   320   662   660   ar
   321  1875  1874    1
   322  2014  2015   ar
   323   715   731    1
   324   715   714    1
   325   653   655    1
   326   653   654    1
   327   587   585    1
   328   587   589    1
   329  2247  2248   ar
   330  2247  2245   ar
   331   637   638    2
   332   637   639   ar
   333  2009  2010   ar
   334   655   656    1
   335   703   702    2
   336   730   709    2
   337  2010  2016   ar
   338   617   618   ar
   339  2248  2241   ar
   340   622   621   ar
   341   667   669    1
   342   731   750    1
   343   731   733    1
   344  2233  2232    1
   345   615   614    1
   346   735   734    1
   347  2001  2003    1
   348  2001  1999    1
   349   592   591    1
   350   640   639   ar
   351   640   641    1
   352   656   657   ar
   353  2003  2004    1
   354  2003  2005    1
   355  2235  2234    1
   356  2235  2240    1
   357   585   583    1
   358   614   613   ar
   359  2232  2234    1
   360  2015  2016   ar
   361   738   739    1
   362   738   736    1
   363   707   686    1
   364   710   711    1
   365   710   712    1
   366   686   672    1
   367   686   688    1
   368  2016  2005    1
   369  2246  2245    2
   370  2018  1996    2
   371  2245  2244   ar
   372   714   712    1
   373   714   716    1
   374  2017  1996    1
   375   593   591   ar
   376   593   594   ar
   377   702   701   ar
   378   702   696   ar
   379  1895  1894    1
   380   589   584    1
   381   589   600    1
   382   682   683   ar
   383   682   680   ar
   384   660   661    1
   385   660   659   ar
   386  1879  1878    2
   387   704   701   ar
   388   704   705   ar
   389   591   590   ar
   390  1998  1996    1
   391  1998  1997    1
   392  1874  1876    1
   393  1874  1872    1
   394   583   584    1
   395   583   581    1
   396  1876  1871    1
   397  1876  1877    1
   398   193   194   ar
   399   193   198   ar
   400  2241  2240    1
   401  2241  2242   ar
   402   618   621   ar
   403   618   619   ar
   404  1891  1890    1
   405  1891  1896    1
   406  1890  1888    1
   407  1890  1892    1
   408   733   732    1
   409  2234  2236    1
   410  1791  1790    1
   411   709   711    1
   412   709   729    1
   413   709   692    1
   414  2240  2238    1
   415  1996  1980    1
   416  1871  1870    1
   417   683   676   ar
   418  2005  2000    1
   419   712   713    1
   420  1821  1820    1
   421   736   734    1
   422   736   737    1
   423  1888  1889    1
   424   672   671    1
   425   194   195   ar
   426   701   700   ar
   427  1990  1989    1
   428   657   659   ar
   429   657   658    2
   430   734   732    1
   431   669   671    1
   432   669   670    1
   433   613   619   ar
   434   688   687    1
   435   671   673    1
   436  1870  1872    1
   437  1870  1868    1
   438  1896  1894    1
   439  1896  1906    1
   440   199   198    1
   441   696   697   ar
   442  1999  1997    1
   443  1999  2000    1
   444   681   680    1
   445  2244  2242   ar
   446  1859  1858    2
   447   594   600   ar
   448   594   595   ar
   449   705   706   ar
   450  1873  1872    1
   451  1873  1887    1
   452   600   599   ar
   453  2242  2243    2
   454   619   620    2
   455   198   197   ar
   456  1894  1892    1
   457   680   679   ar
   458   716   717    1
   459   716   718    1
   460  1878  1877   ar
   461  1878  1880   ar
   462  1794  1795   ar
   463  1794  1793   ar
   464  1795  1796   ar
   465   590   596   ar
   466   670   675    1
   467   581   582    1
   468  1877  1884   ar
   469  1893  1892    1
   470  1893  1909    1
   471  1989  1984   ar
   472  1989  1988   ar
   473  1984  1985   ar
   474  1855  1854    1
   475  1771  1772   ar
   476  1771  1776   ar
   477  1772  1773   ar
   478  1820  1815   ar
   479  1820  1819   ar
   480  1889  1887    1
   481   692   691    1
   482  1826  1805    2
   483  2236  2238    1
   484  2236  2237    1
   485   700   706   ar
   486   700   699   ar
   487  1790  1792    1
   488  1790  1788    1
   489  1995  1974    2
   490   676   675    1
   491   676   677   ar
   492   195   196   ar
   493  1868  1869    1
   494   691   693    1
   495   691   689    1
   496  2238  2239    1
   497  1907  1887    2
   498   737   751    1
   499   713   718    1
   500  1910  1912    1
   501  1910  1911    1
   502   697   699   ar
   503   697   698    1
   504  1825  1805    1
   505  1906  1900   ar
   506  1906  1905   ar
   507  1822  1819   ar
   508  1822  1823   ar
   509   582   580    1
   510   706   695    1
   511  1792  1787    1
   512  1792  1802    1
   513   595   596   ar
   514   595   598   ar
   515  1988  1991   ar
   516  1988  1987   ar
   517  1980  1979    1
   518  1887  1908    1
   519   601   580    2
   520  1991  1992   ar
   521   687   689    1
   522   673   675    1
   523   673   674    1
   524   599   598   ar
   525  1912  1913    1
   526  1912  1914    1
   527  1858  1860   ar
   528  1858  1857   ar
   529  1880  1881   ar
   530   507   506    1
   531  1789  1805    1
   532  1789  1788    1
   533   596   597    2
   534  1793  1798   ar
   535   466   465    2
   536  1815  1816   ar
   537  1899  1900   ar
   538  1899  1898   ar
   539  1819  1818   ar
   540   721   720   ar
   541   721   722   ar
   542  1985  1986   ar
   543   718   728    1
   544  1805  1807    1
   545   679   677   ar
   546  1913  1918    1
   547   197   196   ar
   548   197   200   ar
   549  1884  1883   ar
   550  1854  1856    1
   551  1854  1852    1
   552  1796  1802   ar
   553  1796  1797   ar
   554  1994  1974    1
   555  1930  1909    2
   556  1951  1932    2
   557   720   719   ar
   558   693   695    1
   559   693   694    1
   560  1860  1861   ar
   561   772   751    2
   562  1900  1901   ar
   563  1787  1786    1
   564   196   202   ar
   565  1773  1774   ar
   566  1905  1904   ar
   567  1786  1788    1
   568  1786  1784    1
   569  1979  1981    1
   570  1979  1977    1
   571   677   678    2
   572  1909  1911    1
   573  1909  1931    1
   574   689   690    1
   575  1856  1857    1
   576  1856  1851    1
   577  1777  1776    1
   578  1776  1775   ar
   579  1974  1976    1
   580  1974  1958    1
   581  1968  1967    1
   582  1987  1986   ar
   583  1987  1993   ar
   584  2237  2251    1
   585  1992  1993   ar
   586   580   602    1
   587   580   566    1
   588  1915  1914    1
   589  1915  1932    1
   590  1823  1824   ar
   591  1802  1801   ar
   592  1973  1952    2
   593   722   728   ar
   594   722   723   ar
   595   751   773    1
   596   751   753    1
   597   728   727   ar
   598   489   488    2
   599  1869  1867    1
   600  1976  1975    1
   601   695   690    1
   602   505   506   ar
   603   505   511   ar
   604  1898  1897   ar
   605  1857  1864   ar
   606   719   724   ar
   607   506   508   ar
   608  1881  1883   ar
   609  1881  1882    1
   610  2266  2265    2
   611  1993  1983    1
   612  1816  1817   ar
   613  1914  1916    1
   614   465   459   ar
   615   465   464   ar
   616  1981  1983    1
   617  1981  1982    1
   618  1818  1824   ar
   619  1818  1817   ar
   620  1798  1797   ar
   621  1798  1799    1
   622  1975  1977    1
   623  1917  1916    1
   624  1969  1966   ar
   625  1969  1970   ar
   626   200   201   ar
   627  1918  1916    1
   628  1918  1929    1
   629  1932  1934    1
   630  1932  1950    1
   631   482   488   ar
   632   482   483   ar
   633  1797  1800   ar
   634  1901  1904   ar
   635  1901  1902   ar
   636  1967  1966   ar
   637  1967  1962   ar
   638   723   724   ar
   639   723   726   ar
   640   727   726   ar
   641  1774  1775   ar
   642  1774  1780   ar
   643   512   511    2
   644  1972  1952    1
   645  1853  1852    1
   646  1853  1867    1
   647   459   460   ar
   648  1851  1850    1
   649   724   725    1
   650  1824  1814    1
   651  2267  2265   ar
   652  2267  2268   ar
   653   488   487   ar
   654  1977  1978    1
   655   568   567    1
   656  2265  2264   ar
   657  1861  1862    1
   658  1861  1863   ar
   659  1852  1850    1
   660  1784  1785    1
   661   202   201   ar
   662   202   192    1
   663  1775  1778   ar
   664  1807  1806    1
   665  1966  1965   ar
   666  1952  1954    1
   667  1952  1938    1
   668   511   510   ar
   669   572   571    2
   670  2270  2251    2
   671   566   565    1
   672   484   483    1
   673  1970  1971   ar
   674  1897  1902   ar
   675  1983  1978    1
   676  1958  1957    1
   677  1954  1953    1
   678  1867  1885    2
   679  1867  1886    1
   680  1801  1800   ar
   681  2251  2253    1
   682  2251  2269    1
   683   755   754    1
   684   755   760    1
   685  1962  1963   ar
   686  1934  1933    1
   687   753   752    1
   688  1850  1848    1
   689   567   565    1
   690   567   569    1
   691   752   754    1
   692   508   509   ar
   693   464   467   ar
   694   464   463   ar
   695   467   468   ar
   696  2268  2261   ar
   697  1769  1768    1
   698  1902  1903    1
   699  1864  1863   ar
   700  1929  1928   ar
   701  1929  1923   ar
   702   483   485   ar
   703  1806  1808    1
   704  2253  2252    1
   705  1809  1814    1
   706  1809  1808    1
   707  2264  2262   ar
   708  1957  1959    1
   709  1957  1955    1
   710  1947  1946    1
   711   192   187    1
   712   192   190    1
   713  1928  1927   ar
   714  1948  1946   ar
   715  1948  1949   ar
   716   571   573   ar
   717   571   570   ar
   718   565   563    1
   719   770   769   ar
   720   770   771   ar
   721  1965  1971   ar
   722  1965  1964   ar
   723   573   574   ar
   724   191   190    1
   725   754   756    1
   726  1814  1812    1
   727  1780  1770    1
   728  1780  1779   ar
   729  1768  1770    1
   730  1768  1766    1
   731   769   766   ar
   732   460   461    1
   733   460   462   ar
   734  1971  1961    1
   735  1785  1783    1
   736  2255  2260    1
   737  2255  2254    1
   738   487   490   ar
   739   487   486   ar
   740  2261  2262   ar
   741  2261  2260    1
   742   437   438   ar
   743   437   442   ar
   744  1963  1964   ar
   745  1953  1955    1
   746  1946  1945   ar
   747  1959  1961    1
   748  1959  1960    1
   749   225   205    2
   750   248   227    2
   751   760   771    1
   752   760   758    1
   753  2262  2263    2
   754  1778  1779   ar
   755  2252  2254    1
   756   771   765   ar
   757   510   509   ar
   758   510   513   ar
   759   438   439   ar
   760  1770  1765    1
   761   187   186    1
   762   509   515   ar
   763  1949  1942   ar
   764  1938  1937    1
   765  1808  1810    1
   766  1923  1922   ar
   767  1923  1924   ar
   768  1933  1935    1
   769   766   765   ar
   770   766   767   ar
   771  1927  1924   ar
   772  1937  1935    1
   773  1937  1939    1
   774   569   570    1
   775   569   564    1
   776   468   469   ar
   777   463   462   ar
   778   463   469   ar
   779  1922  1920   ar
   780   190   188    1
   781  1955  1956    1
   782   765   764   ar
   783   575   574    2
   784  1812  1810    1
   785  1812  1813    1
   786   570   577   ar
   787   443   442    1
   788   485   486   ar
   789   574   576   ar
   790   490   491   ar
   791   768   767    2
   792  1848  1849    1
   793   442   441   ar
   794  2260  2258    1
   795   767   761   ar
   796  1961  1956    1
   797   794   774    2
   798   435   434    1
   799   486   492   ar
   800   189   205    1
   801   189   188    1
   802   439   440   ar
   803  2254  2256    1
   804   764   762   ar
   805  1924  1925   ar
   806  2288  2287    2
   807   206   208    1
   808   206   207    1
   809  1945  1943   ar
   810   563   564    1
   811   563   561    1
   812   761   762   ar
   813   315   295    2
   814  1935  1936    1
   815   762   763    1
   816   469   458    1
   817  1810  1811    1
   818  1766  1767    1
   819  1766  1764    1
   820   205   207    1
   821   205   226    1
   822  1767  1783    1
   823   756   758    1
   824   756   757    1
   825   513   514   ar
   826  1942  1943   ar
   827  1942  1941    1
   828   577   576   ar
   829  1783  1803    2
   830  1783  1804    1
   831  1849  1847    1
   832   186   188    1
   833   186   184    1
   834   227   249    1
   835   227   211    1
   836   227   229    1
   837   515   504    1
   838   515   514   ar
   839   758   759    1
   840  1920  1921    1
   841  1920  1919   ar
   842  1939  1941    1
   843  1939  1940    1
   844   441   440   ar
   845   441   444   ar
   846   440   446   ar
   847  1765  1764    1
   848  2287  2281   ar
   849  2287  2286   ar
   850   491   492   ar
   851  1936  1941    1
   852  1943  1944    2
   853   211   210    1
   854   208   210    1
   855   208   209    1
   856  2281  2282   ar
   857  2256  2258    1
   858  2256  2257    1
   859   434   436    1
   860   434   432    1
   861   492   481    1
   862   562   561    1
   863   562   560    1
   864  1925  1919   ar
   865  1925  1926    2
   866   778   783    1
   867   778   777    1
   868   504   502    1
   869   504   499    1
   870  2289  2286   ar
   871  2289  2290   ar
   872  2258  2259    1
   873  2286  2285   ar
   874  1764  1762    1
   875   774   757    1
   876   774   776    1
   877   774   795    1
   878   444   445   ar
   879   270   250    2
   880   446   436    1
   881   446   445   ar
   882   337   317    2
   883   502   503    1
   884   502   500    1
   885  1811  1827    1
   886   295   316    1
   887   295   297    1
   888   295   278    1
   889   471   449    2
   890   783   793    1
   891   783   781    1
   892   776   775    1
   893   271   250    1
   894  2282  2283    1
   895  2282  2284   ar
   896   184   185    1
   897   433   432    1
   898   433   449    1
   899   229   228    1
   900   458   453    1
   901   458   456    1
   902   210   212    1
   903  2290  2291   ar
   904   436   431    1
   905   579   560    2
   906   792   793   ar
   907   792   791   ar
   908   297   296    1
   909  2285  2284   ar
   910  2285  2291   ar
   911   578   560    1
   912   782   781    1
   913  1847  1865    2
   914  1847  1866    1
   915  1847  1833    1
   916   209   214    1
   917   432   430    1
   918   560   546    1
   919   412   411    1
   920   453   452    1
   921   793   787   ar
   922   481   476    1
   923   481   479    1
   924   777   775    1
   925   777   779    1
   926  2311  2310    2
   927  2291  2280    1
   928  2257  2271    1
   929   294   272    2
   930   213   212    1
   931   250   252    1
   932   250   233    1
   933   228   230    1
   934   185   183    1
   935   499   498    1
   936   451   449    1
   937   451   450    1
   938   449   470    1
   939  1835  1834    1
   940   791   788   ar
   941  1832  1834    1
   942  1832  1833    1
   943  1832  1830    1
   944   781   779    1
   945   450   452    1
   946  1846  1827    2
   947   296   298    1
   948  1762  1763    1
   949   456   454    1
   950   456   457    1
   951   278   277    1
   952  1834  1836    1
   953   416   415    1
   954  2304  2310   ar
   955  2304  2305   ar
   956  1828  1830    1
   957  1828  1829    1
   958  2310  2309   ar
   959   500   498    1
   960   500   501    1
   961  2293  2271    2
   962   212   214    1
   963   555   554    1
   964  1827  1829    1
   965  1827  1845    1
   966   414   415   ar
   967   414   420   ar
   968  2280  2275    1
   969  2280  2278    1
   970   317   301    1
   971   317   319    1
   972   317   338    1
   973   454   452    1
   974   454   455    1
   975   476   475    1
   976   479   480    1
   977   479   477    1
   978   787   788   ar
   979   787   786   ar
   980   415   417   ar
   981   421   420    2
   982   494   472    2
   983   559   540    2
   984  1782  1761    2
   985   431   430    1
   986   214   224    1
   987   420   419   ar
   988  2275  2274    1
   989   553   554   ar
   990   553   551   ar
   991   788   789   ar
   992  2306  2305    1
   993   779   780    1
   994   252   251    1
   995   301   300    1
   996   277   275    1
   997   277   279    1
   998   411   409    1
   999   411   413    1
  1000  1763  1761    1
  1001   233   232    1
  1002   204   183    2
  1003   554   556   ar
  1004  2305  2307   ar
  1005   417   418   ar
  1006   430   428    1
  1007  2271  2273    1
  1008  2271  2292    1
  1009   538   518    2
  1010   273   275    1
  1011   273   274    1
  1012   498   496    1
  1013  1830  1831    1
  1014   319   318    1
  1015   546   545    1
  1016  2309  2312   ar
  1017  2309  2308   ar
  1018   501   518    1
  1019   272   293    1
  1020   272   274    1
  1021   272   256    1
  1022   183   203    1
  1023   183   169    1
  1024   419   418   ar
  1025   419   422   ar
  1026   552   551    2
  1027   298   300    1
  1028   298   299    1
  1029   786   785   ar
  1030   418   424   ar
  1031   230   232    1
  1032   230   231    1
  1033   780   796    1
  1034   551   550   ar
  1035   232   234    1
  1036  2312  2313   ar
  1037   429   428    1
  1038   429   427    1
  1039   545   547    1
  1040   545   543    1
  1041   410   409    1
  1042   410   427    1
  1043   422   423   ar
  1044   547   548    1
  1045   547   549    1
  1046   448   427    2
  1047   275   276    1
  1048   556   557   ar
  1049  1761  1747    1
  1050  1761  1781    1
  1051  2307  2308   ar
  1052   477   475    1
  1053   477   478    1
  1054   424   423   ar
  1055   424   413    1
  1056  2308  2314   ar
  1057   318   320    1
  1058   409   407    1
  1059   223   224   ar
  1060   223   222   ar
  1061   497   496    1
  1062   497   495    1
  1063   300   302    1
  1064   789   790    1
  1065   789   784   ar
  1066   558   540    1
  1067  2273  2272    1
  1068   224   218   ar
  1069   474   472    1
  1070   474   473    1
  1071   540   542    1
  1072   540   524    1
  1073   251   253    1
  1074  1836  1831    1
  1075  1836  1837    1
  1076   413   408    1
  1077   455   472    1
  1078   542   541    1
  1079   280   279    1
  1080  2278  2279    1
  1081  2278  2276    1
  1082   472   493    1
  1083   475   473    1
  1084   279   281    1
  1085   550   557   ar
  1086   550   549    1
  1087   518   520    1
  1088   518   539    1
  1089  2327  2328   ar
  1090  2327  2332   ar
  1091   246   245   ar
  1092   246   247   ar
  1093  2313  2314   ar
  1094   785   784   ar
  1095   427   447    1
  1096  2328  2329   ar
  1097   231   236    1
  1098   256   255    1
  1099  2274  2272    1
  1100  2274  2276    1
  1101   267   268   ar
  1102   267   264   ar
  1103   816   796    2
  1104  1839  1838    2
  1105  2314  2303    1
  1106  1747  1746    1
  1107   245   242   ar
  1108   519   520    1
  1109   519   521    1
  1110   169   168    1
  1111  1837  1838   ar
  1112  1837  1844   ar
  1113   268   269   ar
  1114   299   304    1
  1115   255   253    1
  1116   255   257    1
  1117   517   495    2
  1118  2333  2332    1
  1119   796   817    1
  1120   796   798    1
  1121   549   544    1
  1122  1838  1840   ar
  1123  2332  2331   ar
  1124   398   397    1
  1125  1749  1748    1
  1126   478   495    1
  1127  1844  1843   ar
  1128   361   339    2
  1129   222   219   ar
  1130  2276  2277    1
  1131  2329  2330   ar
  1132   234   236    1
  1133   234   235    1
  1134   495   516    1
  1135   253   254    1
  1136   543   541    1
  1137   543   544    1
  1138   303   302    1
  1139   276   281    1
  1140  2303  2301    1
  1141  2303  2298    1
  1142   218   217   ar
  1143   218   219   ar
  1144   320   321    1
  1145   320   322    1
  1146   302   304    1
  1147   407   408    1
  1148   407   405    1
  1149   247   236    1
  1150   247   241   ar
  1151  1840  1841   ar
  1152   524   523    1
  1153   171   170    1
  1154   281   292    1
  1155   266   265    1
  1156  1843  1841   ar
  1157  2331  2330   ar
  1158  2331  2334   ar
  1159   523   521    1
  1160   523   525    1
  1161   534   533    1
  1162  2330  2336   ar
  1163   392   397   ar
  1164   392   393   ar
  1165   397   396   ar
  1166   535   536   ar
  1167   535   532   ar
  1168   264   265   ar
  1169   264   263   ar
  1170   360   339    1
  1171   405   406    1
  1172  1841  1842    2
  1173   323   339    1
  1174   323   322    1
  1175   168   170    1
  1176   168   166    1
  1177   304   314    1
  1178   797   798    1
  1179   797   799    1
  1180   217   216   ar
  1181   521   522    1
  1182   254   259    1
  1183  2350  2351   ar
  1184  2350  2349   ar
  1185  1746  1748    1
  1186  1746  1744    1
  1187   257   259    1
  1188   257   258    1
  1189   800   799    1
  1190   800   805    1
  1191   219   220   ar
  1192   339   341    1
  1193   269   259    1
  1194   269   263   ar
  1195   170   172    1
  1196   242   241   ar
  1197   242   243   ar
  1198  1748  1750    1
  1199   321   326    1
  1200   536   537   ar
  1201   814   813   ar
  1202   814   815   ar
  1203   533   532   ar
  1204   533   528   ar
  1205   313   314   ar
  1206   313   312   ar
  1207  2351  2352   ar
  1208  2301  2302    1
  1209  2301  2299    1
  1210  2298  2297    1
  1211   322   324    1
  1212   532   531   ar
  1213  2334  2335   ar
  1214   265   260   ar
  1215  1744  1742    1
  1216  1744  1745    1
  1217   813   810   ar
  1218   426   404    2
  1219  2336  2326    1
  1220  2336  2335   ar
  1221  2349  2354   ar
  1222   393   394   ar
  1223  2277  2294    1
  1224   241   240   ar
  1225  1759  1741    2
  1226   314   308   ar
  1227   396   399   ar
  1228   396   395   ar
  1229   799   801    1
  1230   528   529   ar
  1231  2326  2321    1
  1232  2326  2324    1
  1233   244   243    2
  1234   263   262   ar
  1235  1742  1743    1
  1236   537   531   ar
  1237   537   527    1
  1238   292   291   ar
  1239   292   286   ar
  1240  2316  2294    2
  1241   522   527    1
  1242   525   527    1
  1243   525   526    1
  1244   531   530   ar
  1245   381   362    2
  1246   815   805    1
  1247   815   809   ar
  1248   805   803    1
  1249   243   237   ar
  1250   291   290   ar
  1251   399   400   ar
  1252  2352  2358   ar
  1253  2352  2353   ar
  1254   312   309   ar
  1255   166   164    1
  1256   166   167    1
  1257   216   215   ar
  1258   406   404    1
  1259   335   334   ar
  1260   335   336   ar
  1261   810   809   ar
  1262   810   811   ar
  1263  2348  2358    1
  1264  2348  2343    1
  1265  2348  2346    1
  1266  2354  2353   ar
  1267  2354  2355    1
  1268   529   530   ar
  1269  2321  2320    1
  1270   380   362    1
  1271   220   215   ar
  1272   220   221    1
  1273   394   395   ar
  1274   181   163    2
  1275  1750  1745    1
  1276  1750  1751    1
  1277   395   401   ar
  1278  2299  2297    1
  1279  2299  2300    1
  1280   341   340    1
  1281  2347  2346    1
  1282   326   324    1
  1283   326   336    1
  1284   404   425    1
  1285   404   388    1
  1286  2294  2315    1
  1287  2294  2296    1
  1288  2358  2357   ar
  1289   809   808   ar
  1290   172   173    1
  1291   172   167    1
  1292  2343  2342    1
  1293   164   165    1
  1294  2353  2356   ar
  1295   812   811    1
  1296  2297  2295    1
  1297   324   325    1
  1298  1743  1741    1
  1299   175   174    2
  1300   260   261   ar
  1301  2324  2325    1
  1302  2324  2322    1
  1303   240   238   ar
  1304   362   345    1
  1305   362   364    1
  1306   334   331   ar
  1307   811   806   ar
  1308   403   382    2
  1309   165   163    1
  1310   308   309   ar
  1311   308   307   ar
  1312   336   330   ar
  1313   400   401   ar
  1314  1741  1727    1
  1315  1741  1760    1
  1316   286   285   ar
  1317   286   287   ar
  1318   801   803    1
  1319   801   802    1
  1320   262   261   ar
  1321   173   174   ar
  1322   173   180   ar
  1323   174   176   ar
  1324  2373  2372    1
  1325  2346  2344    1
  1326   309   310   ar
  1327   163   182    1
  1328   163   149    1
  1329   290   287   ar
  1330   401   391    1
  1331   285   283   ar
  1332   377   376    1
  1333   237   238   ar
  1334   835   834    2
  1335   803   804    1
  1336  2357  2356   ar
  1337   808   807   ar
  1338   974   973    1
  1339  2295  2296    1
  1340   180   179   ar
  1341   176   177   ar
  1342  2374  2372   ar
  1343  2374  2375   ar
  1344  2372  2371   ar
  1345   340   342    1
  1346   969   967    1
  1347   969   970    1
  1348   969   971    1
  1349   389   387    1
  1350   389   391    1
  1351   389   390    1
  1352  2300  2317    1
  1353   238   239    1
  1354   806   807   ar
  1355  1751  1752   ar
  1356  1751  1758   ar
  1357   387   388    1
  1358   387   385    1
  1359   345   344    1
  1360   307   306   ar
  1361  2320  2322    1
  1362  2320  2318    1
  1363  2342  2344    1
  1364  2342  2340    1
  1365  1006   986    2
  1366  1753  1752    2
  1367  2365  2370    1
  1368  2365  2364    1
  1369   972   971    1
  1370   972   986    1
  1371  1727  1726    1
  1372   967   968    1
  1373   378   376   ar
  1374   378   379   ar
  1375  2370  2381    1
  1376  2370  2368    1
  1377   951   950    1
  1378  1729  1728    1
  1379   364   363    1
  1380   287   288   ar
  1381   177   179   ar
  1382   177   178    1
  1383   384   382    1
  1384   384   383    1
  1385   331   330   ar
  1386   331   332   ar
  1387   382   402    1
  1388   382   368    1
  1389   836   833   ar
  1390   836   837   ar
  1391   330   329   ar
  1392  2322  2323    1
  1393   970   975    1
  1394   376   375   ar
  1395  2369  2368    1
  1396   802   818    1
  1397   834   833   ar
  1398   834   828   ar
  1399  2375  2381   ar
  1400  2375  2376   ar
  1401  2371  2377   ar
  1402   391   386    1
  1403   344   342    1
  1404   344   346    1
  1405  2381  2380   ar
  1406  1752  1754   ar
  1407  1758  1757   ar
  1408   840   818    2
  1409   357   358   ar
  1410   357   354   ar
  1411  2344  2345    1
  1412   971   973    1
  1413  2318  2319    1
  1414   310   311    1
  1415   310   305   ar
  1416   358   359   ar
  1417  2338  2317    2
  1418   833   832   ar
  1419   283   284    1
  1420   283   282   ar
  1421   973   975    1
  1422   986   988    1
  1423   986  1007    1
  1424   379   372   ar
  1425  2340  2341    1
  1426   149   148    1
  1427   342   343    1
  1428   837   838   ar
  1429  2376  2377   ar
  1430  2376  2379   ar
  1431  2364  2362    1
  1432  2364  2366    1
  1433  2319  2317    1
  1434  2377  2378    2
  1435  2368  2366    1
  1436   984   966    2
  1437   828   829   ar
  1438  2317  2337    1
  1439   987   988    1
  1440   987   989    1
  1441  1728  1726    1
  1442  1728  1730    1
  1443   975   976    1
  1444  2380  2379   ar
  1445   306   305   ar
  1446   363   365    1
  1447   949   966    1
  1448   949   948    1
  1449  1726  1724    1
  1450   329   328   ar
  1451   385   383    1
  1452   385   386    1
  1453   332   333    1
  1454   332   327   ar
  1455   818   839    1
  1456   818   820    1
  1457  2341  2339    1
  1458   968   966    1
  1459   375   373   ar
  1460   950   952    1
  1461   950   948    1
  1462   288   282   ar
  1463   288   289    2
  1464   946   948    1
  1465   946   947    1
  1466   946   944    1
  1467  2323  2339    1
  1468  2362  2363    1
  1469  2345  2361    1
  1470   368   367    1
  1471   356   355    2
  1472   367   365    1
  1473   367   369    1
  1474   832   838   ar
  1475   832   831   ar
  1476  1757  1755   ar
  1477   952   947    1
  1478   952   963    1
  1479  1754  1755   ar
  1480   354   355   ar
  1481   354   353   ar
  1482   955   954    1
  1483   966   985    1
  1484   346   348    1
  1485   346   347    1
  1486   343   348    1
  1487   838   827    1
  1488   359   348    1
  1489   359   353   ar
  1490   932   933   ar
  1491   932   931   ar
  1492  2366  2367    1
  1493   829   831   ar
  1494   829   830    1
  1495   148   150    1
  1496   148   146    1
  1497  2388  2393    1
  1498  2388  2387    1
  1499   929   928    1
  1500   372   373   ar
  1501   372   371    1
  1502   989   990    1
  1503   989   991    1
  1504   933   934   ar
  1505   956   954   ar
  1506   956   957   ar
  1507  1724  1725    1
  1508  1724  1722    1
  1509   944   945    1
  1510   365   366    1
  1511   355   349   ar
  1512   328   327   ar
  1513   373   374    2
  1514  2363  2361    1
  1515  2393  2403    1
  1516  2393  2391    1
  1517  1755  1756    2
  1518  2339  2360    2
  1519  2339  2359    1
  1520   822   827    1
  1521   822   821    1
  1522   150   151    1
  1523   150   152    1
  1524   820   819    1
  1525   856   855    1
  1526  1730  1725    1
  1527  1730  1731    1
  1528   976   983   ar
  1529   976   977   ar
  1530   954   953   ar
  1531   353   352   ar
  1532  2396  2395   ar
  1533  2396  2397   ar
  1534   369   371    1
  1535   369   370    1
  1536   827   825    1
  1537   990   995    1
  1538   931   936   ar
  1539   366   371    1
  1540  2367  2384    1
  1541  2387  2385    1
  1542  2387  2389    1
  1543  1733  1732    2
  1544   992   991    1
  1545   992  1008    1
  1546  2395  2394   ar
  1547  2392  2391    1
  1548  2361  2383    2
  1549  2361  2382    1
  1550   963   957   ar
  1551   963   962   ar
  1552  2403  2397   ar
  1553  2403  2402   ar
  1554  1028  1008    2
  1555   978   977    2
  1556  2397  2398   ar
  1557   983   982   ar
  1558  1722  1723    1
  1559   819   821    1
  1560   957   958   ar
  1561   928   930    1
  1562   928   926    1
  1563  2385  2386    1
  1564   930   940    1
  1565   930   925    1
  1566   145   144    1
  1567   145   143    1
  1568   161   143    2
  1569   991   993    1
  1570   155   154    2
  1571   146   144    1
  1572   146   147    1
  1573   934   940   ar
  1574   934   935   ar
  1575  2394  2399   ar
  1576   977   979   ar
  1577  2402  2401   ar
  1578  2391  2389    1
  1579   876   875    2
  1580   945   943    1
  1581   349   350   ar
  1582  1731  1732   ar
  1583  1731  1738   ar
  1584   855   854   ar
  1585   855   857   ar
  1586   154   156   ar
  1587   154   153   ar
  1588   156   157   ar
  1589  2398  2399   ar
  1590  2398  2401   ar
  1591  1546  1526    2
  1592   821   823    1
  1593  2386  2384    1
  1594  1732  1734   ar
  1595  1008  1029    1
  1596  1008  1010    1
  1597   913   912    2
  1598  2399  2400    1
  1599   158   157    2
  1600   153   152    1
  1601   153   160   ar
  1602   157   159   ar
  1603   953   959   ar
  1604   152   147    1
  1605   352   350   ar
  1606  1723  1721    1
  1607   940   939   ar
  1608   854   852   ar
  1609   143   162    1
  1610   143   127    1
  1611   936   935   ar
  1612   936   937    1
  1613  1566  1548    2
  1614   160   159   ar
  1615   925   924    1
  1616   962   961   ar
  1617  2389  2390    1
  1618   994   993    1
  1619  2384  2404    2
  1620  2384  2405    1
  1621   995   993    1
  1622   995  1005    1
  1623   857   858   ar
  1624   825   823    1
  1625   825   826    1
  1626   350   351    1
  1627  1710  1709    1
  1628   982   980   ar
  1629   958   959   ar
  1630   958   961   ar
  1631   935   938   ar
  1632  1738  1737   ar
  1633  1524  1503    2
  1634   823   824    1
  1635   875   874   ar
  1636   875   877   ar
  1637   927   926    1
  1638   927   943    1
  1639   964   943    2
  1640   926   924    1
  1641   924   922    1
  1642  1734  1735   ar
  1643  1004  1005   ar
  1644  1004  1003   ar
  1645   896   895    2
  1646   874   872   ar
  1647   943   965    1
  1648   912   914   ar
  1649   912   911   ar
  1650   979   980   ar
  1651   914   915   ar
  1652   959   960    2
  1653   894   895   ar
  1654   894   892   ar
  1655  2390  2406    1
  1656   893   892    2
  1657  1739  1721    2
  1658  1005   999   ar
  1659   852   853    2
  1660   852   851   ar
  1661  1526  1509    1
  1662  1526  1547    1
  1663  1526  1528    1
  1664  1010  1009    1
  1665   909   908    1
  1666  1721  1740    1
  1667  1721  1704    1
  1668   980   981    1
  1669   939   938   ar
  1670   858   851   ar
  1671   895   897   ar
  1672  1737  1735   ar
  1673  1009  1011    1
  1674  1548  1567    1
  1675  1548  1532    1
  1676  1548  1550    1
  1677  1709  1711   ar
  1678  1709  1708   ar
  1679   892   891   ar
  1680  1735  1736    1
  1681  1509  1508    1
  1682   877   878   ar
  1683  1489  1503    1
  1684  1489  1488    1
  1685   127   126    1
  1686  1003  1000   ar
  1687   860   841    2
  1688   851   850    1
  1689   910   908    1
  1690   910   911    1
  1691   910   905    1
  1692  1484  1486    1
  1693  1484  1485    1
  1694   908   906    1
  1695   872   873    2
  1696   872   871   ar
  1697  1503  1525    1
  1698  1503  1505    1
  1699   911   918   ar
  1700  1527  1528    1
  1701  1527  1529    1
  1702   824   841    1
  1703   915   916    1
  1704   915   917   ar
  1705  1711  1712   ar
  1706  1532  1531    1
  1707  2410  2415    1
  1708  2410  2409    1
  1709  1708  1714   ar
  1710   922   923    1
  1711  1706  1705    1
  1712  1501  1483    2
  1713  1486  1488    1
  1714  1486  1487    1
  1715  1704  1703    1
  1716   999  1000   ar
  1717   999   998   ar
  1718  1586  1568    2
  1719  1705  1703    1
  1720  1705  1707    1
  1721  2406  2408    1
  1722  2406  2425    2
  1723  2406  2424    1
  1724   878   871   ar
  1725  1550  1549    1
  1726   126   128    1
  1727   126   124    1
  1728   841   859    1
  1729   841   843    1
  1730  2407  2408    1
  1731  2407  2409    1
  1732  1000  1001   ar
  1733  1504  1506    1
  1734  1504  1505    1
  1735  1491  1490    1
  1736  1506  1508    1
  1737  1506  1507    1
  1738  2423  2422   ar
  1739  2423  2416   ar
  1740  1488  1490    1
  1741   871   870    1
  1742  2415  2416    1
  1743  2415  2413    1
  1744   897   898   ar
  1745  2422  2420   ar
  1746   891   898   ar
  1747   891   890    1
  1748  1549  1551    1
  1749  1485  1483    1
  1750  1511  1510    1
  1751  2416  2417   ar
  1752  1529  1531    1
  1753  1529  1530    1
  1754  1508  1510    1
  1755   918   917   ar
  1756   850   845    1
  1757   850   848    1
  1758  2409  2411    1
  1759   905   904    1
  1760  1467  1483    1
  1761  1467  1466    1
  1762  1469  1468    1
  1763  2420  2421    2
  1764  2420  2419   ar
  1765   142   121    2
  1766  1011  1012    1
  1767  1011  1013    1
  1768  1703  1701    1
  1769  2417  2419   ar
  1770  2417  2418    2
  1771   923   921    1
  1772   141   121    1
  1773   998   997   ar
  1774  1531  1533    1
  1775  1712  1713   ar
  1776  1712  1718   ar
  1777   845   844    1
  1778   128   129    1
  1779   128   130    1
  1780  1483  1502    1
  1781  1048  1030    2
  1782  1714  1715    2
  1783  1714  1713   ar
  1784   137   136    1
  1785  1487  1492    1
  1786   906   907    1
  1787   906   904    1
  1788  1587  1568    1
  1789  1490  1492    1
  1790   890   888    1
  1791   890   885    1
  1792   123   121    1
  1793   123   122    1
  1794   136   131   ar
  1795   136   135   ar
  1796  1568  1554    1
  1797  1568  1570    1
  1798  1012  1017    1
  1799   131   132   ar
  1800   121   107    1
  1801   138   135   ar
  1802   138   139   ar
  1803  1510  1512    1
  1804   135   134   ar
  1805  1707  1718    1
  1806  1707  1702    1
  1807  1554  1553    1
  1808  1713  1716   ar
  1809   907   921    1
  1810  1507  1512    1
  1811  1026  1025   ar
  1812  1026  1027   ar
  1813   904   902    1
  1814   843   842    1
  1815  1001  1002    1
  1816  1001   996   ar
  1817   132   133   ar
  1818   870   865    1
  1819   870   868    1
  1820   888   889    1
  1821   888   886    1
  1822   139   140   ar
  1823  1718  1717   ar
  1824   122   124    1
  1825  1013  1015    1
  1826  1013  1014    1
  1827  2414  2413    1
  1828   124   125    1
  1829   134   133   ar
  1830   134   140   ar
  1831  1025  1022   ar
  1832  1464  1466    1
  1833  1464  1462    1
  1834  1464  1465    1
  1835  1492  1493    1
  1836   140   130    1
  1837  2413  2411    1
  1838  1466  1468    1
  1839  1551  1553    1
  1840  1551  1552    1
  1841  1530  1535    1
  1842   997   996   ar
  1843  1468  1470    1
  1844  1534  1533    1
  1845   848   846    1
  1846   848   849    1
  1847  2411  2412    1
  1848   130   125    1
  1849   921   941    2
  1850   921   942    1
  1851  1701  1702    1
  1852  1701  1699    1
  1853  1553  1555    1
  1854   865   864    1
  1855  1533  1535    1
  1856   844   842    1
  1857   844   846    1
  1858  1462  1463    1
  1859  1512  1523    1
  1860  1030  1014    1
  1861  1030  1049    1
  1862  1030  1032    1
  1863  1027  1017    1
  1864  1027  1021   ar
  1865  1015  1017    1
  1866  1015  1016    1
  1867   846   847    1
  1868   885   884    1
  1869  1716  1717   ar
  1870  1570  1569    1
  1871  1609  1588    2
  1872  1465  1470    1
  1873  1626  1625    1
  1874   868   869    1
  1875   868   866    1
  1876  1022  1021   ar
  1877  1022  1023   ar
  1878  1470  1480    1
  1879  1535  1545    1
  1880   886   884    1
  1881   886   887    1
  1882  1569  1571    1
  1883   107   106    1
  1884  1552  1557    1
  1885   902   903    1
  1886   880   861    2
  1887   120   101    2
  1888  1699  1700    1
  1889  1021  1020   ar
  1890  2412  2426    1
  1891  1024  1023    1
  1892  1493  1500   ar
  1893  1493  1494   ar
  1894  1544  1545   ar
  1895  1544  1543   ar
  1896   903   901    1
  1897  1032  1031    1
  1898   863   861    1
  1899   863   862    1
  1900  1565  1564   ar
  1901  1565  1558   ar
  1902   116   115    2
  1903  1023  1018   ar
  1904  1481  1461    2
  1905  1700  1698    1
  1906   119   101    1
  1907  1463  1461    1
  1908  1608  1588    1
  1909   884   882    1
  1910  1523  1522   ar
  1911  1523  1517   ar
  1912   864   866    1
  1913   864   862    1
  1914  1545  1539   ar
  1915  1564  1562   ar
  1916  1500  1499   ar
  1917   866   867    1
  1918   106   108    1
  1919   106   104    1
  1920  1555  1557    1
  1921  1555  1556    1
  1922  1251  1250    1
  1923   847   861    1
  1924  1034  1033    1
  1925  1034  1039    1
  1926  1031  1033    1
  1927  1495  1494    2
  1928   887   901    1
  1929  1588  1590    1
  1930  1588  1574    1
  1931   115   117   ar
  1932   115   114   ar
  1933   117   118   ar
  1934   101   103    1
  1935   101    87    1
  1936  1274  1273    1
  1937   861   879    1
  1938  1693  1692    2
  1939  1047  1046   ar
  1940  1047  1040   ar
  1941  1046  1044   ar
  1942  1625  1624   ar
  1943  1625  1620   ar
  1944   103   102    1
  1945  1719  1698    2
  1946  1543  1540   ar
  1947  1522  1521   ar
  1948  1557  1558    1
  1949  1627  1624   ar
  1950  1627  1628   ar
  1951  1020  1019   ar
  1952    99    81    2
  1953  1494  1496   ar
  1954   100    81    1
  1955  1449  1448    1
  1956  2442  2441    1
  1957   920   901    2
  1958    79    61    2
  1959  2430  2435    1
  1960  2430  2429    1
  1961  2441  2436   ar
  1962  2441  2440   ar
  1963   901   919    1
  1964  1307  1289    2
  1965  1480  1474   ar
  1966  1480  1479   ar
  1967  1605  1606   ar
  1968  1605  1602   ar
  1969  1558  1559   ar
  1970  2436  2437   ar
  1971  1269  1267    1
  1972  1269  1270    1
  1973  1269  1271    1
  1974   118   111   ar
  1975  1590  1589    1
  1976  1461  1447    1
  1977  1461  1482    1
  1978  2443  2440   ar
  1979  2443  2444   ar
  1980  1018  1019   ar
  1981   114   112   ar
  1982   108   109    1
  1983   108   110    1
  1984  2440  2439   ar
  1985  1571  1572    1
  1986  1571  1573    1
  1987   883   882    1
  1988   883   881    1
  1989  1584  1585   ar
  1990  1584  1582   ar
  1991  1033  1035    1
  1992  2447  2426    2
  1993   102   104    1
  1994  1272  1271    1
  1995  1272  1289    1
  1996  1516  1517   ar
  1997  1516  1514   ar
  1998  2437  2438   ar
  1999  1698  1720    1
  2000  1698  1684    1
  2001  2444  2445   ar
  2002   900   881    2
  2003  1267  1268    1
  2004  2439  2438   ar
  2005  2439  2445   ar
  2006    59    41    2
  2007  1517  1518   ar
  2008  1624  1623   ar
  2009  2426  2428    1
  2010  2426  2446    1
  2011  2445  2435    1
  2012  1604  1603    1
  2013  1606  1607   ar
  2014  1585  1578   ar
  2015  1447  1446    1
  2016  1473  1474   ar
  2017  1473  1472   ar
  2018  1691  1692   ar
  2019  1691  1689   ar
  2020  1039  1040    1
  2021  1039  1037    1
  2022  1040  1041   ar
  2023  1692  1694   ar
  2024    80    61    1
  2025  1290  1292    1
  2026  1290  1291    1
  2027  2435  2433    1
  2028  1044  1045    1
  2029  1044  1043   ar
  2030  1270  1275    1
  2031  1620  1621   ar
  2032    81    83    1
  2033    81    67    1
  2034   104   105    1
  2035  1539  1540   ar
  2036  1539  1538   ar
  2037  1572  1577    1
  2038  1562  1563    1
  2039  1562  1561   ar
  2040   111   112   ar
  2041   111   110    1
  2042  1499  1497   ar
  2043   112   113    2
  2044  1573  1574    1
  2045  1573  1575    1
  2046   867   881    1
  2047  1474  1475   ar
  2048  1250  1252    1
  2049  1250  1248    1
  2050  2428  2427    1
  2051  1540  1541   ar
  2052  2427  2429    1
  2053  1628  1629   ar
  2054  1273  1271    1
  2055  1273  1275    1
  2056  1479  1478   ar
  2057    61    63    1
  2058    61    47    1
  2059  1602  1603   ar
  2060  1602  1601   ar
  2061  1631  1610    2
  2062   881   899    1
  2063  1521  1518   ar
  2064  2429  2431    1
  2065  1252  1247    1
  2066  1252  1263    1
  2067  1289  1291    1
  2068  1289  1308    1
  2069  1583  1582    1
  2070  1246  1247    1
  2071  1246  1248    1
  2072  1246  1244    1
  2073  1275  1286    1
  2074  1690  1689    2
  2075  1603  1598   ar
  2076    83    82    1
  2077    39    21    2
  2078  1249  1248    1
  2079  1249  1266    1
  2080  1292  1293    1
  2081  1292  1294    1
  2082  1689  1688   ar
  2083  1448  1446    1
  2084  1448  1450    1
  2085  1041  1043   ar
  2086  1041  1042    2
  2087  1496  1497   ar
  2088   110   105    1
  2089  1582  1581   ar
  2090    87    86    1
  2091  1255  1254    1
  2092  1518  1519   ar
  2093  1514  1515    1
  2094  1514  1513   ar
  2095    60    41    1
  2096  1595  1593    1
  2097  1595  1596    1
  2098  1595  1597    1
  2099  1559  1561   ar
  2100  1559  1560    2
  2101  1538  1537   ar
  2102  1694  1695   ar
  2103    41    43    1
  2104    41    27    1
  2105  1472  1471   ar
  2106  1607  1601   ar
  2107  1607  1597    1
  2108  1589  1591    1
  2109  1287  1266    2
  2110  1231  1230    1
  2111  1578  1577    1
  2112  1578  1579   ar
  2113  1446  1444    1
  2114    96    95    2
  2115  1256  1254   ar
  2116  1256  1257   ar
  2117  1593  1591    1
  2118  1593  1594    1
  2119  1684  1683    1
  2120    43    42    1
  2121  1268  1266    1
  2122  1035  1037    1
  2123  1035  1036    1
  2124    63    62    1
  2125  1293  1298    1
  2126  1497  1498    2
  2127    86    84    1
  2128    86    88    1
  2129    97    95   ar
  2130    97    98   ar
  2131  1623  1629   ar
  2132  1623  1622   ar
  2133  1577  1575    1
  2134  1601  1600   ar
  2135  1037  1038    1
  2136  1592  1597    1
  2137  1592  1591    1
  2138  1621  1622   ar
  2139  2433  2434    1
  2140  2433  2431    1
  2141    67    66    1
  2142  1244  1245    1
  2143    82    84    1
  2144    95    94   ar
  2145  1235  1234    2
  2146  1266  1288    1
  2147    42    44    1
  2148  1444  1445    1
  2149  1444  1442    1
  2150  1685  1683    1
  2151  1685  1686    1
  2152  1685  1687    1
  2153  1541  1542    1
  2154  1541  1536   ar
  2155  1254  1253   ar
  2156  1688  1695   ar
  2157  1688  1687    1
  2158  1575  1576    1
  2159  1629  1619    1
  2160  1598  1599   ar
  2161  1475  1478   ar
  2162  1475  1476   ar
  2163  1683  1681    1
  2164    47    46    1
  2165  1610  1630    1
  2166  1610  1594    1
  2167  1610  1612    1
  2168  1295  1294    1
  2169  1295  1309    1
  2170    98    91   ar
  2171  1263  1257   ar
  2172  1263  1262   ar
  2173  1581  1579   ar
  2174  2431  2432    1
  2175  1450  1445    1
  2176  1450  1451    1
  2177  1513  1519   ar
  2178  1294  1296    1
  2179  1453  1452    2
  2180  1297  1296    1
  2181  1519  1520    2
  2182  1286  1285   ar
  2183  1286  1280   ar
  2184  1579  1580    2
  2185  1257  1258   ar
  2186  1537  1536   ar
  2187    62    64    1
  2188  1036  1050    1
  2189    21    40    1
  2190    21    23    1
  2191    21     6    1
  2192  1087  1086    2
  2193    84    85    1
  2194  1471  1476   ar
  2195    88    89    1
  2196    88    90    1
  2197    22    23    1
  2198    22    24    1
  2199    66    64    1
  2200    66    68    1
  2201    94    92   ar
  2202  1600  1599   ar
  2203    27    26    1
  2204  1330  1309    2
  2205  1230  1232    1
  2206  1230  1228    1
  2207  1298  1296    1
  2208  1298  1299    1
  2209  1687  1682    1
  2210    46    44    1
  2211    46    48    1
  2212    91    92   ar
  2213    91    90    1
  2214  1065  1064    1
  2215  1442  1443    1
  2216  1672  1671    2
  2217  1069  1050    2
  2218  1279  1280   ar
  2219  1279  1277   ar
  2220  1476  1477    1
  2221  1285  1284   ar
  2222  1189  1190   ar
  2223  1189  1194   ar
  2224  1212  1211   ar
  2225  1212  1213   ar
  2226  1232  1233    1
  2227  1232  1227    1
  2228  1195  1194    1
  2229    44    45    1
  2230  1309  1331    1
  2231  1309  1311    1
  2232  1234  1233   ar
  2233  1234  1236   ar
  2234    92    93    2
  2235  2464  2463    1
  2236  1245  1243    1
  2237  1280  1281   ar
  2238  1614  1619    1
  2239  1614  1613    1
  2240  1253  1259   ar
  2241  1066  1064   ar
  2242  1066  1067   ar
  2243  2432  2448    1
  2244    64    65    1
  2245     6     5    1
  2246    85    90    1
  2247  1619  1617    1
  2248  1611  1612    1
  2249  1611  1613    1
  2250  2458  2463   ar
  2251  2458  2459   ar
  2252  1452  1451   ar
  2253  1452  1454   ar
  2254  1262  1261   ar
  2255  1451  1458   ar
  2256  2463  2462   ar
  2257    77    78   ar
  2258    77    75   ar
  2259  1086  1080   ar
  2260  1086  1085   ar
  2261  1681  1679    1
  2262  1681  1682    1
  2263  1050  1068    1
  2264  1050  1052    1
  2265  1211  1216   ar
  2266  1665  1671   ar
  2267  1665  1666   ar
  2268  1110  1109    2
  2269    24    26    1
  2270    24    25    1
  2271  1064  1063   ar
  2272  1229  1228    1
  2273  1229  1243    1
  2274  2459  2460   ar
  2275    26    28    1
  2276  1258  1259   ar
  2277  1258  1261   ar
  2278    78    71   ar
  2279  1649  1648    2
  2280  1190  1191   ar
  2281  1671  1670   ar
  2282  1194  1193   ar
  2283    76    75    1
  2284  1213  1214   ar
  2285  1679  1680    1
  2286  1306  1299   ar
  2287  1306  1305   ar
  2288    68    69    1
  2289    68    70    1
  2290  1233  1240   ar
  2291  1228  1226    1
  2292  2462  2465   ar
  2293  2462  2461   ar
  2294  1080  1081   ar
  2295  1236  1237   ar
  2296  1278  1277    1
  2297  1299  1300   ar
  2298  1227  1226    1
  2299  1103  1109   ar
  2300  1103  1104   ar
  2301  1443  1441    1
  2302  1226  1224    1
  2303    75    74   ar
  2304  1277  1276   ar
  2305  1667  1666    1
  2306  1067  1060   ar
  2307  1617  1615    1
  2308  1617  1618    1
  2309  2460  2461   ar
  2310  2465  2466   ar
  2311  1105  1104    1
  2312  1613  1615    1
  2313  2461  2467   ar
  2314  1264  1243    2
  2315    45    50    1
  2316  1088  1085   ar
  2317  1088  1089   ar
  2318  1259  1260    2
  2319    48    49    1
  2320    48    50    1
  2321  1243  1265    1
  2322  1085  1084   ar
  2323  1284  1281   ar
  2324  1109  1108   ar
  2325  1666  1668   ar
  2326  1459  1441    2
  2327  1454  1455   ar
  2328  1281  1282   ar
  2329    65    70    1
  2330  2452  2457    1
  2331  2452  2451    1
  2332    71    70    1
  2333    71    72   ar
  2334  2466  2467   ar
  2335  1458  1457   ar
  2336  1311  1310    1
  2337  2467  2457    1
  2338  1052  1051    1
  2339  1209  1208    1
  2340  1104  1106   ar
  2341  1063  1061   ar
  2342    74    72   ar
  2343     5     3    1
  2344     5     7    1
  2345  1310  1312    1
  2346    58    57   ar
  2347    58    51   ar
  2348  2448  2469    2
  2349  2448  2450    1
  2350  2448  2468    1
  2351  1305  1303   ar
  2352  1648  1647   ar
  2353  1648  1642   ar
  2354  1670  1673   ar
  2355  1670  1669   ar
  2356  1615  1616    1
  2357  1216  1217    1
  2358  1216  1215   ar
  2359  1081  1082    1
  2360  1081  1083   ar
  2361  2457  2455    1
  2362    25    30    1
  2363  1191  1192   ar
  2364    72    73    2
  2365    50    51    1
  2366  1131  1130    2
  2367    57    55   ar
  2368  2450  2449    1
  2369  1650  1647   ar
  2370  1650  1651   ar
  2371  1193  1192   ar
  2372  1193  1196   ar
  2373  1214  1215   ar
  2374  1214  1220   ar
  2375  1441  1427    1
  2376  1441  1460    1
  2377    28    29    1
  2378    28    30    1
  2379  1680  1678    1
  2380     2     1    1
  2381  1060  1061   ar
  2382  1060  1059    1
  2383  1300  1301    2
  2384  1300  1302   ar
  2385  1089  1090   ar
  2386  1224  1225    1
  2387     8     7    1
  2388  1276  1282   ar
  2389    51    52   ar
  2390  1240  1239   ar
  2391  2449  2451    1
  2392     1     3    1
  2393  1237  1238    2
  2394  1237  1239   ar
  2395  1084  1083   ar
  2396  1084  1090   ar
  2397  1673  1674   ar
  2398  1208  1210    1
  2399  1208  1206    1
  2400     3     4    1
  2401  1668  1669   ar
  2402  1054  1059    1
  2403  1054  1053    1
  2404  1051  1053    1
  2405  1647  1646   ar
  2406  1455  1457   ar
  2407  1455  1456    1
  2408  1061  1062    2
  2409  1282  1283    2
  2410  1129  1130   ar
  2411  1129  1127   ar
  2412     7     9    1
  2413  2451  2453    1
  2414  1642  1643   ar
  2415  1669  1675   ar
  2416  1192  1198   ar
  2417  1108  1107   ar
  2418  1108  1111   ar
  2419  1148  1147    1
  2420  1153  1152    2
  2421  1427  1426    1
  2422  1215  1218   ar
  2423  1146  1152   ar
  2424  1146  1147   ar
  2425    55    56    2
  2426    55    54   ar
  2427  1429  1428    1
  2428  1130  1132   ar
  2429  1653  1632    2
  2430    38    37   ar
  2431    38    31   ar
  2432  1106  1107   ar
  2433    30    31    1
  2434  1090  1079    1
  2435  2487  2486    2
  2436  1210  1220    1
  2437  1210  1205    1
  2438  1697  1678    2
  2439  1677  1655    2
  2440    52    54   ar
  2441    52    53    2
  2442  1128  1127    2
  2443  1059  1057    1
  2444  1196  1197   ar
  2445  1303  1302   ar
  2446  1303  1304    1
  2447  1651  1652   ar
  2448  1220  1219   ar
  2449  1428  1426    1
  2450  1428  1430    1
  2451  1312  1313    1
  2452  1312  1314    1
  2453  1433  1432    2
  2454  1678  1696    1
  2455  1678  1661    1
  2456  2480  2486   ar
  2457  2480  2481   ar
  2458  1107  1113   ar
  2459  1616  1632    1
  2460  1053  1055    1
  2461  2486  2485   ar
  2462  1127  1126   ar
  2463  1152  1151   ar
  2464    37    35   ar
  2465  1674  1675   ar
  2466  1111  1112   ar
  2467  1225  1223    1
  2468  1147  1149   ar
  2469    31    32   ar
  2470  2455  2456    1
  2471  2455  2453    1
  2472  1207  1206    1
  2473  1207  1223    1
  2474  1313  1318    1
  2475  1675  1664    1
  2476  2482  2481    1
  2477  1426  1424    1
  2478  1206  1204    1
  2479  2481  2483   ar
  2480  1646  1652   ar
  2481  1646  1645   ar
  2482  2453  2454    1
  2483     4     9    1
  2484  1643  1644    1
  2485  1643  1645   ar
  2486  2485  2488   ar
  2487  2485  2484   ar
  2488  1198  1197   ar
  2489  1198  1188    1
  2490  1632  1634    1
  2491  1632  1654    1
  2492     9    20    1
  2493  1432  1434   ar
  2494  1432  1431   ar
  2495  1079  1074    1
  2496  1079  1077    1
  2497  1132  1133   ar
  2498  1218  1219   ar
  2499  2488  2489   ar
  2500  1652  1641    1
  2501  1055  1057    1
  2502  1055  1056    1
  2503  1434  1435   ar
  2504  1205  1204    1
  2505  2483  2484   ar
  2506  1633  1634    1
  2507  1633  1635    1
  2508  1662  1660    1
  2509  1662  1664    1
  2510  1662  1663    1
  2511  2484  2490   ar
  2512  1314  1315    1
  2513  1314  1316    1
  2514  1655  1657    1
  2515  1655  1676    1
  2516  1655  1638    1
  2517  1328  1327   ar
  2518  1328  1329   ar
  2519  1057  1058    1
  2520  1223  1241    2
  2521  1223  1242    1
  2522  1353  1332    2
  2523  1112  1113   ar
  2524  1113  1102    1
  2525  1430  1431    1
  2526  1430  1425    1
  2527  1660  1661    1
  2528  1660  1658    1
  2529    19    20   ar
  2530    19    18   ar
  2531  1126  1133   ar
  2532  1126  1125    1
  2533    35    34   ar
  2534    35    36    2
  2535  1315  1332    1
  2536  1074  1073    1
  2537    32    34   ar
  2538    32    33    2
  2539  1204  1202    1
  2540  1352  1332    1
  2541  1664  1659    1
  2542  2489  2490   ar
  2543    20    14   ar
  2544  1657  1656    1
  2545  1431  1438   ar
  2546  1149  1150   ar
  2547  2490  2479    1
  2548  1151  1150   ar
  2549  1151  1154   ar
  2550  1092  1070    2
  2551  1186  1188    1
  2552  1186  1187    1
  2553  1186  1184    1
  2554  1637  1635    1
  2555  1637  1638    1
  2556  1637  1639    1
  2557  1188  1183    1
  2558  1327  1324   ar
  2559  1318  1329    1
  2560  1318  1316    1
  2561  1332  1334    1
  2562  2503  2504   ar
  2563  2503  2508   ar
  2564  2509  2508    1
  2565  1424  1425    1
  2566  1424  1422    1
  2567  1435  1436    1
  2568  1435  1437   ar
  2569  2454  2470    1
  2570  1410  1409    1
  2571  1329  1323   ar
  2572  1077  1078    1
  2573  1077  1075    1
  2574  1635  1636    1
  2575    18    15   ar
  2576  1636  1641    1
  2577  2479  2474    1
  2578  2479  2477    1
  2579  1641  1639    1
  2580  1150  1156   ar
  2581  1125  1123    1
  2582  1125  1120    1
  2583  2504  2505   ar
  2584  2508  2507   ar
  2585  1056  1070    1
  2586  1072  1070    1
  2587  1072  1071    1
  2588  1102  1097    1
  2589  1102  1100    1
  2590  1438  1437   ar
  2591  1316  1317    1
  2592  1639  1640    1
  2593    14    15   ar
  2594    14    13   ar
  2595  2474  2473    1
  2596  1070  1091    1
  2597  1154  1155   ar
  2598  1659  1658    1
  2599  1658  1656    1
  2600  1184  1185    1
  2601  1184  1182    1
  2602    15    16   ar
  2603  1073  1075    1
  2604  1073  1071    1
  2605  1422  1423    1
  2606    13    11   ar
  2607  1202  1203    1
  2608  2492  2470    2
  2609  1124  1123    1
  2610  1123  1121    1
  2611  1324  1323   ar
  2612  1324  1325   ar
  2613  2505  2506   ar
  2614  1075  1076    1
  2615  1409  1408   ar
  2616  1409  1411   ar
  2617  1097  1096    1
  2618  1183  1182    1
  2619  2507  2506   ar
  2620  2507  2510   ar
  2621  1185  1201    1
  2622  1323  1322   ar
  2623  2525  2526   ar
  2624  2525  2530   ar
  2625  1120  1119    1
  2626  2470  2472    1
  2627  2470  2491    1
  2628  1408  1414   ar
  2629  1334  1333    1
  2630  2506  2512   ar
  2631  2526  2527   ar
  2632  1100  1101    1
  2633  1100  1098    1
  2634  2477  2478    1
  2635  2477  2475    1
  2636  2472  2471    1
  2637  1156  1155   ar
  2638  1156  1145    1
  2639  2531  2530    1
  2640  2510  2511   ar
  2641  1203  1201    1
  2642    16    10   ar
  2643    16    17    2
  2644    11    10   ar
  2645    11    12    1
  2646  1182  1180    1
  2647  1411  1412   ar
  2648  2530  2529   ar
  2649  1325  1326    2
  2650  1325  1319   ar
  2651  1222  1201    2
  2652  2473  2471    1
  2653  2473  2475    1
  2654  1392  1391    1
  2655  1322  1320   ar
  2656  1333  1335    1
  2657  1201  1221    1
  2658  1423  1421    1
  2659  2512  2511   ar
  2660  2512  2502    1
  2661  1200  1179    2
  2662  1115  1093    2
  2663  1121  1119    1
  2664  1121  1122    1
  2665  1414  1415    2
  2666  1414  1413   ar
  2667  1076  1093    1
  2668  2475  2476    1
  2669  2527  2528   ar
  2670  1098  1096    1
  2671  1098  1099    1
  2672  1096  1094    1
  2673  1095  1094    1
  2674  1095  1093    1
  2675  1119  1117    1
  2676  1180  1181    1
  2677  1145  1140    1
  2678  1145  1143    1
  2679  1370  1369    1
  2680  1375  1354    2
  2681  2502  2497    1
  2682  2502  2500    1
  2683  1440  1421    2
  2684  1157  1136    2
  2685  1412  1413   ar
  2686  1412  1418   ar
  2687  2529  2528   ar
  2688  2529  2532   ar
  2689  1140  1139    1
  2690  1093  1114    1
  2691  1319  1320   ar
  2692  1118  1117    1
  2693  1118  1116    1
  2694  1320  1321    1
  2695  1167  1166    1
  2696  1406  1405    1
  2697  2528  2534   ar
  2698  2497  2496    1
  2699  1413  1416   ar
  2700  1135  1116    2
  2701  1391  1386   ar
  2702  1391  1390   ar
  2703  1421  1439    1
  2704  1421  1404    1
  2705  1122  1136    1
  2706  1405  1407    1
  2707  1405  1403    1
  2708  1386  1387   ar
  2709  1181  1179    1
  2710  1179  1165    1
  2711  1179  1199    1
  2712  1335  1336    1
  2713  1335  1337    1
  2714  1371  1368   ar
  2715  1371  1372   ar
  2716  1336  1341    1
  2717  1099  1116    1
  2718  2476  2493    1
  2719  1116  1134    1
  2720  1165  1164    1
  2721  1369  1368   ar
  2722  1369  1364   ar
  2723  1418  1407    1
  2724  1418  1417   ar
  2725  2532  2533   ar
  2726  1143  1144    1
  2727  1143  1141    1
  2728  1136  1158    1
  2729  1136  1138    1
  2730  1349  1350   ar
  2731  1349  1346   ar
  2732  2550  2548   ar
  2733  2550  2551   ar
  2734  2552  2551    1
  2735  1407  1402    1
  2736  2549  2548    2
  2737  2500  2501    1
  2738  2500  2498    1
  2739  1350  1351   ar
  2740  2514  2493    2
  2741  1354  1374    1
  2742  1354  1338    1
  2743  1354  1356    1
  2744  2534  2533   ar
  2745  2534  2524    1
  2746  1348  1347    1
  2747  1337  1338    1
  2748  1337  1339    1
  2749  1368  1367   ar
  2750  1166  1164    1
  2751  1166  1168    1
  2752  1390  1393   ar
  2753  1390  1389   ar
  2754  1139  1141    1
  2755  1139  1137    1
  2756  1416  1417   ar
  2757  1346  1347   ar
  2758  1346  1345   ar
  2759  2548  2547   ar
  2760  2551  2553   ar
  2761  1404  1403    1
  2762  1393  1394   ar
  2763  1372  1373   ar
  2764  1347  1342   ar
  2765  1351  1345   ar
  2766  1351  1341    1
  2767  1403  1401    1
  2768  2496  2498    1
  2769  2496  2494    1
  2770  1387  1388   ar
  2771  2524  2522    1
  2772  2524  2519    1
  2773  1141  1142    1
  2774  1364  1365   ar
  2775  2493  2495    1
  2776  2493  2513    1
  2777  1137  1138    1
  2778  1345  1344   ar
  2779  1341  1339    1
  2780  1164  1162    1
  2781  1356  1355    1
  2782  2498  2499    1
  2783  1342  1343   ar
  2784  2523  2522    1
  2785  2494  2495    1
  2786  1339  1340    1
  2787  1402  1401    1
  2788  2522  2520    1
  2789  1344  1343   ar
  2790  1168  1163    1
  2791  1168  1169    1
  2792  1171  1170    2
  2793  2547  2554   ar
  2794  2547  2546    1
  2795  2553  2554   ar
  2796  1162  1163    1
  2797  1162  1160    1
  2798  1389  1388   ar
  2799  1389  1395   ar
  2800  1367  1373   ar
  2801  1367  1366   ar
  2802  1178  1159    2
  2803  2519  2518    1
  2804  1401  1399    1
  2805  1373  1363    1
  2806  1394  1395   ar
  2807  1365  1366   ar
  2808  2546  2541    1
  2809  2546  2544    1
  2810  1142  1159    1
  2811  1170  1169   ar
  2812  1170  1172   ar
  2813  2499  2515    1
  2814  1355  1357    1
  2815  1169  1176   ar
  2816  1395  1385    1
  2817  2541  2540    1
  2818  1358  1363    1
  2819  1358  1357    1
  2820  2536  2515    2
  2821  1159  1161    1
  2822  1159  1177    1
  2823  1397  1376    2
  2824  1160  1161    1
  2825  2520  2518    1
  2826  2520  2521    1
  2827  1363  1361    1
  2828  2518  2516    1
  2829  1399  1400    1
  2830  2544  2545    1
  2831  2544  2542    1
  2832  1400  1398    1
  2833  1357  1359    1
  2834  1172  1173   ar
  2835  1359  1361    1
  2836  1359  1360    1
  2837  2515  2517    1
  2838  2515  2535    1
  2839  1176  1175   ar
  2840  2521  2537    1
  2841  1361  1362    1
  2842  2517  2516    1
  2843  1385  1383    1
  2844  1385  1380    1
  2845  2540  2542    1
  2846  2540  2538    1
  2847  1376  1378    1
  2848  1376  1360    1
  2849  1376  1396    1
  2850  1378  1377    1
  2851  1383  1381    1
  2852  1383  1384    1
  2853  2542  2543    1
  2854  1420  1398    2
  2855  1173  1175   ar
  2856  1173  1174    2
  2857  2539  2538    1
  2858  2539  2537    1
  2859  1381  1382    1
  2860  1381  1379    1
  2861  1380  1379    1
  2862  1398  1382    1
  2863  1398  1419    1
  2864  2537  2556    2
  2865  2537  2555    1
  2866  1379  1377    1
