ligand
  PyMOL2.2          3D                             0

 31 33  0  0  0  0  0  0  0  0999 V2000
   40.5090   23.7670    5.3610 C   0  0  0  0  0  0  0  0  0  0  0  0
   38.5770   24.5530   -3.6220 N   0  0  0  0  0  0  0  0  0  0  0  0
   41.8860   24.1310    5.5370 O   0  0  0  0  0  0  0  0  0  0  0  0
   39.9150   24.9150    4.5490 C   0  0  0  0  0  0  0  0  0  0  0  0
   42.5250   21.7290   -2.1500 N   0  0  0  0  0  0  0  0  0  0  0  0
   40.2690   24.9020    3.0730 O   0  0  0  0  0  0  0  0  0  0  0  0
   39.2240   24.5290    2.2600 C   0  0  0  0  0  0  0  0  0  0  0  0
   42.3160   18.0640    0.2910 N   0  0  0  0  0  0  0  0  0  0  0  0
   39.4650   23.5460    1.2920 O   0  0  0  0  0  0  0  0  0  0  0  0
   40.1280   23.8320   -0.0250 C   0  0  0  0  0  0  0  0  0  0  0  0
   42.9880   23.9230    2.8760 N   0  0  0  0  0  0  0  0  0  0  0  0
   38.1560   25.1810   -0.7200 O   0  0  0  0  0  0  0  0  0  0  0  0
   39.0160   24.0420   -1.0950 C   0  0  0  0  0  0  0  0  0  0  0  0
   42.0470   22.4560    0.4800 O   0  0  0  0  0  0  0  0  0  0  0  0
   39.6750   24.3380   -2.5340 C   0  0  0  0  0  0  0  0  0  0  0  0
   42.0590   20.4500    1.7610 O   0  0  0  0  0  0  0  0  0  0  0  0
   40.5940   23.0950   -2.9090 C   0  0  0  0  0  0  0  0  0  0  0  0
   45.7520   19.9860    1.8930 O   0  0  0  0  0  0  0  0  0  0  0  0
   41.6820   22.9110   -1.7710 C   0  0  0  0  0  0  0  0  0  0  0  0
   45.4950   22.4420    3.3270 O   0  0  0  0  0  0  0  0  0  0  0  0
   41.0480   22.6030   -0.4520 C   0  0  0  0  0  0  0  0  0  0  0  0
   36.8600   24.4960    2.5760 O   0  0  0  0  0  0  0  0  0  0  0  0
   41.9360   21.9470    1.8340 C   0  0  0  0  0  0  0  0  0  0  0  0
   37.9570   26.4090    4.2490 O   0  0  0  0  0  0  0  0  0  0  0  0
   43.4100   19.9200    1.3000 C   0  0  0  0  0  0  0  0  0  0  0  0
   43.3750   18.3970    1.2480 C   0  0  0  0  0  0  0  0  0  0  0  0
   44.4830   20.4330    2.2880 C   0  0  0  0  0  0  0  0  0  0  0  0
   44.4720   21.9510    2.3570 C   0  0  0  0  0  0  0  0  0  0  0  0
   43.0670   22.4120    2.7870 C   0  0  0  0  0  0  0  0  0  0  0  0
   38.0650   24.2240    3.1950 C   0  0  0  0  0  0  0  0  0  0  0  0
   38.3880   25.0380    4.4890 C   0  0  0  0  0  0  0  0  0  0  0  0
  1  4  1  0  0  0  0
  1  3  1  0  0  0  0
  4  6  1  0  0  0  0
  4 31  1  0  0  0  0
  6  7  1  0  0  0  0
  7  9  1  0  0  0  0
  7 30  1  0  0  0  0
  9 10  1  0  0  0  0
 10 13  1  0  0  0  0
 10 21  1  0  0  0  0
 12 13  1  0  0  0  0
 13 15  1  0  0  0  0
 14 23  1  0  0  0  0
  2 15  1  0  0  0  0
 15 17  1  0  0  0  0
 16 25  1  0  0  0  0
 17 19  1  0  0  0  0
  5 19  1  0  0  0  0
 19 21  1  0  0  0  0
 14 21  1  0  0  0  0
 16 23  1  0  0  0  0
 23 29  1  0  0  0  0
 25 26  1  0  0  0  0
 25 27  1  0  0  0  0
  8 26  1  0  0  0  0
 18 27  1  0  0  0  0
 27 28  1  0  0  0  0
 20 28  1  0  0  0  0
 28 29  1  0  0  0  0
 11 29  1  0  0  0  0
 22 30  1  0  0  0  0
 30 31  1  0  0  0  0
 24 31  1  0  0  0  0
M  END
$$$$
