ligand
 OpenBabel11021811433D
libRbt.so/2013.1/901 2013/11/27
 31 33  0  0  0  0  0  0  0  0999 V2000
   40.5175   24.5329    5.7816 C   0  0  0  0  0  0  0  0  0  0  0  0
   38.6527   24.6753   -3.0341 N   0  0  0  0  0  0  0  0  0  0  0  0
   41.8424   25.0326    5.5484 O   0  0  0  0  0  0  0  0  0  0  0  0
   39.6341   25.3501    4.8425 C   0  0  1  0  0  0  0  0  0  0  0  0
   42.3958   21.5055   -1.7420 N   0  0  0  0  0  0  0  0  0  0  0  0
   39.9783   25.2208    3.3698 O   0  0  0  0  0  0  0  0  0  0  0  0
   39.0738   24.4681    2.6575 C   0  0  1  0  0  0  0  0  0  0  0  0
   42.4620   17.7831    0.7598 N   0  0  0  0  0  0  0  0  0  0  0  0
   39.5725   23.4575    1.8261 O   0  0  0  0  0  0  0  0  0  0  0  0
   40.2251   23.7285    0.5008 C   0  0  2  0  0  0  0  0  0  0  0  0
   42.9789   23.7599    3.2492 N   0  0  0  0  0  0  0  0  0  0  0  0
   38.3515   25.2493   -0.1061 O   0  0  0  0  0  0  0  0  0  0  0  0
   39.1087   24.0573   -0.5341 C   0  0  1  0  0  0  0  0  0  0  0  0
   42.0393   22.1906    0.9184 O   0  0  0  0  0  0  0  0  0  0  0  0
   39.7552   24.3422   -1.9810 C   0  0  1  0  0  0  0  0  0  0  0  0
   42.0212   20.2476    2.2930 O   0  0  0  0  0  0  0  0  0  0  0  0
   40.5629   23.0418   -2.4134 C   0  0  0  0  0  0  0  0  0  0  0  0
   45.7081   19.7528    2.4745 O   0  0  0  0  0  0  0  0  0  0  0  0
   41.6591   22.7389   -1.3092 C   0  0  1  0  0  0  0  0  0  0  0  0
   45.4669   22.2765    3.7886 O   0  0  0  0  0  0  0  0  0  0  0  0
   41.0337   22.4436    0.0167 C   0  0  2  0  0  0  0  0  0  0  0  0
   36.8075   23.8470    3.0671 O   0  0  0  0  0  0  0  0  0  0  0  0
   41.9135   21.7476    2.2941 C   0  0  1  0  0  0  0  0  0  0  0  0
   37.3441   26.2041    4.4155 O   0  0  0  0  0  0  0  0  0  0  0  0
   43.3698   19.6826    1.8677 C   0  0  2  0  0  0  0  0  0  0  0  0
   43.3191   18.1593    1.8877 C   0  0  0  0  0  0  0  0  0  0  0  0
   44.4411   20.2309    2.8384 C   0  0  2  0  0  0  0  0  0  0  0  0
   44.4456   21.7505    2.8353 C   0  0  1  0  0  0  0  0  0  0  0  0
   43.0426   22.2457    3.2324 C   0  0  1  0  0  0  0  0  0  0  0  0
   38.0411   24.0005    3.6702 C   0  0  2  0  0  0  0  0  0  0  0  0
   38.1311   25.0485    4.8257 C   0  0  1  0  0  0  0  0  0  0  0  0
  1  3  1  0  0  0  0
  4  1  1  1  0  0  0
  4  6  1  0  0  0  0
  4 31  1  0  0  0  0
  6  7  1  0  0  0  0
  7  9  1  1  0  0  0
  7 30  1  0  0  0  0
  8 26  1  0  0  0  0
 10  9  1  1  0  0  0
 10 13  1  0  0  0  0
 10 21  1  0  0  0  0
 13 12  1  1  0  0  0
 13 15  1  0  0  0  0
 15  2  1  6  0  0  0
 15 17  1  0  0  0  0
 16 25  1  0  0  0  0
 16 23  1  0  0  0  0
 17 19  1  0  0  0  0
 19  5  1  6  0  0  0
 19 21  1  0  0  0  0
 21 14  1  1  0  0  0
 23 14  1  6  0  0  0
 23 29  1  0  0  0  0
 25 26  1  1  0  0  0
 25 27  1  0  0  0  0
 27 18  1  6  0  0  0
 27 28  1  0  0  0  0
 28 20  1  1  0  0  0
 28 29  1  0  0  0  0
 29 11  1  6  0  0  0
 30 22  1  6  0  0  0
 30 31  1  0  0  0  0
 31 24  1  6  0  0  0
M  END
>  <CHROM.1>
59.86030050,-75.55431263,-76.55254313,93.99927917,67.74871511,70.85723892
41.08850300,22.88147640,1.90708383,-2.87226401,0.69321681,-1.83856350

>  <Name>
ligand

>  <RI>
0

>  <Rbt.Current_Directory>
/home/itssahil/PROJECTS/Mol_Feturizer/New_Systems/rnas/2ET5

>  <Rbt.Executable>
rbdock ($Id: //depot/dev/client3/rdock/2013.1/src/exe/rbdock.cxx#4 $)

>  <Rbt.Library>
libRbt.so (2013.1, Build901 2013/11/27)

>  <Rbt.Parameter_File>
/export/apps/rDock/src/rDock_2013.1_src/data/scripts/dock_solv.prm

>  <Rbt.Receptor>
prm/pocket_docking_2.prm

>  <SCORE>
-9.70323

>  <SCORE.INTER>
-8.23585

>  <SCORE.INTER.CONST>
1

>  <SCORE.INTER.POLAR>
0

>  <SCORE.INTER.ROT>
6

>  <SCORE.INTER.SOLV>
21.556

>  <SCORE.INTER.VDW>
-20.2759

>  <SCORE.INTER.norm>
-0.265673

>  <SCORE.INTRA>
-1.55894

>  <SCORE.INTRA.DIHEDRAL>
-3.7087

>  <SCORE.INTRA.DIHEDRAL.0>
11.2357

>  <SCORE.INTRA.POLAR>
0

>  <SCORE.INTRA.POLAR.0>
0

>  <SCORE.INTRA.REPUL>
0

>  <SCORE.INTRA.REPUL.0>
0

>  <SCORE.INTRA.SOLV>
-0.707256

>  <SCORE.INTRA.SOLV.lig_0>
-83.3092

>  <SCORE.INTRA.VDW>
0.649042

>  <SCORE.INTRA.VDW.0>
-4.47057

>  <SCORE.INTRA.norm>
-0.0502882

>  <SCORE.RESTR>
0.0915621

>  <SCORE.RESTR.CAVITY>
0.0915621

>  <SCORE.RESTR.norm>
0.00295362

>  <SCORE.SYSTEM>
0

>  <SCORE.SYSTEM.CONST>
0

>  <SCORE.SYSTEM.DIHEDRAL>
0

>  <SCORE.SYSTEM.SOLV>
0

>  <SCORE.SYSTEM.norm>
0

>  <SCORE.heavy>
31

>  <SCORE.norm>
-0.313007

>  <RMSD>
0.585

$$$$
ligand
 OpenBabel11021811433D
libRbt.so/2013.1/901 2013/11/27
 31 33  0  0  0  0  0  0  0  0999 V2000
   40.2664   24.5739    5.7180 C   0  0  0  0  0  0  0  0  0  0  0  0
   38.6062   24.6463   -3.1309 N   0  0  0  0  0  0  0  0  0  0  0  0
   41.5901   25.0867    5.5069 O   0  0  0  0  0  0  0  0  0  0  0  0
   39.3946   25.3657    4.7469 C   0  0  1  0  0  0  0  0  0  0  0  0
   42.3497   21.5054   -1.7712 N   0  0  0  0  0  0  0  0  0  0  0  0
   39.7836   25.2314    3.2859 O   0  0  0  0  0  0  0  0  0  0  0  0
   38.9150   24.4550    2.5545 C   0  0  1  0  0  0  0  0  0  0  0  0
   42.3622   17.7717    0.6214 N   0  0  0  0  0  0  0  0  0  0  0  0
   39.4574   23.4479    1.7465 O   0  0  0  0  0  0  0  0  0  0  0  0
   40.1290   23.7198    0.4309 C   0  0  2  0  0  0  0  0  0  0  0  0
   42.9180   23.7238    3.2262 N   0  0  0  0  0  0  0  0  0  0  0  0
   38.2550   25.2262   -0.2097 O   0  0  0  0  0  0  0  0  0  0  0  0
   39.0268   24.0381   -0.6224 C   0  0  1  0  0  0  0  0  0  0  0  0
   41.9467   22.1953    0.8813 O   0  0  0  0  0  0  0  0  0  0  0  0
   39.6942   24.3235   -2.0597 C   0  0  1  0  0  0  0  0  0  0  0  0
   41.8694   20.2450    2.2434 O   0  0  0  0  0  0  0  0  0  0  0  0
   40.5173   23.0275   -2.4756 C   0  0  0  0  0  0  0  0  0  0  0  0
   45.5406   19.6487    2.4380 O   0  0  0  0  0  0  0  0  0  0  0  0
   41.5980   22.7350   -1.3535 C   0  0  1  0  0  0  0  0  0  0  0  0
   45.3623   22.1698    3.7671 O   0  0  0  0  0  0  0  0  0  0  0  0
   40.9537   22.4390   -0.0367 C   0  0  2  0  0  0  0  0  0  0  0  0
   36.6506   23.7921    2.9042 O   0  0  0  0  0  0  0  0  0  0  0  0
   41.8026   21.7473    2.2536 C   0  0  1  0  0  0  0  0  0  0  0  0
   37.1014   26.1702    4.2470 O   0  0  0  0  0  0  0  0  0  0  0  0
   43.2040   19.6461    1.8205 C   0  0  2  0  0  0  0  0  0  0  0  0
   43.1118   18.1246    1.8305 C   0  0  0  0  0  0  0  0  0  0  0  0
   44.2855   20.1589    2.7993 C   0  0  2  0  0  0  0  0  0  0  0  0
   44.3314   21.6778    2.8060 C   0  0  1  0  0  0  0  0  0  0  0  0
   42.9406   22.2085    3.2001 C   0  0  1  0  0  0  0  0  0  0  0  0
   37.8630   23.9751    3.5412 C   0  0  2  0  0  0  0  0  0  0  0  0
   37.8989   25.0340    4.6896 C   0  0  1  0  0  0  0  0  0  0  0  0
  1  3  1  0  0  0  0
  4  1  1  1  0  0  0
  4  6  1  0  0  0  0
  4 31  1  0  0  0  0
  6  7  1  0  0  0  0
  7  9  1  1  0  0  0
  7 30  1  0  0  0  0
  8 26  1  0  0  0  0
 10  9  1  1  0  0  0
 10 13  1  0  0  0  0
 10 21  1  0  0  0  0
 13 12  1  1  0  0  0
 13 15  1  0  0  0  0
 15  2  1  6  0  0  0
 15 17  1  0  0  0  0
 16 25  1  0  0  0  0
 16 23  1  0  0  0  0
 17 19  1  0  0  0  0
 19  5  1  6  0  0  0
 19 21  1  0  0  0  0
 21 14  1  1  0  0  0
 23 14  1  6  0  0  0
 23 29  1  0  0  0  0
 25 26  1  1  0  0  0
 25 27  1  0  0  0  0
 27 18  1  6  0  0  0
 27 28  1  0  0  0  0
 28 20  1  1  0  0  0
 28 29  1  0  0  0  0
 29 11  1  6  0  0  0
 30 22  1  6  0  0  0
 30 31  1  0  0  0  0
 31 24  1  6  0  0  0
M  END
>  <CHROM.1>
59.17392765,-76.25864508,-75.22907734,91.65128216,68.16376670,76.34469354
40.95286870,22.85993035,1.83444410,-2.88178072,0.69666759,-1.82448842

>  <Name>
ligand

>  <RI>
0

>  <Rbt.Current_Directory>
/home/itssahil/PROJECTS/Mol_Feturizer/New_Systems/rnas/2ET5

>  <Rbt.Executable>
rbdock ($Id: //depot/dev/client3/rdock/2013.1/src/exe/rbdock.cxx#4 $)

>  <Rbt.Library>
libRbt.so (2013.1, Build901 2013/11/27)

>  <Rbt.Parameter_File>
/export/apps/rDock/src/rDock_2013.1_src/data/scripts/dock_solv.prm

>  <Rbt.Receptor>
prm/pocket_docking_2.prm

>  <SCORE>
-9.62738

>  <SCORE.INTER>
-8.02595

>  <SCORE.INTER.CONST>
1

>  <SCORE.INTER.POLAR>
0

>  <SCORE.INTER.ROT>
6

>  <SCORE.INTER.SOLV>
22.2651

>  <SCORE.INTER.VDW>
-20.3723

>  <SCORE.INTER.norm>
-0.258902

>  <SCORE.INTRA>
-1.6911

>  <SCORE.INTRA.DIHEDRAL>
-3.7024

>  <SCORE.INTRA.DIHEDRAL.0>
11.2357

>  <SCORE.INTRA.POLAR>
0

>  <SCORE.INTRA.POLAR.0>
0

>  <SCORE.INTRA.REPUL>
0

>  <SCORE.INTRA.REPUL.0>
0

>  <SCORE.INTRA.SOLV>
-1.14462

>  <SCORE.INTRA.SOLV.lig_0>
-83.3092

>  <SCORE.INTRA.VDW>
0.732416

>  <SCORE.INTRA.VDW.0>
-4.47057

>  <SCORE.INTRA.norm>
-0.0545515

>  <SCORE.RESTR>
0.089661

>  <SCORE.RESTR.CAVITY>
0.089661

>  <SCORE.RESTR.norm>
0.00289229

>  <SCORE.SYSTEM>
0

>  <SCORE.SYSTEM.CONST>
0

>  <SCORE.SYSTEM.DIHEDRAL>
0

>  <SCORE.SYSTEM.SOLV>
0

>  <SCORE.SYSTEM.norm>
0

>  <SCORE.heavy>
31

>  <SCORE.norm>
-0.310561

>  <RMSD>
0.590

$$$$
ligand
 OpenBabel11021811433D
libRbt.so/2013.1/901 2013/11/27
 31 33  0  0  0  0  0  0  0  0999 V2000
   41.0362   23.7597    5.1567 C   0  0  0  0  0  0  0  0  0  0  0  0
   38.7736   24.7717   -3.4703 N   0  0  0  0  0  0  0  0  0  0  0  0
   40.4933   23.6013    6.4757 O   0  0  0  0  0  0  0  0  0  0  0  0
   40.0564   24.6959    4.4541 C   0  0  1  0  0  0  0  0  0  0  0  0
   42.4152   21.4456   -2.2854 N   0  0  0  0  0  0  0  0  0  0  0  0
   40.1680   24.7164    2.9405 O   0  0  0  0  0  0  0  0  0  0  0  0
   39.1350   24.0684    2.3039 C   0  0  1  0  0  0  0  0  0  0  0  0
   42.3525   17.4840    0.4317 N   0  0  0  0  0  0  0  0  0  0  0  0
   39.4590   23.1401    1.3065 O   0  0  0  0  0  0  0  0  0  0  0  0
   40.1738   23.5097    0.0383 C   0  0  2  0  0  0  0  0  0  0  0  0
   42.8467   23.5803    2.6834 N   0  0  0  0  0  0  0  0  0  0  0  0
   38.3484   25.1056   -0.5206 O   0  0  0  0  0  0  0  0  0  0  0  0
   39.1091   23.9411   -1.0133 C   0  0  1  0  0  0  0  0  0  0  0  0
   41.9481   21.9133    0.4048 O   0  0  0  0  0  0  0  0  0  0  0  0
   39.8235   24.3346   -2.4016 C   0  0  1  0  0  0  0  0  0  0  0  0
   41.8265   20.0478    1.8780 O   0  0  0  0  0  0  0  0  0  0  0  0
   40.6335   23.0617   -2.9055 C   0  0  0  0  0  0  0  0  0  0  0  0
   45.4893   19.4681    2.2229 O   0  0  0  0  0  0  0  0  0  0  0  0
   41.6752   22.6506   -1.7836 C   0  0  1  0  0  0  0  0  0  0  0  0
   45.2714   22.0639    3.3926 O   0  0  0  0  0  0  0  0  0  0  0  0
   40.9872   22.2564   -0.5156 C   0  0  2  0  0  0  0  0  0  0  0  0
   36.9326   23.4665    2.9941 O   0  0  0  0  0  0  0  0  0  0  0  0
   41.7606   21.5479    1.7962 C   0  0  1  0  0  0  0  0  0  0  0  0
   37.7663   25.6504    4.4765 O   0  0  0  0  0  0  0  0  0  0  0  0
   43.1732   19.4261    1.5337 C   0  0  2  0  0  0  0  0  0  0  0  0
   43.0795   17.9078    1.6317 C   0  0  0  0  0  0  0  0  0  0  0  0
   44.2239   19.9977    2.5135 C   0  0  2  0  0  0  0  0  0  0  0  0
   44.2708   21.5143    2.4308 C   0  0  1  0  0  0  0  0  0  0  0  0
   42.8687   22.0662    2.7486 C   0  0  1  0  0  0  0  0  0  0  0  0
   38.2486   23.5220    3.4114 C   0  0  2  0  0  0  0  0  0  0  0  0
   38.5567   24.4372    4.6397 C   0  0  1  0  0  0  0  0  0  0  0  0
  1  3  1  0  0  0  0
  4  1  1  6  0  0  0
  4  6  1  0  0  0  0
  4 31  1  0  0  0  0
  6  7  1  0  0  0  0
  7  9  1  1  0  0  0
  7 30  1  0  0  0  0
  8 26  1  0  0  0  0
 10  9  1  1  0  0  0
 10 13  1  0  0  0  0
 10 21  1  0  0  0  0
 13 12  1  1  0  0  0
 13 15  1  0  0  0  0
 15  2  1  6  0  0  0
 15 17  1  0  0  0  0
 16 25  1  0  0  0  0
 16 23  1  0  0  0  0
 17 19  1  0  0  0  0
 19  5  1  6  0  0  0
 19 21  1  0  0  0  0
 21 14  1  1  0  0  0
 23 14  1  6  0  0  0
 23 29  1  0  0  0  0
 25 26  1  1  0  0  0
 25 27  1  0  0  0  0
 27 18  1  6  0  0  0
 27 28  1  0  0  0  0
 28 20  1  1  0  0  0
 28 29  1  0  0  0  0
 29 11  1  6  0  0  0
 30 22  1  6  0  0  0
 30 31  1  0  0  0  0
 31 24  1  6  0  0  0
M  END
>  <CHROM.1>
-163.20939241,-62.66908120,-87.65773190,100.18020704,57.77015759,75.62335550
41.05005995,22.56465774,1.56464087,-2.99055583,0.73270109,-1.68132946

>  <Name>
ligand

>  <RI>
0

>  <Rbt.Current_Directory>
/home/itssahil/PROJECTS/Mol_Feturizer/New_Systems/rnas/2ET5

>  <Rbt.Executable>
rbdock ($Id: //depot/dev/client3/rdock/2013.1/src/exe/rbdock.cxx#4 $)

>  <Rbt.Library>
libRbt.so (2013.1, Build901 2013/11/27)

>  <Rbt.Parameter_File>
/export/apps/rDock/src/rDock_2013.1_src/data/scripts/dock_solv.prm

>  <Rbt.Receptor>
prm/pocket_docking_2.prm

>  <SCORE>
-7.85379

>  <SCORE.INTER>
-8.37208

>  <SCORE.INTER.CONST>
1

>  <SCORE.INTER.POLAR>
0

>  <SCORE.INTER.ROT>
6

>  <SCORE.INTER.SOLV>
24.1939

>  <SCORE.INTER.VDW>
-21.246

>  <SCORE.INTER.norm>
-0.270067

>  <SCORE.INTRA>
0.173689

>  <SCORE.INTRA.DIHEDRAL>
-0.701698

>  <SCORE.INTRA.DIHEDRAL.0>
11.2357

>  <SCORE.INTRA.POLAR>
0

>  <SCORE.INTRA.POLAR.0>
0

>  <SCORE.INTRA.REPUL>
0

>  <SCORE.INTRA.REPUL.0>
0

>  <SCORE.INTRA.SOLV>
-0.794018

>  <SCORE.INTRA.SOLV.lig_0>
-83.3092

>  <SCORE.INTRA.VDW>
0.921547

>  <SCORE.INTRA.VDW.0>
-4.47057

>  <SCORE.INTRA.norm>
0.00560289

>  <SCORE.RESTR>
0.344602

>  <SCORE.RESTR.CAVITY>
0.344602

>  <SCORE.RESTR.norm>
0.0111162

>  <SCORE.SYSTEM>
0

>  <SCORE.SYSTEM.CONST>
0

>  <SCORE.SYSTEM.DIHEDRAL>
0

>  <SCORE.SYSTEM.SOLV>
0

>  <SCORE.SYSTEM.norm>
0

>  <SCORE.heavy>
31

>  <SCORE.norm>
-0.253348

>  <RMSD>
0.594

$$$$
ligand
 OpenBabel11021811433D
libRbt.so/2013.1/901 2013/11/27
 31 33  0  0  0  0  0  0  0  0999 V2000
   40.2951   24.5826    5.7885 C   0  0  0  0  0  0  0  0  0  0  0  0
   38.6333   24.7122   -3.0486 N   0  0  0  0  0  0  0  0  0  0  0  0
   41.6296   25.0466    5.5367 O   0  0  0  0  0  0  0  0  0  0  0  0
   39.4287   25.3748    4.8129 C   0  0  1  0  0  0  0  0  0  0  0  0
   42.3402   21.5025   -1.7505 N   0  0  0  0  0  0  0  0  0  0  0  0
   39.8271   25.2426    3.3541 O   0  0  0  0  0  0  0  0  0  0  0  0
   38.9639   24.4663    2.6164 C   0  0  1  0  0  0  0  0  0  0  0  0
   42.4158   17.7767    0.6684 N   0  0  0  0  0  0  0  0  0  0  0  0
   39.5123   23.4607    1.8105 O   0  0  0  0  0  0  0  0  0  0  0  0
   40.1754   23.7329    0.4907 C   0  0  2  0  0  0  0  0  0  0  0  0
   42.8784   23.7005    3.2856 N   0  0  0  0  0  0  0  0  0  0  0  0
   38.3191   25.2735   -0.1195 O   0  0  0  0  0  0  0  0  0  0  0  0
   39.0683   24.0770   -0.5492 C   0  0  1  0  0  0  0  0  0  0  0  0
   41.9734   22.1768    0.9112 O   0  0  0  0  0  0  0  0  0  0  0  0
   39.7263   24.3638   -1.9906 C   0  0  1  0  0  0  0  0  0  0  0  0
   41.9534   20.2041    2.2428 O   0  0  0  0  0  0  0  0  0  0  0  0
   40.5251   23.0586   -2.4249 C   0  0  0  0  0  0  0  0  0  0  0  0
   45.6413   19.7283    2.4525 O   0  0  0  0  0  0  0  0  0  0  0  0
   41.6118   22.7401   -1.3157 C   0  0  1  0  0  0  0  0  0  0  0  0
   45.3702   22.2211    3.8188 O   0  0  0  0  0  0  0  0  0  0  0  0
   40.9756   22.4434    0.0048 C   0  0  2  0  0  0  0  0  0  0  0  0
   36.6979   23.8009    2.9510 O   0  0  0  0  0  0  0  0  0  0  0  0
   41.8360   21.7029    2.2755 C   0  0  1  0  0  0  0  0  0  0  0  0
   37.1380   26.1778    4.2995 O   0  0  0  0  0  0  0  0  0  0  0  0
   43.3099   19.6569    1.8197 C   0  0  2  0  0  0  0  0  0  0  0  0
   43.2688   18.1332    1.8058 C   0  0  0  0  0  0  0  0  0  0  0  0
   44.3675   20.1904    2.8133 C   0  0  2  0  0  0  0  0  0  0  0  0
   44.3623   21.7097    2.8435 C   0  0  1  0  0  0  0  0  0  0  0  0
   42.9520   22.1874    3.2365 C   0  0  1  0  0  0  0  0  0  0  0  0
   37.9061   23.9843    3.5958 C   0  0  2  0  0  0  0  0  0  0  0  0
   37.9337   25.0417    4.7457 C   0  0  1  0  0  0  0  0  0  0  0  0
  1  3  1  0  0  0  0
  4  1  1  1  0  0  0
  4  6  1  0  0  0  0
  4 31  1  0  0  0  0
  6  7  1  0  0  0  0
  7  9  1  1  0  0  0
  7 30  1  0  0  0  0
  8 26  1  0  0  0  0
 10  9  1  1  0  0  0
 10 13  1  0  0  0  0
 10 21  1  0  0  0  0
 13 12  1  1  0  0  0
 13 15  1  0  0  0  0
 15  2  1  6  0  0  0
 15 17  1  0  0  0  0
 16 25  1  0  0  0  0
 16 23  1  0  0  0  0
 17 19  1  0  0  0  0
 19  5  1  6  0  0  0
 19 21  1  0  0  0  0
 21 14  1  1  0  0  0
 23 14  1  6  0  0  0
 23 29  1  0  0  0  0
 25 26  1  1  0  0  0
 25 27  1  0  0  0  0
 27 18  1  6  0  0  0
 27 28  1  0  0  0  0
 28 20  1  1  0  0  0
 28 29  1  0  0  0  0
 29 11  1  6  0  0  0
 30 22  1  6  0  0  0
 30 31  1  0  0  0  0
 31 24  1  6  0  0  0
M  END
>  <CHROM.1>
56.23694982,-77.11525414,-73.58904952,94.01079981,69.05346502,70.34646736
40.99554375,22.87160093,1.87900700,-2.87509961,0.69553553,-1.82273405

>  <Name>
ligand

>  <RI>
0

>  <Rbt.Current_Directory>
/home/itssahil/PROJECTS/Mol_Feturizer/New_Systems/rnas/2ET5

>  <Rbt.Executable>
rbdock ($Id: //depot/dev/client3/rdock/2013.1/src/exe/rbdock.cxx#4 $)

>  <Rbt.Library>
libRbt.so (2013.1, Build901 2013/11/27)

>  <Rbt.Parameter_File>
/export/apps/rDock/src/rDock_2013.1_src/data/scripts/dock_solv.prm

>  <Rbt.Receptor>
prm/pocket_docking_2.prm

>  <SCORE>
-9.60056

>  <SCORE.INTER>
-8.10896

>  <SCORE.INTER.CONST>
1

>  <SCORE.INTER.POLAR>
0

>  <SCORE.INTER.ROT>
6

>  <SCORE.INTER.SOLV>
21.7806

>  <SCORE.INTER.VDW>
-20.2662

>  <SCORE.INTER.norm>
-0.261579

>  <SCORE.INTRA>
-1.56202

>  <SCORE.INTRA.DIHEDRAL>
-3.76909

>  <SCORE.INTRA.DIHEDRAL.0>
11.2357

>  <SCORE.INTRA.POLAR>
0

>  <SCORE.INTRA.POLAR.0>
0

>  <SCORE.INTRA.REPUL>
0

>  <SCORE.INTRA.REPUL.0>
0

>  <SCORE.INTRA.SOLV>
-0.824206

>  <SCORE.INTRA.SOLV.lig_0>
-83.3092

>  <SCORE.INTRA.VDW>
0.734628

>  <SCORE.INTRA.VDW.0>
-4.47057

>  <SCORE.INTRA.norm>
-0.0503877

>  <SCORE.RESTR>
0.0704203

>  <SCORE.RESTR.CAVITY>
0.0704203

>  <SCORE.RESTR.norm>
0.00227162

>  <SCORE.SYSTEM>
0

>  <SCORE.SYSTEM.CONST>
0

>  <SCORE.SYSTEM.DIHEDRAL>
0

>  <SCORE.SYSTEM.SOLV>
0

>  <SCORE.SYSTEM.norm>
0

>  <SCORE.heavy>
31

>  <SCORE.norm>
-0.309695

>  <RMSD>
0.605

$$$$
ligand
 OpenBabel11021811433D
libRbt.so/2013.1/901 2013/11/27
 31 33  0  0  0  0  0  0  0  0999 V2000
   40.4326   24.5692    5.8232 C   0  0  0  0  0  0  0  0  0  0  0  0
   38.5587   24.8417   -2.9619 N   0  0  0  0  0  0  0  0  0  0  0  0
   41.7589   25.0486    5.5571 O   0  0  0  0  0  0  0  0  0  0  0  0
   39.5419   25.3810    4.8865 C   0  0  1  0  0  0  0  0  0  0  0  0
   42.2448   21.5637   -1.7804 N   0  0  0  0  0  0  0  0  0  0  0  0
   39.8902   25.2629    3.4138 O   0  0  0  0  0  0  0  0  0  0  0  0
   38.9955   24.5035    2.6962 C   0  0  1  0  0  0  0  0  0  0  0  0
   42.4104   17.8014    0.7638 N   0  0  0  0  0  0  0  0  0  0  0  0
   39.5071   23.5027    1.8607 O   0  0  0  0  0  0  0  0  0  0  0  0
   40.1503   23.7869    0.5335 C   0  0  2  0  0  0  0  0  0  0  0  0
   42.8452   23.7904    3.2261 N   0  0  0  0  0  0  0  0  0  0  0  0
   38.3041   25.3610   -0.0194 O   0  0  0  0  0  0  0  0  0  0  0  0
   39.0295   24.1617   -0.4809 C   0  0  1  0  0  0  0  0  0  0  0  0
   41.9344   22.2009    0.8975 O   0  0  0  0  0  0  0  0  0  0  0  0
   39.6656   24.4624   -1.9292 C   0  0  1  0  0  0  0  0  0  0  0  0
   41.9474   20.2607    2.2761 O   0  0  0  0  0  0  0  0  0  0  0  0
   40.4390   23.1539   -2.3980 C   0  0  0  0  0  0  0  0  0  0  0  0
   45.6419   19.8280    2.4622 O   0  0  0  0  0  0  0  0  0  0  0  0
   41.5408   22.8039   -1.3135 C   0  0  1  0  0  0  0  0  0  0  0  0
   45.3571   22.3500    3.7710 O   0  0  0  0  0  0  0  0  0  0  0  0
   40.9243   22.4948    0.0135 C   0  0  2  0  0  0  0  0  0  0  0  0
   36.7356   23.8550    3.0984 O   0  0  0  0  0  0  0  0  0  0  0  0
   41.8146   21.7586    2.2740 C   0  0  1  0  0  0  0  0  0  0  0  0
   37.2431   26.2112    4.4594 O   0  0  0  0  0  0  0  0  0  0  0  0
   43.3056   19.7175    1.8533 C   0  0  2  0  0  0  0  0  0  0  0  0
   43.2804   18.1935    1.8762 C   0  0  0  0  0  0  0  0  0  0  0  0
   44.3667   20.2856    2.8239 C   0  0  2  0  0  0  0  0  0  0  0  0
   44.3458   21.8050    2.8178 C   0  0  1  0  0  0  0  0  0  0  0  0
   42.9342   22.2774    3.2125 C   0  0  1  0  0  0  0  0  0  0  0  0
   37.9663   24.0194    3.7046 C   0  0  2  0  0  0  0  0  0  0  0  0
   38.0423   25.0626    4.8654 C   0  0  1  0  0  0  0  0  0  0  0  0
  1  3  1  0  0  0  0
  4  1  1  1  0  0  0
  4  6  1  0  0  0  0
  4 31  1  0  0  0  0
  6  7  1  0  0  0  0
  7  9  1  1  0  0  0
  7 30  1  0  0  0  0
  8 26  1  0  0  0  0
 10  9  1  1  0  0  0
 10 13  1  0  0  0  0
 10 21  1  0  0  0  0
 13 12  1  1  0  0  0
 13 15  1  0  0  0  0
 15  2  1  6  0  0  0
 15 17  1  0  0  0  0
 16 25  1  0  0  0  0
 16 23  1  0  0  0  0
 17 19  1  0  0  0  0
 19  5  1  6  0  0  0
 19 21  1  0  0  0  0
 21 14  1  1  0  0  0
 23 14  1  6  0  0  0
 23 29  1  0  0  0  0
 25 26  1  1  0  0  0
 25 27  1  0  0  0  0
 27 18  1  6  0  0  0
 27 28  1  0  0  0  0
 28 20  1  1  0  0  0
 28 29  1  0  0  0  0
 29 11  1  6  0  0  0
 30 22  1  6  0  0  0
 30 31  1  0  0  0  0
 31 24  1  6  0  0  0
M  END
>  <CHROM.1>
57.67989028,-76.00437854,-74.07778059,97.30617194,66.35437389,69.81299231
41.00044497,22.93086126,1.92152820,-2.87096667,0.69713851,-1.82701754

>  <Name>
ligand

>  <RI>
0

>  <Rbt.Current_Directory>
/home/itssahil/PROJECTS/Mol_Feturizer/New_Systems/rnas/2ET5

>  <Rbt.Executable>
rbdock ($Id: //depot/dev/client3/rdock/2013.1/src/exe/rbdock.cxx#4 $)

>  <Rbt.Library>
libRbt.so (2013.1, Build901 2013/11/27)

>  <Rbt.Parameter_File>
/export/apps/rDock/src/rDock_2013.1_src/data/scripts/dock_solv.prm

>  <Rbt.Receptor>
prm/pocket_docking_2.prm

>  <SCORE>
-9.55082

>  <SCORE.INTER>
-8.23921

>  <SCORE.INTER.CONST>
1

>  <SCORE.INTER.POLAR>
0

>  <SCORE.INTER.ROT>
6

>  <SCORE.INTER.SOLV>
21.2453

>  <SCORE.INTER.VDW>
-20.1746

>  <SCORE.INTER.norm>
-0.265781

>  <SCORE.INTRA>
-1.35134

>  <SCORE.INTRA.DIHEDRAL>
-3.54315

>  <SCORE.INTRA.DIHEDRAL.0>
11.2357

>  <SCORE.INTRA.POLAR>
0

>  <SCORE.INTRA.POLAR.0>
0

>  <SCORE.INTRA.REPUL>
0

>  <SCORE.INTRA.REPUL.0>
0

>  <SCORE.INTRA.SOLV>
-0.587714

>  <SCORE.INTRA.SOLV.lig_0>
-83.3092

>  <SCORE.INTRA.VDW>
0.714092

>  <SCORE.INTRA.VDW.0>
-4.47057

>  <SCORE.INTRA.norm>
-0.0435916

>  <SCORE.RESTR>
0.0397308

>  <SCORE.RESTR.CAVITY>
0.0397308

>  <SCORE.RESTR.norm>
0.00128164

>  <SCORE.SYSTEM>
0

>  <SCORE.SYSTEM.CONST>
0

>  <SCORE.SYSTEM.DIHEDRAL>
0

>  <SCORE.SYSTEM.SOLV>
0

>  <SCORE.SYSTEM.norm>
0

>  <SCORE.heavy>
31

>  <SCORE.norm>
-0.308091

>  <RMSD>
0.613

$$$$
ligand
 OpenBabel11021811433D
libRbt.so/2013.1/901 2013/11/27
 31 33  0  0  0  0  0  0  0  0999 V2000
   40.3821   24.6236    5.8210 C   0  0  0  0  0  0  0  0  0  0  0  0
   38.5822   24.6367   -3.0072 N   0  0  0  0  0  0  0  0  0  0  0  0
   41.7152   25.0626    5.5214 O   0  0  0  0  0  0  0  0  0  0  0  0
   39.4987   25.4113    4.8570 C   0  0  1  0  0  0  0  0  0  0  0  0
   42.3704   21.5313   -1.6902 N   0  0  0  0  0  0  0  0  0  0  0  0
   39.8710   25.2716    3.3921 O   0  0  0  0  0  0  0  0  0  0  0  0
   38.9945   24.4919    2.6738 C   0  0  1  0  0  0  0  0  0  0  0  0
   42.4635   17.8354    0.7600 N   0  0  0  0  0  0  0  0  0  0  0  0
   39.5280   23.4820    1.8634 O   0  0  0  0  0  0  0  0  0  0  0  0
   40.1743   23.7481    0.5339 C   0  0  2  0  0  0  0  0  0  0  0  0
   42.9539   23.7941    3.3023 N   0  0  0  0  0  0  0  0  0  0  0  0
   38.2790   25.2370   -0.0847 O   0  0  0  0  0  0  0  0  0  0  0  0
   39.0514   24.0509   -0.5019 C   0  0  1  0  0  0  0  0  0  0  0  0
   42.0100   22.2392    0.9636 O   0  0  0  0  0  0  0  0  0  0  0  0
   39.6912   24.3295   -1.9530 C   0  0  1  0  0  0  0  0  0  0  0  0
   42.0103   20.2847    2.3219 O   0  0  0  0  0  0  0  0  0  0  0  0
   40.5155   23.0357   -2.3736 C   0  0  0  0  0  0  0  0  0  0  0  0
   45.7008   19.8089    2.4788 O   0  0  0  0  0  0  0  0  0  0  0  0
   41.6180   22.7591   -1.2687 C   0  0  1  0  0  0  0  0  0  0  0  0
   45.4530   22.3201    3.8155 O   0  0  0  0  0  0  0  0  0  0  0  0
   40.9992   22.4692    0.0616 C   0  0  2  0  0  0  0  0  0  0  0  0
   36.7345   23.8293    3.0520 O   0  0  0  0  0  0  0  0  0  0  0  0
   41.8943   21.7839    2.3362 C   0  0  1  0  0  0  0  0  0  0  0  0
   37.1995   26.2128    4.3804 O   0  0  0  0  0  0  0  0  0  0  0  0
   43.3595   19.7308    1.8844 C   0  0  2  0  0  0  0  0  0  0  0  0
   43.3174   18.2071    1.8918 C   0  0  0  0  0  0  0  0  0  0  0  0
   44.4333   20.2769    2.8537 C   0  0  2  0  0  0  0  0  0  0  0  0
   44.4294   21.7965    2.8634 C   0  0  1  0  0  0  0  0  0  0  0  0
   43.0258   22.2805    3.2725 C   0  0  1  0  0  0  0  0  0  0  0  0
   37.9541   24.0153    3.6743 C   0  0  2  0  0  0  0  0  0  0  0  0
   38.0026   25.0786    4.8182 C   0  0  1  0  0  0  0  0  0  0  0  0
  1  3  1  0  0  0  0
  4  1  1  1  0  0  0
  4  6  1  0  0  0  0
  4 31  1  0  0  0  0
  6  7  1  0  0  0  0
  7  9  1  1  0  0  0
  7 30  1  0  0  0  0
  8 26  1  0  0  0  0
 10  9  1  1  0  0  0
 10 13  1  0  0  0  0
 10 21  1  0  0  0  0
 13 12  1  1  0  0  0
 13 15  1  0  0  0  0
 15  2  1  6  0  0  0
 15 17  1  0  0  0  0
 16 25  1  0  0  0  0
 16 23  1  0  0  0  0
 17 19  1  0  0  0  0
 19  5  1  6  0  0  0
 19 21  1  0  0  0  0
 21 14  1  1  0  0  0
 23 14  1  6  0  0  0
 23 29  1  0  0  0  0
 25 26  1  1  0  0  0
 25 27  1  0  0  0  0
 27 18  1  6  0  0  0
 27 28  1  0  0  0  0
 28 20  1  1  0  0  0
 28 29  1  0  0  0  0
 29 11  1  6  0  0  0
 30 22  1  6  0  0  0
 30 31  1  0  0  0  0
 31 24  1  6  0  0  0
M  END
>  <CHROM.1>
54.92045555,-76.77569413,-75.29160439,92.60858842,69.05948597,71.22976880
41.03380228,22.90927230,1.92820111,-2.86949167,0.67994014,-1.84098555

>  <Name>
ligand

>  <RI>
0

>  <Rbt.Current_Directory>
/home/itssahil/PROJECTS/Mol_Feturizer/New_Systems/rnas/2ET5

>  <Rbt.Executable>
rbdock ($Id: //depot/dev/client3/rdock/2013.1/src/exe/rbdock.cxx#4 $)

>  <Rbt.Library>
libRbt.so (2013.1, Build901 2013/11/27)

>  <Rbt.Parameter_File>
/export/apps/rDock/src/rDock_2013.1_src/data/scripts/dock_solv.prm

>  <Rbt.Receptor>
prm/pocket_docking_2.prm

>  <SCORE>
-9.61282

>  <SCORE.INTER>
-8.06001

>  <SCORE.INTER.CONST>
1

>  <SCORE.INTER.POLAR>
0

>  <SCORE.INTER.ROT>
6

>  <SCORE.INTER.SOLV>
21.5715

>  <SCORE.INTER.VDW>
-20.1639

>  <SCORE.INTER.norm>
-0.26

>  <SCORE.INTRA>
-1.59375

>  <SCORE.INTRA.DIHEDRAL>
-3.74781

>  <SCORE.INTRA.DIHEDRAL.0>
11.2357

>  <SCORE.INTRA.POLAR>
0

>  <SCORE.INTRA.POLAR.0>
0

>  <SCORE.INTRA.REPUL>
0

>  <SCORE.INTRA.REPUL.0>
0

>  <SCORE.INTRA.SOLV>
-0.817231

>  <SCORE.INTRA.SOLV.lig_0>
-83.3092

>  <SCORE.INTRA.VDW>
0.688768

>  <SCORE.INTRA.VDW.0>
-4.47057

>  <SCORE.INTRA.norm>
-0.0514114

>  <SCORE.RESTR>
0.0409386

>  <SCORE.RESTR.CAVITY>
0.0409386

>  <SCORE.RESTR.norm>
0.0013206

>  <SCORE.SYSTEM>
0

>  <SCORE.SYSTEM.CONST>
0

>  <SCORE.SYSTEM.DIHEDRAL>
0

>  <SCORE.SYSTEM.SOLV>
0

>  <SCORE.SYSTEM.norm>
0

>  <SCORE.heavy>
31

>  <SCORE.norm>
-0.310091

>  <RMSD>
0.619

$$$$
ligand
 OpenBabel11021811433D
libRbt.so/2013.1/901 2013/11/27
 31 33  0  0  0  0  0  0  0  0999 V2000
   40.5149   24.7561    5.6855 C   0  0  0  0  0  0  0  0  0  0  0  0
   38.5948   24.6355   -3.0621 N   0  0  0  0  0  0  0  0  0  0  0  0
   40.4267   23.3780    5.2947 O   0  0  0  0  0  0  0  0  0  0  0  0
   39.5448   25.4766    4.7529 C   0  0  1  0  0  0  0  0  0  0  0  0
   42.3714   21.5270   -1.7193 N   0  0  0  0  0  0  0  0  0  0  0  0
   39.8412   25.3117    3.2734 O   0  0  0  0  0  0  0  0  0  0  0  0
   38.9624   24.4744    2.6263 C   0  0  1  0  0  0  0  0  0  0  0  0
   42.4809   17.8189    0.7122 N   0  0  0  0  0  0  0  0  0  0  0  0
   39.4954   23.4662    1.8135 O   0  0  0  0  0  0  0  0  0  0  0  0
   40.1540   23.7364    0.4910 C   0  0  2  0  0  0  0  0  0  0  0  0
   42.9144   23.7871    3.2745 N   0  0  0  0  0  0  0  0  0  0  0  0
   38.2642   25.2268   -0.1407 O   0  0  0  0  0  0  0  0  0  0  0  0
   39.0408   24.0422   -0.5544 C   0  0  1  0  0  0  0  0  0  0  0  0
   41.9860   22.2267    0.9332 O   0  0  0  0  0  0  0  0  0  0  0  0
   39.6940   24.3253   -1.9986 C   0  0  1  0  0  0  0  0  0  0  0  0
   41.9685   20.2771    2.2983 O   0  0  0  0  0  0  0  0  0  0  0  0
   40.5226   23.0331   -2.4154 C   0  0  0  0  0  0  0  0  0  0  0  0
   45.6560   19.7905    2.4890 O   0  0  0  0  0  0  0  0  0  0  0  0
   41.6147   22.7534   -1.3011 C   0  0  1  0  0  0  0  0  0  0  0  0
   45.4044   22.3073    3.8145 O   0  0  0  0  0  0  0  0  0  0  0  0
   40.9836   22.4592    0.0224 C   0  0  2  0  0  0  0  0  0  0  0  0
   36.7592   23.7246    3.1490 O   0  0  0  0  0  0  0  0  0  0  0  0
   41.8570   21.7767    2.3063 C   0  0  1  0  0  0  0  0  0  0  0  0
   37.1888   26.1630    4.3867 O   0  0  0  0  0  0  0  0  0  0  0  0
   43.3197   19.7175    1.8746 C   0  0  2  0  0  0  0  0  0  0  0  0
   43.2728   18.1940    1.8870 C   0  0  0  0  0  0  0  0  0  0  0  0
   44.3867   20.2638    2.8512 C   0  0  2  0  0  0  0  0  0  0  0  0
   44.3874   21.7834    2.8555 C   0  0  1  0  0  0  0  0  0  0  0  0
   42.9819   22.2731    3.2506 C   0  0  1  0  0  0  0  0  0  0  0  0
   38.0017   23.9814    3.6962 C   0  0  2  0  0  0  0  0  0  0  0  0
   38.0654   25.0779    4.8075 C   0  0  1  0  0  0  0  0  0  0  0  0
  1  3  1  0  0  0  0
  4  1  1  1  0  0  0
  4  6  1  0  0  0  0
  4 31  1  0  0  0  0
  6  7  1  0  0  0  0
  7  9  1  1  0  0  0
  7 30  1  0  0  0  0
  8 26  1  0  0  0  0
 10  9  1  1  0  0  0
 10 13  1  0  0  0  0
 10 21  1  0  0  0  0
 13 12  1  1  0  0  0
 13 15  1  0  0  0  0
 15  2  1  6  0  0  0
 15 17  1  0  0  0  0
 16 25  1  0  0  0  0
 16 23  1  0  0  0  0
 17 19  1  0  0  0  0
 19  5  1  6  0  0  0
 19 21  1  0  0  0  0
 21 14  1  1  0  0  0
 23 14  1  6  0  0  0
 23 29  1  0  0  0  0
 25 26  1  1  0  0  0
 25 27  1  0  0  0  0
 27 18  1  6  0  0  0
 27 28  1  0  0  0  0
 28 20  1  1  0  0  0
 28 29  1  0  0  0  0
 29 11  1  6  0  0  0
 30 22  1  6  0  0  0
 30 31  1  0  0  0  0
 31 24  1  6  0  0  0
M  END
>  <CHROM.1>
-58.31198107,-71.68875929,-75.75698796,92.75665063,68.55724673,73.86397921
40.97778132,22.84150690,1.89049673,-2.93495812,0.69135359,-1.75853787

>  <Name>
ligand

>  <RI>
0

>  <Rbt.Current_Directory>
/home/itssahil/PROJECTS/Mol_Feturizer/New_Systems/rnas/2ET5

>  <Rbt.Executable>
rbdock ($Id: //depot/dev/client3/rdock/2013.1/src/exe/rbdock.cxx#4 $)

>  <Rbt.Library>
libRbt.so (2013.1, Build901 2013/11/27)

>  <Rbt.Parameter_File>
/export/apps/rDock/src/rDock_2013.1_src/data/scripts/dock_solv.prm

>  <Rbt.Receptor>
prm/pocket_docking_2.prm

>  <SCORE>
-10.1024

>  <SCORE.INTER>
-8.38459

>  <SCORE.INTER.CONST>
1

>  <SCORE.INTER.POLAR>
0

>  <SCORE.INTER.ROT>
6

>  <SCORE.INTER.SOLV>
22.2175

>  <SCORE.INTER.VDW>
-20.5956

>  <SCORE.INTER.norm>
-0.270471

>  <SCORE.INTRA>
-1.78077

>  <SCORE.INTRA.DIHEDRAL>
-4.18878

>  <SCORE.INTRA.DIHEDRAL.0>
11.2357

>  <SCORE.INTRA.POLAR>
0

>  <SCORE.INTRA.POLAR.0>
0

>  <SCORE.INTRA.REPUL>
0

>  <SCORE.INTRA.REPUL.0>
0

>  <SCORE.INTRA.SOLV>
-0.325002

>  <SCORE.INTRA.SOLV.lig_0>
-83.3092

>  <SCORE.INTRA.VDW>
0.476127

>  <SCORE.INTRA.VDW.0>
-4.47057

>  <SCORE.INTRA.norm>
-0.057444

>  <SCORE.RESTR>
0.0629351

>  <SCORE.RESTR.CAVITY>
0.0629351

>  <SCORE.RESTR.norm>
0.00203016

>  <SCORE.SYSTEM>
0

>  <SCORE.SYSTEM.CONST>
0

>  <SCORE.SYSTEM.DIHEDRAL>
0

>  <SCORE.SYSTEM.SOLV>
0

>  <SCORE.SYSTEM.norm>
0

>  <SCORE.heavy>
31

>  <SCORE.norm>
-0.325885

>  <RMSD>
0.661

$$$$
ligand
 OpenBabel11021811433D
libRbt.so/2013.1/901 2013/11/27
 31 33  0  0  0  0  0  0  0  0999 V2000
   40.4874   24.8970    5.5978 C   0  0  0  0  0  0  0  0  0  0  0  0
   38.6212   24.6614   -3.1014 N   0  0  0  0  0  0  0  0  0  0  0  0
   40.4149   23.4983    5.2847 O   0  0  0  0  0  0  0  0  0  0  0  0
   39.4715   25.5473    4.6622 C   0  0  1  0  0  0  0  0  0  0  0  0
   42.3697   21.5251   -1.7446 N   0  0  0  0  0  0  0  0  0  0  0  0
   39.7548   25.3585    3.1830 O   0  0  0  0  0  0  0  0  0  0  0  0
   38.9075   24.4647    2.5704 C   0  0  1  0  0  0  0  0  0  0  0  0
   42.5011   17.8220    0.7700 N   0  0  0  0  0  0  0  0  0  0  0  0
   39.4760   23.4619    1.7751 O   0  0  0  0  0  0  0  0  0  0  0  0
   40.1467   23.7353    0.4593 C   0  0  2  0  0  0  0  0  0  0  0  0
   42.8035   23.8035    3.2641 N   0  0  0  0  0  0  0  0  0  0  0  0
   38.2703   25.2394   -0.1798 O   0  0  0  0  0  0  0  0  0  0  0  0
   39.0437   24.0526   -0.5934 C   0  0  1  0  0  0  0  0  0  0  0  0
   41.9668   22.2132    0.9084 O   0  0  0  0  0  0  0  0  0  0  0  0
   39.7101   24.3396   -2.0307 C   0  0  1  0  0  0  0  0  0  0  0  0
   41.9788   20.2660    2.2771 O   0  0  0  0  0  0  0  0  0  0  0  0
   40.5349   23.0450   -2.4476 C   0  0  0  0  0  0  0  0  0  0  0  0
   45.6744   19.8867    2.5409 O   0  0  0  0  0  0  0  0  0  0  0  0
   41.6164   22.7535   -1.3260 C   0  0  1  0  0  0  0  0  0  0  0  0
   45.3242   22.3972    3.8559 O   0  0  0  0  0  0  0  0  0  0  0  0
   40.9731   22.4559   -0.0092 C   0  0  2  0  0  0  0  0  0  0  0  0
   36.7495   23.6265    3.1449 O   0  0  0  0  0  0  0  0  0  0  0  0
   41.8239   21.7618    2.2797 C   0  0  1  0  0  0  0  0  0  0  0  0
   37.0810   26.1132    4.3145 O   0  0  0  0  0  0  0  0  0  0  0  0
   43.3538   19.7451    1.8810 C   0  0  2  0  0  0  0  0  0  0  0  0
   43.3507   18.2209    1.8958 C   0  0  0  0  0  0  0  0  0  0  0  0
   44.3851   20.3236    2.8772 C   0  0  2  0  0  0  0  0  0  0  0  0
   44.3418   21.8426    2.8783 C   0  0  1  0  0  0  0  0  0  0  0  0
   42.9153   22.2920    3.2448 C   0  0  1  0  0  0  0  0  0  0  0  0
   37.9860   23.9550    3.6666 C   0  0  2  0  0  0  0  0  0  0  0  0
   38.0135   25.0814    4.7491 C   0  0  1  0  0  0  0  0  0  0  0  0
  1  3  1  0  0  0  0
  4  1  1  1  0  0  0
  4  6  1  0  0  0  0
  4 31  1  0  0  0  0
  6  7  1  0  0  0  0
  7  9  1  1  0  0  0
  7 30  1  0  0  0  0
  8 26  1  0  0  0  0
 10  9  1  1  0  0  0
 10 13  1  0  0  0  0
 10 21  1  0  0  0  0
 13 12  1  1  0  0  0
 13 15  1  0  0  0  0
 15  2  1  6  0  0  0
 15 17  1  0  0  0  0
 16 25  1  0  0  0  0
 16 23  1  0  0  0  0
 17 19  1  0  0  0  0
 19  5  1  6  0  0  0
 19 21  1  0  0  0  0
 21 14  1  1  0  0  0
 23 14  1  6  0  0  0
 23 29  1  0  0  0  0
 25 26  1  1  0  0  0
 25 27  1  0  0  0  0
 27 18  1  6  0  0  0
 27 28  1  0  0  0  0
 28 20  1  1  0  0  0
 28 29  1  0  0  0  0
 29 11  1  6  0  0  0
 30 22  1  6  0  0  0
 30 31  1  0  0  0  0
 31 24  1  6  0  0  0
M  END
>  <CHROM.1>
-60.82730041,-69.40249562,-73.83167650,95.02790093,68.29567902,69.32654874
40.95773301,22.86166743,1.86791034,-2.94591293,0.68923735,-1.75480819

>  <Name>
ligand

>  <RI>
0

>  <Rbt.Current_Directory>
/home/itssahil/PROJECTS/Mol_Feturizer/New_Systems/rnas/2ET5

>  <Rbt.Executable>
rbdock ($Id: //depot/dev/client3/rdock/2013.1/src/exe/rbdock.cxx#4 $)

>  <Rbt.Library>
libRbt.so (2013.1, Build901 2013/11/27)

>  <Rbt.Parameter_File>
/export/apps/rDock/src/rDock_2013.1_src/data/scripts/dock_solv.prm

>  <Rbt.Receptor>
prm/pocket_docking_2.prm

>  <SCORE>
-10.2096

>  <SCORE.INTER>
-8.47505

>  <SCORE.INTER.CONST>
1

>  <SCORE.INTER.POLAR>
0

>  <SCORE.INTER.ROT>
6

>  <SCORE.INTER.SOLV>
22.0297

>  <SCORE.INTER.VDW>
-20.5933

>  <SCORE.INTER.norm>
-0.273389

>  <SCORE.INTRA>
-1.81537

>  <SCORE.INTRA.DIHEDRAL>
-4.63445

>  <SCORE.INTRA.DIHEDRAL.0>
11.2357

>  <SCORE.INTRA.POLAR>
0

>  <SCORE.INTRA.POLAR.0>
0

>  <SCORE.INTRA.REPUL>
0

>  <SCORE.INTRA.REPUL.0>
0

>  <SCORE.INTRA.SOLV>
-0.130891

>  <SCORE.INTRA.SOLV.lig_0>
-83.3092

>  <SCORE.INTRA.VDW>
0.567294

>  <SCORE.INTRA.VDW.0>
-4.47057

>  <SCORE.INTRA.norm>
-0.0585604

>  <SCORE.RESTR>
0.0808376

>  <SCORE.RESTR.CAVITY>
0.0808376

>  <SCORE.RESTR.norm>
0.00260766

>  <SCORE.SYSTEM>
0

>  <SCORE.SYSTEM.CONST>
0

>  <SCORE.SYSTEM.DIHEDRAL>
0

>  <SCORE.SYSTEM.SOLV>
0

>  <SCORE.SYSTEM.norm>
0

>  <SCORE.heavy>
31

>  <SCORE.norm>
-0.329341

>  <RMSD>
0.672

$$$$
ligand
 OpenBabel11021811433D
libRbt.so/2013.1/901 2013/11/27
 31 33  0  0  0  0  0  0  0  0999 V2000
   40.4953   24.9569    5.5883 C   0  0  0  0  0  0  0  0  0  0  0  0
   38.6231   24.6579   -3.0889 N   0  0  0  0  0  0  0  0  0  0  0  0
   40.4427   23.5531    5.2947 O   0  0  0  0  0  0  0  0  0  0  0  0
   39.4599   25.5778    4.6541 C   0  0  1  0  0  0  0  0  0  0  0  0
   42.3837   21.5364   -1.7316 N   0  0  0  0  0  0  0  0  0  0  0  0
   39.7358   25.3796    3.1747 O   0  0  0  0  0  0  0  0  0  0  0  0
   38.9016   24.4634    2.5776 C   0  0  1  0  0  0  0  0  0  0  0  0
   42.4106   17.8288    0.6696 N   0  0  0  0  0  0  0  0  0  0  0  0
   39.4836   23.4638    1.7880 O   0  0  0  0  0  0  0  0  0  0  0  0
   40.1530   23.7392    0.4719 C   0  0  2  0  0  0  0  0  0  0  0  0
   42.8700   23.7331    3.3101 N   0  0  0  0  0  0  0  0  0  0  0  0
   38.2708   25.2359   -0.1674 O   0  0  0  0  0  0  0  0  0  0  0  0
   39.0485   24.0519   -0.5806 C   0  0  1  0  0  0  0  0  0  0  0  0
   41.9788   22.2241    0.9212 O   0  0  0  0  0  0  0  0  0  0  0  0
   39.7134   24.3407   -2.0183 C   0  0  1  0  0  0  0  0  0  0  0  0
   41.9655   20.2406    2.2367 O   0  0  0  0  0  0  0  0  0  0  0  0
   40.5430   23.0490   -2.4349 C   0  0  0  0  0  0  0  0  0  0  0  0
   45.6553   19.7819    2.4521 O   0  0  0  0  0  0  0  0  0  0  0  0
   41.6259   22.7621   -1.3134 C   0  0  1  0  0  0  0  0  0  0  0  0
   45.3679   22.2621    3.8378 O   0  0  0  0  0  0  0  0  0  0  0  0
   40.9840   22.4627    0.0038 C   0  0  2  0  0  0  0  0  0  0  0  0
   36.7647   23.5892    3.1769 O   0  0  0  0  0  0  0  0  0  0  0  0
   41.8404   21.7385    2.2812 C   0  0  1  0  0  0  0  0  0  0  0  0
   37.0563   26.0936    4.3192 O   0  0  0  0  0  0  0  0  0  0  0  0
   43.3259   19.7038    1.8126 C   0  0  2  0  0  0  0  0  0  0  0  0
   43.2926   18.1801    1.7863 C   0  0  0  0  0  0  0  0  0  0  0  0
   44.3783   20.2346    2.8133 C   0  0  2  0  0  0  0  0  0  0  0  0
   44.3652   21.7536    2.8558 C   0  0  1  0  0  0  0  0  0  0  0  0
   42.9515   22.2209    3.2489 C   0  0  1  0  0  0  0  0  0  0  0  0
   37.9985   23.9469    3.6858 C   0  0  2  0  0  0  0  0  0  0  0  0
   38.0120   25.0846    4.7568 C   0  0  1  0  0  0  0  0  0  0  0  0
  1  3  1  0  0  0  0
  4  1  1  1  0  0  0
  4  6  1  0  0  0  0
  4 31  1  0  0  0  0
  6  7  1  0  0  0  0
  7  9  1  1  0  0  0
  7 30  1  0  0  0  0
  8 26  1  0  0  0  0
 10  9  1  1  0  0  0
 10 13  1  0  0  0  0
 10 21  1  0  0  0  0
 13 12  1  1  0  0  0
 13 15  1  0  0  0  0
 15  2  1  6  0  0  0
 15 17  1  0  0  0  0
 16 25  1  0  0  0  0
 16 23  1  0  0  0  0
 17 19  1  0  0  0  0
 19  5  1  6  0  0  0
 19 21  1  0  0  0  0
 21 14  1  1  0  0  0
 23 14  1  6  0  0  0
 23 29  1  0  0  0  0
 25 26  1  1  0  0  0
 25 27  1  0  0  0  0
 27 18  1  6  0  0  0
 27 28  1  0  0  0  0
 28 20  1  1  0  0  0
 28 29  1  0  0  0  0
 29 11  1  6  0  0  0
 30 22  1  6  0  0  0
 30 31  1  0  0  0  0
 31 24  1  6  0  0  0
M  END
>  <CHROM.1>
-61.12475500,-68.67414648,-73.27229274,92.30949630,70.11042171,68.62069214
40.95930880,22.84403724,1.85926979,-2.92565266,0.69331954,-1.75834600

>  <Name>
ligand

>  <RI>
0

>  <Rbt.Current_Directory>
/home/itssahil/PROJECTS/Mol_Feturizer/New_Systems/rnas/2ET5

>  <Rbt.Executable>
rbdock ($Id: //depot/dev/client3/rdock/2013.1/src/exe/rbdock.cxx#4 $)

>  <Rbt.Library>
libRbt.so (2013.1, Build901 2013/11/27)

>  <Rbt.Parameter_File>
/export/apps/rDock/src/rDock_2013.1_src/data/scripts/dock_solv.prm

>  <Rbt.Receptor>
prm/pocket_docking_2.prm

>  <SCORE>
-10.1143

>  <SCORE.INTER>
-8.02408

>  <SCORE.INTER.CONST>
1

>  <SCORE.INTER.POLAR>
0

>  <SCORE.INTER.ROT>
6

>  <SCORE.INTER.SOLV>
22.2972

>  <SCORE.INTER.VDW>
-20.3818

>  <SCORE.INTER.norm>
-0.258841

>  <SCORE.INTRA>
-2.16796

>  <SCORE.INTRA.DIHEDRAL>
-5.1462

>  <SCORE.INTRA.DIHEDRAL.0>
11.2357

>  <SCORE.INTRA.POLAR>
0

>  <SCORE.INTRA.POLAR.0>
0

>  <SCORE.INTRA.REPUL>
0

>  <SCORE.INTRA.REPUL.0>
0

>  <SCORE.INTRA.SOLV>
-0.350061

>  <SCORE.INTRA.SOLV.lig_0>
-83.3092

>  <SCORE.INTRA.VDW>
0.580168

>  <SCORE.INTRA.VDW.0>
-4.47057

>  <SCORE.INTRA.norm>
-0.0699343

>  <SCORE.RESTR>
0.077701

>  <SCORE.RESTR.CAVITY>
0.077701

>  <SCORE.RESTR.norm>
0.00250648

>  <SCORE.SYSTEM>
0

>  <SCORE.SYSTEM.CONST>
0

>  <SCORE.SYSTEM.DIHEDRAL>
0

>  <SCORE.SYSTEM.SOLV>
0

>  <SCORE.SYSTEM.norm>
0

>  <SCORE.heavy>
31

>  <SCORE.norm>
-0.326269

>  <RMSD>
0.673

$$$$
ligand
 OpenBabel11021811433D
libRbt.so/2013.1/901 2013/11/27
 31 33  0  0  0  0  0  0  0  0999 V2000
   40.9832   24.4956    5.2891 C   0  0  0  0  0  0  0  0  0  0  0  0
   38.9827   24.4375   -3.3685 N   0  0  0  0  0  0  0  0  0  0  0  0
   40.7854   23.1026    5.0064 O   0  0  0  0  0  0  0  0  0  0  0  0
   39.9495   25.2084    4.4211 C   0  0  1  0  0  0  0  0  0  0  0  0
   42.5984   21.1720   -1.9572 N   0  0  0  0  0  0  0  0  0  0  0  0
   40.1386   25.0274    2.9259 O   0  0  0  0  0  0  0  0  0  0  0  0
   39.2145   24.1851    2.3526 C   0  0  1  0  0  0  0  0  0  0  0  0
   42.4692   17.4244    0.6935 N   0  0  0  0  0  0  0  0  0  0  0  0
   39.6864   23.1673    1.5143 O   0  0  0  0  0  0  0  0  0  0  0  0
   40.3956   23.4314    0.2169 C   0  0  2  0  0  0  0  0  0  0  0  0
   43.0620   23.4753    2.9970 N   0  0  0  0  0  0  0  0  0  0  0  0
   38.5827   24.9998   -0.4501 O   0  0  0  0  0  0  0  0  0  0  0  0
   39.3277   23.7929   -0.8575 C   0  0  1  0  0  0  0  0  0  0  0  0
   42.1560   21.8484    0.6925 O   0  0  0  0  0  0  0  0  0  0  0  0
   40.0359   24.0717   -2.2764 C   0  0  1  0  0  0  0  0  0  0  0  0
   42.0263   19.9605    2.1360 O   0  0  0  0  0  0  0  0  0  0  0  0
   40.8290   22.7554   -2.6870 C   0  0  0  0  0  0  0  0  0  0  0  0
   45.6865   19.3593    2.4714 O   0  0  0  0  0  0  0  0  0  0  0  0
   41.8746   22.4197   -1.5440 C   0  0  1  0  0  0  0  0  0  0  0  0
   45.4801   21.9373    3.6820 O   0  0  0  0  0  0  0  0  0  0  0  0
   41.1920   22.1308   -0.2451 C   0  0  2  0  0  0  0  0  0  0  0  0
   37.0536   23.4454    3.0401 O   0  0  0  0  0  0  0  0  0  0  0  0
   41.9670   21.4620    2.0780 C   0  0  1  0  0  0  0  0  0  0  0  0
   37.5742   25.8957    4.2178 O   0  0  0  0  0  0  0  0  0  0  0  0
   43.3703   19.3384    1.7819 C   0  0  2  0  0  0  0  0  0  0  0  0
   43.2699   17.8192    1.8560 C   0  0  0  0  0  0  0  0  0  0  0  0
   44.4235   19.8898    2.7705 C   0  0  2  0  0  0  0  0  0  0  0  0
   44.4770   21.4073    2.7117 C   0  0  1  0  0  0  0  0  0  0  0  0
   43.0774   21.9603    3.0384 C   0  0  1  0  0  0  0  0  0  0  0  0
   38.3325   23.7054    3.4939 C   0  0  2  0  0  0  0  0  0  0  0  0
   38.4773   24.8133    4.5861 C   0  0  1  0  0  0  0  0  0  0  0  0
  1  3  1  0  0  0  0
  4  1  1  1  0  0  0
  4  6  1  0  0  0  0
  4 31  1  0  0  0  0
  6  7  1  0  0  0  0
  7  9  1  1  0  0  0
  7 30  1  0  0  0  0
  8 26  1  0  0  0  0
 10  9  1  1  0  0  0
 10 13  1  0  0  0  0
 10 21  1  0  0  0  0
 13 12  1  1  0  0  0
 13 15  1  0  0  0  0
 15  2  1  6  0  0  0
 15 17  1  0  0  0  0
 16 25  1  0  0  0  0
 16 23  1  0  0  0  0
 17 19  1  0  0  0  0
 19  5  1  6  0  0  0
 19 21  1  0  0  0  0
 21 14  1  1  0  0  0
 23 14  1  6  0  0  0
 23 29  1  0  0  0  0
 25 26  1  1  0  0  0
 25 27  1  0  0  0  0
 27 18  1  6  0  0  0
 27 28  1  0  0  0  0
 28 20  1  1  0  0  0
 28 29  1  0  0  0  0
 29 11  1  6  0  0  0
 30 22  1  6  0  0  0
 30 31  1  0  0  0  0
 31 24  1  6  0  0  0
M  END
>  <CHROM.1>
-63.17746923,-64.20607979,-78.49330256,95.80352194,64.48918707,72.19751954
41.19766198,22.53085568,1.67290432,-2.98338806,0.74002859,-1.74771388

>  <Name>
ligand

>  <RI>
0

>  <Rbt.Current_Directory>
/home/itssahil/PROJECTS/Mol_Feturizer/New_Systems/rnas/2ET5

>  <Rbt.Executable>
rbdock ($Id: //depot/dev/client3/rdock/2013.1/src/exe/rbdock.cxx#4 $)

>  <Rbt.Library>
libRbt.so (2013.1, Build901 2013/11/27)

>  <Rbt.Parameter_File>
/export/apps/rDock/src/rDock_2013.1_src/data/scripts/dock_solv.prm

>  <Rbt.Receptor>
prm/pocket_docking_3.prm

>  <SCORE>
-10.6864

>  <SCORE.INTER>
-9.11848

>  <SCORE.INTER.CONST>
1

>  <SCORE.INTER.POLAR>
0

>  <SCORE.INTER.ROT>
6

>  <SCORE.INTER.SOLV>
24.3396

>  <SCORE.INTER.VDW>
-21.7922

>  <SCORE.INTER.norm>
-0.294145

>  <SCORE.INTRA>
-1.56793

>  <SCORE.INTRA.DIHEDRAL>
-4.16003

>  <SCORE.INTRA.DIHEDRAL.0>
11.2357

>  <SCORE.INTRA.POLAR>
0

>  <SCORE.INTRA.POLAR.0>
0

>  <SCORE.INTRA.REPUL>
0

>  <SCORE.INTRA.REPUL.0>
0

>  <SCORE.INTRA.SOLV>
0.0902455

>  <SCORE.INTRA.SOLV.lig_0>
-83.3092

>  <SCORE.INTRA.VDW>
0.466958

>  <SCORE.INTRA.VDW.0>
-4.47057

>  <SCORE.INTRA.norm>
-0.0505784

>  <SCORE.RESTR>
0

>  <SCORE.RESTR.CAVITY>
0

>  <SCORE.RESTR.norm>
0

>  <SCORE.SYSTEM>
0

>  <SCORE.SYSTEM.CONST>
0

>  <SCORE.SYSTEM.DIHEDRAL>
0

>  <SCORE.SYSTEM.SOLV>
0

>  <SCORE.SYSTEM.norm>
0

>  <SCORE.heavy>
31

>  <SCORE.norm>
-0.344723

>  <RMSD>
0.675

$$$$
ligand
 OpenBabel11021811433D
libRbt.so/2013.1/901 2013/11/27
 31 33  0  0  0  0  0  0  0  0999 V2000
   40.4852   24.9530    5.5877 C   0  0  0  0  0  0  0  0  0  0  0  0
   38.6214   24.6619   -3.0748 N   0  0  0  0  0  0  0  0  0  0  0  0
   40.4761   23.5524    5.2747 O   0  0  0  0  0  0  0  0  0  0  0  0
   39.4418   25.5567    4.6513 C   0  0  1  0  0  0  0  0  0  0  0  0
   42.3747   21.5172   -1.7511 N   0  0  0  0  0  0  0  0  0  0  0  0
   39.7210   25.3581    3.1726 O   0  0  0  0  0  0  0  0  0  0  0  0
   38.8998   24.4286    2.5778 C   0  0  1  0  0  0  0  0  0  0  0  0
   42.4452   17.7878    0.7347 N   0  0  0  0  0  0  0  0  0  0  0  0
   39.4961   23.4349    1.7913 O   0  0  0  0  0  0  0  0  0  0  0  0
   40.1614   23.7156    0.4743 C   0  0  2  0  0  0  0  0  0  0  0  0
   42.8815   23.7573    3.2559 N   0  0  0  0  0  0  0  0  0  0  0  0
   38.2827   25.2236   -0.1486 O   0  0  0  0  0  0  0  0  0  0  0  0
   39.0541   24.0390   -0.5720 C   0  0  1  0  0  0  0  0  0  0  0  0
   41.9829   22.1905    0.9073 O   0  0  0  0  0  0  0  0  0  0  0  0
   39.7146   24.3339   -2.0105 C   0  0  1  0  0  0  0  0  0  0  0  0
   41.9663   20.2411    2.2727 O   0  0  0  0  0  0  0  0  0  0  0  0
   40.5373   23.0414   -2.4380 C   0  0  0  0  0  0  0  0  0  0  0  0
   45.6551   19.7782    2.4946 O   0  0  0  0  0  0  0  0  0  0  0  0
   41.6234   22.7434   -1.3226 C   0  0  1  0  0  0  0  0  0  0  0  0
   45.3763   22.2936    3.8173 O   0  0  0  0  0  0  0  0  0  0  0  0
   40.9855   22.4386   -0.0048 C   0  0  2  0  0  0  0  0  0  0  0  0
   36.7751   23.5266    3.1787 O   0  0  0  0  0  0  0  0  0  0  0  0
   41.8452   21.7400    2.2794 C   0  0  1  0  0  0  0  0  0  0  0  0
   37.0313   26.0381    4.3138 O   0  0  0  0  0  0  0  0  0  0  0  0
   43.3247   19.6901    1.8606 C   0  0  2  0  0  0  0  0  0  0  0  0
   43.2874   18.1663    1.8730 C   0  0  0  0  0  0  0  0  0  0  0  0
   44.3798   20.2434    2.8460 C   0  0  2  0  0  0  0  0  0  0  0  0
   44.3708   21.7630    2.8499 C   0  0  1  0  0  0  0  0  0  0  0  0
   42.9589   22.2438    3.2330 C   0  0  1  0  0  0  0  0  0  0  0  0
   38.0035   23.9029    3.6872 C   0  0  2  0  0  0  0  0  0  0  0  0
   38.0007   25.0437    4.7548 C   0  0  1  0  0  0  0  0  0  0  0  0
  1  3  1  0  0  0  0
  4  1  1  1  0  0  0
  4  6  1  0  0  0  0
  4 31  1  0  0  0  0
  6  7  1  0  0  0  0
  7  9  1  1  0  0  0
  7 30  1  0  0  0  0
  8 26  1  0  0  0  0
 10  9  1  1  0  0  0
 10 13  1  0  0  0  0
 10 21  1  0  0  0  0
 13 12  1  1  0  0  0
 13 15  1  0  0  0  0
 15  2  1  6  0  0  0
 15 17  1  0  0  0  0
 16 25  1  0  0  0  0
 16 23  1  0  0  0  0
 17 19  1  0  0  0  0
 19  5  1  6  0  0  0
 19 21  1  0  0  0  0
 21 14  1  1  0  0  0
 23 14  1  6  0  0  0
 23 29  1  0  0  0  0
 25 26  1  1  0  0  0
 25 27  1  0  0  0  0
 27 18  1  6  0  0  0
 27 28  1  0  0  0  0
 28 20  1  1  0  0  0
 28 29  1  0  0  0  0
 29 11  1  6  0  0  0
 30 22  1  6  0  0  0
 30 31  1  0  0  0  0
 31 24  1  6  0  0  0
M  END
>  <CHROM.1>
-59.73214727,-68.71302236,-72.07892162,93.99326772,67.84640431,70.78243165
40.96145479,22.82957402,1.86518592,-2.93811363,0.69194401,-1.75349425

>  <Name>
ligand

>  <RI>
0

>  <Rbt.Current_Directory>
/home/itssahil/PROJECTS/Mol_Feturizer/New_Systems/rnas/2ET5

>  <Rbt.Executable>
rbdock ($Id: //depot/dev/client3/rdock/2013.1/src/exe/rbdock.cxx#4 $)

>  <Rbt.Library>
libRbt.so (2013.1, Build901 2013/11/27)

>  <Rbt.Parameter_File>
/export/apps/rDock/src/rDock_2013.1_src/data/scripts/dock_solv.prm

>  <Rbt.Receptor>
prm/pocket_docking_2.prm

>  <SCORE>
-10.3185

>  <SCORE.INTER>
-8.30744

>  <SCORE.INTER.CONST>
1

>  <SCORE.INTER.POLAR>
0

>  <SCORE.INTER.ROT>
6

>  <SCORE.INTER.SOLV>
22.3489

>  <SCORE.INTER.VDW>
-20.5879

>  <SCORE.INTER.norm>
-0.267982

>  <SCORE.INTRA>
-2.09921

>  <SCORE.INTRA.DIHEDRAL>
-5.02254

>  <SCORE.INTRA.DIHEDRAL.0>
11.2357

>  <SCORE.INTRA.POLAR>
0

>  <SCORE.INTRA.POLAR.0>
0

>  <SCORE.INTRA.REPUL>
0

>  <SCORE.INTRA.REPUL.0>
0

>  <SCORE.INTRA.SOLV>
-0.413342

>  <SCORE.INTRA.SOLV.lig_0>
-83.3092

>  <SCORE.INTRA.VDW>
0.618727

>  <SCORE.INTRA.VDW.0>
-4.47057

>  <SCORE.INTRA.norm>
-0.0677166

>  <SCORE.RESTR>
0.088169

>  <SCORE.RESTR.CAVITY>
0.088169

>  <SCORE.RESTR.norm>
0.00284416

>  <SCORE.SYSTEM>
0

>  <SCORE.SYSTEM.CONST>
0

>  <SCORE.SYSTEM.DIHEDRAL>
0

>  <SCORE.SYSTEM.SOLV>
0

>  <SCORE.SYSTEM.norm>
0

>  <SCORE.heavy>
31

>  <SCORE.norm>
-0.332854

>  <RMSD>
0.683

$$$$
ligand
 OpenBabel11021811433D
libRbt.so/2013.1/901 2013/11/27
 31 33  0  0  0  0  0  0  0  0999 V2000
   40.3253   24.6270    5.7578 C   0  0  0  0  0  0  0  0  0  0  0  0
   38.6415   24.6670   -3.0781 N   0  0  0  0  0  0  0  0  0  0  0  0
   40.1732   23.2580    5.3549 O   0  0  0  0  0  0  0  0  0  0  0  0
   39.4379   25.4068    4.7910 C   0  0  1  0  0  0  0  0  0  0  0  0
   42.3813   21.5253   -1.7098 N   0  0  0  0  0  0  0  0  0  0  0  0
   39.8129   25.2664    3.3268 O   0  0  0  0  0  0  0  0  0  0  0  0
   38.9425   24.4794    2.6091 C   0  0  1  0  0  0  0  0  0  0  0  0
   42.4910   17.8293    0.7573 N   0  0  0  0  0  0  0  0  0  0  0  0
   39.4837   23.4713    1.8016 O   0  0  0  0  0  0  0  0  0  0  0  0
   40.1578   23.7421    0.4869 C   0  0  2  0  0  0  0  0  0  0  0  0
   42.8026   23.7730    3.3229 N   0  0  0  0  0  0  0  0  0  0  0  0
   38.2855   25.2489   -0.1578 O   0  0  0  0  0  0  0  0  0  0  0  0
   39.0575   24.0603   -0.5684 C   0  0  1  0  0  0  0  0  0  0  0  0
   41.9740   22.2171    0.9415 O   0  0  0  0  0  0  0  0  0  0  0  0
   39.7275   24.3444   -2.0047 C   0  0  1  0  0  0  0  0  0  0  0  0
   41.9863   20.2494    2.2806 O   0  0  0  0  0  0  0  0  0  0  0  0
   40.5508   23.0478   -2.4184 C   0  0  0  0  0  0  0  0  0  0  0  0
   45.6819   19.8724    2.5472 O   0  0  0  0  0  0  0  0  0  0  0  0
   41.6294   22.7555   -1.2942 C   0  0  1  0  0  0  0  0  0  0  0  0
   45.3244   22.3622    3.8992 O   0  0  0  0  0  0  0  0  0  0  0  0
   40.9827   22.4606    0.0216 C   0  0  2  0  0  0  0  0  0  0  0  0
   36.6865   23.8026    2.9861 O   0  0  0  0  0  0  0  0  0  0  0  0
   41.8288   21.7448    2.3055 C   0  0  1  0  0  0  0  0  0  0  0  0
   37.1341   26.1920    4.3099 O   0  0  0  0  0  0  0  0  0  0  0  0
   43.3630   19.7369    1.8800 C   0  0  2  0  0  0  0  0  0  0  0  0
   43.3625   18.2126    1.8717 C   0  0  0  0  0  0  0  0  0  0  0  0
   44.3911   20.3020    2.8871 C   0  0  2  0  0  0  0  0  0  0  0  0
   44.3452   21.8207    2.9110 C   0  0  1  0  0  0  0  0  0  0  0  0
   42.9170   22.2622    3.2810 C   0  0  1  0  0  0  0  0  0  0  0  0
   37.9041   23.9981    3.6094 C   0  0  2  0  0  0  0  0  0  0  0  0
   37.9441   25.0641    4.7511 C   0  0  1  0  0  0  0  0  0  0  0  0
  1  3  1  0  0  0  0
  4  1  1  1  0  0  0
  4  6  1  0  0  0  0
  4 31  1  0  0  0  0
  6  7  1  0  0  0  0
  7  9  1  1  0  0  0
  7 30  1  0  0  0  0
  8 26  1  0  0  0  0
 10  9  1  1  0  0  0
 10 13  1  0  0  0  0
 10 21  1  0  0  0  0
 13 12  1  1  0  0  0
 13 15  1  0  0  0  0
 15  2  1  6  0  0  0
 15 17  1  0  0  0  0
 16 25  1  0  0  0  0
 16 23  1  0  0  0  0
 17 19  1  0  0  0  0
 19  5  1  6  0  0  0
 19 21  1  0  0  0  0
 21 14  1  1  0  0  0
 23 14  1  6  0  0  0
 23 29  1  0  0  0  0
 25 26  1  1  0  0  0
 25 27  1  0  0  0  0
 27 18  1  6  0  0  0
 27 28  1  0  0  0  0
 28 20  1  1  0  0  0
 28 29  1  0  0  0  0
 29 11  1  6  0  0  0
 30 22  1  6  0  0  0
 30 31  1  0  0  0  0
 31 24  1  6  0  0  0
M  END
>  <CHROM.1>
-60.19792067,-75.33104296,-75.34487327,94.39316490,69.49535530,68.04087943
40.94697694,22.84285233,1.89377229,-2.95892657,0.68820063,-1.73263712

>  <Name>
ligand

>  <RI>
0

>  <Rbt.Current_Directory>
/home/itssahil/PROJECTS/Mol_Feturizer/New_Systems/rnas/2ET5

>  <Rbt.Executable>
rbdock ($Id: //depot/dev/client3/rdock/2013.1/src/exe/rbdock.cxx#4 $)

>  <Rbt.Library>
libRbt.so (2013.1, Build901 2013/11/27)

>  <Rbt.Parameter_File>
/export/apps/rDock/src/rDock_2013.1_src/data/scripts/dock_solv.prm

>  <Rbt.Receptor>
prm/pocket_docking_2.prm

>  <SCORE>
-10.0809

>  <SCORE.INTER>
-8.64485

>  <SCORE.INTER.CONST>
1

>  <SCORE.INTER.POLAR>
0

>  <SCORE.INTER.ROT>
6

>  <SCORE.INTER.SOLV>
22.1989

>  <SCORE.INTER.VDW>
-20.7629

>  <SCORE.INTER.norm>
-0.278866

>  <SCORE.INTRA>
-1.49601

>  <SCORE.INTRA.DIHEDRAL>
-3.87719

>  <SCORE.INTRA.DIHEDRAL.0>
11.2357

>  <SCORE.INTRA.POLAR>
0

>  <SCORE.INTRA.POLAR.0>
0

>  <SCORE.INTRA.REPUL>
0.00125894

>  <SCORE.INTRA.REPUL.0>
0

>  <SCORE.INTRA.SOLV>
-0.201954

>  <SCORE.INTRA.SOLV.lig_0>
-83.3092

>  <SCORE.INTRA.VDW>
0.537269

>  <SCORE.INTRA.VDW.0>
-4.47057

>  <SCORE.INTRA.norm>
-0.0482583

>  <SCORE.RESTR>
0.0599961

>  <SCORE.RESTR.CAVITY>
0.0599961

>  <SCORE.RESTR.norm>
0.00193536

>  <SCORE.SYSTEM>
0

>  <SCORE.SYSTEM.CONST>
0

>  <SCORE.SYSTEM.DIHEDRAL>
0

>  <SCORE.SYSTEM.SOLV>
0

>  <SCORE.SYSTEM.norm>
0

>  <SCORE.heavy>
31

>  <SCORE.norm>
-0.325189

>  <RMSD>
0.684

$$$$
ligand
 OpenBabel11021811433D
libRbt.so/2013.1/901 2013/11/27
 31 33  0  0  0  0  0  0  0  0999 V2000
   40.2727   24.5493    5.7320 C   0  0  0  0  0  0  0  0  0  0  0  0
   38.4942   24.7193   -3.0986 N   0  0  0  0  0  0  0  0  0  0  0  0
   41.5924   25.0683    5.5111 O   0  0  0  0  0  0  0  0  0  0  0  0
   39.3861   25.3550    4.7861 C   0  0  1  0  0  0  0  0  0  0  0  0
   42.2750   21.5955   -1.8041 N   0  0  0  0  0  0  0  0  0  0  0  0
   39.7514   25.2409    3.3173 O   0  0  0  0  0  0  0  0  0  0  0  0
   38.8706   24.4752    2.5893 C   0  0  1  0  0  0  0  0  0  0  0  0
   43.4401   17.3924    0.9131 N   0  0  0  0  0  0  0  0  0  0  0  0
   39.3991   23.4791    1.7587 O   0  0  0  0  0  0  0  0  0  0  0  0
   40.0566   23.7696    0.4399 C   0  0  2  0  0  0  0  0  0  0  0  0
   43.2496   23.5811    3.1333 N   0  0  0  0  0  0  0  0  0  0  0  0
   38.1648   25.2671   -0.1686 O   0  0  0  0  0  0  0  0  0  0  0  0
   38.9424   24.0895   -0.6002 C   0  0  1  0  0  0  0  0  0  0  0  0
   41.8905   22.2556    0.8586 O   0  0  0  0  0  0  0  0  0  0  0  0
   39.5944   24.3947   -2.0404 C   0  0  1  0  0  0  0  0  0  0  0  0
   41.5754   20.3339    2.2272 O   0  0  0  0  0  0  0  0  0  0  0  0
   40.4241   23.1096   -2.4768 C   0  0  0  0  0  0  0  0  0  0  0  0
   45.1006   19.1329    2.1884 O   0  0  0  0  0  0  0  0  0  0  0  0
   41.5172   22.8147   -1.3674 C   0  0  1  0  0  0  0  0  0  0  0  0
   45.4297   21.6372    3.5205 O   0  0  0  0  0  0  0  0  0  0  0  0
   40.8873   22.5003   -0.0480 C   0  0  2  0  0  0  0  0  0  0  0  0
   36.6115   23.8089    2.9661 O   0  0  0  0  0  0  0  0  0  0  0  0
   41.7608   21.8262    2.2383 C   0  0  1  0  0  0  0  0  0  0  0  0
   37.0858   26.1678    4.3344 O   0  0  0  0  0  0  0  0  0  0  0  0
   42.7620   19.5247    1.7213 C   0  0  2  0  0  0  0  0  0  0  0  0
   42.4181   18.0398    1.7406 C   0  0  0  0  0  0  0  0  0  0  0  0
   43.9736   19.8419    2.6280 C   0  0  2  0  0  0  0  0  0  0  0  0
   44.2725   21.3319    2.6283 C   0  0  1  0  0  0  0  0  0  0  0  0
   43.0174   22.0835    3.1092 C   0  0  1  0  0  0  0  0  0  0  0  0
   37.8342   23.9823    3.5860 C   0  0  2  0  0  0  0  0  0  0  0  0
   37.8894   25.0250    4.7483 C   0  0  1  0  0  0  0  0  0  0  0  0
  1  3  1  0  0  0  0
  4  1  1  1  0  0  0
  4  6  1  0  0  0  0
  4 31  1  0  0  0  0
  6  7  1  0  0  0  0
  7  9  1  1  0  0  0
  7 30  1  0  0  0  0
  8 26  1  0  0  0  0
 10  9  1  1  0  0  0
 10 13  1  0  0  0  0
 10 21  1  0  0  0  0
 13 12  1  1  0  0  0
 13 15  1  0  0  0  0
 15  2  1  6  0  0  0
 15 17  1  0  0  0  0
 16 25  1  0  0  0  0
 16 23  1  0  0  0  0
 17 19  1  0  0  0  0
 19  5  1  6  0  0  0
 19 21  1  0  0  0  0
 21 14  1  1  0  0  0
 23 14  1  6  0  0  0
 23 29  1  0  0  0  0
 25 26  1  1  0  0  0
 25 27  1  0  0  0  0
 27 18  1  6  0  0  0
 27 28  1  0  0  0  0
 28 20  1  1  0  0  0
 28 29  1  0  0  0  0
 29 11  1  6  0  0  0
 30 22  1  6  0  0  0
 30 31  1  0  0  0  0
 31 24  1  6  0  0  0
M  END
>  <CHROM.1>
59.42442559,-75.90386389,-76.03951127,82.27896583,66.39749939,164.84766368
40.89453058,22.80274216,1.81709972,-2.88819930,0.73458478,-1.79084032

>  <Name>
ligand

>  <RI>
0

>  <Rbt.Current_Directory>
/home/itssahil/PROJECTS/Mol_Feturizer/New_Systems/rnas/2ET5

>  <Rbt.Executable>
rbdock ($Id: //depot/dev/client3/rdock/2013.1/src/exe/rbdock.cxx#4 $)

>  <Rbt.Library>
libRbt.so (2013.1, Build901 2013/11/27)

>  <Rbt.Parameter_File>
/export/apps/rDock/src/rDock_2013.1_src/data/scripts/dock_solv.prm

>  <Rbt.Receptor>
prm/pocket_docking_2.prm

>  <SCORE>
-10.5804

>  <SCORE.INTER>
-8.1947

>  <SCORE.INTER.CONST>
1

>  <SCORE.INTER.POLAR>
0

>  <SCORE.INTER.ROT>
6

>  <SCORE.INTER.SOLV>
20.5141

>  <SCORE.INTER.VDW>
-19.9012

>  <SCORE.INTER.norm>
-0.264345

>  <SCORE.INTRA>
-2.45295

>  <SCORE.INTRA.DIHEDRAL>
-5.59959

>  <SCORE.INTRA.DIHEDRAL.0>
11.2357

>  <SCORE.INTRA.POLAR>
0

>  <SCORE.INTRA.POLAR.0>
0

>  <SCORE.INTRA.REPUL>
0

>  <SCORE.INTRA.REPUL.0>
0

>  <SCORE.INTRA.SOLV>
-1.46885

>  <SCORE.INTRA.SOLV.lig_0>
-83.3092

>  <SCORE.INTRA.VDW>
1.08127

>  <SCORE.INTRA.VDW.0>
-4.47057

>  <SCORE.INTRA.norm>
-0.0791274

>  <SCORE.RESTR>
0.0672725

>  <SCORE.RESTR.CAVITY>
0.0672725

>  <SCORE.RESTR.norm>
0.00217008

>  <SCORE.SYSTEM>
0

>  <SCORE.SYSTEM.CONST>
0

>  <SCORE.SYSTEM.DIHEDRAL>
0

>  <SCORE.SYSTEM.SOLV>
0

>  <SCORE.SYSTEM.norm>
0

>  <SCORE.heavy>
31

>  <SCORE.norm>
-0.341303

>  <RMSD>
0.721

$$$$
ligand
 OpenBabel11021811433D
libRbt.so/2013.1/901 2013/11/27
 31 33  0  0  0  0  0  0  0  0999 V2000
   40.2776   24.6012    5.6189 C   0  0  0  0  0  0  0  0  0  0  0  0
   38.4444   24.8907   -3.1545 N   0  0  0  0  0  0  0  0  0  0  0  0
   41.5711   25.1464    5.3204 O   0  0  0  0  0  0  0  0  0  0  0  0
   39.3227   25.3750    4.7137 C   0  0  1  0  0  0  0  0  0  0  0  0
   42.2216   21.7462   -1.9001 N   0  0  0  0  0  0  0  0  0  0  0  0
   39.6339   25.2822    3.2309 O   0  0  0  0  0  0  0  0  0  0  0  0
   38.7561   24.4851    2.5335 C   0  0  1  0  0  0  0  0  0  0  0  0
   42.5114   17.5073    2.1571 N   0  0  0  0  0  0  0  0  0  0  0  0
   39.2906   23.5148    1.6767 O   0  0  0  0  0  0  0  0  0  0  0  0
   39.9641   23.8458    0.3757 C   0  0  2  0  0  0  0  0  0  0  0  0
   42.9012   23.3381    3.3331 N   0  0  0  0  0  0  0  0  0  0  0  0
   38.0739   25.3525   -0.2147 O   0  0  0  0  0  0  0  0  0  0  0  0
   38.8623   24.1910   -0.6695 C   0  0  1  0  0  0  0  0  0  0  0  0
   41.7990   22.3278    0.7752 O   0  0  0  0  0  0  0  0  0  0  0  0
   39.5320   24.5402   -2.0916 C   0  0  1  0  0  0  0  0  0  0  0  0
   41.6953   20.1515    1.7333 O   0  0  0  0  0  0  0  0  0  0  0  0
   40.3731   23.2716   -2.5536 C   0  0  0  0  0  0  0  0  0  0  0  0
   45.3468   19.4214    1.6644 O   0  0  0  0  0  0  0  0  0  0  0  0
   41.4527   22.9493   -1.4387 C   0  0  1  0  0  0  0  0  0  0  0  0
   45.3037   21.6373    3.4650 O   0  0  0  0  0  0  0  0  0  0  0  0
   40.8068   22.5945   -0.1373 C   0  0  2  0  0  0  0  0  0  0  0  0
   36.5421   23.7271    2.9950 O   0  0  0  0  0  0  0  0  0  0  0  0
   41.6835   21.6239    2.0385 C   0  0  1  0  0  0  0  0  0  0  0  0
   36.9758   26.0970    4.3579 O   0  0  0  0  0  0  0  0  0  0  0  0
   42.9928   19.6082    1.1501 C   0  0  2  0  0  0  0  0  0  0  0  0
   42.8457   18.1177    0.8672 C   0  0  0  0  0  0  0  0  0  0  0  0
   44.1235   19.8874    2.1670 C   0  0  2  0  0  0  0  0  0  0  0  0
   44.2248   21.3736    2.4675 C   0  0  1  0  0  0  0  0  0  0  0  0
   42.8678   21.8573    3.0115 C   0  0  1  0  0  0  0  0  0  0  0  0
   37.7805   23.9466    3.5673 C   0  0  2  0  0  0  0  0  0  0  0  0
   37.8400   24.9855    4.7328 C   0  0  1  0  0  0  0  0  0  0  0  0
  1  3  1  0  0  0  0
  4  1  1  1  0  0  0
  4  6  1  0  0  0  0
  4 31  1  0  0  0  0
  6  7  1  0  0  0  0
  7  9  1  1  0  0  0
  7 30  1  0  0  0  0
  8 26  1  0  0  0  0
 10  9  1  1  0  0  0
 10 13  1  0  0  0  0
 10 21  1  0  0  0  0
 13 12  1  1  0  0  0
 13 15  1  0  0  0  0
 15  2  1  6  0  0  0
 15 17  1  0  0  0  0
 16 25  1  0  0  0  0
 16 23  1  0  0  0  0
 17 19  1  0  0  0  0
 19  5  1  6  0  0  0
 19 21  1  0  0  0  0
 21 14  1  1  0  0  0
 23 14  1  6  0  0  0
 23 29  1  0  0  0  0
 25 26  1  1  0  0  0
 25 27  1  0  0  0  0
 27 18  1  6  0  0  0
 27 28  1  0  0  0  0
 28 20  1  1  0  0  0
 28 29  1  0  0  0  0
 29 11  1  6  0  0  0
 30 22  1  6  0  0  0
 30 31  1  0  0  0  0
 31 24  1  6  0  0  0
M  END
>  <CHROM.1>
57.77148794,-71.74856034,-76.56194702,80.66732957,79.30933486,-58.60731260
40.83297730,22.83523749,1.71040853,-2.89821466,0.72974943,-1.75022045

>  <Name>
ligand

>  <RI>
0

>  <Rbt.Current_Directory>
/home/itssahil/PROJECTS/Mol_Feturizer/New_Systems/rnas/2ET5

>  <Rbt.Executable>
rbdock ($Id: //depot/dev/client3/rdock/2013.1/src/exe/rbdock.cxx#4 $)

>  <Rbt.Library>
libRbt.so (2013.1, Build901 2013/11/27)

>  <Rbt.Parameter_File>
/export/apps/rDock/src/rDock_2013.1_src/data/scripts/dock_solv.prm

>  <Rbt.Receptor>
prm/pocket_docking_2.prm

>  <SCORE>
-7.21966

>  <SCORE.INTER>
-5.50894

>  <SCORE.INTER.CONST>
1

>  <SCORE.INTER.POLAR>
0

>  <SCORE.INTER.ROT>
6

>  <SCORE.INTER.SOLV>
24.4228

>  <SCORE.INTER.VDW>
-19.4136

>  <SCORE.INTER.norm>
-0.177708

>  <SCORE.INTRA>
-1.78939

>  <SCORE.INTRA.DIHEDRAL>
-5.58085

>  <SCORE.INTRA.DIHEDRAL.0>
11.2357

>  <SCORE.INTRA.POLAR>
0

>  <SCORE.INTRA.POLAR.0>
0

>  <SCORE.INTRA.REPUL>
0

>  <SCORE.INTRA.REPUL.0>
0

>  <SCORE.INTRA.SOLV>
0.257137

>  <SCORE.INTRA.SOLV.lig_0>
-83.3092

>  <SCORE.INTRA.VDW>
0.872467

>  <SCORE.INTRA.VDW.0>
-4.47057

>  <SCORE.INTRA.norm>
-0.0577222

>  <SCORE.RESTR>
0.0786692

>  <SCORE.RESTR.CAVITY>
0.0786692

>  <SCORE.RESTR.norm>
0.00253772

>  <SCORE.SYSTEM>
0

>  <SCORE.SYSTEM.CONST>
0

>  <SCORE.SYSTEM.DIHEDRAL>
0

>  <SCORE.SYSTEM.SOLV>
0

>  <SCORE.SYSTEM.norm>
0

>  <SCORE.heavy>
31

>  <SCORE.norm>
-0.232892

>  <RMSD>
0.729

$$$$
ligand
 OpenBabel11021811433D
libRbt.so/2013.1/901 2013/11/27
 31 33  0  0  0  0  0  0  0  0999 V2000
   40.7084   25.0715    5.1580 C   0  0  0  0  0  0  0  0  0  0  0  0
   38.9050   24.4916   -3.3438 N   0  0  0  0  0  0  0  0  0  0  0  0
   41.8320   25.8515    4.7237 O   0  0  0  0  0  0  0  0  0  0  0  0
   39.5619   25.5261    4.2585 C   0  0  1  0  0  0  0  0  0  0  0  0
   42.5716   21.2866   -1.9253 N   0  0  0  0  0  0  0  0  0  0  0  0
   39.7640   25.2505    2.7796 O   0  0  0  0  0  0  0  0  0  0  0  0
   38.9876   24.2208    2.3009 C   0  0  1  0  0  0  0  0  0  0  0  0
   42.4127   17.5338    0.6427 N   0  0  0  0  0  0  0  0  0  0  0  0
   39.6144   23.2264    1.5394 O   0  0  0  0  0  0  0  0  0  0  0  0
   40.3232   23.5045    0.2448 C   0  0  2  0  0  0  0  0  0  0  0  0
   43.0038   23.5271    3.0679 N   0  0  0  0  0  0  0  0  0  0  0  0
   38.4858   25.0426   -0.4260 O   0  0  0  0  0  0  0  0  0  0  0  0
   39.2528   23.8493   -0.8326 C   0  0  1  0  0  0  0  0  0  0  0  0
   42.1090   21.9513    0.7239 O   0  0  0  0  0  0  0  0  0  0  0  0
   39.9607   24.1424   -2.2488 C   0  0  1  0  0  0  0  0  0  0  0  0
   41.9916   20.0277    2.1206 O   0  0  0  0  0  0  0  0  0  0  0  0
   40.7777   22.8405   -2.6587 C   0  0  0  0  0  0  0  0  0  0  0  0
   45.6556   19.4427    2.4422 O   0  0  0  0  0  0  0  0  0  0  0  0
   41.8251   22.5211   -1.5127 C   0  0  1  0  0  0  0  0  0  0  0  0
   45.4320   21.9888    3.7156 O   0  0  0  0  0  0  0  0  0  0  0  0
   41.1433   22.2185   -0.2165 C   0  0  2  0  0  0  0  0  0  0  0  0
   36.9870   23.1964    3.0993 O   0  0  0  0  0  0  0  0  0  0  0  0
   41.9223   21.5297    2.0994 C   0  0  1  0  0  0  0  0  0  0  0  0
   37.1034   25.7914    4.0555 O   0  0  0  0  0  0  0  0  0  0  0  0
   43.3396   19.4234    1.7517 C   0  0  2  0  0  0  0  0  0  0  0  0
   43.2493   17.9022    1.7884 C   0  0  0  0  0  0  0  0  0  0  0  0
   44.3890   19.9573    2.7538 C   0  0  2  0  0  0  0  0  0  0  0  0
   44.4326   21.4761    2.7323 C   0  0  1  0  0  0  0  0  0  0  0  0
   43.0293   22.0116    3.0721 C   0  0  1  0  0  0  0  0  0  0  0  0
   38.2091   23.7023    3.4990 C   0  0  2  0  0  0  0  0  0  0  0  0
   38.1779   24.9089    4.4911 C   0  0  1  0  0  0  0  0  0  0  0  0
  1  3  1  0  0  0  0
  4  1  1  1  0  0  0
  4  6  1  0  0  0  0
  4 31  1  0  0  0  0
  6  7  1  0  0  0  0
  7  9  1  1  0  0  0
  7 30  1  0  0  0  0
  8 26  1  0  0  0  0
 10  9  1  1  0  0  0
 10 13  1  0  0  0  0
 10 21  1  0  0  0  0
 13 12  1  1  0  0  0
 13 15  1  0  0  0  0
 15  2  1  6  0  0  0
 15 17  1  0  0  0  0
 16 25  1  0  0  0  0
 16 23  1  0  0  0  0
 17 19  1  0  0  0  0
 19  5  1  6  0  0  0
 19 21  1  0  0  0  0
 21 14  1  1  0  0  0
 23 14  1  6  0  0  0
 23 29  1  0  0  0  0
 25 26  1  1  0  0  0
 25 27  1  0  0  0  0
 27 18  1  6  0  0  0
 27 28  1  0  0  0  0
 28 20  1  1  0  0  0
 28 29  1  0  0  0  0
 29 11  1  6  0  0  0
 30 22  1  6  0  0  0
 30 31  1  0  0  0  0
 31 24  1  6  0  0  0
M  END
>  <CHROM.1>
62.60488744,-60.69484359,-70.87348647,94.04791162,66.05007748,70.29632868
41.12644635,22.70972433,1.64911678,-2.86554037,0.72718352,-1.85616318

>  <Name>
ligand

>  <RI>
0

>  <Rbt.Current_Directory>
/home/itssahil/PROJECTS/Mol_Feturizer/New_Systems/rnas/2ET5

>  <Rbt.Executable>
rbdock ($Id: //depot/dev/client3/rdock/2013.1/src/exe/rbdock.cxx#4 $)

>  <Rbt.Library>
libRbt.so (2013.1, Build901 2013/11/27)

>  <Rbt.Parameter_File>
/export/apps/rDock/src/rDock_2013.1_src/data/scripts/dock_solv.prm

>  <Rbt.Receptor>
prm/pocket_docking_3.prm

>  <SCORE>
-10.4468

>  <SCORE.INTER>
-7.87813

>  <SCORE.INTER.CONST>
1

>  <SCORE.INTER.POLAR>
0

>  <SCORE.INTER.ROT>
6

>  <SCORE.INTER.SOLV>
23.374

>  <SCORE.INTER.VDW>
-20.6434

>  <SCORE.INTER.norm>
-0.254133

>  <SCORE.INTRA>
-2.56871

>  <SCORE.INTRA.DIHEDRAL>
-5.62786

>  <SCORE.INTRA.DIHEDRAL.0>
11.2357

>  <SCORE.INTRA.POLAR>
0

>  <SCORE.INTRA.POLAR.0>
0

>  <SCORE.INTRA.REPUL>
0

>  <SCORE.INTRA.REPUL.0>
0

>  <SCORE.INTRA.SOLV>
-1.34298

>  <SCORE.INTRA.SOLV.lig_0>
-83.3092

>  <SCORE.INTRA.VDW>
0.916704

>  <SCORE.INTRA.VDW.0>
-4.47057

>  <SCORE.INTRA.norm>
-0.0828617

>  <SCORE.RESTR>
0

>  <SCORE.RESTR.CAVITY>
0

>  <SCORE.RESTR.norm>
0

>  <SCORE.SYSTEM>
0

>  <SCORE.SYSTEM.CONST>
0

>  <SCORE.SYSTEM.DIHEDRAL>
0

>  <SCORE.SYSTEM.SOLV>
0

>  <SCORE.SYSTEM.norm>
0

>  <SCORE.heavy>
31

>  <SCORE.norm>
-0.336995

>  <RMSD>
0.735

$$$$
ligand
 OpenBabel11021811433D
libRbt.so/2013.1/901 2013/11/27
 31 33  0  0  0  0  0  0  0  0999 V2000
   41.2641   24.3230    4.9717 C   0  0  0  0  0  0  0  0  0  0  0  0
   38.6700   24.6898   -3.4747 N   0  0  0  0  0  0  0  0  0  0  0  0
   40.9821   24.4484    6.3733 O   0  0  0  0  0  0  0  0  0  0  0  0
   40.1125   25.0544    4.2871 C   0  0  1  0  0  0  0  0  0  0  0  0
   42.4149   21.4686   -2.3224 N   0  0  0  0  0  0  0  0  0  0  0  0
   40.1132   24.9677    2.7717 O   0  0  0  0  0  0  0  0  0  0  0  0
   39.1423   24.1335    2.2680 C   0  0  1  0  0  0  0  0  0  0  0  0
   43.6023   17.1515    0.4474 N   0  0  0  0  0  0  0  0  0  0  0  0
   39.5258   23.1815    1.3152 O   0  0  0  0  0  0  0  0  0  0  0  0
   40.1962   23.5371    0.0190 C   0  0  2  0  0  0  0  0  0  0  0  0
   43.3212   23.3487    2.6532 N   0  0  0  0  0  0  0  0  0  0  0  0
   38.3215   25.0813   -0.5220 O   0  0  0  0  0  0  0  0  0  0  0  0
   39.0930   23.9222   -1.0106 C   0  0  1  0  0  0  0  0  0  0  0  0
   42.0144   21.9871    0.3692 O   0  0  0  0  0  0  0  0  0  0  0  0
   39.7590   24.2991   -2.4273 C   0  0  1  0  0  0  0  0  0  0  0  0
   41.7052   20.0719    1.7481 O   0  0  0  0  0  0  0  0  0  0  0  0
   40.5818   23.0325   -2.9262 C   0  0  0  0  0  0  0  0  0  0  0  0
   45.2467   18.9192    1.7709 O   0  0  0  0  0  0  0  0  0  0  0  0
   41.6635   22.6688   -1.8261 C   0  0  1  0  0  0  0  0  0  0  0  0
   45.5217   21.4380    3.0880 O   0  0  0  0  0  0  0  0  0  0  0  0
   41.0205   22.2890   -0.5304 C   0  0  2  0  0  0  0  0  0  0  0  0
   37.1038   23.2902    3.1751 O   0  0  0  0  0  0  0  0  0  0  0  0
   41.8700   21.5666    1.7502 C   0  0  1  0  0  0  0  0  0  0  0  0
   37.7160   25.6812    4.4281 O   0  0  0  0  0  0  0  0  0  0  0  0
   42.9101   19.2752    1.2662 C   0  0  2  0  0  0  0  0  0  0  0  0
   42.5863   17.7859    1.2921 C   0  0  0  0  0  0  0  0  0  0  0  0
   44.1036   19.6161    2.1881 C   0  0  2  0  0  0  0  0  0  0  0  0
   44.3821   21.1099    2.1811 C   0  0  1  0  0  0  0  0  0  0  0  0
   43.1099   21.8479    2.6375 C   0  0  1  0  0  0  0  0  0  0  0  0
   38.4242   23.5611    3.4793 C   0  0  2  0  0  0  0  0  0  0  0  0
   38.6826   24.6064    4.6114 C   0  0  1  0  0  0  0  0  0  0  0  0
  1  3  1  0  0  0  0
  4  1  1  1  0  0  0
  4  6  1  0  0  0  0
  4 31  1  0  0  0  0
  6  7  1  0  0  0  0
  7  9  1  1  0  0  0
  7 30  1  0  0  0  0
  8 26  1  0  0  0  0
 10  9  1  1  0  0  0
 10 13  1  0  0  0  0
 10 21  1  0  0  0  0
 13 12  1  1  0  0  0
 13 15  1  0  0  0  0
 15  2  1  6  0  0  0
 15 17  1  0  0  0  0
 16 25  1  0  0  0  0
 16 23  1  0  0  0  0
 17 19  1  0  0  0  0
 19  5  1  6  0  0  0
 19 21  1  0  0  0  0
 21 14  1  1  0  0  0
 23 14  1  6  0  0  0
 23 29  1  0  0  0  0
 25 26  1  1  0  0  0
 25 27  1  0  0  0  0
 27 18  1  6  0  0  0
 27 28  1  0  0  0  0
 28 20  1  1  0  0  0
 28 29  1  0  0  0  0
 29 11  1  6  0  0  0
 30 22  1  6  0  0  0
 30 31  1  0  0  0  0
 31 24  1  6  0  0  0
M  END
>  <CHROM.1>
-175.10176717,-57.28368616,-83.94349403,86.58584908,62.08188863,162.96241925
41.12342360,22.53987614,1.46989301,-2.85513824,0.76545143,-1.74964822

>  <Name>
ligand

>  <RI>
0

>  <Rbt.Current_Directory>
/home/itssahil/PROJECTS/Mol_Feturizer/New_Systems/rnas/2ET5

>  <Rbt.Executable>
rbdock ($Id: //depot/dev/client3/rdock/2013.1/src/exe/rbdock.cxx#4 $)

>  <Rbt.Library>
libRbt.so (2013.1, Build901 2013/11/27)

>  <Rbt.Parameter_File>
/export/apps/rDock/src/rDock_2013.1_src/data/scripts/dock_solv.prm

>  <Rbt.Receptor>
prm/pocket_docking_2.prm

>  <SCORE>
-10.0068

>  <SCORE.INTER>
-8.80407

>  <SCORE.INTER.CONST>
1

>  <SCORE.INTER.POLAR>
0

>  <SCORE.INTER.ROT>
6

>  <SCORE.INTER.SOLV>
20.4972

>  <SCORE.INTER.VDW>
-20.3018

>  <SCORE.INTER.norm>
-0.284002

>  <SCORE.INTRA>
-1.80933

>  <SCORE.INTRA.DIHEDRAL>
-4.56009

>  <SCORE.INTRA.DIHEDRAL.0>
11.2357

>  <SCORE.INTRA.POLAR>
0

>  <SCORE.INTRA.POLAR.0>
0

>  <SCORE.INTRA.REPUL>
0

>  <SCORE.INTRA.REPUL.0>
0

>  <SCORE.INTRA.SOLV>
-1.23045

>  <SCORE.INTRA.SOLV.lig_0>
-83.3092

>  <SCORE.INTRA.VDW>
1.08594

>  <SCORE.INTRA.VDW.0>
-4.47057

>  <SCORE.INTRA.norm>
-0.0583654

>  <SCORE.RESTR>
0.606606

>  <SCORE.RESTR.CAVITY>
0.606606

>  <SCORE.RESTR.norm>
0.0195679

>  <SCORE.SYSTEM>
0

>  <SCORE.SYSTEM.CONST>
0

>  <SCORE.SYSTEM.DIHEDRAL>
0

>  <SCORE.SYSTEM.SOLV>
0

>  <SCORE.SYSTEM.norm>
0

>  <SCORE.heavy>
31

>  <SCORE.norm>
-0.3228

>  <RMSD>
0.738

$$$$
ligand
 OpenBabel11021811433D
libRbt.so/2013.1/901 2013/11/27
 31 33  0  0  0  0  0  0  0  0999 V2000
   40.7575   24.9953    5.1762 C   0  0  0  0  0  0  0  0  0  0  0  0
   38.9181   24.4977   -3.3510 N   0  0  0  0  0  0  0  0  0  0  0  0
   40.3392   25.3545    6.5012 O   0  0  0  0  0  0  0  0  0  0  0  0
   39.6241   25.4816    4.2768 C   0  0  1  0  0  0  0  0  0  0  0  0
   42.5942   21.2912   -1.9608 N   0  0  0  0  0  0  0  0  0  0  0  0
   39.8305   25.2239    2.7952 O   0  0  0  0  0  0  0  0  0  0  0  0
   39.0402   24.2142    2.2972 C   0  0  1  0  0  0  0  0  0  0  0  0
   42.3661   17.5314    0.6352 N   0  0  0  0  0  0  0  0  0  0  0  0
   39.6551   23.2207    1.5251 O   0  0  0  0  0  0  0  0  0  0  0  0
   40.3566   23.5024    0.2273 C   0  0  2  0  0  0  0  0  0  0  0  0
   43.0791   23.5153    3.0280 N   0  0  0  0  0  0  0  0  0  0  0  0
   38.5147   25.0411   -0.4295 O   0  0  0  0  0  0  0  0  0  0  0  0
   39.2801   23.8493   -0.8434 C   0  0  1  0  0  0  0  0  0  0  0  0
   42.1459   21.9490    0.6926 O   0  0  0  0  0  0  0  0  0  0  0  0
   39.9800   24.1463   -2.2627 C   0  0  1  0  0  0  0  0  0  0  0  0
   42.0198   20.0271    2.0908 O   0  0  0  0  0  0  0  0  0  0  0  0
   40.7954   22.8459   -2.6804 C   0  0  0  0  0  0  0  0  0  0  0  0
   45.6800   19.4017    2.3796 O   0  0  0  0  0  0  0  0  0  0  0  0
   41.8494   22.5242   -1.5409 C   0  0  1  0  0  0  0  0  0  0  0  0
   45.4959   21.9504    3.6543 O   0  0  0  0  0  0  0  0  0  0  0  0
   41.1749   22.2180   -0.2418 C   0  0  2  0  0  0  0  0  0  0  0  0
   37.0183   23.2115    3.0692 O   0  0  0  0  0  0  0  0  0  0  0  0
   41.9670   21.5298    2.0699 C   0  0  1  0  0  0  0  0  0  0  0  0
   37.1715   25.7903    4.0635 O   0  0  0  0  0  0  0  0  0  0  0  0
   43.3578   19.4078    1.7099 C   0  0  2  0  0  0  0  0  0  0  0  0
   43.2510   17.8878    1.7479 C   0  0  0  0  0  0  0  0  0  0  0  0
   44.4220   19.9303    2.7025 C   0  0  2  0  0  0  0  0  0  0  0  0
   44.4821   21.4486    2.6802 C   0  0  1  0  0  0  0  0  0  0  0  0
   43.0879   21.9996    3.0324 C   0  0  1  0  0  0  0  0  0  0  0  0
   38.2461   23.6914    3.4832 C   0  0  2  0  0  0  0  0  0  0  0  0
   38.2288   24.8841    4.4925 C   0  0  1  0  0  0  0  0  0  0  0  0
  1  3  1  0  0  0  0
  4  1  1  1  0  0  0
  4  6  1  0  0  0  0
  4 31  1  0  0  0  0
  6  7  1  0  0  0  0
  7  9  1  1  0  0  0
  7 30  1  0  0  0  0
  8 26  1  0  0  0  0
 10  9  1  1  0  0  0
 10 13  1  0  0  0  0
 10 21  1  0  0  0  0
 13 12  1  1  0  0  0
 13 15  1  0  0  0  0
 15  2  1  6  0  0  0
 15 17  1  0  0  0  0
 16 25  1  0  0  0  0
 16 23  1  0  0  0  0
 17 19  1  0  0  0  0
 19  5  1  6  0  0  0
 19 21  1  0  0  0  0
 21 14  1  1  0  0  0
 23 14  1  6  0  0  0
 23 29  1  0  0  0  0
 25 26  1  1  0  0  0
 25 27  1  0  0  0  0
 27 18  1  6  0  0  0
 27 28  1  0  0  0  0
 28 20  1  1  0  0  0
 28 29  1  0  0  0  0
 29 11  1  6  0  0  0
 30 22  1  6  0  0  0
 30 31  1  0  0  0  0
 31 24  1  6  0  0  0
M  END
>  <CHROM.1>
179.65394493,-61.73791409,-71.34082530,93.56878146,65.74149041,68.57247103
41.10659726,22.68026898,1.69265965,-2.82578808,0.72660917,-1.79350077

>  <Name>
ligand

>  <RI>
0

>  <Rbt.Current_Directory>
/home/itssahil/PROJECTS/Mol_Feturizer/New_Systems/rnas/2ET5

>  <Rbt.Executable>
rbdock ($Id: //depot/dev/client3/rdock/2013.1/src/exe/rbdock.cxx#4 $)

>  <Rbt.Library>
libRbt.so (2013.1, Build901 2013/11/27)

>  <Rbt.Parameter_File>
/export/apps/rDock/src/rDock_2013.1_src/data/scripts/dock_solv.prm

>  <Rbt.Receptor>
prm/pocket_docking_3.prm

>  <SCORE>
-10.8844

>  <SCORE.INTER>
-8.05784

>  <SCORE.INTER.CONST>
1

>  <SCORE.INTER.POLAR>
0

>  <SCORE.INTER.ROT>
6

>  <SCORE.INTER.SOLV>
23.7909

>  <SCORE.INTER.VDW>
-20.9022

>  <SCORE.INTER.norm>
-0.25993

>  <SCORE.INTRA>
-2.82659

>  <SCORE.INTRA.DIHEDRAL>
-5.8105

>  <SCORE.INTRA.DIHEDRAL.0>
11.2357

>  <SCORE.INTRA.POLAR>
0

>  <SCORE.INTRA.POLAR.0>
0

>  <SCORE.INTRA.REPUL>
0

>  <SCORE.INTRA.REPUL.0>
0

>  <SCORE.INTRA.SOLV>
-2.15917

>  <SCORE.INTRA.SOLV.lig_0>
-83.3092

>  <SCORE.INTRA.VDW>
1.15825

>  <SCORE.INTRA.VDW.0>
-4.47057

>  <SCORE.INTRA.norm>
-0.0911802

>  <SCORE.RESTR>
0

>  <SCORE.RESTR.CAVITY>
0

>  <SCORE.RESTR.norm>
0

>  <SCORE.SYSTEM>
0

>  <SCORE.SYSTEM.CONST>
0

>  <SCORE.SYSTEM.DIHEDRAL>
0

>  <SCORE.SYSTEM.SOLV>
0

>  <SCORE.SYSTEM.norm>
0

>  <SCORE.heavy>
31

>  <SCORE.norm>
-0.35111

>  <RMSD>
0.745

$$$$
ligand
 OpenBabel11021811433D
libRbt.so/2013.1/901 2013/11/27
 31 33  0  0  0  0  0  0  0  0999 V2000
   40.5779   24.6305    5.8401 C   0  0  0  0  0  0  0  0  0  0  0  0
   38.4460   24.8576   -2.8997 N   0  0  0  0  0  0  0  0  0  0  0  0
   40.4352   23.2753    5.3898 O   0  0  0  0  0  0  0  0  0  0  0  0
   39.6512   25.4314    4.9292 C   0  0  1  0  0  0  0  0  0  0  0  0
   42.2612   21.6957   -1.8158 N   0  0  0  0  0  0  0  0  0  0  0  0
   39.9647   25.3246    3.4479 O   0  0  0  0  0  0  0  0  0  0  0  0
   39.0648   24.5536    2.7494 C   0  0  1  0  0  0  0  0  0  0  0  0
   43.5591   17.4608    0.8689 N   0  0  0  0  0  0  0  0  0  0  0  0
   39.5716   23.5644    1.8972 O   0  0  0  0  0  0  0  0  0  0  0  0
   40.1678   23.8631    0.5514 C   0  0  2  0  0  0  0  0  0  0  0  0
   43.4758   23.6513    3.0788 N   0  0  0  0  0  0  0  0  0  0  0  0
   38.2601   25.3793    0.0476 O   0  0  0  0  0  0  0  0  0  0  0  0
   39.0078   24.2007   -0.4314 C   0  0  1  0  0  0  0  0  0  0  0  0
   42.0084   22.3326    0.8683 O   0  0  0  0  0  0  0  0  0  0  0  0
   39.5928   24.5153   -1.8982 C   0  0  1  0  0  0  0  0  0  0  0  0
   41.7505   20.4107    2.2484 O   0  0  0  0  0  0  0  0  0  0  0  0
   40.3915   23.2288   -2.3855 C   0  0  0  0  0  0  0  0  0  0  0  0
   45.2660   19.1978    2.0456 O   0  0  0  0  0  0  0  0  0  0  0  0
   41.5339   22.9158   -1.3321 C   0  0  1  0  0  0  0  0  0  0  0  0
   45.6648   21.6997    3.3632 O   0  0  0  0  0  0  0  0  0  0  0  0
   40.9651   22.5930    0.0128 C   0  0  2  0  0  0  0  0  0  0  0  0
   36.8264   23.8669    3.2047 O   0  0  0  0  0  0  0  0  0  0  0  0
   41.9412   21.9023    2.2522 C   0  0  1  0  0  0  0  0  0  0  0  0
   37.3295   26.2258    4.5627 O   0  0  0  0  0  0  0  0  0  0  0  0
   42.9096   19.5980    1.6875 C   0  0  2  0  0  0  0  0  0  0  0  0
   42.5619   18.1142    1.7214 C   0  0  0  0  0  0  0  0  0  0  0  0
   44.1629   19.9102    2.5374 C   0  0  2  0  0  0  0  0  0  0  0  0
   44.4665   21.3992    2.5251 C   0  0  1  0  0  0  0  0  0  0  0  0
   43.2376   22.1545    3.0642 C   0  0  1  0  0  0  0  0  0  0  0  0
   38.0689   24.0489    3.7809 C   0  0  2  0  0  0  0  0  0  0  0  0
   38.1569   25.0887    4.9439 C   0  0  1  0  0  0  0  0  0  0  0  0
  1  3  1  0  0  0  0
  4  1  1  1  0  0  0
  4  6  1  0  0  0  0
  4 31  1  0  0  0  0
  6  7  1  0  0  0  0
  7  9  1  1  0  0  0
  7 30  1  0  0  0  0
  8 26  1  0  0  0  0
 10  9  1  1  0  0  0
 10 13  1  0  0  0  0
 10 21  1  0  0  0  0
 13 12  1  1  0  0  0
 13 15  1  0  0  0  0
 15  2  1  6  0  0  0
 15 17  1  0  0  0  0
 16 25  1  0  0  0  0
 16 23  1  0  0  0  0
 17 19  1  0  0  0  0
 19  5  1  6  0  0  0
 19 21  1  0  0  0  0
 21 14  1  1  0  0  0
 23 14  1  6  0  0  0
 23 29  1  0  0  0  0
 25 26  1  1  0  0  0
 25 27  1  0  0  0  0
 27 18  1  6  0  0  0
 27 28  1  0  0  0  0
 28 20  1  1  0  0  0
 28 29  1  0  0  0  0
 29 11  1  6  0  0  0
 30 22  1  6  0  0  0
 30 31  1  0  0  0  0
 31 24  1  6  0  0  0
M  END
>  <CHROM.1>
-58.73888063,-76.47146284,-74.65244361,82.90592780,65.79454134,165.97698756
40.99803519,22.81728687,1.87426404,-2.91735250,0.73352858,-1.71455845

>  <Name>
ligand

>  <RI>
0

>  <Rbt.Current_Directory>
/home/itssahil/PROJECTS/Mol_Feturizer/New_Systems/rnas/2ET5

>  <Rbt.Executable>
rbdock ($Id: //depot/dev/client3/rdock/2013.1/src/exe/rbdock.cxx#4 $)

>  <Rbt.Library>
libRbt.so (2013.1, Build901 2013/11/27)

>  <Rbt.Parameter_File>
/export/apps/rDock/src/rDock_2013.1_src/data/scripts/dock_solv.prm

>  <Rbt.Receptor>
prm/pocket_docking_2.prm

>  <SCORE>
-11.0293

>  <SCORE.INTER>
-8.6717

>  <SCORE.INTER.CONST>
1

>  <SCORE.INTER.POLAR>
0

>  <SCORE.INTER.ROT>
6

>  <SCORE.INTER.SOLV>
19.552

>  <SCORE.INTER.VDW>
-19.8985

>  <SCORE.INTER.norm>
-0.279732

>  <SCORE.INTRA>
-2.42256

>  <SCORE.INTRA.DIHEDRAL>
-5.73955

>  <SCORE.INTRA.DIHEDRAL.0>
11.2357

>  <SCORE.INTRA.POLAR>
0

>  <SCORE.INTRA.POLAR.0>
0

>  <SCORE.INTRA.REPUL>
0

>  <SCORE.INTRA.REPUL.0>
0

>  <SCORE.INTRA.SOLV>
-1.19372

>  <SCORE.INTRA.SOLV.lig_0>
-83.3092

>  <SCORE.INTRA.VDW>
1.04407

>  <SCORE.INTRA.VDW.0>
-4.47057

>  <SCORE.INTRA.norm>
-0.0781472

>  <SCORE.RESTR>
0.0649406

>  <SCORE.RESTR.CAVITY>
0.0649406

>  <SCORE.RESTR.norm>
0.00209486

>  <SCORE.SYSTEM>
0

>  <SCORE.SYSTEM.CONST>
0

>  <SCORE.SYSTEM.DIHEDRAL>
0

>  <SCORE.SYSTEM.SOLV>
0

>  <SCORE.SYSTEM.norm>
0

>  <SCORE.heavy>
31

>  <SCORE.norm>
-0.355785

>  <RMSD>
0.761

$$$$
ligand
 OpenBabel11021811433D
libRbt.so/2013.1/901 2013/11/27
 31 33  0  0  0  0  0  0  0  0999 V2000
   40.8159   24.5149    5.8649 C   0  0  0  0  0  0  0  0  0  0  0  0
   38.5204   24.7659   -2.8392 N   0  0  0  0  0  0  0  0  0  0  0  0
   42.1372   24.9856    5.5613 O   0  0  0  0  0  0  0  0  0  0  0  0
   39.9036   25.3389    4.9601 C   0  0  1  0  0  0  0  0  0  0  0  0
   42.2925   21.5238   -1.8447 N   0  0  0  0  0  0  0  0  0  0  0  0
   40.2024   25.2221    3.4765 O   0  0  0  0  0  0  0  0  0  0  0  0
   39.2770   24.4743    2.7862 C   0  0  1  0  0  0  0  0  0  0  0  0
   43.4185   17.2588    0.7011 N   0  0  0  0  0  0  0  0  0  0  0  0
   39.7507   23.4710    1.9315 O   0  0  0  0  0  0  0  0  0  0  0  0
   40.3155   23.7496    0.5680 C   0  0  2  0  0  0  0  0  0  0  0  0
   43.7263   23.4185    3.0082 N   0  0  0  0  0  0  0  0  0  0  0  0
   38.4290   25.3060    0.1092 O   0  0  0  0  0  0  0  0  0  0  0  0
   39.1363   24.1085   -0.3840 C   0  0  1  0  0  0  0  0  0  0  0  0
   42.1294   22.1794    0.8418 O   0  0  0  0  0  0  0  0  0  0  0  0
   39.6869   24.4026   -1.8682 C   0  0  1  0  0  0  0  0  0  0  0  0
   41.8367   20.2603    2.2189 O   0  0  0  0  0  0  0  0  0  0  0  0
   40.4425   23.0960   -2.3705 C   0  0  0  0  0  0  0  0  0  0  0  0
   45.2882   18.9005    1.8885 O   0  0  0  0  0  0  0  0  0  0  0  0
   41.6067   22.7624   -1.3477 C   0  0  1  0  0  0  0  0  0  0  0  0
   45.8383   21.3735    3.2060 O   0  0  0  0  0  0  0  0  0  0  0  0
   41.0687   22.4591    0.0143 C   0  0  2  0  0  0  0  0  0  0  0  0
   37.0248   23.8476    3.2601 O   0  0  0  0  0  0  0  0  0  0  0  0
   42.0911   21.7424    2.2247 C   0  0  1  0  0  0  0  0  0  0  0  0
   37.6009   26.1941    4.6107 O   0  0  0  0  0  0  0  0  0  0  0  0
   42.9402   19.4031    1.6139 C   0  0  2  0  0  0  0  0  0  0  0  0
   42.5308   17.9353    1.6512 C   0  0  0  0  0  0  0  0  0  0  0  0
   44.2340   19.6556    2.4220 C   0  0  2  0  0  0  0  0  0  0  0  0
   44.6004   21.1303    2.4079 C   0  0  1  0  0  0  0  0  0  0  0  0
   43.4240   21.9334    2.9932 C   0  0  1  0  0  0  0  0  0  0  0  0
   38.2763   23.9974    3.8263 C   0  0  2  0  0  0  0  0  0  0  0  0
   38.4009   25.0359    4.9870 C   0  0  1  0  0  0  0  0  0  0  0  0
  1  3  1  0  0  0  0
  4  1  1  1  0  0  0
  4  6  1  0  0  0  0
  4 31  1  0  0  0  0
  6  7  1  0  0  0  0
  7  9  1  1  0  0  0
  7 30  1  0  0  0  0
  8 26  1  0  0  0  0
 10  9  1  1  0  0  0
 10 13  1  0  0  0  0
 10 21  1  0  0  0  0
 13 12  1  1  0  0  0
 13 15  1  0  0  0  0
 15  2  1  6  0  0  0
 15 17  1  0  0  0  0
 16 25  1  0  0  0  0
 16 23  1  0  0  0  0
 17 19  1  0  0  0  0
 19  5  1  6  0  0  0
 19 21  1  0  0  0  0
 21 14  1  1  0  0  0
 23 14  1  6  0  0  0
 23 29  1  0  0  0  0
 25 26  1  1  0  0  0
 25 27  1  0  0  0  0
 27 18  1  6  0  0  0
 27 28  1  0  0  0  0
 28 20  1  1  0  0  0
 28 29  1  0  0  0  0
 29 11  1  6  0  0  0
 30 22  1  6  0  0  0
 30 31  1  0  0  0  0
 31 24  1  6  0  0  0
M  END
>  <CHROM.1>
57.92380436,-77.89677684,-73.93766118,81.18666957,66.58787953,162.74148865
41.18808058,22.73971296,1.86280078,-2.77993387,0.74551255,-1.84965030

>  <Name>
ligand

>  <RI>
0

>  <Rbt.Current_Directory>
/home/itssahil/PROJECTS/Mol_Feturizer/New_Systems/rnas/2ET5

>  <Rbt.Executable>
rbdock ($Id: //depot/dev/client3/rdock/2013.1/src/exe/rbdock.cxx#4 $)

>  <Rbt.Library>
libRbt.so (2013.1, Build901 2013/11/27)

>  <Rbt.Parameter_File>
/export/apps/rDock/src/rDock_2013.1_src/data/scripts/dock_solv.prm

>  <Rbt.Receptor>
prm/pocket_docking_2.prm

>  <SCORE>
-11.053

>  <SCORE.INTER>
-8.61153

>  <SCORE.INTER.CONST>
1

>  <SCORE.INTER.POLAR>
0

>  <SCORE.INTER.ROT>
6

>  <SCORE.INTER.SOLV>
19.3161

>  <SCORE.INTER.VDW>
-19.7797

>  <SCORE.INTER.norm>
-0.277791

>  <SCORE.INTRA>
-2.55704

>  <SCORE.INTRA.DIHEDRAL>
-5.53732

>  <SCORE.INTRA.DIHEDRAL.0>
11.2357

>  <SCORE.INTRA.POLAR>
0

>  <SCORE.INTRA.POLAR.0>
0

>  <SCORE.INTRA.REPUL>
0

>  <SCORE.INTRA.REPUL.0>
0

>  <SCORE.INTRA.SOLV>
-1.85136

>  <SCORE.INTRA.SOLV.lig_0>
-83.3092

>  <SCORE.INTRA.VDW>
1.1373

>  <SCORE.INTRA.VDW.0>
-4.47057

>  <SCORE.INTRA.norm>
-0.082485

>  <SCORE.RESTR>
0.115554

>  <SCORE.RESTR.CAVITY>
0.115554

>  <SCORE.RESTR.norm>
0.00372756

>  <SCORE.SYSTEM>
0

>  <SCORE.SYSTEM.CONST>
0

>  <SCORE.SYSTEM.DIHEDRAL>
0

>  <SCORE.SYSTEM.SOLV>
0

>  <SCORE.SYSTEM.norm>
0

>  <SCORE.heavy>
31

>  <SCORE.norm>
-0.356549

>  <RMSD>
0.773

$$$$
ligand
 OpenBabel11021811433D
libRbt.so/2013.1/901 2013/11/27
 31 33  0  0  0  0  0  0  0  0999 V2000
   40.8807   24.5475    5.8671 C   0  0  0  0  0  0  0  0  0  0  0  0
   38.5338   24.6859   -2.8530 N   0  0  0  0  0  0  0  0  0  0  0  0
   42.2141   24.9562    5.5282 O   0  0  0  0  0  0  0  0  0  0  0  0
   39.9858   25.3813    4.9539 C   0  0  1  0  0  0  0  0  0  0  0  0
   42.3709   21.5310   -1.8275 N   0  0  0  0  0  0  0  0  0  0  0  0
   40.2917   25.2545    3.4725 O   0  0  0  0  0  0  0  0  0  0  0  0
   39.3595   24.5176    2.7795 C   0  0  1  0  0  0  0  0  0  0  0  0
   43.3828   17.2702    0.7506 N   0  0  0  0  0  0  0  0  0  0  0  0
   39.8236   23.5044    1.9314 O   0  0  0  0  0  0  0  0  0  0  0  0
   40.3729   23.7669    0.5583 C   0  0  2  0  0  0  0  0  0  0  0  0
   43.8980   23.4438    2.9662 N   0  0  0  0  0  0  0  0  0  0  0  0
   38.4554   25.2805    0.0852 O   0  0  0  0  0  0  0  0  0  0  0  0
   39.1801   24.0865   -0.3908 C   0  0  1  0  0  0  0  0  0  0  0  0
   42.2167   22.2347    0.8473 O   0  0  0  0  0  0  0  0  0  0  0  0
   39.7141   24.3620   -1.8847 C   0  0  1  0  0  0  0  0  0  0  0  0
   41.8988   20.3366    2.2477 O   0  0  0  0  0  0  0  0  0  0  0  0
   40.4891   23.0597   -2.3682 C   0  0  0  0  0  0  0  0  0  0  0  0
   45.3004   18.8723    1.8523 O   0  0  0  0  0  0  0  0  0  0  0  0
   41.6668   22.7664   -1.3486 C   0  0  1  0  0  0  0  0  0  0  0  0
   45.9528   21.3388    3.1350 O   0  0  0  0  0  0  0  0  0  0  0  0
   41.1448   22.4797    0.0232 C   0  0  2  0  0  0  0  0  0  0  0  0
   37.0957   23.9256    3.2423 O   0  0  0  0  0  0  0  0  0  0  0  0
   42.1968   21.8105    2.2346 C   0  0  1  0  0  0  0  0  0  0  0  0
   37.6979   26.2685    4.5876 O   0  0  0  0  0  0  0  0  0  0  0  0
   42.9626   19.4420    1.6259 C   0  0  2  0  0  0  0  0  0  0  0  0
   42.5111   17.9874    1.6854 C   0  0  0  0  0  0  0  0  0  0  0  0
   44.2812   19.6628    2.4025 C   0  0  2  0  0  0  0  0  0  0  0  0
   44.6905   21.1258    2.3670 C   0  0  1  0  0  0  0  0  0  0  0  0
   43.5518   21.9682    2.9713 C   0  0  1  0  0  0  0  0  0  0  0  0
   38.3459   24.0593    3.8154 C   0  0  2  0  0  0  0  0  0  0  0  0
   38.4788   25.1003    4.9730 C   0  0  1  0  0  0  0  0  0  0  0  0
  1  3  1  0  0  0  0
  4  1  1  1  0  0  0
  4  6  1  0  0  0  0
  4 31  1  0  0  0  0
  6  7  1  0  0  0  0
  7  9  1  1  0  0  0
  7 30  1  0  0  0  0
  8 26  1  0  0  0  0
 10  9  1  1  0  0  0
 10 13  1  0  0  0  0
 10 21  1  0  0  0  0
 13 12  1  1  0  0  0
 13 15  1  0  0  0  0
 15  2  1  6  0  0  0
 15 17  1  0  0  0  0
 16 25  1  0  0  0  0
 16 23  1  0  0  0  0
 17 19  1  0  0  0  0
 19  5  1  6  0  0  0
 19 21  1  0  0  0  0
 21 14  1  1  0  0  0
 23 14  1  6  0  0  0
 23 29  1  0  0  0  0
 25 26  1  1  0  0  0
 25 27  1  0  0  0  0
 27 18  1  6  0  0  0
 27 28  1  0  0  0  0
 28 20  1  1  0  0  0
 28 29  1  0  0  0  0
 29 11  1  6  0  0  0
 30 22  1  6  0  0  0
 30 31  1  0  0  0  0
 31 24  1  6  0  0  0
M  END
>  <CHROM.1>
55.49821184,-79.27112202,-75.05841614,77.91089672,67.27072826,164.34155127
41.25270817,22.75847025,1.85436719,-2.77015486,0.74111970,-1.86534084

>  <Name>
ligand

>  <RI>
0

>  <Rbt.Current_Directory>
/home/itssahil/PROJECTS/Mol_Feturizer/New_Systems/rnas/2ET5

>  <Rbt.Executable>
rbdock ($Id: //depot/dev/client3/rdock/2013.1/src/exe/rbdock.cxx#4 $)

>  <Rbt.Library>
libRbt.so (2013.1, Build901 2013/11/27)

>  <Rbt.Parameter_File>
/export/apps/rDock/src/rDock_2013.1_src/data/scripts/dock_solv.prm

>  <Rbt.Receptor>
prm/pocket_docking_2.prm

>  <SCORE>
-11.313

>  <SCORE.INTER>
-8.67883

>  <SCORE.INTER.CONST>
1

>  <SCORE.INTER.POLAR>
0

>  <SCORE.INTER.ROT>
6

>  <SCORE.INTER.SOLV>
19.2607

>  <SCORE.INTER.VDW>
-19.8061

>  <SCORE.INTER.norm>
-0.279962

>  <SCORE.INTRA>
-2.77717

>  <SCORE.INTRA.DIHEDRAL>
-5.77031

>  <SCORE.INTRA.DIHEDRAL.0>
11.2357

>  <SCORE.INTRA.POLAR>
0

>  <SCORE.INTRA.POLAR.0>
0

>  <SCORE.INTRA.REPUL>
0

>  <SCORE.INTRA.REPUL.0>
0

>  <SCORE.INTRA.SOLV>
-2.00685

>  <SCORE.INTRA.SOLV.lig_0>
-83.3092

>  <SCORE.INTRA.VDW>
1.11141

>  <SCORE.INTRA.VDW.0>
-4.47057

>  <SCORE.INTRA.norm>
-0.0895861

>  <SCORE.RESTR>
0.142985

>  <SCORE.RESTR.CAVITY>
0.142985

>  <SCORE.RESTR.norm>
0.0046124

>  <SCORE.SYSTEM>
0

>  <SCORE.SYSTEM.CONST>
0

>  <SCORE.SYSTEM.DIHEDRAL>
0

>  <SCORE.SYSTEM.SOLV>
0

>  <SCORE.SYSTEM.norm>
0

>  <SCORE.heavy>
31

>  <SCORE.norm>
-0.364936

>  <RMSD>
0.780

$$$$
ligand
 OpenBabel11021811433D
libRbt.so/2013.1/901 2013/11/27
 31 33  0  0  0  0  0  0  0  0999 V2000
   40.8839   24.5314    5.8734 C   0  0  0  0  0  0  0  0  0  0  0  0
   38.5463   24.6986   -2.8497 N   0  0  0  0  0  0  0  0  0  0  0  0
   42.2183   24.9526    5.5549 O   0  0  0  0  0  0  0  0  0  0  0  0
   39.9940   25.3732    4.9625 C   0  0  1  0  0  0  0  0  0  0  0  0
   42.3642   21.5225   -1.8182 N   0  0  0  0  0  0  0  0  0  0  0  0
   40.2978   25.2471    3.4807 O   0  0  0  0  0  0  0  0  0  0  0  0
   39.3600   24.5180    2.7870 C   0  0  1  0  0  0  0  0  0  0  0  0
   43.3682   17.2572    0.7594 N   0  0  0  0  0  0  0  0  0  0  0  0
   39.8164   23.5032    1.9365 O   0  0  0  0  0  0  0  0  0  0  0  0
   40.3709   23.7650    0.5654 C   0  0  2  0  0  0  0  0  0  0  0  0
   43.8799   23.4274    2.9848 N   0  0  0  0  0  0  0  0  0  0  0  0
   38.4625   25.2891    0.0893 O   0  0  0  0  0  0  0  0  0  0  0  0
   39.1825   24.0922   -0.3866 C   0  0  1  0  0  0  0  0  0  0  0  0
   42.2060   22.2230    0.8573 O   0  0  0  0  0  0  0  0  0  0  0  0
   39.7221   24.3672   -1.8785 C   0  0  1  0  0  0  0  0  0  0  0  0
   41.8804   20.3232    2.2538 O   0  0  0  0  0  0  0  0  0  0  0  0
   40.4918   23.0617   -2.3618 C   0  0  0  0  0  0  0  0  0  0  0  0
   45.2820   18.8560    1.8703 O   0  0  0  0  0  0  0  0  0  0  0  0
   41.6651   22.7608   -1.3393 C   0  0  1  0  0  0  0  0  0  0  0  0
   45.9318   21.3200    3.1590 O   0  0  0  0  0  0  0  0  0  0  0  0
   41.1377   22.4747    0.0305 C   0  0  2  0  0  0  0  0  0  0  0  0
   37.0925   23.9407    3.2505 O   0  0  0  0  0  0  0  0  0  0  0  0
   42.1800   21.7969    2.2439 C   0  0  1  0  0  0  0  0  0  0  0  0
   37.7120   26.2768    4.5998 O   0  0  0  0  0  0  0  0  0  0  0  0
   42.9458   19.4285    1.6350 C   0  0  2  0  0  0  0  0  0  0  0  0
   42.4925   17.9742    1.6907 C   0  0  0  0  0  0  0  0  0  0  0  0
   44.2615   19.6468    2.4174 C   0  0  2  0  0  0  0  0  0  0  0  0
   44.6724   21.1094    2.3856 C   0  0  1  0  0  0  0  0  0  0  0  0
   43.5322   21.9522    2.9863 C   0  0  1  0  0  0  0  0  0  0  0  0
   38.3440   24.0647    3.8228 C   0  0  2  0  0  0  0  0  0  0  0  0
   38.4851   25.1025    4.9823 C   0  0  1  0  0  0  0  0  0  0  0  0
  1  3  1  0  0  0  0
  4  1  1  1  0  0  0
  4  6  1  0  0  0  0
  4 31  1  0  0  0  0
  6  7  1  0  0  0  0
  7  9  1  1  0  0  0
  7 30  1  0  0  0  0
  8 26  1  0  0  0  0
 10  9  1  1  0  0  0
 10 13  1  0  0  0  0
 10 21  1  0  0  0  0
 13 12  1  1  0  0  0
 13 15  1  0  0  0  0
 15  2  1  6  0  0  0
 15 17  1  0  0  0  0
 16 25  1  0  0  0  0
 16 23  1  0  0  0  0
 17 19  1  0  0  0  0
 19  5  1  6  0  0  0
 19 21  1  0  0  0  0
 21 14  1  1  0  0  0
 23 14  1  6  0  0  0
 23 29  1  0  0  0  0
 25 26  1  1  0  0  0
 25 27  1  0  0  0  0
 27 18  1  6  0  0  0
 27 28  1  0  0  0  0
 28 20  1  1  0  0  0
 28 29  1  0  0  0  0
 29 11  1  6  0  0  0
 30 22  1  6  0  0  0
 30 31  1  0  0  0  0
 31 24  1  6  0  0  0
M  END
>  <CHROM.1>
56.71446004,-79.04509662,-75.32086699,78.15874833,67.26493046,164.39075900
41.24740398,22.75305407,1.86462056,-2.77051582,0.74605941,-1.86466474

>  <Name>
ligand

>  <RI>
0

>  <Rbt.Current_Directory>
/home/itssahil/PROJECTS/Mol_Feturizer/New_Systems/rnas/2ET5

>  <Rbt.Executable>
rbdock ($Id: //depot/dev/client3/rdock/2013.1/src/exe/rbdock.cxx#4 $)

>  <Rbt.Library>
libRbt.so (2013.1, Build901 2013/11/27)

>  <Rbt.Parameter_File>
/export/apps/rDock/src/rDock_2013.1_src/data/scripts/dock_solv.prm

>  <Rbt.Receptor>
prm/pocket_docking_2.prm

>  <SCORE>
-11.2824

>  <SCORE.INTER>
-8.65718

>  <SCORE.INTER.CONST>
1

>  <SCORE.INTER.POLAR>
0

>  <SCORE.INTER.ROT>
6

>  <SCORE.INTER.SOLV>
19.3345

>  <SCORE.INTER.VDW>
-19.8163

>  <SCORE.INTER.norm>
-0.279264

>  <SCORE.INTRA>
-2.75696

>  <SCORE.INTRA.DIHEDRAL>
-5.7716

>  <SCORE.INTRA.DIHEDRAL.0>
11.2357

>  <SCORE.INTRA.POLAR>
0

>  <SCORE.INTRA.POLAR.0>
0

>  <SCORE.INTRA.REPUL>
0

>  <SCORE.INTRA.REPUL.0>
0

>  <SCORE.INTRA.SOLV>
-1.98344

>  <SCORE.INTRA.SOLV.lig_0>
-83.3092

>  <SCORE.INTRA.VDW>
1.12056

>  <SCORE.INTRA.VDW.0>
-4.47057

>  <SCORE.INTRA.norm>
-0.0889343

>  <SCORE.RESTR>
0.131778

>  <SCORE.RESTR.CAVITY>
0.131778

>  <SCORE.RESTR.norm>
0.0042509

>  <SCORE.SYSTEM>
0

>  <SCORE.SYSTEM.CONST>
0

>  <SCORE.SYSTEM.DIHEDRAL>
0

>  <SCORE.SYSTEM.SOLV>
0

>  <SCORE.SYSTEM.norm>
0

>  <SCORE.heavy>
31

>  <SCORE.norm>
-0.363947

>  <RMSD>
0.786

$$$$
ligand
 OpenBabel11021811433D
libRbt.so/2013.1/901 2013/11/27
 31 33  0  0  0  0  0  0  0  0999 V2000
   40.8305   25.0315    5.0932 C   0  0  0  0  0  0  0  0  0  0  0  0
   38.7203   24.7106   -3.3750 N   0  0  0  0  0  0  0  0  0  0  0  0
   40.9307   23.6287    4.8077 O   0  0  0  0  0  0  0  0  0  0  0  0
   39.6476   25.5052    4.2526 C   0  0  1  0  0  0  0  0  0  0  0  0
   42.5371   21.5899   -2.1826 N   0  0  0  0  0  0  0  0  0  0  0  0
   39.8029   25.2943    2.7575 O   0  0  0  0  0  0  0  0  0  0  0  0
   39.0251   24.2736    2.2623 C   0  0  1  0  0  0  0  0  0  0  0  0
   42.5182   17.3901    2.2125 N   0  0  0  0  0  0  0  0  0  0  0  0
   39.6393   23.3214    1.4392 O   0  0  0  0  0  0  0  0  0  0  0  0
   40.2934   23.6629    0.1310 C   0  0  2  0  0  0  0  0  0  0  0  0
   43.4708   23.2331    2.9216 N   0  0  0  0  0  0  0  0  0  0  0  0
   38.3844   25.1575   -0.4287 O   0  0  0  0  0  0  0  0  0  0  0  0
   39.1756   24.0040   -0.8985 C   0  0  1  0  0  0  0  0  0  0  0  0
   42.1448   22.1572    0.5003 O   0  0  0  0  0  0  0  0  0  0  0  0
   39.8242   24.3640   -2.3276 C   0  0  1  0  0  0  0  0  0  0  0  0
   41.8887   20.0742    1.6231 O   0  0  0  0  0  0  0  0  0  0  0  0
   40.6688   23.1038   -2.8058 C   0  0  0  0  0  0  0  0  0  0  0  0
   45.4469   18.9893    1.4411 O   0  0  0  0  0  0  0  0  0  0  0  0
   41.7652   22.7852   -1.7062 C   0  0  1  0  0  0  0  0  0  0  0  0
   45.7070   21.3202    3.0702 O   0  0  0  0  0  0  0  0  0  0  0  0
   41.1389   22.4201   -0.3981 C   0  0  2  0  0  0  0  0  0  0  0  0
   37.0676   23.1861    3.0839 O   0  0  0  0  0  0  0  0  0  0  0  0
   42.0310   21.5587    1.8170 C   0  0  1  0  0  0  0  0  0  0  0  0
   37.1802   25.7407    4.1437 O   0  0  0  0  0  0  0  0  0  0  0  0
   43.0967   19.3676    1.0231 C   0  0  2  0  0  0  0  0  0  0  0  0
   42.7959   17.8822    0.8601 C   0  0  0  0  0  0  0  0  0  0  0  0
   44.3010   19.6064    1.9630 C   0  0  2  0  0  0  0  0  0  0  0  0
   44.5568   21.0931    2.1461 C   0  0  1  0  0  0  0  0  0  0  0  0
   43.2818   21.7436    2.7141 C   0  0  1  0  0  0  0  0  0  0  0  0
   38.2954   23.6938    3.4631 C   0  0  2  0  0  0  0  0  0  0  0  0
   38.2812   24.8576    4.5055 C   0  0  1  0  0  0  0  0  0  0  0  0
  1  3  1  0  0  0  0
  4  1  1  1  0  0  0
  4  6  1  0  0  0  0
  4 31  1  0  0  0  0
  6  7  1  0  0  0  0
  7  9  1  1  0  0  0
  7 30  1  0  0  0  0
  8 26  1  0  0  0  0
 10  9  1  1  0  0  0
 10 13  1  0  0  0  0
 10 21  1  0  0  0  0
 13 12  1  1  0  0  0
 13 15  1  0  0  0  0
 15  2  1  6  0  0  0
 15 17  1  0  0  0  0
 16 25  1  0  0  0  0
 16 23  1  0  0  0  0
 17 19  1  0  0  0  0
 19  5  1  6  0  0  0
 19 21  1  0  0  0  0
 21 14  1  1  0  0  0
 23 14  1  6  0  0  0
 23 29  1  0  0  0  0
 25 26  1  1  0  0  0
 25 27  1  0  0  0  0
 27 18  1  6  0  0  0
 27 28  1  0  0  0  0
 28 20  1  1  0  0  0
 28 29  1  0  0  0  0
 29 11  1  6  0  0  0
 30 22  1  6  0  0  0
 30 31  1  0  0  0  0
 31 24  1  6  0  0  0
M  END
>  <CHROM.1>
-59.73924539,-61.01075754,-71.89924377,78.67778958,73.01322478,-60.42709755
41.09993547,22.61188278,1.46216326,-2.97557529,0.75379273,-1.66992473

>  <Name>
ligand

>  <RI>
0

>  <Rbt.Current_Directory>
/home/itssahil/PROJECTS/Mol_Feturizer/New_Systems/rnas/2ET5

>  <Rbt.Executable>
rbdock ($Id: //depot/dev/client3/rdock/2013.1/src/exe/rbdock.cxx#4 $)

>  <Rbt.Library>
libRbt.so (2013.1, Build901 2013/11/27)

>  <Rbt.Parameter_File>
/export/apps/rDock/src/rDock_2013.1_src/data/scripts/dock_solv.prm

>  <Rbt.Receptor>
prm/pocket_docking_3.prm

>  <SCORE>
-8.26746

>  <SCORE.INTER>
-5.19481

>  <SCORE.INTER.CONST>
1

>  <SCORE.INTER.POLAR>
0

>  <SCORE.INTER.ROT>
6

>  <SCORE.INTER.SOLV>
25.3844

>  <SCORE.INTER.VDW>
-19.5247

>  <SCORE.INTER.norm>
-0.167575

>  <SCORE.INTRA>
-3.07265

>  <SCORE.INTRA.DIHEDRAL>
-8.03662

>  <SCORE.INTRA.DIHEDRAL.0>
11.2357

>  <SCORE.INTRA.POLAR>
0

>  <SCORE.INTRA.POLAR.0>
0

>  <SCORE.INTRA.REPUL>
0

>  <SCORE.INTRA.REPUL.0>
0

>  <SCORE.INTRA.SOLV>
-0.145596

>  <SCORE.INTRA.SOLV.lig_0>
-83.3092

>  <SCORE.INTRA.VDW>
1.01846

>  <SCORE.INTRA.VDW.0>
-4.47057

>  <SCORE.INTRA.norm>
-0.0991176

>  <SCORE.RESTR>
0

>  <SCORE.RESTR.CAVITY>
0

>  <SCORE.RESTR.norm>
0

>  <SCORE.SYSTEM>
0

>  <SCORE.SYSTEM.CONST>
0

>  <SCORE.SYSTEM.DIHEDRAL>
0

>  <SCORE.SYSTEM.SOLV>
0

>  <SCORE.SYSTEM.norm>
0

>  <SCORE.heavy>
31

>  <SCORE.norm>
-0.266692

>  <RMSD>
0.805

$$$$
ligand
 OpenBabel11021811433D
libRbt.so/2013.1/901 2013/11/27
 31 33  0  0  0  0  0  0  0  0999 V2000
   40.6956   24.5447    5.9323 C   0  0  0  0  0  0  0  0  0  0  0  0
   38.5132   24.7828   -2.8310 N   0  0  0  0  0  0  0  0  0  0  0  0
   40.4970   23.2013    5.4679 O   0  0  0  0  0  0  0  0  0  0  0  0
   39.8296   25.3964    5.0078 C   0  0  1  0  0  0  0  0  0  0  0  0
   42.3112   21.5920   -1.7715 N   0  0  0  0  0  0  0  0  0  0  0  0
   40.1678   25.2817    3.5325 O   0  0  0  0  0  0  0  0  0  0  0  0
   39.2446   24.5610    2.8110 C   0  0  1  0  0  0  0  0  0  0  0  0
   43.4595   17.3361    0.8317 N   0  0  0  0  0  0  0  0  0  0  0  0
   39.7181   23.5520    1.9630 O   0  0  0  0  0  0  0  0  0  0  0  0
   40.2910   23.8221    0.6012 C   0  0  2  0  0  0  0  0  0  0  0  0
   43.7096   23.5048    3.0825 N   0  0  0  0  0  0  0  0  0  0  0  0
   38.3920   25.3532    0.1106 O   0  0  0  0  0  0  0  0  0  0  0  0
   39.1159   24.1581   -0.3640 C   0  0  1  0  0  0  0  0  0  0  0  0
   42.1193   22.2744    0.9064 O   0  0  0  0  0  0  0  0  0  0  0  0
   39.6755   24.4423   -1.8468 C   0  0  1  0  0  0  0  0  0  0  0  0
   41.8169   20.3524    2.2775 O   0  0  0  0  0  0  0  0  0  0  0  0
   40.4490   23.1387   -2.3290 C   0  0  0  0  0  0  0  0  0  0  0  0
   45.2669   18.9864    1.9580 O   0  0  0  0  0  0  0  0  0  0  0  0
   41.6082   22.8284   -1.2934 C   0  0  1  0  0  0  0  0  0  0  0  0
   45.8166   21.4550    3.2839 O   0  0  0  0  0  0  0  0  0  0  0  0
   41.0624   22.5339    0.0675 C   0  0  2  0  0  0  0  0  0  0  0  0
   36.9653   23.9865    3.2163 O   0  0  0  0  0  0  0  0  0  0  0  0
   42.0743   21.8340    2.2880 C   0  0  1  0  0  0  0  0  0  0  0  0
   37.5592   26.3096    4.5991 O   0  0  0  0  0  0  0  0  0  0  0  0
   42.9212   19.4945    1.6750 C   0  0  2  0  0  0  0  0  0  0  0  0
   42.5086   18.0274    1.7069 C   0  0  0  0  0  0  0  0  0  0  0  0
   44.2121   19.7424    2.4890 C   0  0  2  0  0  0  0  0  0  0  0  0
   44.5816   21.2163    2.4801 C   0  0  1  0  0  0  0  0  0  0  0  0
   43.4044   22.0204    3.0625 C   0  0  1  0  0  0  0  0  0  0  0  0
   38.2034   24.1022    3.8188 C   0  0  2  0  0  0  0  0  0  0  0  0
   38.3199   25.1300    4.9899 C   0  0  1  0  0  0  0  0  0  0  0  0
  1  3  1  0  0  0  0
  4  1  1  1  0  0  0
  4  6  1  0  0  0  0
  4 31  1  0  0  0  0
  6  7  1  0  0  0  0
  7  9  1  1  0  0  0
  7 30  1  0  0  0  0
  8 26  1  0  0  0  0
 10  9  1  1  0  0  0
 10 13  1  0  0  0  0
 10 21  1  0  0  0  0
 13 12  1  1  0  0  0
 13 15  1  0  0  0  0
 15  2  1  6  0  0  0
 15 17  1  0  0  0  0
 16 25  1  0  0  0  0
 16 23  1  0  0  0  0
 17 19  1  0  0  0  0
 19  5  1  6  0  0  0
 19 21  1  0  0  0  0
 21 14  1  1  0  0  0
 23 14  1  6  0  0  0
 23 29  1  0  0  0  0
 25 26  1  1  0  0  0
 25 27  1  0  0  0  0
 27 18  1  6  0  0  0
 27 28  1  0  0  0  0
 28 20  1  1  0  0  0
 28 29  1  0  0  0  0
 29 11  1  6  0  0  0
 30 22  1  6  0  0  0
 30 31  1  0  0  0  0
 31 24  1  6  0  0  0
M  END
>  <CHROM.1>
-58.56521830,-79.76437851,-74.89359948,79.83239678,67.51550035,166.63607898
41.10283681,22.74917691,1.90202319,-2.88016003,0.75151459,-1.73700803

>  <Name>
ligand

>  <RI>
0

>  <Rbt.Current_Directory>
/home/itssahil/PROJECTS/Mol_Feturizer/New_Systems/rnas/2ET5

>  <Rbt.Executable>
rbdock ($Id: //depot/dev/client3/rdock/2013.1/src/exe/rbdock.cxx#4 $)

>  <Rbt.Library>
libRbt.so (2013.1, Build901 2013/11/27)

>  <Rbt.Parameter_File>
/export/apps/rDock/src/rDock_2013.1_src/data/scripts/dock_solv.prm

>  <Rbt.Receptor>
prm/pocket_docking_2.prm

>  <SCORE>
-11.1551

>  <SCORE.INTER>
-8.68011

>  <SCORE.INTER.CONST>
1

>  <SCORE.INTER.POLAR>
0

>  <SCORE.INTER.ROT>
6

>  <SCORE.INTER.SOLV>
19.8398

>  <SCORE.INTER.VDW>
-20

>  <SCORE.INTER.norm>
-0.280003

>  <SCORE.INTRA>
-2.54757

>  <SCORE.INTRA.DIHEDRAL>
-5.68033

>  <SCORE.INTRA.DIHEDRAL.0>
11.2357

>  <SCORE.INTRA.POLAR>
0

>  <SCORE.INTRA.POLAR.0>
0

>  <SCORE.INTRA.REPUL>
0

>  <SCORE.INTRA.REPUL.0>
0

>  <SCORE.INTRA.SOLV>
-1.52171

>  <SCORE.INTRA.SOLV.lig_0>
-83.3092

>  <SCORE.INTRA.VDW>
1.05345

>  <SCORE.INTRA.VDW.0>
-4.47057

>  <SCORE.INTRA.norm>
-0.0821797

>  <SCORE.RESTR>
0.0725601

>  <SCORE.RESTR.CAVITY>
0.0725601

>  <SCORE.RESTR.norm>
0.00234065

>  <SCORE.SYSTEM>
0

>  <SCORE.SYSTEM.CONST>
0

>  <SCORE.SYSTEM.DIHEDRAL>
0

>  <SCORE.SYSTEM.SOLV>
0

>  <SCORE.SYSTEM.norm>
0

>  <SCORE.heavy>
31

>  <SCORE.norm>
-0.359843

>  <RMSD>
0.807

$$$$
ligand
 OpenBabel11021811433D
libRbt.so/2013.1/901 2013/11/27
 31 33  0  0  0  0  0  0  0  0999 V2000
   40.7029   24.4927    5.9088 C   0  0  0  0  0  0  0  0  0  0  0  0
   38.4810   24.7468   -2.8411 N   0  0  0  0  0  0  0  0  0  0  0  0
   40.5041   23.1494    5.4447 O   0  0  0  0  0  0  0  0  0  0  0  0
   39.8277   25.3433    4.9919 C   0  0  1  0  0  0  0  0  0  0  0  0
   42.2794   21.5503   -1.8004 N   0  0  0  0  0  0  0  0  0  0  0  0
   40.1548   25.2307    3.5139 O   0  0  0  0  0  0  0  0  0  0  0  0
   39.2278   24.5086    2.7989 C   0  0  1  0  0  0  0  0  0  0  0  0
   43.3973   17.2929    0.7413 N   0  0  0  0  0  0  0  0  0  0  0  0
   39.6972   23.5015    1.9463 O   0  0  0  0  0  0  0  0  0  0  0  0
   40.2668   23.7750    0.5838 C   0  0  2  0  0  0  0  0  0  0  0  0
   43.6932   23.4427    3.0574 N   0  0  0  0  0  0  0  0  0  0  0  0
   38.3676   25.3090    0.1024 O   0  0  0  0  0  0  0  0  0  0  0  0
   39.0895   24.1147   -0.3775 C   0  0  1  0  0  0  0  0  0  0  0  0
   42.0947   22.2252    0.8800 O   0  0  0  0  0  0  0  0  0  0  0  0
   39.6455   24.4027   -1.8609 C   0  0  1  0  0  0  0  0  0  0  0  0
   41.7931   20.2972    2.2427 O   0  0  0  0  0  0  0  0  0  0  0  0
   40.4169   23.0999   -2.3487 C   0  0  0  0  0  0  0  0  0  0  0  0
   45.2401   18.9272    1.9069 O   0  0  0  0  0  0  0  0  0  0  0  0
   41.5785   22.7858   -1.3169 C   0  0  1  0  0  0  0  0  0  0  0  0
   45.7975   21.3886    3.2431 O   0  0  0  0  0  0  0  0  0  0  0  0
   41.0359   22.4879    0.0445 C   0  0  2  0  0  0  0  0  0  0  0  0
   36.9531   23.9281    3.2212 O   0  0  0  0  0  0  0  0  0  0  0  0
   42.0529   21.7783    2.2596 C   0  0  1  0  0  0  0  0  0  0  0  0
   37.5520   26.2514    4.6017 O   0  0  0  0  0  0  0  0  0  0  0  0
   42.8943   19.4404    1.6329 C   0  0  2  0  0  0  0  0  0  0  0  0
   42.4795   17.9738    1.6590 C   0  0  0  0  0  0  0  0  0  0  0  0
   44.1879   19.6823    2.4445 C   0  0  2  0  0  0  0  0  0  0  0  0
   44.5598   21.1557    2.4416 C   0  0  1  0  0  0  0  0  0  0  0  0
   43.3855   21.9588    3.0312 C   0  0  1  0  0  0  0  0  0  0  0  0
   38.1955   24.0462    3.8143 C   0  0  2  0  0  0  0  0  0  0  0  0
   38.3186   25.0732    4.9854 C   0  0  1  0  0  0  0  0  0  0  0  0
  1  3  1  0  0  0  0
  4  1  1  1  0  0  0
  4  6  1  0  0  0  0
  4 31  1  0  0  0  0
  6  7  1  0  0  0  0
  7  9  1  1  0  0  0
  7 30  1  0  0  0  0
  8 26  1  0  0  0  0
 10  9  1  1  0  0  0
 10 13  1  0  0  0  0
 10 21  1  0  0  0  0
 13 12  1  1  0  0  0
 13 15  1  0  0  0  0
 15  2  1  6  0  0  0
 15 17  1  0  0  0  0
 16 25  1  0  0  0  0
 16 23  1  0  0  0  0
 17 19  1  0  0  0  0
 19  5  1  6  0  0  0
 19 21  1  0  0  0  0
 21 14  1  1  0  0  0
 23 14  1  6  0  0  0
 23 29  1  0  0  0  0
 25 26  1  1  0  0  0
 25 27  1  0  0  0  0
 27 18  1  6  0  0  0
 27 28  1  0  0  0  0
 28 20  1  1  0  0  0
 28 29  1  0  0  0  0
 29 11  1  6  0  0  0
 30 22  1  6  0  0  0
 30 31  1  0  0  0  0
 31 24  1  6  0  0  0
M  END
>  <CHROM.1>
-58.55914213,-79.36680692,-74.96180565,79.69067885,67.65432114,164.70479738
41.08237817,22.69742110,1.87723988,-2.87119407,0.75234181,-1.73984688

>  <Name>
ligand

>  <RI>
0

>  <Rbt.Current_Directory>
/home/itssahil/PROJECTS/Mol_Feturizer/New_Systems/rnas/2ET5

>  <Rbt.Executable>
rbdock ($Id: //depot/dev/client3/rdock/2013.1/src/exe/rbdock.cxx#4 $)

>  <Rbt.Library>
libRbt.so (2013.1, Build901 2013/11/27)

>  <Rbt.Parameter_File>
/export/apps/rDock/src/rDock_2013.1_src/data/scripts/dock_solv.prm

>  <Rbt.Receptor>
prm/pocket_docking_2.prm

>  <SCORE>
-11.1932

>  <SCORE.INTER>
-8.70531

>  <SCORE.INTER.CONST>
1

>  <SCORE.INTER.POLAR>
0

>  <SCORE.INTER.ROT>
6

>  <SCORE.INTER.SOLV>
20.1905

>  <SCORE.INTER.VDW>
-20.1337

>  <SCORE.INTER.norm>
-0.280816

>  <SCORE.INTRA>
-2.55748

>  <SCORE.INTRA.DIHEDRAL>
-5.56455

>  <SCORE.INTRA.DIHEDRAL.0>
11.2357

>  <SCORE.INTRA.POLAR>
0

>  <SCORE.INTRA.POLAR.0>
0

>  <SCORE.INTRA.REPUL>
0

>  <SCORE.INTRA.REPUL.0>
0

>  <SCORE.INTRA.SOLV>
-1.55273

>  <SCORE.INTRA.SOLV.lig_0>
-83.3092

>  <SCORE.INTRA.VDW>
1.00116

>  <SCORE.INTRA.VDW.0>
-4.47057

>  <SCORE.INTRA.norm>
-0.0824993

>  <SCORE.RESTR>
0.0695648

>  <SCORE.RESTR.CAVITY>
0.0695648

>  <SCORE.RESTR.norm>
0.00224403

>  <SCORE.SYSTEM>
0

>  <SCORE.SYSTEM.CONST>
0

>  <SCORE.SYSTEM.DIHEDRAL>
0

>  <SCORE.SYSTEM.SOLV>
0

>  <SCORE.SYSTEM.norm>
0

>  <SCORE.heavy>
31

>  <SCORE.norm>
-0.361072

>  <RMSD>
0.810

$$$$
ligand
 OpenBabel11021811433D
libRbt.so/2013.1/901 2013/11/27
 31 33  0  0  0  0  0  0  0  0999 V2000
   40.8217   24.5699    5.9256 C   0  0  0  0  0  0  0  0  0  0  0  0
   38.5699   24.6288   -2.8440 N   0  0  0  0  0  0  0  0  0  0  0  0
   40.5818   23.2211    5.4979 O   0  0  0  0  0  0  0  0  0  0  0  0
   39.9749   25.4218    4.9837 C   0  0  1  0  0  0  0  0  0  0  0  0
   42.4198   21.5101   -1.7575 N   0  0  0  0  0  0  0  0  0  0  0  0
   40.3223   25.2829    3.5126 O   0  0  0  0  0  0  0  0  0  0  0  0
   39.3941   24.5662    2.7936 C   0  0  1  0  0  0  0  0  0  0  0  0
   43.3838   17.2818    0.7897 N   0  0  0  0  0  0  0  0  0  0  0  0
   39.8592   23.5394    1.9624 O   0  0  0  0  0  0  0  0  0  0  0  0
   40.4089   23.7796    0.5855 C   0  0  2  0  0  0  0  0  0  0  0  0
   43.9616   23.4408    3.0228 N   0  0  0  0  0  0  0  0  0  0  0  0
   38.4852   25.2759    0.0830 O   0  0  0  0  0  0  0  0  0  0  0  0
   39.2159   24.0768   -0.3706 C   0  0  1  0  0  0  0  0  0  0  0  0
   42.2592   22.2612    0.9041 O   0  0  0  0  0  0  0  0  0  0  0  0
   39.7504   24.3277   -1.8686 C   0  0  1  0  0  0  0  0  0  0  0  0
   41.9265   20.3590    2.2955 O   0  0  0  0  0  0  0  0  0  0  0  0
   40.5318   23.0204   -2.3277 C   0  0  0  0  0  0  0  0  0  0  0  0
   45.3107   18.8607    1.8787 O   0  0  0  0  0  0  0  0  0  0  0  0
   41.7096   22.7508   -1.3017 C   0  0  1  0  0  0  0  0  0  0  0  0
   45.9944   21.3131    3.1720 O   0  0  0  0  0  0  0  0  0  0  0  0
   41.1872   22.4865    0.0745 C   0  0  2  0  0  0  0  0  0  0  0  0
   37.1038   24.0298    3.1891 O   0  0  0  0  0  0  0  0  0  0  0  0
   42.2402   21.8297    2.2891 C   0  0  1  0  0  0  0  0  0  0  0  0
   37.7210   26.3621    4.5461 O   0  0  0  0  0  0  0  0  0  0  0  0
   42.9783   19.4565    1.6646 C   0  0  2  0  0  0  0  0  0  0  0  0
   42.5115   18.0065    1.7181 C   0  0  0  0  0  0  0  0  0  0  0  0
   44.3022   19.6590    2.4372 C   0  0  2  0  0  0  0  0  0  0  0  0
   44.7270   21.1177    2.4079 C   0  0  1  0  0  0  0  0  0  0  0  0
   43.5997   21.9690    3.0212 C   0  0  1  0  0  0  0  0  0  0  0  0
   38.3389   24.1356    3.7994 C   0  0  2  0  0  0  0  0  0  0  0  0
   38.4617   25.1769    4.9579 C   0  0  1  0  0  0  0  0  0  0  0  0
  1  3  1  0  0  0  0
  4  1  1  1  0  0  0
  4  6  1  0  0  0  0
  4 31  1  0  0  0  0
  6  7  1  0  0  0  0
  7  9  1  1  0  0  0
  7 30  1  0  0  0  0
  8 26  1  0  0  0  0
 10  9  1  1  0  0  0
 10 13  1  0  0  0  0
 10 21  1  0  0  0  0
 13 12  1  1  0  0  0
 13 15  1  0  0  0  0
 15  2  1  6  0  0  0
 15 17  1  0  0  0  0
 16 25  1  0  0  0  0
 16 23  1  0  0  0  0
 17 19  1  0  0  0  0
 19  5  1  6  0  0  0
 19 21  1  0  0  0  0
 21 14  1  1  0  0  0
 23 14  1  6  0  0  0
 23 29  1  0  0  0  0
 25 26  1  1  0  0  0
 25 27  1  0  0  0  0
 27 18  1  6  0  0  0
 27 28  1  0  0  0  0
 28 20  1  1  0  0  0
 28 29  1  0  0  0  0
 29 11  1  6  0  0  0
 30 22  1  6  0  0  0
 30 31  1  0  0  0  0
 31 24  1  6  0  0  0
M  END
>  <CHROM.1>
-59.91387984,-81.61290648,-75.30051814,75.94070714,68.95638942,165.08897856
41.21726881,22.70966997,1.87981608,-2.84683189,0.75252772,-1.76793970

>  <Name>
ligand

>  <RI>
0

>  <Rbt.Current_Directory>
/home/itssahil/PROJECTS/Mol_Feturizer/New_Systems/rnas/2ET5

>  <Rbt.Executable>
rbdock ($Id: //depot/dev/client3/rdock/2013.1/src/exe/rbdock.cxx#4 $)

>  <Rbt.Library>
libRbt.so (2013.1, Build901 2013/11/27)

>  <Rbt.Parameter_File>
/export/apps/rDock/src/rDock_2013.1_src/data/scripts/dock_solv.prm

>  <Rbt.Receptor>
prm/pocket_docking_2.prm

>  <SCORE>
-11.5206

>  <SCORE.INTER>
-8.87963

>  <SCORE.INTER.CONST>
1

>  <SCORE.INTER.POLAR>
0

>  <SCORE.INTER.ROT>
6

>  <SCORE.INTER.SOLV>
20.0545

>  <SCORE.INTER.VDW>
-20.2046

>  <SCORE.INTER.norm>
-0.28644

>  <SCORE.INTRA>
-2.75711

>  <SCORE.INTRA.DIHEDRAL>
-5.6609

>  <SCORE.INTRA.DIHEDRAL.0>
11.2357

>  <SCORE.INTRA.POLAR>
0

>  <SCORE.INTRA.POLAR.0>
0

>  <SCORE.INTRA.REPUL>
0

>  <SCORE.INTRA.REPUL.0>
0

>  <SCORE.INTRA.SOLV>
-1.94196

>  <SCORE.INTRA.SOLV.lig_0>
-83.3092

>  <SCORE.INTRA.VDW>
1.04432

>  <SCORE.INTRA.VDW.0>
-4.47057

>  <SCORE.INTRA.norm>
-0.088939

>  <SCORE.RESTR>
0.116169

>  <SCORE.RESTR.CAVITY>
0.116169

>  <SCORE.RESTR.norm>
0.0037474

>  <SCORE.SYSTEM>
0

>  <SCORE.SYSTEM.CONST>
0

>  <SCORE.SYSTEM.DIHEDRAL>
0

>  <SCORE.SYSTEM.SOLV>
0

>  <SCORE.SYSTEM.norm>
0

>  <SCORE.heavy>
31

>  <SCORE.norm>
-0.371631

>  <RMSD>
0.832

$$$$
ligand
 OpenBabel11021811433D
libRbt.so/2013.1/901 2013/11/27
 31 33  0  0  0  0  0  0  0  0999 V2000
   40.7903   24.5959    5.9258 C   0  0  0  0  0  0  0  0  0  0  0  0
   38.5567   24.6379   -2.8285 N   0  0  0  0  0  0  0  0  0  0  0  0
   40.6136   23.2423    5.4831 O   0  0  0  0  0  0  0  0  0  0  0  0
   39.9217   25.4200    4.9790 C   0  0  1  0  0  0  0  0  0  0  0  0
   42.4046   21.5072   -1.7699 N   0  0  0  0  0  0  0  0  0  0  0  0
   40.2730   25.2822    3.5087 O   0  0  0  0  0  0  0  0  0  0  0  0
   39.3642   24.5374    2.7936 C   0  0  1  0  0  0  0  0  0  0  0  0
   43.3724   17.2722    0.7746 N   0  0  0  0  0  0  0  0  0  0  0  0
   39.8564   23.5186    1.9682 O   0  0  0  0  0  0  0  0  0  0  0  0
   40.4030   23.7660    0.5913 C   0  0  2  0  0  0  0  0  0  0  0  0
   43.9522   23.4348    3.0099 N   0  0  0  0  0  0  0  0  0  0  0  0
   38.4803   25.2680    0.1024 O   0  0  0  0  0  0  0  0  0  0  0  0
   39.2081   24.0705   -0.3600 C   0  0  1  0  0  0  0  0  0  0  0  0
   42.2519   22.2430    0.8964 O   0  0  0  0  0  0  0  0  0  0  0  0
   39.7392   24.3293   -1.8579 C   0  0  1  0  0  0  0  0  0  0  0  0
   41.9264   20.3442    2.2942 O   0  0  0  0  0  0  0  0  0  0  0  0
   40.5175   23.0236   -2.3265 C   0  0  0  0  0  0  0  0  0  0  0  0
   45.3149   18.8554    1.8794 O   0  0  0  0  0  0  0  0  0  0  0  0
   41.6975   22.7462   -1.3051 C   0  0  1  0  0  0  0  0  0  0  0  0
   45.9919   21.3141    3.1643 O   0  0  0  0  0  0  0  0  0  0  0  0
   41.1781   22.4747    0.0708 C   0  0  2  0  0  0  0  0  0  0  0  0
   37.0887   23.9430    3.1918 O   0  0  0  0  0  0  0  0  0  0  0  0
   42.2354   21.8159    2.2828 C   0  0  1  0  0  0  0  0  0  0  0  0
   37.6439   26.2982    4.5359 O   0  0  0  0  0  0  0  0  0  0  0  0
   42.9805   19.4431    1.6653 C   0  0  2  0  0  0  0  0  0  0  0  0
   42.5183   17.9917    1.7238 C   0  0  0  0  0  0  0  0  0  0  0  0
   44.3044   19.6522    2.4361 C   0  0  2  0  0  0  0  0  0  0  0  0
   44.7245   21.1122    2.4018 C   0  0  1  0  0  0  0  0  0  0  0  0
   43.5950   21.9618    3.0134 C   0  0  1  0  0  0  0  0  0  0  0  0
   38.3205   24.0847    3.8016 C   0  0  2  0  0  0  0  0  0  0  0  0
   38.4155   25.1352    4.9543 C   0  0  1  0  0  0  0  0  0  0  0  0
  1  3  1  0  0  0  0
  4  1  1  1  0  0  0
  4  6  1  0  0  0  0
  4 31  1  0  0  0  0
  6  7  1  0  0  0  0
  7  9  1  1  0  0  0
  7 30  1  0  0  0  0
  8 26  1  0  0  0  0
 10  9  1  1  0  0  0
 10 13  1  0  0  0  0
 10 21  1  0  0  0  0
 13 12  1  1  0  0  0
 13 15  1  0  0  0  0
 15  2  1  6  0  0  0
 15 17  1  0  0  0  0
 16 25  1  0  0  0  0
 16 23  1  0  0  0  0
 17 19  1  0  0  0  0
 19  5  1  6  0  0  0
 19 21  1  0  0  0  0
 21 14  1  1  0  0  0
 23 14  1  6  0  0  0
 23 29  1  0  0  0  0
 25 26  1  1  0  0  0
 25 27  1  0  0  0  0
 27 18  1  6  0  0  0
 27 28  1  0  0  0  0
 28 20  1  1  0  0  0
 28 29  1  0  0  0  0
 29 11  1  6  0  0  0
 30 22  1  6  0  0  0
 30 31  1  0  0  0  0
 31 24  1  6  0  0  0
M  END
>  <CHROM.1>
-58.44907865,-81.46104265,-73.65913370,76.63246918,68.30498780,163.85697402
41.20404621,22.69664943,1.87841880,-2.85009714,0.74908404,-1.76320204

>  <Name>
ligand

>  <RI>
0

>  <Rbt.Current_Directory>
/home/itssahil/PROJECTS/Mol_Feturizer/New_Systems/rnas/2ET5

>  <Rbt.Executable>
rbdock ($Id: //depot/dev/client3/rdock/2013.1/src/exe/rbdock.cxx#4 $)

>  <Rbt.Library>
libRbt.so (2013.1, Build901 2013/11/27)

>  <Rbt.Parameter_File>
/export/apps/rDock/src/rDock_2013.1_src/data/scripts/dock_solv.prm

>  <Rbt.Receptor>
prm/pocket_docking_2.prm

>  <SCORE>
-11.5619

>  <SCORE.INTER>
-8.9048

>  <SCORE.INTER.CONST>
1

>  <SCORE.INTER.POLAR>
0

>  <SCORE.INTER.ROT>
6

>  <SCORE.INTER.SOLV>
20.1495

>  <SCORE.INTER.VDW>
-20.253

>  <SCORE.INTER.norm>
-0.287252

>  <SCORE.INTRA>
-2.78006

>  <SCORE.INTRA.DIHEDRAL>
-5.72233

>  <SCORE.INTRA.DIHEDRAL.0>
11.2357

>  <SCORE.INTRA.POLAR>
0

>  <SCORE.INTRA.POLAR.0>
0

>  <SCORE.INTRA.REPUL>
0

>  <SCORE.INTRA.REPUL.0>
0

>  <SCORE.INTRA.SOLV>
-1.9862

>  <SCORE.INTRA.SOLV.lig_0>
-83.3092

>  <SCORE.INTRA.VDW>
1.07421

>  <SCORE.INTRA.VDW.0>
-4.47057

>  <SCORE.INTRA.norm>
-0.0896792

>  <SCORE.RESTR>
0.122965

>  <SCORE.RESTR.CAVITY>
0.122965

>  <SCORE.RESTR.norm>
0.00396662

>  <SCORE.SYSTEM>
0

>  <SCORE.SYSTEM.CONST>
0

>  <SCORE.SYSTEM.DIHEDRAL>
0

>  <SCORE.SYSTEM.SOLV>
0

>  <SCORE.SYSTEM.norm>
0

>  <SCORE.heavy>
31

>  <SCORE.norm>
-0.372964

>  <RMSD>
0.833

$$$$
ligand
 OpenBabel11021811433D
libRbt.so/2013.1/901 2013/11/27
 31 33  0  0  0  0  0  0  0  0999 V2000
   40.7684   25.0884    5.1549 C   0  0  0  0  0  0  0  0  0  0  0  0
   38.6681   24.8247   -3.3309 N   0  0  0  0  0  0  0  0  0  0  0  0
   40.3962   25.4201    6.5007 O   0  0  0  0  0  0  0  0  0  0  0  0
   39.5984   25.5801    4.3067 C   0  0  1  0  0  0  0  0  0  0  0  0
   42.4737   21.6825   -2.1594 N   0  0  0  0  0  0  0  0  0  0  0  0
   39.7661   25.3791    2.8115 O   0  0  0  0  0  0  0  0  0  0  0  0
   38.9832   24.3699    2.3010 C   0  0  1  0  0  0  0  0  0  0  0  0
   42.4302   17.4818    2.2004 N   0  0  0  0  0  0  0  0  0  0  0  0
   39.5961   23.4180    1.4764 O   0  0  0  0  0  0  0  0  0  0  0  0
   40.2476   23.7599    0.1670 C   0  0  2  0  0  0  0  0  0  0  0  0
   43.4112   23.3124    2.9552 N   0  0  0  0  0  0  0  0  0  0  0  0
   38.3439   25.2652   -0.3823 O   0  0  0  0  0  0  0  0  0  0  0  0
   39.1281   24.1092   -0.8578 C   0  0  1  0  0  0  0  0  0  0  0  0
   42.0928   22.2444    0.5263 O   0  0  0  0  0  0  0  0  0  0  0  0
   39.7737   24.4700   -2.2881 C   0  0  1  0  0  0  0  0  0  0  0  0
   41.8469   20.1531    1.6360 O   0  0  0  0  0  0  0  0  0  0  0  0
   40.6106   23.2070   -2.7724 C   0  0  0  0  0  0  0  0  0  0  0  0
   45.4110   19.0884    1.4503 O   0  0  0  0  0  0  0  0  0  0  0  0
   41.7091   22.8801   -1.6773 C   0  0  1  0  0  0  0  0  0  0  0  0
   45.6575   21.4105    3.0939 O   0  0  0  0  0  0  0  0  0  0  0  0
   41.0853   22.5145   -0.3682 C   0  0  2  0  0  0  0  0  0  0  0  0
   37.0073   23.2955    3.0952 O   0  0  0  0  0  0  0  0  0  0  0  0
   41.9812   21.6371    1.8391 C   0  0  1  0  0  0  0  0  0  0  0  0
   37.1345   25.8407    4.1758 O   0  0  0  0  0  0  0  0  0  0  0  0
   43.0592   19.4567    1.0327 C   0  0  2  0  0  0  0  0  0  0  0  0
   42.7664   17.9708    0.8603 C   0  0  0  0  0  0  0  0  0  0  0  0
   44.2615   19.6961    1.9750 C   0  0  2  0  0  0  0  0  0  0  0  0
   44.5092   21.1830    2.1674 C   0  0  1  0  0  0  0  0  0  0  0  0
   43.2303   21.8232    2.7384 C   0  0  1  0  0  0  0  0  0  0  0  0
   38.2363   23.7881    3.4902 C   0  0  2  0  0  0  0  0  0  0  0  0
   38.2233   24.9441    4.5413 C   0  0  1  0  0  0  0  0  0  0  0  0
  1  3  1  0  0  0  0
  4  1  1  1  0  0  0
  4  6  1  0  0  0  0
  4 31  1  0  0  0  0
  6  7  1  0  0  0  0
  7  9  1  1  0  0  0
  7 30  1  0  0  0  0
  8 26  1  0  0  0  0
 10  9  1  1  0  0  0
 10 13  1  0  0  0  0
 10 21  1  0  0  0  0
 13 12  1  1  0  0  0
 13 15  1  0  0  0  0
 15  2  1  6  0  0  0
 15 17  1  0  0  0  0
 16 25  1  0  0  0  0
 16 23  1  0  0  0  0
 17 19  1  0  0  0  0
 19  5  1  6  0  0  0
 19 21  1  0  0  0  0
 21 14  1  1  0  0  0
 23 14  1  6  0  0  0
 23 29  1  0  0  0  0
 25 26  1  1  0  0  0
 25 27  1  0  0  0  0
 27 18  1  6  0  0  0
 27 28  1  0  0  0  0
 28 20  1  1  0  0  0
 28 29  1  0  0  0  0
 29 11  1  6  0  0  0
 30 22  1  6  0  0  0
 30 31  1  0  0  0  0
 31 24  1  6  0  0  0
M  END
>  <CHROM.1>
178.33813105,-61.99022336,-71.56689506,79.09387611,73.32604161,-57.90602356
41.03231720,22.76565968,1.55113945,-2.84247325,0.75768424,-1.72217675

>  <Name>
ligand

>  <RI>
0

>  <Rbt.Current_Directory>
/home/itssahil/PROJECTS/Mol_Feturizer/New_Systems/rnas/2ET5

>  <Rbt.Executable>
rbdock ($Id: //depot/dev/client3/rdock/2013.1/src/exe/rbdock.cxx#4 $)

>  <Rbt.Library>
libRbt.so (2013.1, Build901 2013/11/27)

>  <Rbt.Parameter_File>
/export/apps/rDock/src/rDock_2013.1_src/data/scripts/dock_solv.prm

>  <Rbt.Receptor>
prm/pocket_docking_3.prm

>  <SCORE>
-8.43258

>  <SCORE.INTER>
-5.02256

>  <SCORE.INTER.CONST>
1

>  <SCORE.INTER.POLAR>
0

>  <SCORE.INTER.ROT>
6

>  <SCORE.INTER.SOLV>
24.6521

>  <SCORE.INTER.VDW>
-19.1657

>  <SCORE.INTER.norm>
-0.162018

>  <SCORE.INTRA>
-3.41002

>  <SCORE.INTRA.DIHEDRAL>
-7.93151

>  <SCORE.INTRA.DIHEDRAL.0>
11.2357

>  <SCORE.INTRA.POLAR>
0

>  <SCORE.INTRA.POLAR.0>
0

>  <SCORE.INTRA.REPUL>
0

>  <SCORE.INTRA.REPUL.0>
0

>  <SCORE.INTRA.SOLV>
-1.6946

>  <SCORE.INTRA.SOLV.lig_0>
-83.3092

>  <SCORE.INTRA.VDW>
1.40303

>  <SCORE.INTRA.VDW.0>
-4.47057

>  <SCORE.INTRA.norm>
-0.110001

>  <SCORE.RESTR>
0

>  <SCORE.RESTR.CAVITY>
0

>  <SCORE.RESTR.norm>
0

>  <SCORE.SYSTEM>
0

>  <SCORE.SYSTEM.CONST>
0

>  <SCORE.SYSTEM.DIHEDRAL>
0

>  <SCORE.SYSTEM.SOLV>
0

>  <SCORE.SYSTEM.norm>
0

>  <SCORE.heavy>
31

>  <SCORE.norm>
-0.272019

>  <RMSD>
0.834

$$$$
ligand
 OpenBabel11021811433D
libRbt.so/2013.1/901 2013/11/27
 31 33  0  0  0  0  0  0  0  0999 V2000
   40.3111   25.4190    5.2387 C   0  0  0  0  0  0  0  0  0  0  0  0
   38.4920   24.9760   -3.2781 N   0  0  0  0  0  0  0  0  0  0  0  0
   39.9177   25.7899    6.5681 O   0  0  0  0  0  0  0  0  0  0  0  0
   39.1356   25.8455    4.3633 C   0  0  1  0  0  0  0  0  0  0  0  0
   42.3451   21.9657   -1.9289 N   0  0  0  0  0  0  0  0  0  0  0  0
   39.3359   25.6249    2.8749 O   0  0  0  0  0  0  0  0  0  0  0  0
   38.6045   24.5744    2.3712 C   0  0  1  0  0  0  0  0  0  0  0  0
   42.3817   17.7753    2.2931 N   0  0  0  0  0  0  0  0  0  0  0  0
   39.2702   23.6347    1.5742 O   0  0  0  0  0  0  0  0  0  0  0  0
   39.9626   23.9877    0.2890 C   0  0  2  0  0  0  0  0  0  0  0  0
   42.9407   23.6293    3.2577 N   0  0  0  0  0  0  0  0  0  0  0  0
   38.0359   25.4274   -0.3487 O   0  0  0  0  0  0  0  0  0  0  0  0
   38.8747   24.2935   -0.7826 C   0  0  1  0  0  0  0  0  0  0  0  0
   41.8391   22.5346    0.7346 O   0  0  0  0  0  0  0  0  0  0  0  0
   39.5655   24.6644   -2.1890 C   0  0  1  0  0  0  0  0  0  0  0  0
   41.6944   20.4004    1.7782 O   0  0  0  0  0  0  0  0  0  0  0  0
   40.4608   23.4254   -2.6287 C   0  0  0  0  0  0  0  0  0  0  0  0
   45.3341   19.6109    1.7645 O   0  0  0  0  0  0  0  0  0  0  0  0
   41.5242   23.1418   -1.4879 C   0  0  1  0  0  0  0  0  0  0  0  0
   45.3148   21.8977    3.4746 O   0  0  0  0  0  0  0  0  0  0  0  0
   40.8602   22.7659   -0.2017 C   0  0  2  0  0  0  0  0  0  0  0  0
   36.6628   23.4318    3.1546 O   0  0  0  0  0  0  0  0  0  0  0  0
   41.7042   21.8839    2.0242 C   0  0  1  0  0  0  0  0  0  0  0  0
   36.6654   25.9992    4.1893 O   0  0  0  0  0  0  0  0  0  0  0  0
   42.9868   19.8139    1.2264 C   0  0  2  0  0  0  0  0  0  0  0  0
   42.8177   18.3157    1.0023 C   0  0  0  0  0  0  0  0  0  0  0  0
   44.1152   20.1159    2.2393 C   0  0  2  0  0  0  0  0  0  0  0  0
   44.2383   21.6111    2.4809 C   0  0  1  0  0  0  0  0  0  0  0  0
   42.8857   22.1375    2.9954 C   0  0  1  0  0  0  0  0  0  0  0  0
   37.8634   23.9831    3.5593 C   0  0  2  0  0  0  0  0  0  0  0  0
   37.7848   25.1562    4.5884 C   0  0  1  0  0  0  0  0  0  0  0  0
  1  3  1  0  0  0  0
  4  1  1  1  0  0  0
  4  6  1  0  0  0  0
  4 31  1  0  0  0  0
  6  7  1  0  0  0  0
  7  9  1  1  0  0  0
  7 30  1  0  0  0  0
  8 26  1  0  0  0  0
 10  9  1  1  0  0  0
 10 13  1  0  0  0  0
 10 21  1  0  0  0  0
 13 12  1  1  0  0  0
 13 15  1  0  0  0  0
 15  2  1  6  0  0  0
 15 17  1  0  0  0  0
 16 25  1  0  0  0  0
 16 23  1  0  0  0  0
 17 19  1  0  0  0  0
 19  5  1  6  0  0  0
 19 21  1  0  0  0  0
 21 14  1  1  0  0  0
 23 14  1  6  0  0  0
 23 29  1  0  0  0  0
 25 26  1  1  0  0  0
 25 27  1  0  0  0  0
 27 18  1  6  0  0  0
 27 28  1  0  0  0  0
 28 20  1  1  0  0  0
 28 29  1  0  0  0  0
 29 11  1  6  0  0  0
 30 22  1  6  0  0  0
 30 31  1  0  0  0  0
 31 24  1  6  0  0  0
M  END
>  <CHROM.1>
176.91884835,-60.13486731,-72.12487703,79.82150514,76.11234112,-55.07959108
40.75689881,23.04166642,1.69699230,-2.87403841,0.72531180,-1.71079849

>  <Name>
ligand

>  <RI>
0

>  <Rbt.Current_Directory>
/home/itssahil/PROJECTS/Mol_Feturizer/New_Systems/rnas/2ET5

>  <Rbt.Executable>
rbdock ($Id: //depot/dev/client3/rdock/2013.1/src/exe/rbdock.cxx#4 $)

>  <Rbt.Library>
libRbt.so (2013.1, Build901 2013/11/27)

>  <Rbt.Parameter_File>
/export/apps/rDock/src/rDock_2013.1_src/data/scripts/dock_solv.prm

>  <Rbt.Receptor>
prm/pocket_docking_3.prm

>  <SCORE>
-7.92279

>  <SCORE.INTER>
-4.8427

>  <SCORE.INTER.CONST>
1

>  <SCORE.INTER.POLAR>
0

>  <SCORE.INTER.ROT>
6

>  <SCORE.INTER.SOLV>
23.882

>  <SCORE.INTER.VDW>
-18.7891

>  <SCORE.INTER.norm>
-0.156216

>  <SCORE.INTRA>
-3.08009

>  <SCORE.INTRA.DIHEDRAL>
-7.31387

>  <SCORE.INTRA.DIHEDRAL.0>
11.2357

>  <SCORE.INTRA.POLAR>
0

>  <SCORE.INTRA.POLAR.0>
0

>  <SCORE.INTRA.REPUL>
0

>  <SCORE.INTRA.REPUL.0>
0

>  <SCORE.INTRA.SOLV>
-1.42306

>  <SCORE.INTRA.SOLV.lig_0>
-83.3092

>  <SCORE.INTRA.VDW>
1.28837

>  <SCORE.INTRA.VDW.0>
-4.47057

>  <SCORE.INTRA.norm>
-0.0993578

>  <SCORE.RESTR>
0

>  <SCORE.RESTR.CAVITY>
0

>  <SCORE.RESTR.norm>
0

>  <SCORE.SYSTEM>
0

>  <SCORE.SYSTEM.CONST>
0

>  <SCORE.SYSTEM.DIHEDRAL>
0

>  <SCORE.SYSTEM.SOLV>
0

>  <SCORE.SYSTEM.norm>
0

>  <SCORE.heavy>
31

>  <SCORE.norm>
-0.255574

>  <RMSD>
0.918

$$$$
ligand
 OpenBabel11021811433D
libRbt.so/2013.1/901 2013/11/27
 31 33  0  0  0  0  0  0  0  0999 V2000
   41.1589   24.6919    5.4259 C   0  0  0  0  0  0  0  0  0  0  0  0
   38.8483   24.4484   -3.0893 N   0  0  0  0  0  0  0  0  0  0  0  0
   41.0810   23.2751    5.2112 O   0  0  0  0  0  0  0  0  0  0  0  0
   40.0545   25.2695    4.5445 C   0  0  1  0  0  0  0  0  0  0  0  0
   42.6077   21.2076   -2.0443 N   0  0  0  0  0  0  0  0  0  0  0  0
   40.2574   25.0676    3.0538 O   0  0  0  0  0  0  0  0  0  0  0  0
   39.4240   24.1186    2.5088 C   0  0  1  0  0  0  0  0  0  0  0  0
   43.5366   16.8491    0.5976 N   0  0  0  0  0  0  0  0  0  0  0  0
   39.9967   23.1323    1.6960 O   0  0  0  0  0  0  0  0  0  0  0  0
   40.5849   23.4184    0.3440 C   0  0  2  0  0  0  0  0  0  0  0  0
   44.0450   23.0080    2.8144 N   0  0  0  0  0  0  0  0  0  0  0  0
   38.7042   24.9740   -0.1404 O   0  0  0  0  0  0  0  0  0  0  0  0
   39.4220   23.7800   -0.6268 C   0  0  1  0  0  0  0  0  0  0  0  0
   42.3964   21.8498    0.6421 O   0  0  0  0  0  0  0  0  0  0  0  0
   39.9981   24.0823   -2.0997 C   0  0  1  0  0  0  0  0  0  0  0  0
   42.0107   19.9437    2.0144 O   0  0  0  0  0  0  0  0  0  0  0  0
   40.7646   22.7794   -2.5949 C   0  0  0  0  0  0  0  0  0  0  0  0
   45.3952   18.4238    1.6882 O   0  0  0  0  0  0  0  0  0  0  0  0
   41.9112   22.4426   -1.5535 C   0  0  1  0  0  0  0  0  0  0  0  0
   46.0581   20.8655    3.0122 O   0  0  0  0  0  0  0  0  0  0  0  0
   41.3498   22.1318   -0.2026 C   0  0  2  0  0  0  0  0  0  0  0  0
   37.3533   23.1784    3.2282 O   0  0  0  0  0  0  0  0  0  0  0  0
   42.3345   21.4122    2.0239 C   0  0  1  0  0  0  0  0  0  0  0  0
   37.6202   25.7012    4.3357 O   0  0  0  0  0  0  0  0  0  0  0  0
   43.0740   19.0368    1.4098 C   0  0  2  0  0  0  0  0  0  0  0  0
   42.5960   17.5898    1.4431 C   0  0  0  0  0  0  0  0  0  0  0  0
   44.3765   19.2266    2.2211 C   0  0  2  0  0  0  0  0  0  0  0  0
   44.8119   20.6824    2.2110 C   0  0  1  0  0  0  0  0  0  0  0  0
   43.6732   21.5387    2.7955 C   0  0  1  0  0  0  0  0  0  0  0  0
   38.5996   23.5819    3.6676 C   0  0  2  0  0  0  0  0  0  0  0  0
   38.6317   24.7288    4.7283 C   0  0  1  0  0  0  0  0  0  0  0  0
  1  3  1  0  0  0  0
  4  1  1  1  0  0  0
  4  6  1  0  0  0  0
  4 31  1  0  0  0  0
  6  7  1  0  0  0  0
  7  9  1  1  0  0  0
  7 30  1  0  0  0  0
  8 26  1  0  0  0  0
 10  9  1  1  0  0  0
 10 13  1  0  0  0  0
 10 21  1  0  0  0  0
 13 12  1  1  0  0  0
 13 15  1  0  0  0  0
 15  2  1  6  0  0  0
 15 17  1  0  0  0  0
 16 25  1  0  0  0  0
 16 23  1  0  0  0  0
 17 19  1  0  0  0  0
 19  5  1  6  0  0  0
 19 21  1  0  0  0  0
 21 14  1  1  0  0  0
 23 14  1  6  0  0  0
 23 29  1  0  0  0  0
 25 26  1  1  0  0  0
 25 27  1  0  0  0  0
 27 18  1  6  0  0  0
 27 28  1  0  0  0  0
 28 20  1  1  0  0  0
 28 29  1  0  0  0  0
 29 11  1  6  0  0  0
 30 22  1  6  0  0  0
 30 31  1  0  0  0  0
 31 24  1  6  0  0  0
M  END
>  <CHROM.1>
-64.74603845,-68.67431433,-69.45808539,78.47014915,66.25943811,168.25550345
41.36587212,22.34420552,1.62986427,-2.86212582,0.77400401,-1.74719438

>  <Name>
ligand

>  <RI>
0

>  <Rbt.Current_Directory>
/home/itssahil/PROJECTS/Mol_Feturizer/New_Systems/rnas/2ET5

>  <Rbt.Executable>
rbdock ($Id: //depot/dev/client3/rdock/2013.1/src/exe/rbdock.cxx#4 $)

>  <Rbt.Library>
libRbt.so (2013.1, Build901 2013/11/27)

>  <Rbt.Parameter_File>
/export/apps/rDock/src/rDock_2013.1_src/data/scripts/dock_solv.prm

>  <Rbt.Receptor>
prm/pocket_docking_3.prm

>  <SCORE>
-12.3784

>  <SCORE.INTER>
-8.94717

>  <SCORE.INTER.CONST>
1

>  <SCORE.INTER.POLAR>
0

>  <SCORE.INTER.ROT>
6

>  <SCORE.INTER.SOLV>
21.8318

>  <SCORE.INTER.VDW>
-20.842

>  <SCORE.INTER.norm>
-0.288619

>  <SCORE.INTRA>
-3.43901

>  <SCORE.INTRA.DIHEDRAL>
-8.01083

>  <SCORE.INTRA.DIHEDRAL.0>
11.2357

>  <SCORE.INTRA.POLAR>
0

>  <SCORE.INTRA.POLAR.0>
0

>  <SCORE.INTRA.REPUL>
0

>  <SCORE.INTRA.REPUL.0>
0

>  <SCORE.INTRA.SOLV>
-1.74335

>  <SCORE.INTRA.SOLV.lig_0>
-83.3092

>  <SCORE.INTRA.VDW>
1.43808

>  <SCORE.INTRA.VDW.0>
-4.47057

>  <SCORE.INTRA.norm>
-0.110936

>  <SCORE.RESTR>
0.0077367

>  <SCORE.RESTR.CAVITY>
0.0077367

>  <SCORE.RESTR.norm>
0.000249571

>  <SCORE.SYSTEM>
0

>  <SCORE.SYSTEM.CONST>
0

>  <SCORE.SYSTEM.DIHEDRAL>
0

>  <SCORE.SYSTEM.SOLV>
0

>  <SCORE.SYSTEM.norm>
0

>  <SCORE.heavy>
31

>  <SCORE.norm>
-0.399305

>  <RMSD>
0.983

$$$$
ligand
 OpenBabel11021811433D
libRbt.so/2013.1/901 2013/11/27
 31 33  0  0  0  0  0  0  0  0999 V2000
   41.1977   24.6403    5.4333 C   0  0  0  0  0  0  0  0  0  0  0  0
   38.8604   24.4808   -3.0772 N   0  0  0  0  0  0  0  0  0  0  0  0
   41.1671   23.2374    5.1326 O   0  0  0  0  0  0  0  0  0  0  0  0
   40.0921   25.2373    4.5665 C   0  0  1  0  0  0  0  0  0  0  0  0
   42.5966   21.2098   -2.0424 N   0  0  0  0  0  0  0  0  0  0  0  0
   40.2790   25.0447    3.0725 O   0  0  0  0  0  0  0  0  0  0  0  0
   39.4298   24.1096    2.5280 C   0  0  1  0  0  0  0  0  0  0  0  0
   43.4080   16.8245    0.5376 N   0  0  0  0  0  0  0  0  0  0  0  0
   39.9836   23.1230    1.7025 O   0  0  0  0  0  0  0  0  0  0  0  0
   40.5784   23.4154    0.3547 C   0  0  2  0  0  0  0  0  0  0  0  0
   44.0464   22.9524    2.8268 N   0  0  0  0  0  0  0  0  0  0  0  0
   38.7088   24.9858   -0.1250 O   0  0  0  0  0  0  0  0  0  0  0  0
   39.4212   23.7910   -0.6176 C   0  0  1  0  0  0  0  0  0  0  0  0
   42.3793   21.8338    0.6478 O   0  0  0  0  0  0  0  0  0  0  0  0
   40.0045   24.1005   -2.0862 C   0  0  1  0  0  0  0  0  0  0  0  0
   41.9618   19.9267    2.0094 O   0  0  0  0  0  0  0  0  0  0  0  0
   40.7650   22.7967   -2.5881 C   0  0  0  0  0  0  0  0  0  0  0  0
   45.3207   18.3528    1.6753 O   0  0  0  0  0  0  0  0  0  0  0  0
   41.9057   22.4454   -1.5451 C   0  0  1  0  0  0  0  0  0  0  0  0
   46.0237   20.7758    3.0129 O   0  0  0  0  0  0  0  0  0  0  0  0
   41.3376   22.1282   -0.1985 C   0  0  2  0  0  0  0  0  0  0  0  0
   37.3550   23.1878    3.2593 O   0  0  0  0  0  0  0  0  0  0  0  0
   42.3099   21.3896    2.0272 C   0  0  1  0  0  0  0  0  0  0  0  0
   37.6612   25.6986    4.3834 O   0  0  0  0  0  0  0  0  0  0  0  0
   43.0101   19.0057    1.4000 C   0  0  2  0  0  0  0  0  0  0  0  0
   42.5081   17.5667    1.4251 C   0  0  0  0  0  0  0  0  0  0  0  0
   44.3153   19.1693    2.2125 C   0  0  2  0  0  0  0  0  0  0  0  0
   44.7748   20.6178    2.2105 C   0  0  1  0  0  0  0  0  0  0  0  0
   43.6504   21.4896    2.7997 C   0  0  1  0  0  0  0  0  0  0  0  0
   38.6098   23.5735    3.6902 C   0  0  2  0  0  0  0  0  0  0  0  0
   38.6649   24.7116    4.7593 C   0  0  1  0  0  0  0  0  0  0  0  0
  1  3  1  0  0  0  0
  4  1  1  1  0  0  0
  4  6  1  0  0  0  0
  4 31  1  0  0  0  0
  6  7  1  0  0  0  0
  7  9  1  1  0  0  0
  7 30  1  0  0  0  0
  8 26  1  0  0  0  0
 10  9  1  1  0  0  0
 10 13  1  0  0  0  0
 10 21  1  0  0  0  0
 13 12  1  1  0  0  0
 13 15  1  0  0  0  0
 15  2  1  6  0  0  0
 15 17  1  0  0  0  0
 16 25  1  0  0  0  0
 16 23  1  0  0  0  0
 17 19  1  0  0  0  0
 19  5  1  6  0  0  0
 19 21  1  0  0  0  0
 21 14  1  1  0  0  0
 23 14  1  6  0  0  0
 23 29  1  0  0  0  0
 25 26  1  1  0  0  0
 25 27  1  0  0  0  0
 27 18  1  6  0  0  0
 27 28  1  0  0  0  0
 28 20  1  1  0  0  0
 28 29  1  0  0  0  0
 29 11  1  6  0  0  0
 30 22  1  6  0  0  0
 30 31  1  0  0  0  0
 31 24  1  6  0  0  0
M  END
>  <CHROM.1>
-60.58467926,-67.87516198,-70.33164715,77.93671094,66.09902609,166.29205741
41.35492908,22.32414982,1.63355519,-2.85883818,0.78531003,-1.74617710

>  <Name>
ligand

>  <RI>
0

>  <Rbt.Current_Directory>
/home/itssahil/PROJECTS/Mol_Feturizer/New_Systems/rnas/2ET5

>  <Rbt.Executable>
rbdock ($Id: //depot/dev/client3/rdock/2013.1/src/exe/rbdock.cxx#4 $)

>  <Rbt.Library>
libRbt.so (2013.1, Build901 2013/11/27)

>  <Rbt.Parameter_File>
/export/apps/rDock/src/rDock_2013.1_src/data/scripts/dock_solv.prm

>  <Rbt.Receptor>
prm/pocket_docking_3.prm

>  <SCORE>
-12.3283

>  <SCORE.INTER>
-8.7633

>  <SCORE.INTER.CONST>
1

>  <SCORE.INTER.POLAR>
0

>  <SCORE.INTER.ROT>
6

>  <SCORE.INTER.SOLV>
21.909

>  <SCORE.INTER.VDW>
-20.7452

>  <SCORE.INTER.norm>
-0.282687

>  <SCORE.INTRA>
-3.56504

>  <SCORE.INTRA.DIHEDRAL>
-7.99307

>  <SCORE.INTRA.DIHEDRAL.0>
11.2357

>  <SCORE.INTRA.POLAR>
0

>  <SCORE.INTRA.POLAR.0>
0

>  <SCORE.INTRA.REPUL>
0

>  <SCORE.INTRA.REPUL.0>
0

>  <SCORE.INTRA.SOLV>
-1.68575

>  <SCORE.INTRA.SOLV.lig_0>
-83.3092

>  <SCORE.INTRA.VDW>
1.27437

>  <SCORE.INTRA.VDW.0>
-4.47057

>  <SCORE.INTRA.norm>
-0.115001

>  <SCORE.RESTR>
0

>  <SCORE.RESTR.CAVITY>
0

>  <SCORE.RESTR.norm>
0

>  <SCORE.SYSTEM>
0

>  <SCORE.SYSTEM.CONST>
0

>  <SCORE.SYSTEM.DIHEDRAL>
0

>  <SCORE.SYSTEM.SOLV>
0

>  <SCORE.SYSTEM.norm>
0

>  <SCORE.heavy>
31

>  <SCORE.norm>
-0.397689

>  <RMSD>
1.002

$$$$
ligand
 OpenBabel11021811433D
libRbt.so/2013.1/901 2013/11/27
 31 33  0  0  0  0  0  0  0  0999 V2000
   41.1223   24.5328    5.7385 C   0  0  0  0  0  0  0  0  0  0  0  0
   38.8357   24.4626   -2.9096 N   0  0  0  0  0  0  0  0  0  0  0  0
   40.9721   23.1406    5.4243 O   0  0  0  0  0  0  0  0  0  0  0  0
   40.1472   25.2396    4.8005 C   0  0  1  0  0  0  0  0  0  0  0  0
   42.6416   21.2536   -1.9371 N   0  0  0  0  0  0  0  0  0  0  0  0
   40.4572   25.0833    3.3228 O   0  0  0  0  0  0  0  0  0  0  0  0
   39.5971   24.2333    2.6673 C   0  0  1  0  0  0  0  0  0  0  0  0
   43.2366   16.8679    0.8283 N   0  0  0  0  0  0  0  0  0  0  0  0
   40.1526   23.2360    1.8560 O   0  0  0  0  0  0  0  0  0  0  0  0
   40.6930   23.4999    0.4797 C   0  0  2  0  0  0  0  0  0  0  0  0
   44.3887   23.0359    2.7658 N   0  0  0  0  0  0  0  0  0  0  0  0
   38.7906   25.0403    0.0328 O   0  0  0  0  0  0  0  0  0  0  0  0
   39.4961   23.8402   -0.4568 C   0  0  1  0  0  0  0  0  0  0  0  0
   42.5199   21.9430    0.7432 O   0  0  0  0  0  0  0  0  0  0  0  0
   40.0202   24.1180   -1.9537 C   0  0  1  0  0  0  0  0  0  0  0  0
   42.0656   20.1265    2.2126 O   0  0  0  0  0  0  0  0  0  0  0  0
   40.7745   22.8091   -2.4519 C   0  0  0  0  0  0  0  0  0  0  0  0
   45.2880   18.3171    1.7508 O   0  0  0  0  0  0  0  0  0  0  0  0
   41.9574   22.4949   -1.4446 C   0  0  1  0  0  0  0  0  0  0  0  0
   46.2286   20.7405    2.9326 O   0  0  0  0  0  0  0  0  0  0  0  0
   41.4439   22.2064   -0.0699 C   0  0  2  0  0  0  0  0  0  0  0  0
   37.4028   23.4460    3.1719 O   0  0  0  0  0  0  0  0  0  0  0  0
   42.5081   21.5620    2.1430 C   0  0  1  0  0  0  0  0  0  0  0  0
   37.7830   25.8880    4.4185 O   0  0  0  0  0  0  0  0  0  0  0  0
   43.0118   19.1124    1.5842 C   0  0  2  0  0  0  0  0  0  0  0  0
   42.4203   17.7128    1.7046 C   0  0  0  0  0  0  0  0  0  0  0  0
   44.3731   19.2212    2.3093 C   0  0  2  0  0  0  0  0  0  0  0  0
   44.9244   20.6340    2.2141 C   0  0  1  0  0  0  0  0  0  0  0  0
   43.8978   21.6033    2.8289 C   0  0  1  0  0  0  0  0  0  0  0  0
   38.6369   23.7219    3.7288 C   0  0  2  0  0  0  0  0  0  0  0  0
   38.6743   24.8164    4.8432 C   0  0  1  0  0  0  0  0  0  0  0  0
  1  3  1  0  0  0  0
  4  1  1  1  0  0  0
  4  6  1  0  0  0  0
  4 31  1  0  0  0  0
  6  7  1  0  0  0  0
  7  9  1  1  0  0  0
  7 30  1  0  0  0  0
  8 26  1  0  0  0  0
 10  9  1  1  0  0  0
 10 13  1  0  0  0  0
 10 21  1  0  0  0  0
 13 12  1  1  0  0  0
 13 15  1  0  0  0  0
 15  2  1  6  0  0  0
 15 17  1  0  0  0  0
 16 25  1  0  0  0  0
 16 23  1  0  0  0  0
 17 19  1  0  0  0  0
 19  5  1  6  0  0  0
 19 21  1  0  0  0  0
 21 14  1  1  0  0  0
 23 14  1  6  0  0  0
 23 29  1  0  0  0  0
 25 26  1  1  0  0  0
 25 27  1  0  0  0  0
 27 18  1  6  0  0  0
 27 28  1  0  0  0  0
 28 20  1  1  0  0  0
 28 29  1  0  0  0  0
 29 11  1  6  0  0  0
 30 22  1  6  0  0  0
 30 31  1  0  0  0  0
 31 24  1  6  0  0  0
M  END
>  <CHROM.1>
-63.24630312,-78.00533937,-69.07031951,74.34648988,64.58768708,167.82586813
41.42366652,22.39258255,1.75877437,-2.86115726,0.78006659,-1.74207504

>  <Name>
ligand

>  <RI>
0

>  <Rbt.Current_Directory>
/home/itssahil/PROJECTS/Mol_Feturizer/New_Systems/rnas/2ET5

>  <Rbt.Executable>
rbdock ($Id: //depot/dev/client3/rdock/2013.1/src/exe/rbdock.cxx#4 $)

>  <Rbt.Library>
libRbt.so (2013.1, Build901 2013/11/27)

>  <Rbt.Parameter_File>
/export/apps/rDock/src/rDock_2013.1_src/data/scripts/dock_solv.prm

>  <Rbt.Receptor>
prm/pocket_docking_4.prm

>  <SCORE>
-12.4091

>  <SCORE.INTER>
-8.84325

>  <SCORE.INTER.CONST>
1

>  <SCORE.INTER.POLAR>
0

>  <SCORE.INTER.ROT>
6

>  <SCORE.INTER.SOLV>
22.5217

>  <SCORE.INTER.VDW>
-21.0027

>  <SCORE.INTER.norm>
-0.285266

>  <SCORE.INTRA>
-3.56582

>  <SCORE.INTRA.DIHEDRAL>
-7.63153

>  <SCORE.INTRA.DIHEDRAL.0>
11.2357

>  <SCORE.INTRA.POLAR>
0

>  <SCORE.INTRA.POLAR.0>
0

>  <SCORE.INTRA.REPUL>
0

>  <SCORE.INTRA.REPUL.0>
0

>  <SCORE.INTRA.SOLV>
-2.50465

>  <SCORE.INTRA.SOLV.lig_0>
-83.3092

>  <SCORE.INTRA.VDW>
1.50227

>  <SCORE.INTRA.VDW.0>
-4.47057

>  <SCORE.INTRA.norm>
-0.115026

>  <SCORE.RESTR>
0

>  <SCORE.RESTR.CAVITY>
0

>  <SCORE.RESTR.norm>
0

>  <SCORE.SYSTEM>
0

>  <SCORE.SYSTEM.CONST>
0

>  <SCORE.SYSTEM.DIHEDRAL>
0

>  <SCORE.SYSTEM.SOLV>
0

>  <SCORE.SYSTEM.norm>
0

>  <SCORE.heavy>
31

>  <SCORE.norm>
-0.400292

>  <RMSD>
1.036

$$$$
ligand
 OpenBabel11021811433D
libRbt.so/2013.1/901 2013/11/27
 31 33  0  0  0  0  0  0  0  0999 V2000
   41.5668   24.4554    5.6867 C   0  0  0  0  0  0  0  0  0  0  0  0
   38.7665   24.7034   -2.7591 N   0  0  0  0  0  0  0  0  0  0  0  0
   42.7921   25.0944    5.2993 O   0  0  0  0  0  0  0  0  0  0  0  0
   40.4886   25.1965    4.9003 C   0  0  1  0  0  0  0  0  0  0  0  0
   42.4790   21.3482   -1.9300 N   0  0  0  0  0  0  0  0  0  0  0  0
   40.5945   25.0634    3.3920 O   0  0  0  0  0  0  0  0  0  0  0  0
   39.6379   24.2407    2.8439 C   0  0  1  0  0  0  0  0  0  0  0  0
   43.3852   16.9131    0.5857 N   0  0  0  0  0  0  0  0  0  0  0  0
   40.0601   23.2499    1.9487 O   0  0  0  0  0  0  0  0  0  0  0  0
   40.6042   23.5525    0.5819 C   0  0  2  0  0  0  0  0  0  0  0  0
   44.1425   23.0126    2.9034 N   0  0  0  0  0  0  0  0  0  0  0  0
   38.7467   25.1645    0.2040 O   0  0  0  0  0  0  0  0  0  0  0  0
   39.4151   23.9648   -0.3356 C   0  0  1  0  0  0  0  0  0  0  0  0
   42.3852   21.9335    0.7760 O   0  0  0  0  0  0  0  0  0  0  0  0
   39.9430   24.2865   -1.8224 C   0  0  1  0  0  0  0  0  0  0  0  0
   42.0045   20.0129    2.1294 O   0  0  0  0  0  0  0  0  0  0  0  0
   40.6570   22.9770   -2.3751 C   0  0  0  0  0  0  0  0  0  0  0  0
   45.3357   18.4182    1.6488 O   0  0  0  0  0  0  0  0  0  0  0  0
   41.8330   22.5883   -1.3859 C   0  0  1  0  0  0  0  0  0  0  0  0
   46.1081   20.8192    2.9879 O   0  0  0  0  0  0  0  0  0  0  0  0
   41.3151   22.2604   -0.0217 C   0  0  2  0  0  0  0  0  0  0  0  0
   37.5163   23.4812    3.6258 O   0  0  0  0  0  0  0  0  0  0  0  0
   42.3646   21.4728    2.1515 C   0  0  1  0  0  0  0  0  0  0  0  0
   38.1075   25.8920    4.8507 O   0  0  0  0  0  0  0  0  0  0  0  0
   43.0216   19.0917    1.4694 C   0  0  2  0  0  0  0  0  0  0  0  0
   42.5095   17.6562    1.4963 C   0  0  0  0  0  0  0  0  0  0  0  0
   44.3579   19.2355    2.2337 C   0  0  2  0  0  0  0  0  0  0  0  0
   44.8284   20.6805    2.2317 C   0  0  1  0  0  0  0  0  0  0  0  0
   43.7341   21.5533    2.8737 C   0  0  1  0  0  0  0  0  0  0  0  0
   38.8190   23.7254    4.0163 C   0  0  2  0  0  0  0  0  0  0  0  0
   39.0268   24.7975    5.1337 C   0  0  1  0  0  0  0  0  0  0  0  0
  1  3  1  0  0  0  0
  4  1  1  1  0  0  0
  4  6  1  0  0  0  0
  4 31  1  0  0  0  0
  6  7  1  0  0  0  0
  7  9  1  1  0  0  0
  7 30  1  0  0  0  0
  8 26  1  0  0  0  0
 10  9  1  1  0  0  0
 10 13  1  0  0  0  0
 10 21  1  0  0  0  0
 13 12  1  1  0  0  0
 13 15  1  0  0  0  0
 15  2  1  6  0  0  0
 15 17  1  0  0  0  0
 16 25  1  0  0  0  0
 16 23  1  0  0  0  0
 17 19  1  0  0  0  0
 19  5  1  6  0  0  0
 19 21  1  0  0  0  0
 21 14  1  1  0  0  0
 23 14  1  6  0  0  0
 23 29  1  0  0  0  0
 25 26  1  1  0  0  0
 25 27  1  0  0  0  0
 27 18  1  6  0  0  0
 27 28  1  0  0  0  0
 28 20  1  1  0  0  0
 28 29  1  0  0  0  0
 29 11  1  6  0  0  0
 30 22  1  6  0  0  0
 30 31  1  0  0  0  0
 31 24  1  6  0  0  0
M  END
>  <CHROM.1>
63.46369989,-68.86004082,-74.48192384,78.73599512,65.89435301,167.33349861
41.49899990,22.49393438,1.82622503,-2.69724650,0.78323585,-1.89292409

>  <Name>
ligand

>  <RI>
0

>  <Rbt.Current_Directory>
/home/itssahil/PROJECTS/Mol_Feturizer/New_Systems/rnas/2ET5

>  <Rbt.Executable>
rbdock ($Id: //depot/dev/client3/rdock/2013.1/src/exe/rbdock.cxx#4 $)

>  <Rbt.Library>
libRbt.so (2013.1, Build901 2013/11/27)

>  <Rbt.Parameter_File>
/export/apps/rDock/src/rDock_2013.1_src/data/scripts/dock_solv.prm

>  <Rbt.Receptor>
prm/pocket_docking_3.prm

>  <SCORE>
-12.6539

>  <SCORE.INTER>
-9.24817

>  <SCORE.INTER.CONST>
1

>  <SCORE.INTER.POLAR>
0

>  <SCORE.INTER.ROT>
6

>  <SCORE.INTER.SOLV>
19.7698

>  <SCORE.INTER.VDW>
-20.3554

>  <SCORE.INTER.norm>
-0.298328

>  <SCORE.INTRA>
-3.4138

>  <SCORE.INTRA.DIHEDRAL>
-7.38233

>  <SCORE.INTRA.DIHEDRAL.0>
11.2357

>  <SCORE.INTRA.POLAR>
0

>  <SCORE.INTRA.POLAR.0>
0

>  <SCORE.INTRA.REPUL>
0

>  <SCORE.INTRA.REPUL.0>
0

>  <SCORE.INTRA.SOLV>
-2.0206

>  <SCORE.INTRA.SOLV.lig_0>
-83.3092

>  <SCORE.INTRA.VDW>
1.28766

>  <SCORE.INTRA.VDW.0>
-4.47057

>  <SCORE.INTRA.norm>
-0.110123

>  <SCORE.RESTR>
0.00808161

>  <SCORE.RESTR.CAVITY>
0.00808161

>  <SCORE.RESTR.norm>
0.000260697

>  <SCORE.SYSTEM>
0

>  <SCORE.SYSTEM.CONST>
0

>  <SCORE.SYSTEM.DIHEDRAL>
0

>  <SCORE.SYSTEM.SOLV>
0

>  <SCORE.SYSTEM.norm>
0

>  <SCORE.heavy>
31

>  <SCORE.norm>
-0.40819

>  <RMSD>
1.062

$$$$
ligand
 OpenBabel11021811433D
libRbt.so/2013.1/901 2013/11/27
 31 33  0  0  0  0  0  0  0  0999 V2000
   41.6717   24.4259    5.3870 C   0  0  0  0  0  0  0  0  0  0  0  0
   38.8882   24.5837   -2.9616 N   0  0  0  0  0  0  0  0  0  0  0  0
   41.5022   24.8326    6.7528 O   0  0  0  0  0  0  0  0  0  0  0  0
   40.5012   25.0732    4.6514 C   0  0  1  0  0  0  0  0  0  0  0  0
   42.5948   21.2324   -2.0907 N   0  0  0  0  0  0  0  0  0  0  0  0
   40.5354   24.9226    3.1414 O   0  0  0  0  0  0  0  0  0  0  0  0
   39.6138   24.0234    2.6573 C   0  0  1  0  0  0  0  0  0  0  0  0
   43.5240   16.7623    0.5499 N   0  0  0  0  0  0  0  0  0  0  0  0
   40.0591   23.0508    1.7532 O   0  0  0  0  0  0  0  0  0  0  0  0
   40.6390   23.3811    0.4077 C   0  0  2  0  0  0  0  0  0  0  0  0
   44.0961   22.9117    2.7829 N   0  0  0  0  0  0  0  0  0  0  0  0
   38.7839   24.9904    0.0077 O   0  0  0  0  0  0  0  0  0  0  0  0
   39.4736   23.8041   -0.5348 C   0  0  1  0  0  0  0  0  0  0  0  0
   42.4229   21.7677    0.6218 O   0  0  0  0  0  0  0  0  0  0  0  0
   40.0407   24.1556   -2.0003 C   0  0  1  0  0  0  0  0  0  0  0  0
   42.0362   19.8617    1.9940 O   0  0  0  0  0  0  0  0  0  0  0  0
   40.7769   22.8600   -2.5566 C   0  0  0  0  0  0  0  0  0  0  0  0
   45.4083   18.3211    1.6381 O   0  0  0  0  0  0  0  0  0  0  0  0
   41.9272   22.4592   -1.5423 C   0  0  1  0  0  0  0  0  0  0  0  0
   46.0972   20.7563    2.9609 O   0  0  0  0  0  0  0  0  0  0  0  0
   41.3736   22.1039   -0.1992 C   0  0  2  0  0  0  0  0  0  0  0  0
   37.5989   23.1249    3.5641 O   0  0  0  0  0  0  0  0  0  0  0  0
   42.3694   21.3281    2.0034 C   0  0  1  0  0  0  0  0  0  0  0  0
   38.0762   25.5928    4.7234 O   0  0  0  0  0  0  0  0  0  0  0  0
   43.0890   18.9492    1.3793 C   0  0  2  0  0  0  0  0  0  0  0  0
   42.6021   17.5052    1.4139 C   0  0  0  0  0  0  0  0  0  0  0  0
   44.3990   19.1294    2.1805 C   0  0  2  0  0  0  0  0  0  0  0  0
   44.8435   20.5825    2.1694 C   0  0  1  0  0  0  0  0  0  0  0  0
   43.7150   21.4449    2.7645 C   0  0  1  0  0  0  0  0  0  0  0  0
   38.8993   23.4698    3.8794 C   0  0  2  0  0  0  0  0  0  0  0  0
   39.0874   24.5730    4.9697 C   0  0  1  0  0  0  0  0  0  0  0  0
  1  3  1  0  0  0  0
  4  1  1  1  0  0  0
  4  6  1  0  0  0  0
  4 31  1  0  0  0  0
  6  7  1  0  0  0  0
  7  9  1  1  0  0  0
  7 30  1  0  0  0  0
  8 26  1  0  0  0  0
 10  9  1  1  0  0  0
 10 13  1  0  0  0  0
 10 21  1  0  0  0  0
 13 12  1  1  0  0  0
 13 15  1  0  0  0  0
 15  2  1  6  0  0  0
 15 17  1  0  0  0  0
 16 25  1  0  0  0  0
 16 23  1  0  0  0  0
 17 19  1  0  0  0  0
 19  5  1  6  0  0  0
 19 21  1  0  0  0  0
 21 14  1  1  0  0  0
 23 14  1  6  0  0  0
 23 29  1  0  0  0  0
 25 26  1  1  0  0  0
 25 27  1  0  0  0  0
 27 18  1  6  0  0  0
 27 28  1  0  0  0  0
 28 20  1  1  0  0  0
 28 29  1  0  0  0  0
 29 11  1  6  0  0  0
 30 22  1  6  0  0  0
 30 31  1  0  0  0  0
 31 24  1  6  0  0  0
M  END
>  <CHROM.1>
173.43839829,-62.26563555,-74.86087989,81.02775994,63.44700644,167.75524232
41.49574839,22.33550841,1.74083051,-2.70618284,0.79612043,-1.81626853

>  <Name>
ligand

>  <RI>
0

>  <Rbt.Current_Directory>
/home/itssahil/PROJECTS/Mol_Feturizer/New_Systems/rnas/2ET5

>  <Rbt.Executable>
rbdock ($Id: //depot/dev/client3/rdock/2013.1/src/exe/rbdock.cxx#4 $)

>  <Rbt.Library>
libRbt.so (2013.1, Build901 2013/11/27)

>  <Rbt.Parameter_File>
/export/apps/rDock/src/rDock_2013.1_src/data/scripts/dock_solv.prm

>  <Rbt.Receptor>
prm/pocket_docking_3.prm

>  <SCORE>
-12.921

>  <SCORE.INTER>
-9.47225

>  <SCORE.INTER.CONST>
1

>  <SCORE.INTER.POLAR>
0

>  <SCORE.INTER.ROT>
6

>  <SCORE.INTER.SOLV>
21.2342

>  <SCORE.INTER.VDW>
-20.9929

>  <SCORE.INTER.norm>
-0.305557

>  <SCORE.INTRA>
-3.44878

>  <SCORE.INTRA.DIHEDRAL>
-7.3478

>  <SCORE.INTRA.DIHEDRAL.0>
11.2357

>  <SCORE.INTRA.POLAR>
0

>  <SCORE.INTRA.POLAR.0>
0

>  <SCORE.INTRA.REPUL>
0

>  <SCORE.INTRA.REPUL.0>
0

>  <SCORE.INTRA.SOLV>
-2.5461

>  <SCORE.INTRA.SOLV.lig_0>
-83.3092

>  <SCORE.INTRA.VDW>
1.49817

>  <SCORE.INTRA.VDW.0>
-4.47057

>  <SCORE.INTRA.norm>
-0.111251

>  <SCORE.RESTR>
0

>  <SCORE.RESTR.CAVITY>
0

>  <SCORE.RESTR.norm>
0

>  <SCORE.SYSTEM>
0

>  <SCORE.SYSTEM.CONST>
0

>  <SCORE.SYSTEM.DIHEDRAL>
0

>  <SCORE.SYSTEM.SOLV>
0

>  <SCORE.SYSTEM.norm>
0

>  <SCORE.heavy>
31

>  <SCORE.norm>
-0.416807

>  <RMSD>
1.109

$$$$
ligand
 OpenBabel11021811433D
libRbt.so/2013.1/901 2013/11/27
 31 33  0  0  0  0  0  0  0  0999 V2000
   41.7735   24.5597    5.3941 C   0  0  0  0  0  0  0  0  0  0  0  0
   38.9075   24.6573   -2.9135 N   0  0  0  0  0  0  0  0  0  0  0  0
   41.6574   25.0287    6.7455 O   0  0  0  0  0  0  0  0  0  0  0  0
   40.5978   25.2067    4.6667 C   0  0  1  0  0  0  0  0  0  0  0  0
   42.5593   21.2456   -2.0457 N   0  0  0  0  0  0  0  0  0  0  0  0
   40.6083   25.0345    3.1586 O   0  0  0  0  0  0  0  0  0  0  0  0
   39.6720   24.1367    2.7010 C   0  0  1  0  0  0  0  0  0  0  0  0
   43.4692   16.7873    0.5683 N   0  0  0  0  0  0  0  0  0  0  0  0
   40.0955   23.1476    1.8045 O   0  0  0  0  0  0  0  0  0  0  0  0
   40.6684   23.4541    0.4503 C   0  0  2  0  0  0  0  0  0  0  0  0
   44.1263   22.9186    2.8195 N   0  0  0  0  0  0  0  0  0  0  0  0
   38.8397   25.0941    0.0526 O   0  0  0  0  0  0  0  0  0  0  0  0
   39.5019   23.8899   -0.4851 C   0  0  1  0  0  0  0  0  0  0  0  0
   42.4238   21.8097    0.6630 O   0  0  0  0  0  0  0  0  0  0  0  0
   40.0611   24.2168   -1.9592 C   0  0  1  0  0  0  0  0  0  0  0  0
   42.0213   19.9007    2.0264 O   0  0  0  0  0  0  0  0  0  0  0  0
   40.7676   22.9024   -2.5100 C   0  0  0  0  0  0  0  0  0  0  0  0
   45.3704   18.3182    1.6387 O   0  0  0  0  0  0  0  0  0  0  0  0
   41.9201   22.4898   -1.5029 C   0  0  1  0  0  0  0  0  0  0  0  0
   46.1000   20.7361    2.9712 O   0  0  0  0  0  0  0  0  0  0  0  0
   41.3730   22.1576   -0.1512 C   0  0  2  0  0  0  0  0  0  0  0  0
   37.6632   23.2687    3.6502 O   0  0  0  0  0  0  0  0  0  0  0  0
   42.3737   21.3625    2.0422 C   0  0  1  0  0  0  0  0  0  0  0  0
   38.1787   25.7484    4.7669 O   0  0  0  0  0  0  0  0  0  0  0  0
   43.0578   18.9782    1.3993 C   0  0  2  0  0  0  0  0  0  0  0  0
   42.5522   17.5405    1.4286 C   0  0  0  0  0  0  0  0  0  0  0  0
   44.3754   19.1363    2.1927 C   0  0  2  0  0  0  0  0  0  0  0  0
   44.8389   20.5835    2.1871 C   0  0  1  0  0  0  0  0  0  0  0  0
   43.7258   21.4570    2.7950 C   0  0  1  0  0  0  0  0  0  0  0  0
   38.9710   23.6066    3.9413 C   0  0  2  0  0  0  0  0  0  0  0  0
   39.1847   24.7235    5.0129 C   0  0  1  0  0  0  0  0  0  0  0  0
  1  3  1  0  0  0  0
  4  1  1  1  0  0  0
  4  6  1  0  0  0  0
  4 31  1  0  0  0  0
  6  7  1  0  0  0  0
  7  9  1  1  0  0  0
  7 30  1  0  0  0  0
  8 26  1  0  0  0  0
 10  9  1  1  0  0  0
 10 13  1  0  0  0  0
 10 21  1  0  0  0  0
 13 12  1  1  0  0  0
 13 15  1  0  0  0  0
 15  2  1  6  0  0  0
 15 17  1  0  0  0  0
 16 25  1  0  0  0  0
 16 23  1  0  0  0  0
 17 19  1  0  0  0  0
 19  5  1  6  0  0  0
 19 21  1  0  0  0  0
 21 14  1  1  0  0  0
 23 14  1  6  0  0  0
 23 29  1  0  0  0  0
 25 26  1  1  0  0  0
 25 27  1  0  0  0  0
 27 18  1  6  0  0  0
 27 28  1  0  0  0  0
 28 20  1  1  0  0  0
 28 29  1  0  0  0  0
 29 11  1  6  0  0  0
 30 22  1  6  0  0  0
 30 31  1  0  0  0  0
 31 24  1  6  0  0  0
M  END
>  <CHROM.1>
171.28827052,-61.76058223,-74.58005256,80.64487398,64.59575030,168.49236132
41.52206217,22.40473961,1.77425410,-2.67264907,0.81038108,-1.84772761

>  <Name>
ligand

>  <RI>
0

>  <Rbt.Current_Directory>
/home/itssahil/PROJECTS/Mol_Feturizer/New_Systems/rnas/2ET5

>  <Rbt.Executable>
rbdock ($Id: //depot/dev/client3/rdock/2013.1/src/exe/rbdock.cxx#4 $)

>  <Rbt.Library>
libRbt.so (2013.1, Build901 2013/11/27)

>  <Rbt.Parameter_File>
/export/apps/rDock/src/rDock_2013.1_src/data/scripts/dock_solv.prm

>  <Rbt.Receptor>
prm/pocket_docking_3.prm

>  <SCORE>
-12.9284

>  <SCORE.INTER>
-9.48468

>  <SCORE.INTER.CONST>
1

>  <SCORE.INTER.POLAR>
0

>  <SCORE.INTER.ROT>
6

>  <SCORE.INTER.SOLV>
20.4718

>  <SCORE.INTER.VDW>
-20.7471

>  <SCORE.INTER.norm>
-0.305957

>  <SCORE.INTRA>
-3.44373

>  <SCORE.INTRA.DIHEDRAL>
-7.35691

>  <SCORE.INTRA.DIHEDRAL.0>
11.2357

>  <SCORE.INTRA.POLAR>
0

>  <SCORE.INTRA.POLAR.0>
0

>  <SCORE.INTRA.REPUL>
0

>  <SCORE.INTRA.REPUL.0>
0

>  <SCORE.INTRA.SOLV>
-2.52646

>  <SCORE.INTRA.SOLV.lig_0>
-83.3092

>  <SCORE.INTRA.VDW>
1.49795

>  <SCORE.INTRA.VDW.0>
-4.47057

>  <SCORE.INTRA.norm>
-0.111088

>  <SCORE.RESTR>
0

>  <SCORE.RESTR.CAVITY>
0

>  <SCORE.RESTR.norm>
0

>  <SCORE.SYSTEM>
0

>  <SCORE.SYSTEM.CONST>
0

>  <SCORE.SYSTEM.DIHEDRAL>
0

>  <SCORE.SYSTEM.SOLV>
0

>  <SCORE.SYSTEM.norm>
0

>  <SCORE.heavy>
31

>  <SCORE.norm>
-0.417046

>  <RMSD>
1.121

$$$$
ligand
 OpenBabel11021811433D
libRbt.so/2013.1/901 2013/11/27
 31 33  0  0  0  0  0  0  0  0999 V2000
   41.8084   24.5528    5.3292 C   0  0  0  0  0  0  0  0  0  0  0  0
   38.9187   24.6151   -2.9539 N   0  0  0  0  0  0  0  0  0  0  0  0
   41.6549   24.9484    6.7002 O   0  0  0  0  0  0  0  0  0  0  0  0
   40.6137   25.1824    4.6177 C   0  0  1  0  0  0  0  0  0  0  0  0
   42.5912   21.2291   -2.0733 N   0  0  0  0  0  0  0  0  0  0  0  0
   40.6043   25.0065    3.1100 O   0  0  0  0  0  0  0  0  0  0  0  0
   39.6735   24.0952    2.6683 C   0  0  1  0  0  0  0  0  0  0  0  0
   43.4974   16.7675    0.6113 N   0  0  0  0  0  0  0  0  0  0  0  0
   40.0969   23.1096    1.7678 O   0  0  0  0  0  0  0  0  0  0  0  0
   40.6735   23.4215    0.4165 C   0  0  2  0  0  0  0  0  0  0  0  0
   44.1370   22.9295    2.7799 N   0  0  0  0  0  0  0  0  0  0  0  0
   38.8348   25.0486    0.0123 O   0  0  0  0  0  0  0  0  0  0  0  0
   39.5080   23.8498   -0.5236 C   0  0  1  0  0  0  0  0  0  0  0  0
   42.4399   21.7897    0.6353 O   0  0  0  0  0  0  0  0  0  0  0  0
   40.0713   24.1821   -1.9950 C   0  0  1  0  0  0  0  0  0  0  0  0
   42.0387   19.8977    2.0227 O   0  0  0  0  0  0  0  0  0  0  0  0
   40.7897   22.8733   -2.5439 C   0  0  0  0  0  0  0  0  0  0  0  0
   45.3912   18.3165    1.6606 O   0  0  0  0  0  0  0  0  0  0  0  0
   41.9406   22.4681   -1.5321 C   0  0  1  0  0  0  0  0  0  0  0  0
   46.1144   20.7528    2.9628 O   0  0  0  0  0  0  0  0  0  0  0  0
   41.3901   22.1308   -0.1831 C   0  0  2  0  0  0  0  0  0  0  0  0
   37.6906   23.2029    3.6488 O   0  0  0  0  0  0  0  0  0  0  0  0
   42.3884   21.3603    2.0202 C   0  0  1  0  0  0  0  0  0  0  0  0
   38.1892   25.6921    4.7522 O   0  0  0  0  0  0  0  0  0  0  0  0
   43.0778   18.9691    1.4092 C   0  0  2  0  0  0  0  0  0  0  0  0
   42.5748   17.5309    1.4563 C   0  0  0  0  0  0  0  0  0  0  0  0
   44.3939   19.1399    2.2025 C   0  0  2  0  0  0  0  0  0  0  0  0
   44.8547   20.5877    2.1789 C   0  0  1  0  0  0  0  0  0  0  0  0
   43.7391   21.4670    2.7737 C   0  0  1  0  0  0  0  0  0  0  0  0
   38.9978   23.5589    3.9199 C   0  0  2  0  0  0  0  0  0  0  0  0
   39.2123   24.6812    4.9857 C   0  0  1  0  0  0  0  0  0  0  0  0
  1  3  1  0  0  0  0
  4  1  1  1  0  0  0
  4  6  1  0  0  0  0
  4 31  1  0  0  0  0
  6  7  1  0  0  0  0
  7  9  1  1  0  0  0
  7 30  1  0  0  0  0
  8 26  1  0  0  0  0
 10  9  1  1  0  0  0
 10 13  1  0  0  0  0
 10 21  1  0  0  0  0
 13 12  1  1  0  0  0
 13 15  1  0  0  0  0
 15  2  1  6  0  0  0
 15 17  1  0  0  0  0
 16 25  1  0  0  0  0
 16 23  1  0  0  0  0
 17 19  1  0  0  0  0
 19  5  1  6  0  0  0
 19 21  1  0  0  0  0
 21 14  1  1  0  0  0
 23 14  1  6  0  0  0
 23 29  1  0  0  0  0
 25 26  1  1  0  0  0
 25 27  1  0  0  0  0
 27 18  1  6  0  0  0
 27 28  1  0  0  0  0
 28 20  1  1  0  0  0
 28 29  1  0  0  0  0
 29 11  1  6  0  0  0
 30 22  1  6  0  0  0
 30 31  1  0  0  0  0
 31 24  1  6  0  0  0
M  END
>  <CHROM.1>
175.11493713,-60.38598020,-75.17079620,80.95939736,63.57024863,168.69896727
41.53702254,22.38041261,1.75269403,-2.68825652,0.80825174,-1.84159658

>  <Name>
ligand

>  <RI>
0

>  <Rbt.Current_Directory>
/home/itssahil/PROJECTS/Mol_Feturizer/New_Systems/rnas/2ET5

>  <Rbt.Executable>
rbdock ($Id: //depot/dev/client3/rdock/2013.1/src/exe/rbdock.cxx#4 $)

>  <Rbt.Library>
libRbt.so (2013.1, Build901 2013/11/27)

>  <Rbt.Parameter_File>
/export/apps/rDock/src/rDock_2013.1_src/data/scripts/dock_solv.prm

>  <Rbt.Receptor>
prm/pocket_docking_3.prm

>  <SCORE>
-12.9836

>  <SCORE.INTER>
-9.54131

>  <SCORE.INTER.CONST>
1

>  <SCORE.INTER.POLAR>
0

>  <SCORE.INTER.ROT>
6

>  <SCORE.INTER.SOLV>
20.8278

>  <SCORE.INTER.VDW>
-20.9035

>  <SCORE.INTER.norm>
-0.307784

>  <SCORE.INTRA>
-3.4567

>  <SCORE.INTRA.DIHEDRAL>
-7.4808

>  <SCORE.INTRA.DIHEDRAL.0>
11.2357

>  <SCORE.INTRA.POLAR>
0

>  <SCORE.INTRA.POLAR.0>
0

>  <SCORE.INTRA.REPUL>
0

>  <SCORE.INTRA.REPUL.0>
0

>  <SCORE.INTRA.SOLV>
-2.47869

>  <SCORE.INTRA.SOLV.lig_0>
-83.3092

>  <SCORE.INTRA.VDW>
1.52305

>  <SCORE.INTRA.VDW.0>
-4.47057

>  <SCORE.INTRA.norm>
-0.111506

>  <SCORE.RESTR>
0.0143865

>  <SCORE.RESTR.CAVITY>
0.0143865

>  <SCORE.RESTR.norm>
0.00046408

>  <SCORE.SYSTEM>
0

>  <SCORE.SYSTEM.CONST>
0

>  <SCORE.SYSTEM.DIHEDRAL>
0

>  <SCORE.SYSTEM.SOLV>
0

>  <SCORE.SYSTEM.norm>
0

>  <SCORE.heavy>
31

>  <SCORE.norm>
-0.418827

>  <RMSD>
1.124

$$$$
ligand
 OpenBabel11021811433D
libRbt.so/2013.1/901 2013/11/27
 31 33  0  0  0  0  0  0  0  0999 V2000
   39.5490   25.8360    5.2672 C   0  0  0  0  0  0  0  0  0  0  0  0
   38.3630   25.1013   -3.2075 N   0  0  0  0  0  0  0  0  0  0  0  0
   40.5142   26.8287    4.8898 O   0  0  0  0  0  0  0  0  0  0  0  0
   38.3858   26.0535    4.3030 C   0  0  1  0  0  0  0  0  0  0  0  0
   42.2429   22.1864   -1.7319 N   0  0  0  0  0  0  0  0  0  0  0  0
   38.7085   25.7866    2.8440 O   0  0  0  0  0  0  0  0  0  0  0  0
   38.1568   24.6221    2.3627 C   0  0  1  0  0  0  0  0  0  0  0  0
   42.2377   17.8944    2.2708 N   0  0  0  0  0  0  0  0  0  0  0  0
   38.9909   23.7423    1.6616 O   0  0  0  0  0  0  0  0  0  0  0  0
   39.7222   24.1245    0.4067 C   0  0  2  0  0  0  0  0  0  0  0  0
   42.6521   23.7095    3.5087 N   0  0  0  0  0  0  0  0  0  0  0  0
   37.7824   25.5162   -0.2948 O   0  0  0  0  0  0  0  0  0  0  0  0
   38.6682   24.4092   -0.7040 C   0  0  1  0  0  0  0  0  0  0  0  0
   41.6195   22.7196    0.9141 O   0  0  0  0  0  0  0  0  0  0  0  0
   39.4020   24.8103   -2.0800 C   0  0  1  0  0  0  0  0  0  0  0  0
   41.4843   20.5370    1.8537 O   0  0  0  0  0  0  0  0  0  0  0  0
   40.3474   23.5997   -2.4936 C   0  0  0  0  0  0  0  0  0  0  0  0
   45.1346   19.7986    1.8815 O   0  0  0  0  0  0  0  0  0  0  0  0
   41.3736   23.3360   -1.3146 C   0  0  1  0  0  0  0  0  0  0  0  0
   45.0462   22.0021    3.6956 O   0  0  0  0  0  0  0  0  0  0  0  0
   40.6713   22.9317   -0.0576 C   0  0  2  0  0  0  0  0  0  0  0  0
   36.3376   23.2675    3.1010 O   0  0  0  0  0  0  0  0  0  0  0  0
   41.4672   22.0073    2.1687 C   0  0  1  0  0  0  0  0  0  0  0  0
   35.9333   25.8607    3.9806 O   0  0  0  0  0  0  0  0  0  0  0  0
   42.7963   19.9947    1.3031 C   0  0  2  0  0  0  0  0  0  0  0  0
   42.6538   18.5065    1.0057 C   0  0  0  0  0  0  0  0  0  0  0  0
   43.8988   20.2641    2.3530 C   0  0  2  0  0  0  0  0  0  0  0  0
   43.9950   21.7479    2.6666 C   0  0  1  0  0  0  0  0  0  0  0  0
   42.6244   22.2311    3.1759 C   0  0  1  0  0  0  0  0  0  0  0  0
   37.4260   23.9968    3.5398 C   0  0  2  0  0  0  0  0  0  0  0  0
   37.1267   25.1992    4.4916 C   0  0  1  0  0  0  0  0  0  0  0  0
  1  3  1  0  0  0  0
  4  1  1  1  0  0  0
  4  6  1  0  0  0  0
  4 31  1  0  0  0  0
  6  7  1  0  0  0  0
  7  9  1  1  0  0  0
  7 30  1  0  0  0  0
  8 26  1  0  0  0  0
 10  9  1  1  0  0  0
 10 13  1  0  0  0  0
 10 21  1  0  0  0  0
 13 12  1  1  0  0  0
 13 15  1  0  0  0  0
 15  2  1  6  0  0  0
 15 17  1  0  0  0  0
 16 25  1  0  0  0  0
 16 23  1  0  0  0  0
 17 19  1  0  0  0  0
 19  5  1  6  0  0  0
 19 21  1  0  0  0  0
 21 14  1  1  0  0  0
 23 14  1  6  0  0  0
 23 29  1  0  0  0  0
 25 26  1  1  0  0  0
 25 27  1  0  0  0  0
 27 18  1  6  0  0  0
 27 28  1  0  0  0  0
 28 20  1  1  0  0  0
 28 29  1  0  0  0  0
 29 11  1  6  0  0  0
 30 22  1  6  0  0  0
 30 31  1  0  0  0  0
 31 24  1  6  0  0  0
M  END
>  <CHROM.1>
64.51470205,-59.49871386,-65.25082836,76.75890120,78.88080791,-56.72405610
40.48133024,23.19781725,1.70682045,-2.94460353,0.70929470,-1.70624982

>  <Name>
ligand

>  <RI>
0

>  <Rbt.Current_Directory>
/home/itssahil/PROJECTS/Mol_Feturizer/New_Systems/rnas/2ET5

>  <Rbt.Executable>
rbdock ($Id: //depot/dev/client3/rdock/2013.1/src/exe/rbdock.cxx#4 $)

>  <Rbt.Library>
libRbt.so (2013.1, Build901 2013/11/27)

>  <Rbt.Parameter_File>
/export/apps/rDock/src/rDock_2013.1_src/data/scripts/dock_solv.prm

>  <Rbt.Receptor>
prm/pocket_docking_5.prm

>  <SCORE>
-7.65719

>  <SCORE.INTER>
-4.37662

>  <SCORE.INTER.CONST>
1

>  <SCORE.INTER.POLAR>
0

>  <SCORE.INTER.ROT>
6

>  <SCORE.INTER.SOLV>
23.4824

>  <SCORE.INTER.VDW>
-18.3452

>  <SCORE.INTER.norm>
-0.141181

>  <SCORE.INTRA>
-3.28057

>  <SCORE.INTRA.DIHEDRAL>
-7.9416

>  <SCORE.INTRA.DIHEDRAL.0>
11.2357

>  <SCORE.INTRA.POLAR>
0

>  <SCORE.INTRA.POLAR.0>
0

>  <SCORE.INTRA.REPUL>
0

>  <SCORE.INTRA.REPUL.0>
0

>  <SCORE.INTRA.SOLV>
-1.55069

>  <SCORE.INTRA.SOLV.lig_0>
-83.3092

>  <SCORE.INTRA.VDW>
1.46557

>  <SCORE.INTRA.VDW.0>
-4.47057

>  <SCORE.INTRA.norm>
-0.105825

>  <SCORE.RESTR>
0

>  <SCORE.RESTR.CAVITY>
0

>  <SCORE.RESTR.norm>
0

>  <SCORE.SYSTEM>
0

>  <SCORE.SYSTEM.CONST>
0

>  <SCORE.SYSTEM.DIHEDRAL>
0

>  <SCORE.SYSTEM.SOLV>
0

>  <SCORE.SYSTEM.norm>
0

>  <SCORE.heavy>
31

>  <SCORE.norm>
-0.247006

>  <RMSD>
1.203

$$$$
ligand
 OpenBabel11021811433D
libRbt.so/2013.1/901 2013/11/27
 31 33  0  0  0  0  0  0  0  0999 V2000
   41.8744   24.5821    5.8169 C   0  0  0  0  0  0  0  0  0  0  0  0
   38.8204   24.5188   -2.5255 N   0  0  0  0  0  0  0  0  0  0  0  0
   43.0782   25.2179    5.3628 O   0  0  0  0  0  0  0  0  0  0  0  0
   40.7653   25.2511    5.0093 C   0  0  1  0  0  0  0  0  0  0  0  0
   42.5868   21.1900   -1.8454 N   0  0  0  0  0  0  0  0  0  0  0  0
   40.8735   25.0708    3.5061 O   0  0  0  0  0  0  0  0  0  0  0  0
   39.9503   24.1914    2.9897 C   0  0  1  0  0  0  0  0  0  0  0  0
   43.3987   16.7682    0.6291 N   0  0  0  0  0  0  0  0  0  0  0  0
   40.4110   23.1885    2.1275 O   0  0  0  0  0  0  0  0  0  0  0  0
   40.8673   23.4564    0.7219 C   0  0  2  0  0  0  0  0  0  0  0  0
   44.6388   22.8287    2.8201 N   0  0  0  0  0  0  0  0  0  0  0  0
   38.9855   25.0561    0.4203 O   0  0  0  0  0  0  0  0  0  0  0  0
   39.6220   23.8436   -0.1294 C   0  0  1  0  0  0  0  0  0  0  0  0
   42.6614   21.8448    0.8452 O   0  0  0  0  0  0  0  0  0  0  0  0
   40.0546   24.1274   -1.6541 C   0  0  1  0  0  0  0  0  0  0  0  0
   42.2877   19.9482    2.2339 O   0  0  0  0  0  0  0  0  0  0  0  0
   40.7360   22.8048   -2.2168 C   0  0  0  0  0  0  0  0  0  0  0  0
   45.4794   18.1760    1.4963 O   0  0  0  0  0  0  0  0  0  0  0  0
   41.9728   22.4431   -1.2938 C   0  0  1  0  0  0  0  0  0  0  0  0
   46.4842   20.5326    2.7578 O   0  0  0  0  0  0  0  0  0  0  0  0
   41.5425   22.1499    0.1082 C   0  0  2  0  0  0  0  0  0  0  0  0
   37.8631   23.3732    3.8043 O   0  0  0  0  0  0  0  0  0  0  0  0
   42.7263   21.3866    2.2202 C   0  0  1  0  0  0  0  0  0  0  0  0
   38.3576   25.8468    4.9439 O   0  0  0  0  0  0  0  0  0  0  0  0
   43.1978   18.9732    1.4992 C   0  0  2  0  0  0  0  0  0  0  0  0
   42.6132   17.5674    1.5738 C   0  0  0  0  0  0  0  0  0  0  0  0
   44.5968   19.0452    2.1536 C   0  0  2  0  0  0  0  0  0  0  0  0
   45.1426   20.4627    2.1070 C   0  0  1  0  0  0  0  0  0  0  0  0
   44.1516   21.3935    2.8302 C   0  0  1  0  0  0  0  0  0  0  0  0
   39.1555   23.6836    4.1817 C   0  0  2  0  0  0  0  0  0  0  0  0
   39.3215   24.8011    5.2611 C   0  0  1  0  0  0  0  0  0  0  0  0
  1  3  1  0  0  0  0
  4  1  1  1  0  0  0
  4  6  1  0  0  0  0
  4 31  1  0  0  0  0
  6  7  1  0  0  0  0
  7  9  1  1  0  0  0
  7 30  1  0  0  0  0
  8 26  1  0  0  0  0
 10  9  1  1  0  0  0
 10 13  1  0  0  0  0
 10 21  1  0  0  0  0
 13 12  1  1  0  0  0
 13 15  1  0  0  0  0
 15  2  1  6  0  0  0
 15 17  1  0  0  0  0
 16 25  1  0  0  0  0
 16 23  1  0  0  0  0
 17 19  1  0  0  0  0
 19  5  1  6  0  0  0
 19 21  1  0  0  0  0
 21 14  1  1  0  0  0
 23 14  1  6  0  0  0
 23 29  1  0  0  0  0
 25 26  1  1  0  0  0
 25 27  1  0  0  0  0
 27 18  1  6  0  0  0
 27 28  1  0  0  0  0
 28 20  1  1  0  0  0
 28 29  1  0  0  0  0
 29 11  1  6  0  0  0
 30 22  1  6  0  0  0
 30 31  1  0  0  0  0
 31 24  1  6  0  0  0
M  END
>  <CHROM.1>
61.11447120,-72.41086051,-69.65192081,74.34126753,67.63764653,168.98896061
41.74755781,22.39403486,1.90335482,-2.60686755,0.76962448,-1.95705965

>  <Name>
ligand

>  <RI>
0

>  <Rbt.Current_Directory>
/home/itssahil/PROJECTS/Mol_Feturizer/New_Systems/rnas/2ET5

>  <Rbt.Executable>
rbdock ($Id: //depot/dev/client3/rdock/2013.1/src/exe/rbdock.cxx#4 $)

>  <Rbt.Library>
libRbt.so (2013.1, Build901 2013/11/27)

>  <Rbt.Parameter_File>
/export/apps/rDock/src/rDock_2013.1_src/data/scripts/dock_solv.prm

>  <Rbt.Receptor>
prm/pocket_docking_4.prm

>  <SCORE>
-13.6069

>  <SCORE.INTER>
-9.69515

>  <SCORE.INTER.CONST>
1

>  <SCORE.INTER.POLAR>
0

>  <SCORE.INTER.ROT>
6

>  <SCORE.INTER.SOLV>
20.8571

>  <SCORE.INTER.VDW>
-21.0158

>  <SCORE.INTER.norm>
-0.312747

>  <SCORE.INTRA>
-3.91178

>  <SCORE.INTRA.DIHEDRAL>
-8.2564

>  <SCORE.INTRA.DIHEDRAL.0>
11.2357

>  <SCORE.INTRA.POLAR>
0

>  <SCORE.INTRA.POLAR.0>
0

>  <SCORE.INTRA.REPUL>
0

>  <SCORE.INTRA.REPUL.0>
0

>  <SCORE.INTRA.SOLV>
-2.64684

>  <SCORE.INTRA.SOLV.lig_0>
-83.3092

>  <SCORE.INTRA.VDW>
1.53984

>  <SCORE.INTRA.VDW.0>
-4.47057

>  <SCORE.INTRA.norm>
-0.126186

>  <SCORE.RESTR>
0

>  <SCORE.RESTR.CAVITY>
0

>  <SCORE.RESTR.norm>
0

>  <SCORE.SYSTEM>
0

>  <SCORE.SYSTEM.CONST>
0

>  <SCORE.SYSTEM.DIHEDRAL>
0

>  <SCORE.SYSTEM.SOLV>
0

>  <SCORE.SYSTEM.norm>
0

>  <SCORE.heavy>
31

>  <SCORE.norm>
-0.438933

>  <RMSD>
1.329

$$$$
ligand
 OpenBabel11021811433D
libRbt.so/2013.1/901 2013/11/27
 31 33  0  0  0  0  0  0  0  0999 V2000
   41.7641   24.6008    6.2119 C   0  0  0  0  0  0  0  0  0  0  0  0
   38.5740   24.5698   -2.2133 N   0  0  0  0  0  0  0  0  0  0  0  0
   43.0489   25.0998    5.8120 O   0  0  0  0  0  0  0  0  0  0  0  0
   40.7709   25.3885    5.3613 C   0  0  1  0  0  0  0  0  0  0  0  0
   42.4863   21.3996   -1.6031 N   0  0  0  0  0  0  0  0  0  0  0  0
   40.9545   25.2367    3.8622 O   0  0  0  0  0  0  0  0  0  0  0  0
   39.9895   24.4587    3.2659 C   0  0  1  0  0  0  0  0  0  0  0  0
   43.2873   17.0666    0.7979 N   0  0  0  0  0  0  0  0  0  0  0  0
   40.4104   23.4398    2.4020 O   0  0  0  0  0  0  0  0  0  0  0  0
   40.7959   23.6807    0.9705 C   0  0  2  0  0  0  0  0  0  0  0  0
   44.7497   23.1134    2.9128 N   0  0  0  0  0  0  0  0  0  0  0  0
   38.8451   25.2024    0.7055 O   0  0  0  0  0  0  0  0  0  0  0  0
   39.5018   23.9970    0.1638 C   0  0  1  0  0  0  0  0  0  0  0  0
   42.6519   22.1386    1.0616 O   0  0  0  0  0  0  0  0  0  0  0  0
   39.8579   24.2494   -1.3860 C   0  0  1  0  0  0  0  0  0  0  0  0
   42.3404   20.2538    2.4814 O   0  0  0  0  0  0  0  0  0  0  0  0
   40.5630   22.9354   -1.9395 C   0  0  0  0  0  0  0  0  0  0  0  0
   45.4664   18.4450    1.5718 O   0  0  0  0  0  0  0  0  0  0  0  0
   41.8507   22.6463   -1.0615 C   0  0  1  0  0  0  0  0  0  0  0  0
   46.5658   20.7983    2.7584 O   0  0  0  0  0  0  0  0  0  0  0  0
   41.4919   22.3810    0.3659 C   0  0  2  0  0  0  0  0  0  0  0  0
   37.7914   23.8143    3.9310 O   0  0  0  0  0  0  0  0  0  0  0  0
   42.7916   21.6876    2.4334 C   0  0  1  0  0  0  0  0  0  0  0  0
   38.4349   26.2030    5.1728 O   0  0  0  0  0  0  0  0  0  0  0  0
   43.1968   19.2654    1.7015 C   0  0  2  0  0  0  0  0  0  0  0  0
   42.6037   17.8661    1.8185 C   0  0  0  0  0  0  0  0  0  0  0  0
   44.6320   19.3268    2.2735 C   0  0  2  0  0  0  0  0  0  0  0  0
   45.1881   20.7384    2.1866 C   0  0  1  0  0  0  0  0  0  0  0  0
   44.2498   21.6833    2.9600 C   0  0  1  0  0  0  0  0  0  0  0  0
   39.0809   23.9958    4.3931 C   0  0  2  0  0  0  0  0  0  0  0  0
   39.2799   25.0660    5.5140 C   0  0  1  0  0  0  0  0  0  0  0  0
  1  3  1  0  0  0  0
  4  1  1  1  0  0  0
  4  6  1  0  0  0  0
  4 31  1  0  0  0  0
  6  7  1  0  0  0  0
  7  9  1  1  0  0  0
  7 30  1  0  0  0  0
  8 26  1  0  0  0  0
 10  9  1  1  0  0  0
 10 13  1  0  0  0  0
 10 21  1  0  0  0  0
 13 12  1  1  0  0  0
 13 15  1  0  0  0  0
 15  2  1  6  0  0  0
 15 17  1  0  0  0  0
 16 25  1  0  0  0  0
 16 23  1  0  0  0  0
 17 19  1  0  0  0  0
 19  5  1  6  0  0  0
 19 21  1  0  0  0  0
 21 14  1  1  0  0  0
 23 14  1  6  0  0  0
 23 29  1  0  0  0  0
 25 26  1  1  0  0  0
 25 27  1  0  0  0  0
 27 18  1  6  0  0  0
 27 28  1  0  0  0  0
 28 20  1  1  0  0  0
 28 29  1  0  0  0  0
 29 11  1  6  0  0  0
 30 22  1  6  0  0  0
 30 31  1  0  0  0  0
 31 24  1  6  0  0  0
M  END
>  <CHROM.1>
59.00199956,-81.10271870,-71.68388241,70.44792932,69.61460473,166.76974955
41.71669342,22.62071122,2.13340279,-2.57765312,0.73012501,-1.97923541

>  <Name>
ligand

>  <RI>
0

>  <Rbt.Current_Directory>
/home/itssahil/PROJECTS/Mol_Feturizer/New_Systems/rnas/2ET5

>  <Rbt.Executable>
rbdock ($Id: //depot/dev/client3/rdock/2013.1/src/exe/rbdock.cxx#4 $)

>  <Rbt.Library>
libRbt.so (2013.1, Build901 2013/11/27)

>  <Rbt.Parameter_File>
/export/apps/rDock/src/rDock_2013.1_src/data/scripts/dock_solv.prm

>  <Rbt.Receptor>
prm/pocket_docking_5.prm

>  <SCORE>
-13.4761

>  <SCORE.INTER>
-9.99166

>  <SCORE.INTER.CONST>
1

>  <SCORE.INTER.POLAR>
0

>  <SCORE.INTER.ROT>
6

>  <SCORE.INTER.SOLV>
20.4938

>  <SCORE.INTER.VDW>
-21.0924

>  <SCORE.INTER.norm>
-0.322312

>  <SCORE.INTRA>
-3.48465

>  <SCORE.INTRA.DIHEDRAL>
-6.93289

>  <SCORE.INTRA.DIHEDRAL.0>
11.2357

>  <SCORE.INTRA.POLAR>
0

>  <SCORE.INTRA.POLAR.0>
0

>  <SCORE.INTRA.REPUL>
0

>  <SCORE.INTRA.REPUL.0>
0

>  <SCORE.INTRA.SOLV>
-2.84246

>  <SCORE.INTRA.SOLV.lig_0>
-83.3092

>  <SCORE.INTRA.VDW>
1.40303

>  <SCORE.INTRA.VDW.0>
-4.47057

>  <SCORE.INTRA.norm>
-0.112408

>  <SCORE.RESTR>
0.000241576

>  <SCORE.RESTR.CAVITY>
0.000241576

>  <SCORE.RESTR.norm>
7.79279e-06

>  <SCORE.SYSTEM>
0

>  <SCORE.SYSTEM.CONST>
0

>  <SCORE.SYSTEM.DIHEDRAL>
0

>  <SCORE.SYSTEM.SOLV>
0

>  <SCORE.SYSTEM.norm>
0

>  <SCORE.heavy>
31

>  <SCORE.norm>
-0.434712

>  <RMSD>
1.331

$$$$
ligand
 OpenBabel11021811433D
libRbt.so/2013.1/901 2013/11/27
 31 33  0  0  0  0  0  0  0  0999 V2000
   41.8510   24.6886    6.1395 C   0  0  0  0  0  0  0  0  0  0  0  0
   38.6011   24.5919   -2.2522 N   0  0  0  0  0  0  0  0  0  0  0  0
   43.1292   25.1678    5.6967 O   0  0  0  0  0  0  0  0  0  0  0  0
   40.8429   25.4661    5.2972 C   0  0  1  0  0  0  0  0  0  0  0  0
   42.4765   21.3819   -1.6155 N   0  0  0  0  0  0  0  0  0  0  0  0
   40.9976   25.2934    3.7971 O   0  0  0  0  0  0  0  0  0  0  0  0
   40.0203   24.5089    3.2301 C   0  0  1  0  0  0  0  0  0  0  0  0
   43.3288   17.0513    0.8657 N   0  0  0  0  0  0  0  0  0  0  0  0
   40.4231   23.4775    2.3726 O   0  0  0  0  0  0  0  0  0  0  0  0
   40.8117   23.7025    0.9394 C   0  0  2  0  0  0  0  0  0  0  0  0
   44.7405   23.1291    2.8951 N   0  0  0  0  0  0  0  0  0  0  0  0
   38.8786   25.2445    0.6617 O   0  0  0  0  0  0  0  0  0  0  0  0
   39.5215   24.0274    0.1298 C   0  0  1  0  0  0  0  0  0  0  0  0
   42.6498   22.1400    1.0433 O   0  0  0  0  0  0  0  0  0  0  0  0
   39.8810   24.2634   -1.4219 C   0  0  1  0  0  0  0  0  0  0  0  0
   42.3323   20.2666    2.4768 O   0  0  0  0  0  0  0  0  0  0  0  0
   40.5711   22.9370   -1.9647 C   0  0  0  0  0  0  0  0  0  0  0  0
   45.4615   18.4500    1.5940 O   0  0  0  0  0  0  0  0  0  0  0  0
   41.8551   22.6401   -1.0840 C   0  0  1  0  0  0  0  0  0  0  0  0
   46.5567   20.8124    2.7662 O   0  0  0  0  0  0  0  0  0  0  0  0
   41.4929   22.3902    0.3453 C   0  0  2  0  0  0  0  0  0  0  0  0
   37.8343   23.8776    3.9460 O   0  0  0  0  0  0  0  0  0  0  0  0
   42.7840   21.6998    2.4192 C   0  0  1  0  0  0  0  0  0  0  0  0
   38.5050   26.2820    5.1421 O   0  0  0  0  0  0  0  0  0  0  0  0
   43.1916   19.2719    1.7082 C   0  0  2  0  0  0  0  0  0  0  0  0
   42.5977   17.8737    1.8339 C   0  0  0  0  0  0  0  0  0  0  0  0
   44.6245   19.3376    2.2853 C   0  0  2  0  0  0  0  0  0  0  0  0
   45.1812   20.7482    2.1895 C   0  0  1  0  0  0  0  0  0  0  0  0
   44.2401   21.6995    2.9516 C   0  0  1  0  0  0  0  0  0  0  0  0
   39.1326   24.0632    4.3808 C   0  0  2  0  0  0  0  0  0  0  0  0
   39.3546   25.1484    5.4828 C   0  0  1  0  0  0  0  0  0  0  0  0
  1  3  1  0  0  0  0
  4  1  1  1  0  0  0
  4  6  1  0  0  0  0
  4 31  1  0  0  0  0
  6  7  1  0  0  0  0
  7  9  1  1  0  0  0
  7 30  1  0  0  0  0
  8 26  1  0  0  0  0
 10  9  1  1  0  0  0
 10 13  1  0  0  0  0
 10 21  1  0  0  0  0
 13 12  1  1  0  0  0
 13 15  1  0  0  0  0
 15  2  1  6  0  0  0
 15 17  1  0  0  0  0
 16 25  1  0  0  0  0
 16 23  1  0  0  0  0
 17 19  1  0  0  0  0
 19  5  1  6  0  0  0
 19 21  1  0  0  0  0
 21 14  1  1  0  0  0
 23 14  1  6  0  0  0
 23 29  1  0  0  0  0
 25 26  1  1  0  0  0
 25 27  1  0  0  0  0
 27 18  1  6  0  0  0
 27 28  1  0  0  0  0
 28 20  1  1  0  0  0
 28 29  1  0  0  0  0
 29 11  1  6  0  0  0
 30 22  1  6  0  0  0
 30 31  1  0  0  0  0
 31 24  1  6  0  0  0
M  END
>  <CHROM.1>
58.31388404,-79.65565359,-72.02219227,71.17599661,69.53169311,169.33282952
41.73807528,22.64965189,2.11267638,-2.57233969,0.73866631,-1.99619391

>  <Name>
ligand

>  <RI>
0

>  <Rbt.Current_Directory>
/home/itssahil/PROJECTS/Mol_Feturizer/New_Systems/rnas/2ET5

>  <Rbt.Executable>
rbdock ($Id: //depot/dev/client3/rdock/2013.1/src/exe/rbdock.cxx#4 $)

>  <Rbt.Library>
libRbt.so (2013.1, Build901 2013/11/27)

>  <Rbt.Parameter_File>
/export/apps/rDock/src/rDock_2013.1_src/data/scripts/dock_solv.prm

>  <Rbt.Receptor>
prm/pocket_docking_5.prm

>  <SCORE>
-13.4133

>  <SCORE.INTER>
-9.92047

>  <SCORE.INTER.CONST>
1

>  <SCORE.INTER.POLAR>
0

>  <SCORE.INTER.ROT>
6

>  <SCORE.INTER.SOLV>
20.2086

>  <SCORE.INTER.VDW>
-20.9499

>  <SCORE.INTER.norm>
-0.320015

>  <SCORE.INTRA>
-3.50284

>  <SCORE.INTRA.DIHEDRAL>
-7.26358

>  <SCORE.INTRA.DIHEDRAL.0>
11.2357

>  <SCORE.INTRA.POLAR>
0

>  <SCORE.INTRA.POLAR.0>
0

>  <SCORE.INTRA.REPUL>
0

>  <SCORE.INTRA.REPUL.0>
0

>  <SCORE.INTRA.SOLV>
-2.67463

>  <SCORE.INTRA.SOLV.lig_0>
-83.3092

>  <SCORE.INTRA.VDW>
1.46627

>  <SCORE.INTRA.VDW.0>
-4.47057

>  <SCORE.INTRA.norm>
-0.112995

>  <SCORE.RESTR>
0.0100358

>  <SCORE.RESTR.CAVITY>
0.0100358

>  <SCORE.RESTR.norm>
0.000323737

>  <SCORE.SYSTEM>
0

>  <SCORE.SYSTEM.CONST>
0

>  <SCORE.SYSTEM.DIHEDRAL>
0

>  <SCORE.SYSTEM.SOLV>
0

>  <SCORE.SYSTEM.norm>
0

>  <SCORE.heavy>
31

>  <SCORE.norm>
-0.432686

>  <RMSD>
1.333

$$$$
ligand
 OpenBabel11021811433D
libRbt.so/2013.1/901 2013/11/27
 31 33  0  0  0  0  0  0  0  0999 V2000
   42.1817   24.7738    5.7631 C   0  0  0  0  0  0  0  0  0  0  0  0
   38.7216   24.5968   -2.4454 N   0  0  0  0  0  0  0  0  0  0  0  0
   42.0505   25.2239    7.1195 O   0  0  0  0  0  0  0  0  0  0  0  0
   41.0439   25.4706    5.0216 C   0  0  1  0  0  0  0  0  0  0  0  0
   42.5380   21.3232   -1.7768 N   0  0  0  0  0  0  0  0  0  0  0  0
   41.0454   25.2689    3.5171 O   0  0  0  0  0  0  0  0  0  0  0  0
   40.0611   24.4155    3.0756 C   0  0  1  0  0  0  0  0  0  0  0  0
   43.3682   16.9718    0.7889 N   0  0  0  0  0  0  0  0  0  0  0  0
   40.4296   23.3873    2.1989 O   0  0  0  0  0  0  0  0  0  0  0  0
   40.8516   23.6284    0.7778 C   0  0  2  0  0  0  0  0  0  0  0  0
   44.6902   23.0918    2.7857 N   0  0  0  0  0  0  0  0  0  0  0  0
   38.9462   25.2014    0.4833 O   0  0  0  0  0  0  0  0  0  0  0  0
   39.5835   23.9836   -0.0536 C   0  0  1  0  0  0  0  0  0  0  0  0
   42.6653   22.0387    0.8964 O   0  0  0  0  0  0  0  0  0  0  0  0
   39.9790   24.2378   -1.5936 C   0  0  1  0  0  0  0  0  0  0  0  0
   42.3322   20.1893    2.3572 O   0  0  0  0  0  0  0  0  0  0  0  0
   40.6621   22.9101   -2.1421 C   0  0  0  0  0  0  0  0  0  0  0  0
   45.5084   18.3986    1.5978 O   0  0  0  0  0  0  0  0  0  0  0  0
   41.9229   22.5818   -1.2393 C   0  0  1  0  0  0  0  0  0  0  0  0
   46.5393   20.7980    2.7532 O   0  0  0  0  0  0  0  0  0  0  0  0
   41.5271   22.3157    0.1781 C   0  0  2  0  0  0  0  0  0  0  0  0
   38.0070   23.6784    4.0384 O   0  0  0  0  0  0  0  0  0  0  0  0
   42.7666   21.6271    2.2839 C   0  0  1  0  0  0  0  0  0  0  0  0
   38.6583   26.1470    5.1078 O   0  0  0  0  0  0  0  0  0  0  0  0
   43.2256   19.1916    1.6325 C   0  0  2  0  0  0  0  0  0  0  0  0
   42.6467   17.7882    1.7693 C   0  0  0  0  0  0  0  0  0  0  0  0
   44.6408   19.2879    2.2479 C   0  0  2  0  0  0  0  0  0  0  0  0
   45.1815   20.7039    2.1398 C   0  0  1  0  0  0  0  0  0  0  0  0
   44.2070   21.6569    2.8565 C   0  0  1  0  0  0  0  0  0  0  0  0
   39.3313   23.9491    4.3248 C   0  0  2  0  0  0  0  0  0  0  0  0
   39.6060   25.0730    5.3749 C   0  0  1  0  0  0  0  0  0  0  0  0
  1  3  1  0  0  0  0
  4  1  1  1  0  0  0
  4  6  1  0  0  0  0
  4 31  1  0  0  0  0
  6  7  1  0  0  0  0
  7  9  1  1  0  0  0
  7 30  1  0  0  0  0
  8 26  1  0  0  0  0
 10  9  1  1  0  0  0
 10 13  1  0  0  0  0
 10 21  1  0  0  0  0
 13 12  1  1  0  0  0
 13 15  1  0  0  0  0
 15  2  1  6  0  0  0
 15 17  1  0  0  0  0
 16 25  1  0  0  0  0
 16 23  1  0  0  0  0
 17 19  1  0  0  0  0
 19  5  1  6  0  0  0
 19 21  1  0  0  0  0
 21 14  1  1  0  0  0
 23 14  1  6  0  0  0
 23 29  1  0  0  0  0
 25 26  1  1  0  0  0
 25 27  1  0  0  0  0
 27 18  1  6  0  0  0
 27 28  1  0  0  0  0
 28 20  1  1  0  0  0
 28 29  1  0  0  0  0
 29 11  1  6  0  0  0
 30 22  1  6  0  0  0
 30 31  1  0  0  0  0
 31 24  1  6  0  0  0
M  END
>  <CHROM.1>
174.03520034,-69.92346942,-73.98704659,74.26921621,66.84713726,166.49977829
41.76659563,22.59369424,2.04261112,-2.54213102,0.77280116,-1.95278775

>  <Name>
ligand

>  <RI>
0

>  <Rbt.Current_Directory>
/home/itssahil/PROJECTS/Mol_Feturizer/New_Systems/rnas/2ET5

>  <Rbt.Executable>
rbdock ($Id: //depot/dev/client3/rdock/2013.1/src/exe/rbdock.cxx#4 $)

>  <Rbt.Library>
libRbt.so (2013.1, Build901 2013/11/27)

>  <Rbt.Parameter_File>
/export/apps/rDock/src/rDock_2013.1_src/data/scripts/dock_solv.prm

>  <Rbt.Receptor>
prm/pocket_docking_4.prm

>  <SCORE>
-14.0603

>  <SCORE.INTER>
-10.1684

>  <SCORE.INTER.CONST>
1

>  <SCORE.INTER.POLAR>
0

>  <SCORE.INTER.ROT>
6

>  <SCORE.INTER.SOLV>
20.2919

>  <SCORE.INTER.VDW>
-21.1429

>  <SCORE.INTER.norm>
-0.328013

>  <SCORE.INTRA>
-3.89195

>  <SCORE.INTRA.DIHEDRAL>
-7.77263

>  <SCORE.INTRA.DIHEDRAL.0>
11.2357

>  <SCORE.INTRA.POLAR>
0

>  <SCORE.INTRA.POLAR.0>
0

>  <SCORE.INTRA.REPUL>
0

>  <SCORE.INTRA.REPUL.0>
0

>  <SCORE.INTRA.SOLV>
-3.00544

>  <SCORE.INTRA.SOLV.lig_0>
-83.3092

>  <SCORE.INTRA.VDW>
1.49709

>  <SCORE.INTRA.VDW.0>
-4.47057

>  <SCORE.INTRA.norm>
-0.125547

>  <SCORE.RESTR>
0

>  <SCORE.RESTR.CAVITY>
0

>  <SCORE.RESTR.norm>
0

>  <SCORE.SYSTEM>
0

>  <SCORE.SYSTEM.CONST>
0

>  <SCORE.SYSTEM.DIHEDRAL>
0

>  <SCORE.SYSTEM.SOLV>
0

>  <SCORE.SYSTEM.norm>
0

>  <SCORE.heavy>
31

>  <SCORE.norm>
-0.453559

>  <RMSD>
1.341

$$$$
ligand
 OpenBabel11021811433D
libRbt.so/2013.1/901 2013/11/27
 31 33  0  0  0  0  0  0  0  0999 V2000
   41.7771   24.4143    5.4954 C   0  0  0  0  0  0  0  0  0  0  0  0
   39.1391   24.7860   -2.8144 N   0  0  0  0  0  0  0  0  0  0  0  0
   42.9422   25.0728    4.9775 O   0  0  0  0  0  0  0  0  0  0  0  0
   40.6142   25.0541    4.7414 C   0  0  1  0  0  0  0  0  0  0  0  0
   42.6034   21.1545   -2.0793 N   0  0  0  0  0  0  0  0  0  0  0  0
   40.6717   24.9012    3.2323 O   0  0  0  0  0  0  0  0  0  0  0  0
   39.7623   23.9963    2.7361 C   0  0  1  0  0  0  0  0  0  0  0  0
   42.4879   16.5596    1.2968 N   0  0  0  0  0  0  0  0  0  0  0  0
   40.2262   23.0247    1.8404 O   0  0  0  0  0  0  0  0  0  0  0  0
   40.8201   23.3557    0.5011 C   0  0  2  0  0  0  0  0  0  0  0  0
   44.1076   22.0102    3.0978 N   0  0  0  0  0  0  0  0  0  0  0  0
   39.0817   25.1044    0.1670 O   0  0  0  0  0  0  0  0  0  0  0  0
   39.6821   23.8900   -0.4181 C   0  0  1  0  0  0  0  0  0  0  0  0
   42.4860   21.6140    0.6500 O   0  0  0  0  0  0  0  0  0  0  0  0
   40.2640   24.2470   -1.8764 C   0  0  1  0  0  0  0  0  0  0  0  0
   42.0776   19.3729    1.3396 O   0  0  0  0  0  0  0  0  0  0  0  0
   40.9030   22.9208   -2.4791 C   0  0  0  0  0  0  0  0  0  0  0  0
   45.4628   18.0141    0.5879 O   0  0  0  0  0  0  0  0  0  0  0  0
   42.0279   22.4074   -1.4873 C   0  0  1  0  0  0  0  0  0  0  0  0
   46.1131   19.9033    2.6280 O   0  0  0  0  0  0  0  0  0  0  0  0
   41.4584   22.0496   -0.1515 C   0  0  2  0  0  0  0  0  0  0  0  0
   37.7389   23.0884    3.6143 O   0  0  0  0  0  0  0  0  0  0  0  0
   42.4045   20.7600    1.8199 C   0  0  1  0  0  0  0  0  0  0  0  0
   38.1856   25.5607    4.7764 O   0  0  0  0  0  0  0  0  0  0  0  0
   43.1470   18.6987    0.4908 C   0  0  2  0  0  0  0  0  0  0  0  0
   42.6653   17.3194    0.0560 C   0  0  0  0  0  0  0  0  0  0  0  0
   44.4387   18.6121    1.3361 C   0  0  2  0  0  0  0  0  0  0  0  0
   44.8774   19.9927    1.7951 C   0  0  1  0  0  0  0  0  0  0  0  0
   43.7329   20.6258    2.6079 C   0  0  1  0  0  0  0  0  0  0  0  0
   39.0326   23.4408    3.9483 C   0  0  2  0  0  0  0  0  0  0  0  0
   39.1985   24.5468    5.0394 C   0  0  1  0  0  0  0  0  0  0  0  0
  1  3  1  0  0  0  0
  4  1  1  1  0  0  0
  4  6  1  0  0  0  0
  4 31  1  0  0  0  0
  6  7  1  0  0  0  0
  7  9  1  1  0  0  0
  7 30  1  0  0  0  0
  8 26  1  0  0  0  0
 10  9  1  1  0  0  0
 10 13  1  0  0  0  0
 10 21  1  0  0  0  0
 13 12  1  1  0  0  0
 13 15  1  0  0  0  0
 15  2  1  6  0  0  0
 15 17  1  0  0  0  0
 16 25  1  0  0  0  0
 16 23  1  0  0  0  0
 17 19  1  0  0  0  0
 19  5  1  6  0  0  0
 19 21  1  0  0  0  0
 21 14  1  1  0  0  0
 23 14  1  6  0  0  0
 23 29  1  0  0  0  0
 25 26  1  1  0  0  0
 25 27  1  0  0  0  0
 27 18  1  6  0  0  0
 27 28  1  0  0  0  0
 28 20  1  1  0  0  0
 28 29  1  0  0  0  0
 29 11  1  6  0  0  0
 30 22  1  6  0  0  0
 30 31  1  0  0  0  0
 31 24  1  6  0  0  0
M  END
>  <CHROM.1>
59.40621828,-62.47742168,-69.80941462,71.44949360,84.82838808,-62.62997993
41.61439102,22.16036883,1.57046759,-2.62712586,0.84897503,-1.85188653

>  <Name>
ligand

>  <RI>
0

>  <Rbt.Current_Directory>
/home/itssahil/PROJECTS/Mol_Feturizer/New_Systems/rnas/2ET5

>  <Rbt.Executable>
rbdock ($Id: //depot/dev/client3/rdock/2013.1/src/exe/rbdock.cxx#4 $)

>  <Rbt.Library>
libRbt.so (2013.1, Build901 2013/11/27)

>  <Rbt.Parameter_File>
/export/apps/rDock/src/rDock_2013.1_src/data/scripts/dock_solv.prm

>  <Rbt.Receptor>
prm/pocket_docking_3.prm

>  <SCORE>
-8.94537

>  <SCORE.INTER>
-6.06286

>  <SCORE.INTER.CONST>
1

>  <SCORE.INTER.POLAR>
0

>  <SCORE.INTER.ROT>
6

>  <SCORE.INTER.SOLV>
23.8053

>  <SCORE.INTER.VDW>
-19.577

>  <SCORE.INTER.norm>
-0.195576

>  <SCORE.INTRA>
-2.88587

>  <SCORE.INTRA.DIHEDRAL>
-7.32442

>  <SCORE.INTRA.DIHEDRAL.0>
11.2357

>  <SCORE.INTRA.POLAR>
0

>  <SCORE.INTRA.POLAR.0>
0

>  <SCORE.INTRA.REPUL>
0

>  <SCORE.INTRA.REPUL.0>
0

>  <SCORE.INTRA.SOLV>
-1.08522

>  <SCORE.INTRA.SOLV.lig_0>
-83.3092

>  <SCORE.INTRA.VDW>
1.31896

>  <SCORE.INTRA.VDW.0>
-4.47057

>  <SCORE.INTRA.norm>
-0.0930924

>  <SCORE.RESTR>
0.00336078

>  <SCORE.RESTR.CAVITY>
0.00336078

>  <SCORE.RESTR.norm>
0.000108412

>  <SCORE.SYSTEM>
0

>  <SCORE.SYSTEM.CONST>
0

>  <SCORE.SYSTEM.DIHEDRAL>
0

>  <SCORE.SYSTEM.SOLV>
0

>  <SCORE.SYSTEM.norm>
0

>  <SCORE.heavy>
31

>  <SCORE.norm>
-0.28856

>  <RMSD>
1.447

$$$$
ligand
 OpenBabel11021811433D
libRbt.so/2013.1/901 2013/11/27
 31 33  0  0  0  0  0  0  0  0999 V2000
   42.2532   24.6659    5.5189 C   0  0  0  0  0  0  0  0  0  0  0  0
   39.1259   24.4942   -2.5667 N   0  0  0  0  0  0  0  0  0  0  0  0
   42.0456   25.0333    6.8906 O   0  0  0  0  0  0  0  0  0  0  0  0
   40.9982   25.1567    4.8017 C   0  0  1  0  0  0  0  0  0  0  0  0
   42.7559   20.9981   -1.9937 N   0  0  0  0  0  0  0  0  0  0  0  0
   40.9876   24.9217    3.3021 O   0  0  0  0  0  0  0  0  0  0  0  0
   40.1383   23.9135    2.9094 C   0  0  1  0  0  0  0  0  0  0  0  0
   43.4344   16.6363    2.0205 N   0  0  0  0  0  0  0  0  0  0  0  0
   40.6391   22.9355    2.0409 O   0  0  0  0  0  0  0  0  0  0  0  0
   41.1128   23.2359    0.6477 C   0  0  2  0  0  0  0  0  0  0  0  0
   44.4787   22.4258    3.0292 N   0  0  0  0  0  0  0  0  0  0  0  0
   39.2964   24.9180    0.3971 O   0  0  0  0  0  0  0  0  0  0  0  0
   39.8879   23.7020   -0.1937 C   0  0  1  0  0  0  0  0  0  0  0  0
   42.8420   21.5519    0.7192 O   0  0  0  0  0  0  0  0  0  0  0  0
   40.3393   24.0236   -1.7055 C   0  0  1  0  0  0  0  0  0  0  0  0
   42.6738   19.3960    1.7137 O   0  0  0  0  0  0  0  0  0  0  0  0
   40.9715   22.6966   -2.3132 C   0  0  0  0  0  0  0  0  0  0  0  0
   46.1560   18.2728    1.0181 O   0  0  0  0  0  0  0  0  0  0  0  0
   42.1885   22.2535   -1.3992 C   0  0  1  0  0  0  0  0  0  0  0  0
   46.6691   20.4729    2.7646 O   0  0  0  0  0  0  0  0  0  0  0  0
   41.7397   21.9271   -0.0105 C   0  0  2  0  0  0  0  0  0  0  0  0
   38.2558   22.8853    3.9526 O   0  0  0  0  0  0  0  0  0  0  0  0
   42.8748   20.8598    1.9938 C   0  0  1  0  0  0  0  0  0  0  0  0
   38.5392   25.4507    4.9529 O   0  0  0  0  0  0  0  0  0  0  0  0
   43.7823   18.7170    0.9207 C   0  0  2  0  0  0  0  0  0  0  0  0
   43.4278   17.2525    0.6906 C   0  0  0  0  0  0  0  0  0  0  0  0
   45.0975   18.8673    1.7198 C   0  0  2  0  0  0  0  0  0  0  0  0
   45.4098   20.3323    1.9754 C   0  0  1  0  0  0  0  0  0  0  0  0
   44.2296   20.9588    2.7410 C   0  0  1  0  0  0  0  0  0  0  0  0
   39.5284   23.3681    4.1904 C   0  0  2  0  0  0  0  0  0  0  0  0
   39.6523   24.5461    5.2094 C   0  0  1  0  0  0  0  0  0  0  0  0
  1  3  1  0  0  0  0
  4  1  1  1  0  0  0
  4  6  1  0  0  0  0
  4 31  1  0  0  0  0
  6  7  1  0  0  0  0
  7  9  1  1  0  0  0
  7 30  1  0  0  0  0
  8 26  1  0  0  0  0
 10  9  1  1  0  0  0
 10 13  1  0  0  0  0
 10 21  1  0  0  0  0
 13 12  1  1  0  0  0
 13 15  1  0  0  0  0
 15  2  1  6  0  0  0
 15 17  1  0  0  0  0
 16 25  1  0  0  0  0
 16 23  1  0  0  0  0
 17 19  1  0  0  0  0
 19  5  1  6  0  0  0
 19 21  1  0  0  0  0
 21 14  1  1  0  0  0
 23 14  1  6  0  0  0
 23 29  1  0  0  0  0
 25 26  1  1  0  0  0
 25 27  1  0  0  0  0
 27 18  1  6  0  0  0
 27 28  1  0  0  0  0
 28 20  1  1  0  0  0
 28 29  1  0  0  0  0
 29 11  1  6  0  0  0
 30 22  1  6  0  0  0
 30 31  1  0  0  0  0
 31 24  1  6  0  0  0
M  END
>  <CHROM.1>
178.25398849,-63.20120264,-65.70162380,80.56223487,77.69584206,-65.82668805
41.97882971,22.17257880,1.85158433,-2.60172344,0.78905199,-1.87083818

>  <Name>
ligand

>  <RI>
0

>  <Rbt.Current_Directory>
/home/itssahil/PROJECTS/Mol_Feturizer/New_Systems/rnas/2ET5

>  <Rbt.Executable>
rbdock ($Id: //depot/dev/client3/rdock/2013.1/src/exe/rbdock.cxx#4 $)

>  <Rbt.Library>
libRbt.so (2013.1, Build901 2013/11/27)

>  <Rbt.Parameter_File>
/export/apps/rDock/src/rDock_2013.1_src/data/scripts/dock_solv.prm

>  <Rbt.Receptor>
prm/pocket_docking_4.prm

>  <SCORE>
-9.30165

>  <SCORE.INTER>
-6.53302

>  <SCORE.INTER.CONST>
1

>  <SCORE.INTER.POLAR>
0

>  <SCORE.INTER.ROT>
6

>  <SCORE.INTER.SOLV>
24.77

>  <SCORE.INTER.VDW>
-20.212

>  <SCORE.INTER.norm>
-0.210743

>  <SCORE.INTRA>
-2.76863

>  <SCORE.INTRA.DIHEDRAL>
-7.44604

>  <SCORE.INTRA.DIHEDRAL.0>
11.2357

>  <SCORE.INTRA.POLAR>
0

>  <SCORE.INTRA.POLAR.0>
0

>  <SCORE.INTRA.REPUL>
0

>  <SCORE.INTRA.REPUL.0>
0

>  <SCORE.INTRA.SOLV>
-1.48654

>  <SCORE.INTRA.SOLV.lig_0>
-83.3092

>  <SCORE.INTRA.VDW>
1.69766

>  <SCORE.INTRA.VDW.0>
-4.47057

>  <SCORE.INTRA.norm>
-0.0893107

>  <SCORE.RESTR>
0

>  <SCORE.RESTR.CAVITY>
0

>  <SCORE.RESTR.norm>
0

>  <SCORE.SYSTEM>
0

>  <SCORE.SYSTEM.CONST>
0

>  <SCORE.SYSTEM.DIHEDRAL>
0

>  <SCORE.SYSTEM.SOLV>
0

>  <SCORE.SYSTEM.norm>
0

>  <SCORE.heavy>
31

>  <SCORE.norm>
-0.300053

>  <RMSD>
1.583

$$$$
ligand
 OpenBabel11021811433D
libRbt.so/2013.1/901 2013/11/27
 31 33  0  0  0  0  0  0  0  0999 V2000
   42.3007   24.6991    5.6628 C   0  0  0  0  0  0  0  0  0  0  0  0
   39.0173   24.1652   -2.4265 N   0  0  0  0  0  0  0  0  0  0  0  0
   42.0649   25.1004    7.0203 O   0  0  0  0  0  0  0  0  0  0  0  0
   41.0609   25.1713    4.9078 C   0  0  1  0  0  0  0  0  0  0  0  0
   42.8169   20.8569   -1.8372 N   0  0  0  0  0  0  0  0  0  0  0  0
   41.0849   24.9065    3.4134 O   0  0  0  0  0  0  0  0  0  0  0  0
   40.2476   23.8879    3.0217 C   0  0  1  0  0  0  0  0  0  0  0  0
   42.2654   17.1438    0.7472 N   0  0  0  0  0  0  0  0  0  0  0  0
   40.7707   22.8945    2.1845 O   0  0  0  0  0  0  0  0  0  0  0  0
   41.1778   23.1474    0.7610 C   0  0  2  0  0  0  0  0  0  0  0  0
   44.8712   22.7828    2.7570 N   0  0  0  0  0  0  0  0  0  0  0  0
   39.2809   24.7374    0.5055 O   0  0  0  0  0  0  0  0  0  0  0  0
   39.9027   23.5206   -0.0516 C   0  0  1  0  0  0  0  0  0  0  0  0
   42.9809   21.5433    0.8416 O   0  0  0  0  0  0  0  0  0  0  0  0
   40.2820   23.7881   -1.5934 C   0  0  1  0  0  0  0  0  0  0  0  0
   42.7957   19.6754    2.3050 O   0  0  0  0  0  0  0  0  0  0  0  0
   40.9486   22.4612   -2.1637 C   0  0  0  0  0  0  0  0  0  0  0  0
   46.1338   18.1809    1.6018 O   0  0  0  0  0  0  0  0  0  0  0  0
   42.2175   22.1143   -1.2794 C   0  0  1  0  0  0  0  0  0  0  0  0
   46.9227   20.6678    2.7625 O   0  0  0  0  0  0  0  0  0  0  0  0
   41.8364   21.8362    0.1398 C   0  0  2  0  0  0  0  0  0  0  0  0
   38.3449   22.8744    4.0425 O   0  0  0  0  0  0  0  0  0  0  0  0
   43.0978   21.1467    2.2322 C   0  0  1  0  0  0  0  0  0  0  0  0
   38.5983   25.4600    4.9975 O   0  0  0  0  0  0  0  0  0  0  0  0
   43.7878   18.7616    1.5983 C   0  0  2  0  0  0  0  0  0  0  0  0
   43.3377   17.3115    1.7322 C   0  0  0  0  0  0  0  0  0  0  0  0
   45.1785   18.9889    2.2348 C   0  0  2  0  0  0  0  0  0  0  0  0
   45.5890   20.4481    2.1289 C   0  0  1  0  0  0  0  0  0  0  0  0
   44.5204   21.3099    2.8266 C   0  0  1  0  0  0  0  0  0  0  0  0
   39.6104   23.3660    4.2993 C   0  0  2  0  0  0  0  0  0  0  0  0
   39.7079   24.5644    5.2971 C   0  0  1  0  0  0  0  0  0  0  0  0
  1  3  1  0  0  0  0
  4  1  1  1  0  0  0
  4  6  1  0  0  0  0
  4 31  1  0  0  0  0
  6  7  1  0  0  0  0
  7  9  1  1  0  0  0
  7 30  1  0  0  0  0
  8 26  1  0  0  0  0
 10  9  1  1  0  0  0
 10 13  1  0  0  0  0
 10 21  1  0  0  0  0
 13 12  1  1  0  0  0
 13 15  1  0  0  0  0
 15  2  1  6  0  0  0
 15 17  1  0  0  0  0
 16 25  1  0  0  0  0
 16 23  1  0  0  0  0
 17 19  1  0  0  0  0
 19  5  1  6  0  0  0
 19 21  1  0  0  0  0
 21 14  1  1  0  0  0
 23 14  1  6  0  0  0
 23 29  1  0  0  0  0
 25 26  1  1  0  0  0
 25 27  1  0  0  0  0
 27 18  1  6  0  0  0
 27 28  1  0  0  0  0
 28 20  1  1  0  0  0
 28 29  1  0  0  0  0
 29 11  1  6  0  0  0
 30 22  1  6  0  0  0
 30 31  1  0  0  0  0
 31 24  1  6  0  0  0
M  END
>  <CHROM.1>
177.90135366,-68.02362624,-65.01744981,81.04955414,65.26525822,78.17680515
42.01884046,22.19350476,2.00474824,-2.53539865,0.73039661,-1.95425976

>  <Name>
ligand

>  <RI>
0

>  <Rbt.Current_Directory>
/home/itssahil/PROJECTS/Mol_Feturizer/New_Systems/rnas/2ET5

>  <Rbt.Executable>
rbdock ($Id: //depot/dev/client3/rdock/2013.1/src/exe/rbdock.cxx#4 $)

>  <Rbt.Library>
libRbt.so (2013.1, Build901 2013/11/27)

>  <Rbt.Parameter_File>
/export/apps/rDock/src/rDock_2013.1_src/data/scripts/dock_solv.prm

>  <Rbt.Receptor>
prm/pocket_docking_4.prm

>  <SCORE>
-12.9162

>  <SCORE.INTER>
-8.78902

>  <SCORE.INTER.CONST>
1

>  <SCORE.INTER.POLAR>
0

>  <SCORE.INTER.ROT>
6

>  <SCORE.INTER.SOLV>
26.7445

>  <SCORE.INTER.VDW>
-22.3742

>  <SCORE.INTER.norm>
-0.283517

>  <SCORE.INTRA>
-4.12715

>  <SCORE.INTRA.DIHEDRAL>
-7.44841

>  <SCORE.INTRA.DIHEDRAL.0>
11.2357

>  <SCORE.INTRA.POLAR>
0

>  <SCORE.INTRA.POLAR.0>
0

>  <SCORE.INTRA.REPUL>
0

>  <SCORE.INTRA.REPUL.0>
0

>  <SCORE.INTRA.SOLV>
-4.01819

>  <SCORE.INTRA.SOLV.lig_0>
-83.3092

>  <SCORE.INTRA.VDW>
1.60615

>  <SCORE.INTRA.VDW.0>
-4.47057

>  <SCORE.INTRA.norm>
-0.133134

>  <SCORE.RESTR>
0

>  <SCORE.RESTR.CAVITY>
0

>  <SCORE.RESTR.norm>
0

>  <SCORE.SYSTEM>
0

>  <SCORE.SYSTEM.CONST>
0

>  <SCORE.SYSTEM.DIHEDRAL>
0

>  <SCORE.SYSTEM.SOLV>
0

>  <SCORE.SYSTEM.norm>
0

>  <SCORE.heavy>
31

>  <SCORE.norm>
-0.416651

>  <RMSD>
1.592

$$$$
ligand
 OpenBabel11021811433D
libRbt.so/2013.1/901 2013/11/27
 31 33  0  0  0  0  0  0  0  0999 V2000
   42.2194   24.6990    5.7128 C   0  0  0  0  0  0  0  0  0  0  0  0
   39.0439   24.2427   -2.4948 N   0  0  0  0  0  0  0  0  0  0  0  0
   41.9835   25.1085    7.0679 O   0  0  0  0  0  0  0  0  0  0  0  0
   41.0412   25.2763    4.9325 C   0  0  1  0  0  0  0  0  0  0  0  0
   42.7660   20.8870   -1.7113 N   0  0  0  0  0  0  0  0  0  0  0  0
   41.0750   25.0117    3.4383 O   0  0  0  0  0  0  0  0  0  0  0  0
   40.1623   24.0687    3.0259 C   0  0  1  0  0  0  0  0  0  0  0  0
   43.3419   16.5217    0.6279 N   0  0  0  0  0  0  0  0  0  0  0  0
   40.6165   23.0349    2.1975 O   0  0  0  0  0  0  0  0  0  0  0  0
   41.0764   23.2535    0.7845 C   0  0  2  0  0  0  0  0  0  0  0  0
   44.8894   22.4672    2.9335 N   0  0  0  0  0  0  0  0  0  0  0  0
   39.2158   24.8679    0.4331 O   0  0  0  0  0  0  0  0  0  0  0  0
   39.8363   23.6308   -0.0788 C   0  0  1  0  0  0  0  0  0  0  0  0
   42.8491   21.6230    0.9580 O   0  0  0  0  0  0  0  0  0  0  0  0
   40.2727   23.8620   -1.6113 C   0  0  1  0  0  0  0  0  0  0  0  0
   42.3972   19.7163    2.3092 O   0  0  0  0  0  0  0  0  0  0  0  0
   40.9367   22.5139   -2.1329 C   0  0  0  0  0  0  0  0  0  0  0  0
   45.4930   17.8100    1.5011 O   0  0  0  0  0  0  0  0  0  0  0  0
   42.1686   22.1644   -1.1986 C   0  0  1  0  0  0  0  0  0  0  0  0
   46.6216   20.0872    2.8029 O   0  0  0  0  0  0  0  0  0  0  0  0
   41.7343   21.9201    0.2115 C   0  0  2  0  0  0  0  0  0  0  0  0
   38.1581   23.2210    4.0027 O   0  0  0  0  0  0  0  0  0  0  0  0
   42.9044   21.1320    2.3221 C   0  0  1  0  0  0  0  0  0  0  0  0
   38.6110   25.7747    4.9699 O   0  0  0  0  0  0  0  0  0  0  0  0
   43.2526   18.7153    1.5444 C   0  0  2  0  0  0  0  0  0  0  0  0
   42.6017   17.3378    1.5945 C   0  0  0  0  0  0  0  0  0  0  0  0
   44.6594   18.7057    2.1859 C   0  0  2  0  0  0  0  0  0  0  0  0
   45.2722   20.0961    2.1644 C   0  0  1  0  0  0  0  0  0  0  0  0
   44.3338   21.0571    2.9176 C   0  0  1  0  0  0  0  0  0  0  0  0
   39.4551   23.6023    4.2880 C   0  0  2  0  0  0  0  0  0  0  0  0
   39.6331   24.7872    5.2909 C   0  0  1  0  0  0  0  0  0  0  0  0
  1  3  1  0  0  0  0
  4  1  1  1  0  0  0
  4  6  1  0  0  0  0
  4 31  1  0  0  0  0
  6  7  1  0  0  0  0
  7  9  1  1  0  0  0
  7 30  1  0  0  0  0
  8 26  1  0  0  0  0
 10  9  1  1  0  0  0
 10 13  1  0  0  0  0
 10 21  1  0  0  0  0
 13 12  1  1  0  0  0
 13 15  1  0  0  0  0
 15  2  1  6  0  0  0
 15 17  1  0  0  0  0
 16 25  1  0  0  0  0
 16 23  1  0  0  0  0
 17 19  1  0  0  0  0
 19  5  1  6  0  0  0
 19 21  1  0  0  0  0
 21 14  1  1  0  0  0
 23 14  1  6  0  0  0
 23 29  1  0  0  0  0
 25 26  1  1  0  0  0
 25 27  1  0  0  0  0
 27 18  1  6  0  0  0
 27 28  1  0  0  0  0
 28 20  1  1  0  0  0
 28 29  1  0  0  0  0
 29 11  1  6  0  0  0
 30 22  1  6  0  0  0
 30 31  1  0  0  0  0
 31 24  1  6  0  0  0
M  END
>  <CHROM.1>
178.36771940,-67.93248913,-69.29674923,69.97995322,71.56277529,169.16080682
41.88399088,22.18394196,2.01436297,-2.52314047,0.80529587,-1.95301540

>  <Name>
ligand

>  <RI>
0

>  <Rbt.Current_Directory>
/home/itssahil/PROJECTS/Mol_Feturizer/New_Systems/rnas/2ET5

>  <Rbt.Executable>
rbdock ($Id: //depot/dev/client3/rdock/2013.1/src/exe/rbdock.cxx#4 $)

>  <Rbt.Library>
libRbt.so (2013.1, Build901 2013/11/27)

>  <Rbt.Parameter_File>
/export/apps/rDock/src/rDock_2013.1_src/data/scripts/dock_solv.prm

>  <Rbt.Receptor>
prm/pocket_docking_3.prm

>  <SCORE>
-13.9121

>  <SCORE.INTER>
-9.74987

>  <SCORE.INTER.CONST>
1

>  <SCORE.INTER.POLAR>
0

>  <SCORE.INTER.ROT>
6

>  <SCORE.INTER.SOLV>
23.201

>  <SCORE.INTER.VDW>
-21.8336

>  <SCORE.INTER.norm>
-0.314512

>  <SCORE.INTRA>
-4.17462

>  <SCORE.INTRA.DIHEDRAL>
-8.84188

>  <SCORE.INTRA.DIHEDRAL.0>
11.2357

>  <SCORE.INTRA.POLAR>
0

>  <SCORE.INTRA.POLAR.0>
0

>  <SCORE.INTRA.REPUL>
0

>  <SCORE.INTRA.REPUL.0>
0

>  <SCORE.INTRA.SOLV>
-2.99496

>  <SCORE.INTRA.SOLV.lig_0>
-83.3092

>  <SCORE.INTRA.VDW>
1.7438

>  <SCORE.INTRA.VDW.0>
-4.47057

>  <SCORE.INTRA.norm>
-0.134665

>  <SCORE.RESTR>
0.0124037

>  <SCORE.RESTR.CAVITY>
0.0124037

>  <SCORE.RESTR.norm>
0.000400119

>  <SCORE.SYSTEM>
0

>  <SCORE.SYSTEM.CONST>
0

>  <SCORE.SYSTEM.DIHEDRAL>
0

>  <SCORE.SYSTEM.SOLV>
0

>  <SCORE.SYSTEM.norm>
0

>  <SCORE.heavy>
31

>  <SCORE.norm>
-0.448777

>  <RMSD>
1.603

$$$$
ligand
 OpenBabel11021811433D
libRbt.so/2013.1/901 2013/11/27
 31 33  0  0  0  0  0  0  0  0999 V2000
   38.4940   25.5240    5.2025 C   0  0  0  0  0  0  0  0  0  0  0  0
   39.0896   24.0790   -3.5682 N   0  0  0  0  0  0  0  0  0  0  0  0
   39.8102   25.0123    4.9466 O   0  0  0  0  0  0  0  0  0  0  0  0
   37.6859   25.1222    3.9714 C   0  0  1  0  0  0  0  0  0  0  0  0
   41.9214   21.0903   -0.6055 N   0  0  0  0  0  0  0  0  0  0  0  0
   38.1553   25.7454    2.6693 O   0  0  0  0  0  0  0  0  0  0  0  0
   38.8044   24.8614    1.8390 C   0  0  1  0  0  0  0  0  0  0  0  0
   43.6001   18.4189    2.4115 N   0  0  0  0  0  0  0  0  0  0  0  0
   40.0351   25.2535    1.2977 O   0  0  0  0  0  0  0  0  0  0  0  0
   40.6270   24.6344    0.0639 C   0  0  2  0  0  0  0  0  0  0  0  0
   42.8335   24.1230    3.9600 N   0  0  0  0  0  0  0  0  0  0  0  0
   39.1948   26.0962   -1.3516 O   0  0  0  0  0  0  0  0  0  0  0  0
   39.5618   24.6947   -1.0707 C   0  0  1  0  0  0  0  0  0  0  0  0
   41.9821   23.0803    1.3207 O   0  0  0  0  0  0  0  0  0  0  0  0
   40.1417   24.0279   -2.4166 C   0  0  1  0  0  0  0  0  0  0  0  0
   42.3089   20.8699    2.1407 O   0  0  0  0  0  0  0  0  0  0  0  0
   40.5273   22.5215   -2.0817 C   0  0  0  0  0  0  0  0  0  0  0  0
   46.0331   20.8913    2.1094 O   0  0  0  0  0  0  0  0  0  0  0  0
   41.5857   22.5225   -0.9017 C   0  0  1  0  0  0  0  0  0  0  0  0
   45.5276   22.9325    4.0413 O   0  0  0  0  0  0  0  0  0  0  0  0
   41.0134   23.1145    0.3467 C   0  0  2  0  0  0  0  0  0  0  0  0
   38.8192   22.4800    1.7052 O   0  0  0  0  0  0  0  0  0  0  0  0
   41.9982   22.2873    2.5354 C   0  0  1  0  0  0  0  0  0  0  0  0
   36.4356   23.2942    2.8530 O   0  0  0  0  0  0  0  0  0  0  0  0
   43.6948   20.6362    1.5545 C   0  0  2  0  0  0  0  0  0  0  0  0
   43.8532   19.1679    1.1773 C   0  0  0  0  0  0  0  0  0  0  0  0
   44.7363   21.0696    2.6119 C   0  0  2  0  0  0  0  0  0  0  0  0
   44.5336   22.5233    3.0054 C   0  0  1  0  0  0  0  0  0  0  0  0
   43.1018   22.6895    3.5474 C   0  0  1  0  0  0  0  0  0  0  0  0
   38.8371   23.5406    2.5906 C   0  0  2  0  0  0  0  0  0  0  0  0
   37.6428   23.6370    3.5934 C   0  0  1  0  0  0  0  0  0  0  0  0
  1  3  1  0  0  0  0
  4  1  1  1  0  0  0
  4  6  1  0  0  0  0
  4 31  1  0  0  0  0
  6  7  1  0  0  0  0
  7  9  1  1  0  0  0
  7 30  1  0  0  0  0
  8 26  1  0  0  0  0
 10  9  1  1  0  0  0
 10 13  1  0  0  0  0
 10 21  1  0  0  0  0
 13 12  1  6  0  0  0
 13 15  1  0  0  0  0
 15  2  1  6  0  0  0
 15 17  1  0  0  0  0
 16 25  1  0  0  0  0
 16 23  1  0  0  0  0
 17 19  1  0  0  0  0
 19  5  1  1  0  0  0
 19 21  1  0  0  0  0
 21 14  1  1  0  0  0
 23 14  1  6  0  0  0
 23 29  1  0  0  0  0
 25 26  1  1  0  0  0
 25 27  1  0  0  0  0
 27 18  1  6  0  0  0
 27 28  1  0  0  0  0
 28 20  1  1  0  0  0
 28 29  1  0  0  0  0
 29 11  1  6  0  0  0
 30 22  1  6  0  0  0
 30 31  1  0  0  0  0
 31 24  1  6  0  0  0
M  END
>  <CHROM.1>
-63.35574486,-159.02710726,52.80155914,74.59581225,129.53989590,-57.11166699
41.04281499,23.11152754,1.62523191,3.10045667,0.58492710,-1.68893496

>  <Name>
ligand

>  <RI>
0

>  <Rbt.Current_Directory>
/home/itssahil/PROJECTS/Mol_Feturizer/New_Systems/rnas/2ET5

>  <Rbt.Executable>
rbdock ($Id: //depot/dev/client3/rdock/2013.1/src/exe/rbdock.cxx#4 $)

>  <Rbt.Library>
libRbt.so (2013.1, Build901 2013/11/27)

>  <Rbt.Parameter_File>
/export/apps/rDock/src/rDock_2013.1_src/data/scripts/dock_solv.prm

>  <Rbt.Receptor>
prm/pocket_docking_2.prm

>  <SCORE>
0.390353

>  <SCORE.INTER>
-2.50222

>  <SCORE.INTER.CONST>
1

>  <SCORE.INTER.POLAR>
0

>  <SCORE.INTER.ROT>
6

>  <SCORE.INTER.SOLV>
22.5617

>  <SCORE.INTER.VDW>
-16.7887

>  <SCORE.INTER.norm>
-0.0807167

>  <SCORE.INTRA>
2.20927

>  <SCORE.INTRA.DIHEDRAL>
-1.13266

>  <SCORE.INTRA.DIHEDRAL.0>
11.2357

>  <SCORE.INTRA.POLAR>
0

>  <SCORE.INTRA.POLAR.0>
0

>  <SCORE.INTRA.REPUL>
0

>  <SCORE.INTRA.REPUL.0>
0

>  <SCORE.INTRA.SOLV>
3.11017

>  <SCORE.INTRA.SOLV.lig_0>
-83.3092

>  <SCORE.INTRA.VDW>
1.22051

>  <SCORE.INTRA.VDW.0>
-4.47057

>  <SCORE.INTRA.norm>
0.0712668

>  <SCORE.RESTR>
0.683299

>  <SCORE.RESTR.CAVITY>
0.683299

>  <SCORE.RESTR.norm>
0.0220419

>  <SCORE.SYSTEM>
0

>  <SCORE.SYSTEM.CONST>
0

>  <SCORE.SYSTEM.DIHEDRAL>
0

>  <SCORE.SYSTEM.SOLV>
0

>  <SCORE.SYSTEM.norm>
0

>  <SCORE.heavy>
31

>  <SCORE.norm>
0.012592

>  <RMSD>
1.605

$$$$
ligand
 OpenBabel11021811433D
libRbt.so/2013.1/901 2013/11/27
 31 33  0  0  0  0  0  0  0  0999 V2000
   42.4703   24.9046    5.9796 C   0  0  0  0  0  0  0  0  0  0  0  0
   38.8293   24.5764   -2.1593 N   0  0  0  0  0  0  0  0  0  0  0  0
   42.3018   25.3571    7.3310 O   0  0  0  0  0  0  0  0  0  0  0  0
   41.3590   25.6073    5.2040 C   0  0  1  0  0  0  0  0  0  0  0  0
   42.5682   21.2000   -1.5689 N   0  0  0  0  0  0  0  0  0  0  0  0
   41.3739   25.3626    3.7060 O   0  0  0  0  0  0  0  0  0  0  0  0
   40.3744   24.5209    3.2762 C   0  0  1  0  0  0  0  0  0  0  0  0
   43.2852   16.9084    0.6988 N   0  0  0  0  0  0  0  0  0  0  0  0
   40.7282   23.4596    2.4338 O   0  0  0  0  0  0  0  0  0  0  0  0
   41.0861   23.6408    0.9864 C   0  0  2  0  0  0  0  0  0  0  0  0
   45.0221   22.8520    2.8957 N   0  0  0  0  0  0  0  0  0  0  0  0
   39.2194   25.2665    0.7329 O   0  0  0  0  0  0  0  0  0  0  0  0
   39.7899   24.0115    0.2066 C   0  0  1  0  0  0  0  0  0  0  0  0
   42.8519   21.9959    1.0693 O   0  0  0  0  0  0  0  0  0  0  0  0
   40.1157   24.2030   -1.3585 C   0  0  1  0  0  0  0  0  0  0  0  0
   42.4947   20.0971    2.4592 O   0  0  0  0  0  0  0  0  0  0  0  0
   40.7278   22.8363   -1.8950 C   0  0  0  0  0  0  0  0  0  0  0  0
   45.5291   18.1867    1.4524 O   0  0  0  0  0  0  0  0  0  0  0  0
   42.0212   22.4951   -1.0445 C   0  0  1  0  0  0  0  0  0  0  0  0
   46.7427   20.4717    2.6608 O   0  0  0  0  0  0  0  0  0  0  0  0
   41.6885   22.2877    0.3987 C   0  0  2  0  0  0  0  0  0  0  0  0
   38.2913   23.8616    4.2329 O   0  0  0  0  0  0  0  0  0  0  0  0
   43.0007   21.5129    2.4292 C   0  0  1  0  0  0  0  0  0  0  0  0
   38.9898   26.3433    5.2403 O   0  0  0  0  0  0  0  0  0  0  0  0
   43.2964   19.0917    1.6435 C   0  0  2  0  0  0  0  0  0  0  0  0
   42.6513   17.7145    1.7460 C   0  0  0  0  0  0  0  0  0  0  0  0
   44.7437   19.0862    2.1874 C   0  0  2  0  0  0  0  0  0  0  0  0
   45.3529   20.4765    2.1160 C   0  0  1  0  0  0  0  0  0  0  0  0
   44.4676   21.4418    2.9259 C   0  0  1  0  0  0  0  0  0  0  0  0
   39.6182   24.1083    4.5286 C   0  0  2  0  0  0  0  0  0  0  0  0
   39.9076   25.2548    5.5500 C   0  0  1  0  0  0  0  0  0  0  0  0
  1  3  1  0  0  0  0
  4  1  1  1  0  0  0
  4  6  1  0  0  0  0
  4 31  1  0  0  0  0
  6  7  1  0  0  0  0
  7  9  1  1  0  0  0
  7 30  1  0  0  0  0
  8 26  1  0  0  0  0
 10  9  1  1  0  0  0
 10 13  1  0  0  0  0
 10 21  1  0  0  0  0
 13 12  1  1  0  0  0
 13 15  1  0  0  0  0
 15  2  1  6  0  0  0
 15 17  1  0  0  0  0
 16 25  1  0  0  0  0
 16 23  1  0  0  0  0
 17 19  1  0  0  0  0
 19  5  1  6  0  0  0
 19 21  1  0  0  0  0
 21 14  1  1  0  0  0
 23 14  1  6  0  0  0
 23 29  1  0  0  0  0
 25 26  1  1  0  0  0
 25 27  1  0  0  0  0
 27 18  1  6  0  0  0
 27 28  1  0  0  0  0
 28 20  1  1  0  0  0
 28 29  1  0  0  0  0
 29 11  1  6  0  0  0
 30 22  1  6  0  0  0
 30 31  1  0  0  0  0
 31 24  1  6  0  0  0
M  END
>  <CHROM.1>
176.15796804,-74.09332129,-70.80884771,69.94187083,72.76952184,166.89442530
41.96092088,22.57014237,2.17815530,-2.43578251,0.78009261,-2.02123665

>  <Name>
ligand

>  <RI>
0

>  <Rbt.Current_Directory>
/home/itssahil/PROJECTS/Mol_Feturizer/New_Systems/rnas/2ET5

>  <Rbt.Executable>
rbdock ($Id: //depot/dev/client3/rdock/2013.1/src/exe/rbdock.cxx#4 $)

>  <Rbt.Library>
libRbt.so (2013.1, Build901 2013/11/27)

>  <Rbt.Parameter_File>
/export/apps/rDock/src/rDock_2013.1_src/data/scripts/dock_solv.prm

>  <Rbt.Receptor>
prm/pocket_docking_5.prm

>  <SCORE>
-13.8684

>  <SCORE.INTER>
-10.0696

>  <SCORE.INTER.CONST>
1

>  <SCORE.INTER.POLAR>
0

>  <SCORE.INTER.ROT>
6

>  <SCORE.INTER.SOLV>
21.0013

>  <SCORE.INTER.VDW>
-21.3135

>  <SCORE.INTER.norm>
-0.324825

>  <SCORE.INTRA>
-3.79879

>  <SCORE.INTRA.DIHEDRAL>
-7.72687

>  <SCORE.INTRA.DIHEDRAL.0>
11.2357

>  <SCORE.INTRA.POLAR>
0

>  <SCORE.INTRA.POLAR.0>
0

>  <SCORE.INTRA.REPUL>
0

>  <SCORE.INTRA.REPUL.0>
0

>  <SCORE.INTRA.SOLV>
-3.00453

>  <SCORE.INTRA.SOLV.lig_0>
-83.3092

>  <SCORE.INTRA.VDW>
1.56691

>  <SCORE.INTRA.VDW.0>
-4.47057

>  <SCORE.INTRA.norm>
-0.122542

>  <SCORE.RESTR>
0

>  <SCORE.RESTR.CAVITY>
0

>  <SCORE.RESTR.norm>
0

>  <SCORE.SYSTEM>
0

>  <SCORE.SYSTEM.CONST>
0

>  <SCORE.SYSTEM.DIHEDRAL>
0

>  <SCORE.SYSTEM.SOLV>
0

>  <SCORE.SYSTEM.norm>
0

>  <SCORE.heavy>
31

>  <SCORE.norm>
-0.447366

>  <RMSD>
1.618

$$$$
ligand
 OpenBabel11021811433D
libRbt.so/2013.1/901 2013/11/27
 31 33  0  0  0  0  0  0  0  0999 V2000
   37.9559   26.8647    2.1442 C   0  0  0  0  0  0  0  0  0  0  0  0
   38.2695   24.9481   -2.8779 N   0  0  0  0  0  0  0  0  0  0  0  0
   39.1663   26.4445    1.4977 O   0  0  0  0  0  0  0  0  0  0  0  0
   37.6502   25.7472    3.1381 C   0  0  1  0  0  0  0  0  0  0  0  0
   42.5247   22.3720   -1.8851 N   0  0  0  0  0  0  0  0  0  0  0  0
   37.4986   24.3687    2.5209 O   0  0  0  0  0  0  0  0  0  0  0  0
   38.5641   23.5348    2.7689 C   0  0  1  0  0  0  0  0  0  0  0  0
   42.2878   17.9545    0.0786 N   0  0  0  0  0  0  0  0  0  0  0  0
   39.1275   22.8508    1.6845 O   0  0  0  0  0  0  0  0  0  0  0  0
   39.7868   23.5435    0.5263 C   0  0  2  0  0  0  0  0  0  0  0  0
   42.8539   23.6233    3.2850 N   0  0  0  0  0  0  0  0  0  0  0  0
   37.6687   24.7610    0.0542 O   0  0  0  0  0  0  0  0  0  0  0  0
   38.6923   23.8738   -0.5312 C   0  0  1  0  0  0  0  0  0  0  0  0
   41.8625   22.3415    0.8046 O   0  0  0  0  0  0  0  0  0  0  0  0
   39.3503   24.6066   -1.8051 C   0  0  1  0  0  0  0  0  0  0  0  0
   41.7509   20.2716    1.9743 O   0  0  0  0  0  0  0  0  0  0  0  0
   40.4469   23.6272   -2.4122 C   0  0  0  0  0  0  0  0  0  0  0  0
   45.4116   19.5996    2.1127 O   0  0  0  0  0  0  0  0  0  0  0  0
   41.5117   23.3015   -1.2841 C   0  0  1  0  0  0  0  0  0  0  0  0
   45.2715   21.9851    3.6762 O   0  0  0  0  0  0  0  0  0  0  0  0
   40.8841   22.5909   -0.1275 C   0  0  2  0  0  0  0  0  0  0  0  0
   40.2777   23.5486    4.4280 O   0  0  0  0  0  0  0  0  0  0  0  0
   41.7084   21.7670    2.1278 C   0  0  1  0  0  0  0  0  0  0  0  0
   38.0612   24.8742    5.4239 O   0  0  0  0  0  0  0  0  0  0  0  0
   43.0765   19.6941    1.4968 C   0  0  2  0  0  0  0  0  0  0  0  0
   42.9596   18.1803    1.3615 C   0  0  0  0  0  0  0  0  0  0  0  0
   44.1642   20.0935    2.5205 C   0  0  2  0  0  0  0  0  0  0  0  0
   44.2347   21.6039    2.6721 C   0  0  1  0  0  0  0  0  0  0  0  0
   42.8519   22.1172    3.1144 C   0  0  1  0  0  0  0  0  0  0  0  0
   39.5520   24.3602    3.5772 C   0  0  2  0  0  0  0  0  0  0  0  0
   38.6752   25.4685    4.2437 C   0  0  1  0  0  0  0  0  0  0  0  0
  1  3  1  0  0  0  0
  4  1  1  6  0  0  0
  4  6  1  0  0  0  0
  4 31  1  0  0  0  0
  6  7  1  0  0  0  0
  7  9  1  6  0  0  0
  7 30  1  0  0  0  0
  8 26  1  0  0  0  0
 10  9  1  1  0  0  0
 10 13  1  0  0  0  0
 10 21  1  0  0  0  0
 13 12  1  1  0  0  0
 13 15  1  0  0  0  0
 15  2  1  6  0  0  0
 15 17  1  0  0  0  0
 16 25  1  0  0  0  0
 16 23  1  0  0  0  0
 17 19  1  0  0  0  0
 19  5  1  6  0  0  0
 19 21  1  0  0  0  0
 21 14  1  1  0  0  0
 23 14  1  6  0  0  0
 23 29  1  0  0  0  0
 25 26  1  1  0  0  0
 25 27  1  0  0  0  0
 27 18  1  6  0  0  0
 27 28  1  0  0  0  0
 28 20  1  1  0  0  0
 28 29  1  0  0  0  0
 29 11  1  6  0  0  0
 30 22  1  1  0  0  0
 30 31  1  0  0  0  0
 31 24  1  1  0  0  0
M  END
>  <CHROM.1>
-57.76592838,63.01273969,-87.68227436,86.06436095,56.91662340,80.11203934
40.77010161,22.93782831,1.53207871,-3.05859671,0.74363367,-1.72187389

>  <Name>
ligand

>  <RI>
0

>  <Rbt.Current_Directory>
/home/itssahil/PROJECTS/Mol_Feturizer/New_Systems/rnas/2ET5

>  <Rbt.Executable>
rbdock ($Id: //depot/dev/client3/rdock/2013.1/src/exe/rbdock.cxx#4 $)

>  <Rbt.Library>
libRbt.so (2013.1, Build901 2013/11/27)

>  <Rbt.Parameter_File>
/export/apps/rDock/src/rDock_2013.1_src/data/scripts/dock_solv.prm

>  <Rbt.Receptor>
prm/pocket_docking_2.prm

>  <SCORE>
-4.02682

>  <SCORE.INTER>
-4.39972

>  <SCORE.INTER.CONST>
1

>  <SCORE.INTER.POLAR>
0

>  <SCORE.INTER.ROT>
6

>  <SCORE.INTER.SOLV>
21.2667

>  <SCORE.INTER.VDW>
-17.6221

>  <SCORE.INTER.norm>
-0.141927

>  <SCORE.INTRA>
-1.2773

>  <SCORE.INTRA.DIHEDRAL>
-3.64911

>  <SCORE.INTRA.DIHEDRAL.0>
11.2357

>  <SCORE.INTRA.POLAR>
0

>  <SCORE.INTRA.POLAR.0>
0

>  <SCORE.INTRA.REPUL>
0

>  <SCORE.INTRA.REPUL.0>
0

>  <SCORE.INTRA.SOLV>
0.0596842

>  <SCORE.INTRA.SOLV.lig_0>
-83.3092

>  <SCORE.INTRA.VDW>
0.517414

>  <SCORE.INTRA.VDW.0>
-4.47057

>  <SCORE.INTRA.norm>
-0.0412032

>  <SCORE.RESTR>
1.6502

>  <SCORE.RESTR.CAVITY>
1.6502

>  <SCORE.RESTR.norm>
0.0532322

>  <SCORE.SYSTEM>
0

>  <SCORE.SYSTEM.CONST>
0

>  <SCORE.SYSTEM.DIHEDRAL>
0

>  <SCORE.SYSTEM.SOLV>
0

>  <SCORE.SYSTEM.norm>
0

>  <SCORE.heavy>
31

>  <SCORE.norm>
-0.129898

>  <RMSD>
1.834

$$$$
ligand
 OpenBabel11021811433D
libRbt.so/2013.1/901 2013/11/27
 31 33  0  0  0  0  0  0  0  0999 V2000
   36.6370   24.7250    3.8595 C   0  0  0  0  0  0  0  0  0  0  0  0
   38.8724   24.4186   -3.7055 N   0  0  0  0  0  0  0  0  0  0  0  0
   36.4106   25.9929    4.4925 O   0  0  0  0  0  0  0  0  0  0  0  0
   38.0983   24.4057    4.1641 C   0  0  1  0  0  0  0  0  0  0  0  0
   42.6481   21.3982   -2.1727 N   0  0  0  0  0  0  0  0  0  0  0  0
   38.6571   23.2059    3.4209 O   0  0  0  0  0  0  0  0  0  0  0  0
   39.5251   23.5417    2.4080 C   0  0  1  0  0  0  0  0  0  0  0  0
   43.5697   17.0847    0.5130 N   0  0  0  0  0  0  0  0  0  0  0  0
   39.3261   22.9542    1.1524 O   0  0  0  0  0  0  0  0  0  0  0  0
   40.1023   23.3455   -0.0724 C   0  0  2  0  0  0  0  0  0  0  0  0
   43.0409   23.2122    2.8843 N   0  0  0  0  0  0  0  0  0  0  0  0
   38.2123   24.7892   -0.8038 O   0  0  0  0  0  0  0  0  0  0  0  0
   39.0882   23.6727   -1.2082 C   0  0  1  0  0  0  0  0  0  0  0  0
   41.9555   21.8931    0.4635 O   0  0  0  0  0  0  0  0  0  0  0  0
   39.8710   24.0851   -2.5535 C   0  0  1  0  0  0  0  0  0  0  0  0
   41.5567   19.9397    1.7636 O   0  0  0  0  0  0  0  0  0  0  0  0
   40.8045   22.8639   -2.9625 C   0  0  0  0  0  0  0  0  0  0  0  0
   45.0994   18.8308    2.0644 O   0  0  0  0  0  0  0  0  0  0  0  0
   41.7892   22.5569   -1.7589 C   0  0  1  0  0  0  0  0  0  0  0  0
   45.2233   21.3185    3.4611 O   0  0  0  0  0  0  0  0  0  0  0  0
   41.0415   22.1429   -0.5317 C   0  0  2  0  0  0  0  0  0  0  0  0
   40.8066   25.5027    1.9588 O   0  0  0  0  0  0  0  0  0  0  0  0
   41.6989   21.4359    1.8162 C   0  0  1  0  0  0  0  0  0  0  0  0
   40.3332   25.3507    4.6818 O   0  0  0  0  0  0  0  0  0  0  0  0
   42.8100   19.1706    1.3685 C   0  0  2  0  0  0  0  0  0  0  0  0
   42.5069   17.6772    1.3301 C   0  0  0  0  0  0  0  0  0  0  0  0
   43.9147   19.5026    2.3981 C   0  0  2  0  0  0  0  0  0  0  0  0
   44.1710   20.9995    2.4515 C   0  0  1  0  0  0  0  0  0  0  0  0
   42.8535   21.7098    2.8139 C   0  0  1  0  0  0  0  0  0  0  0  0
   39.5719   25.0610    2.3942 C   0  0  2  0  0  0  0  0  0  0  0  0
   39.1497   25.4737    3.8408 C   0  0  1  0  0  0  0  0  0  0  0  0
  1  3  1  0  0  0  0
  4  1  1  6  0  0  0
  4  6  1  0  0  0  0
  4 31  1  0  0  0  0
  6  7  1  0  0  0  0
  7  9  1  6  0  0  0
  7 30  1  0  0  0  0
  8 26  1  0  0  0  0
 10  9  1  1  0  0  0
 10 13  1  0  0  0  0
 10 21  1  0  0  0  0
 13 12  1  1  0  0  0
 13 15  1  0  0  0  0
 15  2  1  6  0  0  0
 15 17  1  0  0  0  0
 16 25  1  0  0  0  0
 16 23  1  0  0  0  0
 17 19  1  0  0  0  0
 19  5  1  6  0  0  0
 19 21  1  0  0  0  0
 21 14  1  1  0  0  0
 23 14  1  6  0  0  0
 23 29  1  0  0  0  0
 25 26  1  1  0  0  0
 25 27  1  0  0  0  0
 27 18  1  6  0  0  0
 27 28  1  0  0  0  0
 28 20  1  1  0  0  0
 28 29  1  0  0  0  0
 29 11  1  6  0  0  0
 30 22  1  1  0  0  0
 30 31  1  0  0  0  0
 31 24  1  1  0  0  0
M  END
>  <CHROM.1>
-170.96105498,173.04236809,-127.78624111,83.09838433,63.59734608,160.61514123
40.93699828,22.54101282,1.33342746,-2.94366524,0.78927640,-1.66679330

>  <Name>
ligand

>  <RI>
0

>  <Rbt.Current_Directory>
/home/itssahil/PROJECTS/Mol_Feturizer/New_Systems/rnas/2ET5

>  <Rbt.Executable>
rbdock ($Id: //depot/dev/client3/rdock/2013.1/src/exe/rbdock.cxx#4 $)

>  <Rbt.Library>
libRbt.so (2013.1, Build901 2013/11/27)

>  <Rbt.Parameter_File>
/export/apps/rDock/src/rDock_2013.1_src/data/scripts/dock_solv.prm

>  <Rbt.Receptor>
prm/pocket_docking_2.prm

>  <SCORE>
-6.33953

>  <SCORE.INTER>
-7.72371

>  <SCORE.INTER.CONST>
1

>  <SCORE.INTER.POLAR>
0

>  <SCORE.INTER.ROT>
6

>  <SCORE.INTER.SOLV>
21.0696

>  <SCORE.INTER.VDW>
-19.7723

>  <SCORE.INTER.norm>
-0.249152

>  <SCORE.INTRA>
0.619835

>  <SCORE.INTRA.DIHEDRAL>
-0.0543724

>  <SCORE.INTRA.DIHEDRAL.0>
11.2357

>  <SCORE.INTRA.POLAR>
0

>  <SCORE.INTRA.POLAR.0>
0

>  <SCORE.INTRA.REPUL>
0

>  <SCORE.INTRA.REPUL.0>
0

>  <SCORE.INTRA.SOLV>
-0.851822

>  <SCORE.INTRA.SOLV.lig_0>
-83.3092

>  <SCORE.INTRA.VDW>
1.07293

>  <SCORE.INTRA.VDW.0>
-4.47057

>  <SCORE.INTRA.norm>
0.0199947

>  <SCORE.RESTR>
0.764348

>  <SCORE.RESTR.CAVITY>
0.764348

>  <SCORE.RESTR.norm>
0.0246564

>  <SCORE.SYSTEM>
0

>  <SCORE.SYSTEM.CONST>
0

>  <SCORE.SYSTEM.DIHEDRAL>
0

>  <SCORE.SYSTEM.SOLV>
0

>  <SCORE.SYSTEM.norm>
0

>  <SCORE.heavy>
31

>  <SCORE.norm>
-0.204501

>  <RMSD>
1.848

$$$$
ligand
 OpenBabel11021811433D
libRbt.so/2013.1/901 2013/11/27
 31 33  0  0  0  0  0  0  0  0999 V2000
   36.4621   25.1294    4.0347 C   0  0  0  0  0  0  0  0  0  0  0  0
   38.8388   24.1960   -3.9940 N   0  0  0  0  0  0  0  0  0  0  0  0
   36.3745   25.3977    2.6276 O   0  0  0  0  0  0  0  0  0  0  0  0
   37.8918   24.6343    4.2373 C   0  0  1  0  0  0  0  0  0  0  0  0
   42.5894   21.6595   -1.7075 N   0  0  0  0  0  0  0  0  0  0  0  0
   38.2960   23.4722    3.3484 O   0  0  0  0  0  0  0  0  0  0  0  0
   39.1586   23.8270    2.3374 C   0  0  1  0  0  0  0  0  0  0  0  0
   43.8764   17.8641    0.4016 N   0  0  0  0  0  0  0  0  0  0  0  0
   38.8557   23.4018    1.0378 O   0  0  0  0  0  0  0  0  0  0  0  0
   39.7346   23.6841   -0.1470 C   0  0  2  0  0  0  0  0  0  0  0  0
   42.4115   23.5243    3.3924 N   0  0  0  0  0  0  0  0  0  0  0  0
   37.8570   24.8909   -1.2469 O   0  0  0  0  0  0  0  0  0  0  0  0
   38.8298   23.7933   -1.4099 C   0  0  1  0  0  0  0  0  0  0  0  0
   41.5967   22.4411    0.7578 O   0  0  0  0  0  0  0  0  0  0  0  0
   39.7267   24.0815   -2.7157 C   0  0  1  0  0  0  0  0  0  0  0  0
   41.3911   20.2909    1.7577 O   0  0  0  0  0  0  0  0  0  0  0  0
   40.7629   22.8837   -2.8635 C   0  0  0  0  0  0  0  0  0  0  0  0
   45.0290   19.5740    2.1081 O   0  0  0  0  0  0  0  0  0  0  0  0
   41.6302   22.8011   -1.5393 C   0  0  1  0  0  0  0  0  0  0  0  0
   44.7869   21.8374    3.8322 O   0  0  0  0  0  0  0  0  0  0  0  0
   40.7806   22.4986   -0.3463 C   0  0  2  0  0  0  0  0  0  0  0  0
   40.6214   25.6869    2.0367 O   0  0  0  0  0  0  0  0  0  0  0  0
   41.3444   21.7710    2.0196 C   0  0  1  0  0  0  0  0  0  0  0  0
   40.2298   25.2892    4.7478 O   0  0  0  0  0  0  0  0  0  0  0  0
   42.7451   19.7374    1.3347 C   0  0  2  0  0  0  0  0  0  0  0  0
   42.6314   18.2392    1.0780 C   0  0  0  0  0  0  0  0  0  0  0  0
   43.7576   20.0485    2.4611 C   0  0  2  0  0  0  0  0  0  0  0  0
   43.8238   21.5425    2.7304 C   0  0  1  0  0  0  0  0  0  0  0  0
   42.4150   22.0353    3.1094 C   0  0  1  0  0  0  0  0  0  0  0  0
   39.3632   25.3265    2.4797 C   0  0  2  0  0  0  0  0  0  0  0  0
   39.0370   25.6203    3.9792 C   0  0  1  0  0  0  0  0  0  0  0  0
  1  3  1  0  0  0  0
  4  1  1  6  0  0  0
  4  6  1  0  0  0  0
  4 31  1  0  0  0  0
  6  7  1  0  0  0  0
  7  9  1  6  0  0  0
  7 30  1  0  0  0  0
  8 26  1  0  0  0  0
 10  9  1  1  0  0  0
 10 13  1  0  0  0  0
 10 21  1  0  0  0  0
 13 12  1  1  0  0  0
 13 15  1  0  0  0  0
 15  2  1  6  0  0  0
 15 17  1  0  0  0  0
 16 25  1  0  0  0  0
 16 23  1  0  0  0  0
 17 19  1  0  0  0  0
 19  5  1  6  0  0  0
 19 21  1  0  0  0  0
 21 14  1  1  0  0  0
 23 14  1  6  0  0  0
 23 29  1  0  0  0  0
 25 26  1  1  0  0  0
 25 27  1  0  0  0  0
 27 18  1  6  0  0  0
 27 28  1  0  0  0  0
 28 20  1  1  0  0  0
 28 29  1  0  0  0  0
 29 11  1  6  0  0  0
 30 22  1  1  0  0  0
 30 31  1  0  0  0  0
 31 24  1  1  0  0  0
M  END
>  <CHROM.1>
-53.83125888,-178.04184896,-149.61997322,69.52516792,84.12901840,167.76475843
40.72658268,22.82642296,1.32204549,-2.99209261,0.72554200,-1.72591733

>  <Name>
ligand

>  <RI>
0

>  <Rbt.Current_Directory>
/home/itssahil/PROJECTS/Mol_Feturizer/New_Systems/rnas/2ET5

>  <Rbt.Executable>
rbdock ($Id: //depot/dev/client3/rdock/2013.1/src/exe/rbdock.cxx#4 $)

>  <Rbt.Library>
libRbt.so (2013.1, Build901 2013/11/27)

>  <Rbt.Parameter_File>
/export/apps/rDock/src/rDock_2013.1_src/data/scripts/dock_solv.prm

>  <Rbt.Receptor>
prm/pocket_docking_2.prm

>  <SCORE>
-5.67405

>  <SCORE.INTER>
-5.27239

>  <SCORE.INTER.CONST>
1

>  <SCORE.INTER.POLAR>
0

>  <SCORE.INTER.ROT>
6

>  <SCORE.INTER.SOLV>
19.5042

>  <SCORE.INTER.VDW>
-17.6163

>  <SCORE.INTER.norm>
-0.170077

>  <SCORE.INTRA>
-0.737837

>  <SCORE.INTRA.DIHEDRAL>
-3.80847

>  <SCORE.INTRA.DIHEDRAL.0>
11.2357

>  <SCORE.INTRA.POLAR>
0

>  <SCORE.INTRA.POLAR.0>
0

>  <SCORE.INTRA.REPUL>
0

>  <SCORE.INTRA.REPUL.0>
0

>  <SCORE.INTRA.SOLV>
1.76701

>  <SCORE.INTRA.SOLV.lig_0>
-83.3092

>  <SCORE.INTRA.VDW>
0.282893

>  <SCORE.INTRA.VDW.0>
-4.47057

>  <SCORE.INTRA.norm>
-0.0238012

>  <SCORE.RESTR>
0.336178

>  <SCORE.RESTR.CAVITY>
0.336178

>  <SCORE.RESTR.norm>
0.0108445

>  <SCORE.SYSTEM>
0

>  <SCORE.SYSTEM.CONST>
0

>  <SCORE.SYSTEM.DIHEDRAL>
0

>  <SCORE.SYSTEM.SOLV>
0

>  <SCORE.SYSTEM.norm>
0

>  <SCORE.heavy>
31

>  <SCORE.norm>
-0.183034

>  <RMSD>
1.882

$$$$
ligand
 OpenBabel11021811433D
libRbt.so/2013.1/901 2013/11/27
 31 33  0  0  0  0  0  0  0  0999 V2000
   36.1799   24.4591    3.5487 C   0  0  0  0  0  0  0  0  0  0  0  0
   38.9436   24.6131   -3.5035 N   0  0  0  0  0  0  0  0  0  0  0  0
   36.2650   24.4180    2.1167 O   0  0  0  0  0  0  0  0  0  0  0  0
   37.6292   24.3579    4.0169 C   0  0  1  0  0  0  0  0  0  0  0  0
   42.6511   21.4395   -2.1210 N   0  0  0  0  0  0  0  0  0  0  0  0
   38.4081   23.1931    3.4332 O   0  0  0  0  0  0  0  0  0  0  0  0
   39.3294   23.5685    2.4833 C   0  0  1  0  0  0  0  0  0  0  0  0
   42.4103   17.3809    0.0949 N   0  0  0  0  0  0  0  0  0  0  0  0
   39.3384   22.8728    1.2678 O   0  0  0  0  0  0  0  0  0  0  0  0
   40.1297   23.3163    0.0708 C   0  0  2  0  0  0  0  0  0  0  0  0
   42.7222   23.2170    3.0205 N   0  0  0  0  0  0  0  0  0  0  0  0
   38.2723   24.8349   -0.5891 O   0  0  0  0  0  0  0  0  0  0  0  0
   39.1293   23.7257   -1.0504 C   0  0  1  0  0  0  0  0  0  0  0  0
   41.9514   21.8007    0.5349 O   0  0  0  0  0  0  0  0  0  0  0  0
   39.9283   24.1968   -2.3665 C   0  0  1  0  0  0  0  0  0  0  0  0
   41.7250   19.7983    1.8015 O   0  0  0  0  0  0  0  0  0  0  0  0
   40.8409   22.9823   -2.8379 C   0  0  0  0  0  0  0  0  0  0  0  0
   45.3550   19.1350    2.3052 O   0  0  0  0  0  0  0  0  0  0  0  0
   41.8119   22.5899   -1.6480 C   0  0  1  0  0  0  0  0  0  0  0  0
   45.0868   21.6028    3.7168 O   0  0  0  0  0  0  0  0  0  0  0  0
   41.0486   22.1230   -0.4497 C   0  0  2  0  0  0  0  0  0  0  0  0
   40.3973   25.6450    1.9964 O   0  0  0  0  0  0  0  0  0  0  0  0
   41.6762   21.2999    1.8683 C   0  0  1  0  0  0  0  0  0  0  0  0
   39.6622   25.6241    4.6649 O   0  0  0  0  0  0  0  0  0  0  0  0
   43.0852   19.1954    1.4775 C   0  0  2  0  0  0  0  0  0  0  0  0
   42.9734   17.6765    1.4154 C   0  0  0  0  0  0  0  0  0  0  0  0
   44.0785   19.6505    2.5715 C   0  0  2  0  0  0  0  0  0  0  0  0
   44.1425   21.1670    2.6458 C   0  0  1  0  0  0  0  0  0  0  0  0
   42.7281   21.7038    2.9332 C   0  0  1  0  0  0  0  0  0  0  0  0
   39.1881   25.0758    2.3472 C   0  0  2  0  0  0  0  0  0  0  0  0
   38.5678   25.5300    3.7075 C   0  0  1  0  0  0  0  0  0  0  0  0
  1  3  1  0  0  0  0
  4  1  1  6  0  0  0
  4  6  1  0  0  0  0
  4 31  1  0  0  0  0
  6  7  1  0  0  0  0
  7  9  1  6  0  0  0
  7 30  1  0  0  0  0
  8 26  1  0  0  0  0
 10  9  1  1  0  0  0
 10 13  1  0  0  0  0
 10 21  1  0  0  0  0
 13 12  1  1  0  0  0
 13 15  1  0  0  0  0
 15  2  1  6  0  0  0
 15 17  1  0  0  0  0
 16 25  1  0  0  0  0
 16 23  1  0  0  0  0
 17 19  1  0  0  0  0
 19  5  1  6  0  0  0
 19 21  1  0  0  0  0
 21 14  1  1  0  0  0
 23 14  1  6  0  0  0
 23 29  1  0  0  0  0
 25 26  1  1  0  0  0
 25 27  1  0  0  0  0
 27 18  1  6  0  0  0
 27 28  1  0  0  0  0
 28 20  1  1  0  0  0
 28 29  1  0  0  0  0
 29 11  1  6  0  0  0
 30 22  1  1  0  0  0
 30 31  1  0  0  0  0
 31 24  1  1  0  0  0
M  END
>  <CHROM.1>
-52.08822121,169.75280086,-113.64052727,93.09044513,62.22192604,79.75129569
40.81729213,22.53410269,1.31002229,-3.06082531,0.74455471,-1.64900820

>  <Name>
ligand

>  <RI>
0

>  <Rbt.Current_Directory>
/home/itssahil/PROJECTS/Mol_Feturizer/New_Systems/rnas/2ET5

>  <Rbt.Executable>
rbdock ($Id: //depot/dev/client3/rdock/2013.1/src/exe/rbdock.cxx#4 $)

>  <Rbt.Library>
libRbt.so (2013.1, Build901 2013/11/27)

>  <Rbt.Parameter_File>
/export/apps/rDock/src/rDock_2013.1_src/data/scripts/dock_solv.prm

>  <Rbt.Receptor>
prm/pocket_docking_2.prm

>  <SCORE>
-6.74595

>  <SCORE.INTER>
-8.29334

>  <SCORE.INTER.CONST>
1

>  <SCORE.INTER.POLAR>
0

>  <SCORE.INTER.ROT>
6

>  <SCORE.INTER.SOLV>
24.2688

>  <SCORE.INTER.VDW>
-21.2185

>  <SCORE.INTER.norm>
-0.267527

>  <SCORE.INTRA>
0.9877

>  <SCORE.INTRA.DIHEDRAL>
2.08247

>  <SCORE.INTRA.DIHEDRAL.0>
11.2357

>  <SCORE.INTRA.POLAR>
0

>  <SCORE.INTRA.POLAR.0>
0

>  <SCORE.INTRA.REPUL>
0.000484117

>  <SCORE.INTRA.REPUL.0>
0

>  <SCORE.INTRA.SOLV>
-1.08904

>  <SCORE.INTRA.SOLV.lig_0>
-83.3092

>  <SCORE.INTRA.VDW>
0.488566

>  <SCORE.INTRA.VDW.0>
-4.47057

>  <SCORE.INTRA.norm>
0.0318613

>  <SCORE.RESTR>
0.559695

>  <SCORE.RESTR.CAVITY>
0.559695

>  <SCORE.RESTR.norm>
0.0180547

>  <SCORE.SYSTEM>
0

>  <SCORE.SYSTEM.CONST>
0

>  <SCORE.SYSTEM.DIHEDRAL>
0

>  <SCORE.SYSTEM.SOLV>
0

>  <SCORE.SYSTEM.norm>
0

>  <SCORE.heavy>
31

>  <SCORE.norm>
-0.217611

>  <RMSD>
1.890

$$$$
ligand
 OpenBabel11021811433D
libRbt.so/2013.1/901 2013/11/27
 31 33  0  0  0  0  0  0  0  0999 V2000
   36.1477   24.2871    3.5384 C   0  0  0  0  0  0  0  0  0  0  0  0
   38.8982   24.3202   -3.9269 N   0  0  0  0  0  0  0  0  0  0  0  0
   36.0641   24.4796    2.1187 O   0  0  0  0  0  0  0  0  0  0  0  0
   37.6360   24.4182    3.8511 C   0  0  1  0  0  0  0  0  0  0  0  0
   42.7099   21.4632   -2.1842 N   0  0  0  0  0  0  0  0  0  0  0  0
   38.5146   23.3466    3.2316 O   0  0  0  0  0  0  0  0  0  0  0  0
   39.2698   23.7979    2.1743 C   0  0  1  0  0  0  0  0  0  0  0  0
   42.5764   17.2455    1.9015 N   0  0  0  0  0  0  0  0  0  0  0  0
   39.2581   23.0467    0.9923 O   0  0  0  0  0  0  0  0  0  0  0  0
   40.0567   23.4145   -0.2253 C   0  0  2  0  0  0  0  0  0  0  0  0
   42.7775   23.0909    3.0487 N   0  0  0  0  0  0  0  0  0  0  0  0
   38.1495   24.7778   -1.0593 O   0  0  0  0  0  0  0  0  0  0  0  0
   39.0656   23.6719   -1.3988 C   0  0  1  0  0  0  0  0  0  0  0  0
   41.9327   22.0344    0.4127 O   0  0  0  0  0  0  0  0  0  0  0  0
   39.8735   24.0566   -2.7374 C   0  0  1  0  0  0  0  0  0  0  0  0
   41.7813   19.8661    1.3825 O   0  0  0  0  0  0  0  0  0  0  0  0
   40.8501   22.8476   -3.0761 C   0  0  0  0  0  0  0  0  0  0  0  0
   45.4364   19.2054    1.6558 O   0  0  0  0  0  0  0  0  0  0  0  0
   41.8094   22.6120   -1.8364 C   0  0  1  0  0  0  0  0  0  0  0  0
   45.1883   21.4378    3.4192 O   0  0  0  0  0  0  0  0  0  0  0  0
   41.0398   22.2224   -0.6148 C   0  0  2  0  0  0  0  0  0  0  0  0
   39.9659   25.9762    1.4962 O   0  0  0  0  0  0  0  0  0  0  0  0
   41.7148   21.3410    1.6682 C   0  0  1  0  0  0  0  0  0  0  0  0
   39.5156   25.9934    4.2273 O   0  0  0  0  0  0  0  0  0  0  0  0
   43.1363   19.3421    0.9265 C   0  0  2  0  0  0  0  0  0  0  0  0
   43.0428   17.8462    0.6486 C   0  0  0  0  0  0  0  0  0  0  0  0
   44.1640   19.6529    2.0391 C   0  0  2  0  0  0  0  0  0  0  0  0
   44.2103   21.1436    2.3304 C   0  0  1  0  0  0  0  0  0  0  0  0
   42.8006   21.6066    2.7426 C   0  0  1  0  0  0  0  0  0  0  0  0
   38.8954   25.2604    1.9969 C   0  0  2  0  0  0  0  0  0  0  0  0
   38.3559   25.6937    3.3978 C   0  0  1  0  0  0  0  0  0  0  0  0
  1  3  1  0  0  0  0
  4  1  1  6  0  0  0
  4  6  1  0  0  0  0
  4 31  1  0  0  0  0
  6  7  1  0  0  0  0
  7  9  1  6  0  0  0
  7 30  1  0  0  0  0
  8 26  1  0  0  0  0
 10  9  1  1  0  0  0
 10 13  1  0  0  0  0
 10 21  1  0  0  0  0
 13 12  1  1  0  0  0
 13 15  1  0  0  0  0
 15  2  1  6  0  0  0
 15 17  1  0  0  0  0
 16 25  1  0  0  0  0
 16 23  1  0  0  0  0
 17 19  1  0  0  0  0
 19  5  1  6  0  0  0
 19 21  1  0  0  0  0
 21 14  1  1  0  0  0
 23 14  1  6  0  0  0
 23 29  1  0  0  0  0
 25 26  1  1  0  0  0
 25 27  1  0  0  0  0
 27 18  1  6  0  0  0
 27 28  1  0  0  0  0
 28 20  1  1  0  0  0
 28 29  1  0  0  0  0
 29 11  1  6  0  0  0
 30 22  1  1  0  0  0
 30 31  1  0  0  0  0
 31 24  1  1  0  0  0
M  END
>  <CHROM.1>
-64.43381033,-178.84668574,-118.66236357,77.55626300,78.91204876,-57.47044823
40.78928819,22.57957106,1.07116478,-3.09834048,0.73492306,-1.60601395

>  <Name>
ligand

>  <RI>
0

>  <Rbt.Current_Directory>
/home/itssahil/PROJECTS/Mol_Feturizer/New_Systems/rnas/2ET5

>  <Rbt.Executable>
rbdock ($Id: //depot/dev/client3/rdock/2013.1/src/exe/rbdock.cxx#4 $)

>  <Rbt.Library>
libRbt.so (2013.1, Build901 2013/11/27)

>  <Rbt.Parameter_File>
/export/apps/rDock/src/rDock_2013.1_src/data/scripts/dock_solv.prm

>  <Rbt.Receptor>
prm/pocket_docking_4.prm

>  <SCORE>
-6.30637

>  <SCORE.INTER>
-6.38372

>  <SCORE.INTER.CONST>
1

>  <SCORE.INTER.POLAR>
0

>  <SCORE.INTER.ROT>
6

>  <SCORE.INTER.SOLV>
26.4835

>  <SCORE.INTER.VDW>
-20.6837

>  <SCORE.INTER.norm>
-0.205927

>  <SCORE.INTRA>
0.0773505

>  <SCORE.INTRA.DIHEDRAL>
-0.781121

>  <SCORE.INTRA.DIHEDRAL.0>
11.2357

>  <SCORE.INTRA.POLAR>
0

>  <SCORE.INTRA.POLAR.0>
0

>  <SCORE.INTRA.REPUL>
0

>  <SCORE.INTRA.REPUL.0>
0

>  <SCORE.INTRA.SOLV>
-0.332882

>  <SCORE.INTRA.SOLV.lig_0>
-83.3092

>  <SCORE.INTRA.VDW>
0.634352

>  <SCORE.INTRA.VDW.0>
-4.47057

>  <SCORE.INTRA.norm>
0.00249518

>  <SCORE.RESTR>
0

>  <SCORE.RESTR.CAVITY>
0

>  <SCORE.RESTR.norm>
0

>  <SCORE.SYSTEM>
0

>  <SCORE.SYSTEM.CONST>
0

>  <SCORE.SYSTEM.DIHEDRAL>
0

>  <SCORE.SYSTEM.SOLV>
0

>  <SCORE.SYSTEM.norm>
0

>  <SCORE.heavy>
31

>  <SCORE.norm>
-0.203431

>  <RMSD>
1.914

$$$$
ligand
 OpenBabel11021811433D
libRbt.so/2013.1/901 2013/11/27
 31 33  0  0  0  0  0  0  0  0999 V2000
   36.1775   25.1676    3.3091 C   0  0  0  0  0  0  0  0  0  0  0  0
   38.6274   24.6818   -3.3656 N   0  0  0  0  0  0  0  0  0  0  0  0
   35.3983   23.9761    3.4901 O   0  0  0  0  0  0  0  0  0  0  0  0
   37.5324   24.8311    3.9264 C   0  0  1  0  0  0  0  0  0  0  0  0
   42.3904   21.5202   -2.1116 N   0  0  0  0  0  0  0  0  0  0  0  0
   38.1449   23.5273    3.4479 O   0  0  0  0  0  0  0  0  0  0  0  0
   39.2073   23.7003    2.5915 C   0  0  1  0  0  0  0  0  0  0  0  0
   42.4430   17.5331    0.1108 N   0  0  0  0  0  0  0  0  0  0  0  0
   39.2119   22.9699    1.3966 O   0  0  0  0  0  0  0  0  0  0  0  0
   39.9549   23.4073    0.1667 C   0  0  2  0  0  0  0  0  0  0  0  0
   42.4729   23.3175    3.0774 N   0  0  0  0  0  0  0  0  0  0  0  0
   38.0710   24.9200   -0.4284 O   0  0  0  0  0  0  0  0  0  0  0  0
   38.9106   23.8090   -0.9166 C   0  0  1  0  0  0  0  0  0  0  0  0
   41.7953   21.8962    0.5676 O   0  0  0  0  0  0  0  0  0  0  0  0
   39.6566   24.2732   -2.2658 C   0  0  1  0  0  0  0  0  0  0  0  0
   41.7479   19.8552    1.7911 O   0  0  0  0  0  0  0  0  0  0  0  0
   40.5515   23.0568   -2.7657 C   0  0  0  0  0  0  0  0  0  0  0  0
   45.4254   19.4833    2.2484 O   0  0  0  0  0  0  0  0  0  0  0  0
   41.5691   22.6725   -1.6127 C   0  0  1  0  0  0  0  0  0  0  0  0
   44.9696   21.8895    3.7169 O   0  0  0  0  0  0  0  0  0  0  0  0
   40.8541   22.2119   -0.3825 C   0  0  2  0  0  0  0  0  0  0  0  0
   40.6706   25.5383    2.1792 O   0  0  0  0  0  0  0  0  0  0  0  0
   41.5764   21.3458    1.8919 C   0  0  1  0  0  0  0  0  0  0  0  0
   39.6845   25.7441    4.7574 O   0  0  0  0  0  0  0  0  0  0  0  0
   43.1497   19.3738    1.4419 C   0  0  2  0  0  0  0  0  0  0  0  0
   43.1628   17.8525    1.3469 C   0  0  0  0  0  0  0  0  0  0  0  0
   44.1136   19.8857    2.5372 C   0  0  2  0  0  0  0  0  0  0  0  0
   44.0533   21.4003    2.6448 C   0  0  1  0  0  0  0  0  0  0  0  0
   42.6025   21.8123    2.9563 C   0  0  1  0  0  0  0  0  0  0  0  0
   39.3509   25.2031    2.4137 C   0  0  2  0  0  0  0  0  0  0  0  0
   38.6906   25.8084    3.6940 C   0  0  1  0  0  0  0  0  0  0  0  0
  1  3  1  0  0  0  0
  4  1  1  6  0  0  0
  4  6  1  0  0  0  0
  4 31  1  0  0  0  0
  6  7  1  0  0  0  0
  7  9  1  6  0  0  0
  7 30  1  0  0  0  0
  8 26  1  0  0  0  0
 10  9  1  1  0  0  0
 10 13  1  0  0  0  0
 10 21  1  0  0  0  0
 13 12  1  1  0  0  0
 13 15  1  0  0  0  0
 15  2  1  6  0  0  0
 15 17  1  0  0  0  0
 16 25  1  0  0  0  0
 16 23  1  0  0  0  0
 17 19  1  0  0  0  0
 19  5  1  6  0  0  0
 19 21  1  0  0  0  0
 21 14  1  1  0  0  0
 23 14  1  6  0  0  0
 23 29  1  0  0  0  0
 25 26  1  1  0  0  0
 25 27  1  0  0  0  0
 27 18  1  6  0  0  0
 27 28  1  0  0  0  0
 28 20  1  1  0  0  0
 28 29  1  0  0  0  0
 29 11  1  6  0  0  0
 30 22  1  1  0  0  0
 30 31  1  0  0  0  0
 31 24  1  1  0  0  0
M  END
>  <CHROM.1>
50.56417077,155.38917756,-111.04236134,95.82604342,65.29061488,72.05036072
40.70305716,22.67529086,1.39339875,-2.97838064,0.70947108,-1.69735610

>  <Name>
ligand

>  <RI>
0

>  <Rbt.Current_Directory>
/home/itssahil/PROJECTS/Mol_Feturizer/New_Systems/rnas/2ET5

>  <Rbt.Executable>
rbdock ($Id: //depot/dev/client3/rdock/2013.1/src/exe/rbdock.cxx#4 $)

>  <Rbt.Library>
libRbt.so (2013.1, Build901 2013/11/27)

>  <Rbt.Parameter_File>
/export/apps/rDock/src/rDock_2013.1_src/data/scripts/dock_solv.prm

>  <Rbt.Receptor>
prm/pocket_docking_2.prm

>  <SCORE>
-4.89712

>  <SCORE.INTER>
-7.56174

>  <SCORE.INTER.CONST>
1

>  <SCORE.INTER.POLAR>
0

>  <SCORE.INTER.ROT>
6

>  <SCORE.INTER.SOLV>
23.2526

>  <SCORE.INTER.VDW>
-20.392

>  <SCORE.INTER.norm>
-0.243927

>  <SCORE.INTRA>
2.2525

>  <SCORE.INTRA.DIHEDRAL>
3.84415

>  <SCORE.INTRA.DIHEDRAL.0>
11.2357

>  <SCORE.INTRA.POLAR>
0

>  <SCORE.INTRA.POLAR.0>
0

>  <SCORE.INTRA.REPUL>
0

>  <SCORE.INTRA.REPUL.0>
0

>  <SCORE.INTRA.SOLV>
-0.827165

>  <SCORE.INTRA.SOLV.lig_0>
-83.3092

>  <SCORE.INTRA.VDW>
0.744008

>  <SCORE.INTRA.VDW.0>
-4.47057

>  <SCORE.INTRA.norm>
0.0726613

>  <SCORE.RESTR>
0.412129

>  <SCORE.RESTR.CAVITY>
0.412129

>  <SCORE.RESTR.norm>
0.0132945

>  <SCORE.SYSTEM>
0

>  <SCORE.SYSTEM.CONST>
0

>  <SCORE.SYSTEM.DIHEDRAL>
0

>  <SCORE.SYSTEM.SOLV>
0

>  <SCORE.SYSTEM.norm>
0

>  <SCORE.heavy>
31

>  <SCORE.norm>
-0.157971

>  <RMSD>
1.935

$$$$
ligand
 OpenBabel11021811433D
libRbt.so/2013.1/901 2013/11/27
 31 33  0  0  0  0  0  0  0  0999 V2000
   35.8503   24.7349    3.0159 C   0  0  0  0  0  0  0  0  0  0  0  0
   38.9307   24.2852   -3.7900 N   0  0  0  0  0  0  0  0  0  0  0  0
   35.3986   23.5824    3.7422 O   0  0  0  0  0  0  0  0  0  0  0  0
   37.2782   24.9565    3.5080 C   0  0  1  0  0  0  0  0  0  0  0  0
   42.6027   21.2849   -1.9893 N   0  0  0  0  0  0  0  0  0  0  0  0
   38.2409   23.8232    3.2029 O   0  0  0  0  0  0  0  0  0  0  0  0
   39.1373   24.1174    2.2019 C   0  0  1  0  0  0  0  0  0  0  0  0
   42.4082   17.5914    0.4542 N   0  0  0  0  0  0  0  0  0  0  0  0
   39.2976   23.1840    1.1701 O   0  0  0  0  0  0  0  0  0  0  0  0
   40.0959   23.4585   -0.0721 C   0  0  2  0  0  0  0  0  0  0  0  0
   42.5754   23.5723    3.0121 N   0  0  0  0  0  0  0  0  0  0  0  0
   38.2554   24.8951   -0.9325 O   0  0  0  0  0  0  0  0  0  0  0  0
   39.1021   23.7265   -1.2408 C   0  0  1  0  0  0  0  0  0  0  0  0
   41.9011   21.9993    0.5936 O   0  0  0  0  0  0  0  0  0  0  0  0
   39.9087   24.0126   -2.6047 C   0  0  1  0  0  0  0  0  0  0  0  0
   41.7401   20.0565    1.9591 O   0  0  0  0  0  0  0  0  0  0  0  0
   40.8099   22.7377   -2.9091 C   0  0  0  0  0  0  0  0  0  0  0  0
   45.3870   19.5749    2.5417 O   0  0  0  0  0  0  0  0  0  0  0  0
   41.7743   22.4958   -1.6746 C   0  0  1  0  0  0  0  0  0  0  0  0
   44.9951   22.0979    3.8204 O   0  0  0  0  0  0  0  0  0  0  0  0
   41.0038   22.1981   -0.4279 C   0  0  2  0  0  0  0  0  0  0  0  0
   39.9135   26.1751    1.2782 O   0  0  0  0  0  0  0  0  0  0  0  0
   41.6276   21.5560    1.9477 C   0  0  1  0  0  0  0  0  0  0  0  0
   39.0780   26.6235    3.8788 O   0  0  0  0  0  0  0  0  0  0  0  0
   43.1290   19.4962    1.6837 C   0  0  2  0  0  0  0  0  0  0  0  0
   43.0818   17.9727    1.6988 C   0  0  0  0  0  0  0  0  0  0  0  0
   44.0862   20.0485    2.7651 C   0  0  2  0  0  0  0  0  0  0  0  0
   44.0857   21.5681    2.7617 C   0  0  1  0  0  0  0  0  0  0  0  0
   42.6459   22.0583    3.0033 C   0  0  1  0  0  0  0  0  0  0  0  0
   38.7856   25.5206    1.7352 C   0  0  2  0  0  0  0  0  0  0  0  0
   38.0498   26.1608    2.9559 C   0  0  1  0  0  0  0  0  0  0  0  0
  1  3  1  0  0  0  0
  4  1  1  6  0  0  0
  4  6  1  0  0  0  0
  4 31  1  0  0  0  0
  6  7  1  0  0  0  0
  7  9  1  6  0  0  0
  7 30  1  0  0  0  0
  8 26  1  0  0  0  0
 10  9  1  1  0  0  0
 10 13  1  0  0  0  0
 10 21  1  0  0  0  0
 13 12  1  1  0  0  0
 13 15  1  0  0  0  0
 15  2  1  6  0  0  0
 15 17  1  0  0  0  0
 16 25  1  0  0  0  0
 16 23  1  0  0  0  0
 17 19  1  0  0  0  0
 19  5  1  6  0  0  0
 19 21  1  0  0  0  0
 21 14  1  1  0  0  0
 23 14  1  6  0  0  0
 23 29  1  0  0  0  0
 25 26  1  1  0  0  0
 25 27  1  0  0  0  0
 27 18  1  6  0  0  0
 27 28  1  0  0  0  0
 28 20  1  1  0  0  0
 28 29  1  0  0  0  0
 29 11  1  6  0  0  0
 30 22  1  1  0  0  0
 30 31  1  0  0  0  0
 31 24  1  1  0  0  0
M  END
>  <CHROM.1>
62.76692651,171.40419343,-104.10042903,91.19853809,68.71285055,73.37119128
40.66856028,22.77386308,1.24522430,-3.08892813,0.71331471,-1.63433096

>  <Name>
ligand

>  <RI>
0

>  <Rbt.Current_Directory>
/home/itssahil/PROJECTS/Mol_Feturizer/New_Systems/rnas/2ET5

>  <Rbt.Executable>
rbdock ($Id: //depot/dev/client3/rdock/2013.1/src/exe/rbdock.cxx#4 $)

>  <Rbt.Library>
libRbt.so (2013.1, Build901 2013/11/27)

>  <Rbt.Parameter_File>
/export/apps/rDock/src/rDock_2013.1_src/data/scripts/dock_solv.prm

>  <Rbt.Receptor>
prm/pocket_docking_3.prm

>  <SCORE>
-8.17416

>  <SCORE.INTER>
-8.18481

>  <SCORE.INTER.CONST>
1

>  <SCORE.INTER.POLAR>
0

>  <SCORE.INTER.ROT>
6

>  <SCORE.INTER.SOLV>
24.27

>  <SCORE.INTER.VDW>
-21.1465

>  <SCORE.INTER.norm>
-0.264026

>  <SCORE.INTRA>
0.0101123

>  <SCORE.INTRA.DIHEDRAL>
0.0849061

>  <SCORE.INTRA.DIHEDRAL.0>
11.2357

>  <SCORE.INTRA.POLAR>
0

>  <SCORE.INTRA.POLAR.0>
0

>  <SCORE.INTRA.REPUL>
0

>  <SCORE.INTRA.REPUL.0>
0

>  <SCORE.INTRA.SOLV>
-2.29284

>  <SCORE.INTRA.SOLV.lig_0>
-83.3092

>  <SCORE.INTRA.VDW>
1.11408

>  <SCORE.INTRA.VDW.0>
-4.47057

>  <SCORE.INTRA.norm>
0.000326204

>  <SCORE.RESTR>
0.000542825

>  <SCORE.RESTR.CAVITY>
0.000542825

>  <SCORE.RESTR.norm>
1.75105e-05

>  <SCORE.SYSTEM>
0

>  <SCORE.SYSTEM.CONST>
0

>  <SCORE.SYSTEM.DIHEDRAL>
0

>  <SCORE.SYSTEM.SOLV>
0

>  <SCORE.SYSTEM.norm>
0

>  <SCORE.heavy>
31

>  <SCORE.norm>
-0.263682

>  <RMSD>
1.945

$$$$
ligand
 OpenBabel11021811433D
libRbt.so/2013.1/901 2013/11/27
 31 33  0  0  0  0  0  0  0  0999 V2000
   37.6927   25.6844    4.1834 C   0  0  0  0  0  0  0  0  0  0  0  0
   39.0358   24.0351   -3.8357 N   0  0  0  0  0  0  0  0  0  0  0  0
   36.5349   24.8861    4.4697 O   0  0  0  0  0  0  0  0  0  0  0  0
   38.8678   24.7292    4.3754 C   0  0  1  0  0  0  0  0  0  0  0  0
   42.6788   21.1585   -1.7905 N   0  0  0  0  0  0  0  0  0  0  0  0
   38.8314   23.4896    3.5002 O   0  0  0  0  0  0  0  0  0  0  0  0
   39.7454   23.5148    2.4726 C   0  0  1  0  0  0  0  0  0  0  0  0
   43.5818   17.1883    0.2439 N   0  0  0  0  0  0  0  0  0  0  0  0
   39.2919   23.2062    1.1840 O   0  0  0  0  0  0  0  0  0  0  0  0
   40.1177   23.4177   -0.0525 C   0  0  2  0  0  0  0  0  0  0  0  0
   43.0437   22.9814    3.2927 N   0  0  0  0  0  0  0  0  0  0  0  0
   38.2911   24.7947   -1.0318 O   0  0  0  0  0  0  0  0  0  0  0  0
   39.1502   23.6162   -1.2567 C   0  0  1  0  0  0  0  0  0  0  0  0
   41.9137   22.0075    0.7329 O   0  0  0  0  0  0  0  0  0  0  0  0
   39.9871   23.8328   -2.6151 C   0  0  1  0  0  0  0  0  0  0  0  0
   41.5204   19.8981    1.7629 O   0  0  0  0  0  0  0  0  0  0  0  0
   40.9012   22.5486   -2.8290 C   0  0  0  0  0  0  0  0  0  0  0  0
   45.0594   18.7413    1.8559 O   0  0  0  0  0  0  0  0  0  0  0  0
   41.8376   22.3797   -1.5612 C   0  0  1  0  0  0  0  0  0  0  0  0
   45.2211   21.0164    3.5741 O   0  0  0  0  0  0  0  0  0  0  0  0
   41.0395   22.1454   -0.3183 C   0  0  2  0  0  0  0  0  0  0  0  0
   41.7537   24.7535    2.1234 O   0  0  0  0  0  0  0  0  0  0  0  0
   41.6738   21.3726    2.0151 C   0  0  1  0  0  0  0  0  0  0  0  0
   41.2969   24.5438    4.8453 O   0  0  0  0  0  0  0  0  0  0  0  0
   42.7624   19.1833    1.2479 C   0  0  2  0  0  0  0  0  0  0  0  0
   42.4484   17.7104    1.0126 C   0  0  0  0  0  0  0  0  0  0  0  0
   43.8844   19.3676    2.2957 C   0  0  2  0  0  0  0  0  0  0  0  0
   44.1518   20.8422    2.5471 C   0  0  1  0  0  0  0  0  0  0  0  0
   42.8449   21.5033    3.0227 C   0  0  1  0  0  0  0  0  0  0  0  0
   40.4564   24.8534    2.5882 C   0  0  2  0  0  0  0  0  0  0  0  0
   40.2778   25.2575    4.0869 C   0  0  1  0  0  0  0  0  0  0  0  0
  1  3  1  0  0  0  0
  4  1  1  6  0  0  0
  4  6  1  0  0  0  0
  4 31  1  0  0  0  0
  6  7  1  0  0  0  0
  7  9  1  6  0  0  0
  7 30  1  0  0  0  0
  8 26  1  0  0  0  0
 10  9  1  1  0  0  0
 10 13  1  0  0  0  0
 10 21  1  0  0  0  0
 13 12  1  1  0  0  0
 13 15  1  0  0  0  0
 15  2  1  6  0  0  0
 15 17  1  0  0  0  0
 16 25  1  0  0  0  0
 16 23  1  0  0  0  0
 17 19  1  0  0  0  0
 19  5  1  6  0  0  0
 19 21  1  0  0  0  0
 21 14  1  1  0  0  0
 23 14  1  6  0  0  0
 23 29  1  0  0  0  0
 25 26  1  1  0  0  0
 25 27  1  0  0  0  0
 27 18  1  6  0  0  0
 27 28  1  0  0  0  0
 28 20  1  1  0  0  0
 28 29  1  0  0  0  0
 29 11  1  6  0  0  0
 30 22  1  1  0  0  0
 30 31  1  0  0  0  0
 31 24  1  1  0  0  0
M  END
>  <CHROM.1>
58.24320561,169.39063120,-153.84694531,68.33806235,83.02333913,167.41142259
41.14799958,22.41788123,1.40239370,-2.84459170,0.79983605,-1.77926410

>  <Name>
ligand

>  <RI>
0

>  <Rbt.Current_Directory>
/home/itssahil/PROJECTS/Mol_Feturizer/New_Systems/rnas/2ET5

>  <Rbt.Executable>
rbdock ($Id: //depot/dev/client3/rdock/2013.1/src/exe/rbdock.cxx#4 $)

>  <Rbt.Library>
libRbt.so (2013.1, Build901 2013/11/27)

>  <Rbt.Parameter_File>
/export/apps/rDock/src/rDock_2013.1_src/data/scripts/dock_solv.prm

>  <Rbt.Receptor>
prm/pocket_docking_2.prm

>  <SCORE>
-5.1081

>  <SCORE.INTER>
-5.956

>  <SCORE.INTER.CONST>
1

>  <SCORE.INTER.POLAR>
0

>  <SCORE.INTER.ROT>
6

>  <SCORE.INTER.SOLV>
21.4634

>  <SCORE.INTER.VDW>
-18.7251

>  <SCORE.INTER.norm>
-0.192129

>  <SCORE.INTRA>
0.197517

>  <SCORE.INTRA.DIHEDRAL>
-4.4847

>  <SCORE.INTRA.DIHEDRAL.0>
11.2357

>  <SCORE.INTRA.POLAR>
0

>  <SCORE.INTRA.POLAR.0>
0

>  <SCORE.INTRA.REPUL>
0

>  <SCORE.INTRA.REPUL.0>
0

>  <SCORE.INTRA.SOLV>
2.31047

>  <SCORE.INTRA.SOLV.lig_0>
-83.3092

>  <SCORE.INTRA.VDW>
1.28464

>  <SCORE.INTRA.VDW.0>
-4.47057

>  <SCORE.INTRA.norm>
0.0063715

>  <SCORE.RESTR>
0.650385

>  <SCORE.RESTR.CAVITY>
0.650385

>  <SCORE.RESTR.norm>
0.0209802

>  <SCORE.SYSTEM>
0

>  <SCORE.SYSTEM.CONST>
0

>  <SCORE.SYSTEM.DIHEDRAL>
0

>  <SCORE.SYSTEM.SOLV>
0

>  <SCORE.SYSTEM.norm>
0

>  <SCORE.heavy>
31

>  <SCORE.norm>
-0.164778

>  <RMSD>
1.949

$$$$
ligand
 OpenBabel11021811433D
libRbt.so/2013.1/901 2013/11/27
 31 33  0  0  0  0  0  0  0  0999 V2000
   36.2931   24.7160    3.2836 C   0  0  0  0  0  0  0  0  0  0  0  0
   38.7388   24.5483   -3.2444 N   0  0  0  0  0  0  0  0  0  0  0  0
   35.6209   23.6055    3.8957 O   0  0  0  0  0  0  0  0  0  0  0  0
   37.6960   24.6869    3.8845 C   0  0  1  0  0  0  0  0  0  0  0  0
   42.5925   21.4214   -2.1955 N   0  0  0  0  0  0  0  0  0  0  0  0
   38.5231   23.4692    3.5143 O   0  0  0  0  0  0  0  0  0  0  0  0
   39.5239   23.7383    2.6098 C   0  0  1  0  0  0  0  0  0  0  0  0
   43.6025   16.9003    0.5099 N   0  0  0  0  0  0  0  0  0  0  0  0
   39.6393   22.9028    1.4918 O   0  0  0  0  0  0  0  0  0  0  0  0
   40.2989   23.3272    0.2109 C   0  0  2  0  0  0  0  0  0  0  0  0
   43.5961   23.0489    2.8048 N   0  0  0  0  0  0  0  0  0  0  0  0
   38.3721   24.8230   -0.2807 O   0  0  0  0  0  0  0  0  0  0  0  0
   39.1845   23.7095   -0.8077 C   0  0  1  0  0  0  0  0  0  0  0  0
   42.1697   21.8303    0.5115 O   0  0  0  0  0  0  0  0  0  0  0  0
   39.8392   24.1592   -2.2083 C   0  0  1  0  0  0  0  0  0  0  0  0
   41.7999   19.8866    1.8344 O   0  0  0  0  0  0  0  0  0  0  0  0
   40.7067   22.9405   -2.7491 C   0  0  0  0  0  0  0  0  0  0  0  0
   45.2799   18.5641    1.7291 O   0  0  0  0  0  0  0  0  0  0  0  0
   41.7987   22.5764   -1.6595 C   0  0  1  0  0  0  0  0  0  0  0  0
   45.7097   21.0204    3.1204 O   0  0  0  0  0  0  0  0  0  0  0  0
   41.1673   22.1288   -0.3798 C   0  0  2  0  0  0  0  0  0  0  0  0
   40.6298   25.7533    1.9722 O   0  0  0  0  0  0  0  0  0  0  0  0
   42.0379   21.3707    1.8812 C   0  0  1  0  0  0  0  0  0  0  0  0
   39.6642   26.0430    4.5501 O   0  0  0  0  0  0  0  0  0  0  0  0
   42.9523   19.0494    1.2961 C   0  0  2  0  0  0  0  0  0  0  0  0
   42.5564   17.5775    1.2815 C   0  0  0  0  0  0  0  0  0  0  0  0
   44.1828   19.3008    2.1979 C   0  0  2  0  0  0  0  0  0  0  0  0
   44.5341   20.7788    2.2327 C   0  0  1  0  0  0  0  0  0  0  0  0
   43.3109   21.5614    2.7453 C   0  0  1  0  0  0  0  0  0  0  0  0
   39.3947   25.2171    2.2825 C   0  0  2  0  0  0  0  0  0  0  0  0
   38.6578   25.8237    3.5196 C   0  0  1  0  0  0  0  0  0  0  0  0
  1  3  1  0  0  0  0
  4  1  1  6  0  0  0
  4  6  1  0  0  0  0
  4 31  1  0  0  0  0
  6  7  1  0  0  0  0
  7  9  1  6  0  0  0
  7 30  1  0  0  0  0
  8 26  1  0  0  0  0
 10  9  1  1  0  0  0
 10 13  1  0  0  0  0
 10 21  1  0  0  0  0
 13 12  1  1  0  0  0
 13 15  1  0  0  0  0
 15  2  1  6  0  0  0
 15 17  1  0  0  0  0
 16 25  1  0  0  0  0
 16 23  1  0  0  0  0
 17 19  1  0  0  0  0
 19  5  1  6  0  0  0
 19 21  1  0  0  0  0
 21 14  1  1  0  0  0
 23 14  1  6  0  0  0
 23 29  1  0  0  0  0
 25 26  1  1  0  0  0
 25 27  1  0  0  0  0
 27 18  1  6  0  0  0
 27 28  1  0  0  0  0
 28 20  1  1  0  0  0
 28 29  1  0  0  0  0
 29 11  1  6  0  0  0
 30 22  1  1  0  0  0
 30 31  1  0  0  0  0
 31 24  1  1  0  0  0
M  END
>  <CHROM.1>
65.42612836,156.73475012,-100.52568206,82.03461057,61.33671392,168.92680679
40.95735585,22.47509783,1.32826272,-3.01928818,0.74999374,-1.59720219

>  <Name>
ligand

>  <RI>
0

>  <Rbt.Current_Directory>
/home/itssahil/PROJECTS/Mol_Feturizer/New_Systems/rnas/2ET5

>  <Rbt.Executable>
rbdock ($Id: //depot/dev/client3/rdock/2013.1/src/exe/rbdock.cxx#4 $)

>  <Rbt.Library>
libRbt.so (2013.1, Build901 2013/11/27)

>  <Rbt.Parameter_File>
/export/apps/rDock/src/rDock_2013.1_src/data/scripts/dock_solv.prm

>  <Rbt.Receptor>
prm/pocket_docking_3.prm

>  <SCORE>
-8.0272

>  <SCORE.INTER>
-8.5442

>  <SCORE.INTER.CONST>
1

>  <SCORE.INTER.POLAR>
0

>  <SCORE.INTER.ROT>
6

>  <SCORE.INTER.SOLV>
20.7498

>  <SCORE.INTER.VDW>
-20.2127

>  <SCORE.INTER.norm>
-0.275619

>  <SCORE.INTRA>
0.496551

>  <SCORE.INTRA.DIHEDRAL>
-0.645919

>  <SCORE.INTRA.DIHEDRAL.0>
11.2357

>  <SCORE.INTRA.POLAR>
0

>  <SCORE.INTRA.POLAR.0>
0

>  <SCORE.INTRA.REPUL>
0

>  <SCORE.INTRA.REPUL.0>
0

>  <SCORE.INTRA.SOLV>
-2.02366

>  <SCORE.INTRA.SOLV.lig_0>
-83.3092

>  <SCORE.INTRA.VDW>
1.83134

>  <SCORE.INTRA.VDW.0>
-4.47057

>  <SCORE.INTRA.norm>
0.0160178

>  <SCORE.RESTR>
0.0204472

>  <SCORE.RESTR.CAVITY>
0.0204472

>  <SCORE.RESTR.norm>
0.000659588

>  <SCORE.SYSTEM>
0

>  <SCORE.SYSTEM.CONST>
0

>  <SCORE.SYSTEM.DIHEDRAL>
0

>  <SCORE.SYSTEM.SOLV>
0

>  <SCORE.SYSTEM.norm>
0

>  <SCORE.heavy>
31

>  <SCORE.norm>
-0.258942

>  <RMSD>
1.961

$$$$
ligand
 OpenBabel11021811433D
libRbt.so/2013.1/901 2013/11/27
 31 33  0  0  0  0  0  0  0  0999 V2000
   36.6315   24.0517    3.4654 C   0  0  0  0  0  0  0  0  0  0  0  0
   39.9256   23.5156   -4.4950 N   0  0  0  0  0  0  0  0  0  0  0  0
   36.4689   24.9766    4.5506 O   0  0  0  0  0  0  0  0  0  0  0  0
   38.0865   23.6015    3.5667 C   0  0  1  0  0  0  0  0  0  0  0  0
   42.6667   21.0592   -1.0049 N   0  0  0  0  0  0  0  0  0  0  0  0
   38.7332   23.2320    2.2441 O   0  0  0  0  0  0  0  0  0  0  0  0
   39.6391   24.1647    1.7952 C   0  0  1  0  0  0  0  0  0  0  0  0
   43.7673   18.1445    0.6474 N   0  0  0  0  0  0  0  0  0  0  0  0
   39.5316   24.5970    0.4674 O   0  0  0  0  0  0  0  0  0  0  0  0
   40.4948   24.1916   -0.6113 C   0  0  2  0  0  0  0  0  0  0  0  0
   42.8423   23.9946    3.4780 N   0  0  0  0  0  0  0  0  0  0  0  0
   39.1023   25.3809   -2.2959 O   0  0  0  0  0  0  0  0  0  0  0  0
   39.7080   24.0803   -1.9507 C   0  0  1  0  0  0  0  0  0  0  0  0
   41.8685   22.9043    0.9010 O   0  0  0  0  0  0  0  0  0  0  0  0
   40.6943   23.6321   -3.1418 C   0  0  1  0  0  0  0  0  0  0  0  0
   41.5180   20.8086    1.9735 O   0  0  0  0  0  0  0  0  0  0  0  0
   41.3300   22.2303   -2.7405 C   0  0  0  0  0  0  0  0  0  0  0  0
   45.0944   19.8074    2.2527 O   0  0  0  0  0  0  0  0  0  0  0  0
   42.0870   22.3974   -1.3579 C   0  0  1  0  0  0  0  0  0  0  0  0
   45.0850   22.1330    3.9099 O   0  0  0  0  0  0  0  0  0  0  0  0
   41.1453   22.7798   -0.2608 C   0  0  2  0  0  0  0  0  0  0  0  0
   40.8603   25.8939    2.8943 O   0  0  0  0  0  0  0  0  0  0  0  0
   41.5986   22.2947    2.1894 C   0  0  1  0  0  0  0  0  0  0  0  0
   40.2497   23.9224    4.7387 O   0  0  0  0  0  0  0  0  0  0  0  0
   42.8103   20.1341    1.5335 C   0  0  2  0  0  0  0  0  0  0  0  0
   42.5686   18.6433    1.3275 C   0  0  0  0  0  0  0  0  0  0  0  0
   43.8760   20.3944    2.6231 C   0  0  2  0  0  0  0  0  0  0  0  0
   44.0705   21.8854    2.8431 C   0  0  1  0  0  0  0  0  0  0  0  0
   42.7173   22.5026    3.2425 C   0  0  1  0  0  0  0  0  0  0  0  0
   39.6236   25.2815    2.8262 C   0  0  2  0  0  0  0  0  0  0  0  0
   39.1085   24.5949    4.1318 C   0  0  1  0  0  0  0  0  0  0  0  0
  1  3  1  0  0  0  0
  4  1  1  6  0  0  0
  4  6  1  0  0  0  0
  4 31  1  0  0  0  0
  6  7  1  0  0  0  0
  7  9  1  6  0  0  0
  7 30  1  0  0  0  0
  8 26  1  0  0  0  0
 10  9  1  1  0  0  0
 10 13  1  0  0  0  0
 10 21  1  0  0  0  0
 13 12  1  6  0  0  0
 13 15  1  0  0  0  0
 15  2  1  6  0  0  0
 15 17  1  0  0  0  0
 16 25  1  0  0  0  0
 16 23  1  0  0  0  0
 17 19  1  0  0  0  0
 19  5  1  1  0  0  0
 19 21  1  0  0  0  0
 21 14  1  1  0  0  0
 23 14  1  6  0  0  0
 23 29  1  0  0  0  0
 25 26  1  1  0  0  0
 25 27  1  0  0  0  0
 27 18  1  6  0  0  0
 27 28  1  0  0  0  0
 28 20  1  1  0  0  0
 28 29  1  0  0  0  0
 29 11  1  6  0  0  0
 30 22  1  1  0  0  0
 30 31  1  0  0  0  0
 31 24  1  6  0  0  0
M  END
>  <CHROM.1>
-149.81159754,-107.08016511,146.26612110,55.88398164,113.23135309,168.49286360
41.08178579,22.83299025,1.32302031,-3.02236933,0.69553241,-1.60297954

>  <Name>
ligand

>  <RI>
0

>  <Rbt.Current_Directory>
/home/itssahil/PROJECTS/Mol_Feturizer/New_Systems/rnas/2ET5

>  <Rbt.Executable>
rbdock ($Id: //depot/dev/client3/rdock/2013.1/src/exe/rbdock.cxx#4 $)

>  <Rbt.Library>
libRbt.so (2013.1, Build901 2013/11/27)

>  <Rbt.Parameter_File>
/export/apps/rDock/src/rDock_2013.1_src/data/scripts/dock_solv.prm

>  <Rbt.Receptor>
prm/pocket_docking_2.prm

>  <SCORE>
3.12047

>  <SCORE.INTER>
-8.12849

>  <SCORE.INTER.CONST>
1

>  <SCORE.INTER.POLAR>
0

>  <SCORE.INTER.ROT>
6

>  <SCORE.INTER.SOLV>
17.1263

>  <SCORE.INTER.VDW>
-18.7278

>  <SCORE.INTER.norm>
-0.262209

>  <SCORE.INTRA>
10.8588

>  <SCORE.INTRA.DIHEDRAL>
9.61364

>  <SCORE.INTRA.DIHEDRAL.0>
11.2357

>  <SCORE.INTRA.POLAR>
0

>  <SCORE.INTRA.POLAR.0>
0

>  <SCORE.INTRA.REPUL>
0

>  <SCORE.INTRA.REPUL.0>
0

>  <SCORE.INTRA.SOLV>
5.48904

>  <SCORE.INTRA.SOLV.lig_0>
-83.3092

>  <SCORE.INTRA.VDW>
3.30747

>  <SCORE.INTRA.VDW.0>
-4.47057

>  <SCORE.INTRA.norm>
0.350284

>  <SCORE.RESTR>
0.39015

>  <SCORE.RESTR.CAVITY>
0.39015

>  <SCORE.RESTR.norm>
0.0125855

>  <SCORE.SYSTEM>
0

>  <SCORE.SYSTEM.CONST>
0

>  <SCORE.SYSTEM.DIHEDRAL>
0

>  <SCORE.SYSTEM.SOLV>
0

>  <SCORE.SYSTEM.norm>
0

>  <SCORE.heavy>
31

>  <SCORE.norm>
0.10066

>  <RMSD>
1.969

$$$$
ligand
 OpenBabel11021811433D
libRbt.so/2013.1/901 2013/11/27
 31 33  0  0  0  0  0  0  0  0999 V2000
   35.6983   24.7822    3.0934 C   0  0  0  0  0  0  0  0  0  0  0  0
   38.7878   24.4741   -4.0026 N   0  0  0  0  0  0  0  0  0  0  0  0
   35.3042   23.5675    3.7482 O   0  0  0  0  0  0  0  0  0  0  0  0
   37.1486   24.9897    3.5220 C   0  0  1  0  0  0  0  0  0  0  0  0
   42.5615   21.6847   -2.0773 N   0  0  0  0  0  0  0  0  0  0  0  0
   38.1038   23.8908    3.0928 O   0  0  0  0  0  0  0  0  0  0  0  0
   38.9421   24.2605    2.0668 C   0  0  1  0  0  0  0  0  0  0  0  0
   42.3219   17.6945    2.3034 N   0  0  0  0  0  0  0  0  0  0  0  0
   39.0550   23.3978    0.9693 O   0  0  0  0  0  0  0  0  0  0  0  0
   39.8765   23.7158   -0.2472 C   0  0  2  0  0  0  0  0  0  0  0  0
   42.4919   23.6031    3.0615 N   0  0  0  0  0  0  0  0  0  0  0  0
   37.9875   25.0468   -1.1698 O   0  0  0  0  0  0  0  0  0  0  0  0
   38.9076   23.9272   -1.4480 C   0  0  1  0  0  0  0  0  0  0  0  0
   41.7379   22.3602    0.4799 O   0  0  0  0  0  0  0  0  0  0  0  0
   39.7406   24.2572   -2.7858 C   0  0  1  0  0  0  0  0  0  0  0  0
   41.5673   20.2631    1.5927 O   0  0  0  0  0  0  0  0  0  0  0  0
   40.7210   23.0345   -3.0579 C   0  0  0  0  0  0  0  0  0  0  0  0
   45.2153   19.6510    2.0269 O   0  0  0  0  0  0  0  0  0  0  0  0
   41.6570   22.8475   -1.7924 C   0  0  1  0  0  0  0  0  0  0  0  0
   44.8986   21.9982    3.6221 O   0  0  0  0  0  0  0  0  0  0  0  0
   40.8644   22.5080   -0.5705 C   0  0  2  0  0  0  0  0  0  0  0  0
   39.6482   26.3832    1.2391 O   0  0  0  0  0  0  0  0  0  0  0  0
   41.4836   21.7537    1.7731 C   0  0  1  0  0  0  0  0  0  0  0  0
   38.9504   26.6520    3.9042 O   0  0  0  0  0  0  0  0  0  0  0  0
   42.9391   19.7192    1.2174 C   0  0  2  0  0  0  0  0  0  0  0  0
   42.8627   18.2070    1.0412 C   0  0  0  0  0  0  0  0  0  0  0  0
   43.9288   20.1142    2.3377 C   0  0  2  0  0  0  0  0  0  0  0  0
   43.9576   21.6218    2.5260 C   0  0  1  0  0  0  0  0  0  0  0  0
   42.5329   22.1014    2.8602 C   0  0  1  0  0  0  0  0  0  0  0  0
   38.5527   25.6863    1.7119 C   0  0  2  0  0  0  0  0  0  0  0  0
   37.8781   26.2369    3.0093 C   0  0  1  0  0  0  0  0  0  0  0  0
  1  3  1  0  0  0  0
  4  1  1  6  0  0  0
  4  6  1  0  0  0  0
  4 31  1  0  0  0  0
  6  7  1  0  0  0  0
  7  9  1  6  0  0  0
  7 30  1  0  0  0  0
  8 26  1  0  0  0  0
 10  9  1  1  0  0  0
 10 13  1  0  0  0  0
 10 21  1  0  0  0  0
 13 12  1  1  0  0  0
 13 15  1  0  0  0  0
 15  2  1  6  0  0  0
 15 17  1  0  0  0  0
 16 25  1  0  0  0  0
 16 23  1  0  0  0  0
 17 19  1  0  0  0  0
 19  5  1  6  0  0  0
 19 21  1  0  0  0  0
 21 14  1  1  0  0  0
 23 14  1  6  0  0  0
 23 29  1  0  0  0  0
 25 26  1  1  0  0  0
 25 27  1  0  0  0  0
 27 18  1  6  0  0  0
 27 28  1  0  0  0  0
 28 20  1  1  0  0  0
 28 29  1  0  0  0  0
 29 11  1  6  0  0  0
 30 22  1  1  0  0  0
 30 31  1  0  0  0  0
 31 24  1  1  0  0  0
M  END
>  <CHROM.1>
61.82857635,176.62855485,-112.10063360,79.84367142,76.86387808,-55.83311047
40.51145891,22.92875362,1.13946794,3.10676086,0.70578191,-1.51486510

>  <Name>
ligand

>  <RI>
0

>  <Rbt.Current_Directory>
/home/itssahil/PROJECTS/Mol_Feturizer/New_Systems/rnas/2ET5

>  <Rbt.Executable>
rbdock ($Id: //depot/dev/client3/rdock/2013.1/src/exe/rbdock.cxx#4 $)

>  <Rbt.Library>
libRbt.so (2013.1, Build901 2013/11/27)

>  <Rbt.Parameter_File>
/export/apps/rDock/src/rDock_2013.1_src/data/scripts/dock_solv.prm

>  <Rbt.Receptor>
prm/pocket_docking_3.prm

>  <SCORE>
-5.81675

>  <SCORE.INTER>
-5.67845

>  <SCORE.INTER.CONST>
1

>  <SCORE.INTER.POLAR>
0

>  <SCORE.INTER.ROT>
6

>  <SCORE.INTER.SOLV>
26.0319

>  <SCORE.INTER.VDW>
-20.0629

>  <SCORE.INTER.norm>
-0.183176

>  <SCORE.INTRA>
-0.138301

>  <SCORE.INTRA.DIHEDRAL>
-1.00063

>  <SCORE.INTRA.DIHEDRAL.0>
11.2357

>  <SCORE.INTRA.POLAR>
0

>  <SCORE.INTRA.POLAR.0>
0

>  <SCORE.INTRA.REPUL>
0

>  <SCORE.INTRA.REPUL.0>
0

>  <SCORE.INTRA.SOLV>
-1.09204

>  <SCORE.INTRA.SOLV.lig_0>
-83.3092

>  <SCORE.INTRA.VDW>
0.908031

>  <SCORE.INTRA.VDW.0>
-4.47057

>  <SCORE.INTRA.norm>
-0.00446133

>  <SCORE.RESTR>
0

>  <SCORE.RESTR.CAVITY>
0

>  <SCORE.RESTR.norm>
0

>  <SCORE.SYSTEM>
0

>  <SCORE.SYSTEM.CONST>
0

>  <SCORE.SYSTEM.DIHEDRAL>
0

>  <SCORE.SYSTEM.SOLV>
0

>  <SCORE.SYSTEM.norm>
0

>  <SCORE.heavy>
31

>  <SCORE.norm>
-0.187637

>  <RMSD>
1.990

$$$$
ligand
 OpenBabel11021811433D
libRbt.so/2013.1/901 2013/11/27
 31 33  0  0  0  0  0  0  0  0999 V2000
   36.8825   26.8082    2.7723 C   0  0  0  0  0  0  0  0  0  0  0  0
   39.0064   24.7204   -3.3567 N   0  0  0  0  0  0  0  0  0  0  0  0
   36.0768   26.9354    3.9531 O   0  0  0  0  0  0  0  0  0  0  0  0
   36.8284   25.3203    2.4358 C   0  0  1  0  0  0  0  0  0  0  0  0
   42.2852   21.2949   -1.5558 N   0  0  0  0  0  0  0  0  0  0  0  0
   37.8457   24.8619    1.4067 O   0  0  0  0  0  0  0  0  0  0  0  0
   38.8793   24.1298    1.9434 C   0  0  1  0  0  0  0  0  0  0  0  0
   42.4102   18.1650    0.7352 N   0  0  0  0  0  0  0  0  0  0  0  0
   40.1872   24.4878    1.5932 O   0  0  0  0  0  0  0  0  0  0  0  0
   40.7418   24.3273    0.2066 C   0  0  2  0  0  0  0  0  0  0  0  0
   43.5504   24.1432    3.0947 N   0  0  0  0  0  0  0  0  0  0  0  0
   39.0937   25.9880   -0.6403 O   0  0  0  0  0  0  0  0  0  0  0  0
   39.5983   24.6120   -0.8117 C   0  0  1  0  0  0  0  0  0  0  0  0
   42.3102   22.6183    0.8777 O   0  0  0  0  0  0  0  0  0  0  0  0
   40.1373   24.4383   -2.3190 C   0  0  1  0  0  0  0  0  0  0  0  0
   42.1842   20.7240    2.3133 O   0  0  0  0  0  0  0  0  0  0  0  0
   40.6732   22.9484   -2.4714 C   0  0  0  0  0  0  0  0  0  0  0  0
   45.8064   19.8581    2.2857 O   0  0  0  0  0  0  0  0  0  0  0  0
   41.8080   22.7079   -1.3910 C   0  0  1  0  0  0  0  0  0  0  0  0
   45.9055   22.4268    3.5293 O   0  0  0  0  0  0  0  0  0  0  0  0
   41.2761   22.8403    0.0005 C   0  0  2  0  0  0  0  0  0  0  0  0
   39.1133   22.9143    3.9823 O   0  0  0  0  0  0  0  0  0  0  0  0
   42.2286   22.2266    2.2722 C   0  0  1  0  0  0  0  0  0  0  0  0
   36.4285   23.0368    3.3198 O   0  0  0  0  0  0  0  0  0  0  0  0
   43.4389   20.0126    1.8252 C   0  0  2  0  0  0  0  0  0  0  0  0
   43.2363   18.5036    1.8977 C   0  0  0  0  0  0  0  0  0  0  0  0
   44.6200   20.4732    2.7104 C   0  0  2  0  0  0  0  0  0  0  0  0
   44.7775   21.9837    2.6577 C   0  0  1  0  0  0  0  0  0  0  0  0
   43.4599   22.6305    3.1233 C   0  0  1  0  0  0  0  0  0  0  0  0
   38.6162   24.0838    3.4398 C   0  0  2  0  0  0  0  0  0  0  0  0
   37.0767   24.3177    3.5688 C   0  0  1  0  0  0  0  0  0  0  0  0
  1  3  1  0  0  0  0
  4  1  1  1  0  0  0
  4  6  1  0  0  0  0
  4 31  1  0  0  0  0
  6  7  1  0  0  0  0
  7  9  1  1  0  0  0
  7 30  1  0  0  0  0
  8 26  1  0  0  0  0
 10  9  1  1  0  0  0
 10 13  1  0  0  0  0
 10 21  1  0  0  0  0
 13 12  1  6  0  0  0
 13 15  1  0  0  0  0
 15  2  1  6  0  0  0
 15 17  1  0  0  0  0
 16 25  1  0  0  0  0
 16 23  1  0  0  0  0
 17 19  1  0  0  0  0
 19  5  1  1  0  0  0
 19 21  1  0  0  0  0
 21 14  1  1  0  0  0
 23 14  1  6  0  0  0
 23 29  1  0  0  0  0
 25 26  1  1  0  0  0
 25 27  1  0  0  0  0
 27 18  1  6  0  0  0
 27 28  1  0  0  0  0
 28 20  1  1  0  0  0
 28 29  1  0  0  0  0
 29 11  1  6  0  0  0
 30 22  1  6  0  0  0
 30 31  1  0  0  0  0
 31 24  1  6  0  0  0
M  END
>  <CHROM.1>
-167.01382970,-67.52313236,35.43974111,87.99225055,83.20730320,77.77993665
40.83451751,23.06162927,1.43874667,3.09021861,0.61427623,-1.49401817

>  <Name>
ligand

>  <RI>
0

>  <Rbt.Current_Directory>
/home/itssahil/PROJECTS/Mol_Feturizer/New_Systems/rnas/2ET5

>  <Rbt.Executable>
rbdock ($Id: //depot/dev/client3/rdock/2013.1/src/exe/rbdock.cxx#4 $)

>  <Rbt.Library>
libRbt.so (2013.1, Build901 2013/11/27)

>  <Rbt.Parameter_File>
/export/apps/rDock/src/rDock_2013.1_src/data/scripts/dock_solv.prm

>  <Rbt.Receptor>
prm/pocket_docking_2.prm

>  <SCORE>
-4.10453

>  <SCORE.INTER>
-5.74397

>  <SCORE.INTER.CONST>
1

>  <SCORE.INTER.POLAR>
0

>  <SCORE.INTER.ROT>
6

>  <SCORE.INTER.SOLV>
21.024

>  <SCORE.INTER.VDW>
-18.4373

>  <SCORE.INTER.norm>
-0.185289

>  <SCORE.INTRA>
0.232106

>  <SCORE.INTRA.DIHEDRAL>
-1.05181

>  <SCORE.INTRA.DIHEDRAL.0>
11.2357

>  <SCORE.INTRA.POLAR>
0

>  <SCORE.INTRA.POLAR.0>
0

>  <SCORE.INTRA.REPUL>
0

>  <SCORE.INTRA.REPUL.0>
0

>  <SCORE.INTRA.SOLV>
-1.99472

>  <SCORE.INTRA.SOLV.lig_0>
-83.3092

>  <SCORE.INTRA.VDW>
1.75537

>  <SCORE.INTRA.VDW.0>
-4.47057

>  <SCORE.INTRA.norm>
0.0074873

>  <SCORE.RESTR>
1.40733

>  <SCORE.RESTR.CAVITY>
1.40733

>  <SCORE.RESTR.norm>
0.0453978

>  <SCORE.SYSTEM>
0

>  <SCORE.SYSTEM.CONST>
0

>  <SCORE.SYSTEM.DIHEDRAL>
0

>  <SCORE.SYSTEM.SOLV>
0

>  <SCORE.SYSTEM.norm>
0

>  <SCORE.heavy>
31

>  <SCORE.norm>
-0.132404

>  <RMSD>
2.078

$$$$
ligand
 OpenBabel11021811433D
libRbt.so/2013.1/901 2013/11/27
 31 33  0  0  0  0  0  0  0  0999 V2000
   36.8992   26.8252    2.7916 C   0  0  0  0  0  0  0  0  0  0  0  0
   38.9667   24.8126   -3.3221 N   0  0  0  0  0  0  0  0  0  0  0  0
   36.0504   26.9652    3.9403 O   0  0  0  0  0  0  0  0  0  0  0  0
   36.8399   25.3371    2.4565 C   0  0  1  0  0  0  0  0  0  0  0  0
   42.2776   21.3692   -1.6163 N   0  0  0  0  0  0  0  0  0  0  0  0
   37.8548   24.8745    1.4269 O   0  0  0  0  0  0  0  0  0  0  0  0
   38.8866   24.1396    1.9632 C   0  0  1  0  0  0  0  0  0  0  0  0
   42.1852   17.9158    2.3893 N   0  0  0  0  0  0  0  0  0  0  0  0
   40.1953   24.4931    1.6113 O   0  0  0  0  0  0  0  0  0  0  0  0
   40.7375   24.3611    0.2169 C   0  0  2  0  0  0  0  0  0  0  0  0
   43.9203   23.5652    3.1593 N   0  0  0  0  0  0  0  0  0  0  0  0
   39.0740   26.0296   -0.5834 O   0  0  0  0  0  0  0  0  0  0  0  0
   39.5831   24.6594   -0.7851 C   0  0  1  0  0  0  0  0  0  0  0  0
   42.3197   22.6471    0.8412 O   0  0  0  0  0  0  0  0  0  0  0  0
   40.1086   24.5163   -2.3004 C   0  0  1  0  0  0  0  0  0  0  0  0
   42.0018   20.5628    1.9456 O   0  0  0  0  0  0  0  0  0  0  0  0
   40.6497   23.0320   -2.4856 C   0  0  0  0  0  0  0  0  0  0  0  0
   45.4405   19.2233    1.4436 O   0  0  0  0  0  0  0  0  0  0  0  0
   41.7956   22.7766   -1.4206 C   0  0  1  0  0  0  0  0  0  0  0  0
   46.0105   21.4898    3.0846 O   0  0  0  0  0  0  0  0  0  0  0  0
   41.2763   22.8806   -0.0220 C   0  0  2  0  0  0  0  0  0  0  0  0
   39.1187   22.9253    4.0030 O   0  0  0  0  0  0  0  0  0  0  0  0
   42.2713   22.0277    2.1522 C   0  0  1  0  0  0  0  0  0  0  0  0
   36.4337   23.0557    3.3431 O   0  0  0  0  0  0  0  0  0  0  0  0
   43.0989   19.7834    1.2332 C   0  0  2  0  0  0  0  0  0  0  0  0
   42.6744   18.3285    1.0708 C   0  0  0  0  0  0  0  0  0  0  0  0
   44.3919   19.9107    2.0715 C   0  0  2  0  0  0  0  0  0  0  0  0
   44.7734   21.3698    2.2577 C   0  0  1  0  0  0  0  0  0  0  0  0
   43.6029   22.0989    2.9430 C   0  0  1  0  0  0  0  0  0  0  0  0
   38.6248   24.0959    3.4599 C   0  0  2  0  0  0  0  0  0  0  0  0
   37.0862   24.3348    3.5902 C   0  0  1  0  0  0  0  0  0  0  0  0
  1  3  1  0  0  0  0
  4  1  1  1  0  0  0
  4  6  1  0  0  0  0
  4 31  1  0  0  0  0
  6  7  1  0  0  0  0
  7  9  1  1  0  0  0
  7 30  1  0  0  0  0
  8 26  1  0  0  0  0
 10  9  1  1  0  0  0
 10 13  1  0  0  0  0
 10 21  1  0  0  0  0
 13 12  1  6  0  0  0
 13 15  1  0  0  0  0
 15  2  1  6  0  0  0
 15 17  1  0  0  0  0
 16 25  1  0  0  0  0
 16 23  1  0  0  0  0
 17 19  1  0  0  0  0
 19  5  1  6  0  0  0
 19 21  1  0  0  0  0
 21 14  1  1  0  0  0
 23 14  1  6  0  0  0
 23 29  1  0  0  0  0
 25 26  1  1  0  0  0
 25 27  1  0  0  0  0
 27 18  1  6  0  0  0
 27 28  1  0  0  0  0
 28 20  1  1  0  0  0
 28 29  1  0  0  0  0
 29 11  1  6  0  0  0
 30 22  1  6  0  0  0
 30 31  1  0  0  0  0
 31 24  1  6  0  0  0
M  END
>  <CHROM.1>
-169.33192683,-65.97018008,34.54118484,71.42239825,94.05043002,-48.00732859
40.79096013,22.92708085,1.35498832,3.02649066,0.65848523,-1.33739727

>  <Name>
ligand

>  <RI>
0

>  <Rbt.Current_Directory>
/home/itssahil/PROJECTS/Mol_Feturizer/New_Systems/rnas/2ET5

>  <Rbt.Executable>
rbdock ($Id: //depot/dev/client3/rdock/2013.1/src/exe/rbdock.cxx#4 $)

>  <Rbt.Library>
libRbt.so (2013.1, Build901 2013/11/27)

>  <Rbt.Parameter_File>
/export/apps/rDock/src/rDock_2013.1_src/data/scripts/dock_solv.prm

>  <Rbt.Receptor>
prm/pocket_docking_2.prm

>  <SCORE>
-2.0156

>  <SCORE.INTER>
-3.87869

>  <SCORE.INTER.CONST>
1

>  <SCORE.INTER.POLAR>
0

>  <SCORE.INTER.ROT>
6

>  <SCORE.INTER.SOLV>
25.2054

>  <SCORE.INTER.VDW>
-18.5876

>  <SCORE.INTER.norm>
-0.125119

>  <SCORE.INTRA>
0.457632

>  <SCORE.INTRA.DIHEDRAL>
-2.30245

>  <SCORE.INTRA.DIHEDRAL.0>
11.2357

>  <SCORE.INTRA.POLAR>
0

>  <SCORE.INTRA.POLAR.0>
0

>  <SCORE.INTRA.REPUL>
0

>  <SCORE.INTRA.REPUL.0>
0

>  <SCORE.INTRA.SOLV>
-0.818313

>  <SCORE.INTRA.SOLV.lig_0>
-83.3092

>  <SCORE.INTRA.VDW>
2.01801

>  <SCORE.INTRA.VDW.0>
-4.47057

>  <SCORE.INTRA.norm>
0.0147623

>  <SCORE.RESTR>
1.40546

>  <SCORE.RESTR.CAVITY>
1.40546

>  <SCORE.RESTR.norm>
0.0453373

>  <SCORE.SYSTEM>
0

>  <SCORE.SYSTEM.CONST>
0

>  <SCORE.SYSTEM.DIHEDRAL>
0

>  <SCORE.SYSTEM.SOLV>
0

>  <SCORE.SYSTEM.norm>
0

>  <SCORE.heavy>
31

>  <SCORE.norm>
-0.0650193

>  <RMSD>
2.127

$$$$
ligand
 OpenBabel11021811433D
libRbt.so/2013.1/901 2013/11/27
 31 33  0  0  0  0  0  0  0  0999 V2000
   38.5990   27.0402    3.7593 C   0  0  0  0  0  0  0  0  0  0  0  0
   37.5016   25.0664   -1.1572 N   0  0  0  0  0  0  0  0  0  0  0  0
   39.6753   26.6772    2.8821 O   0  0  0  0  0  0  0  0  0  0  0  0
   38.5576   25.9169    4.7921 C   0  0  1  0  0  0  0  0  0  0  0  0
   41.9432   22.6255   -1.3622 N   0  0  0  0  0  0  0  0  0  0  0  0
   38.2617   24.5402    4.2254 O   0  0  0  0  0  0  0  0  0  0  0  0
   39.3589   23.7112    4.1934 C   0  0  1  0  0  0  0  0  0  0  0  0
   43.1534   17.6585    0.6357 N   0  0  0  0  0  0  0  0  0  0  0  0
   39.6349   23.0347    2.9986 O   0  0  0  0  0  0  0  0  0  0  0  0
   39.9319   23.7366    1.7044 C   0  0  2  0  0  0  0  0  0  0  0  0
   44.1007   23.5924    3.2896 N   0  0  0  0  0  0  0  0  0  0  0  0
   37.7289   24.8870    1.8276 O   0  0  0  0  0  0  0  0  0  0  0  0
   38.5809   24.0254    0.9854 C   0  0  1  0  0  0  0  0  0  0  0  0
   42.0407   22.5987    1.4062 O   0  0  0  0  0  0  0  0  0  0  0  0
   38.8438   24.7662   -0.4198 C   0  0  1  0  0  0  0  0  0  0  0  0
   41.9593   20.5655    2.6410 O   0  0  0  0  0  0  0  0  0  0  0  0
   39.7629   23.8144   -1.3028 C   0  0  0  0  0  0  0  0  0  0  0  0
   45.2086   19.1659    1.4773 O   0  0  0  0  0  0  0  0  0  0  0  0
   41.1045   23.5300   -0.5079 C   0  0  1  0  0  0  0  0  0  0  0  0
   46.1212   21.4911    2.8611 O   0  0  0  0  0  0  0  0  0  0  0  0
   40.8381   22.8111    0.7762 C   0  0  2  0  0  0  0  0  0  0  0  0
   41.4342   23.7276    5.3691 O   0  0  0  0  0  0  0  0  0  0  0  0
   42.2708   22.0345    2.7228 C   0  0  1  0  0  0  0  0  0  0  0  0
   39.5332   25.0369    6.8968 O   0  0  0  0  0  0  0  0  0  0  0  0
   42.8775   19.7446    1.7456 C   0  0  2  0  0  0  0  0  0  0  0  0
   42.4241   18.2893    1.7395 C   0  0  0  0  0  0  0  0  0  0  0  0
   44.3197   19.8909    2.2837 C   0  0  2  0  0  0  0  0  0  0  0  0
   44.7362   21.3518    2.3220 C   0  0  1  0  0  0  0  0  0  0  0  0
   43.7404   22.1224    3.2086 C   0  0  1  0  0  0  0  0  0  0  0  0
   40.5146   24.5386    4.7322 C   0  0  2  0  0  0  0  0  0  0  0  0
   39.8285   25.6394    5.6034 C   0  0  1  0  0  0  0  0  0  0  0  0
  1  3  1  0  0  0  0
  4  1  1  6  0  0  0
  4  6  1  0  0  0  0
  4 31  1  0  0  0  0
  6  7  1  0  0  0  0
  7  9  1  6  0  0  0
  7 30  1  0  0  0  0
  8 26  1  0  0  0  0
 10  9  1  1  0  0  0
 10 13  1  0  0  0  0
 10 21  1  0  0  0  0
 13 12  1  1  0  0  0
 13 15  1  0  0  0  0
 15  2  1  6  0  0  0
 15 17  1  0  0  0  0
 16 25  1  0  0  0  0
 16 23  1  0  0  0  0
 17 19  1  0  0  0  0
 19  5  1  6  0  0  0
 19 21  1  0  0  0  0
 21 14  1  1  0  0  0
 23 14  1  6  0  0  0
 23 29  1  0  0  0  0
 25 26  1  1  0  0  0
 25 27  1  0  0  0  0
 27 18  1  6  0  0  0
 27 28  1  0  0  0  0
 28 20  1  1  0  0  0
 28 29  1  0  0  0  0
 29 11  1  6  0  0  0
 30 22  1  1  0  0  0
 30 31  1  0  0  0  0
 31 24  1  1  0  0  0
M  END
>  <CHROM.1>
-61.79365843,60.79192519,-87.24051079,71.55241159,56.74388257,167.28267384
41.11783415,23.02380929,2.37162687,-2.69318966,0.71547681,-1.92467490

>  <Name>
ligand

>  <RI>
0

>  <Rbt.Current_Directory>
/home/itssahil/PROJECTS/Mol_Feturizer/New_Systems/rnas/2ET5

>  <Rbt.Executable>
rbdock ($Id: //depot/dev/client3/rdock/2013.1/src/exe/rbdock.cxx#4 $)

>  <Rbt.Library>
libRbt.so (2013.1, Build901 2013/11/27)

>  <Rbt.Parameter_File>
/export/apps/rDock/src/rDock_2013.1_src/data/scripts/dock_solv.prm

>  <Rbt.Receptor>
prm/pocket_docking_3.prm

>  <SCORE>
-9.95172

>  <SCORE.INTER>
-7.3711

>  <SCORE.INTER.CONST>
1

>  <SCORE.INTER.POLAR>
0

>  <SCORE.INTER.ROT>
6

>  <SCORE.INTER.SOLV>
16.9733

>  <SCORE.INTER.VDW>
-18.1718

>  <SCORE.INTER.norm>
-0.237777

>  <SCORE.INTRA>
-2.60187

>  <SCORE.INTRA.DIHEDRAL>
-6.75106

>  <SCORE.INTRA.DIHEDRAL.0>
11.2357

>  <SCORE.INTRA.POLAR>
0

>  <SCORE.INTRA.POLAR.0>
0

>  <SCORE.INTRA.REPUL>
0

>  <SCORE.INTRA.REPUL.0>
0

>  <SCORE.INTRA.SOLV>
-0.114682

>  <SCORE.INTRA.SOLV.lig_0>
-83.3092

>  <SCORE.INTRA.VDW>
0.831003

>  <SCORE.INTRA.VDW.0>
-4.47057

>  <SCORE.INTRA.norm>
-0.0839312

>  <SCORE.RESTR>
0.0212432

>  <SCORE.RESTR.CAVITY>
0.0212432

>  <SCORE.RESTR.norm>
0.000685265

>  <SCORE.SYSTEM>
0

>  <SCORE.SYSTEM.CONST>
0

>  <SCORE.SYSTEM.DIHEDRAL>
0

>  <SCORE.SYSTEM.SOLV>
0

>  <SCORE.SYSTEM.norm>
0

>  <SCORE.heavy>
31

>  <SCORE.norm>
-0.321023

>  <RMSD>
2.212

$$$$
ligand
 OpenBabel11021811433D
libRbt.so/2013.1/901 2013/11/27
 31 33  0  0  0  0  0  0  0  0999 V2000
   36.0739   26.3551    1.4299 C   0  0  0  0  0  0  0  0  0  0  0  0
   39.4625   24.1979   -3.8818 N   0  0  0  0  0  0  0  0  0  0  0  0
   37.2337   27.1158    1.7985 O   0  0  0  0  0  0  0  0  0  0  0  0
   36.4948   24.9018    1.6322 C   0  0  1  0  0  0  0  0  0  0  0  0
   42.4286   21.2005   -1.0629 N   0  0  0  0  0  0  0  0  0  0  0  0
   37.7064   24.4707    0.8259 O   0  0  0  0  0  0  0  0  0  0  0  0
   38.8451   24.3190    1.5826 C   0  0  1  0  0  0  0  0  0  0  0  0
   42.5504   18.5649    0.8690 N   0  0  0  0  0  0  0  0  0  0  0  0
   40.0204   24.9303    1.1284 O   0  0  0  0  0  0  0  0  0  0  0  0
   40.7383   24.5082   -0.1215 C   0  0  2  0  0  0  0  0  0  0  0  0
   42.9901   24.4895    3.4649 N   0  0  0  0  0  0  0  0  0  0  0  0
   39.2390   25.9660   -1.4700 O   0  0  0  0  0  0  0  0  0  0  0  0
   39.7345   24.5853   -1.3098 C   0  0  1  0  0  0  0  0  0  0  0  0
   42.1792   22.9685    1.0551 O   0  0  0  0  0  0  0  0  0  0  0  0
   40.4515   24.1269   -2.6766 C   0  0  1  0  0  0  0  0  0  0  0  0
   42.0789   20.9996    2.3887 O   0  0  0  0  0  0  0  0  0  0  0  0
   40.9735   22.6383   -2.4722 C   0  0  0  0  0  0  0  0  0  0  0  0
   45.7485   20.4882    2.7674 O   0  0  0  0  0  0  0  0  0  0  0  0
   41.9618   22.6163   -1.2331 C   0  0  1  0  0  0  0  0  0  0  0  0
   45.4402   22.9871    4.1145 O   0  0  0  0  0  0  0  0  0  0  0  0
   41.2653   23.0120    0.0298 C   0  0  2  0  0  0  0  0  0  0  0  0
   39.2039   23.9842    3.9168 O   0  0  0  0  0  0  0  0  0  0  0  0
   41.9751   22.4996    2.4127 C   0  0  1  0  0  0  0  0  0  0  0  0
   36.6888   23.0359    3.2559 O   0  0  0  0  0  0  0  0  0  0  0  0
   43.4478   20.4380    2.0290 C   0  0  2  0  0  0  0  0  0  0  0  0
   43.3923   18.9148    2.0166 C   0  0  0  0  0  0  0  0  0  0  0  0
   44.4643   20.9638    3.0687 C   0  0  2  0  0  0  0  0  0  0  0  0
   44.4728   22.4831    3.0953 C   0  0  1  0  0  0  0  0  0  0  0  0
   43.0509   22.9756    3.4225 C   0  0  1  0  0  0  0  0  0  0  0  0
   38.4474   24.6910    3.0018 C   0  0  2  0  0  0  0  0  0  0  0  0
   36.9025   24.4614    3.0429 C   0  0  1  0  0  0  0  0  0  0  0  0
  1  3  1  0  0  0  0
  4  1  1  1  0  0  0
  4  6  1  0  0  0  0
  4 31  1  0  0  0  0
  6  7  1  0  0  0  0
  7  9  1  6  0  0  0
  7 30  1  0  0  0  0
  8 26  1  0  0  0  0
 10  9  1  1  0  0  0
 10 13  1  0  0  0  0
 10 21  1  0  0  0  0
 13 12  1  6  0  0  0
 13 15  1  0  0  0  0
 15  2  1  6  0  0  0
 15 17  1  0  0  0  0
 16 25  1  0  0  0  0
 16 23  1  0  0  0  0
 17 19  1  0  0  0  0
 19  5  1  1  0  0  0
 19 21  1  0  0  0  0
 21 14  1  1  0  0  0
 23 14  1  6  0  0  0
 23 29  1  0  0  0  0
 25 26  1  1  0  0  0
 25 27  1  0  0  0  0
 27 18  1  6  0  0  0
 27 28  1  0  0  0  0
 28 20  1  1  0  0  0
 28 29  1  0  0  0  0
 29 11  1  6  0  0  0
 30 22  1  1  0  0  0
 30 31  1  0  0  0  0
 31 24  1  6  0  0  0
M  END
>  <CHROM.1>
-58.27890487,-67.07299526,56.05924912,81.01975096,101.48277506,68.45745404
40.81384518,23.24024248,1.26175953,2.95390083,0.58845739,-1.58962329

>  <Name>
ligand

>  <RI>
0

>  <Rbt.Current_Directory>
/home/itssahil/PROJECTS/Mol_Feturizer/New_Systems/rnas/2ET5

>  <Rbt.Executable>
rbdock ($Id: //depot/dev/client3/rdock/2013.1/src/exe/rbdock.cxx#4 $)

>  <Rbt.Library>
libRbt.so (2013.1, Build901 2013/11/27)

>  <Rbt.Parameter_File>
/export/apps/rDock/src/rDock_2013.1_src/data/scripts/dock_solv.prm

>  <Rbt.Receptor>
prm/pocket_docking_3.prm

>  <SCORE>
-8.53481

>  <SCORE.INTER>
-7.5525

>  <SCORE.INTER.CONST>
1

>  <SCORE.INTER.POLAR>
0

>  <SCORE.INTER.ROT>
6

>  <SCORE.INTER.SOLV>
19.2141

>  <SCORE.INTER.VDW>
-19.0397

>  <SCORE.INTER.norm>
-0.243629

>  <SCORE.INTRA>
-0.998147

>  <SCORE.INTRA.DIHEDRAL>
-2.94637

>  <SCORE.INTRA.DIHEDRAL.0>
11.2357

>  <SCORE.INTRA.POLAR>
0

>  <SCORE.INTRA.POLAR.0>
0

>  <SCORE.INTRA.REPUL>
0

>  <SCORE.INTRA.REPUL.0>
0

>  <SCORE.INTRA.SOLV>
0.389575

>  <SCORE.INTRA.SOLV.lig_0>
-83.3092

>  <SCORE.INTRA.VDW>
0.280251

>  <SCORE.INTRA.VDW.0>
-4.47057

>  <SCORE.INTRA.norm>
-0.0321983

>  <SCORE.RESTR>
0.0158427

>  <SCORE.RESTR.CAVITY>
0.0158427

>  <SCORE.RESTR.norm>
0.000511056

>  <SCORE.SYSTEM>
0

>  <SCORE.SYSTEM.CONST>
0

>  <SCORE.SYSTEM.DIHEDRAL>
0

>  <SCORE.SYSTEM.SOLV>
0

>  <SCORE.SYSTEM.norm>
0

>  <SCORE.heavy>
31

>  <SCORE.norm>
-0.275316

>  <RMSD>
2.312

$$$$
ligand
 OpenBabel11021811433D
libRbt.so/2013.1/901 2013/11/27
 31 33  0  0  0  0  0  0  0  0999 V2000
   36.3717   26.6733    1.4080 C   0  0  0  0  0  0  0  0  0  0  0  0
   39.4591   24.1373   -3.8581 N   0  0  0  0  0  0  0  0  0  0  0  0
   35.3916   26.9847    2.4091 O   0  0  0  0  0  0  0  0  0  0  0  0
   36.6198   25.1764    1.5743 C   0  0  1  0  0  0  0  0  0  0  0  0
   42.3685   21.0175   -1.1139 N   0  0  0  0  0  0  0  0  0  0  0  0
   37.7938   24.6326    0.7804 O   0  0  0  0  0  0  0  0  0  0  0  0
   38.8893   24.3307    1.5556 C   0  0  1  0  0  0  0  0  0  0  0  0
   42.5613   18.3725    0.8083 N   0  0  0  0  0  0  0  0  0  0  0  0
   40.1370   24.8163    1.1448 O   0  0  0  0  0  0  0  0  0  0  0  0
   40.8157   24.3771   -0.1210 C   0  0  2  0  0  0  0  0  0  0  0  0
   43.0718   24.2856    3.4247 N   0  0  0  0  0  0  0  0  0  0  0  0
   39.3444   25.8963   -1.4320 O   0  0  0  0  0  0  0  0  0  0  0  0
   39.7931   24.4978   -1.2894 C   0  0  1  0  0  0  0  0  0  0  0  0
   42.2224   22.7793    1.0188 O   0  0  0  0  0  0  0  0  0  0  0  0
   40.4674   24.0231   -2.6724 C   0  0  1  0  0  0  0  0  0  0  0  0
   42.1167   20.8076    2.3479 O   0  0  0  0  0  0  0  0  0  0  0  0
   40.9395   22.5155   -2.4868 C   0  0  0  0  0  0  0  0  0  0  0  0
   45.7849   20.2602    2.6885 O   0  0  0  0  0  0  0  0  0  0  0  0
   41.9496   22.4502   -1.2669 C   0  0  1  0  0  0  0  0  0  0  0  0
   45.5138   22.7581    4.0455 O   0  0  0  0  0  0  0  0  0  0  0  0
   41.2916   22.8621    0.0114 C   0  0  2  0  0  0  0  0  0  0  0  0
   39.1514   23.8915    3.8854 O   0  0  0  0  0  0  0  0  0  0  0  0
   42.0274   22.3085    2.3771 C   0  0  1  0  0  0  0  0  0  0  0  0
   36.5616   23.2556    3.1437 O   0  0  0  0  0  0  0  0  0  0  0  0
   43.4765   20.2341    1.9730 C   0  0  2  0  0  0  0  0  0  0  0  0
   43.4064   18.7115    1.9569 C   0  0  0  0  0  0  0  0  0  0  0  0
   44.5083   20.7472    3.0039 C   0  0  2  0  0  0  0  0  0  0  0  0
   44.5315   22.2663    3.0347 C   0  0  1  0  0  0  0  0  0  0  0  0
   43.1177   22.7713    3.3774 C   0  0  1  0  0  0  0  0  0  0  0  0
   38.5024   24.7056    2.9770 C   0  0  2  0  0  0  0  0  0  0  0  0
   36.9408   24.6528    2.9790 C   0  0  1  0  0  0  0  0  0  0  0  0
  1  3  1  0  0  0  0
  4  1  1  1  0  0  0
  4  6  1  0  0  0  0
  4 31  1  0  0  0  0
  6  7  1  0  0  0  0
  7  9  1  6  0  0  0
  7 30  1  0  0  0  0
  8 26  1  0  0  0  0
 10  9  1  1  0  0  0
 10 13  1  0  0  0  0
 10 21  1  0  0  0  0
 13 12  1  6  0  0  0
 13 15  1  0  0  0  0
 15  2  1  6  0  0  0
 15 17  1  0  0  0  0
 16 25  1  0  0  0  0
 16 23  1  0  0  0  0
 17 19  1  0  0  0  0
 19  5  1  1  0  0  0
 19 21  1  0  0  0  0
 21 14  1  1  0  0  0
 23 14  1  6  0  0  0
 23 29  1  0  0  0  0
 25 26  1  1  0  0  0
 25 27  1  0  0  0  0
 27 18  1  6  0  0  0
 27 28  1  0  0  0  0
 28 20  1  1  0  0  0
 28 29  1  0  0  0  0
 29 11  1  6  0  0  0
 30 22  1  1  0  0  0
 30 31  1  0  0  0  0
 31 24  1  6  0  0  0
M  END
>  <CHROM.1>
-170.28907075,-65.40121662,50.08195043,82.59927199,101.51450536,69.03786802
40.78841036,23.15338267,1.25004431,3.01620375,0.60095875,-1.59670936

>  <Name>
ligand

>  <RI>
0

>  <Rbt.Current_Directory>
/home/itssahil/PROJECTS/Mol_Feturizer/New_Systems/rnas/2ET5

>  <Rbt.Executable>
rbdock ($Id: //depot/dev/client3/rdock/2013.1/src/exe/rbdock.cxx#4 $)

>  <Rbt.Library>
libRbt.so (2013.1, Build901 2013/11/27)

>  <Rbt.Parameter_File>
/export/apps/rDock/src/rDock_2013.1_src/data/scripts/dock_solv.prm

>  <Rbt.Receptor>
prm/pocket_docking_3.prm

>  <SCORE>
-8.46691

>  <SCORE.INTER>
-8.185

>  <SCORE.INTER.CONST>
1

>  <SCORE.INTER.POLAR>
0

>  <SCORE.INTER.ROT>
6

>  <SCORE.INTER.SOLV>
19.6647

>  <SCORE.INTER.VDW>
-19.6116

>  <SCORE.INTER.norm>
-0.264032

>  <SCORE.INTRA>
-0.290315

>  <SCORE.INTRA.DIHEDRAL>
-2.01317

>  <SCORE.INTRA.DIHEDRAL.0>
11.2357

>  <SCORE.INTRA.POLAR>
0

>  <SCORE.INTRA.POLAR.0>
0

>  <SCORE.INTRA.REPUL>
0

>  <SCORE.INTRA.REPUL.0>
0

>  <SCORE.INTRA.SOLV>
-0.258487

>  <SCORE.INTRA.SOLV.lig_0>
-83.3092

>  <SCORE.INTRA.VDW>
0.845514

>  <SCORE.INTRA.VDW.0>
-4.47057

>  <SCORE.INTRA.norm>
-0.009365

>  <SCORE.RESTR>
0.00840451

>  <SCORE.RESTR.CAVITY>
0.00840451

>  <SCORE.RESTR.norm>
0.000271113

>  <SCORE.SYSTEM>
0

>  <SCORE.SYSTEM.CONST>
0

>  <SCORE.SYSTEM.DIHEDRAL>
0

>  <SCORE.SYSTEM.SOLV>
0

>  <SCORE.SYSTEM.norm>
0

>  <SCORE.heavy>
31

>  <SCORE.norm>
-0.273126

>  <RMSD>
2.382

$$$$
ligand
 OpenBabel11021811433D
libRbt.so/2013.1/901 2013/11/27
 31 33  0  0  0  0  0  0  0  0999 V2000
   36.9477   25.4808    0.4804 C   0  0  0  0  0  0  0  0  0  0  0  0
   39.1667   25.7767   -2.6566 N   0  0  0  0  0  0  0  0  0  0  0  0
   36.9522   24.5631   -0.6229 O   0  0  0  0  0  0  0  0  0  0  0  0
   37.2360   24.6085    1.6994 C   0  0  1  0  0  0  0  0  0  0  0  0
   41.8921   21.6302   -1.6045 N   0  0  0  0  0  0  0  0  0  0  0  0
   38.5854   23.9135    1.6813 O   0  0  0  0  0  0  0  0  0  0  0  0
   39.4967   24.4588    2.5555 C   0  0  1  0  0  0  0  0  0  0  0  0
   42.9983   17.5548    1.0202 N   0  0  0  0  0  0  0  0  0  0  0  0
   40.7753   24.7570    2.0681 O   0  0  0  0  0  0  0  0  0  0  0  0
   41.1457   24.6630    0.6156 C   0  0  2  0  0  0  0  0  0  0  0  0
   44.3788   23.7118    2.8641 N   0  0  0  0  0  0  0  0  0  0  0  0
   39.7699   26.6807    0.1385 O   0  0  0  0  0  0  0  0  0  0  0  0
   39.9811   25.2660   -0.2244 C   0  0  1  0  0  0  0  0  0  0  0  0
   42.4166   22.6330    0.9240 O   0  0  0  0  0  0  0  0  0  0  0  0
   40.3215   25.1760   -1.7956 C   0  0  1  0  0  0  0  0  0  0  0  0
   41.9765   20.8462    2.4336 O   0  0  0  0  0  0  0  0  0  0  0  0
   40.5433   23.6423   -2.1545 C   0  0  0  0  0  0  0  0  0  0  0  0
   45.1416   18.9618    1.8837 O   0  0  0  0  0  0  0  0  0  0  0  0
   41.7141   23.0767   -1.2479 C   0  0  1  0  0  0  0  0  0  0  0  0
   46.1746   21.3796    2.9978 O   0  0  0  0  0  0  0  0  0  0  0  0
   41.3610   23.1387    0.2041 C   0  0  2  0  0  0  0  0  0  0  0  0
   39.2596   25.8226    4.4980 O   0  0  0  0  0  0  0  0  0  0  0  0
   42.4465   22.2708    2.3285 C   0  0  1  0  0  0  0  0  0  0  0  0
   36.9385   24.3553    4.1495 O   0  0  0  0  0  0  0  0  0  0  0  0
   42.8783   19.8038    1.7864 C   0  0  2  0  0  0  0  0  0  0  0  0
   42.2619   18.4190    1.9470 C   0  0  0  0  0  0  0  0  0  0  0  0
   44.2664   19.8927    2.4615 C   0  0  2  0  0  0  0  0  0  0  0  0
   44.8437   21.2919    2.3273 C   0  0  1  0  0  0  0  0  0  0  0  0
   43.8603   22.2911    2.9644 C   0  0  1  0  0  0  0  0  0  0  0  0
   38.7838   25.6279    3.2155 C   0  0  2  0  0  0  0  0  0  0  0  0
   37.2661   25.2838    3.0754 C   0  0  1  0  0  0  0  0  0  0  0  0
  1  3  1  0  0  0  0
  4  1  1  6  0  0  0
  4  6  1  0  0  0  0
  4 31  1  0  0  0  0
  6  7  1  0  0  0  0
  7  9  1  6  0  0  0
  7 30  1  0  0  0  0
  8 26  1  0  0  0  0
 10  9  1  1  0  0  0
 10 13  1  0  0  0  0
 10 21  1  0  0  0  0
 13 12  1  1  0  0  0
 13 15  1  0  0  0  0
 15  2  1  6  0  0  0
 15 17  1  0  0  0  0
 16 25  1  0  0  0  0
 16 23  1  0  0  0  0
 17 19  1  0  0  0  0
 19  5  1  6  0  0  0
 19 21  1  0  0  0  0
 21 14  1  1  0  0  0
 23 14  1  6  0  0  0
 23 29  1  0  0  0  0
 25 26  1  1  0  0  0
 25 27  1  0  0  0  0
 27 18  1  6  0  0  0
 27 28  1  0  0  0  0
 28 20  1  1  0  0  0
 28 29  1  0  0  0  0
 29 11  1  6  0  0  0
 30 22  1  1  0  0  0
 30 31  1  0  0  0  0
 31 24  1  1  0  0  0
M  END
>  <CHROM.1>
62.28406330,7.42025361,42.64685856,87.11142399,74.03140280,165.93611129,41.01198153
23.13328979,1.31912907,-2.98621054,-0.71824441,1.62196673

>  <Name>
ligand

>  <RI>
0

>  <Rbt.Current_Directory>
/home/itssahil/PROJECTS/Mol_Feturizer/New_Systems/rnas/2ET5

>  <Rbt.Executable>
rbdock ($Id: //depot/dev/client3/rdock/2013.1/src/exe/rbdock.cxx#4 $)

>  <Rbt.Library>
libRbt.so (2013.1, Build901 2013/11/27)

>  <Rbt.Parameter_File>
/export/apps/rDock/src/rDock_2013.1_src/data/scripts/dock_solv.prm

>  <Rbt.Receptor>
prm/pocket_docking_3.prm

>  <SCORE>
-2.76863

>  <SCORE.INTER>
-5.10296

>  <SCORE.INTER.CONST>
1

>  <SCORE.INTER.POLAR>
0

>  <SCORE.INTER.ROT>
6

>  <SCORE.INTER.SOLV>
17.1335

>  <SCORE.INTER.VDW>
-16.7131

>  <SCORE.INTER.norm>
-0.164612

>  <SCORE.INTRA>
2.17911

>  <SCORE.INTRA.DIHEDRAL>
1.70219

>  <SCORE.INTRA.DIHEDRAL.0>
11.2357

>  <SCORE.INTRA.POLAR>
0

>  <SCORE.INTRA.POLAR.0>
0

>  <SCORE.INTRA.REPUL>
0

>  <SCORE.INTRA.REPUL.0>
0

>  <SCORE.INTRA.SOLV>
0.333873

>  <SCORE.INTRA.SOLV.lig_0>
-83.3092

>  <SCORE.INTRA.VDW>
1.16108

>  <SCORE.INTRA.VDW.0>
-4.47057

>  <SCORE.INTRA.norm>
0.0702939

>  <SCORE.RESTR>
0.155228

>  <SCORE.RESTR.CAVITY>
0.155228

>  <SCORE.RESTR.norm>
0.00500734

>  <SCORE.SYSTEM>
0

>  <SCORE.SYSTEM.CONST>
0

>  <SCORE.SYSTEM.DIHEDRAL>
0

>  <SCORE.SYSTEM.SOLV>
0

>  <SCORE.SYSTEM.norm>
0

>  <SCORE.heavy>
31

>  <SCORE.norm>
-0.0893105

>  <RMSD>
2.404

$$$$
ligand
 OpenBabel11021811433D
libRbt.so/2013.1/901 2013/11/27
 31 33  0  0  0  0  0  0  0  0999 V2000
   36.8921   25.5408    0.1897 C   0  0  0  0  0  0  0  0  0  0  0  0
   39.1504   24.3443   -3.2701 N   0  0  0  0  0  0  0  0  0  0  0  0
   36.8674   24.6512   -0.9362 O   0  0  0  0  0  0  0  0  0  0  0  0
   37.2413   24.6430    1.3737 C   0  0  1  0  0  0  0  0  0  0  0  0
   42.3295   20.9471   -1.2499 N   0  0  0  0  0  0  0  0  0  0  0  0
   38.5784   23.9330    1.2631 O   0  0  0  0  0  0  0  0  0  0  0  0
   39.5468   24.4517    2.0910 C   0  0  1  0  0  0  0  0  0  0  0  0
   43.2073   17.5057    0.9492 N   0  0  0  0  0  0  0  0  0  0  0  0
   40.7979   24.7442    1.5337 O   0  0  0  0  0  0  0  0  0  0  0  0
   41.1982   24.3317    0.1461 C   0  0  2  0  0  0  0  0  0  0  0  0
   44.6827   23.5995    2.8971 N   0  0  0  0  0  0  0  0  0  0  0  0
   39.6015   25.9876   -0.8024 O   0  0  0  0  0  0  0  0  0  0  0  0
   39.9832   24.5622   -0.8005 C   0  0  1  0  0  0  0  0  0  0  0  0
   42.6947   22.6090    0.9361 O   0  0  0  0  0  0  0  0  0  0  0  0
   40.3551   24.1201   -2.3035 C   0  0  1  0  0  0  0  0  0  0  0  0
   42.2204   20.7957    2.4031 O   0  0  0  0  0  0  0  0  0  0  0  0
   40.7613   22.5826   -2.2680 C   0  0  0  0  0  0  0  0  0  0  0  0
   45.3445   18.8598    1.8001 O   0  0  0  0  0  0  0  0  0  0  0  0
   41.9770   22.4055   -1.2663 C   0  0  1  0  0  0  0  0  0  0  0  0
   46.4297   21.2279    2.9699 O   0  0  0  0  0  0  0  0  0  0  0  0
   41.5977   22.7892    0.1285 C   0  0  2  0  0  0  0  0  0  0  0  0
   39.4424   25.7823    4.0679 O   0  0  0  0  0  0  0  0  0  0  0  0
   42.7198   22.2124    2.3314 C   0  0  1  0  0  0  0  0  0  0  0  0
   37.0865   24.3482    3.8324 O   0  0  0  0  0  0  0  0  0  0  0  0
   43.0990   19.7507    1.7287 C   0  0  2  0  0  0  0  0  0  0  0  0
   42.4542   18.3755    1.8573 C   0  0  0  0  0  0  0  0  0  0  0  0
   44.4900   19.7943    2.4024 C   0  0  2  0  0  0  0  0  0  0  0  0
   45.0961   21.1842    2.3006 C   0  0  1  0  0  0  0  0  0  0  0  0
   44.1349   22.1878    2.9642 C   0  0  1  0  0  0  0  0  0  0  0  0
   38.8889   25.6166    2.8128 C   0  0  2  0  0  0  0  0  0  0  0  0
   37.3614   25.2925    2.7573 C   0  0  1  0  0  0  0  0  0  0  0  0
  1  3  1  0  0  0  0
  4  1  1  6  0  0  0
  4  6  1  0  0  0  0
  4 31  1  0  0  0  0
  6  7  1  0  0  0  0
  7  9  1  6  0  0  0
  7 30  1  0  0  0  0
  8 26  1  0  0  0  0
 10  9  1  1  0  0  0
 10 13  1  0  0  0  0
 10 21  1  0  0  0  0
 13 12  1  6  0  0  0
 13 15  1  0  0  0  0
 15  2  1  6  0  0  0
 15 17  1  0  0  0  0
 16 25  1  0  0  0  0
 16 23  1  0  0  0  0
 17 19  1  0  0  0  0
 19  5  1  1  0  0  0
 19 21  1  0  0  0  0
 21 14  1  1  0  0  0
 23 14  1  6  0  0  0
 23 29  1  0  0  0  0
 25 26  1  1  0  0  0
 25 27  1  0  0  0  0
 27 18  1  6  0  0  0
 27 28  1  0  0  0  0
 28 20  1  1  0  0  0
 28 29  1  0  0  0  0
 29 11  1  6  0  0  0
 30 22  1  1  0  0  0
 30 31  1  0  0  0  0
 31 24  1  1  0  0  0
M  END
>  <CHROM.1>
60.26667451,-9.56273137,41.40335826,66.79278937,94.70539423,168.23664032
41.15371703,22.88855708,1.08435821,-3.12348959,-0.69017434,1.35355062

>  <Name>
ligand

>  <RI>
0

>  <Rbt.Current_Directory>
/home/itssahil/PROJECTS/Mol_Feturizer/New_Systems/rnas/2ET5

>  <Rbt.Executable>
rbdock ($Id: //depot/dev/client3/rdock/2013.1/src/exe/rbdock.cxx#4 $)

>  <Rbt.Library>
libRbt.so (2013.1, Build901 2013/11/27)

>  <Rbt.Parameter_File>
/export/apps/rDock/src/rDock_2013.1_src/data/scripts/dock_solv.prm

>  <Rbt.Receptor>
prm/pocket_docking_2.prm

>  <SCORE>
-1.02048

>  <SCORE.INTER>
-6.14656

>  <SCORE.INTER.CONST>
1

>  <SCORE.INTER.POLAR>
0

>  <SCORE.INTER.ROT>
6

>  <SCORE.INTER.SOLV>
19.769

>  <SCORE.INTER.VDW>
-18.2874

>  <SCORE.INTER.norm>
-0.198276

>  <SCORE.INTRA>
3.65245

>  <SCORE.INTRA.DIHEDRAL>
2.23567

>  <SCORE.INTRA.DIHEDRAL.0>
11.2357

>  <SCORE.INTRA.POLAR>
0

>  <SCORE.INTRA.POLAR.0>
0

>  <SCORE.INTRA.REPUL>
0

>  <SCORE.INTRA.REPUL.0>
0

>  <SCORE.INTRA.SOLV>
0.990828

>  <SCORE.INTRA.SOLV.lig_0>
-83.3092

>  <SCORE.INTRA.VDW>
2.0392

>  <SCORE.INTRA.VDW.0>
-4.47057

>  <SCORE.INTRA.norm>
0.117821

>  <SCORE.RESTR>
1.47363

>  <SCORE.RESTR.CAVITY>
1.47363

>  <SCORE.RESTR.norm>
0.0475364

>  <SCORE.SYSTEM>
0

>  <SCORE.SYSTEM.CONST>
0

>  <SCORE.SYSTEM.DIHEDRAL>
0

>  <SCORE.SYSTEM.SOLV>
0

>  <SCORE.SYSTEM.norm>
0

>  <SCORE.heavy>
31

>  <SCORE.norm>
-0.0329187

>  <RMSD>
2.446

$$$$
ligand
 OpenBabel11021811433D
libRbt.so/2013.1/901 2013/11/27
 31 33  0  0  0  0  0  0  0  0999 V2000
   36.2931   26.2423    0.8882 C   0  0  0  0  0  0  0  0  0  0  0  0
   39.0391   24.5144   -3.5499 N   0  0  0  0  0  0  0  0  0  0  0  0
   36.4513   26.0894   -0.5300 O   0  0  0  0  0  0  0  0  0  0  0  0
   36.6102   24.8610    1.4553 C   0  0  1  0  0  0  0  0  0  0  0  0
   42.2680   21.2261   -1.4310 N   0  0  0  0  0  0  0  0  0  0  0  0
   37.8856   24.2315    0.9252 O   0  0  0  0  0  0  0  0  0  0  0  0
   38.9158   24.2249    1.8366 C   0  0  1  0  0  0  0  0  0  0  0  0
   42.1933   17.9852    2.3720 N   0  0  0  0  0  0  0  0  0  0  0  0
   40.1674   24.6906    1.4146 O   0  0  0  0  0  0  0  0  0  0  0  0
   40.7346   24.4091    0.0526 C   0  0  2  0  0  0  0  0  0  0  0  0
   43.8727   23.6400    3.2171 N   0  0  0  0  0  0  0  0  0  0  0  0
   39.1104   26.0059   -0.9492 O   0  0  0  0  0  0  0  0  0  0  0  0
   39.6041   24.6162   -0.9984 C   0  0  1  0  0  0  0  0  0  0  0  0
   42.2804   22.7499    0.8824 O   0  0  0  0  0  0  0  0  0  0  0  0
   40.1568   24.3115   -2.4797 C   0  0  1  0  0  0  0  0  0  0  0  0
   41.9667   20.6491    1.9564 O   0  0  0  0  0  0  0  0  0  0  0  0
   40.6806   22.8097   -2.5002 C   0  0  0  0  0  0  0  0  0  0  0  0
   45.4108   19.3279    1.4435 O   0  0  0  0  0  0  0  0  0  0  0  0
   41.8020   22.6518   -1.3911 C   0  0  1  0  0  0  0  0  0  0  0  0
   45.9698   21.5726    3.1177 O   0  0  0  0  0  0  0  0  0  0  0  0
   41.2573   22.9056   -0.0216 C   0  0  2  0  0  0  0  0  0  0  0  0
   38.9744   24.4111    4.2138 O   0  0  0  0  0  0  0  0  0  0  0  0
   42.2310   22.1119    2.1844 C   0  0  1  0  0  0  0  0  0  0  0  0
   36.5106   23.4006    3.4586 O   0  0  0  0  0  0  0  0  0  0  0  0
   43.0679   19.8835    1.2356 C   0  0  2  0  0  0  0  0  0  0  0  0
   42.6485   18.4296    1.0515 C   0  0  0  0  0  0  0  0  0  0  0  0
   44.3586   20.0029    2.0786 C   0  0  2  0  0  0  0  0  0  0  0  0
   44.7350   21.4604    2.2863 C   0  0  1  0  0  0  0  0  0  0  0  0
   43.5606   22.1761    2.9792 C   0  0  1  0  0  0  0  0  0  0  0  0
   38.3710   24.9140    3.0771 C   0  0  2  0  0  0  0  0  0  0  0  0
   36.8223   24.7369    2.9686 C   0  0  1  0  0  0  0  0  0  0  0  0
  1  3  1  0  0  0  0
  4  1  1  1  0  0  0
  4  6  1  0  0  0  0
  4 31  1  0  0  0  0
  6  7  1  0  0  0  0
  7  9  1  6  0  0  0
  7 30  1  0  0  0  0
  8 26  1  0  0  0  0
 10  9  1  1  0  0  0
 10 13  1  0  0  0  0
 10 21  1  0  0  0  0
 13 12  1  6  0  0  0
 13 15  1  0  0  0  0
 15  2  1  6  0  0  0
 15 17  1  0  0  0  0
 16 25  1  0  0  0  0
 16 23  1  0  0  0  0
 17 19  1  0  0  0  0
 19  5  1  1  0  0  0
 19 21  1  0  0  0  0
 21 14  1  1  0  0  0
 23 14  1  6  0  0  0
 23 29  1  0  0  0  0
 25 26  1  1  0  0  0
 25 27  1  0  0  0  0
 27 18  1  6  0  0  0
 27 28  1  0  0  0  0
 28 20  1  1  0  0  0
 28 29  1  0  0  0  0
 29 11  1  6  0  0  0
 30 22  1  1  0  0  0
 30 31  1  0  0  0  0
 31 24  1  6  0  0  0
M  END
>  <CHROM.1>
48.18997256,-39.05808832,43.85388829,66.23024942,102.75255713,-49.57390490
40.75572816,22.95533366,1.03162891,2.90572926,0.61790002,-1.42809105

>  <Name>
ligand

>  <RI>
0

>  <Rbt.Current_Directory>
/home/itssahil/PROJECTS/Mol_Feturizer/New_Systems/rnas/2ET5

>  <Rbt.Executable>
rbdock ($Id: //depot/dev/client3/rdock/2013.1/src/exe/rbdock.cxx#4 $)

>  <Rbt.Library>
libRbt.so (2013.1, Build901 2013/11/27)

>  <Rbt.Parameter_File>
/export/apps/rDock/src/rDock_2013.1_src/data/scripts/dock_solv.prm

>  <Rbt.Receptor>
prm/pocket_docking_2.prm

>  <SCORE>
-1.14673

>  <SCORE.INTER>
-4.35574

>  <SCORE.INTER.CONST>
1

>  <SCORE.INTER.POLAR>
0

>  <SCORE.INTER.ROT>
6

>  <SCORE.INTER.SOLV>
25.3168

>  <SCORE.INTER.VDW>
-18.9428

>  <SCORE.INTER.norm>
-0.140508

>  <SCORE.INTRA>
1.538

>  <SCORE.INTRA.DIHEDRAL>
-1.1094

>  <SCORE.INTRA.DIHEDRAL.0>
11.2357

>  <SCORE.INTRA.POLAR>
0

>  <SCORE.INTRA.POLAR.0>
0

>  <SCORE.INTRA.REPUL>
0

>  <SCORE.INTRA.REPUL.0>
0

>  <SCORE.INTRA.SOLV>
0.402359

>  <SCORE.INTRA.SOLV.lig_0>
-83.3092

>  <SCORE.INTRA.VDW>
1.89151

>  <SCORE.INTRA.VDW.0>
-4.47057

>  <SCORE.INTRA.norm>
0.0496128

>  <SCORE.RESTR>
1.67101

>  <SCORE.RESTR.CAVITY>
1.67101

>  <SCORE.RESTR.norm>
0.0539036

>  <SCORE.SYSTEM>
0

>  <SCORE.SYSTEM.CONST>
0

>  <SCORE.SYSTEM.DIHEDRAL>
0

>  <SCORE.SYSTEM.SOLV>
0

>  <SCORE.SYSTEM.norm>
0

>  <SCORE.heavy>
31

>  <SCORE.norm>
-0.0369914

>  <RMSD>
2.452

$$$$
ligand
 OpenBabel11021811433D
libRbt.so/2013.1/901 2013/11/27
 31 33  0  0  0  0  0  0  0  0999 V2000
   35.8330   26.4829    1.2937 C   0  0  0  0  0  0  0  0  0  0  0  0
   39.1213   24.4107   -3.8367 N   0  0  0  0  0  0  0  0  0  0  0  0
   35.5110   26.5014   -0.1047 O   0  0  0  0  0  0  0  0  0  0  0  0
   36.2464   25.0392    1.5676 C   0  0  1  0  0  0  0  0  0  0  0  0
   42.1699   21.3805   -1.1437 N   0  0  0  0  0  0  0  0  0  0  0  0
   37.4824   24.5766    0.8176 O   0  0  0  0  0  0  0  0  0  0  0  0
   38.5968   24.4564    1.6150 C   0  0  1  0  0  0  0  0  0  0  0  0
   43.5135   18.2212    1.1890 N   0  0  0  0  0  0  0  0  0  0  0  0
   39.7861   25.0495    1.1733 O   0  0  0  0  0  0  0  0  0  0  0  0
   40.4787   24.6570   -0.1003 C   0  0  2  0  0  0  0  0  0  0  0  0
   43.2311   24.4162    3.3445 N   0  0  0  0  0  0  0  0  0  0  0  0
   38.9398   26.1299   -1.3863 O   0  0  0  0  0  0  0  0  0  0  0  0
   39.4481   24.7500   -1.2642 C   0  0  1  0  0  0  0  0  0  0  0  0
   41.9559   23.1051    1.0136 O   0  0  0  0  0  0  0  0  0  0  0  0
   40.1374   24.3234   -2.6554 C   0  0  1  0  0  0  0  0  0  0  0  0
   41.5733   21.1824    2.3634 O   0  0  0  0  0  0  0  0  0  0  0  0
   40.6739   22.8349   -2.4919 C   0  0  0  0  0  0  0  0  0  0  0  0
   45.0892   19.9578    2.4632 O   0  0  0  0  0  0  0  0  0  0  0  0
   41.6898   22.7960   -1.2757 C   0  0  1  0  0  0  0  0  0  0  0  0
   45.3810   22.4567    3.8140 O   0  0  0  0  0  0  0  0  0  0  0  0
   41.0191   23.1620    0.0099 C   0  0  2  0  0  0  0  0  0  0  0  0
   38.8824   24.2166    3.9709 O   0  0  0  0  0  0  0  0  0  0  0  0
   41.7680   22.6734    2.3858 C   0  0  1  0  0  0  0  0  0  0  0  0
   36.3885   23.2407    3.2709 O   0  0  0  0  0  0  0  0  0  0  0  0
   42.7739   20.3664    1.9035 C   0  0  2  0  0  0  0  0  0  0  0  0
   42.4197   18.8839    1.9051 C   0  0  0  0  0  0  0  0  0  0  0  0
   43.9501   20.6734    2.8589 C   0  0  2  0  0  0  0  0  0  0  0  0
   44.2586   22.1613    2.8751 C   0  0  1  0  0  0  0  0  0  0  0  0
   42.9902   22.9202    3.3072 C   0  0  1  0  0  0  0  0  0  0  0  0
   38.1553   24.8853    3.0049 C   0  0  2  0  0  0  0  0  0  0  0  0
   36.6097   24.6565    3.0071 C   0  0  1  0  0  0  0  0  0  0  0  0
  1  3  1  0  0  0  0
  4  1  1  1  0  0  0
  4  6  1  0  0  0  0
  4 31  1  0  0  0  0
  6  7  1  0  0  0  0
  7  9  1  6  0  0  0
  7 30  1  0  0  0  0
  8 26  1  0  0  0  0
 10  9  1  1  0  0  0
 10 13  1  0  0  0  0
 10 21  1  0  0  0  0
 13 12  1  6  0  0  0
 13 15  1  0  0  0  0
 15  2  1  6  0  0  0
 15 17  1  0  0  0  0
 16 25  1  0  0  0  0
 16 23  1  0  0  0  0
 17 19  1  0  0  0  0
 19  5  1  1  0  0  0
 19 21  1  0  0  0  0
 21 14  1  1  0  0  0
 23 14  1  6  0  0  0
 23 29  1  0  0  0  0
 25 26  1  1  0  0  0
 25 27  1  0  0  0  0
 27 18  1  6  0  0  0
 27 28  1  0  0  0  0
 28 20  1  1  0  0  0
 28 29  1  0  0  0  0
 29 11  1  6  0  0  0
 30 22  1  1  0  0  0
 30 31  1  0  0  0  0
 31 24  1  6  0  0  0
M  END
>  <CHROM.1>
63.01694935,-61.56811944,53.48803553,71.31482126,97.97072516,168.26873442
40.49747609,23.25732747,1.15000068,2.87852993,0.58388135,-1.48800238

>  <Name>
ligand

>  <RI>
0

>  <Rbt.Current_Directory>
/home/itssahil/PROJECTS/Mol_Feturizer/New_Systems/rnas/2ET5

>  <Rbt.Executable>
rbdock ($Id: //depot/dev/client3/rdock/2013.1/src/exe/rbdock.cxx#4 $)

>  <Rbt.Library>
libRbt.so (2013.1, Build901 2013/11/27)

>  <Rbt.Parameter_File>
/export/apps/rDock/src/rDock_2013.1_src/data/scripts/dock_solv.prm

>  <Rbt.Receptor>
prm/pocket_docking_5.prm

>  <SCORE>
-10.6132

>  <SCORE.INTER>
-8.76031

>  <SCORE.INTER.CONST>
1

>  <SCORE.INTER.POLAR>
0

>  <SCORE.INTER.ROT>
6

>  <SCORE.INTER.SOLV>
18.5295

>  <SCORE.INTER.VDW>
-19.6167

>  <SCORE.INTER.norm>
-0.28259

>  <SCORE.INTRA>
-1.85293

>  <SCORE.INTRA.DIHEDRAL>
-4.7115

>  <SCORE.INTRA.DIHEDRAL.0>
11.2357

>  <SCORE.INTRA.POLAR>
0

>  <SCORE.INTRA.POLAR.0>
0

>  <SCORE.INTRA.REPUL>
0

>  <SCORE.INTRA.REPUL.0>
0

>  <SCORE.INTRA.SOLV>
-0.726044

>  <SCORE.INTRA.SOLV.lig_0>
-83.3092

>  <SCORE.INTRA.VDW>
0.865839

>  <SCORE.INTRA.VDW.0>
-4.47057

>  <SCORE.INTRA.norm>
-0.059772

>  <SCORE.RESTR>
0

>  <SCORE.RESTR.CAVITY>
0

>  <SCORE.RESTR.norm>
0

>  <SCORE.SYSTEM>
0

>  <SCORE.SYSTEM.CONST>
0

>  <SCORE.SYSTEM.DIHEDRAL>
0

>  <SCORE.SYSTEM.SOLV>
0

>  <SCORE.SYSTEM.norm>
0

>  <SCORE.heavy>
31

>  <SCORE.norm>
-0.342363

>  <RMSD>
2.571

$$$$
ligand
 OpenBabel11021811433D
libRbt.so/2013.1/901 2013/11/27
 31 33  0  0  0  0  0  0  0  0999 V2000
   35.2277   24.1328    3.5557 C   0  0  0  0  0  0  0  0  0  0  0  0
   39.2739   24.2848   -3.5707 N   0  0  0  0  0  0  0  0  0  0  0  0
   34.3486   24.9849    4.3045 O   0  0  0  0  0  0  0  0  0  0  0  0
   36.6115   24.4135    4.1358 C   0  0  1  0  0  0  0  0  0  0  0  0
   43.3439   24.1789   -0.5454 N   0  0  0  0  0  0  0  0  0  0  0  0
   37.7282   23.5600    3.5626 O   0  0  0  0  0  0  0  0  0  0  0  0
   38.5625   24.2456    2.7106 C   0  0  1  0  0  0  0  0  0  0  0  0
   42.6259   20.0559    1.0574 N   0  0  0  0  0  0  0  0  0  0  0  0
   38.8498   23.6670    1.4680 O   0  0  0  0  0  0  0  0  0  0  0  0
   39.6339   24.3670    0.3951 C   0  0  2  0  0  0  0  0  0  0  0  0
   42.2429   25.6676    4.2507 N   0  0  0  0  0  0  0  0  0  0  0  0
   37.6221   24.3672   -1.0692 O   0  0  0  0  0  0  0  0  0  0  0  0
   39.0387   23.9625   -0.9861 C   0  0  1  0  0  0  0  0  0  0  0  0
   41.6853   24.3262    1.6684 O   0  0  0  0  0  0  0  0  0  0  0  0
   39.8553   24.6760   -2.1763 C   0  0  1  0  0  0  0  0  0  0  0  0
   41.8528   22.2263    2.7764 O   0  0  0  0  0  0  0  0  0  0  0  0
   41.3750   24.2208   -2.0595 C   0  0  0  0  0  0  0  0  0  0  0  0
   45.5534   22.1984    3.1964 O   0  0  0  0  0  0  0  0  0  0  0  0
   41.9146   24.6282   -0.6258 C   0  0  1  0  0  0  0  0  0  0  0  0
   44.8753   24.4627    4.7988 O   0  0  0  0  0  0  0  0  0  0  0  0
   41.1640   23.9270    0.4612 C   0  0  2  0  0  0  0  0  0  0  0  0
   39.0181   26.5680    2.4131 O   0  0  0  0  0  0  0  0  0  0  0  0
   41.5351   23.6845    2.9609 C   0  0  1  0  0  0  0  0  0  0  0  0
   38.1485   26.1547    5.0083 O   0  0  0  0  0  0  0  0  0  0  0  0
   43.2920   21.9071    2.3949 C   0  0  2  0  0  0  0  0  0  0  0  0
   43.4553   20.4023    2.2152 C   0  0  0  0  0  0  0  0  0  0  0  0
   44.2110   22.4515    3.5129 C   0  0  2  0  0  0  0  0  0  0  0  0
   44.0016   23.9443    3.7050 C   0  0  1  0  0  0  0  0  0  0  0  0
   42.5202   24.1917    4.0453 C   0  0  1  0  0  0  0  0  0  0  0  0
   38.0034   25.6571    2.6360 C   0  0  2  0  0  0  0  0  0  0  0  0
   37.1919   25.8217    3.9610 C   0  0  1  0  0  0  0  0  0  0  0  0
  1  3  1  0  0  0  0
  4  1  1  6  0  0  0
  4  6  1  0  0  0  0
  4 31  1  0  0  0  0
  6  7  1  0  0  0  0
  7  9  1  6  0  0  0
  7 30  1  0  0  0  0
  8 26  1  0  0  0  0
 10  9  1  1  0  0  0
 10 13  1  0  0  0  0
 10 21  1  0  0  0  0
 13 12  1  1  0  0  0
 13 15  1  0  0  0  0
 15  2  1  6  0  0  0
 15 17  1  0  0  0  0
 16 25  1  0  0  0  0
 16 23  1  0  0  0  0
 17 19  1  0  0  0  0
 19  5  1  6  0  0  0
 19 21  1  0  0  0  0
 21 14  1  1  0  0  0
 23 14  1  6  0  0  0
 23 29  1  0  0  0  0
 25 26  1  1  0  0  0
 25 27  1  0  0  0  0
 27 18  1  6  0  0  0
 27 28  1  0  0  0  0
 28 20  1  1  0  0  0
 28 29  1  0  0  0  0
 29 11  1  6  0  0  0
 30 22  1  1  0  0  0
 30 31  1  0  0  0  0
 31 24  1  1  0  0  0
M  END
>  <CHROM.1>
176.37084242,173.85084421,-144.19562468,49.15922256,79.40044575,65.44125905
40.45120228,23.98590390,1.98014197,-3.07459944,0.29780708,-1.63695540

>  <Name>
ligand

>  <RI>
0

>  <Rbt.Current_Directory>
/home/itssahil/PROJECTS/Mol_Feturizer/New_Systems/rnas/2ET5

>  <Rbt.Executable>
rbdock ($Id: //depot/dev/client3/rdock/2013.1/src/exe/rbdock.cxx#4 $)

>  <Rbt.Library>
libRbt.so (2013.1, Build901 2013/11/27)

>  <Rbt.Parameter_File>
/export/apps/rDock/src/rDock_2013.1_src/data/scripts/dock_solv.prm

>  <Rbt.Receptor>
prm/pocket_docking_4.prm

>  <SCORE>
-7.5098

>  <SCORE.INTER>
-5.08209

>  <SCORE.INTER.CONST>
1

>  <SCORE.INTER.POLAR>
0

>  <SCORE.INTER.ROT>
6

>  <SCORE.INTER.SOLV>
14.0665

>  <SCORE.INTER.VDW>
-15.6769

>  <SCORE.INTER.norm>
-0.163938

>  <SCORE.INTRA>
-2.42771

>  <SCORE.INTRA.DIHEDRAL>
-3.82683

>  <SCORE.INTRA.DIHEDRAL.0>
11.2357

>  <SCORE.INTRA.POLAR>
0

>  <SCORE.INTRA.POLAR.0>
0

>  <SCORE.INTRA.REPUL>
0

>  <SCORE.INTRA.REPUL.0>
0

>  <SCORE.INTRA.SOLV>
-2.50796

>  <SCORE.INTRA.SOLV.lig_0>
-83.3092

>  <SCORE.INTRA.VDW>
0.73968

>  <SCORE.INTRA.VDW.0>
-4.47057

>  <SCORE.INTRA.norm>
-0.0783133

>  <SCORE.RESTR>
0

>  <SCORE.RESTR.CAVITY>
0

>  <SCORE.RESTR.norm>
0

>  <SCORE.SYSTEM>
0

>  <SCORE.SYSTEM.CONST>
0

>  <SCORE.SYSTEM.DIHEDRAL>
0

>  <SCORE.SYSTEM.SOLV>
0

>  <SCORE.SYSTEM.norm>
0

>  <SCORE.heavy>
31

>  <SCORE.norm>
-0.242252

>  <RMSD>
2.609

$$$$
ligand
 OpenBabel11021811433D
libRbt.so/2013.1/901 2013/11/27
 31 33  0  0  0  0  0  0  0  0999 V2000
   35.8435   26.5185    0.9050 C   0  0  0  0  0  0  0  0  0  0  0  0
   39.3874   23.9348   -3.9079 N   0  0  0  0  0  0  0  0  0  0  0  0
   35.6291   26.4414   -0.5119 O   0  0  0  0  0  0  0  0  0  0  0  0
   36.2515   25.1026    1.3036 C   0  0  1  0  0  0  0  0  0  0  0  0
   42.3445   21.2580   -0.7744 N   0  0  0  0  0  0  0  0  0  0  0  0
   37.5145   24.5909    0.6349 O   0  0  0  0  0  0  0  0  0  0  0  0
   38.6005   24.5388    1.4774 C   0  0  1  0  0  0  0  0  0  0  0  0
   42.7654   18.8487    0.9286 N   0  0  0  0  0  0  0  0  0  0  0  0
   39.8028   25.1032    1.0330 O   0  0  0  0  0  0  0  0  0  0  0  0
   40.5609   24.5932   -0.1591 C   0  0  2  0  0  0  0  0  0  0  0  0
   42.6465   24.7316    3.6275 N   0  0  0  0  0  0  0  0  0  0  0  0
   39.0654   25.8958   -1.6620 O   0  0  0  0  0  0  0  0  0  0  0  0
   39.5860   24.5456   -1.3728 C   0  0  1  0  0  0  0  0  0  0  0  0
   42.0040   23.1933    1.1782 O   0  0  0  0  0  0  0  0  0  0  0  0
   40.3469   23.9896   -2.6783 C   0  0  1  0  0  0  0  0  0  0  0  0
   42.0870   21.1946    2.4679 O   0  0  0  0  0  0  0  0  0  0  0  0
   40.8952   22.5364   -2.3352 C   0  0  0  0  0  0  0  0  0  0  0  0
   45.7863   21.0341    2.8683 O   0  0  0  0  0  0  0  0  0  0  0  0
   41.8521   22.6429   -1.0760 C   0  0  1  0  0  0  0  0  0  0  0  0
   45.2268   23.4604    4.2663 O   0  0  0  0  0  0  0  0  0  0  0  0
   41.1157   23.1281    0.1318 C   0  0  2  0  0  0  0  0  0  0  0  0
   38.8040   24.4824    3.8533 O   0  0  0  0  0  0  0  0  0  0  0  0
   41.8373   22.6765    2.5235 C   0  0  1  0  0  0  0  0  0  0  0  0
   36.3393   23.4412    3.1441 O   0  0  0  0  0  0  0  0  0  0  0  0
   43.5065   20.7770    2.1084 C   0  0  2  0  0  0  0  0  0  0  0  0
   43.5997   19.2562    2.0626 C   0  0  0  0  0  0  0  0  0  0  0  0
   44.4598   21.3757    3.1683 C   0  0  2  0  0  0  0  0  0  0  0  0
   44.3201   22.8877    3.2279 C   0  0  1  0  0  0  0  0  0  0  0  0
   42.8547   23.2321    3.5529 C   0  0  1  0  0  0  0  0  0  0  0  0
   38.1092   25.0707    2.8139 C   0  0  2  0  0  0  0  0  0  0  0  0
   36.5651   24.8338    2.7800 C   0  0  1  0  0  0  0  0  0  0  0  0
  1  3  1  0  0  0  0
  4  1  1  1  0  0  0
  4  6  1  0  0  0  0
  4 31  1  0  0  0  0
  6  7  1  0  0  0  0
  7  9  1  6  0  0  0
  7 30  1  0  0  0  0
  8 26  1  0  0  0  0
 10  9  1  1  0  0  0
 10 13  1  0  0  0  0
 10 21  1  0  0  0  0
 13 12  1  6  0  0  0
 13 15  1  0  0  0  0
 15  2  1  6  0  0  0
 15 17  1  0  0  0  0
 16 25  1  0  0  0  0
 16 23  1  0  0  0  0
 17 19  1  0  0  0  0
 19  5  1  1  0  0  0
 19 21  1  0  0  0  0
 21 14  1  1  0  0  0
 23 14  1  6  0  0  0
 23 29  1  0  0  0  0
 25 26  1  1  0  0  0
 25 27  1  0  0  0  0
 27 18  1  6  0  0  0
 27 28  1  0  0  0  0
 28 20  1  1  0  0  0
 28 29  1  0  0  0  0
 29 11  1  6  0  0  0
 30 22  1  1  0  0  0
 30 31  1  0  0  0  0
 31 24  1  6  0  0  0
M  END
>  <CHROM.1>
60.50147679,-63.34528719,53.36171965,78.45828902,110.35212296,66.51536529
40.61472509,23.41509639,1.16994890,2.92157257,0.53783222,-1.66721244

>  <Name>
ligand

>  <RI>
0

>  <Rbt.Current_Directory>
/home/itssahil/PROJECTS/Mol_Feturizer/New_Systems/rnas/2ET5

>  <Rbt.Executable>
rbdock ($Id: //depot/dev/client3/rdock/2013.1/src/exe/rbdock.cxx#4 $)

>  <Rbt.Library>
libRbt.so (2013.1, Build901 2013/11/27)

>  <Rbt.Parameter_File>
/export/apps/rDock/src/rDock_2013.1_src/data/scripts/dock_solv.prm

>  <Rbt.Receptor>
prm/pocket_docking_7.prm

>  <SCORE>
-9.96803

>  <SCORE.INTER>
-9.56648

>  <SCORE.INTER.CONST>
1

>  <SCORE.INTER.POLAR>
0

>  <SCORE.INTER.ROT>
6

>  <SCORE.INTER.SOLV>
18.7409

>  <SCORE.INTER.VDW>
-20.2246

>  <SCORE.INTER.norm>
-0.308596

>  <SCORE.INTRA>
-0.401546

>  <SCORE.INTRA.DIHEDRAL>
-2.40518

>  <SCORE.INTRA.DIHEDRAL.0>
11.2357

>  <SCORE.INTRA.POLAR>
0

>  <SCORE.INTRA.POLAR.0>
0

>  <SCORE.INTRA.REPUL>
0

>  <SCORE.INTRA.REPUL.0>
0

>  <SCORE.INTRA.SOLV>
0.726008

>  <SCORE.INTRA.SOLV.lig_0>
-83.3092

>  <SCORE.INTRA.VDW>
0.438042

>  <SCORE.INTRA.VDW.0>
-4.47057

>  <SCORE.INTRA.norm>
-0.0129531

>  <SCORE.RESTR>
0

>  <SCORE.RESTR.CAVITY>
0

>  <SCORE.RESTR.norm>
0

>  <SCORE.SYSTEM>
0

>  <SCORE.SYSTEM.CONST>
0

>  <SCORE.SYSTEM.DIHEDRAL>
0

>  <SCORE.SYSTEM.SOLV>
0

>  <SCORE.SYSTEM.norm>
0

>  <SCORE.heavy>
31

>  <SCORE.norm>
-0.321549

>  <RMSD>
2.684

$$$$
ligand
 OpenBabel11021811433D
libRbt.so/2013.1/901 2013/11/27
 31 33  0  0  0  0  0  0  0  0999 V2000
   40.2617   23.7910    5.0046 C   0  0  0  0  0  0  0  0  0  0  0  0
   38.5888   26.3207   -3.2748 N   0  0  0  0  0  0  0  0  0  0  0  0
   39.9779   22.5885    4.2745 O   0  0  0  0  0  0  0  0  0  0  0  0
   39.4522   24.8687    4.2880 C   0  0  1  0  0  0  0  0  0  0  0  0
   41.0756   21.9012   -3.1651 N   0  0  0  0  0  0  0  0  0  0  0  0
   39.7045   24.9682    2.7945 O   0  0  0  0  0  0  0  0  0  0  0  0
   38.6735   24.4757    2.0286 C   0  0  1  0  0  0  0  0  0  0  0  0
   42.9079   24.7210    3.4622 N   0  0  0  0  0  0  0  0  0  0  0  0
   38.9909   23.5797    1.0001 O   0  0  0  0  0  0  0  0  0  0  0  0
   39.7154   23.9854   -0.2514 C   0  0  2  0  0  0  0  0  0  0  0  0
   42.4520   19.3656   -0.2591 N   0  0  0  0  0  0  0  0  0  0  0  0
   38.4485   26.1268   -0.2855 O   0  0  0  0  0  0  0  0  0  0  0  0
   38.7821   24.9238   -1.0723 C   0  0  1  0  0  0  0  0  0  0  0  0
   40.9233   21.8997   -0.3991 O   0  0  0  0  0  0  0  0  0  0  0  0
   39.5072   25.3777   -2.4365 C   0  0  1  0  0  0  0  0  0  0  0  0
   42.9275   23.0821    0.1011 O   0  0  0  0  0  0  0  0  0  0  0  0
   39.8533   24.0616   -3.2602 C   0  0  0  0  0  0  0  0  0  0  0  0
   43.1320   22.1772    3.7081 O   0  0  0  0  0  0  0  0  0  0  0  0
   40.7748   23.1339   -2.3643 C   0  0  1  0  0  0  0  0  0  0  0  0
   43.4085   19.5961    2.5183 O   0  0  0  0  0  0  0  0  0  0  0  0
   40.0681   22.6973   -1.1207 C   0  0  2  0  0  0  0  0  0  0  0  0
   36.3666   24.0761    2.4847 O   0  0  0  0  0  0  0  0  0  0  0  0
   42.3685   21.8217   -0.4992 C   0  0  1  0  0  0  0  0  0  0  0  0
   37.2802   26.0631    4.1814 O   0  0  0  0  0  0  0  0  0  0  0  0
   42.6917   23.2634    1.5945 C   0  0  2  0  0  0  0  0  0  0  0  0
   43.2854   24.5907    2.0519 C   0  0  0  0  0  0  0  0  0  0  0  0
   43.3403   22.0655    2.3259 C   0  0  2  0  0  0  0  0  0  0  0  0
   42.7655   20.7511    1.8248 C   0  0  1  0  0  0  0  0  0  0  0  0
   43.0037   20.6592    0.3062 C   0  0  1  0  0  0  0  0  0  0  0  0
   37.6373   23.9631    3.0155 C   0  0  2  0  0  0  0  0  0  0  0  0
   37.9232   24.7637    4.3265 C   0  0  1  0  0  0  0  0  0  0  0  0
  1  3  1  0  0  0  0
  4  1  1  6  0  0  0
  4  6  1  0  0  0  0
  4 31  1  0  0  0  0
  6  7  1  0  0  0  0
  7  9  1  6  0  0  0
  7 30  1  0  0  0  0
  8 26  1  0  0  0  0
 10  9  1  1  0  0  0
 10 13  1  0  0  0  0
 10 21  1  0  0  0  0
 13 12  1  1  0  0  0
 13 15  1  0  0  0  0
 15  2  1  6  0  0  0
 15 17  1  0  0  0  0
 16 25  1  0  0  0  0
 16 23  1  0  0  0  0
 17 19  1  0  0  0  0
 19  5  1  6  0  0  0
 19 21  1  0  0  0  0
 21 14  1  1  0  0  0
 23 14  1  1  0  0  0
 23 29  1  0  0  0  0
 25 26  1  1  0  0  0
 25 27  1  0  0  0  0
 27 18  1  1  0  0  0
 27 28  1  0  0  0  0
 28 20  1  1  0  0  0
 28 29  1  0  0  0  0
 29 11  1  6  0  0  0
 30 22  1  6  0  0  0
 30 31  1  0  0  0  0
 31 24  1  6  0  0  0
M  END
>  <CHROM.1>
-53.98655152,-70.14643101,-67.35016707,72.32228570,-98.04284746,175.29067486
40.50844312,23.41097939,1.11210698,-2.73987740,0.68173189,-1.58068004

>  <Name>
ligand

>  <RI>
0

>  <Rbt.Current_Directory>
/home/itssahil/PROJECTS/Mol_Feturizer/New_Systems/rnas/2ET5

>  <Rbt.Executable>
rbdock ($Id: //depot/dev/client3/rdock/2013.1/src/exe/rbdock.cxx#4 $)

>  <Rbt.Library>
libRbt.so (2013.1, Build901 2013/11/27)

>  <Rbt.Parameter_File>
/export/apps/rDock/src/rDock_2013.1_src/data/scripts/dock_solv.prm

>  <Rbt.Receptor>
prm/pocket_docking_2.prm

>  <SCORE>
2.71976

>  <SCORE.INTER>
1.89162

>  <SCORE.INTER.CONST>
1

>  <SCORE.INTER.POLAR>
0

>  <SCORE.INTER.ROT>
6

>  <SCORE.INTER.SOLV>
19.7753

>  <SCORE.INTER.VDW>
-12.9307

>  <SCORE.INTER.norm>
0.06102

>  <SCORE.INTRA>
0.362744

>  <SCORE.INTRA.DIHEDRAL>
-4.36645

>  <SCORE.INTRA.DIHEDRAL.0>
11.2357

>  <SCORE.INTRA.POLAR>
0

>  <SCORE.INTRA.POLAR.0>
0

>  <SCORE.INTRA.REPUL>
0

>  <SCORE.INTRA.REPUL.0>
0

>  <SCORE.INTRA.SOLV>
2.3191

>  <SCORE.INTRA.SOLV.lig_0>
-83.3092

>  <SCORE.INTRA.VDW>
1.38642

>  <SCORE.INTRA.VDW.0>
-4.47057

>  <SCORE.INTRA.norm>
0.0117014

>  <SCORE.RESTR>
0.465397

>  <SCORE.RESTR.CAVITY>
0.465397

>  <SCORE.RESTR.norm>
0.0150128

>  <SCORE.SYSTEM>
0

>  <SCORE.SYSTEM.CONST>
0

>  <SCORE.SYSTEM.DIHEDRAL>
0

>  <SCORE.SYSTEM.SOLV>
0

>  <SCORE.SYSTEM.norm>
0

>  <SCORE.heavy>
31

>  <SCORE.norm>
0.0877342

>  <RMSD>
2.697

$$$$
ligand
 OpenBabel11021811433D
libRbt.so/2013.1/901 2013/11/27
 31 33  0  0  0  0  0  0  0  0999 V2000
   36.1906   26.1636   -0.4583 C   0  0  0  0  0  0  0  0  0  0  0  0
   39.7095   23.7613   -4.0266 N   0  0  0  0  0  0  0  0  0  0  0  0
   34.9512   26.7064    0.0202 O   0  0  0  0  0  0  0  0  0  0  0  0
   36.5591   25.0977    0.5703 C   0  0  1  0  0  0  0  0  0  0  0  0
   42.2660   21.0665   -0.5726 N   0  0  0  0  0  0  0  0  0  0  0  0
   37.9242   24.4645    0.3714 O   0  0  0  0  0  0  0  0  0  0  0  0
   38.8607   24.8759    1.2911 C   0  0  1  0  0  0  0  0  0  0  0  0
   42.9672   18.8877    0.8238 N   0  0  0  0  0  0  0  0  0  0  0  0
   40.1066   25.3008    0.8130 O   0  0  0  0  0  0  0  0  0  0  0  0
   40.8388   24.6125   -0.3032 C   0  0  2  0  0  0  0  0  0  0  0  0
   42.5978   24.6264    3.7375 N   0  0  0  0  0  0  0  0  0  0  0  0
   39.5380   25.9317   -1.9643 O   0  0  0  0  0  0  0  0  0  0  0  0
   39.9000   24.5640   -1.5449 C   0  0  1  0  0  0  0  0  0  0  0  0
   42.0818   23.1881    1.1991 O   0  0  0  0  0  0  0  0  0  0  0  0
   40.6333   23.8199   -2.7702 C   0  0  1  0  0  0  0  0  0  0  0  0
   42.2395   21.1314    2.3867 O   0  0  0  0  0  0  0  0  0  0  0  0
   41.0101   22.3518   -2.2876 C   0  0  0  0  0  0  0  0  0  0  0  0
   45.9336   21.1322    2.8609 O   0  0  0  0  0  0  0  0  0  0  0  0
   41.9361   22.4646   -1.0060 C   0  0  1  0  0  0  0  0  0  0  0  0
   45.2255   23.4520    4.3680 O   0  0  0  0  0  0  0  0  0  0  0  0
   41.2222   23.1274    0.1287 C   0  0  2  0  0  0  0  0  0  0  0  0
   38.6787   25.8609    3.4558 O   0  0  0  0  0  0  0  0  0  0  0  0
   41.9147   22.5944    2.5122 C   0  0  1  0  0  0  0  0  0  0  0  0
   36.3839   24.3999    2.9448 O   0  0  0  0  0  0  0  0  0  0  0  0
   43.6850   20.8033    2.0381 C   0  0  2  0  0  0  0  0  0  0  0  0
   43.8554   19.2935    1.9168 C   0  0  0  0  0  0  0  0  0  0  0  0
   44.5860   21.3921    3.1482 C   0  0  2  0  0  0  0  0  0  0  0  0
   44.3693   22.8903    3.2817 C   0  0  1  0  0  0  0  0  0  0  0  0
   42.8824   23.1449    3.5911 C   0  0  1  0  0  0  0  0  0  0  0  0
   38.1485   25.8824    2.1801 C   0  0  2  0  0  0  0  0  0  0  0  0
   36.6357   25.5164    2.0432 C   0  0  1  0  0  0  0  0  0  0  0  0
  1  3  1  0  0  0  0
  4  1  1  6  0  0  0
  4  6  1  0  0  0  0
  4 31  1  0  0  0  0
  6  7  1  0  0  0  0
  7  9  1  6  0  0  0
  7 30  1  0  0  0  0
  8 26  1  0  0  0  0
 10  9  1  1  0  0  0
 10 13  1  0  0  0  0
 10 21  1  0  0  0  0
 13 12  1  6  0  0  0
 13 15  1  0  0  0  0
 15  2  1  6  0  0  0
 15 17  1  0  0  0  0
 16 25  1  0  0  0  0
 16 23  1  0  0  0  0
 17 19  1  0  0  0  0
 19  5  1  1  0  0  0
 19 21  1  0  0  0  0
 21 14  1  1  0  0  0
 23 14  1  6  0  0  0
 23 29  1  0  0  0  0
 25 26  1  1  0  0  0
 25 27  1  0  0  0  0
 27 18  1  6  0  0  0
 27 28  1  0  0  0  0
 28 20  1  1  0  0  0
 28 29  1  0  0  0  0
 29 11  1  6  0  0  0
 30 22  1  1  0  0  0
 30 31  1  0  0  0  0
 31 24  1  1  0  0  0
M  END
>  <CHROM.1>
-173.78526439,-40.87216675,55.91261675,78.04450451,122.55601963,61.37526525
40.74460672,23.52574291,1.01845192,-2.99190409,-0.58881188,1.33831282

>  <Name>
ligand

>  <RI>
0

>  <Rbt.Current_Directory>
/home/itssahil/PROJECTS/Mol_Feturizer/New_Systems/rnas/2ET5

>  <Rbt.Executable>
rbdock ($Id: //depot/dev/client3/rdock/2013.1/src/exe/rbdock.cxx#4 $)

>  <Rbt.Library>
libRbt.so (2013.1, Build901 2013/11/27)

>  <Rbt.Parameter_File>
/export/apps/rDock/src/rDock_2013.1_src/data/scripts/dock_solv.prm

>  <Rbt.Receptor>
prm/pocket_docking_4.prm

>  <SCORE>
-7.59845

>  <SCORE.INTER>
-9.19268

>  <SCORE.INTER.CONST>
1

>  <SCORE.INTER.POLAR>
0

>  <SCORE.INTER.ROT>
6

>  <SCORE.INTER.SOLV>
17.8277

>  <SCORE.INTER.VDW>
-19.671

>  <SCORE.INTER.norm>
-0.296538

>  <SCORE.INTRA>
1.59423

>  <SCORE.INTRA.DIHEDRAL>
-0.62923

>  <SCORE.INTRA.DIHEDRAL.0>
11.2357

>  <SCORE.INTRA.POLAR>
0

>  <SCORE.INTRA.POLAR.0>
0

>  <SCORE.INTRA.REPUL>
0

>  <SCORE.INTRA.REPUL.0>
0

>  <SCORE.INTRA.SOLV>
1.50538

>  <SCORE.INTRA.SOLV.lig_0>
-83.3092

>  <SCORE.INTRA.VDW>
1.15616

>  <SCORE.INTRA.VDW.0>
-4.47057

>  <SCORE.INTRA.norm>
0.0514268

>  <SCORE.RESTR>
0

>  <SCORE.RESTR.CAVITY>
0

>  <SCORE.RESTR.norm>
0

>  <SCORE.SYSTEM>
0

>  <SCORE.SYSTEM.CONST>
0

>  <SCORE.SYSTEM.DIHEDRAL>
0

>  <SCORE.SYSTEM.SOLV>
0

>  <SCORE.SYSTEM.norm>
0

>  <SCORE.heavy>
31

>  <SCORE.norm>
-0.245111

>  <RMSD>
2.832

$$$$
ligand
 OpenBabel11021811433D
libRbt.so/2013.1/901 2013/11/27
 31 33  0  0  0  0  0  0  0  0999 V2000
   36.1929   26.6061    1.5613 C   0  0  0  0  0  0  0  0  0  0  0  0
   38.7072   24.7962   -2.8609 N   0  0  0  0  0  0  0  0  0  0  0  0
   35.3221   26.0833    0.5474 O   0  0  0  0  0  0  0  0  0  0  0  0
   36.1599   25.5548    2.6674 C   0  0  1  0  0  0  0  0  0  0  0  0
   43.1842   24.4595   -0.5004 N   0  0  0  0  0  0  0  0  0  0  0  0
   36.7744   24.2177    2.2949 O   0  0  0  0  0  0  0  0  0  0  0  0
   37.9956   23.9900    2.8857 C   0  0  1  0  0  0  0  0  0  0  0  0
   42.7662   20.0468    1.0720 N   0  0  0  0  0  0  0  0  0  0  0  0
   39.0489   23.5596    2.0691 O   0  0  0  0  0  0  0  0  0  0  0  0
   39.6537   24.4098    0.9886 C   0  0  2  0  0  0  0  0  0  0  0  0
   42.5766   25.5003    4.5410 N   0  0  0  0  0  0  0  0  0  0  0  0
   37.4461   24.5207   -0.1540 O   0  0  0  0  0  0  0  0  0  0  0  0
   38.8650   24.1559   -0.3301 C   0  0  1  0  0  0  0  0  0  0  0  0
   41.8724   24.2830    1.9332 O   0  0  0  0  0  0  0  0  0  0  0  0
   39.4844   25.0348   -1.5287 C   0  0  1  0  0  0  0  0  0  0  0  0
   42.1004   22.1328    2.9281 O   0  0  0  0  0  0  0  0  0  0  0  0
   41.0110   24.6192   -1.6931 C   0  0  0  0  0  0  0  0  0  0  0  0
   45.8188   22.0913    3.1363 O   0  0  0  0  0  0  0  0  0  0  0  0
   41.7524   24.8678   -0.3143 C   0  0  1  0  0  0  0  0  0  0  0  0
   45.2346   24.2751    4.8810 O   0  0  0  0  0  0  0  0  0  0  0  0
   41.1829   24.0158    0.7750 C   0  0  2  0  0  0  0  0  0  0  0  0
   39.0632   24.9203    4.8051 O   0  0  0  0  0  0  0  0  0  0  0  0
   41.7950   23.5800    3.1999 C   0  0  1  0  0  0  0  0  0  0  0  0
   36.3217   25.1502    5.1100 O   0  0  0  0  0  0  0  0  0  0  0  0
   43.5154   21.8347    2.4510 C   0  0  2  0  0  0  0  0  0  0  0  0
   43.6667   20.3405    2.1905 C   0  0  0  0  0  0  0  0  0  0  0  0
   44.4967   22.3267    3.5399 C   0  0  2  0  0  0  0  0  0  0  0  0
   44.2999   23.8082    3.8148 C   0  0  1  0  0  0  0  0  0  0  0  0
   42.8404   24.0365    4.2498 C   0  0  1  0  0  0  0  0  0  0  0  0
   38.2968   25.2376    3.7000 C   0  0  2  0  0  0  0  0  0  0  0  0
   36.8935   25.8663    3.9771 C   0  0  1  0  0  0  0  0  0  0  0  0
  1  3  1  0  0  0  0
  4  1  1  6  0  0  0
  4  6  1  0  0  0  0
  4 31  1  0  0  0  0
  6  7  1  0  0  0  0
  7  9  1  6  0  0  0
  7 30  1  0  0  0  0
  8 26  1  0  0  0  0
 10  9  1  1  0  0  0
 10 13  1  0  0  0  0
 10 21  1  0  0  0  0
 13 12  1  1  0  0  0
 13 15  1  0  0  0  0
 15  2  1  6  0  0  0
 15 17  1  0  0  0  0
 16 25  1  0  0  0  0
 16 23  1  0  0  0  0
 17 19  1  0  0  0  0
 19  5  1  6  0  0  0
 19 21  1  0  0  0  0
 21 14  1  1  0  0  0
 23 14  1  6  0  0  0
 23 29  1  0  0  0  0
 25 26  1  1  0  0  0
 25 27  1  0  0  0  0
 27 18  1  6  0  0  0
 27 28  1  0  0  0  0
 28 20  1  1  0  0  0
 28 29  1  0  0  0  0
 29 11  1  6  0  0  0
 30 22  1  1  0  0  0
 30 31  1  0  0  0  0
 31 24  1  1  0  0  0
M  END
>  <CHROM.1>
66.34283072,65.88520209,-89.37576413,56.04128532,70.80680938,65.07489432
40.43538045,24.07330832,2.02734531,2.98517281,0.36448361,-1.63725591

>  <Name>
ligand

>  <RI>
0

>  <Rbt.Current_Directory>
/home/itssahil/PROJECTS/Mol_Feturizer/New_Systems/rnas/2ET5

>  <Rbt.Executable>
rbdock ($Id: //depot/dev/client3/rdock/2013.1/src/exe/rbdock.cxx#4 $)

>  <Rbt.Library>
libRbt.so (2013.1, Build901 2013/11/27)

>  <Rbt.Parameter_File>
/export/apps/rDock/src/rDock_2013.1_src/data/scripts/dock_solv.prm

>  <Rbt.Receptor>
prm/pocket_docking_4.prm

>  <SCORE>
-9.22826

>  <SCORE.INTER>
-5.42791

>  <SCORE.INTER.CONST>
1

>  <SCORE.INTER.POLAR>
0

>  <SCORE.INTER.ROT>
6

>  <SCORE.INTER.SOLV>
14.6093

>  <SCORE.INTER.VDW>
-16.0884

>  <SCORE.INTER.norm>
-0.175094

>  <SCORE.INTRA>
-3.80035

>  <SCORE.INTRA.DIHEDRAL>
-6.57181

>  <SCORE.INTRA.DIHEDRAL.0>
11.2357

>  <SCORE.INTRA.POLAR>
0

>  <SCORE.INTRA.POLAR.0>
0

>  <SCORE.INTRA.REPUL>
0

>  <SCORE.INTRA.REPUL.0>
0

>  <SCORE.INTRA.SOLV>
-2.06988

>  <SCORE.INTRA.SOLV.lig_0>
-83.3092

>  <SCORE.INTRA.VDW>
0.520494

>  <SCORE.INTRA.VDW.0>
-4.47057

>  <SCORE.INTRA.norm>
-0.122592

>  <SCORE.RESTR>
0

>  <SCORE.RESTR.CAVITY>
0

>  <SCORE.RESTR.norm>
0

>  <SCORE.SYSTEM>
0

>  <SCORE.SYSTEM.CONST>
0

>  <SCORE.SYSTEM.DIHEDRAL>
0

>  <SCORE.SYSTEM.SOLV>
0

>  <SCORE.SYSTEM.norm>
0

>  <SCORE.heavy>
31

>  <SCORE.norm>
-0.297686

>  <RMSD>
2.885

$$$$
ligand
 OpenBabel11021811433D
libRbt.so/2013.1/901 2013/11/27
 31 33  0  0  0  0  0  0  0  0999 V2000
   36.1442   26.1468   -0.3802 C   0  0  0  0  0  0  0  0  0  0  0  0
   39.8321   23.7223   -3.9653 N   0  0  0  0  0  0  0  0  0  0  0  0
   34.9181   26.6921    0.1287 O   0  0  0  0  0  0  0  0  0  0  0  0
   36.5950   25.1613    0.6948 C   0  0  1  0  0  0  0  0  0  0  0  0
   42.2924   21.2060   -0.3124 N   0  0  0  0  0  0  0  0  0  0  0  0
   37.9784   24.5740    0.4816 O   0  0  0  0  0  0  0  0  0  0  0  0
   38.9283   25.0786    1.3390 C   0  0  1  0  0  0  0  0  0  0  0  0
   43.2348   19.1811    0.9902 N   0  0  0  0  0  0  0  0  0  0  0  0
   40.1367   25.5247    0.7895 O   0  0  0  0  0  0  0  0  0  0  0  0
   40.8875   24.7709   -0.2707 C   0  0  2  0  0  0  0  0  0  0  0  0
   42.4779   24.9049    3.8709 N   0  0  0  0  0  0  0  0  0  0  0  0
   39.6331   26.0046   -2.0303 O   0  0  0  0  0  0  0  0  0  0  0  0
   39.9753   24.6599   -1.5281 C   0  0  1  0  0  0  0  0  0  0  0  0
   42.0866   23.4236    1.3349 O   0  0  0  0  0  0  0  0  0  0  0  0
   40.7290   23.8443   -2.6940 C   0  0  1  0  0  0  0  0  0  0  0  0
   42.3371   21.3867    2.5404 O   0  0  0  0  0  0  0  0  0  0  0  0
   41.0838   22.4027   -2.1230 C   0  0  0  0  0  0  0  0  0  0  0  0
   46.0166   21.5952    3.0775 O   0  0  0  0  0  0  0  0  0  0  0  0
   41.9828   22.5801   -0.8296 C   0  0  1  0  0  0  0  0  0  0  0  0
   45.1551   23.8820    4.5550 O   0  0  0  0  0  0  0  0  0  0  0  0
   41.2499   23.3094    0.2509 C   0  0  2  0  0  0  0  0  0  0  0  0
   38.7809   26.1846    3.4472 O   0  0  0  0  0  0  0  0  0  0  0  0
   41.9297   22.8301    2.6494 C   0  0  1  0  0  0  0  0  0  0  0  0
   36.5350   24.6020    3.1112 O   0  0  0  0  0  0  0  0  0  0  0  0
   43.8044   21.1369    2.2191 C   0  0  2  0  0  0  0  0  0  0  0  0
   44.0600   19.6380    2.1120 C   0  0  0  0  0  0  0  0  0  0  0  0
   44.6519   21.7820    3.3399 C   0  0  2  0  0  0  0  0  0  0  0  0
   44.3504   23.2667    3.4584 C   0  0  1  0  0  0  0  0  0  0  0  0
   42.8465   23.4405    3.7405 C   0  0  1  0  0  0  0  0  0  0  0  0
   38.2052   26.1070    2.1935 C   0  0  2  0  0  0  0  0  0  0  0  0
   36.7058   25.6713    2.1363 C   0  0  1  0  0  0  0  0  0  0  0  0
  1  3  1  0  0  0  0
  4  1  1  6  0  0  0
  4  6  1  0  0  0  0
  4 31  1  0  0  0  0
  6  7  1  0  0  0  0
  7  9  1  6  0  0  0
  7 30  1  0  0  0  0
  8 26  1  0  0  0  0
 10  9  1  1  0  0  0
 10 13  1  0  0  0  0
 10 21  1  0  0  0  0
 13 12  1  6  0  0  0
 13 15  1  0  0  0  0
 15  2  1  6  0  0  0
 15 17  1  0  0  0  0
 16 25  1  0  0  0  0
 16 23  1  0  0  0  0
 17 19  1  0  0  0  0
 19  5  1  1  0  0  0
 19 21  1  0  0  0  0
 21 14  1  1  0  0  0
 23 14  1  6  0  0  0
 23 29  1  0  0  0  0
 25 26  1  1  0  0  0
 25 27  1  0  0  0  0
 27 18  1  6  0  0  0
 27 28  1  0  0  0  0
 28 20  1  1  0  0  0
 28 29  1  0  0  0  0
 29 11  1  6  0  0  0
 30 22  1  1  0  0  0
 30 31  1  0  0  0  0
 31 24  1  1  0  0  0
M  END
>  <CHROM.1>
-172.32012426,-43.53940681,61.17952635,78.11367047,127.05052748,62.44748482
40.79993029,23.72716051,1.13327280,-2.98753164,-0.57057599,1.30973908

>  <Name>
ligand

>  <RI>
0

>  <Rbt.Current_Directory>
/home/itssahil/PROJECTS/Mol_Feturizer/New_Systems/rnas/2ET5

>  <Rbt.Executable>
rbdock ($Id: //depot/dev/client3/rdock/2013.1/src/exe/rbdock.cxx#4 $)

>  <Rbt.Library>
libRbt.so (2013.1, Build901 2013/11/27)

>  <Rbt.Parameter_File>
/export/apps/rDock/src/rDock_2013.1_src/data/scripts/dock_solv.prm

>  <Rbt.Receptor>
prm/pocket_docking_4.prm

>  <SCORE>
-7.35817

>  <SCORE.INTER>
-8.88435

>  <SCORE.INTER.CONST>
1

>  <SCORE.INTER.POLAR>
0

>  <SCORE.INTER.ROT>
6

>  <SCORE.INTER.SOLV>
16.3665

>  <SCORE.INTER.VDW>
-18.9784

>  <SCORE.INTER.norm>
-0.286592

>  <SCORE.INTRA>
1.52618

>  <SCORE.INTRA.DIHEDRAL>
-1.20914

>  <SCORE.INTRA.DIHEDRAL.0>
11.2357

>  <SCORE.INTRA.POLAR>
0

>  <SCORE.INTRA.POLAR.0>
0

>  <SCORE.INTRA.REPUL>
0

>  <SCORE.INTRA.REPUL.0>
0

>  <SCORE.INTRA.SOLV>
1.88702

>  <SCORE.INTRA.SOLV.lig_0>
-83.3092

>  <SCORE.INTRA.VDW>
1.18724

>  <SCORE.INTRA.VDW.0>
-4.47057

>  <SCORE.INTRA.norm>
0.0492317

>  <SCORE.RESTR>
0

>  <SCORE.RESTR.CAVITY>
0

>  <SCORE.RESTR.norm>
0

>  <SCORE.SYSTEM>
0

>  <SCORE.SYSTEM.CONST>
0

>  <SCORE.SYSTEM.DIHEDRAL>
0

>  <SCORE.SYSTEM.SOLV>
0

>  <SCORE.SYSTEM.norm>
0

>  <SCORE.heavy>
31

>  <SCORE.norm>
-0.23736

>  <RMSD>
2.907

$$$$
ligand
 OpenBabel11021811433D
libRbt.so/2013.1/901 2013/11/27
 31 33  0  0  0  0  0  0  0  0999 V2000
   41.5301   25.9928    7.4193 C   0  0  0  0  0  0  0  0  0  0  0  0
   39.5632   28.7810   -0.5388 N   0  0  0  0  0  0  0  0  0  0  0  0
   42.6010   26.9424    7.3144 O   0  0  0  0  0  0  0  0  0  0  0  0
   40.3349   26.6987    6.7843 C   0  0  1  0  0  0  0  0  0  0  0  0
   43.2857   25.3366   -0.6230 N   0  0  0  0  0  0  0  0  0  0  0  0
   40.4980   27.0293    5.3119 O   0  0  0  0  0  0  0  0  0  0  0  0
   39.7512   26.2260    4.4817 C   0  0  1  0  0  0  0  0  0  0  0  0
   40.5513   21.3876    0.6232 N   0  0  0  0  0  0  0  0  0  0  0  0
   40.3941   25.6397    3.3844 O   0  0  0  0  0  0  0  0  0  0  0  0
   41.0709   26.4349    2.3048 C   0  0  2  0  0  0  0  0  0  0  0  0
   44.9008   24.5586    4.2198 N   0  0  0  0  0  0  0  0  0  0  0  0
   39.2069   28.0824    2.3557 O   0  0  0  0  0  0  0  0  0  0  0  0
   39.9734   27.1729    1.4824 C   0  0  1  0  0  0  0  0  0  0  0  0
   42.8790   24.8511    2.0738 O   0  0  0  0  0  0  0  0  0  0  0  0
   40.6464   28.0315    0.2981 C   0  0  1  0  0  0  0  0  0  0  0  0
   41.9330   22.7730    2.7460 O   0  0  0  0  0  0  0  0  0  0  0  0
   41.4636   27.0250   -0.6236 C   0  0  0  0  0  0  0  0  0  0  0  0
   44.6028   20.5650    1.3793 O   0  0  0  0  0  0  0  0  0  0  0  0
   42.5395   26.2816    0.2723 C   0  0  1  0  0  0  0  0  0  0  0  0
   46.0912   22.0104    3.3414 O   0  0  0  0  0  0  0  0  0  0  0  0
   41.8899   25.4639    1.3428 C   0  0  2  0  0  0  0  0  0  0  0  0
   37.8255   24.8671    4.8480 O   0  0  0  0  0  0  0  0  0  0  0  0
   42.7276   23.9623    3.2104 C   0  0  1  0  0  0  0  0  0  0  0  0
   37.8617   26.8905    6.7365 O   0  0  0  0  0  0  0  0  0  0  0  0
   42.6096   21.8927    1.7040 C   0  0  2  0  0  0  0  0  0  0  0  0
   41.6785   20.7516    1.3111 C   0  0  0  0  0  0  0  0  0  0  0  0
   43.9308   21.3679    2.3120 C   0  0  2  0  0  0  0  0  0  0  0  0
   44.8256   22.5206    2.7361 C   0  0  1  0  0  0  0  0  0  0  0  0
   44.0604   23.3863    3.7541 C   0  0  1  0  0  0  0  0  0  0  0  0
   39.0374   25.2428    5.3951 C   0  0  2  0  0  0  0  0  0  0  0  0
   38.9878   25.9668    6.7788 C   0  0  1  0  0  0  0  0  0  0  0  0
  1  3  1  0  0  0  0
  4  1  1  6  0  0  0
  4  6  1  0  0  0  0
  4 31  1  0  0  0  0
  6  7  1  0  0  0  0
  7  9  1  6  0  0  0
  7 30  1  0  0  0  0
  8 26  1  0  0  0  0
 10  9  1  1  0  0  0
 10 13  1  0  0  0  0
 10 21  1  0  0  0  0
 13 12  1  1  0  0  0
 13 15  1  0  0  0  0
 15  2  1  6  0  0  0
 15 17  1  0  0  0  0
 16 25  1  0  0  0  0
 16 23  1  0  0  0  0
 17 19  1  0  0  0  0
 19  5  1  6  0  0  0
 19 21  1  0  0  0  0
 21 14  1  1  0  0  0
 23 14  1  6  0  0  0
 23 29  1  0  0  0  0
 25 26  1  1  0  0  0
 25 27  1  0  0  0  0
 27 18  1  6  0  0  0
 27 28  1  0  0  0  0
 28 20  1  1  0  0  0
 28 29  1  0  0  0  0
 29 11  1  6  0  0  0
 30 22  1  6  0  0  0
 30 31  1  0  0  0  0
 31 24  1  6  0  0  0
M  END
>  <CHROM.1>
62.98664255,-59.34413410,-69.37859849,60.12488797,62.02394548,66.54474807
41.57941785,24.96932577,3.07712816,-2.80058697,0.87366305,-1.39620408

>  <Name>
ligand

>  <RI>
0

>  <Rbt.Current_Directory>
/home/itssahil/PROJECTS/Mol_Feturizer/New_Systems/rnas/2ET5

>  <Rbt.Executable>
rbdock ($Id: //depot/dev/client3/rdock/2013.1/src/exe/rbdock.cxx#4 $)

>  <Rbt.Library>
libRbt.so (2013.1, Build901 2013/11/27)

>  <Rbt.Parameter_File>
/export/apps/rDock/src/rDock_2013.1_src/data/scripts/dock_solv.prm

>  <Rbt.Receptor>
prm/pocket_docking_5.prm

>  <SCORE>
-7.55863

>  <SCORE.INTER>
-1.59172

>  <SCORE.INTER.CONST>
1

>  <SCORE.INTER.POLAR>
0

>  <SCORE.INTER.ROT>
6

>  <SCORE.INTER.SOLV>
17.6259

>  <SCORE.INTER.VDW>
-14.5365

>  <SCORE.INTER.norm>
-0.0513459

>  <SCORE.INTRA>
-5.96691

>  <SCORE.INTRA.DIHEDRAL>
-10.4581

>  <SCORE.INTRA.DIHEDRAL.0>
11.2357

>  <SCORE.INTRA.POLAR>
0

>  <SCORE.INTRA.POLAR.0>
0

>  <SCORE.INTRA.REPUL>
0

>  <SCORE.INTRA.REPUL.0>
0

>  <SCORE.INTRA.SOLV>
-4.49303

>  <SCORE.INTRA.SOLV.lig_0>
-83.3092

>  <SCORE.INTRA.VDW>
1.50867

>  <SCORE.INTRA.VDW.0>
-4.47057

>  <SCORE.INTRA.norm>
-0.192481

>  <SCORE.RESTR>
0

>  <SCORE.RESTR.CAVITY>
0

>  <SCORE.RESTR.norm>
0

>  <SCORE.SYSTEM>
0

>  <SCORE.SYSTEM.CONST>
0

>  <SCORE.SYSTEM.DIHEDRAL>
0

>  <SCORE.SYSTEM.SOLV>
0

>  <SCORE.SYSTEM.norm>
0

>  <SCORE.heavy>
31

>  <SCORE.norm>
-0.243827

>  <RMSD>
3.172

$$$$
ligand
 OpenBabel11021811433D
libRbt.so/2013.1/901 2013/11/27
 31 33  0  0  0  0  0  0  0  0999 V2000
   37.9272   28.3739    2.6831 C   0  0  0  0  0  0  0  0  0  0  0  0
   39.5303   23.4616   -3.9179 N   0  0  0  0  0  0  0  0  0  0  0  0
   37.0439   29.2756    3.3659 O   0  0  0  0  0  0  0  0  0  0  0  0
   37.1223   27.8965    1.4772 C   0  0  1  0  0  0  0  0  0  0  0  0
   42.1890   21.6588    0.0077 N   0  0  0  0  0  0  0  0  0  0  0  0
   37.8395   26.8982    0.5866 O   0  0  0  0  0  0  0  0  0  0  0  0
   37.3634   25.6132    0.7060 C   0  0  1  0  0  0  0  0  0  0  0  0
   45.2000   21.2494    3.0680 N   0  0  0  0  0  0  0  0  0  0  0  0
   38.2943   24.5840    0.8948 O   0  0  0  0  0  0  0  0  0  0  0  0
   39.4491   24.3375   -0.0333 C   0  0  2  0  0  0  0  0  0  0  0  0
   39.9226   23.6112    4.5148 N   0  0  0  0  0  0  0  0  0  0  0  0
   38.0974   25.1982   -1.9369 O   0  0  0  0  0  0  0  0  0  0  0  0
   38.8795   24.0443   -1.4529 C   0  0  1  0  0  0  0  0  0  0  0  0
   40.8230   23.3725    1.7022 O   0  0  0  0  0  0  0  0  0  0  0  0
   40.0795   23.7570   -2.4873 C   0  0  1  0  0  0  0  0  0  0  0  0
   42.5810   21.9451    2.4351 O   0  0  0  0  0  0  0  0  0  0  0  0
   40.9018   22.5108   -1.9387 C   0  0  0  0  0  0  0  0  0  0  0  0
   44.7104   24.5696    3.9999 O   0  0  0  0  0  0  0  0  0  0  0  0
   41.4264   22.8544   -0.4829 C   0  0  1  0  0  0  0  0  0  0  0  0
   42.3934   24.7355    5.6608 O   0  0  0  0  0  0  0  0  0  0  0  0
   40.2944   23.0829    0.4673 C   0  0  2  0  0  0  0  0  0  0  0  0
   35.3050   24.7188    1.5138 O   0  0  0  0  0  0  0  0  0  0  0  0
   41.1982   22.4440    2.7520 C   0  0  1  0  0  0  0  0  0  0  0  0
   34.8675   27.3045    0.6278 O   0  0  0  0  0  0  0  0  0  0  0  0
   43.6874   22.9901    2.4834 C   0  0  2  0  0  0  0  0  0  0  0  0
   45.0192   22.3473    2.1139 C   0  0  0  0  0  0  0  0  0  0  0  0
   43.7167   23.5842    3.9106 C   0  0  2  0  0  0  0  0  0  0  0  0
   42.3676   24.1812    4.2749 C   0  0  1  0  0  0  0  0  0  0  0  0
   41.2976   23.0795    4.1626 C   0  0  1  0  0  0  0  0  0  0  0  0
   36.2698   25.6769    1.7598 C   0  0  2  0  0  0  0  0  0  0  0  0
   35.7997   27.1668    1.7392 C   0  0  1  0  0  0  0  0  0  0  0  0
  1  3  1  0  0  0  0
  4  1  1  1  0  0  0
  4  6  1  0  0  0  0
  4 31  1  0  0  0  0
  6  7  1  0  0  0  0
  7  9  1  1  0  0  0
  7 30  1  0  0  0  0
  8 26  1  0  0  0  0
 10  9  1  1  0  0  0
 10 13  1  0  0  0  0
 10 21  1  0  0  0  0
 13 12  1  6  0  0  0
 13 15  1  0  0  0  0
 15  2  1  6  0  0  0
 15 17  1  0  0  0  0
 16 25  1  0  0  0  0
 16 23  1  0  0  0  0
 17 19  1  0  0  0  0
 19  5  1  1  0  0  0
 19 21  1  0  0  0  0
 21 14  1  1  0  0  0
 23 14  1  6  0  0  0
 23 29  1  0  0  0  0
 25 26  1  1  0  0  0
 25 27  1  0  0  0  0
 27 18  1  6  0  0  0
 27 28  1  0  0  0  0
 28 20  1  1  0  0  0
 28 29  1  0  0  0  0
 29 11  1  6  0  0  0
 30 22  1  6  0  0  0
 30 31  1  0  0  0  0
 31 24  1  6  0  0  0
M  END
>  <CHROM.1>
-179.13833271,-55.06272568,-59.82484783,83.23899894,153.98494298,-57.04379966
40.01691433,24.44485978,1.46261726,3.11354137,0.57095862,-1.99494203

>  <Name>
ligand

>  <RI>
0

>  <Rbt.Current_Directory>
/home/itssahil/PROJECTS/Mol_Feturizer/New_Systems/rnas/2ET5

>  <Rbt.Executable>
rbdock ($Id: //depot/dev/client3/rdock/2013.1/src/exe/rbdock.cxx#4 $)

>  <Rbt.Library>
libRbt.so (2013.1, Build901 2013/11/27)

>  <Rbt.Parameter_File>
/export/apps/rDock/src/rDock_2013.1_src/data/scripts/dock_solv.prm

>  <Rbt.Receptor>
prm/pocket_docking_6.prm

>  <SCORE>
-5.70033

>  <SCORE.INTER>
-5.5219

>  <SCORE.INTER.CONST>
1

>  <SCORE.INTER.POLAR>
0

>  <SCORE.INTER.ROT>
6

>  <SCORE.INTER.SOLV>
19.7078

>  <SCORE.INTER.VDW>
-17.8505

>  <SCORE.INTER.norm>
-0.178126

>  <SCORE.INTRA>
-0.178438

>  <SCORE.INTRA.DIHEDRAL>
-5.76819

>  <SCORE.INTRA.DIHEDRAL.0>
11.2357

>  <SCORE.INTRA.POLAR>
0

>  <SCORE.INTRA.POLAR.0>
0

>  <SCORE.INTRA.REPUL>
0

>  <SCORE.INTRA.REPUL.0>
0

>  <SCORE.INTRA.SOLV>
0.415188

>  <SCORE.INTRA.SOLV.lig_0>
-83.3092

>  <SCORE.INTRA.VDW>
2.49806

>  <SCORE.INTRA.VDW.0>
-4.47057

>  <SCORE.INTRA.norm>
-0.00575605

>  <SCORE.RESTR>
0

>  <SCORE.RESTR.CAVITY>
0

>  <SCORE.RESTR.norm>
0

>  <SCORE.SYSTEM>
0

>  <SCORE.SYSTEM.CONST>
0

>  <SCORE.SYSTEM.DIHEDRAL>
0

>  <SCORE.SYSTEM.SOLV>
0

>  <SCORE.SYSTEM.norm>
0

>  <SCORE.heavy>
31

>  <SCORE.norm>
-0.183882

>  <RMSD>
3.430

$$$$
ligand
 OpenBabel11021811433D
libRbt.so/2013.1/901 2013/11/27
 31 33  0  0  0  0  0  0  0  0999 V2000
   34.7840   26.6700    2.0157 C   0  0  0  0  0  0  0  0  0  0  0  0
   37.4474   25.5052   -2.3574 N   0  0  0  0  0  0  0  0  0  0  0  0
   36.1447   27.0959    1.8521 O   0  0  0  0  0  0  0  0  0  0  0  0
   34.8543   25.5795    3.0814 C   0  0  1  0  0  0  0  0  0  0  0  0
   41.9813   25.2902   -0.0933 N   0  0  0  0  0  0  0  0  0  0  0  0
   35.6230   24.3363    2.6718 O   0  0  0  0  0  0  0  0  0  0  0  0
   36.8530   24.2257    3.2775 C   0  0  1  0  0  0  0  0  0  0  0  0
   43.2315   20.5280    1.1264 N   0  0  0  0  0  0  0  0  0  0  0  0
   37.9608   23.9497    2.4662 O   0  0  0  0  0  0  0  0  0  0  0  0
   38.4902   24.9105    1.4404 C   0  0  2  0  0  0  0  0  0  0  0  0
   41.9387   25.7286    4.9024 N   0  0  0  0  0  0  0  0  0  0  0  0
   36.2584   24.9602    0.3413 O   0  0  0  0  0  0  0  0  0  0  0  0
   37.6938   24.7001    0.1187 C   0  0  1  0  0  0  0  0  0  0  0  0
   40.7303   24.8597    2.3406 O   0  0  0  0  0  0  0  0  0  0  0  0
   38.2336   25.6988   -1.0232 C   0  0  1  0  0  0  0  0  0  0  0  0
   40.8433   22.6084    3.1046 O   0  0  0  0  0  0  0  0  0  0  0  0
   39.7798   25.3942   -1.2393 C   0  0  0  0  0  0  0  0  0  0  0  0
   44.5221   22.1596    2.7359 O   0  0  0  0  0  0  0  0  0  0  0  0
   40.5305   25.5921    0.1426 C   0  0  1  0  0  0  0  0  0  0  0  0
   44.4549   24.2057    4.7267 O   0  0  0  0  0  0  0  0  0  0  0  0
   40.0367   24.6311    1.1766 C   0  0  2  0  0  0  0  0  0  0  0  0
   37.7783   25.1958    5.2503 O   0  0  0  0  0  0  0  0  0  0  0  0
   40.7525   24.0448    3.5406 C   0  0  1  0  0  0  0  0  0  0  0  0
   35.0242   25.1012    5.5100 O   0  0  0  0  0  0  0  0  0  0  0  0
   42.1304   22.2142    2.3928 C   0  0  2  0  0  0  0  0  0  0  0  0
   42.0657   20.7462    1.9876 C   0  0  0  0  0  0  0  0  0  0  0  0
   43.3083   22.4894    3.3558 C   0  0  2  0  0  0  0  0  0  0  0  0
   43.3289   23.9481    3.7811 C   0  0  1  0  0  0  0  0  0  0  0  0
   41.9838   24.2820    4.4524 C   0  0  1  0  0  0  0  0  0  0  0  0
   36.9976   25.4668    4.1430 C   0  0  2  0  0  0  0  0  0  0  0  0
   35.5277   25.9210    4.4157 C   0  0  1  0  0  0  0  0  0  0  0  0
  1  3  1  0  0  0  0
  4  1  1  6  0  0  0
  4  6  1  0  0  0  0
  4 31  1  0  0  0  0
  6  7  1  0  0  0  0
  7  9  1  6  0  0  0
  7 30  1  0  0  0  0
  8 26  1  0  0  0  0
 10  9  1  1  0  0  0
 10 13  1  0  0  0  0
 10 21  1  0  0  0  0
 13 12  1  1  0  0  0
 13 15  1  0  0  0  0
 15  2  1  6  0  0  0
 15 17  1  0  0  0  0
 16 25  1  0  0  0  0
 16 23  1  0  0  0  0
 17 19  1  0  0  0  0
 19  5  1  6  0  0  0
 19 21  1  0  0  0  0
 21 14  1  1  0  0  0
 23 14  1  6  0  0  0
 23 29  1  0  0  0  0
 25 26  1  1  0  0  0
 25 27  1  0  0  0  0
 27 18  1  6  0  0  0
 27 28  1  0  0  0  0
 28 20  1  1  0  0  0
 28 29  1  0  0  0  0
 29 11  1  6  0  0  0
 30 22  1  1  0  0  0
 30 31  1  0  0  0  0
 31 24  1  1  0  0  0
M  END
>  <CHROM.1>
-64.96946690,66.58218479,-85.81911714,42.27188000,72.81998017,170.80438118
39.37729470,24.44953981,2.34203621,-3.05489100,-0.35541804,1.62550493

>  <Name>
ligand

>  <RI>
0

>  <Rbt.Current_Directory>
/home/itssahil/PROJECTS/Mol_Feturizer/New_Systems/rnas/2ET5

>  <Rbt.Executable>
rbdock ($Id: //depot/dev/client3/rdock/2013.1/src/exe/rbdock.cxx#4 $)

>  <Rbt.Library>
libRbt.so (2013.1, Build901 2013/11/27)

>  <Rbt.Parameter_File>
/export/apps/rDock/src/rDock_2013.1_src/data/scripts/dock_solv.prm

>  <Rbt.Receptor>
prm/pocket_docking_4.prm

>  <SCORE>
-6.57274

>  <SCORE.INTER>
-4.95413

>  <SCORE.INTER.CONST>
1

>  <SCORE.INTER.POLAR>
0

>  <SCORE.INTER.ROT>
6

>  <SCORE.INTER.SOLV>
11.8797

>  <SCORE.INTER.VDW>
-14.8627

>  <SCORE.INTER.norm>
-0.159811

>  <SCORE.INTRA>
-1.61861

>  <SCORE.INTRA.DIHEDRAL>
-5.47568

>  <SCORE.INTRA.DIHEDRAL.0>
11.2357

>  <SCORE.INTRA.POLAR>
0

>  <SCORE.INTRA.POLAR.0>
0

>  <SCORE.INTRA.REPUL>
0

>  <SCORE.INTRA.REPUL.0>
0

>  <SCORE.INTRA.SOLV>
-0.651423

>  <SCORE.INTRA.SOLV.lig_0>
-83.3092

>  <SCORE.INTRA.VDW>
1.44494

>  <SCORE.INTRA.VDW.0>
-4.47057

>  <SCORE.INTRA.norm>
-0.0522132

>  <SCORE.RESTR>
0

>  <SCORE.RESTR.CAVITY>
0

>  <SCORE.RESTR.norm>
0

>  <SCORE.SYSTEM>
0

>  <SCORE.SYSTEM.CONST>
0

>  <SCORE.SYSTEM.DIHEDRAL>
0

>  <SCORE.SYSTEM.SOLV>
0

>  <SCORE.SYSTEM.norm>
0

>  <SCORE.heavy>
31

>  <SCORE.norm>
-0.212024

>  <RMSD>
3.436

$$$$
ligand
 OpenBabel11021811433D
libRbt.so/2013.1/901 2013/11/27
 31 33  0  0  0  0  0  0  0  0999 V2000
   38.0545   26.4098    2.6094 C   0  0  0  0  0  0  0  0  0  0  0  0
   42.6704   26.3734   -4.8641 N   0  0  0  0  0  0  0  0  0  0  0  0
   38.8103   27.5841    2.9403 O   0  0  0  0  0  0  0  0  0  0  0  0
   37.8057   26.5305    1.1082 C   0  0  1  0  0  0  0  0  0  0  0  0
   45.5786   24.8784   -0.9866 N   0  0  0  0  0  0  0  0  0  0  0  0
   39.0598   26.6515    0.2617 O   0  0  0  0  0  0  0  0  0  0  0  0
   39.3570   25.5108   -0.4472 C   0  0  1  0  0  0  0  0  0  0  0  0
   43.3366   20.6315    0.2145 N   0  0  0  0  0  0  0  0  0  0  0  0
   40.6669   25.0199   -0.3804 O   0  0  0  0  0  0  0  0  0  0  0  0
   41.8370   25.7043   -1.0273 C   0  0  2  0  0  0  0  0  0  0  0  0
   43.0539   26.2122    3.3799 N   0  0  0  0  0  0  0  0  0  0  0  0
   40.3817   26.3880   -2.9263 O   0  0  0  0  0  0  0  0  0  0  0  0
   41.6252   25.6777   -2.5700 C   0  0  1  0  0  0  0  0  0  0  0  0
   43.3799   25.0054    0.6937 O   0  0  0  0  0  0  0  0  0  0  0  0
   42.8631   26.3879   -3.3155 C   0  0  1  0  0  0  0  0  0  0  0  0
   42.5959   22.9393    1.5781 O   0  0  0  0  0  0  0  0  0  0  0  0
   44.1854   25.6012   -2.9120 C   0  0  0  0  0  0  0  0  0  0  0  0
   45.6554   22.0502    3.5068 O   0  0  0  0  0  0  0  0  0  0  0  0
   44.3295   25.6338   -1.3337 C   0  0  1  0  0  0  0  0  0  0  0  0
   44.8660   24.4310    4.8717 O   0  0  0  0  0  0  0  0  0  0  0  0
   43.1866   24.9385   -0.6651 C   0  0  2  0  0  0  0  0  0  0  0  0
   38.0450   23.6357   -1.1198 O   0  0  0  0  0  0  0  0  0  0  0  0
   42.5550   24.4337    1.7413 C   0  0  1  0  0  0  0  0  0  0  0  0
   36.3767   25.8200   -0.7915 O   0  0  0  0  0  0  0  0  0  0  0  0
   43.9523   22.2867    1.8085 C   0  0  2  0  0  0  0  0  0  0  0  0
   43.8455   20.7833    1.5806 C   0  0  0  0  0  0  0  0  0  0  0  0
   44.3975   22.6150    3.2523 C   0  0  2  0  0  0  0  0  0  0  0  0
   44.4558   24.1177    3.4710 C   0  0  1  0  0  0  0  0  0  0  0  0
   43.0645   24.7099    3.1793 C   0  0  1  0  0  0  0  0  0  0  0  0
   38.2844   24.5019   -0.0702 C   0  0  2  0  0  0  0  0  0  0  0  0
   37.0805   25.3772    0.4050 C   0  0  1  0  0  0  0  0  0  0  0  0
  1  3  1  0  0  0  0
  4  1  1  1  0  0  0
  4  6  1  0  0  0  0
  4 31  1  0  0  0  0
  6  7  1  0  0  0  0
  7  9  1  1  0  0  0
  7 30  1  0  0  0  0
  8 26  1  0  0  0  0
 10  9  1  1  0  0  0
 10 13  1  0  0  0  0
 10 21  1  0  0  0  0
 13 12  1  1  0  0  0
 13 15  1  0  0  0  0
 15  2  1  6  0  0  0
 15 17  1  0  0  0  0
 16 25  1  0  0  0  0
 16 23  1  0  0  0  0
 17 19  1  0  0  0  0
 19  5  1  6  0  0  0
 19 21  1  0  0  0  0
 21 14  1  1  0  0  0
 23 14  1  6  0  0  0
 23 29  1  0  0  0  0
 25 26  1  1  0  0  0
 25 27  1  0  0  0  0
 27 18  1  6  0  0  0
 27 28  1  0  0  0  0
 28 20  1  1  0  0  0
 28 29  1  0  0  0  0
 29 11  1  6  0  0  0
 30 22  1  6  0  0  0
 30 31  1  0  0  0  0
 31 24  1  6  0  0  0
M  END
>  <CHROM.1>
57.22831815,-70.69706378,-64.64288440,63.58710726,64.19154778,56.88526418
41.74990170,24.80536678,0.44633505,2.60888725,0.32589715,-1.32893107

>  <Name>
ligand

>  <RI>
0

>  <Rbt.Current_Directory>
/home/itssahil/PROJECTS/Mol_Feturizer/New_Systems/rnas/2ET5

>  <Rbt.Executable>
rbdock ($Id: //depot/dev/client3/rdock/2013.1/src/exe/rbdock.cxx#4 $)

>  <Rbt.Library>
libRbt.so (2013.1, Build901 2013/11/27)

>  <Rbt.Parameter_File>
/export/apps/rDock/src/rDock_2013.1_src/data/scripts/dock_solv.prm

>  <Rbt.Receptor>
prm/pocket_docking_5.prm

>  <SCORE>
-5.5894

>  <SCORE.INTER>
0.00669564

>  <SCORE.INTER.CONST>
1

>  <SCORE.INTER.POLAR>
0

>  <SCORE.INTER.ROT>
6

>  <SCORE.INTER.SOLV>
15.3496

>  <SCORE.INTER.VDW>
-12.7121

>  <SCORE.INTER.norm>
0.000215988

>  <SCORE.INTRA>
-5.5961

>  <SCORE.INTRA.DIHEDRAL>
-10.2409

>  <SCORE.INTRA.DIHEDRAL.0>
11.2357

>  <SCORE.INTRA.POLAR>
0

>  <SCORE.INTRA.POLAR.0>
0

>  <SCORE.INTRA.REPUL>
0

>  <SCORE.INTRA.REPUL.0>
0

>  <SCORE.INTRA.SOLV>
-4.30818

>  <SCORE.INTRA.SOLV.lig_0>
-83.3092

>  <SCORE.INTRA.VDW>
1.67843

>  <SCORE.INTRA.VDW.0>
-4.47057

>  <SCORE.INTRA.norm>
-0.180519

>  <SCORE.RESTR>
0

>  <SCORE.RESTR.CAVITY>
0

>  <SCORE.RESTR.norm>
0

>  <SCORE.SYSTEM>
0

>  <SCORE.SYSTEM.CONST>
0

>  <SCORE.SYSTEM.DIHEDRAL>
0

>  <SCORE.SYSTEM.SOLV>
0

>  <SCORE.SYSTEM.norm>
0

>  <SCORE.heavy>
31

>  <SCORE.norm>
-0.180303

>  <RMSD>
3.487

$$$$
ligand
 OpenBabel11021811433D
libRbt.so/2013.1/901 2013/11/27
 31 33  0  0  0  0  0  0  0  0999 V2000
   38.4065   25.7806    4.2202 C   0  0  0  0  0  0  0  0  0  0  0  0
   38.9557   25.3900   -4.9223 N   0  0  0  0  0  0  0  0  0  0  0  0
   37.6018   26.0141    5.3853 O   0  0  0  0  0  0  0  0  0  0  0  0
   37.6758   26.5188    3.1016 C   0  0  1  0  0  0  0  0  0  0  0  0
   42.9594   23.9190   -2.1774 N   0  0  0  0  0  0  0  0  0  0  0  0
   38.3985   26.5301    1.7668 O   0  0  0  0  0  0  0  0  0  0  0  0
   37.8317   25.7005    0.8273 C   0  0  1  0  0  0  0  0  0  0  0  0
   41.8926   25.3318    5.1999 N   0  0  0  0  0  0  0  0  0  0  0  0
   38.6748   24.8243    0.1325 O   0  0  0  0  0  0  0  0  0  0  0  0
   39.5725   25.2614   -0.9895 C   0  0  2  0  0  0  0  0  0  0  0  0
   42.0577   21.6372   -0.2253 N   0  0  0  0  0  0  0  0  0  0  0  0
   37.5787   25.9385   -2.3153 O   0  0  0  0  0  0  0  0  0  0  0  0
   38.7931   25.1004   -2.3282 C   0  0  1  0  0  0  0  0  0  0  0  0
   41.5786   24.5377    0.1431 O   0  0  0  0  0  0  0  0  0  0  0  0
   39.7186   25.5426   -3.5694 C   0  0  1  0  0  0  0  0  0  0  0  0
   43.2671   24.5560    1.8206 O   0  0  0  0  0  0  0  0  0  0  0  0
   41.0164   24.6230   -3.5557 C   0  0  0  0  0  0  0  0  0  0  0  0
   41.3200   22.8240    4.4814 O   0  0  0  0  0  0  0  0  0  0  0  0
   41.7474   24.8034   -2.1608 C   0  0  1  0  0  0  0  0  0  0  0  0
   41.4587   20.7526    2.5207 O   0  0  0  0  0  0  0  0  0  0  0  0
   40.8819   24.3541   -1.0270 C   0  0  2  0  0  0  0  0  0  0  0  0
   35.6594   24.7378    0.6190 O   0  0  0  0  0  0  0  0  0  0  0  0
   42.7817   23.8557    0.5814 C   0  0  1  0  0  0  0  0  0  0  0  0
   35.4662   27.0607    2.1118 O   0  0  0  0  0  0  0  0  0  0  0  0
   42.3520   24.4613    3.0340 C   0  0  2  0  0  0  0  0  0  0  0  0
   42.9576   25.2382    4.1973 C   0  0  0  0  0  0  0  0  0  0  0  0
   42.1740   22.9645    3.3782 C   0  0  2  0  0  0  0  0  0  0  0  0
   41.6099   22.2008    2.1917 C   0  0  1  0  0  0  0  0  0  0  0  0
   42.5643   22.3778    0.9962 C   0  0  1  0  0  0  0  0  0  0  0  0
   36.6604   25.0291    1.5257 C   0  0  2  0  0  0  0  0  0  0  0  0
   36.2913   26.0067    2.6874 C   0  0  1  0  0  0  0  0  0  0  0  0
  1  3  1  0  0  0  0
  4  1  1  1  0  0  0
  4  6  1  0  0  0  0
  4 31  1  0  0  0  0
  6  7  1  0  0  0  0
  7  9  1  1  0  0  0
  7 30  1  0  0  0  0
  8 26  1  0  0  0  0
 10  9  1  1  0  0  0
 10 13  1  0  0  0  0
 10 21  1  0  0  0  0
 13 12  1  1  0  0  0
 13 15  1  0  0  0  0
 15  2  1  6  0  0  0
 15 17  1  0  0  0  0
 16 25  1  0  0  0  0
 16 23  1  0  0  0  0
 17 19  1  0  0  0  0
 19  5  1  6  0  0  0
 19 21  1  0  0  0  0
 21 14  1  1  0  0  0
 23 14  1  1  0  0  0
 23 29  1  0  0  0  0
 25 26  1  1  0  0  0
 25 27  1  0  0  0  0
 27 18  1  1  0  0  0
 27 28  1  0  0  0  0
 28 20  1  1  0  0  0
 28 29  1  0  0  0  0
 29 11  1  6  0  0  0
 30 22  1  6  0  0  0
 30 31  1  0  0  0  0
 31 24  1  6  0  0  0
M  END
>  <CHROM.1>
174.79773831,-76.83614356,-91.31973588,171.44507578,175.74421687,168.13875840
39.95489126,24.64910341,0.93663431,1.37838731,-0.45904184,1.58938687

>  <Name>
ligand

>  <RI>
0

>  <Rbt.Current_Directory>
/home/itssahil/PROJECTS/Mol_Feturizer/New_Systems/rnas/2ET5

>  <Rbt.Executable>
rbdock ($Id: //depot/dev/client3/rdock/2013.1/src/exe/rbdock.cxx#4 $)

>  <Rbt.Library>
libRbt.so (2013.1, Build901 2013/11/27)

>  <Rbt.Parameter_File>
/export/apps/rDock/src/rDock_2013.1_src/data/scripts/dock_solv.prm

>  <Rbt.Receptor>
prm/pocket_docking_3.prm

>  <SCORE>
3.36354

>  <SCORE.INTER>
3.5287

>  <SCORE.INTER.CONST>
1

>  <SCORE.INTER.POLAR>
0

>  <SCORE.INTER.ROT>
6

>  <SCORE.INTER.SOLV>
11.5221

>  <SCORE.INTER.VDW>
-9.08824

>  <SCORE.INTER.norm>
0.113829

>  <SCORE.INTRA>
-0.165164

>  <SCORE.INTRA.DIHEDRAL>
-4.94064

>  <SCORE.INTRA.DIHEDRAL.0>
11.2357

>  <SCORE.INTRA.POLAR>
0

>  <SCORE.INTRA.POLAR.0>
0

>  <SCORE.INTRA.REPUL>
0

>  <SCORE.INTRA.REPUL.0>
0

>  <SCORE.INTRA.SOLV>
1.25675

>  <SCORE.INTRA.SOLV.lig_0>
-83.3092

>  <SCORE.INTRA.VDW>
1.67678

>  <SCORE.INTRA.VDW.0>
-4.47057

>  <SCORE.INTRA.norm>
-0.00532788

>  <SCORE.RESTR>
0

>  <SCORE.RESTR.CAVITY>
0

>  <SCORE.RESTR.norm>
0

>  <SCORE.SYSTEM>
0

>  <SCORE.SYSTEM.CONST>
0

>  <SCORE.SYSTEM.DIHEDRAL>
0

>  <SCORE.SYSTEM.SOLV>
0

>  <SCORE.SYSTEM.norm>
0

>  <SCORE.heavy>
31

>  <SCORE.norm>
0.108501

>  <RMSD>
3.589

$$$$
ligand
 OpenBabel11021811433D
libRbt.so/2013.1/901 2013/11/27
 31 33  0  0  0  0  0  0  0  0999 V2000
   33.3855   24.3251    4.2049 C   0  0  0  0  0  0  0  0  0  0  0  0
   37.3768   25.9066   -3.0391 N   0  0  0  0  0  0  0  0  0  0  0  0
   33.2208   22.9022    4.2928 O   0  0  0  0  0  0  0  0  0  0  0  0
   34.8011   24.5746    4.7186 C   0  0  1  0  0  0  0  0  0  0  0  0
   41.3797   24.7999   -0.1271 N   0  0  0  0  0  0  0  0  0  0  0  0
   35.8979   23.8903    3.9231 O   0  0  0  0  0  0  0  0  0  0  0  0
   36.6314   24.7534    3.1425 C   0  0  1  0  0  0  0  0  0  0  0  0
   41.2571   20.8200    0.6705 N   0  0  0  0  0  0  0  0  0  0  0  0
   36.8359   24.4104    1.8002 O   0  0  0  0  0  0  0  0  0  0  0  0
   37.7022   25.2091    0.8687 C   0  0  2  0  0  0  0  0  0  0  0  0
   39.9661   25.5147    4.9330 N   0  0  0  0  0  0  0  0  0  0  0  0
   35.7175   25.6995   -0.5498 O   0  0  0  0  0  0  0  0  0  0  0  0
   37.0811   25.1357   -0.5576 C   0  0  1  0  0  0  0  0  0  0  0  0
   39.7237   24.7104    2.0917 O   0  0  0  0  0  0  0  0  0  0  0  0
   37.9825   25.9660   -1.6021 C   0  0  1  0  0  0  0  0  0  0  0  0
   40.1065   22.4543    2.7462 O   0  0  0  0  0  0  0  0  0  0  0  0
   39.4428   25.3356   -1.5873 C   0  0  0  0  0  0  0  0  0  0  0  0
   43.7520   22.7673    3.4414 O   0  0  0  0  0  0  0  0  0  0  0  0
   40.0082   25.4080   -0.1082 C   0  0  1  0  0  0  0  0  0  0  0  0
   42.7013   24.5347    5.4230 O   0  0  0  0  0  0  0  0  0  0  0  0
   39.1750   24.6019    0.8366 C   0  0  2  0  0  0  0  0  0  0  0  0
   36.9716   27.1130    3.2195 O   0  0  0  0  0  0  0  0  0  0  0  0
   39.5916   23.7904    3.2057 C   0  0  1  0  0  0  0  0  0  0  0  0
   36.3380   26.2196    5.7617 O   0  0  0  0  0  0  0  0  0  0  0  0
   41.5929   22.3955    2.4211 C   0  0  2  0  0  0  0  0  0  0  0  0
   41.9606   20.9951    1.9443 C   0  0  0  0  0  0  0  0  0  0  0  0
   42.3734   22.7875    3.6969 C   0  0  2  0  0  0  0  0  0  0  0  0
   41.9609   24.1681    4.1796 C   0  0  1  0  0  0  0  0  0  0  0  0
   40.4443   24.1613    4.4463 C   0  0  1  0  0  0  0  0  0  0  0  0
   36.0145   26.1259    3.3568 C   0  0  2  0  0  0  0  0  0  0  0  0
   35.3107   26.0203    4.7478 C   0  0  1  0  0  0  0  0  0  0  0  0
  1  3  1  0  0  0  0
  4  1  1  6  0  0  0
  4  6  1  0  0  0  0
  4 31  1  0  0  0  0
  6  7  1  0  0  0  0
  7  9  1  6  0  0  0
  7 30  1  0  0  0  0
  8 26  1  0  0  0  0
 10  9  1  1  0  0  0
 10 13  1  0  0  0  0
 10 21  1  0  0  0  0
 13 12  1  1  0  0  0
 13 15  1  0  0  0  0
 15  2  1  6  0  0  0
 15 17  1  0  0  0  0
 16 25  1  0  0  0  0
 16 23  1  0  0  0  0
 17 19  1  0  0  0  0
 19  5  1  6  0  0  0
 19 21  1  0  0  0  0
 21 14  1  1  0  0  0
 23 14  1  6  0  0  0
 23 29  1  0  0  0  0
 25 26  1  1  0  0  0
 25 27  1  0  0  0  0
 27 18  1  6  0  0  0
 27 28  1  0  0  0  0
 28 20  1  1  0  0  0
 28 29  1  0  0  0  0
 29 11  1  6  0  0  0
 30 22  1  1  0  0  0
 30 31  1  0  0  0  0
 31 24  1  1  0  0  0
M  END
>  <CHROM.1>
60.26415688,-175.22931987,-146.14189813,58.29655272,85.77319254,66.06585430
38.58121581,24.43008749,2.37693531,-3.11032006,0.29169345,-1.42196546

>  <Name>
ligand

>  <RI>
0

>  <Rbt.Current_Directory>
/home/itssahil/PROJECTS/Mol_Feturizer/New_Systems/rnas/2ET5

>  <Rbt.Executable>
rbdock ($Id: //depot/dev/client3/rdock/2013.1/src/exe/rbdock.cxx#4 $)

>  <Rbt.Library>
libRbt.so (2013.1, Build901 2013/11/27)

>  <Rbt.Parameter_File>
/export/apps/rDock/src/rDock_2013.1_src/data/scripts/dock_solv.prm

>  <Rbt.Receptor>
prm/pocket_docking_5.prm

>  <SCORE>
-8.3322

>  <SCORE.INTER>
-6.21302

>  <SCORE.INTER.CONST>
1

>  <SCORE.INTER.POLAR>
0

>  <SCORE.INTER.ROT>
6

>  <SCORE.INTER.SOLV>
17.1978

>  <SCORE.INTER.VDW>
-17.4746

>  <SCORE.INTER.norm>
-0.20042

>  <SCORE.INTRA>
-2.11919

>  <SCORE.INTRA.DIHEDRAL>
-3.71614

>  <SCORE.INTRA.DIHEDRAL.0>
11.2357

>  <SCORE.INTRA.POLAR>
0

>  <SCORE.INTRA.POLAR.0>
0

>  <SCORE.INTRA.REPUL>
0

>  <SCORE.INTRA.REPUL.0>
0

>  <SCORE.INTRA.SOLV>
-1.23405

>  <SCORE.INTRA.SOLV.lig_0>
-83.3092

>  <SCORE.INTRA.VDW>
0.355908

>  <SCORE.INTRA.VDW.0>
-4.47057

>  <SCORE.INTRA.norm>
-0.0683609

>  <SCORE.RESTR>
0

>  <SCORE.RESTR.CAVITY>
0

>  <SCORE.RESTR.norm>
0

>  <SCORE.SYSTEM>
0

>  <SCORE.SYSTEM.CONST>
0

>  <SCORE.SYSTEM.DIHEDRAL>
0

>  <SCORE.SYSTEM.SOLV>
0

>  <SCORE.SYSTEM.norm>
0

>  <SCORE.heavy>
31

>  <SCORE.norm>
-0.268781

>  <RMSD>
3.788

$$$$
ligand
 OpenBabel11021811433D
libRbt.so/2013.1/901 2013/11/27
 31 33  0  0  0  0  0  0  0  0999 V2000
   37.7895   27.4029    3.4931 C   0  0  0  0  0  0  0  0  0  0  0  0
   40.6916   23.0944   -3.7148 N   0  0  0  0  0  0  0  0  0  0  0  0
   39.1199   27.9400    3.5292 O   0  0  0  0  0  0  0  0  0  0  0  0
   37.3963   27.4651    2.0195 C   0  0  1  0  0  0  0  0  0  0  0  0
   42.6711   21.7310    0.7518 N   0  0  0  0  0  0  0  0  0  0  0  0
   38.2957   26.6759    1.0856 O   0  0  0  0  0  0  0  0  0  0  0  0
   37.7186   25.5205    0.6122 C   0  0  1  0  0  0  0  0  0  0  0  0
   45.1717   24.2967    2.5068 N   0  0  0  0  0  0  0  0  0  0  0  0
   38.4611   24.3358    0.6936 O   0  0  0  0  0  0  0  0  0  0  0  0
   39.7898   24.1485    0.0187 C   0  0  2  0  0  0  0  0  0  0  0  0
   39.1935   22.6582    4.3691 N   0  0  0  0  0  0  0  0  0  0  0  0
   38.7699   24.7907   -2.1582 O   0  0  0  0  0  0  0  0  0  0  0  0
   39.5312   23.7364   -1.4607 C   0  0  1  0  0  0  0  0  0  0  0  0
   40.8722   23.3963    2.0420 O   0  0  0  0  0  0  0  0  0  0  0  0
   40.9279   23.5074   -2.2285 C   0  0  1  0  0  0  0  0  0  0  0  0
   42.8045   22.8681    3.3275 O   0  0  0  0  0  0  0  0  0  0  0  0
   41.7233   22.3681   -1.4542 C   0  0  0  0  0  0  0  0  0  0  0  0
   42.7293   25.8511    5.5562 O   0  0  0  0  0  0  0  0  0  0  0  0
   41.9269   22.8281    0.0490 C   0  0  1  0  0  0  0  0  0  0  0  0
   40.2816   24.5889    6.3109 O   0  0  0  0  0  0  0  0  0  0  0  0
   40.6176   23.0006    0.7509 C   0  0  2  0  0  0  0  0  0  0  0  0
   35.4520   24.7994    0.4336 O   0  0  0  0  0  0  0  0  0  0  0  0
   41.3388   22.5828    3.1488 C   0  0  1  0  0  0  0  0  0  0  0  0
   35.5124   27.5666    0.4081 O   0  0  0  0  0  0  0  0  0  0  0  0
   43.1531   24.2841    3.7656 C   0  0  2  0  0  0  0  0  0  0  0  0
   44.6662   24.4310    3.8760 C   0  0  0  0  0  0  0  0  0  0  0  0
   42.4537   24.5475    5.1192 C   0  0  2  0  0  0  0  0  0  0  0  0
   40.9513   24.3539    4.9976 C   0  0  1  0  0  0  0  0  0  0  0  0
   40.6799   22.9181    4.5116 C   0  0  1  0  0  0  0  0  0  0  0  0
   36.3459   25.4514    1.2613 C   0  0  2  0  0  0  0  0  0  0  0  0
   36.0138   26.9351    1.6217 C   0  0  1  0  0  0  0  0  0  0  0  0
  1  3  1  0  0  0  0
  4  1  1  1  0  0  0
  4  6  1  0  0  0  0
  4 31  1  0  0  0  0
  6  7  1  0  0  0  0
  7  9  1  1  0  0  0
  7 30  1  0  0  0  0
  8 26  1  0  0  0  0
 10  9  1  1  0  0  0
 10 13  1  0  0  0  0
 10 21  1  0  0  0  0
 13 12  1  6  0  0  0
 13 15  1  0  0  0  0
 15  2  1  6  0  0  0
 15 17  1  0  0  0  0
 16 25  1  0  0  0  0
 16 23  1  0  0  0  0
 17 19  1  0  0  0  0
 19  5  1  1  0  0  0
 19 21  1  0  0  0  0
 21 14  1  1  0  0  0
 23 14  1  6  0  0  0
 23 29  1  0  0  0  0
 25 26  1  1  0  0  0
 25 27  1  0  0  0  0
 27 18  1  6  0  0  0
 27 28  1  0  0  0  0
 28 20  1  1  0  0  0
 28 29  1  0  0  0  0
 29 11  1  6  0  0  0
 30 22  1  6  0  0  0
 30 31  1  0  0  0  0
 31 24  1  6  0  0  0
M  END
>  <CHROM.1>
59.71280164,-60.09023867,-83.42208278,102.56267738,165.92132912,66.28767543
40.06494852,24.55752315,1.79919423,2.72732321,0.50500021,-1.90306298

>  <Name>
ligand

>  <RI>
0

>  <Rbt.Current_Directory>
/home/itssahil/PROJECTS/Mol_Feturizer/New_Systems/rnas/2ET5

>  <Rbt.Executable>
rbdock ($Id: //depot/dev/client3/rdock/2013.1/src/exe/rbdock.cxx#4 $)

>  <Rbt.Library>
libRbt.so (2013.1, Build901 2013/11/27)

>  <Rbt.Parameter_File>
/export/apps/rDock/src/rDock_2013.1_src/data/scripts/dock_solv.prm

>  <Rbt.Receptor>
prm/pocket_docking_4.prm

>  <SCORE>
-2.38576

>  <SCORE.INTER>
-1.88769

>  <SCORE.INTER.CONST>
1

>  <SCORE.INTER.POLAR>
0

>  <SCORE.INTER.ROT>
6

>  <SCORE.INTER.SOLV>
18.1435

>  <SCORE.INTER.VDW>
-14.9063

>  <SCORE.INTER.norm>
-0.0608932

>  <SCORE.INTRA>
-0.498073

>  <SCORE.INTRA.DIHEDRAL>
-1.88951

>  <SCORE.INTRA.DIHEDRAL.0>
11.2357

>  <SCORE.INTRA.POLAR>
0

>  <SCORE.INTRA.POLAR.0>
0

>  <SCORE.INTRA.REPUL>
0

>  <SCORE.INTRA.REPUL.0>
0

>  <SCORE.INTRA.SOLV>
-1.86869

>  <SCORE.INTRA.SOLV.lig_0>
-83.3092

>  <SCORE.INTRA.VDW>
1.38103

>  <SCORE.INTRA.VDW.0>
-4.47057

>  <SCORE.INTRA.norm>
-0.0160669

>  <SCORE.RESTR>
0

>  <SCORE.RESTR.CAVITY>
0

>  <SCORE.RESTR.norm>
0

>  <SCORE.SYSTEM>
0

>  <SCORE.SYSTEM.CONST>
0

>  <SCORE.SYSTEM.DIHEDRAL>
0

>  <SCORE.SYSTEM.SOLV>
0

>  <SCORE.SYSTEM.norm>
0

>  <SCORE.heavy>
31

>  <SCORE.norm>
-0.07696

>  <RMSD>
3.975

$$$$
ligand
 OpenBabel11021811433D
libRbt.so/2013.1/901 2013/11/27
 31 33  0  0  0  0  0  0  0  0999 V2000
   33.4051   23.9429    4.1059 C   0  0  0  0  0  0  0  0  0  0  0  0
   37.4245   26.9763   -2.7065 N   0  0  0  0  0  0  0  0  0  0  0  0
   33.4072   24.6623    2.8641 O   0  0  0  0  0  0  0  0  0  0  0  0
   34.8090   24.1527    4.6672 C   0  0  1  0  0  0  0  0  0  0  0  0
   41.4063   25.5769    0.1069 N   0  0  0  0  0  0  0  0  0  0  0  0
   35.9341   23.6842    3.7623 O   0  0  0  0  0  0  0  0  0  0  0  0
   36.6257   24.7133    3.1667 C   0  0  1  0  0  0  0  0  0  0  0  0
   41.1212   21.2676    0.3958 N   0  0  0  0  0  0  0  0  0  0  0  0
   36.8426   24.6441    1.7849 O   0  0  0  0  0  0  0  0  0  0  0  0
   37.6884   25.6319    1.0334 C   0  0  2  0  0  0  0  0  0  0  0  0
   39.8444   25.4590    5.1485 N   0  0  0  0  0  0  0  0  0  0  0  0
   35.7167   26.2640   -0.3466 O   0  0  0  0  0  0  0  0  0  0  0  0
   37.1080   25.7759   -0.4046 C   0  0  1  0  0  0  0  0  0  0  0  0
   39.7022   25.0272    2.2207 O   0  0  0  0  0  0  0  0  0  0  0  0
   37.9900   26.8160   -1.2608 C   0  0  1  0  0  0  0  0  0  0  0  0
   39.9676   22.6924    2.5992 O   0  0  0  0  0  0  0  0  0  0  0  0
   39.4808   26.2630   -1.3047 C   0  0  0  0  0  0  0  0  0  0  0  0
   43.5866   22.7558    3.4766 O   0  0  0  0  0  0  0  0  0  0  0  0
   40.0044   26.1064    0.1832 C   0  0  1  0  0  0  0  0  0  0  0  0
   42.5145   24.3064    5.6216 O   0  0  0  0  0  0  0  0  0  0  0  0
   39.1917   25.1105    0.9477 C   0  0  2  0  0  0  0  0  0  0  0  0
   36.8581   27.0272    3.6975 O   0  0  0  0  0  0  0  0  0  0  0  0
   39.4838   23.9820    3.2028 C   0  0  1  0  0  0  0  0  0  0  0  0
   36.2716   25.6345    6.0166 O   0  0  0  0  0  0  0  0  0  0  0  0
   41.4640   22.6094    2.3302 C   0  0  2  0  0  0  0  0  0  0  0  0
   41.7992   21.2648    1.6953 C   0  0  0  0  0  0  0  0  0  0  0  0
   42.1995   22.8044    3.6762 C   0  0  2  0  0  0  0  0  0  0  0  0
   41.8186   24.1307    4.3126 C   0  0  1  0  0  0  0  0  0  0  0  0
   40.2921   24.1573    4.5141 C   0  0  1  0  0  0  0  0  0  0  0  0
   35.9473   25.9899    3.6364 C   0  0  2  0  0  0  0  0  0  0  0  0
   35.2522   25.5874    4.9767 C   0  0  1  0  0  0  0  0  0  0  0  0
  1  3  1  0  0  0  0
  4  1  1  6  0  0  0
  4  6  1  0  0  0  0
  4 31  1  0  0  0  0
  6  7  1  0  0  0  0
  7  9  1  6  0  0  0
  7 30  1  0  0  0  0
  8 26  1  0  0  0  0
 10  9  1  1  0  0  0
 10 13  1  0  0  0  0
 10 21  1  0  0  0  0
 13 12  1  1  0  0  0
 13 15  1  0  0  0  0
 15  2  1  6  0  0  0
 15 17  1  0  0  0  0
 16 25  1  0  0  0  0
 16 23  1  0  0  0  0
 17 19  1  0  0  0  0
 19  5  1  6  0  0  0
 19 21  1  0  0  0  0
 21 14  1  1  0  0  0
 23 14  1  6  0  0  0
 23 29  1  0  0  0  0
 25 26  1  1  0  0  0
 25 27  1  0  0  0  0
 27 18  1  6  0  0  0
 27 28  1  0  0  0  0
 28 20  1  1  0  0  0
 28 29  1  0  0  0  0
 29 11  1  6  0  0  0
 30 22  1  1  0  0  0
 30 31  1  0  0  0  0
 31 24  1  1  0  0  0
M  END
>  <CHROM.1>
-57.96938996,-174.16274178,-148.49890920,59.38458676,79.21490315,64.69657034
38.53171528,24.67280325,2.42270772,3.03876479,0.29368964,-1.27851552

>  <Name>
ligand

>  <RI>
0

>  <Rbt.Current_Directory>
/home/itssahil/PROJECTS/Mol_Feturizer/New_Systems/rnas/2ET5

>  <Rbt.Executable>
rbdock ($Id: //depot/dev/client3/rdock/2013.1/src/exe/rbdock.cxx#4 $)

>  <Rbt.Library>
libRbt.so (2013.1, Build901 2013/11/27)

>  <Rbt.Parameter_File>
/export/apps/rDock/src/rDock_2013.1_src/data/scripts/dock_solv.prm

>  <Rbt.Receptor>
prm/pocket_docking_4.prm

>  <SCORE>
-8.67645

>  <SCORE.INTER>
-5.91834

>  <SCORE.INTER.CONST>
1

>  <SCORE.INTER.POLAR>
0

>  <SCORE.INTER.ROT>
6

>  <SCORE.INTER.SOLV>
15.9548

>  <SCORE.INTER.VDW>
-16.8638

>  <SCORE.INTER.norm>
-0.190914

>  <SCORE.INTRA>
-2.7581

>  <SCORE.INTRA.DIHEDRAL>
-5.28416

>  <SCORE.INTRA.DIHEDRAL.0>
11.2357

>  <SCORE.INTRA.POLAR>
0

>  <SCORE.INTRA.POLAR.0>
0

>  <SCORE.INTRA.REPUL>
0

>  <SCORE.INTRA.REPUL.0>
0

>  <SCORE.INTRA.SOLV>
-1.20907

>  <SCORE.INTRA.SOLV.lig_0>
-83.3092

>  <SCORE.INTRA.VDW>
0.488513

>  <SCORE.INTRA.VDW.0>
-4.47057

>  <SCORE.INTRA.norm>
-0.0889711

>  <SCORE.RESTR>
0

>  <SCORE.RESTR.CAVITY>
0

>  <SCORE.RESTR.norm>
0

>  <SCORE.SYSTEM>
0

>  <SCORE.SYSTEM.CONST>
0

>  <SCORE.SYSTEM.DIHEDRAL>
0

>  <SCORE.SYSTEM.SOLV>
0

>  <SCORE.SYSTEM.norm>
0

>  <SCORE.heavy>
31

>  <SCORE.norm>
-0.279885

>  <RMSD>
4.008

$$$$
ligand
 OpenBabel11021811433D
libRbt.so/2013.1/901 2013/11/27
 31 33  0  0  0  0  0  0  0  0999 V2000
   41.5779   26.7963    1.2588 C   0  0  0  0  0  0  0  0  0  0  0  0
   38.0606   25.5862   -1.8036 N   0  0  0  0  0  0  0  0  0  0  0  0
   41.5543   28.2214    1.4267 O   0  0  0  0  0  0  0  0  0  0  0  0
   43.0012   26.4931    0.7982 C   0  0  1  0  0  0  0  0  0  0  0  0
   39.2950   23.0688    2.4234 N   0  0  0  0  0  0  0  0  0  0  0  0
   43.3039   25.0203    0.5900 O   0  0  0  0  0  0  0  0  0  0  0  0
   43.3977   24.6599   -0.7341 C   0  0  1  0  0  0  0  0  0  0  0  0
   43.8637   18.3847    1.2082 N   0  0  0  0  0  0  0  0  0  0  0  0
   42.6792   23.5357   -1.1601 O   0  0  0  0  0  0  0  0  0  0  0  0
   41.2167   23.3386   -0.8808 C   0  0  2  0  0  0  0  0  0  0  0  0
   41.8324   24.1041    3.4589 N   0  0  0  0  0  0  0  0  0  0  0  0
   40.6555   24.6088   -2.9456 O   0  0  0  0  0  0  0  0  0  0  0  0
   40.4380   24.5432   -1.4876 C   0  0  1  0  0  0  0  0  0  0  0  0
   41.6233   22.1922    1.2052 O   0  0  0  0  0  0  0  0  0  0  0  0
   38.8608   24.3888   -1.2023 C   0  0  1  0  0  0  0  0  0  0  0  0
   42.4959   20.4938    2.6261 O   0  0  0  0  0  0  0  0  0  0  0  0
   38.6597   24.3209    0.3742 C   0  0  0  0  0  0  0  0  0  0  0  0
   46.0273   21.6760    2.6759 O   0  0  0  0  0  0  0  0  0  0  0  0
   39.4993   23.1000    0.9373 C   0  0  1  0  0  0  0  0  0  0  0  0
   44.7317   23.8864    3.9369 O   0  0  0  0  0  0  0  0  0  0  0  0
   40.9632   23.2823    0.6914 C   0  0  2  0  0  0  0  0  0  0  0  0
   43.7987   25.9085   -2.7265 O   0  0  0  0  0  0  0  0  0  0  0  0
   41.7389   21.7928    2.5951 C   0  0  1  0  0  0  0  0  0  0  0  0
   44.9112   27.2643   -0.5850 O   0  0  0  0  0  0  0  0  0  0  0  0
   43.9447   20.5624    2.1625 C   0  0  2  0  0  0  0  0  0  0  0  0
   44.5704   19.1737    2.2213 C   0  0  0  0  0  0  0  0  0  0  0  0
   44.6885   21.5629    3.0771 C   0  0  2  0  0  0  0  0  0  0  0  0
   44.0234   22.9286    3.0371 C   0  0  1  0  0  0  0  0  0  0  0  0
   42.5558   22.7723    3.4764 C   0  0  1  0  0  0  0  0  0  0  0  0
   43.1158   25.9267   -1.5255 C   0  0  2  0  0  0  0  0  0  0  0  0
   43.4659   27.0854   -0.5374 C   0  0  1  0  0  0  0  0  0  0  0  0
  1  3  1  0  0  0  0
  4  1  1  6  0  0  0
  4  6  1  0  0  0  0
  4 31  1  0  0  0  0
  6  7  1  0  0  0  0
  7  9  1  6  0  0  0
  7 30  1  0  0  0  0
  8 26  1  0  0  0  0
 10  9  1  1  0  0  0
 10 13  1  0  0  0  0
 10 21  1  0  0  0  0
 13 12  1  6  0  0  0
 13 15  1  0  0  0  0
 15  2  1  1  0  0  0
 15 17  1  0  0  0  0
 16 25  1  0  0  0  0
 16 23  1  0  0  0  0
 17 19  1  0  0  0  0
 19  5  1  1  0  0  0
 19 21  1  0  0  0  0
 21 14  1  6  0  0  0
 23 14  1  6  0  0  0
 23 29  1  0  0  0  0
 25 26  1  1  0  0  0
 25 27  1  0  0  0  0
 27 18  1  6  0  0  0
 27 28  1  0  0  0  0
 28 20  1  1  0  0  0
 28 29  1  0  0  0  0
 29 11  1  6  0  0  0
 30 22  1  6  0  0  0
 30 31  1  0  0  0  0
 31 24  1  1  0  0  0
M  END
>  <CHROM.1>
178.06730620,50.73602092,58.28995526,176.98172898,176.04272075,66.46305189
42.31870047,23.78776018,0.78185985,-2.00246584,0.33990180,2.66035395

>  <Name>
ligand

>  <RI>
0

>  <Rbt.Current_Directory>
/home/itssahil/PROJECTS/Mol_Feturizer/New_Systems/rnas/2ET5

>  <Rbt.Executable>
rbdock ($Id: //depot/dev/client3/rdock/2013.1/src/exe/rbdock.cxx#4 $)

>  <Rbt.Library>
libRbt.so (2013.1, Build901 2013/11/27)

>  <Rbt.Parameter_File>
/export/apps/rDock/src/rDock_2013.1_src/data/scripts/dock_solv.prm

>  <Rbt.Receptor>
prm/pocket_docking_7.prm

>  <SCORE>
-8.99748

>  <SCORE.INTER>
-5.1558

>  <SCORE.INTER.CONST>
1

>  <SCORE.INTER.POLAR>
0

>  <SCORE.INTER.ROT>
6

>  <SCORE.INTER.SOLV>
12.4457

>  <SCORE.INTER.VDW>
-15.1858

>  <SCORE.INTER.norm>
-0.166316

>  <SCORE.INTRA>
-3.84168

>  <SCORE.INTRA.DIHEDRAL>
-10.3892

>  <SCORE.INTRA.DIHEDRAL.0>
11.2357

>  <SCORE.INTRA.POLAR>
0

>  <SCORE.INTRA.POLAR.0>
0

>  <SCORE.INTRA.REPUL>
0

>  <SCORE.INTRA.REPUL.0>
0

>  <SCORE.INTRA.SOLV>
2.74852

>  <SCORE.INTRA.SOLV.lig_0>
-83.3092

>  <SCORE.INTRA.VDW>
-0.0213484

>  <SCORE.INTRA.VDW.0>
-4.47057

>  <SCORE.INTRA.norm>
-0.123925

>  <SCORE.RESTR>
0

>  <SCORE.RESTR.CAVITY>
0

>  <SCORE.RESTR.norm>
0

>  <SCORE.SYSTEM>
0

>  <SCORE.SYSTEM.CONST>
0

>  <SCORE.SYSTEM.DIHEDRAL>
0

>  <SCORE.SYSTEM.SOLV>
0

>  <SCORE.SYSTEM.norm>
0

>  <SCORE.heavy>
31

>  <SCORE.norm>
-0.290241

>  <RMSD>
4.060

$$$$
ligand
 OpenBabel11021811433D
libRbt.so/2013.1/901 2013/11/27
 31 33  0  0  0  0  0  0  0  0999 V2000
   34.9314   26.9218    1.0650 C   0  0  0  0  0  0  0  0  0  0  0  0
   40.9605   23.3980   -4.1938 N   0  0  0  0  0  0  0  0  0  0  0  0
   34.5078   28.1008    1.7651 O   0  0  0  0  0  0  0  0  0  0  0  0
   35.9068   26.2428    2.0229 C   0  0  1  0  0  0  0  0  0  0  0  0
   42.1822   21.6636    0.4136 N   0  0  0  0  0  0  0  0  0  0  0  0
   36.4519   24.9110    1.5400 O   0  0  0  0  0  0  0  0  0  0  0  0
   37.7649   24.9687    1.1340 C   0  0  1  0  0  0  0  0  0  0  0  0
   44.5896   23.2141    2.2373 N   0  0  0  0  0  0  0  0  0  0  0  0
   38.0930   24.4062   -0.1059 O   0  0  0  0  0  0  0  0  0  0  0  0
   39.5068   24.2214   -0.5782 C   0  0  2  0  0  0  0  0  0  0  0  0
   38.3310   22.8622    3.7513 N   0  0  0  0  0  0  0  0  0  0  0  0
   38.8564   25.0463   -2.8340 O   0  0  0  0  0  0  0  0  0  0  0  0
   39.4748   23.9214   -2.1061 C   0  0  1  0  0  0  0  0  0  0  0  0
   40.2405   23.2953    1.5277 O   0  0  0  0  0  0  0  0  0  0  0  0
   40.9694   23.6992   -2.6626 C   0  0  1  0  0  0  0  0  0  0  0  0
   41.9624   22.3751    2.8891 O   0  0  0  0  0  0  0  0  0  0  0  0
   41.6075   22.4830   -1.8600 C   0  0  0  0  0  0  0  0  0  0  0  0
   42.3566   25.2758    5.1916 O   0  0  0  0  0  0  0  0  0  0  0  0
   41.5825   22.8310   -0.3137 C   0  0  1  0  0  0  0  0  0  0  0  0
   39.6733   24.5073    5.7943 O   0  0  0  0  0  0  0  0  0  0  0  0
   40.1833   22.9985    0.1872 C   0  0  2  0  0  0  0  0  0  0  0  0
   39.5316   26.5069    1.5837 O   0  0  0  0  0  0  0  0  0  0  0  0
   40.4806   22.3870    2.6331 C   0  0  1  0  0  0  0  0  0  0  0  0
   37.7230   26.5886    3.6776 O   0  0  0  0  0  0  0  0  0  0  0  0
   42.5581   23.6871    3.3815 C   0  0  2  0  0  0  0  0  0  0  0  0
   44.0630   23.5314    3.5678 C   0  0  0  0  0  0  0  0  0  0  0  0
   41.8543   24.0597    4.7068 C   0  0  2  0  0  0  0  0  0  0  0  0
   40.3516   24.1677    4.5085 C   0  0  1  0  0  0  0  0  0  0  0  0
   39.8301   22.8219    3.9715 C   0  0  1  0  0  0  0  0  0  0  0  0
   38.1822   26.4210    1.2989 C   0  0  2  0  0  0  0  0  0  0  0  0
   37.2010   26.9850    2.3762 C   0  0  1  0  0  0  0  0  0  0  0  0
  1  3  1  0  0  0  0
  4  1  1  6  0  0  0
  4  6  1  0  0  0  0
  4 31  1  0  0  0  0
  6  7  1  0  0  0  0
  7  9  1  6  0  0  0
  7 30  1  0  0  0  0
  8 26  1  0  0  0  0
 10  9  1  1  0  0  0
 10 13  1  0  0  0  0
 10 21  1  0  0  0  0
 13 12  1  6  0  0  0
 13 15  1  0  0  0  0
 15  2  1  6  0  0  0
 15 17  1  0  0  0  0
 16 25  1  0  0  0  0
 16 23  1  0  0  0  0
 17 19  1  0  0  0  0
 19  5  1  1  0  0  0
 19 21  1  0  0  0  0
 21 14  1  1  0  0  0
 23 14  1  6  0  0  0
 23 29  1  0  0  0  0
 25 26  1  1  0  0  0
 25 27  1  0  0  0  0
 27 18  1  6  0  0  0
 27 28  1  0  0  0  0
 28 20  1  1  0  0  0
 28 29  1  0  0  0  0
 29 11  1  6  0  0  0
 30 22  1  1  0  0  0
 30 31  1  0  0  0  0
 31 24  1  1  0  0  0
M  END
>  <CHROM.1>
176.88766471,-170.78668234,-165.66422495,91.69743930,164.47362137,61.76065420
39.70397966,24.37619405,1.53043061,3.10808932,0.51736083,-1.71554209

>  <Name>
ligand

>  <RI>
0

>  <Rbt.Current_Directory>
/home/itssahil/PROJECTS/Mol_Feturizer/New_Systems/rnas/2ET5

>  <Rbt.Executable>
rbdock ($Id: //depot/dev/client3/rdock/2013.1/src/exe/rbdock.cxx#4 $)

>  <Rbt.Library>
libRbt.so (2013.1, Build901 2013/11/27)

>  <Rbt.Parameter_File>
/export/apps/rDock/src/rDock_2013.1_src/data/scripts/dock_solv.prm

>  <Rbt.Receptor>
prm/pocket_docking_5.prm

>  <SCORE>
-5.906

>  <SCORE.INTER>
-4.99776

>  <SCORE.INTER.CONST>
1

>  <SCORE.INTER.POLAR>
0

>  <SCORE.INTER.ROT>
6

>  <SCORE.INTER.SOLV>
15.5436

>  <SCORE.INTER.VDW>
-16.113

>  <SCORE.INTER.norm>
-0.161218

>  <SCORE.INTRA>
-0.908241

>  <SCORE.INTRA.DIHEDRAL>
-4.67638

>  <SCORE.INTRA.DIHEDRAL.0>
11.2357

>  <SCORE.INTRA.POLAR>
0

>  <SCORE.INTRA.POLAR.0>
0

>  <SCORE.INTRA.REPUL>
0

>  <SCORE.INTRA.REPUL.0>
0

>  <SCORE.INTRA.SOLV>
2.18746

>  <SCORE.INTRA.SOLV.lig_0>
-83.3092

>  <SCORE.INTRA.VDW>
0.33622

>  <SCORE.INTRA.VDW.0>
-4.47057

>  <SCORE.INTRA.norm>
-0.0292981

>  <SCORE.RESTR>
0

>  <SCORE.RESTR.CAVITY>
0

>  <SCORE.RESTR.norm>
0

>  <SCORE.SYSTEM>
0

>  <SCORE.SYSTEM.CONST>
0

>  <SCORE.SYSTEM.DIHEDRAL>
0

>  <SCORE.SYSTEM.SOLV>
0

>  <SCORE.SYSTEM.norm>
0

>  <SCORE.heavy>
31

>  <SCORE.norm>
-0.190516

>  <RMSD>
4.157

$$$$
ligand
 OpenBabel11021811433D
libRbt.so/2013.1/901 2013/11/27
 31 33  0  0  0  0  0  0  0  0999 V2000
   39.7614   27.4927    6.5680 C   0  0  0  0  0  0  0  0  0  0  0  0
   36.5589   25.3664   -1.3418 N   0  0  0  0  0  0  0  0  0  0  0  0
   40.7234   28.3626    5.9538 O   0  0  0  0  0  0  0  0  0  0  0  0
   38.4774   27.7304    5.7776 C   0  0  1  0  0  0  0  0  0  0  0  0
   40.8154   22.8162   -0.2899 N   0  0  0  0  0  0  0  0  0  0  0  0
   38.5227   27.2664    4.3330 O   0  0  0  0  0  0  0  0  0  0  0  0
   37.7915   26.1251    4.0988 C   0  0  1  0  0  0  0  0  0  0  0  0
   44.9782   25.0444    3.2826 N   0  0  0  0  0  0  0  0  0  0  0  0
   38.4095   25.0833    3.3958 O   0  0  0  0  0  0  0  0  0  0  0  0
   38.7966   25.1826    1.9480 C   0  0  2  0  0  0  0  0  0  0  0  0
   39.0337   22.6255    4.2353 N   0  0  0  0  0  0  0  0  0  0  0  0
   36.6804   26.4013    1.4702 O   0  0  0  0  0  0  0  0  0  0  0  0
   37.4930   25.2275    1.0970 C   0  0  1  0  0  0  0  0  0  0  0  0
   40.8253   23.9095    2.2554 O   0  0  0  0  0  0  0  0  0  0  0  0
   37.8524   25.3191   -0.4699 C   0  0  1  0  0  0  0  0  0  0  0  0
   42.6870   23.2614    3.5893 O   0  0  0  0  0  0  0  0  0  0  0  0
   38.7266   24.0428   -0.8402 C   0  0  0  0  0  0  0  0  0  0  0  0
   42.2019   25.7385    6.3278 O   0  0  0  0  0  0  0  0  0  0  0  0
   40.0187   24.0333    0.0779 C   0  0  1  0  0  0  0  0  0  0  0  0
   39.8103   24.2020    6.6004 O   0  0  0  0  0  0  0  0  0  0  0  0
   39.6613   23.9127    1.5251 C   0  0  2  0  0  0  0  0  0  0  0  0
   36.0051   25.0766    5.2815 O   0  0  0  0  0  0  0  0  0  0  0  0
   41.2670   22.9254    3.2256 C   0  0  1  0  0  0  0  0  0  0  0  0
   35.9985   27.7812    5.8703 O   0  0  0  0  0  0  0  0  0  0  0  0
   42.8870   24.5829    4.3188 C   0  0  2  0  0  0  0  0  0  0  0  0
   44.3705   24.7997    4.5937 C   0  0  0  0  0  0  0  0  0  0  0  0
   42.0653   24.5313    5.6275 C   0  0  2  0  0  0  0  0  0  0  0  0
   40.5972   24.2716    5.3336 C   0  0  1  0  0  0  0  0  0  0  0  0
   40.4792   22.9450    4.5607 C   0  0  1  0  0  0  0  0  0  0  0  0
   37.2151   25.7228    5.4466 C   0  0  2  0  0  0  0  0  0  0  0  0
   37.1943   27.0507    6.2697 C   0  0  1  0  0  0  0  0  0  0  0  0
  1  3  1  0  0  0  0
  4  1  1  1  0  0  0
  4  6  1  0  0  0  0
  4 31  1  0  0  0  0
  6  7  1  0  0  0  0
  7  9  1  1  0  0  0
  7 30  1  0  0  0  0
  8 26  1  0  0  0  0
 10  9  1  1  0  0  0
 10 13  1  0  0  0  0
 10 21  1  0  0  0  0
 13 12  1  1  0  0  0
 13 15  1  0  0  0  0
 15  2  1  6  0  0  0
 15 17  1  0  0  0  0
 16 25  1  0  0  0  0
 16 23  1  0  0  0  0
 17 19  1  0  0  0  0
 19  5  1  6  0  0  0
 19 21  1  0  0  0  0
 21 14  1  1  0  0  0
 23 14  1  6  0  0  0
 23 29  1  0  0  0  0
 25 26  1  1  0  0  0
 25 27  1  0  0  0  0
 27 18  1  6  0  0  0
 27 28  1  0  0  0  0
 28 20  1  1  0  0  0
 28 29  1  0  0  0  0
 29 11  1  6  0  0  0
 30 22  1  6  0  0  0
 30 31  1  0  0  0  0
 31 24  1  6  0  0  0
M  END
>  <CHROM.1>
66.81605829,-67.36564269,-68.73076198,171.61774191,116.32135779,69.41533343
39.59699681,25.15495381,3.59755515,0.88055525,-0.36066388,1.18012487

>  <Name>
ligand

>  <RI>
0

>  <Rbt.Current_Directory>
/home/itssahil/PROJECTS/Mol_Feturizer/New_Systems/rnas/2ET5

>  <Rbt.Executable>
rbdock ($Id: //depot/dev/client3/rdock/2013.1/src/exe/rbdock.cxx#4 $)

>  <Rbt.Library>
libRbt.so (2013.1, Build901 2013/11/27)

>  <Rbt.Parameter_File>
/export/apps/rDock/src/rDock_2013.1_src/data/scripts/dock_solv.prm

>  <Rbt.Receptor>
prm/pocket_docking_5.prm

>  <SCORE>
-2.79417

>  <SCORE.INTER>
-1.16146

>  <SCORE.INTER.CONST>
1

>  <SCORE.INTER.POLAR>
0

>  <SCORE.INTER.ROT>
6

>  <SCORE.INTER.SOLV>
16.0892

>  <SCORE.INTER.VDW>
-13.7374

>  <SCORE.INTER.norm>
-0.0374664

>  <SCORE.INTRA>
-1.63272

>  <SCORE.INTRA.DIHEDRAL>
-2.53745

>  <SCORE.INTRA.DIHEDRAL.0>
11.2357

>  <SCORE.INTRA.POLAR>
0

>  <SCORE.INTRA.POLAR.0>
0

>  <SCORE.INTRA.REPUL>
0

>  <SCORE.INTRA.REPUL.0>
0

>  <SCORE.INTRA.SOLV>
0.813668

>  <SCORE.INTRA.SOLV.lig_0>
-83.3092

>  <SCORE.INTRA.VDW>
-0.770823

>  <SCORE.INTRA.VDW.0>
-4.47057

>  <SCORE.INTRA.norm>
-0.0526683

>  <SCORE.RESTR>
0

>  <SCORE.RESTR.CAVITY>
0

>  <SCORE.RESTR.norm>
0

>  <SCORE.SYSTEM>
0

>  <SCORE.SYSTEM.CONST>
0

>  <SCORE.SYSTEM.DIHEDRAL>
0

>  <SCORE.SYSTEM.SOLV>
0

>  <SCORE.SYSTEM.norm>
0

>  <SCORE.heavy>
31

>  <SCORE.norm>
-0.0901346

>  <RMSD>
4.232

$$$$
ligand
 OpenBabel11021811433D
libRbt.so/2013.1/901 2013/11/27
 31 33  0  0  0  0  0  0  0  0999 V2000
   39.0454   29.5128    1.6870 C   0  0  0  0  0  0  0  0  0  0  0  0
   40.5948   23.3001   -4.0907 N   0  0  0  0  0  0  0  0  0  0  0  0
   40.4776   29.6038    1.6762 O   0  0  0  0  0  0  0  0  0  0  0  0
   38.6737   29.2241    0.2349 C   0  0  1  0  0  0  0  0  0  0  0  0
   41.2967   21.4865    0.5941 N   0  0  0  0  0  0  0  0  0  0  0  0
   39.2779   27.9549   -0.3377 O   0  0  0  0  0  0  0  0  0  0  0  0
   38.3697   26.9330   -0.4893 C   0  0  1  0  0  0  0  0  0  0  0  0
   45.2090   23.3511    2.8855 N   0  0  0  0  0  0  0  0  0  0  0  0
   38.7147   25.6701    0.0079 O   0  0  0  0  0  0  0  0  0  0  0  0
   39.8823   24.8749   -0.5023 C   0  0  2  0  0  0  0  0  0  0  0  0
   38.8330   24.4163    4.1513 N   0  0  0  0  0  0  0  0  0  0  0  0
   39.4812   25.7630   -2.7918 O   0  0  0  0  0  0  0  0  0  0  0  0
   39.6190   24.5271   -1.9974 C   0  0  1  0  0  0  0  0  0  0  0  0
   40.3056   23.8510    1.6432 O   0  0  0  0  0  0  0  0  0  0  0  0
   40.8379   23.6588   -2.5914 C   0  0  1  0  0  0  0  0  0  0  0  0
   41.6490   22.2915    2.8385 O   0  0  0  0  0  0  0  0  0  0  0  0
   40.9604   22.3366   -1.7157 C   0  0  0  0  0  0  0  0  0  0  0  0
   43.6968   24.7664    4.7233 O   0  0  0  0  0  0  0  0  0  0  0  0
   41.1937   22.7529   -0.2041 C   0  0  1  0  0  0  0  0  0  0  0  0
   41.1072   25.3328    5.7852 O   0  0  0  0  0  0  0  0  0  0  0  0
   40.0341   23.5280    0.3355 C   0  0  2  0  0  0  0  0  0  0  0  0
   35.9893   26.8925   -0.6361 O   0  0  0  0  0  0  0  0  0  0  0  0
   40.3085   22.9718    2.7972 C   0  0  1  0  0  0  0  0  0  0  0  0
   36.8935   29.3662   -1.4875 O   0  0  0  0  0  0  0  0  0  0  0  0
   42.8437   23.2011    3.0914 C   0  0  2  0  0  0  0  0  0  0  0  0
   44.1280   22.3801    3.0769 C   0  0  0  0  0  0  0  0  0  0  0  0
   42.6280   23.8996    4.4539 C   0  0  2  0  0  0  0  0  0  0  0  0
   41.3222   24.6767    4.4617 C   0  0  1  0  0  0  0  0  0  0  0  0
   40.1696   23.7017    4.1580 C   0  0  1  0  0  0  0  0  0  0  0  0
   37.0489   27.4772    0.0305 C   0  0  2  0  0  0  0  0  0  0  0  0
   37.1910   29.0276   -0.1019 C   0  0  1  0  0  0  0  0  0  0  0  0
  1  3  1  0  0  0  0
  4  1  1  1  0  0  0
  4  6  1  0  0  0  0
  4 31  1  0  0  0  0
  6  7  1  0  0  0  0
  7  9  1  1  0  0  0
  7 30  1  0  0  0  0
  8 26  1  0  0  0  0
 10  9  1  1  0  0  0
 10 13  1  0  0  0  0
 10 21  1  0  0  0  0
 13 12  1  6  0  0  0
 13 15  1  0  0  0  0
 15  2  1  6  0  0  0
 15 17  1  0  0  0  0
 16 25  1  0  0  0  0
 16 23  1  0  0  0  0
 17 19  1  0  0  0  0
 19  5  1  1  0  0  0
 19 21  1  0  0  0  0
 21 14  1  1  0  0  0
 23 14  1  6  0  0  0
 23 29  1  0  0  0  0
 25 26  1  1  0  0  0
 25 27  1  0  0  0  0
 27 18  1  6  0  0  0
 27 28  1  0  0  0  0
 28 20  1  1  0  0  0
 28 29  1  0  0  0  0
 29 11  1  6  0  0  0
 30 22  1  6  0  0  0
 30 31  1  0  0  0  0
 31 24  1  6  0  0  0
M  END
>  <CHROM.1>
59.12180294,-62.66950731,-63.63533470,83.35052867,169.13173885,162.00244363
40.23655497,25.16960789,1.02898834,2.96183886,0.93411766,-2.10689007

>  <Name>
ligand

>  <RI>
0

>  <Rbt.Current_Directory>
/home/itssahil/PROJECTS/Mol_Feturizer/New_Systems/rnas/2ET5

>  <Rbt.Executable>
rbdock ($Id: //depot/dev/client3/rdock/2013.1/src/exe/rbdock.cxx#4 $)

>  <Rbt.Library>
libRbt.so (2013.1, Build901 2013/11/27)

>  <Rbt.Parameter_File>
/export/apps/rDock/src/rDock_2013.1_src/data/scripts/dock_solv.prm

>  <Rbt.Receptor>
prm/pocket_docking_6.prm

>  <SCORE>
-4.36591

>  <SCORE.INTER>
-3.60859

>  <SCORE.INTER.CONST>
1

>  <SCORE.INTER.POLAR>
0

>  <SCORE.INTER.ROT>
6

>  <SCORE.INTER.SOLV>
15.0225

>  <SCORE.INTER.VDW>
-15.0132

>  <SCORE.INTER.norm>
-0.116406

>  <SCORE.INTRA>
-0.757318

>  <SCORE.INTRA.DIHEDRAL>
-6.99138

>  <SCORE.INTRA.DIHEDRAL.0>
11.2357

>  <SCORE.INTRA.POLAR>
0

>  <SCORE.INTRA.POLAR.0>
0

>  <SCORE.INTRA.REPUL>
0

>  <SCORE.INTRA.REPUL.0>
0

>  <SCORE.INTRA.SOLV>
-0.66644

>  <SCORE.INTRA.SOLV.lig_0>
-83.3092

>  <SCORE.INTRA.VDW>
3.07159

>  <SCORE.INTRA.VDW.0>
-4.47057

>  <SCORE.INTRA.norm>
-0.0244296

>  <SCORE.RESTR>
0

>  <SCORE.RESTR.CAVITY>
0

>  <SCORE.RESTR.norm>
0

>  <SCORE.SYSTEM>
0

>  <SCORE.SYSTEM.CONST>
0

>  <SCORE.SYSTEM.DIHEDRAL>
0

>  <SCORE.SYSTEM.SOLV>
0

>  <SCORE.SYSTEM.norm>
0

>  <SCORE.heavy>
31

>  <SCORE.norm>
-0.140836

>  <RMSD>
4.267

$$$$
ligand
 OpenBabel11021811433D
libRbt.so/2013.1/901 2013/11/27
 31 33  0  0  0  0  0  0  0  0999 V2000
   34.6764   26.9997    1.2190 C   0  0  0  0  0  0  0  0  0  0  0  0
   38.3756   26.2569   -2.6385 N   0  0  0  0  0  0  0  0  0  0  0  0
   33.7465   27.9293    1.7941 O   0  0  0  0  0  0  0  0  0  0  0  0
   34.5649   25.7586    2.1006 C   0  0  1  0  0  0  0  0  0  0  0  0
   42.1850   26.3009    0.7104 N   0  0  0  0  0  0  0  0  0  0  0  0
   35.4972   24.6220    1.7225 O   0  0  0  0  0  0  0  0  0  0  0  0
   36.5486   24.4598    2.5944 C   0  0  1  0  0  0  0  0  0  0  0  0
   43.0842   22.1374    1.8326 N   0  0  0  0  0  0  0  0  0  0  0  0
   37.8368   24.3524    2.0553 O   0  0  0  0  0  0  0  0  0  0  0  0
   38.4902   25.4456    1.2592 C   0  0  2  0  0  0  0  0  0  0  0  0
   39.8557   26.3551    5.4986 N   0  0  0  0  0  0  0  0  0  0  0  0
   36.6178   25.3670   -0.3777 O   0  0  0  0  0  0  0  0  0  0  0  0
   38.0833   25.2710   -0.2339 C   0  0  1  0  0  0  0  0  0  0  0  0
   40.4209   25.5409    2.7064 O   0  0  0  0  0  0  0  0  0  0  0  0
   38.7715   26.4127   -1.1370 C   0  0  1  0  0  0  0  0  0  0  0  0
   41.2142   23.4517    3.5256 O   0  0  0  0  0  0  0  0  0  0  0  0
   40.3471   26.2832   -0.9608 C   0  0  0  0  0  0  0  0  0  0  0  0
   44.4361   24.6796    4.9337 O   0  0  0  0  0  0  0  0  0  0  0  0
   40.6964   26.4356    0.5779 C   0  0  1  0  0  0  0  0  0  0  0  0
   42.5855   26.1022    6.5786 O   0  0  0  0  0  0  0  0  0  0  0  0
   40.0751   25.3451    1.3910 C   0  0  2  0  0  0  0  0  0  0  0  0
   36.8964   25.1395    4.8542 O   0  0  0  0  0  0  0  0  0  0  0  0
   40.2956   24.6078    3.8102 C   0  0  1  0  0  0  0  0  0  0  0  0
   34.1755   24.9115    4.3999 O   0  0  0  0  0  0  0  0  0  0  0  0
   42.7016   23.7776    3.5129 C   0  0  2  0  0  0  0  0  0  0  0  0
   43.5009   22.5219    3.1842 C   0  0  0  0  0  0  0  0  0  0  0  0
   43.0749   24.3446    4.9020 C   0  0  2  0  0  0  0  0  0  0  0  0
   42.2370   25.5696    5.2283 C   0  0  1  0  0  0  0  0  0  0  0  0
   40.7497   25.1732    5.1806 C   0  0  1  0  0  0  0  0  0  0  0  0
   36.3896   25.5541    3.6374 C   0  0  2  0  0  0  0  0  0  0  0  0
   34.8687   25.9094    3.5957 C   0  0  1  0  0  0  0  0  0  0  0  0
  1  3  1  0  0  0  0
  4  1  1  6  0  0  0
  4  6  1  0  0  0  0
  4 31  1  0  0  0  0
  6  7  1  0  0  0  0
  7  9  1  6  0  0  0
  7 30  1  0  0  0  0
  8 26  1  0  0  0  0
 10  9  1  1  0  0  0
 10 13  1  0  0  0  0
 10 21  1  0  0  0  0
 13 12  1  1  0  0  0
 13 15  1  0  0  0  0
 15  2  1  6  0  0  0
 15 17  1  0  0  0  0
 16 25  1  0  0  0  0
 16 23  1  0  0  0  0
 17 19  1  0  0  0  0
 19  5  1  6  0  0  0
 19 21  1  0  0  0  0
 21 14  1  1  0  0  0
 23 14  1  6  0  0  0
 23 29  1  0  0  0  0
 25 26  1  1  0  0  0
 25 27  1  0  0  0  0
 27 18  1  6  0  0  0
 27 28  1  0  0  0  0
 28 20  1  1  0  0  0
 28 29  1  0  0  0  0
 29 11  1  6  0  0  0
 30 22  1  1  0  0  0
 30 31  1  0  0  0  0
 31 24  1  1  0  0  0
M  END
>  <CHROM.1>
-178.13843476,62.08534093,-87.52378476,64.83583835,76.09998935,62.71600814
39.09403171,25.25536749,2.52782936,2.80860270,0.17397216,-1.47678939

>  <Name>
ligand

>  <RI>
0

>  <Rbt.Current_Directory>
/home/itssahil/PROJECTS/Mol_Feturizer/New_Systems/rnas/2ET5

>  <Rbt.Executable>
rbdock ($Id: //depot/dev/client3/rdock/2013.1/src/exe/rbdock.cxx#4 $)

>  <Rbt.Library>
libRbt.so (2013.1, Build901 2013/11/27)

>  <Rbt.Parameter_File>
/export/apps/rDock/src/rDock_2013.1_src/data/scripts/dock_solv.prm

>  <Rbt.Receptor>
prm/pocket_docking_5.prm

>  <SCORE>
-7.90984

>  <SCORE.INTER>
-4.52087

>  <SCORE.INTER.CONST>
1

>  <SCORE.INTER.POLAR>
0

>  <SCORE.INTER.ROT>
6

>  <SCORE.INTER.SOLV>
8.67874

>  <SCORE.INTER.VDW>
-13.5068

>  <SCORE.INTER.norm>
-0.145835

>  <SCORE.INTRA>
-3.38896

>  <SCORE.INTRA.DIHEDRAL>
-6.58389

>  <SCORE.INTRA.DIHEDRAL.0>
11.2357

>  <SCORE.INTRA.POLAR>
0

>  <SCORE.INTRA.POLAR.0>
0

>  <SCORE.INTRA.REPUL>
0

>  <SCORE.INTRA.REPUL.0>
0

>  <SCORE.INTRA.SOLV>
-1.8965

>  <SCORE.INTRA.SOLV.lig_0>
-83.3092

>  <SCORE.INTRA.VDW>
0.851229

>  <SCORE.INTRA.VDW.0>
-4.47057

>  <SCORE.INTRA.norm>
-0.109321

>  <SCORE.RESTR>
0

>  <SCORE.RESTR.CAVITY>
0

>  <SCORE.RESTR.norm>
0

>  <SCORE.SYSTEM>
0

>  <SCORE.SYSTEM.CONST>
0

>  <SCORE.SYSTEM.DIHEDRAL>
0

>  <SCORE.SYSTEM.SOLV>
0

>  <SCORE.SYSTEM.norm>
0

>  <SCORE.heavy>
31

>  <SCORE.norm>
-0.255156

>  <RMSD>
4.499

$$$$
ligand
 OpenBabel11021811433D
libRbt.so/2013.1/901 2013/11/27
 31 33  0  0  0  0  0  0  0  0999 V2000
   38.5974   25.7958    8.5291 C   0  0  0  0  0  0  0  0  0  0  0  0
   37.5642   29.5907    0.5204 N   0  0  0  0  0  0  0  0  0  0  0  0
   37.8787   25.4312    9.7166 O   0  0  0  0  0  0  0  0  0  0  0  0
   37.6537   26.7418    7.7912 C   0  0  1  0  0  0  0  0  0  0  0  0
   41.7727   26.7605    0.6027 N   0  0  0  0  0  0  0  0  0  0  0  0
   38.2241   27.3504    6.5229 O   0  0  0  0  0  0  0  0  0  0  0  0
   37.6907   26.8210    5.3708 C   0  0  1  0  0  0  0  0  0  0  0  0
   42.4673   21.6062    1.0388 N   0  0  0  0  0  0  0  0  0  0  0  0
   38.5766   26.4087    4.3675 O   0  0  0  0  0  0  0  0  0  0  0  0
   39.2006   27.3534    3.3806 C   0  0  2  0  0  0  0  0  0  0  0  0
   42.8213   26.1738    5.7418 N   0  0  0  0  0  0  0  0  0  0  0  0
   37.1046   28.6940    3.3449 O   0  0  0  0  0  0  0  0  0  0  0  0
   38.0666   27.9588    2.5013 C   0  0  1  0  0  0  0  0  0  0  0  0
   41.2452   26.0769    3.2349 O   0  0  0  0  0  0  0  0  0  0  0  0
   38.6849   28.9711    1.4124 C   0  0  1  0  0  0  0  0  0  0  0  0
   40.8577   23.7608    3.6229 O   0  0  0  0  0  0  0  0  0  0  0  0
   39.7155   28.1505    0.5209 C   0  0  0  0  0  0  0  0  0  0  0  0
   44.2736   22.5512    2.7629 O   0  0  0  0  0  0  0  0  0  0  0  0
   40.8236   27.5327    1.4712 C   0  0  1  0  0  0  0  0  0  0  0  0
   44.8640   24.1695    5.0405 O   0  0  0  0  0  0  0  0  0  0  0  0
   40.2306   26.5703    2.4504 C   0  0  2  0  0  0  0  0  0  0  0  0
   35.6738   25.6302    4.9197 O   0  0  0  0  0  0  0  0  0  0  0  0
   41.1570   25.0782    4.2835 C   0  0  1  0  0  0  0  0  0  0  0  0
   35.2975   27.2035    7.1658 O   0  0  0  0  0  0  0  0  0  0  0  0
   41.9502   23.2146    2.7136 C   0  0  2  0  0  0  0  0  0  0  0  0
   41.4953   21.8972    2.0964 C   0  0  0  0  0  0  0  0  0  0  0  0
   43.2292   23.0354    3.5636 C   0  0  2  0  0  0  0  0  0  0  0  0
   43.6408   24.3505    4.2041 C   0  0  1  0  0  0  0  0  0  0  0  0
   42.4743   24.8596    5.0711 C   0  0  1  0  0  0  0  0  0  0  0  0
   36.7100   25.7524    5.8256 C   0  0  2  0  0  0  0  0  0  0  0  0
   36.3241   26.1757    7.2793 C   0  0  1  0  0  0  0  0  0  0  0  0
  1  3  1  0  0  0  0
  4  1  1  6  0  0  0
  4  6  1  0  0  0  0
  4 31  1  0  0  0  0
  6  7  1  0  0  0  0
  7  9  1  6  0  0  0
  7 30  1  0  0  0  0
  8 26  1  0  0  0  0
 10  9  1  1  0  0  0
 10 13  1  0  0  0  0
 10 21  1  0  0  0  0
 13 12  1  1  0  0  0
 13 15  1  0  0  0  0
 15  2  1  6  0  0  0
 15 17  1  0  0  0  0
 16 25  1  0  0  0  0
 16 23  1  0  0  0  0
 17 19  1  0  0  0  0
 19  5  1  6  0  0  0
 19 21  1  0  0  0  0
 21 14  1  1  0  0  0
 23 14  1  6  0  0  0
 23 29  1  0  0  0  0
 25 26  1  1  0  0  0
 25 27  1  0  0  0  0
 27 18  1  6  0  0  0
 27 28  1  0  0  0  0
 28 20  1  1  0  0  0
 28 29  1  0  0  0  0
 29 11  1  6  0  0  0
 30 22  1  6  0  0  0
 30 31  1  0  0  0  0
 31 24  1  6  0  0  0
M  END
>  <CHROM.1>
176.20787958,-81.47910193,-64.48172675,69.29541733,64.63850469,168.19314766
39.85890656,25.84882091,4.14298858,-2.92753598,0.62190225,-1.15034722

>  <Name>
ligand

>  <RI>
0

>  <Rbt.Current_Directory>
/home/itssahil/PROJECTS/Mol_Feturizer/New_Systems/rnas/2ET5

>  <Rbt.Executable>
rbdock ($Id: //depot/dev/client3/rdock/2013.1/src/exe/rbdock.cxx#4 $)

>  <Rbt.Library>
libRbt.so (2013.1, Build901 2013/11/27)

>  <Rbt.Parameter_File>
/export/apps/rDock/src/rDock_2013.1_src/data/scripts/dock_solv.prm

>  <Rbt.Receptor>
prm/pocket_docking_7.prm

>  <SCORE>
-8.82623

>  <SCORE.INTER>
-5.15781

>  <SCORE.INTER.CONST>
1

>  <SCORE.INTER.POLAR>
0

>  <SCORE.INTER.ROT>
6

>  <SCORE.INTER.SOLV>
11.277

>  <SCORE.INTER.VDW>
-14.7975

>  <SCORE.INTER.norm>
-0.166381

>  <SCORE.INTRA>
-3.66841

>  <SCORE.INTRA.DIHEDRAL>
-7.94312

>  <SCORE.INTRA.DIHEDRAL.0>
11.2357

>  <SCORE.INTRA.POLAR>
0

>  <SCORE.INTRA.POLAR.0>
0

>  <SCORE.INTRA.REPUL>
0

>  <SCORE.INTRA.REPUL.0>
0

>  <SCORE.INTRA.SOLV>
-3.26197

>  <SCORE.INTRA.SOLV.lig_0>
-83.3092

>  <SCORE.INTRA.VDW>
1.93413

>  <SCORE.INTRA.VDW.0>
-4.47057

>  <SCORE.INTRA.norm>
-0.118336

>  <SCORE.RESTR>
0

>  <SCORE.RESTR.CAVITY>
0

>  <SCORE.RESTR.norm>
0

>  <SCORE.SYSTEM>
0

>  <SCORE.SYSTEM.CONST>
0

>  <SCORE.SYSTEM.DIHEDRAL>
0

>  <SCORE.SYSTEM.SOLV>
0

>  <SCORE.SYSTEM.norm>
0

>  <SCORE.heavy>
31

>  <SCORE.norm>
-0.284717

>  <RMSD>
4.515

$$$$
ligand
 OpenBabel11021811433D
libRbt.so/2013.1/901 2013/11/27
 31 33  0  0  0  0  0  0  0  0999 V2000
   39.4204   27.1945    1.5257 C   0  0  0  0  0  0  0  0  0  0  0  0
   37.6012   26.1103    4.8429 N   0  0  0  0  0  0  0  0  0  0  0  0
   40.7032   27.5043    2.0895 O   0  0  0  0  0  0  0  0  0  0  0  0
   39.7443   26.4125    0.2554 C   0  0  1  0  0  0  0  0  0  0  0  0
   42.2619   24.1161    5.0163 N   0  0  0  0  0  0  0  0  0  0  0  0
   40.3373   25.0348    0.4885 O   0  0  0  0  0  0  0  0  0  0  0  0
   39.4611   24.0073    0.2264 C   0  0  1  0  0  0  0  0  0  0  0  0
   44.7184   25.2748    1.6346 N   0  0  0  0  0  0  0  0  0  0  0  0
   39.3216   23.0023    1.1918 O   0  0  0  0  0  0  0  0  0  0  0  0
   39.3533   23.2695    2.6694 C   0  0  2  0  0  0  0  0  0  0  0  0
   41.7709   19.5669    2.1816 N   0  0  0  0  0  0  0  0  0  0  0  0
   37.0793   24.2704    2.5330 O   0  0  0  0  0  0  0  0  0  0  0  0
   38.4704   24.5196    2.9577 C   0  0  1  0  0  0  0  0  0  0  0  0
   41.6047   22.4322    2.9171 O   0  0  0  0  0  0  0  0  0  0  0  0
   38.4819   24.8601    4.5314 C   0  0  1  0  0  0  0  0  0  0  0  0
   43.2151   22.9103    1.2310 O   0  0  0  0  0  0  0  0  0  0  0  0
   39.9917   25.1230    4.9574 C   0  0  0  0  0  0  0  0  0  0  0  0
   46.1898   21.5417    3.0055 O   0  0  0  0  0  0  0  0  0  0  0  0
   40.8453   23.8331    4.6106 C   0  0  1  0  0  0  0  0  0  0  0  0
   44.6448   19.1612    2.6891 O   0  0  0  0  0  0  0  0  0  0  0  0
   40.8481   23.5573    3.1408 C   0  0  2  0  0  0  0  0  0  0  0  0
   37.4660   23.8741   -1.0740 O   0  0  0  0  0  0  0  0  0  0  0  0
   42.1374   21.9516    1.6562 C   0  0  1  0  0  0  0  0  0  0  0  0
   39.0475   25.9143   -2.0731 O   0  0  0  0  0  0  0  0  0  0  0  0
   44.4434   22.9641    2.1294 C   0  0  2  0  0  0  0  0  0  0  0  0
   45.4299   23.9941    1.5916 C   0  0  0  0  0  0  0  0  0  0  0  0
   45.0627   21.5480    2.1715 C   0  0  2  0  0  0  0  0  0  0  0  0
   44.0500   20.5302    2.6693 C   0  0  1  0  0  0  0  0  0  0  0  0
   42.8234   20.5637    1.7389 C   0  0  1  0  0  0  0  0  0  0  0  0
   38.1582   24.6735   -0.1847 C   0  0  2  0  0  0  0  0  0  0  0  0
   38.5911   26.0837   -0.6998 C   0  0  1  0  0  0  0  0  0  0  0  0
  1  3  1  0  0  0  0
  4  1  1  1  0  0  0
  4  6  1  0  0  0  0
  4 31  1  0  0  0  0
  6  7  1  0  0  0  0
  7  9  1  1  0  0  0
  7 30  1  0  0  0  0
  8 26  1  0  0  0  0
 10  9  1  6  0  0  0
 10 13  1  0  0  0  0
 10 21  1  0  0  0  0
 13 12  1  1  0  0  0
 13 15  1  0  0  0  0
 15  2  1  6  0  0  0
 15 17  1  0  0  0  0
 16 25  1  0  0  0  0
 16 23  1  0  0  0  0
 17 19  1  0  0  0  0
 19  5  1  6  0  0  0
 19 21  1  0  0  0  0
 21 14  1  1  0  0  0
 23 14  1  1  0  0  0
 23 29  1  0  0  0  0
 25 26  1  6  0  0  0
 25 27  1  0  0  0  0
 27 18  1  1  0  0  0
 27 28  1  0  0  0  0
 28 20  1  6  0  0  0
 28 29  1  0  0  0  0
 29 11  1  1  0  0  0
 30 22  1  6  0  0  0
 30 31  1  0  0  0  0
 31 24  1  6  0  0  0
M  END
>  <CHROM.1>
68.81351747,36.94667883,44.80552725,69.43790375,76.88274445,61.48404654,41.07407818
23.73586624,1.98845013,2.92431163,0.58859840,-1.49588750

>  <Name>
ligand

>  <RI>
0

>  <Rbt.Current_Directory>
/home/itssahil/PROJECTS/Mol_Feturizer/New_Systems/rnas/2ET5

>  <Rbt.Executable>
rbdock ($Id: //depot/dev/client3/rdock/2013.1/src/exe/rbdock.cxx#4 $)

>  <Rbt.Library>
libRbt.so (2013.1, Build901 2013/11/27)

>  <Rbt.Parameter_File>
/export/apps/rDock/src/rDock_2013.1_src/data/scripts/dock_solv.prm

>  <Rbt.Receptor>
prm/pocket_docking_4.prm

>  <SCORE>
-7.70327

>  <SCORE.INTER>
-4.53706

>  <SCORE.INTER.CONST>
1

>  <SCORE.INTER.POLAR>
0

>  <SCORE.INTER.ROT>
6

>  <SCORE.INTER.SOLV>
20.107

>  <SCORE.INTER.VDW>
-17.327

>  <SCORE.INTER.norm>
-0.146357

>  <SCORE.INTRA>
-3.16621

>  <SCORE.INTRA.DIHEDRAL>
-5.72775

>  <SCORE.INTRA.DIHEDRAL.0>
11.2357

>  <SCORE.INTRA.POLAR>
0

>  <SCORE.INTRA.POLAR.0>
0

>  <SCORE.INTRA.REPUL>
0.133817

>  <SCORE.INTRA.REPUL.0>
0

>  <SCORE.INTRA.SOLV>
-1.90586

>  <SCORE.INTRA.SOLV.lig_0>
-83.3092

>  <SCORE.INTRA.VDW>
-0.0184832

>  <SCORE.INTRA.VDW.0>
-4.47057

>  <SCORE.INTRA.norm>
-0.102136

>  <SCORE.RESTR>
0

>  <SCORE.RESTR.CAVITY>
0

>  <SCORE.RESTR.norm>
0

>  <SCORE.SYSTEM>
0

>  <SCORE.SYSTEM.CONST>
0

>  <SCORE.SYSTEM.DIHEDRAL>
0

>  <SCORE.SYSTEM.SOLV>
0

>  <SCORE.SYSTEM.norm>
0

>  <SCORE.heavy>
31

>  <SCORE.norm>
-0.248493

>  <RMSD>
4.714

$$$$
ligand
 OpenBabel11021811433D
libRbt.so/2013.1/901 2013/11/27
 31 33  0  0  0  0  0  0  0  0999 V2000
   37.5199   25.0183   -1.8944 C   0  0  0  0  0  0  0  0  0  0  0  0
   38.2369   26.4547    3.5264 N   0  0  0  0  0  0  0  0  0  0  0  0
   37.1925   26.0463   -0.9480 O   0  0  0  0  0  0  0  0  0  0  0  0
   39.0408   25.0794   -2.0083 C   0  0  1  0  0  0  0  0  0  0  0  0
   43.0887   25.0222    3.8956 N   0  0  0  0  0  0  0  0  0  0  0  0
   39.7876   24.8465   -0.7074 O   0  0  0  0  0  0  0  0  0  0  0  0
   40.4027   23.6181   -0.6387 C   0  0  1  0  0  0  0  0  0  0  0  0
   42.6476   18.1390    0.2544 N   0  0  0  0  0  0  0  0  0  0  0  0
   40.2007   22.8473    0.5131 O   0  0  0  0  0  0  0  0  0  0  0  0
   40.2366   23.4171    1.9023 C   0  0  2  0  0  0  0  0  0  0  0  0
   45.0804   23.1180    3.7717 N   0  0  0  0  0  0  0  0  0  0  0  0
   37.8651   24.1324    1.6657 O   0  0  0  0  0  0  0  0  0  0  0  0
   39.2303   24.6039    1.9685 C   0  0  1  0  0  0  0  0  0  0  0  0
   42.5704   22.8817    2.2153 O   0  0  0  0  0  0  0  0  0  0  0  0
   39.2404   25.2628    3.4376 C   0  0  1  0  0  0  0  0  0  0  0  0
   42.3484   20.6460    3.0011 O   0  0  0  0  0  0  0  0  0  0  0  0
   40.7221   25.7599    3.7335 C   0  0  0  0  0  0  0  0  0  0  0  0
   45.0295   19.1317    0.9059 O   0  0  0  0  0  0  0  0  0  0  0  0
   41.7022   24.5193    3.6196 C   0  0  1  0  0  0  0  0  0  0  0  0
   46.5794   20.9221    2.5017 O   0  0  0  0  0  0  0  0  0  0  0  0
   41.7017   23.9462    2.2382 C   0  0  2  0  0  0  0  0  0  0  0  0
   41.0706   22.0473   -2.3048 O   0  0  0  0  0  0  0  0  0  0  0  0
   42.9285   21.9988    3.3093 C   0  0  1  0  0  0  0  0  0  0  0  0
   41.0068   24.5734   -3.4348 O   0  0  0  0  0  0  0  0  0  0  0  0
   42.9275   19.9413    1.7818 C   0  0  2  0  0  0  0  0  0  0  0  0
   42.2262   18.6032    1.5792 C   0  0  0  0  0  0  0  0  0  0  0  0
   44.4454   19.7609    2.0146 C   0  0  2  0  0  0  0  0  0  0  0  0
   45.1178   21.1019    2.2569 C   0  0  1  0  0  0  0  0  0  0  0  0
   44.4530   21.7706    3.4745 C   0  0  1  0  0  0  0  0  0  0  0  0
   40.0568   22.9123   -1.9397 C   0  0  2  0  0  0  0  0  0  0  0  0
   39.7331   24.0728   -2.9346 C   0  0  1  0  0  0  0  0  0  0  0  0
  1  3  1  0  0  0  0
  4  1  1  1  0  0  0
  4  6  1  0  0  0  0
  4 31  1  0  0  0  0
  6  7  1  0  0  0  0
  7  9  1  1  0  0  0
  7 30  1  0  0  0  0
  8 26  1  0  0  0  0
 10  9  1  6  0  0  0
 10 13  1  0  0  0  0
 10 21  1  0  0  0  0
 13 12  1  1  0  0  0
 13 15  1  0  0  0  0
 15  2  1  6  0  0  0
 15 17  1  0  0  0  0
 16 25  1  0  0  0  0
 16 23  1  0  0  0  0
 17 19  1  0  0  0  0
 19  5  1  6  0  0  0
 19 21  1  0  0  0  0
 21 14  1  1  0  0  0
 23 14  1  6  0  0  0
 23 29  1  0  0  0  0
 25 26  1  1  0  0  0
 25 27  1  0  0  0  0
 27 18  1  6  0  0  0
 27 28  1  0  0  0  0
 28 20  1  1  0  0  0
 28 29  1  0  0  0  0
 29 11  1  6  0  0  0
 30 22  1  6  0  0  0
 30 31  1  0  0  0  0
 31 24  1  1  0  0  0
M  END
>  <CHROM.1>
59.43020205,-43.21440170,54.35763625,111.29214444,-88.98585479,168.74513260
41.42609478,22.96570816,1.14321533,-3.09067784,-0.75640938,1.07753988

>  <Name>
ligand

>  <RI>
0

>  <Rbt.Current_Directory>
/home/itssahil/PROJECTS/Mol_Feturizer/New_Systems/rnas/2ET5

>  <Rbt.Executable>
rbdock ($Id: //depot/dev/client3/rdock/2013.1/src/exe/rbdock.cxx#4 $)

>  <Rbt.Library>
libRbt.so (2013.1, Build901 2013/11/27)

>  <Rbt.Parameter_File>
/export/apps/rDock/src/rDock_2013.1_src/data/scripts/dock_solv.prm

>  <Rbt.Receptor>
prm/pocket_docking_2.prm

>  <SCORE>
3.01757

>  <SCORE.INTER>
-0.858344

>  <SCORE.INTER.CONST>
1

>  <SCORE.INTER.POLAR>
0

>  <SCORE.INTER.ROT>
6

>  <SCORE.INTER.SOLV>
19.1369

>  <SCORE.INTER.VDW>
-14.5512

>  <SCORE.INTER.norm>
-0.0276885

>  <SCORE.INTRA>
3.51539

>  <SCORE.INTRA.DIHEDRAL>
0.940631

>  <SCORE.INTRA.DIHEDRAL.0>
11.2357

>  <SCORE.INTRA.POLAR>
0

>  <SCORE.INTRA.POLAR.0>
0

>  <SCORE.INTRA.REPUL>
0

>  <SCORE.INTRA.REPUL.0>
0

>  <SCORE.INTRA.SOLV>
0.945667

>  <SCORE.INTRA.SOLV.lig_0>
-83.3092

>  <SCORE.INTRA.VDW>
2.57224

>  <SCORE.INTRA.VDW.0>
-4.47057

>  <SCORE.INTRA.norm>
0.1134

>  <SCORE.RESTR>
0.360522

>  <SCORE.RESTR.CAVITY>
0.360522

>  <SCORE.RESTR.norm>
0.0116298

>  <SCORE.SYSTEM>
0

>  <SCORE.SYSTEM.CONST>
0

>  <SCORE.SYSTEM.DIHEDRAL>
0

>  <SCORE.SYSTEM.SOLV>
0

>  <SCORE.SYSTEM.norm>
0

>  <SCORE.heavy>
31

>  <SCORE.norm>
0.0973409

>  <RMSD>
4.717

$$$$
ligand
 OpenBabel11021811433D
libRbt.so/2013.1/901 2013/11/27
 31 33  0  0  0  0  0  0  0  0999 V2000
   33.0487   23.7990    3.8398 C   0  0  0  0  0  0  0  0  0  0  0  0
   37.6196   26.9686   -2.4822 N   0  0  0  0  0  0  0  0  0  0  0  0
   33.1449   24.5425    2.6161 O   0  0  0  0  0  0  0  0  0  0  0  0
   34.3309   24.1429    4.5933 C   0  0  1  0  0  0  0  0  0  0  0  0
   41.2463   26.5083    1.0340 N   0  0  0  0  0  0  0  0  0  0  0  0
   35.6136   23.7645    3.8751 O   0  0  0  0  0  0  0  0  0  0  0  0
   36.2932   24.8428    3.3580 C   0  0  1  0  0  0  0  0  0  0  0  0
   41.6734   22.2328    1.5613 N   0  0  0  0  0  0  0  0  0  0  0  0
   36.7165   24.7730    2.0249 O   0  0  0  0  0  0  0  0  0  0  0  0
   37.4802   25.8729    1.3445 C   0  0  2  0  0  0  0  0  0  0  0  0
   38.9342   26.2945    5.7638 N   0  0  0  0  0  0  0  0  0  0  0  0
   35.6934   26.0417   -0.3789 O   0  0  0  0  0  0  0  0  0  0  0  0
   37.1401   25.8347   -0.1748 C   0  0  1  0  0  0  0  0  0  0  0  0
   39.3359   25.7303    2.8830 O   0  0  0  0  0  0  0  0  0  0  0  0
   37.9471   26.9882   -0.9565 C   0  0  1  0  0  0  0  0  0  0  0  0
   39.9758   23.5102    3.4549 O   0  0  0  0  0  0  0  0  0  0  0  0
   39.4997   26.7378   -0.7174 C   0  0  0  0  0  0  0  0  0  0  0  0
   43.3348   24.3208    4.8443 O   0  0  0  0  0  0  0  0  0  0  0  0
   39.7786   26.7546    0.8429 C   0  0  1  0  0  0  0  0  0  0  0  0
   41.6668   25.7109    6.6989 O   0  0  0  0  0  0  0  0  0  0  0  0
   39.0462   25.6540    1.5420 C   0  0  2  0  0  0  0  0  0  0  0  0
   36.2424   27.1758    3.8521 O   0  0  0  0  0  0  0  0  0  0  0  0
   39.1684   24.7013    3.8919 C   0  0  1  0  0  0  0  0  0  0  0  0
   35.4441   25.7705    6.0992 O   0  0  0  0  0  0  0  0  0  0  0  0
   41.4842   23.7140    3.4133 C   0  0  2  0  0  0  0  0  0  0  0  0
   42.1628   22.4385    2.9275 C   0  0  0  0  0  0  0  0  0  0  0  0
   41.9498   24.1023    4.8357 C   0  0  2  0  0  0  0  0  0  0  0  0
   41.2301   25.3508    5.3176 C   0  0  1  0  0  0  0  0  0  0  0  0
   39.7138   25.0833    5.2920 C   0  0  1  0  0  0  0  0  0  0  0  0
   35.4444   26.0598    3.6882 C   0  0  2  0  0  0  0  0  0  0  0  0
   34.5970   25.6162    4.9238 C   0  0  1  0  0  0  0  0  0  0  0  0
  1  3  1  0  0  0  0
  4  1  1  6  0  0  0
  4  6  1  0  0  0  0
  4 31  1  0  0  0  0
  6  7  1  0  0  0  0
  7  9  1  6  0  0  0
  7 30  1  0  0  0  0
  8 26  1  0  0  0  0
 10  9  1  1  0  0  0
 10 13  1  0  0  0  0
 10 21  1  0  0  0  0
 13 12  1  1  0  0  0
 13 15  1  0  0  0  0
 15  2  1  6  0  0  0
 15 17  1  0  0  0  0
 16 25  1  0  0  0  0
 16 23  1  0  0  0  0
 17 19  1  0  0  0  0
 19  5  1  6  0  0  0
 19 21  1  0  0  0  0
 21 14  1  1  0  0  0
 23 14  1  6  0  0  0
 23 29  1  0  0  0  0
 25 26  1  1  0  0  0
 25 27  1  0  0  0  0
 27 18  1  6  0  0  0
 27 28  1  0  0  0  0
 28 20  1  1  0  0  0
 28 29  1  0  0  0  0
 29 11  1  6  0  0  0
 30 22  1  1  0  0  0
 30 31  1  0  0  0  0
 31 24  1  1  0  0  0
M  END
>  <CHROM.1>
-60.34704155,-179.27924514,-150.64198379,58.13075924,80.21497926,62.86010027
38.26402814,25.18743319,2.92555668,2.93074986,0.07956497,-1.33507436

>  <Name>
ligand

>  <RI>
0

>  <Rbt.Current_Directory>
/home/itssahil/PROJECTS/Mol_Feturizer/New_Systems/rnas/2ET5

>  <Rbt.Executable>
rbdock ($Id: //depot/dev/client3/rdock/2013.1/src/exe/rbdock.cxx#4 $)

>  <Rbt.Library>
libRbt.so (2013.1, Build901 2013/11/27)

>  <Rbt.Parameter_File>
/export/apps/rDock/src/rDock_2013.1_src/data/scripts/dock_solv.prm

>  <Rbt.Receptor>
prm/pocket_docking_5.prm

>  <SCORE>
-9.87605

>  <SCORE.INTER>
-7.2732

>  <SCORE.INTER.CONST>
1

>  <SCORE.INTER.POLAR>
0

>  <SCORE.INTER.ROT>
6

>  <SCORE.INTER.SOLV>
10.5744

>  <SCORE.INTER.VDW>
-15.9736

>  <SCORE.INTER.norm>
-0.234619

>  <SCORE.INTRA>
-2.60285

>  <SCORE.INTRA.DIHEDRAL>
-5.73654

>  <SCORE.INTRA.DIHEDRAL.0>
11.2357

>  <SCORE.INTRA.POLAR>
0

>  <SCORE.INTRA.POLAR.0>
0

>  <SCORE.INTRA.REPUL>
0

>  <SCORE.INTRA.REPUL.0>
0

>  <SCORE.INTRA.SOLV>
-0.539332

>  <SCORE.INTRA.SOLV.lig_0>
-83.3092

>  <SCORE.INTRA.VDW>
0.535085

>  <SCORE.INTRA.VDW.0>
-4.47057

>  <SCORE.INTRA.norm>
-0.0839628

>  <SCORE.RESTR>
0

>  <SCORE.RESTR.CAVITY>
0

>  <SCORE.RESTR.norm>
0

>  <SCORE.SYSTEM>
0

>  <SCORE.SYSTEM.CONST>
0

>  <SCORE.SYSTEM.DIHEDRAL>
0

>  <SCORE.SYSTEM.SOLV>
0

>  <SCORE.SYSTEM.norm>
0

>  <SCORE.heavy>
31

>  <SCORE.norm>
-0.318582

>  <RMSD>
4.792

$$$$
ligand
 OpenBabel11021811433D
libRbt.so/2013.1/901 2013/11/27
 31 33  0  0  0  0  0  0  0  0999 V2000
   33.0505   23.7777    3.8475 C   0  0  0  0  0  0  0  0  0  0  0  0
   37.6976   26.8802   -2.5171 N   0  0  0  0  0  0  0  0  0  0  0  0
   33.1142   24.5512    2.6404 O   0  0  0  0  0  0  0  0  0  0  0  0
   34.3354   24.1315    4.5918 C   0  0  1  0  0  0  0  0  0  0  0  0
   41.2515   26.4822    1.0802 N   0  0  0  0  0  0  0  0  0  0  0  0
   35.6156   23.7553    3.8683 O   0  0  0  0  0  0  0  0  0  0  0  0
   36.2872   24.8341    3.3418 C   0  0  1  0  0  0  0  0  0  0  0  0
   41.6084   22.2006    1.6196 N   0  0  0  0  0  0  0  0  0  0  0  0
   36.7033   24.7594    2.0066 O   0  0  0  0  0  0  0  0  0  0  0  0
   37.4802   25.8485    1.3238 C   0  0  2  0  0  0  0  0  0  0  0  0
   38.9087   26.3312    5.7772 N   0  0  0  0  0  0  0  0  0  0  0  0
   35.7290   25.9868   -0.4386 O   0  0  0  0  0  0  0  0  0  0  0  0
   37.1714   25.7846   -0.2014 C   0  0  1  0  0  0  0  0  0  0  0  0
   39.3039   25.7334    2.9023 O   0  0  0  0  0  0  0  0  0  0  0  0
   37.9936   26.9256   -0.9854 C   0  0  1  0  0  0  0  0  0  0  0  0
   39.9287   23.5151    3.4973 O   0  0  0  0  0  0  0  0  0  0  0  0
   39.5411   26.6808   -0.7103 C   0  0  0  0  0  0  0  0  0  0  0  0
   43.2945   24.3169    4.8754 O   0  0  0  0  0  0  0  0  0  0  0  0
   39.7878   26.7239    0.8549 C   0  0  1  0  0  0  0  0  0  0  0  0
   41.6379   25.7385    6.7163 O   0  0  0  0  0  0  0  0  0  0  0  0
   39.0419   25.6344    1.5570 C   0  0  2  0  0  0  0  0  0  0  0  0
   36.2284   27.1693    3.8242 O   0  0  0  0  0  0  0  0  0  0  0  0
   39.1301   24.7165    3.9222 C   0  0  1  0  0  0  0  0  0  0  0  0
   35.4495   25.7719    6.0830 O   0  0  0  0  0  0  0  0  0  0  0  0
   41.4384   23.7079    3.4524 C   0  0  2  0  0  0  0  0  0  0  0  0
   42.1077   22.4225    2.9797 C   0  0  0  0  0  0  0  0  0  0  0  0
   41.9080   24.1080    4.8701 C   0  0  2  0  0  0  0  0  0  0  0  0
   41.1975   25.3667    5.3393 C   0  0  1  0  0  0  0  0  0  0  0  0
   39.6793   25.1095    5.3178 C   0  0  1  0  0  0  0  0  0  0  0  0
   35.4347   26.0488    3.6706 C   0  0  2  0  0  0  0  0  0  0  0  0
   34.5965   25.6076    4.9132 C   0  0  1  0  0  0  0  0  0  0  0  0
  1  3  1  0  0  0  0
  4  1  1  6  0  0  0
  4  6  1  0  0  0  0
  4 31  1  0  0  0  0
  6  7  1  0  0  0  0
  7  9  1  6  0  0  0
  7 30  1  0  0  0  0
  8 26  1  0  0  0  0
 10  9  1  1  0  0  0
 10 13  1  0  0  0  0
 10 21  1  0  0  0  0
 13 12  1  1  0  0  0
 13 15  1  0  0  0  0
 15  2  1  6  0  0  0
 15 17  1  0  0  0  0
 16 25  1  0  0  0  0
 16 23  1  0  0  0  0
 17 19  1  0  0  0  0
 19  5  1  6  0  0  0
 19 21  1  0  0  0  0
 21 14  1  1  0  0  0
 23 14  1  6  0  0  0
 23 29  1  0  0  0  0
 25 26  1  1  0  0  0
 25 27  1  0  0  0  0
 27 18  1  6  0  0  0
 27 28  1  0  0  0  0
 28 20  1  1  0  0  0
 28 29  1  0  0  0  0
 29 11  1  6  0  0  0
 30 22  1  1  0  0  0
 30 31  1  0  0  0  0
 31 24  1  1  0  0  0
M  END
>  <CHROM.1>
-62.28202908,-178.10126963,-152.62616613,56.45855020,80.95431986,62.47579114
38.25387148,25.17435038,2.93219841,2.92594710,0.07560108,-1.34585610

>  <Name>
ligand

>  <RI>
0

>  <Rbt.Current_Directory>
/home/itssahil/PROJECTS/Mol_Feturizer/New_Systems/rnas/2ET5

>  <Rbt.Executable>
rbdock ($Id: //depot/dev/client3/rdock/2013.1/src/exe/rbdock.cxx#4 $)

>  <Rbt.Library>
libRbt.so (2013.1, Build901 2013/11/27)

>  <Rbt.Parameter_File>
/export/apps/rDock/src/rDock_2013.1_src/data/scripts/dock_solv.prm

>  <Rbt.Receptor>
prm/pocket_docking_6.prm

>  <SCORE>
-9.92024

>  <SCORE.INTER>
-7.36395

>  <SCORE.INTER.CONST>
1

>  <SCORE.INTER.POLAR>
0

>  <SCORE.INTER.ROT>
6

>  <SCORE.INTER.SOLV>
10.4346

>  <SCORE.INTER.VDW>
-15.9875

>  <SCORE.INTER.norm>
-0.237547

>  <SCORE.INTRA>
-2.55629

>  <SCORE.INTRA.DIHEDRAL>
-5.91728

>  <SCORE.INTRA.DIHEDRAL.0>
11.2357

>  <SCORE.INTRA.POLAR>
0

>  <SCORE.INTRA.POLAR.0>
0

>  <SCORE.INTRA.REPUL>
0

>  <SCORE.INTRA.REPUL.0>
0

>  <SCORE.INTRA.SOLV>
-0.421294

>  <SCORE.INTRA.SOLV.lig_0>
-83.3092

>  <SCORE.INTRA.VDW>
0.612997

>  <SCORE.INTRA.VDW.0>
-4.47057

>  <SCORE.INTRA.norm>
-0.082461

>  <SCORE.RESTR>
0

>  <SCORE.RESTR.CAVITY>
0

>  <SCORE.RESTR.norm>
0

>  <SCORE.SYSTEM>
0

>  <SCORE.SYSTEM.CONST>
0

>  <SCORE.SYSTEM.DIHEDRAL>
0

>  <SCORE.SYSTEM.SOLV>
0

>  <SCORE.SYSTEM.norm>
0

>  <SCORE.heavy>
31

>  <SCORE.norm>
-0.320008

>  <RMSD>
4.798

$$$$
ligand
 OpenBabel11021811433D
libRbt.so/2013.1/901 2013/11/27
 31 33  0  0  0  0  0  0  0  0999 V2000
   41.1677   22.6107   -2.6131 C   0  0  0  0  0  0  0  0  0  0  0  0
   35.8204   27.3897    2.5439 N   0  0  0  0  0  0  0  0  0  0  0  0
   41.6966   22.7802   -1.2898 O   0  0  0  0  0  0  0  0  0  0  0  0
   39.9551   23.5369   -2.6574 C   0  0  1  0  0  0  0  0  0  0  0  0
   40.7960   27.3578    3.5293 N   0  0  0  0  0  0  0  0  0  0  0  0
   38.9052   23.2640   -1.5957 O   0  0  0  0  0  0  0  0  0  0  0  0
   38.8823   24.2028   -0.5905 C   0  0  1  0  0  0  0  0  0  0  0  0
   41.8325   19.8130    2.3249 N   0  0  0  0  0  0  0  0  0  0  0  0
   38.8855   23.7460    0.7334 O   0  0  0  0  0  0  0  0  0  0  0  0
   38.6316   24.6395    1.9136 C   0  0  2  0  0  0  0  0  0  0  0  0
   42.5231   25.1034    4.9834 N   0  0  0  0  0  0  0  0  0  0  0  0
   36.2026   24.6550    1.3740 O   0  0  0  0  0  0  0  0  0  0  0  0
   37.3807   25.5137    1.6029 C   0  0  1  0  0  0  0  0  0  0  0  0
   40.9744   24.8021    2.4755 O   0  0  0  0  0  0  0  0  0  0  0  0
   37.0724   26.5043    2.8342 C   0  0  1  0  0  0  0  0  0  0  0  0
   41.0020   22.4439    2.7968 O   0  0  0  0  0  0  0  0  0  0  0  0
   38.3582   27.4143    3.0553 C   0  0  0  0  0  0  0  0  0  0  0  0
   44.5724   21.8783    1.9003 O   0  0  0  0  0  0  0  0  0  0  0  0
   39.6014   26.4711    3.3336 C   0  0  1  0  0  0  0  0  0  0  0  0
   44.8821   23.5099    4.2233 O   0  0  0  0  0  0  0  0  0  0  0  0
   39.8894   25.5854    2.1635 C   0  0  2  0  0  0  0  0  0  0  0  0
   39.6770   26.4477   -0.4547 O   0  0  0  0  0  0  0  0  0  0  0  0
   41.0690   23.7741    3.4949 C   0  0  1  0  0  0  0  0  0  0  0  0
   39.1589   25.8436   -3.1059 O   0  0  0  0  0  0  0  0  0  0  0  0
   42.1683   22.1241    1.8714 C   0  0  2  0  0  0  0  0  0  0  0  0
   41.9484   20.7653    1.2167 C   0  0  0  0  0  0  0  0  0  0  0  0
   43.4637   22.1485    2.7152 C   0  0  2  0  0  0  0  0  0  0  0  0
   43.6414   23.4968    3.3932 C   0  0  1  0  0  0  0  0  0  0  0  0
   42.4086   23.7682    4.2752 C   0  0  1  0  0  0  0  0  0  0  0  0
   39.9929   25.1863   -0.9220 C   0  0  2  0  0  0  0  0  0  0  0  0
   40.1912   25.0395   -2.4649 C   0  0  1  0  0  0  0  0  0  0  0  0
  1  3  1  0  0  0  0
  4  1  1  1  0  0  0
  4  6  1  0  0  0  0
  4 31  1  0  0  0  0
  6  7  1  0  0  0  0
  7  9  1  1  0  0  0
  7 30  1  0  0  0  0
  8 26  1  0  0  0  0
 10  9  1  6  0  0  0
 10 13  1  0  0  0  0
 10 21  1  0  0  0  0
 13 12  1  1  0  0  0
 13 15  1  0  0  0  0
 15  2  1  6  0  0  0
 15 17  1  0  0  0  0
 16 25  1  0  0  0  0
 16 23  1  0  0  0  0
 17 19  1  0  0  0  0
 19  5  1  6  0  0  0
 19 21  1  0  0  0  0
 21 14  1  1  0  0  0
 23 14  1  6  0  0  0
 23 29  1  0  0  0  0
 25 26  1  1  0  0  0
 25 27  1  0  0  0  0
 27 18  1  6  0  0  0
 27 28  1  0  0  0  0
 28 20  1  1  0  0  0
 28 29  1  0  0  0  0
 29 11  1  6  0  0  0
 30 22  1  6  0  0  0
 30 31  1  0  0  0  0
 31 24  1  6  0  0  0
M  END
>  <CHROM.1>
-57.46270279,-169.39594042,46.65894821,103.88328329,-52.37398259,-58.54992447
40.42284382,24.23225496,1.35460526,-2.95038423,-0.65548454,1.19907997

>  <Name>
ligand

>  <RI>
0

>  <Rbt.Current_Directory>
/home/itssahil/PROJECTS/Mol_Feturizer/New_Systems/rnas/2ET5

>  <Rbt.Executable>
rbdock ($Id: //depot/dev/client3/rdock/2013.1/src/exe/rbdock.cxx#4 $)

>  <Rbt.Library>
libRbt.so (2013.1, Build901 2013/11/27)

>  <Rbt.Parameter_File>
/export/apps/rDock/src/rDock_2013.1_src/data/scripts/dock_solv.prm

>  <Rbt.Receptor>
prm/pocket_docking_4.prm

>  <SCORE>
-0.912865

>  <SCORE.INTER>
-1.02418

>  <SCORE.INTER.CONST>
1

>  <SCORE.INTER.POLAR>
0

>  <SCORE.INTER.ROT>
6

>  <SCORE.INTER.SOLV>
15.3671

>  <SCORE.INTER.VDW>
-13.4052

>  <SCORE.INTER.norm>
-0.033038

>  <SCORE.INTRA>
0.111312

>  <SCORE.INTRA.DIHEDRAL>
-3.47404

>  <SCORE.INTRA.DIHEDRAL.0>
11.2357

>  <SCORE.INTRA.POLAR>
0

>  <SCORE.INTRA.POLAR.0>
0

>  <SCORE.INTRA.REPUL>
0.00467291

>  <SCORE.INTRA.REPUL.0>
0

>  <SCORE.INTRA.SOLV>
1.65807

>  <SCORE.INTRA.SOLV.lig_0>
-83.3092

>  <SCORE.INTRA.VDW>
0.99593

>  <SCORE.INTRA.VDW.0>
-4.47057

>  <SCORE.INTRA.norm>
0.00359072

>  <SCORE.RESTR>
0

>  <SCORE.RESTR.CAVITY>
0

>  <SCORE.RESTR.norm>
0

>  <SCORE.SYSTEM>
0

>  <SCORE.SYSTEM.CONST>
0

>  <SCORE.SYSTEM.DIHEDRAL>
0

>  <SCORE.SYSTEM.SOLV>
0

>  <SCORE.SYSTEM.norm>
0

>  <SCORE.heavy>
31

>  <SCORE.norm>
-0.0294473

>  <RMSD>
4.860

$$$$
ligand
 OpenBabel11021811433D
libRbt.so/2013.1/901 2013/11/27
 31 33  0  0  0  0  0  0  0  0999 V2000
   43.8892   24.5142    3.6774 C   0  0  0  0  0  0  0  0  0  0  0  0
   36.0101   28.1881    3.3349 N   0  0  0  0  0  0  0  0  0  0  0  0
   44.9450   24.0387    4.5252 O   0  0  0  0  0  0  0  0  0  0  0  0
   42.9822   25.3097    4.6126 C   0  0  1  0  0  0  0  0  0  0  0  0
   36.5753   24.8473   -0.4397 N   0  0  0  0  0  0  0  0  0  0  0  0
   41.6984   25.8143    3.9791 O   0  0  0  0  0  0  0  0  0  0  0  0
   40.5776   25.1291    4.3868 C   0  0  1  0  0  0  0  0  0  0  0  0
   42.8202   20.8320    1.7605 N   0  0  0  0  0  0  0  0  0  0  0  0
   39.6946   24.6709    3.4010 O   0  0  0  0  0  0  0  0  0  0  0  0
   38.9114   25.5882    2.5060 C   0  0  2  0  0  0  0  0  0  0  0  0
   39.2304   24.5510   -2.2884 N   0  0  0  0  0  0  0  0  0  0  0  0
   38.6294   27.1834    4.3948 O   0  0  0  0  0  0  0  0  0  0  0  0
   37.9046   26.3859    3.3867 C   0  0  1  0  0  0  0  0  0  0  0  0
   39.0119   24.0741    0.6276 O   0  0  0  0  0  0  0  0  0  0  0  0
   37.0260   27.3771    2.4712 C   0  0  1  0  0  0  0  0  0  0  0  0
   41.3873   24.1290    0.7673 O   0  0  0  0  0  0  0  0  0  0  0  0
   36.2588   26.4893    1.3972 C   0  0  0  0  0  0  0  0  0  0  0  0
   42.0375   20.8105   -0.7934 O   0  0  0  0  0  0  0  0  0  0  0  0
   37.3299   25.6782    0.5561 C   0  0  1  0  0  0  0  0  0  0  0  0
   40.8331   22.1802   -2.9905 O   0  0  0  0  0  0  0  0  0  0  0  0
   38.1093   24.7400    1.4214 C   0  0  2  0  0  0  0  0  0  0  0  0
   40.1177   23.7644    6.2883 O   0  0  0  0  0  0  0  0  0  0  0  0
   40.1970   24.6079   -0.0170 C   0  0  1  0  0  0  0  0  0  0  0  0
   42.1383   25.5426    6.9341 O   0  0  0  0  0  0  0  0  0  0  0  0
   41.6289   22.6257    0.7491 C   0  0  2  0  0  0  0  0  0  0  0  0
   42.8443   22.2892    1.6053 C   0  0  0  0  0  0  0  0  0  0  0  0
   41.8304   22.1955   -0.7223 C   0  0  2  0  0  0  0  0  0  0  0  0
   40.6265   22.5785   -1.5667 C   0  0  1  0  0  0  0  0  0  0  0  0
   40.4208   24.1013   -1.4650 C   0  0  1  0  0  0  0  0  0  0  0  0
   41.0772   24.0528    5.3368 C   0  0  2  0  0  0  0  0  0  0  0  0
   42.4418   24.6041    5.8618 C   0  0  1  0  0  0  0  0  0  0  0  0
  1  3  1  0  0  0  0
  4  1  1  6  0  0  0
  4  6  1  0  0  0  0
  4 31  1  0  0  0  0
  6  7  1  0  0  0  0
  7  9  1  6  0  0  0
  7 30  1  0  0  0  0
  8 26  1  0  0  0  0
 10  9  1  1  0  0  0
 10 13  1  0  0  0  0
 10 21  1  0  0  0  0
 13 12  1  1  0  0  0
 13 15  1  0  0  0  0
 15  2  1  1  0  0  0
 15 17  1  0  0  0  0
 16 25  1  0  0  0  0
 16 23  1  0  0  0  0
 17 19  1  0  0  0  0
 19  5  1  6  0  0  0
 19 21  1  0  0  0  0
 21 14  1  6  0  0  0
 23 14  1  1  0  0  0
 23 29  1  0  0  0  0
 25 26  1  1  0  0  0
 25 27  1  0  0  0  0
 27 18  1  1  0  0  0
 27 28  1  0  0  0  0
 28 20  1  6  0  0  0
 28 29  1  0  0  0  0
 29 11  1  6  0  0  0
 30 22  1  1  0  0  0
 30 31  1  0  0  0  0
 31 24  1  1  0  0  0
M  END
>  <CHROM.1>
-174.27349658,-64.96489552,-65.47865627,104.61085942,-47.80488128,168.11395965
40.33739766,24.46363096,2.08741355,-1.42220402,0.53183952,-1.99104047

>  <Name>
ligand

>  <RI>
0

>  <Rbt.Current_Directory>
/home/itssahil/PROJECTS/Mol_Feturizer/New_Systems/rnas/2ET5

>  <Rbt.Executable>
rbdock ($Id: //depot/dev/client3/rdock/2013.1/src/exe/rbdock.cxx#4 $)

>  <Rbt.Library>
libRbt.so (2013.1, Build901 2013/11/27)

>  <Rbt.Parameter_File>
/export/apps/rDock/src/rDock_2013.1_src/data/scripts/dock_solv.prm

>  <Rbt.Receptor>
prm/pocket_docking_3.prm

>  <SCORE>
-3.06587

>  <SCORE.INTER>
-2.65739

>  <SCORE.INTER.CONST>
1

>  <SCORE.INTER.POLAR>
0

>  <SCORE.INTER.ROT>
6

>  <SCORE.INTER.SOLV>
15.3465

>  <SCORE.INTER.VDW>
-14.4871

>  <SCORE.INTER.norm>
-0.0857222

>  <SCORE.INTRA>
-0.409081

>  <SCORE.INTRA.DIHEDRAL>
-3.47406

>  <SCORE.INTRA.DIHEDRAL.0>
11.2357

>  <SCORE.INTRA.POLAR>
0

>  <SCORE.INTRA.POLAR.0>
0

>  <SCORE.INTRA.REPUL>
0

>  <SCORE.INTRA.REPUL.0>
0

>  <SCORE.INTRA.SOLV>
-0.127027

>  <SCORE.INTRA.SOLV.lig_0>
-83.3092

>  <SCORE.INTRA.VDW>
1.39146

>  <SCORE.INTRA.VDW.0>
-4.47057

>  <SCORE.INTRA.norm>
-0.0131962

>  <SCORE.RESTR>
0.000600283

>  <SCORE.RESTR.CAVITY>
0.000600283

>  <SCORE.RESTR.norm>
1.9364e-05

>  <SCORE.SYSTEM>
0

>  <SCORE.SYSTEM.CONST>
0

>  <SCORE.SYSTEM.DIHEDRAL>
0

>  <SCORE.SYSTEM.SOLV>
0

>  <SCORE.SYSTEM.norm>
0

>  <SCORE.heavy>
31

>  <SCORE.norm>
-0.098899

>  <RMSD>
4.872

$$$$
ligand
 OpenBabel11021811433D
libRbt.so/2013.1/901 2013/11/27
 31 33  0  0  0  0  0  0  0  0999 V2000
   42.1771   26.2578    7.3709 C   0  0  0  0  0  0  0  0  0  0  0  0
   37.3166   29.5673    0.8607 N   0  0  0  0  0  0  0  0  0  0  0  0
   42.7088   27.5818    7.5252 O   0  0  0  0  0  0  0  0  0  0  0  0
   40.6933   26.4766    7.0870 C   0  0  1  0  0  0  0  0  0  0  0  0
   42.1311   28.8501   -0.5657 N   0  0  0  0  0  0  0  0  0  0  0  0
   40.3949   27.2585    5.8207 O   0  0  0  0  0  0  0  0  0  0  0  0
   39.9014   26.4819    4.7982 C   0  0  1  0  0  0  0  0  0  0  0  0
   43.3649   22.6415    1.9795 N   0  0  0  0  0  0  0  0  0  0  0  0
   40.4896   26.6115    3.5339 O   0  0  0  0  0  0  0  0  0  0  0  0
   40.4058   27.8652    2.7111 C   0  0  2  0  0  0  0  0  0  0  0  0
   45.1224   28.1497    3.4236 N   0  0  0  0  0  0  0  0  0  0  0  0
   38.0359   28.1602    3.4095 O   0  0  0  0  0  0  0  0  0  0  0  0
   38.9313   28.0430    2.2424 C   0  0  1  0  0  0  0  0  0  0  0  0
   42.6558   27.6314    1.8660 O   0  0  0  0  0  0  0  0  0  0  0  0
   38.7884   29.3692    1.3405 C   0  0  1  0  0  0  0  0  0  0  0  0
   42.8474   25.3243    2.4187 O   0  0  0  0  0  0  0  0  0  0  0  0
   39.7637   29.2125    0.0937 C   0  0  0  0  0  0  0  0  0  0  0  0
   45.7010   24.5250    0.1628 O   0  0  0  0  0  0  0  0  0  0  0  0
   41.2399   29.0021    0.6317 C   0  0  1  0  0  0  0  0  0  0  0  0
   46.9516   26.3916    1.9253 O   0  0  0  0  0  0  0  0  0  0  0  0
   41.3555   27.7472    1.4369 C   0  0  2  0  0  0  0  0  0  0  0  0
   38.8463   24.3431    4.7550 O   0  0  0  0  0  0  0  0  0  0  0  0
   43.1890   26.7203    2.8612 C   0  0  1  0  0  0  0  0  0  0  0  0
   38.4174   25.4995    7.2331 O   0  0  0  0  0  0  0  0  0  0  0  0
   43.5114   24.8588    1.1299 C   0  0  2  0  0  0  0  0  0  0  0  0
   43.0504   23.4451    0.7948 C   0  0  0  0  0  0  0  0  0  0  0  0
   45.0426   24.9267    1.3338 C   0  0  2  0  0  0  0  0  0  0  0  0
   45.4756   26.3342    1.7091 C   0  0  1  0  0  0  0  0  0  0  0  0
   44.7335   26.7495    2.9929 C   0  0  1  0  0  0  0  0  0  0  0  0
   39.8722   25.0615    5.3387 C   0  0  2  0  0  0  0  0  0  0  0  0
   39.8094   25.2396    6.8897 C   0  0  1  0  0  0  0  0  0  0  0  0
  1  3  1  0  0  0  0
  4  1  1  6  0  0  0
  4  6  1  0  0  0  0
  4 31  1  0  0  0  0
  6  7  1  0  0  0  0
  7  9  1  6  0  0  0
  7 30  1  0  0  0  0
  8 26  1  0  0  0  0
 10  9  1  1  0  0  0
 10 13  1  0  0  0  0
 10 21  1  0  0  0  0
 13 12  1  1  0  0  0
 13 15  1  0  0  0  0
 15  2  1  6  0  0  0
 15 17  1  0  0  0  0
 16 25  1  0  0  0  0
 16 23  1  0  0  0  0
 17 19  1  0  0  0  0
 19  5  1  6  0  0  0
 19 21  1  0  0  0  0
 21 14  1  1  0  0  0
 23 14  1  6  0  0  0
 23 29  1  0  0  0  0
 25 26  1  1  0  0  0
 25 27  1  0  0  0  0
 27 18  1  6  0  0  0
 27 28  1  0  0  0  0
 28 20  1  1  0  0  0
 28 29  1  0  0  0  0
 29 11  1  6  0  0  0
 30 22  1  6  0  0  0
 30 31  1  0  0  0  0
 31 24  1  6  0  0  0
M  END
>  <CHROM.1>
61.69822337,-65.98721643,-68.81055334,56.85127833,50.01894277,-55.58612981
41.70926115,26.63723568,3.10512915,-2.66715720,0.43913541,-1.15241296

>  <Name>
ligand

>  <RI>
0

>  <Rbt.Current_Directory>
/home/itssahil/PROJECTS/Mol_Feturizer/New_Systems/rnas/2ET5

>  <Rbt.Executable>
rbdock ($Id: //depot/dev/client3/rdock/2013.1/src/exe/rbdock.cxx#4 $)

>  <Rbt.Library>
libRbt.so (2013.1, Build901 2013/11/27)

>  <Rbt.Parameter_File>
/export/apps/rDock/src/rDock_2013.1_src/data/scripts/dock_solv.prm

>  <Rbt.Receptor>
prm/pocket_docking_6.prm

>  <SCORE>
-5.45563

>  <SCORE.INTER>
-0.82332

>  <SCORE.INTER.CONST>
1

>  <SCORE.INTER.POLAR>
0

>  <SCORE.INTER.ROT>
6

>  <SCORE.INTER.SOLV>
8.30679

>  <SCORE.INTER.VDW>
-10.9178

>  <SCORE.INTER.norm>
-0.0265587

>  <SCORE.INTRA>
-4.63231

>  <SCORE.INTRA.DIHEDRAL>
-9.9371

>  <SCORE.INTRA.DIHEDRAL.0>
11.2357

>  <SCORE.INTRA.POLAR>
0

>  <SCORE.INTRA.POLAR.0>
0

>  <SCORE.INTRA.REPUL>
0

>  <SCORE.INTRA.REPUL.0>
0

>  <SCORE.INTRA.SOLV>
-3.07707

>  <SCORE.INTRA.SOLV.lig_0>
-83.3092

>  <SCORE.INTRA.VDW>
1.87477

>  <SCORE.INTRA.VDW.0>
-4.47057

>  <SCORE.INTRA.norm>
-0.149429

>  <SCORE.RESTR>
0

>  <SCORE.RESTR.CAVITY>
0

>  <SCORE.RESTR.norm>
0

>  <SCORE.SYSTEM>
0

>  <SCORE.SYSTEM.CONST>
0

>  <SCORE.SYSTEM.DIHEDRAL>
0

>  <SCORE.SYSTEM.SOLV>
0

>  <SCORE.SYSTEM.norm>
0

>  <SCORE.heavy>
31

>  <SCORE.norm>
-0.175988

>  <RMSD>
4.873

$$$$
ligand
 OpenBabel11021811433D
libRbt.so/2013.1/901 2013/11/27
 31 33  0  0  0  0  0  0  0  0999 V2000
   35.7978   25.4165    0.5184 C   0  0  0  0  0  0  0  0  0  0  0  0
   38.5289   25.7681    6.1091 N   0  0  0  0  0  0  0  0  0  0  0  0
   35.5337   26.0894    1.7582 O   0  0  0  0  0  0  0  0  0  0  0  0
   37.2467   25.7724    0.1959 C   0  0  1  0  0  0  0  0  0  0  0  0
   43.1236   24.3937    4.4574 N   0  0  0  0  0  0  0  0  0  0  0  0
   38.2574   25.3421    1.2435 O   0  0  0  0  0  0  0  0  0  0  0  0
   39.0244   24.2669    0.8589 C   0  0  1  0  0  0  0  0  0  0  0  0
   44.8338   19.5225    3.0051 N   0  0  0  0  0  0  0  0  0  0  0  0
   39.1512   23.1981    1.7550 O   0  0  0  0  0  0  0  0  0  0  0  0
   39.6731   23.3543    3.1547 C   0  0  2  0  0  0  0  0  0  0  0  0
   41.8680   24.1961   -0.0892 N   0  0  0  0  0  0  0  0  0  0  0  0
   37.4103   24.0563    3.9155 O   0  0  0  0  0  0  0  0  0  0  0  0
   38.8310   24.4526    3.8691 C   0  0  1  0  0  0  0  0  0  0  0  0
   41.9379   22.8025    2.5245 O   0  0  0  0  0  0  0  0  0  0  0  0
   39.3606   24.6712    5.3738 C   0  0  1  0  0  0  0  0  0  0  0  0
   43.9453   21.7213    1.8416 O   0  0  0  0  0  0  0  0  0  0  0  0
   40.8911   25.0964    5.2899 C   0  0  0  0  0  0  0  0  0  0  0  0
   42.4104   19.3408   -0.5768 O   0  0  0  0  0  0  0  0  0  0  0  0
   41.6891   23.9593    4.5263 C   0  0  1  0  0  0  0  0  0  0  0  0
   41.7793   21.8249   -1.8359 O   0  0  0  0  0  0  0  0  0  0  0  0
   41.2030   23.7986    3.1211 C   0  0  2  0  0  0  0  0  0  0  0  0
   39.5458   23.3310   -1.2722 O   0  0  0  0  0  0  0  0  0  0  0  0
   43.0893   22.9432    1.6532 C   0  0  1  0  0  0  0  0  0  0  0  0
   38.9427   26.0127   -1.5990 O   0  0  0  0  0  0  0  0  0  0  0  0
   43.3264   20.4053    1.3902 C   0  0  2  0  0  0  0  0  0  0  0  0
   44.2926   19.2597    1.6686 C   0  0  0  0  0  0  0  0  0  0  0  0
   43.0028   20.5257   -0.1170 C   0  0  2  0  0  0  0  0  0  0  0  0
   42.0732   21.6991   -0.3777 C   0  0  1  0  0  0  0  0  0  0  0  0
   42.7467   22.9829    0.1417 C   0  0  1  0  0  0  0  0  0  0  0  0
   38.5222   23.8773   -0.5219 C   0  0  2  0  0  0  0  0  0  0  0  0
   37.8656   25.1822   -1.0765 C   0  0  1  0  0  0  0  0  0  0  0  0
  1  3  1  0  0  0  0
  4  1  1  1  0  0  0
  4  6  1  0  0  0  0
  4 31  1  0  0  0  0
  6  7  1  0  0  0  0
  7  9  1  1  0  0  0
  7 30  1  0  0  0  0
  8 26  1  0  0  0  0
 10  9  1  6  0  0  0
 10 13  1  0  0  0  0
 10 21  1  0  0  0  0
 13 12  1  1  0  0  0
 13 15  1  0  0  0  0
 15  2  1  6  0  0  0
 15 17  1  0  0  0  0
 16 25  1  0  0  0  0
 16 23  1  0  0  0  0
 17 19  1  0  0  0  0
 19  5  1  6  0  0  0
 19 21  1  0  0  0  0
 21 14  1  1  0  0  0
 23 14  1  1  0  0  0
 23 29  1  0  0  0  0
 25 26  1  6  0  0  0
 25 27  1  0  0  0  0
 27 18  1  1  0  0  0
 27 28  1  0  0  0  0
 28 20  1  6  0  0  0
 28 29  1  0  0  0  0
 29 11  1  1  0  0  0
 30 22  1  6  0  0  0
 30 31  1  0  0  0  0
 31 24  1  1  0  0  0
M  END
>  <CHROM.1>
59.59988394,-56.78349563,54.13996387,150.61680845,144.03437148,42.85470516
40.48381020,23.39370724,1.60479884,2.90767899,-0.62026255,1.33693659

>  <Name>
ligand

>  <RI>
0

>  <Rbt.Current_Directory>
/home/itssahil/PROJECTS/Mol_Feturizer/New_Systems/rnas/2ET5

>  <Rbt.Executable>
rbdock ($Id: //depot/dev/client3/rdock/2013.1/src/exe/rbdock.cxx#4 $)

>  <Rbt.Library>
libRbt.so (2013.1, Build901 2013/11/27)

>  <Rbt.Parameter_File>
/export/apps/rDock/src/rDock_2013.1_src/data/scripts/dock_solv.prm

>  <Rbt.Receptor>
prm/pocket_docking_3.prm

>  <SCORE>
-2.72298

>  <SCORE.INTER>
-3.43193

>  <SCORE.INTER.CONST>
1

>  <SCORE.INTER.POLAR>
0

>  <SCORE.INTER.ROT>
6

>  <SCORE.INTER.SOLV>
19.4696

>  <SCORE.INTER.VDW>
-16.3778

>  <SCORE.INTER.norm>
-0.110707

>  <SCORE.INTRA>
0.70895

>  <SCORE.INTRA.DIHEDRAL>
-1.74365

>  <SCORE.INTRA.DIHEDRAL.0>
11.2357

>  <SCORE.INTRA.POLAR>
0

>  <SCORE.INTRA.POLAR.0>
0

>  <SCORE.INTRA.REPUL>
0

>  <SCORE.INTRA.REPUL.0>
0

>  <SCORE.INTRA.SOLV>
2.12218

>  <SCORE.INTRA.SOLV.lig_0>
-83.3092

>  <SCORE.INTRA.VDW>
0.519683

>  <SCORE.INTRA.VDW.0>
-4.47057

>  <SCORE.INTRA.norm>
0.0228694

>  <SCORE.RESTR>
0

>  <SCORE.RESTR.CAVITY>
0

>  <SCORE.RESTR.norm>
0

>  <SCORE.SYSTEM>
0

>  <SCORE.SYSTEM.CONST>
0

>  <SCORE.SYSTEM.DIHEDRAL>
0

>  <SCORE.SYSTEM.SOLV>
0

>  <SCORE.SYSTEM.norm>
0

>  <SCORE.heavy>
31

>  <SCORE.norm>
-0.087838

>  <RMSD>
4.984

$$$$
ligand
 OpenBabel11021811433D
libRbt.so/2013.1/901 2013/11/27
 31 33  0  0  0  0  0  0  0  0999 V2000
   37.0309   26.1223   -1.2675 C   0  0  0  0  0  0  0  0  0  0  0  0
   37.4497   26.1744    4.5903 N   0  0  0  0  0  0  0  0  0  0  0  0
   36.4542   24.8386   -0.9863 O   0  0  0  0  0  0  0  0  0  0  0  0
   38.5350   25.8635   -1.2954 C   0  0  1  0  0  0  0  0  0  0  0  0
   42.1486   24.2679    4.4719 N   0  0  0  0  0  0  0  0  0  0  0  0
   39.1037   25.2707   -0.0190 O   0  0  0  0  0  0  0  0  0  0  0  0
   39.4398   23.9416   -0.1319 C   0  0  1  0  0  0  0  0  0  0  0  0
   44.7689   18.8617    1.9625 N   0  0  0  0  0  0  0  0  0  0  0  0
   38.9842   23.0637    0.8596 O   0  0  0  0  0  0  0  0  0  0  0  0
   39.1083   23.3456    2.3296 C   0  0  2  0  0  0  0  0  0  0  0  0
   42.2616   23.8709   -0.0698 N   0  0  0  0  0  0  0  0  0  0  0  0
   36.8116   24.3032    2.3354 O   0  0  0  0  0  0  0  0  0  0  0  0
   38.2227   24.5820    2.6651 C   0  0  1  0  0  0  0  0  0  0  0  0
   41.3865   22.5522    2.4349 O   0  0  0  0  0  0  0  0  0  0  0  0
   38.3314   24.9377    4.2318 C   0  0  1  0  0  0  0  0  0  0  0  0
   43.3227   21.1718    2.3297 O   0  0  0  0  0  0  0  0  0  0  0  0
   39.8608   25.2323    4.5548 C   0  0  0  0  0  0  0  0  0  0  0  0
   42.1972   18.9771   -0.4609 O   0  0  0  0  0  0  0  0  0  0  0  0
   40.7139   23.9550    4.1632 C   0  0  1  0  0  0  0  0  0  0  0  0
   42.3197   21.4922   -1.8077 O   0  0  0  0  0  0  0  0  0  0  0  0
   40.6251   23.6652    2.6987 C   0  0  2  0  0  0  0  0  0  0  0  0
   39.9022   22.5432   -2.0081 O   0  0  0  0  0  0  0  0  0  0  0  0
   42.7443   22.5001    1.9265 C   0  0  1  0  0  0  0  0  0  0  0  0
   40.4646   25.1662   -2.6904 O   0  0  0  0  0  0  0  0  0  0  0  0
   42.6689   19.9486    1.7011 C   0  0  2  0  0  0  0  0  0  0  0  0
   43.3377   18.6822    2.2230 C   0  0  0  0  0  0  0  0  0  0  0  0
   42.8042   20.0747    0.1661 C   0  0  2  0  0  0  0  0  0  0  0  0
   42.1692   21.3638   -0.3280 C   0  0  1  0  0  0  0  0  0  0  0  0
   42.8508   22.5490    0.3806 C   0  0  1  0  0  0  0  0  0  0  0  0
   39.0650   23.5423   -1.5499 C   0  0  2  0  0  0  0  0  0  0  0  0
   39.0768   24.8869   -2.3457 C   0  0  1  0  0  0  0  0  0  0  0  0
  1  3  1  0  0  0  0
  4  1  1  1  0  0  0
  4  6  1  0  0  0  0
  4 31  1  0  0  0  0
  6  7  1  0  0  0  0
  7  9  1  1  0  0  0
  7 30  1  0  0  0  0
  8 26  1  0  0  0  0
 10  9  1  6  0  0  0
 10 13  1  0  0  0  0
 10 21  1  0  0  0  0
 13 12  1  1  0  0  0
 13 15  1  0  0  0  0
 15  2  1  6  0  0  0
 15 17  1  0  0  0  0
 16 25  1  0  0  0  0
 16 23  1  0  0  0  0
 17 19  1  0  0  0  0
 19  5  1  6  0  0  0
 19 21  1  0  0  0  0
 21 14  1  1  0  0  0
 23 14  1  6  0  0  0
 23 29  1  0  0  0  0
 25 26  1  1  0  0  0
 25 27  1  0  0  0  0
 27 18  1  6  0  0  0
 27 28  1  0  0  0  0
 28 20  1  6  0  0  0
 28 29  1  0  0  0  0
 29 11  1  6  0  0  0
 30 22  1  6  0  0  0
 30 31  1  0  0  0  0
 31 24  1  1  0  0  0
M  END
>  <CHROM.1>
-57.86414254,-47.60546917,65.30875260,157.20967799,144.14271105,-53.94845228
40.44042201,23.14112742,0.95546701,3.11499806,-0.76712783,1.45745743

>  <Name>
ligand

>  <RI>
0

>  <Rbt.Current_Directory>
/home/itssahil/PROJECTS/Mol_Feturizer/New_Systems/rnas/2ET5

>  <Rbt.Executable>
rbdock ($Id: //depot/dev/client3/rdock/2013.1/src/exe/rbdock.cxx#4 $)

>  <Rbt.Library>
libRbt.so (2013.1, Build901 2013/11/27)

>  <Rbt.Parameter_File>
/export/apps/rDock/src/rDock_2013.1_src/data/scripts/dock_solv.prm

>  <Rbt.Receptor>
prm/pocket_docking_2.prm

>  <SCORE>
-1.71178

>  <SCORE.INTER>
-3.28541

>  <SCORE.INTER.CONST>
1

>  <SCORE.INTER.POLAR>
0

>  <SCORE.INTER.ROT>
6

>  <SCORE.INTER.SOLV>
16.5483

>  <SCORE.INTER.VDW>
-15.3064

>  <SCORE.INTER.norm>
-0.105981

>  <SCORE.INTRA>
0.605815

>  <SCORE.INTRA.DIHEDRAL>
-3.17173

>  <SCORE.INTRA.DIHEDRAL.0>
11.2357

>  <SCORE.INTRA.POLAR>
0

>  <SCORE.INTRA.POLAR.0>
0

>  <SCORE.INTRA.REPUL>
0

>  <SCORE.INTRA.REPUL.0>
0

>  <SCORE.INTRA.SOLV>
4.56238

>  <SCORE.INTRA.SOLV.lig_0>
-83.3092

>  <SCORE.INTRA.VDW>
-0.0895094

>  <SCORE.INTRA.VDW.0>
-4.47057

>  <SCORE.INTRA.norm>
0.0195424

>  <SCORE.RESTR>
0.96781

>  <SCORE.RESTR.CAVITY>
0.96781

>  <SCORE.RESTR.norm>
0.0312197

>  <SCORE.SYSTEM>
0

>  <SCORE.SYSTEM.CONST>
0

>  <SCORE.SYSTEM.DIHEDRAL>
0

>  <SCORE.SYSTEM.SOLV>
0

>  <SCORE.SYSTEM.norm>
0

>  <SCORE.heavy>
31

>  <SCORE.norm>
-0.0552188

>  <RMSD>
4.996

$$$$
ligand
 OpenBabel11021811433D
libRbt.so/2013.1/901 2013/11/27
 31 33  0  0  0  0  0  0  0  0999 V2000
   42.3892   28.0042    5.4809 C   0  0  0  0  0  0  0  0  0  0  0  0
   34.5407   25.0517    3.4048 N   0  0  0  0  0  0  0  0  0  0  0  0
   43.3311   28.3149    6.5181 O   0  0  0  0  0  0  0  0  0  0  0  0
   41.2046   27.3854    6.2184 C   0  0  1  0  0  0  0  0  0  0  0  0
   37.5092   25.1383   -0.7073 N   0  0  0  0  0  0  0  0  0  0  0  0
   39.9982   27.0842    5.3478 O   0  0  0  0  0  0  0  0  0  0  0  0
   39.8223   25.7433    5.0964 C   0  0  1  0  0  0  0  0  0  0  0  0
   40.8460   21.5590    0.9452 N   0  0  0  0  0  0  0  0  0  0  0  0
   39.6132   25.3470    3.7696 O   0  0  0  0  0  0  0  0  0  0  0  0
   38.4296   25.7858    2.9557 C   0  0  2  0  0  0  0  0  0  0  0  0
   41.7240   27.8870    0.4164 N   0  0  0  0  0  0  0  0  0  0  0  0
   37.0020   25.6973    4.9918 O   0  0  0  0  0  0  0  0  0  0  0  0
   37.1437   25.1993    3.6100 C   0  0  1  0  0  0  0  0  0  0  0  0
   39.6759   25.7986    0.8875 O   0  0  0  0  0  0  0  0  0  0  0  0
   35.8421   25.6286    2.7651 C   0  0  1  0  0  0  0  0  0  0  0  0
   41.4274   24.2352    1.2792 O   0  0  0  0  0  0  0  0  0  0  0  0
   36.0250   25.0785    1.2838 C   0  0  0  0  0  0  0  0  0  0  0  0
   42.5267   23.8487   -2.2581 O   0  0  0  0  0  0  0  0  0  0  0  0
   37.3625   25.6816    0.6837 C   0  0  1  0  0  0  0  0  0  0  0  0
   43.1291   26.6078   -1.8355 O   0  0  0  0  0  0  0  0  0  0  0  0
   38.5599   25.2412    1.4639 C   0  0  2  0  0  0  0  0  0  0  0  0
   40.5991   23.7751    6.1974 O   0  0  0  0  0  0  0  0  0  0  0  0
   41.0546   25.6913    1.3263 C   0  0  1  0  0  0  0  0  0  0  0  0
   40.5036   25.8450    8.0327 O   0  0  0  0  0  0  0  0  0  0  0  0
   41.4535   23.6046   -0.1065 C   0  0  2  0  0  0  0  0  0  0  0  0
   41.8168   22.1285    0.0064 C   0  0  0  0  0  0  0  0  0  0  0  0
   42.4807   24.3815   -0.9620 C   0  0  2  0  0  0  0  0  0  0  0  0
   42.1241   25.8573   -1.0260 C   0  0  1  0  0  0  0  0  0  0  0  0
   42.0757   26.4127    0.4095 C   0  0  1  0  0  0  0  0  0  0  0  0
   40.9773   25.0404    5.7910 C   0  0  2  0  0  0  0  0  0  0  0  0
   41.4164   26.0352    6.9131 C   0  0  1  0  0  0  0  0  0  0  0  0
  1  3  1  0  0  0  0
  4  1  1  6  0  0  0
  4  6  1  0  0  0  0
  4 31  1  0  0  0  0
  6  7  1  0  0  0  0
  7  9  1  6  0  0  0
  7 30  1  0  0  0  0
  8 26  1  0  0  0  0
 10  9  1  1  0  0  0
 10 13  1  0  0  0  0
 10 21  1  0  0  0  0
 13 12  1  1  0  0  0
 13 15  1  0  0  0  0
 15  2  1  1  0  0  0
 15 17  1  0  0  0  0
 16 25  1  0  0  0  0
 16 23  1  0  0  0  0
 17 19  1  0  0  0  0
 19  5  1  6  0  0  0
 19 21  1  0  0  0  0
 21 14  1  6  0  0  0
 23 14  1  6  0  0  0
 23 29  1  0  0  0  0
 25 26  1  1  0  0  0
 25 27  1  0  0  0  0
 27 18  1  6  0  0  0
 27 28  1  0  0  0  0
 28 20  1  6  0  0  0
 28 29  1  0  0  0  0
 29 11  1  6  0  0  0
 30 22  1  1  0  0  0
 30 31  1  0  0  0  0
 31 24  1  1  0  0  0
M  END
>  <CHROM.1>
174.41618469,-62.45470187,-64.67476834,61.31675800,59.66944483,54.79453196
40.11829649,25.46055923,2.58005519,-1.75134030,-0.15695936,-1.82433139

>  <Name>
ligand

>  <RI>
0

>  <Rbt.Current_Directory>
/home/itssahil/PROJECTS/Mol_Feturizer/New_Systems/rnas/2ET5

>  <Rbt.Executable>
rbdock ($Id: //depot/dev/client3/rdock/2013.1/src/exe/rbdock.cxx#4 $)

>  <Rbt.Library>
libRbt.so (2013.1, Build901 2013/11/27)

>  <Rbt.Parameter_File>
/export/apps/rDock/src/rDock_2013.1_src/data/scripts/dock_solv.prm

>  <Rbt.Receptor>
prm/pocket_docking_8.prm

>  <SCORE>
-4.04781

>  <SCORE.INTER>
1.66644

>  <SCORE.INTER.CONST>
1

>  <SCORE.INTER.POLAR>
0

>  <SCORE.INTER.ROT>
6

>  <SCORE.INTER.SOLV>
10.9627

>  <SCORE.INTER.VDW>
-10.1433

>  <SCORE.INTER.norm>
0.0537562

>  <SCORE.INTRA>
-5.71426

>  <SCORE.INTRA.DIHEDRAL>
-10.7405

>  <SCORE.INTRA.DIHEDRAL.0>
11.2357

>  <SCORE.INTRA.POLAR>
0

>  <SCORE.INTRA.POLAR.0>
0

>  <SCORE.INTRA.REPUL>
0

>  <SCORE.INTRA.REPUL.0>
0

>  <SCORE.INTRA.SOLV>
-4.41901

>  <SCORE.INTRA.SOLV.lig_0>
-83.3092

>  <SCORE.INTRA.VDW>
1.8655

>  <SCORE.INTRA.VDW.0>
-4.47057

>  <SCORE.INTRA.norm>
-0.184331

>  <SCORE.RESTR>
0

>  <SCORE.RESTR.CAVITY>
0

>  <SCORE.RESTR.norm>
0

>  <SCORE.SYSTEM>
0

>  <SCORE.SYSTEM.CONST>
0

>  <SCORE.SYSTEM.DIHEDRAL>
0

>  <SCORE.SYSTEM.SOLV>
0

>  <SCORE.SYSTEM.norm>
0

>  <SCORE.heavy>
31

>  <SCORE.norm>
-0.130575

>  <RMSD>
5.015

$$$$
ligand
 OpenBabel11021811433D
libRbt.so/2013.1/901 2013/11/27
 31 33  0  0  0  0  0  0  0  0999 V2000
   36.2676   28.2139    8.4494 C   0  0  0  0  0  0  0  0  0  0  0  0
   35.2454   26.1092    1.9875 N   0  0  0  0  0  0  0  0  0  0  0  0
   35.1505   28.3860    7.5651 O   0  0  0  0  0  0  0  0  0  0  0  0
   36.6942   26.7630    8.2422 C   0  0  1  0  0  0  0  0  0  0  0  0
   39.3548   23.1464    2.2376 N   0  0  0  0  0  0  0  0  0  0  0  0
   37.0107   26.3905    6.8052 O   0  0  0  0  0  0  0  0  0  0  0  0
   38.3552   26.2330    6.5611 C   0  0  1  0  0  0  0  0  0  0  0  0
   41.2751   21.1865    1.7318 N   0  0  0  0  0  0  0  0  0  0  0  0
   38.9007   26.8869    5.4493 O   0  0  0  0  0  0  0  0  0  0  0  0
   38.6452   26.4564    4.0332 C   0  0  2  0  0  0  0  0  0  0  0  0
   42.4691   25.9929    5.9686 N   0  0  0  0  0  0  0  0  0  0  0  0
   36.6178   27.8974    3.9654 O   0  0  0  0  0  0  0  0  0  0  0  0
   37.1108   26.5198    3.7739 C   0  0  1  0  0  0  0  0  0  0  0  0
   40.5176   24.9318    4.0079 O   0  0  0  0  0  0  0  0  0  0  0  0
   36.7793   26.0520    2.2693 C   0  0  1  0  0  0  0  0  0  0  0  0
   41.5152   22.7842    4.2476 O   0  0  0  0  0  0  0  0  0  0  0  0
   37.3220   24.5670    2.0949 C   0  0  0  0  0  0  0  0  0  0  0  0
   44.6379   23.4894    2.3444 O   0  0  0  0  0  0  0  0  0  0  0  0
   38.8769   24.5591    2.4028 C   0  0  1  0  0  0  0  0  0  0  0  0
   44.9433   25.3141    4.5196 O   0  0  0  0  0  0  0  0  0  0  0  0
   39.1575   24.9634    3.8150 C   0  0  2  0  0  0  0  0  0  0  0  0
   40.2203   25.8128    7.9874 O   0  0  0  0  0  0  0  0  0  0  0  0
   41.2689   24.1013    4.9302 C   0  0  1  0  0  0  0  0  0  0  0  0
   37.9316   24.8383    9.2014 O   0  0  0  0  0  0  0  0  0  0  0  0
   42.4107   22.8351    3.0172 C   0  0  2  0  0  0  0  0  0  0  0  0
   42.5444   21.4393    2.4196 C   0  0  0  0  0  0  0  0  0  0  0  0
   43.7813   23.4041    3.4513 C   0  0  2  0  0  0  0  0  0  0  0  0
   43.6207   24.7767    4.0831 C   0  0  1  0  0  0  0  0  0  0  0  0
   42.6724   24.6530    5.2900 C   0  0  1  0  0  0  0  0  0  0  0  0
   39.0501   26.5394    7.8778 C   0  0  2  0  0  0  0  0  0  0  0  0
   37.9568   26.2754    8.9623 C   0  0  1  0  0  0  0  0  0  0  0  0
  1  3  1  0  0  0  0
  4  1  1  6  0  0  0
  4  6  1  0  0  0  0
  4 31  1  0  0  0  0
  6  7  1  0  0  0  0
  7  9  1  6  0  0  0
  7 30  1  0  0  0  0
  8 26  1  0  0  0  0
 10  9  1  1  0  0  0
 10 13  1  0  0  0  0
 10 21  1  0  0  0  0
 13 12  1  6  0  0  0
 13 15  1  0  0  0  0
 15  2  1  1  0  0  0
 15 17  1  0  0  0  0
 16 25  1  0  0  0  0
 16 23  1  0  0  0  0
 17 19  1  0  0  0  0
 19  5  1  1  0  0  0
 19 21  1  0  0  0  0
 21 14  1  6  0  0  0
 23 14  1  6  0  0  0
 23 29  1  0  0  0  0
 25 26  1  1  0  0  0
 25 27  1  0  0  0  0
 27 18  1  6  0  0  0
 27 28  1  0  0  0  0
 28 20  1  1  0  0  0
 28 29  1  0  0  0  0
 29 11  1  6  0  0  0
 30 22  1  1  0  0  0
 30 31  1  0  0  0  0
 31 24  1  6  0  0  0
M  END
>  <CHROM.1>
55.67239849,-72.44080624,59.41314468,85.07964100,124.09552330,75.59560281
39.62436147,25.22848976,4.86155501,-2.50592161,0.33919608,-1.93692563

>  <Name>
ligand

>  <RI>
0

>  <Rbt.Current_Directory>
/home/itssahil/PROJECTS/Mol_Feturizer/New_Systems/rnas/2ET5

>  <Rbt.Executable>
rbdock ($Id: //depot/dev/client3/rdock/2013.1/src/exe/rbdock.cxx#4 $)

>  <Rbt.Library>
libRbt.so (2013.1, Build901 2013/11/27)

>  <Rbt.Parameter_File>
/export/apps/rDock/src/rDock_2013.1_src/data/scripts/dock_solv.prm

>  <Rbt.Receptor>
prm/pocket_docking_8.prm

>  <SCORE>
-5.55707

>  <SCORE.INTER>
-7.13144

>  <SCORE.INTER.CONST>
1

>  <SCORE.INTER.POLAR>
0

>  <SCORE.INTER.ROT>
6

>  <SCORE.INTER.SOLV>
15.3177

>  <SCORE.INTER.VDW>
-17.4602

>  <SCORE.INTER.norm>
-0.230046

>  <SCORE.INTRA>
1.5723

>  <SCORE.INTRA.DIHEDRAL>
0.275783

>  <SCORE.INTRA.DIHEDRAL.0>
11.2357

>  <SCORE.INTRA.POLAR>
0

>  <SCORE.INTRA.POLAR.0>
0

>  <SCORE.INTRA.REPUL>
0

>  <SCORE.INTRA.REPUL.0>
0

>  <SCORE.INTRA.SOLV>
2.50083

>  <SCORE.INTRA.SOLV.lig_0>
-83.3092

>  <SCORE.INTRA.VDW>
0.183999

>  <SCORE.INTRA.VDW.0>
-4.47057

>  <SCORE.INTRA.norm>
0.0507195

>  <SCORE.RESTR>
0.00206112

>  <SCORE.RESTR.CAVITY>
0.00206112

>  <SCORE.RESTR.norm>
6.64879e-05

>  <SCORE.SYSTEM>
0

>  <SCORE.SYSTEM.CONST>
0

>  <SCORE.SYSTEM.DIHEDRAL>
0

>  <SCORE.SYSTEM.SOLV>
0

>  <SCORE.SYSTEM.norm>
0

>  <SCORE.heavy>
31

>  <SCORE.norm>
-0.17926

>  <RMSD>
5.047

$$$$
ligand
 OpenBabel11021811433D
libRbt.so/2013.1/901 2013/11/27
 31 33  0  0  0  0  0  0  0  0999 V2000
   42.2429   25.1375    6.7571 C   0  0  0  0  0  0  0  0  0  0  0  0
   37.7667   29.8656    0.9097 N   0  0  0  0  0  0  0  0  0  0  0  0
   42.6171   25.8414    7.9505 O   0  0  0  0  0  0  0  0  0  0  0  0
   40.8168   25.6028    6.4747 C   0  0  1  0  0  0  0  0  0  0  0  0
   41.9662   27.3355   -0.3907 N   0  0  0  0  0  0  0  0  0  0  0  0
   40.6663   27.0964    6.2495 O   0  0  0  0  0  0  0  0  0  0  0  0
   40.4388   27.4343    4.9357 C   0  0  1  0  0  0  0  0  0  0  0  0
   42.0947   23.4213    1.7114 N   0  0  0  0  0  0  0  0  0  0  0  0
   41.2220   28.4511    4.3752 O   0  0  0  0  0  0  0  0  0  0  0  0
   41.0502   28.9411    2.9659 C   0  0  2  0  0  0  0  0  0  0  0  0
   45.5182   28.6698    3.3567 N   0  0  0  0  0  0  0  0  0  0  0  0
   38.9765   30.1398    3.6400 O   0  0  0  0  0  0  0  0  0  0  0  0
   39.5286   29.1431    2.7022 C   0  0  1  0  0  0  0  0  0  0  0  0
   42.9768   27.7299    2.1582 O   0  0  0  0  0  0  0  0  0  0  0  0
   39.2866   29.6553    1.1950 C   0  0  1  0  0  0  0  0  0  0  0  0
   43.3496   25.6000    3.1530 O   0  0  0  0  0  0  0  0  0  0  0  0
   39.8914   28.5620    0.2106 C   0  0  0  0  0  0  0  0  0  0  0  0
   46.0674   24.4722    0.8699 O   0  0  0  0  0  0  0  0  0  0  0  0
   41.4292   28.3760    0.5474 C   0  0  1  0  0  0  0  0  0  0  0  0
   47.3321   26.7190    2.0974 O   0  0  0  0  0  0  0  0  0  0  0  0
   41.6271   27.8671    1.9397 C   0  0  2  0  0  0  0  0  0  0  0  0
   39.6278   26.1980    3.0640 O   0  0  0  0  0  0  0  0  0  0  0  0
   43.6383   27.0713    3.2688 C   0  0  1  0  0  0  0  0  0  0  0  0
   38.6601   25.0405    5.3846 O   0  0  0  0  0  0  0  0  0  0  0  0
   43.9411   24.9048    1.9342 C   0  0  2  0  0  0  0  0  0  0  0  0
   43.5429   23.4334    1.9370 C   0  0  0  0  0  0  0  0  0  0  0  0
   45.4764   25.0807    1.9864 C   0  0  2  0  0  0  0  0  0  0  0  0
   45.8502   26.5531    2.0264 C   0  0  1  0  0  0  0  0  0  0  0  0
   45.1836   27.1948    3.2574 C   0  0  1  0  0  0  0  0  0  0  0  0
   40.4589   26.1241    4.1653 C   0  0  2  0  0  0  0  0  0  0  0  0
   40.1096   25.0410    5.2359 C   0  0  1  0  0  0  0  0  0  0  0  0
  1  3  1  0  0  0  0
  4  1  1  6  0  0  0
  4  6  1  0  0  0  0
  4 31  1  0  0  0  0
  6  7  1  0  0  0  0
  7  9  1  6  0  0  0
  7 30  1  0  0  0  0
  8 26  1  0  0  0  0
 10  9  1  1  0  0  0
 10 13  1  0  0  0  0
 10 21  1  0  0  0  0
 13 12  1  1  0  0  0
 13 15  1  0  0  0  0
 15  2  1  6  0  0  0
 15 17  1  0  0  0  0
 16 25  1  0  0  0  0
 16 23  1  0  0  0  0
 17 19  1  0  0  0  0
 19  5  1  6  0  0  0
 19 21  1  0  0  0  0
 21 14  1  1  0  0  0
 23 14  1  6  0  0  0
 23 29  1  0  0  0  0
 25 26  1  1  0  0  0
 25 27  1  0  0  0  0
 27 18  1  6  0  0  0
 27 28  1  0  0  0  0
 28 20  1  1  0  0  0
 28 29  1  0  0  0  0
 29 11  1  6  0  0  0
 30 22  1  6  0  0  0
 30 31  1  0  0  0  0
 31 24  1  1  0  0  0
M  END
>  <CHROM.1>
60.15655829,-178.26555320,45.55837942,67.66283302,72.95071660,67.54183894
42.04794888,26.84864619,3.13665883,0.03036515,-0.44310823,2.08589801

>  <Name>
ligand

>  <RI>
0

>  <Rbt.Current_Directory>
/home/itssahil/PROJECTS/Mol_Feturizer/New_Systems/rnas/2ET5

>  <Rbt.Executable>
rbdock ($Id: //depot/dev/client3/rdock/2013.1/src/exe/rbdock.cxx#4 $)

>  <Rbt.Library>
libRbt.so (2013.1, Build901 2013/11/27)

>  <Rbt.Parameter_File>
/export/apps/rDock/src/rDock_2013.1_src/data/scripts/dock_solv.prm

>  <Rbt.Receptor>
prm/pocket_docking_8.prm

>  <SCORE>
-5.32311

>  <SCORE.INTER>
-0.267865

>  <SCORE.INTER.CONST>
1

>  <SCORE.INTER.POLAR>
0

>  <SCORE.INTER.ROT>
6

>  <SCORE.INTER.SOLV>
6.70003

>  <SCORE.INTER.VDW>
-10.0119

>  <SCORE.INTER.norm>
-0.00864081

>  <SCORE.INTRA>
-5.05524

>  <SCORE.INTRA.DIHEDRAL>
-8.81672

>  <SCORE.INTRA.DIHEDRAL.0>
11.2357

>  <SCORE.INTRA.POLAR>
0

>  <SCORE.INTRA.POLAR.0>
0

>  <SCORE.INTRA.REPUL>
0

>  <SCORE.INTRA.REPUL.0>
0

>  <SCORE.INTRA.SOLV>
-1.97799

>  <SCORE.INTRA.SOLV.lig_0>
-83.3092

>  <SCORE.INTRA.VDW>
0.342115

>  <SCORE.INTRA.VDW.0>
-4.47057

>  <SCORE.INTRA.norm>
-0.163072

>  <SCORE.RESTR>
0

>  <SCORE.RESTR.CAVITY>
0

>  <SCORE.RESTR.norm>
0

>  <SCORE.SYSTEM>
0

>  <SCORE.SYSTEM.CONST>
0

>  <SCORE.SYSTEM.DIHEDRAL>
0

>  <SCORE.SYSTEM.SOLV>
0

>  <SCORE.SYSTEM.norm>
0

>  <SCORE.heavy>
31

>  <SCORE.norm>
-0.171713

>  <RMSD>
5.070

$$$$
ligand
 OpenBabel11021811433D
libRbt.so/2013.1/901 2013/11/27
 31 33  0  0  0  0  0  0  0  0999 V2000
   36.0251   25.4156    0.2667 C   0  0  0  0  0  0  0  0  0  0  0  0
   38.1943   26.7136    6.3548 N   0  0  0  0  0  0  0  0  0  0  0  0
   35.5323   26.2282    1.3420 O   0  0  0  0  0  0  0  0  0  0  0  0
   37.5231   25.7067    0.2282 C   0  0  1  0  0  0  0  0  0  0  0  0
   42.7074   24.5478    5.5363 N   0  0  0  0  0  0  0  0  0  0  0  0
   38.2576   25.4427    1.5300 O   0  0  0  0  0  0  0  0  0  0  0  0
   39.0451   24.3153    1.4983 C   0  0  1  0  0  0  0  0  0  0  0  0
   44.0987   19.0509    1.4866 N   0  0  0  0  0  0  0  0  0  0  0  0
   38.9255   23.4022    2.5535 O   0  0  0  0  0  0  0  0  0  0  0  0
   39.3087   23.7250    3.9694 C   0  0  2  0  0  0  0  0  0  0  0  0
   43.0784   24.8727    2.2675 N   0  0  0  0  0  0  0  0  0  0  0  0
   37.0953   24.8075    4.3171 O   0  0  0  0  0  0  0  0  0  0  0  0
   38.5537   25.0187    4.3958 C   0  0  1  0  0  0  0  0  0  0  0  0
   41.5306   22.8109    3.7274 O   0  0  0  0  0  0  0  0  0  0  0  0
   38.9417   25.4190    5.9064 C   0  0  1  0  0  0  0  0  0  0  0  0
   43.1300   21.1887    3.0378 O   0  0  0  0  0  0  0  0  0  0  0  0
   40.5162   25.6393    5.9582 C   0  0  0  0  0  0  0  0  0  0  0  0
   42.0782   20.9622   -0.5278 O   0  0  0  0  0  0  0  0  0  0  0  0
   41.2277   24.3047    5.4836 C   0  0  1  0  0  0  0  0  0  0  0  0
   42.9464   23.6806   -0.4239 O   0  0  0  0  0  0  0  0  0  0  0  0
   40.8798   23.9723    4.0676 C   0  0  2  0  0  0  0  0  0  0  0  0
   39.9862   23.0486   -0.2903 O   0  0  0  0  0  0  0  0  0  0  0  0
   42.9157   22.6487    3.3278 C   0  0  1  0  0  0  0  0  0  0  0  0
   39.5831   25.6476   -1.1534 O   0  0  0  0  0  0  0  0  0  0  0  0
   42.3578   20.6310    1.8499 C   0  0  2  0  0  0  0  0  0  0  0  0
   42.6512   19.1430    1.6978 C   0  0  0  0  0  0  0  0  0  0  0  0
   42.7798   21.4274    0.5936 C   0  0  2  0  0  0  0  0  0  0  0  0
   42.5188   22.9125    0.7826 C   0  0  1  0  0  0  0  0  0  0  0  0
   43.2962   23.3930    2.0221 C   0  0  1  0  0  0  0  0  0  0  0  0
   38.8456   23.7138    0.1167 C   0  0  2  0  0  0  0  0  0  0  0  0
   38.3832   24.9175   -0.7657 C   0  0  1  0  0  0  0  0  0  0  0  0
  1  3  1  0  0  0  0
  4  1  1  1  0  0  0
  4  6  1  0  0  0  0
  4 31  1  0  0  0  0
  6  7  1  0  0  0  0
  7  9  1  1  0  0  0
  7 30  1  0  0  0  0
  8 26  1  0  0  0  0
 10  9  1  6  0  0  0
 10 13  1  0  0  0  0
 10 21  1  0  0  0  0
 13 12  1  1  0  0  0
 13 15  1  0  0  0  0
 15  2  1  6  0  0  0
 15 17  1  0  0  0  0
 16 25  1  0  0  0  0
 16 23  1  0  0  0  0
 17 19  1  0  0  0  0
 19  5  1  6  0  0  0
 19 21  1  0  0  0  0
 21 14  1  1  0  0  0
 23 14  1  6  0  0  0
 23 29  1  0  0  0  0
 25 26  1  6  0  0  0
 25 27  1  0  0  0  0
 27 18  1  6  0  0  0
 27 28  1  0  0  0  0
 28 20  1  6  0  0  0
 28 29  1  0  0  0  0
 29 11  1  1  0  0  0
 30 22  1  6  0  0  0
 30 31  1  0  0  0  0
 31 24  1  1  0  0  0
M  END
>  <CHROM.1>
56.74412068,-65.32685373,54.11486452,-178.98325498,161.87965445,-59.89262557
40.39171295,23.70051667,2.25240513,2.80387195,-0.62065072,1.30355426

>  <Name>
ligand

>  <RI>
0

>  <Rbt.Current_Directory>
/home/itssahil/PROJECTS/Mol_Feturizer/New_Systems/rnas/2ET5

>  <Rbt.Executable>
rbdock ($Id: //depot/dev/client3/rdock/2013.1/src/exe/rbdock.cxx#4 $)

>  <Rbt.Library>
libRbt.so (2013.1, Build901 2013/11/27)

>  <Rbt.Parameter_File>
/export/apps/rDock/src/rDock_2013.1_src/data/scripts/dock_solv.prm

>  <Rbt.Receptor>
prm/pocket_docking_3.prm

>  <SCORE>
-8.78686

>  <SCORE.INTER>
-6.20364

>  <SCORE.INTER.CONST>
1

>  <SCORE.INTER.POLAR>
0

>  <SCORE.INTER.ROT>
6

>  <SCORE.INTER.SOLV>
12.9712

>  <SCORE.INTER.VDW>
-16.0595

>  <SCORE.INTER.norm>
-0.200117

>  <SCORE.INTRA>
-2.58322

>  <SCORE.INTRA.DIHEDRAL>
-9.2486

>  <SCORE.INTRA.DIHEDRAL.0>
11.2357

>  <SCORE.INTRA.POLAR>
0

>  <SCORE.INTRA.POLAR.0>
0

>  <SCORE.INTRA.REPUL>
0

>  <SCORE.INTRA.REPUL.0>
0

>  <SCORE.INTRA.SOLV>
2.79493

>  <SCORE.INTRA.SOLV.lig_0>
-83.3092

>  <SCORE.INTRA.VDW>
0.643613

>  <SCORE.INTRA.VDW.0>
-4.47057

>  <SCORE.INTRA.norm>
-0.0833297

>  <SCORE.RESTR>
0

>  <SCORE.RESTR.CAVITY>
0

>  <SCORE.RESTR.norm>
0

>  <SCORE.SYSTEM>
0

>  <SCORE.SYSTEM.CONST>
0

>  <SCORE.SYSTEM.DIHEDRAL>
0

>  <SCORE.SYSTEM.SOLV>
0

>  <SCORE.SYSTEM.norm>
0

>  <SCORE.heavy>
31

>  <SCORE.norm>
-0.283447

>  <RMSD>
5.090

$$$$
ligand
 OpenBabel11021811433D
libRbt.so/2013.1/901 2013/11/27
 31 33  0  0  0  0  0  0  0  0999 V2000
   37.2279   26.0340   -1.6375 C   0  0  0  0  0  0  0  0  0  0  0  0
   37.5362   26.1819    4.5837 N   0  0  0  0  0  0  0  0  0  0  0  0
   36.6360   24.8796   -1.0238 O   0  0  0  0  0  0  0  0  0  0  0  0
   38.7311   25.8042   -1.5049 C   0  0  1  0  0  0  0  0  0  0  0  0
   42.1989   24.1914    4.4251 N   0  0  0  0  0  0  0  0  0  0  0  0
   39.1786   25.2750   -0.1544 O   0  0  0  0  0  0  0  0  0  0  0  0
   39.5451   23.9494   -0.1770 C   0  0  1  0  0  0  0  0  0  0  0  0
   46.4160   21.5848    1.9097 N   0  0  0  0  0  0  0  0  0  0  0  0
   39.0065   23.1035    0.8006 O   0  0  0  0  0  0  0  0  0  0  0  0
   39.1383   23.3596    2.2747 C   0  0  2  0  0  0  0  0  0  0  0  0
   40.7849   20.6105    0.1852 N   0  0  0  0  0  0  0  0  0  0  0  0
   36.8597   24.3590    2.3005 O   0  0  0  0  0  0  0  0  0  0  0  0
   38.2762   24.6065    2.6317 C   0  0  1  0  0  0  0  0  0  0  0  0
   41.4017   22.5228    2.3626 O   0  0  0  0  0  0  0  0  0  0  0  0
   38.3944   24.9351    4.2036 C   0  0  1  0  0  0  0  0  0  0  0  0
   43.6848   22.4789    1.6912 O   0  0  0  0  0  0  0  0  0  0  0  0
   39.9295   25.1964    4.5281 C   0  0  0  0  0  0  0  0  0  0  0  0
   44.5069   19.0920    3.0043 O   0  0  0  0  0  0  0  0  0  0  0  0
   40.7582   23.9100    4.1144 C   0  0  1  0  0  0  0  0  0  0  0  0
   42.5585   18.4143    1.0297 O   0  0  0  0  0  0  0  0  0  0  0  0
   40.6614   23.6453    2.6457 C   0  0  2  0  0  0  0  0  0  0  0  0
   40.2147   22.4855   -1.9372 O   0  0  0  0  0  0  0  0  0  0  0  0
   42.2684   22.2898    1.2227 C   0  0  1  0  0  0  0  0  0  0  0  0
   40.8013   25.0893   -2.6707 O   0  0  0  0  0  0  0  0  0  0  0  0
   44.1813   21.4695    2.7175 C   0  0  2  0  0  0  0  0  0  0  0  0
   45.6139   21.8036    3.1168 C   0  0  0  0  0  0  0  0  0  0  0  0
   44.0779   20.0617    2.0867 C   0  0  2  0  0  0  0  0  0  0  0  0
   42.6507   19.7659    1.6569 C   0  0  1  0  0  0  0  0  0  0  0  0
   42.2060   20.8482    0.6557 C   0  0  1  0  0  0  0  0  0  0  0  0
   39.3203   23.4856   -1.6070 C   0  0  2  0  0  0  0  0  0  0  0  0
   39.3905   24.7967   -2.4540 C   0  0  1  0  0  0  0  0  0  0  0  0
  1  3  1  0  0  0  0
  4  1  1  1  0  0  0
  4  6  1  0  0  0  0
  4 31  1  0  0  0  0
  6  7  1  0  0  0  0
  7  9  1  1  0  0  0
  7 30  1  0  0  0  0
  8 26  1  0  0  0  0
 10  9  1  6  0  0  0
 10 13  1  0  0  0  0
 10 21  1  0  0  0  0
 13 12  1  1  0  0  0
 13 15  1  0  0  0  0
 15  2  1  6  0  0  0
 15 17  1  0  0  0  0
 16 25  1  0  0  0  0
 16 23  1  0  0  0  0
 17 19  1  0  0  0  0
 19  5  1  6  0  0  0
 19 21  1  0  0  0  0
 21 14  1  1  0  0  0
 23 14  1  1  0  0  0
 23 29  1  0  0  0  0
 25 26  1  6  0  0  0
 25 27  1  0  0  0  0
 27 18  1  1  0  0  0
 27 28  1  0  0  0  0
 28 20  1  6  0  0  0
 28 29  1  0  0  0  0
 29 11  1  1  0  0  0
 30 22  1  6  0  0  0
 30 31  1  0  0  0  0
 31 24  1  1  0  0  0
M  END
>  <CHROM.1>
-42.95719003,-55.95015002,69.18157680,102.07423595,102.54073768,-66.10717533
40.76885289,23.09043207,1.28676228,-2.97123009,-0.66834705,1.39852344

>  <Name>
ligand

>  <RI>
0

>  <Rbt.Current_Directory>
/home/itssahil/PROJECTS/Mol_Feturizer/New_Systems/rnas/2ET5

>  <Rbt.Executable>
rbdock ($Id: //depot/dev/client3/rdock/2013.1/src/exe/rbdock.cxx#4 $)

>  <Rbt.Library>
libRbt.so (2013.1, Build901 2013/11/27)

>  <Rbt.Parameter_File>
/export/apps/rDock/src/rDock_2013.1_src/data/scripts/dock_solv.prm

>  <Rbt.Receptor>
prm/pocket_docking_2.prm

>  <SCORE>
-0.75104

>  <SCORE.INTER>
-4.32203

>  <SCORE.INTER.CONST>
1

>  <SCORE.INTER.POLAR>
0

>  <SCORE.INTER.ROT>
6

>  <SCORE.INTER.SOLV>
25.2127

>  <SCORE.INTER.VDW>
-18.8856

>  <SCORE.INTER.norm>
-0.13942

>  <SCORE.INTRA>
2.71132

>  <SCORE.INTRA.DIHEDRAL>
1.96146

>  <SCORE.INTRA.DIHEDRAL.0>
11.2357

>  <SCORE.INTRA.POLAR>
0

>  <SCORE.INTRA.POLAR.0>
0

>  <SCORE.INTRA.REPUL>
0

>  <SCORE.INTRA.REPUL.0>
0

>  <SCORE.INTRA.SOLV>
2.88911

>  <SCORE.INTRA.SOLV.lig_0>
-83.3092

>  <SCORE.INTRA.VDW>
0.286031

>  <SCORE.INTRA.VDW.0>
-4.47057

>  <SCORE.INTRA.norm>
0.0874619

>  <SCORE.RESTR>
0.859671

>  <SCORE.RESTR.CAVITY>
0.859671

>  <SCORE.RESTR.norm>
0.0277313

>  <SCORE.SYSTEM>
0

>  <SCORE.SYSTEM.CONST>
0

>  <SCORE.SYSTEM.DIHEDRAL>
0

>  <SCORE.SYSTEM.SOLV>
0

>  <SCORE.SYSTEM.norm>
0

>  <SCORE.heavy>
31

>  <SCORE.norm>
-0.0242271

>  <RMSD>
5.116

$$$$
ligand
 OpenBabel11021811433D
libRbt.so/2013.1/901 2013/11/27
 31 33  0  0  0  0  0  0  0  0999 V2000
   35.9913   26.0974   -0.4451 C   0  0  0  0  0  0  0  0  0  0  0  0
   38.2292   26.0513    5.6234 N   0  0  0  0  0  0  0  0  0  0  0  0
   35.7165   24.6930   -0.3360 O   0  0  0  0  0  0  0  0  0  0  0  0
   37.5126   26.1788   -0.5408 C   0  0  1  0  0  0  0  0  0  0  0  0
   42.5771   23.7896    4.3163 N   0  0  0  0  0  0  0  0  0  0  0  0
   38.2579   25.6141    0.6549 O   0  0  0  0  0  0  0  0  0  0  0  0
   38.8672   24.4068    0.4031 C   0  0  1  0  0  0  0  0  0  0  0  0
   45.1746   23.6174    3.9145 N   0  0  0  0  0  0  0  0  0  0  0  0
   38.6612   23.3654    1.3165 O   0  0  0  0  0  0  0  0  0  0  0  0
   39.0973   23.4308    2.7523 C   0  0  2  0  0  0  0  0  0  0  0  0
   41.0575   20.5140    0.0498 N   0  0  0  0  0  0  0  0  0  0  0  0
   36.9650   24.5688    3.3436 O   0  0  0  0  0  0  0  0  0  0  0  0
   38.4351   24.6795    3.4063 C   0  0  1  0  0  0  0  0  0  0  0  0
   41.2512   22.4410    2.2921 O   0  0  0  0  0  0  0  0  0  0  0  0
   38.8831   24.8058    4.9477 C   0  0  1  0  0  0  0  0  0  0  0  0
   43.5555   22.7390    1.7755 O   0  0  0  0  0  0  0  0  0  0  0  0
   40.4691   24.9230    4.9815 C   0  0  0  0  0  0  0  0  0  0  0  0
   44.7692   19.4727    3.0904 O   0  0  0  0  0  0  0  0  0  0  0  0
   41.0842   23.6444    4.2748 C   0  0  1  0  0  0  0  0  0  0  0  0
   43.0700   18.5729    0.9792 O   0  0  0  0  0  0  0  0  0  0  0  0
   40.6827   23.5674    2.8363 C   0  0  2  0  0  0  0  0  0  0  0  0
   39.5283   23.3173   -1.6132 O   0  0  0  0  0  0  0  0  0  0  0  0
   42.2142   22.3617    1.2098 C   0  0  1  0  0  0  0  0  0  0  0  0
   39.4766   26.0499   -2.0514 O   0  0  0  0  0  0  0  0  0  0  0  0
   44.1246   21.7859    2.8178 C   0  0  2  0  0  0  0  0  0  0  0  0
   45.4655   22.3108    3.3176 C   0  0  0  0  0  0  0  0  0  0  0  0
   44.2655   20.3935    2.1606 C   0  0  2  0  0  0  0  0  0  0  0  0
   42.9264   19.9081    1.6312 C   0  0  1  0  0  0  0  0  0  0  0  0
   42.3963   20.9401    0.6186 C   0  0  1  0  0  0  0  0  0  0  0  0
   38.5184   24.0631   -1.0359 C   0  0  2  0  0  0  0  0  0  0  0  0
   38.2004   25.4429   -1.6965 C   0  0  1  0  0  0  0  0  0  0  0  0
  1  3  1  0  0  0  0
  4  1  1  1  0  0  0
  4  6  1  0  0  0  0
  4 31  1  0  0  0  0
  6  7  1  0  0  0  0
  7  9  1  1  0  0  0
  7 30  1  0  0  0  0
  8 26  1  0  0  0  0
 10  9  1  6  0  0  0
 10 13  1  0  0  0  0
 10 21  1  0  0  0  0
 13 12  1  1  0  0  0
 13 15  1  0  0  0  0
 15  2  1  6  0  0  0
 15 17  1  0  0  0  0
 16 25  1  0  0  0  0
 16 23  1  0  0  0  0
 17 19  1  0  0  0  0
 19  5  1  6  0  0  0
 19 21  1  0  0  0  0
 21 14  1  1  0  0  0
 23 14  1  1  0  0  0
 23 29  1  0  0  0  0
 25 26  1  6  0  0  0
 25 27  1  0  0  0  0
 27 18  1  1  0  0  0
 27 28  1  0  0  0  0
 28 20  1  6  0  0  0
 28 29  1  0  0  0  0
 29 11  1  1  0  0  0
 30 22  1  6  0  0  0
 30 31  1  0  0  0  0
 31 24  1  1  0  0  0
M  END
>  <CHROM.1>
-60.41260593,-62.49210926,57.09885839,77.05353353,124.14471863,60.76371413
40.54377867,23.33768484,1.73898718,-3.06485651,-0.62824256,1.22701167

>  <Name>
ligand

>  <RI>
0

>  <Rbt.Current_Directory>
/home/itssahil/PROJECTS/Mol_Feturizer/New_Systems/rnas/2ET5

>  <Rbt.Executable>
rbdock ($Id: //depot/dev/client3/rdock/2013.1/src/exe/rbdock.cxx#4 $)

>  <Rbt.Library>
libRbt.so (2013.1, Build901 2013/11/27)

>  <Rbt.Parameter_File>
/export/apps/rDock/src/rDock_2013.1_src/data/scripts/dock_solv.prm

>  <Rbt.Receptor>
prm/pocket_docking_3.prm

>  <SCORE>
-5.44893

>  <SCORE.INTER>
-6.1567

>  <SCORE.INTER.CONST>
1

>  <SCORE.INTER.POLAR>
0

>  <SCORE.INTER.ROT>
6

>  <SCORE.INTER.SOLV>
24.1513

>  <SCORE.INTER.VDW>
-19.7549

>  <SCORE.INTER.norm>
-0.198603

>  <SCORE.INTRA>
0.703583

>  <SCORE.INTRA.DIHEDRAL>
-2.60044

>  <SCORE.INTRA.DIHEDRAL.0>
11.2357

>  <SCORE.INTRA.POLAR>
0

>  <SCORE.INTRA.POLAR.0>
0

>  <SCORE.INTRA.REPUL>
0

>  <SCORE.INTRA.REPUL.0>
0

>  <SCORE.INTRA.SOLV>
2.60361

>  <SCORE.INTRA.SOLV.lig_0>
-83.3092

>  <SCORE.INTRA.VDW>
0.702001

>  <SCORE.INTRA.VDW.0>
-4.47057

>  <SCORE.INTRA.norm>
0.0226962

>  <SCORE.RESTR>
0.00418245

>  <SCORE.RESTR.CAVITY>
0.00418245

>  <SCORE.RESTR.norm>
0.000134918

>  <SCORE.SYSTEM>
0

>  <SCORE.SYSTEM.CONST>
0

>  <SCORE.SYSTEM.DIHEDRAL>
0

>  <SCORE.SYSTEM.SOLV>
0

>  <SCORE.SYSTEM.norm>
0

>  <SCORE.heavy>
31

>  <SCORE.norm>
-0.175772

>  <RMSD>
5.144

$$$$
ligand
 OpenBabel11021811433D
libRbt.so/2013.1/901 2013/11/27
 31 33  0  0  0  0  0  0  0  0999 V2000
   37.5366   25.7051   -1.7279 C   0  0  0  0  0  0  0  0  0  0  0  0
   38.7590   25.4910    4.5903 N   0  0  0  0  0  0  0  0  0  0  0  0
   36.9126   24.4779   -1.3226 O   0  0  0  0  0  0  0  0  0  0  0  0
   39.0317   25.3996   -1.6906 C   0  0  1  0  0  0  0  0  0  0  0  0
   42.9719   22.7902    3.7624 N   0  0  0  0  0  0  0  0  0  0  0  0
   39.5234   24.7778   -0.3961 O   0  0  0  0  0  0  0  0  0  0  0  0
   39.8231   23.4399   -0.5076 C   0  0  1  0  0  0  0  0  0  0  0  0
   45.4950   23.3341    2.8915 N   0  0  0  0  0  0  0  0  0  0  0  0
   39.2961   22.5677    0.4531 O   0  0  0  0  0  0  0  0  0  0  0  0
   39.6157   22.6651    1.9174 C   0  0  2  0  0  0  0  0  0  0  0  0
   41.7257   19.1004   -0.0950 N   0  0  0  0  0  0  0  0  0  0  0  0
   37.5564   24.0158    2.2728 O   0  0  0  0  0  0  0  0  0  0  0  0
   39.0202   23.9985    2.4587 C   0  0  1  0  0  0  0  0  0  0  0  0
   41.6993   21.4664    1.6883 O   0  0  0  0  0  0  0  0  0  0  0  0
   39.3485   24.1604    4.0267 C   0  0  1  0  0  0  0  0  0  0  0  0
   43.9819   21.8512    1.1342 O   0  0  0  0  0  0  0  0  0  0  0  0
   40.9302   24.1379    4.1936 C   0  0  0  0  0  0  0  0  0  0  0  0
   45.4365   19.0561    3.1197 O   0  0  0  0  0  0  0  0  0  0  0  0
   41.4807   22.7763    3.5971 C   0  0  1  0  0  0  0  0  0  0  0  0
   43.8726   17.5846    1.2373 O   0  0  0  0  0  0  0  0  0  0  0  0
   41.1944   22.6643    2.1335 C   0  0  2  0  0  0  0  0  0  0  0  0
   40.3269   22.0447   -2.3755 O   0  0  0  0  0  0  0  0  0  0  0  0
   42.6919   21.2460    0.6534 C   0  0  1  0  0  0  0  0  0  0  0  0
   41.0003   24.6549   -3.0043 O   0  0  0  0  0  0  0  0  0  0  0  0
   44.6041   21.1935    2.3584 C   0  0  2  0  0  0  0  0  0  0  0  0
   45.8828   21.9284    2.7435 C   0  0  0  0  0  0  0  0  0  0  0  0
   44.8793   19.7119    2.0126 C   0  0  2  0  0  0  0  0  0  0  0  0
   43.5998   19.0093    1.5902 C   0  0  1  0  0  0  0  0  0  0  0  0
   43.0089   19.7535    0.3784 C   0  0  1  0  0  0  0  0  0  0  0  0
   39.5009   23.0654   -1.9451 C   0  0  2  0  0  0  0  0  0  0  0  0
   39.5903   24.4160   -2.7256 C   0  0  1  0  0  0  0  0  0  0  0  0
  1  3  1  0  0  0  0
  4  1  1  1  0  0  0
  4  6  1  0  0  0  0
  4 31  1  0  0  0  0
  6  7  1  0  0  0  0
  7  9  1  1  0  0  0
  7 30  1  0  0  0  0
  8 26  1  0  0  0  0
 10  9  1  6  0  0  0
 10 13  1  0  0  0  0
 10 21  1  0  0  0  0
 13 12  1  1  0  0  0
 13 15  1  0  0  0  0
 15  2  1  6  0  0  0
 15 17  1  0  0  0  0
 16 25  1  0  0  0  0
 16 23  1  0  0  0  0
 17 19  1  0  0  0  0
 19  5  1  6  0  0  0
 19 21  1  0  0  0  0
 21 14  1  1  0  0  0
 23 14  1  1  0  0  0
 23 29  1  0  0  0  0
 25 26  1  6  0  0  0
 25 27  1  0  0  0  0
 27 18  1  1  0  0  0
 27 28  1  0  0  0  0
 28 20  1  6  0  0  0
 28 29  1  0  0  0  0
 29 11  1  1  0  0  0
 30 22  1  6  0  0  0
 30 31  1  0  0  0  0
 31 24  1  1  0  0  0
M  END
>  <CHROM.1>
-50.90564278,-61.51996577,66.04219318,64.64933249,120.94591096,54.17952547
41.28636516,22.52353146,1.04402774,-2.95157028,-0.70251936,1.29000587

>  <Name>
ligand

>  <RI>
0

>  <Rbt.Current_Directory>
/home/itssahil/PROJECTS/Mol_Feturizer/New_Systems/rnas/2ET5

>  <Rbt.Executable>
rbdock ($Id: //depot/dev/client3/rdock/2013.1/src/exe/rbdock.cxx#4 $)

>  <Rbt.Library>
libRbt.so (2013.1, Build901 2013/11/27)

>  <Rbt.Parameter_File>
/export/apps/rDock/src/rDock_2013.1_src/data/scripts/dock_solv.prm

>  <Rbt.Receptor>
prm/pocket_docking_2.prm

>  <SCORE>
-1.72865

>  <SCORE.INTER>
-2.82003

>  <SCORE.INTER.CONST>
1

>  <SCORE.INTER.POLAR>
0

>  <SCORE.INTER.ROT>
6

>  <SCORE.INTER.SOLV>
26.0579

>  <SCORE.INTER.VDW>
-18.166

>  <SCORE.INTER.norm>
-0.0909687

>  <SCORE.INTRA>
0.563007

>  <SCORE.INTRA.DIHEDRAL>
-3.21287

>  <SCORE.INTRA.DIHEDRAL.0>
11.2357

>  <SCORE.INTRA.POLAR>
0

>  <SCORE.INTRA.POLAR.0>
0

>  <SCORE.INTRA.REPUL>
0

>  <SCORE.INTRA.REPUL.0>
0

>  <SCORE.INTRA.SOLV>
2.39507

>  <SCORE.INTRA.SOLV.lig_0>
-83.3092

>  <SCORE.INTRA.VDW>
0.97191

>  <SCORE.INTRA.VDW.0>
-4.47057

>  <SCORE.INTRA.norm>
0.0181615

>  <SCORE.RESTR>
0.52837

>  <SCORE.RESTR.CAVITY>
0.52837

>  <SCORE.RESTR.norm>
0.0170442

>  <SCORE.SYSTEM>
0

>  <SCORE.SYSTEM.CONST>
0

>  <SCORE.SYSTEM.DIHEDRAL>
0

>  <SCORE.SYSTEM.SOLV>
0

>  <SCORE.SYSTEM.norm>
0

>  <SCORE.heavy>
31

>  <SCORE.norm>
-0.055763

>  <RMSD>
5.157

$$$$
ligand
 OpenBabel11021811433D
libRbt.so/2013.1/901 2013/11/27
 31 33  0  0  0  0  0  0  0  0999 V2000
   41.4139   22.7498   -2.1883 C   0  0  0  0  0  0  0  0  0  0  0  0
   37.8871   26.0020    5.1602 N   0  0  0  0  0  0  0  0  0  0  0  0
   42.3407   23.4589   -3.0236 O   0  0  0  0  0  0  0  0  0  0  0  0
   40.4014   23.8096   -1.7620 C   0  0  1  0  0  0  0  0  0  0  0  0
   42.6261   24.2038    4.9681 N   0  0  0  0  0  0  0  0  0  0  0  0
   39.3174   23.3143   -0.8220 O   0  0  0  0  0  0  0  0  0  0  0  0
   39.4737   23.7468    0.4744 C   0  0  1  0  0  0  0  0  0  0  0  0
   44.9466   25.1725    1.5483 N   0  0  0  0  0  0  0  0  0  0  0  0
   39.3878   22.7948    1.4980 O   0  0  0  0  0  0  0  0  0  0  0  0
   39.5479   23.1328    2.9527 C   0  0  2  0  0  0  0  0  0  0  0  0
   41.9177   19.5186    2.3213 N   0  0  0  0  0  0  0  0  0  0  0  0
   37.2295   24.0356    2.9937 O   0  0  0  0  0  0  0  0  0  0  0  0
   38.6423   24.3594    3.2705 C   0  0  1  0  0  0  0  0  0  0  0  0
   41.8471   22.3977    3.0174 O   0  0  0  0  0  0  0  0  0  0  0  0
   38.7882   24.7742    4.8195 C   0  0  1  0  0  0  0  0  0  0  0  0
   43.3553   22.8201    1.2251 O   0  0  0  0  0  0  0  0  0  0  0  0
   40.3187   25.1164    5.0856 C   0  0  0  0  0  0  0  0  0  0  0  0
   46.4129   21.4263    2.8312 O   0  0  0  0  0  0  0  0  0  0  0  0
   41.1911   23.8462    4.7141 C   0  0  1  0  0  0  0  0  0  0  0  0
   44.8108   19.0693    2.6532 O   0  0  0  0  0  0  0  0  0  0  0  0
   41.0666   23.5013    3.2642 C   0  0  2  0  0  0  0  0  0  0  0  0
   40.6837   25.5615    1.4399 O   0  0  0  0  0  0  0  0  0  0  0  0
   42.2906   21.8877    1.7336 C   0  0  1  0  0  0  0  0  0  0  0  0
   40.0625   26.1978   -1.1814 O   0  0  0  0  0  0  0  0  0  0  0  0
   44.6388   22.8659    2.0432 C   0  0  2  0  0  0  0  0  0  0  0  0
   45.6065   23.8694    1.4268 C   0  0  0  0  0  0  0  0  0  0  0  0
   45.2354   21.4398    2.0699 C   0  0  2  0  0  0  0  0  0  0  0  0
   44.2392   20.4483    2.6478 C   0  0  1  0  0  0  0  0  0  0  0  0
   42.9568   20.4892    1.7963 C   0  0  1  0  0  0  0  0  0  0  0  0
   40.7525   24.5685    0.4816 C   0  0  2  0  0  0  0  0  0  0  0  0
   40.9208   25.0345   -1.0002 C   0  0  1  0  0  0  0  0  0  0  0  0
  1  3  1  0  0  0  0
  4  1  1  1  0  0  0
  4  6  1  0  0  0  0
  4 31  1  0  0  0  0
  6  7  1  0  0  0  0
  7  9  1  1  0  0  0
  7 30  1  0  0  0  0
  8 26  1  0  0  0  0
 10  9  1  6  0  0  0
 10 13  1  0  0  0  0
 10 21  1  0  0  0  0
 13 12  1  1  0  0  0
 13 15  1  0  0  0  0
 15  2  1  6  0  0  0
 15 17  1  0  0  0  0
 16 25  1  0  0  0  0
 16 23  1  0  0  0  0
 17 19  1  0  0  0  0
 19  5  1  6  0  0  0
 19 21  1  0  0  0  0
 21 14  1  1  0  0  0
 23 14  1  1  0  0  0
 23 29  1  0  0  0  0
 25 26  1  6  0  0  0
 25 27  1  0  0  0  0
 27 18  1  1  0  0  0
 27 28  1  0  0  0  0
 28 20  1  6  0  0  0
 28 29  1  0  0  0  0
 29 11  1  1  0  0  0
 30 22  1  1  0  0  0
 30 31  1  0  0  0  0
 31 24  1  1  0  0  0
M  END
>  <CHROM.1>
-178.28143828,179.61953738,48.90151791,73.15911120,77.62810627,63.98046294
41.62523702,23.27467385,1.78239039,-0.00052858,0.52798344,-1.47579229

>  <Name>
ligand

>  <RI>
0

>  <Rbt.Current_Directory>
/home/itssahil/PROJECTS/Mol_Feturizer/New_Systems/rnas/2ET5

>  <Rbt.Executable>
rbdock ($Id: //depot/dev/client3/rdock/2013.1/src/exe/rbdock.cxx#4 $)

>  <Rbt.Library>
libRbt.so (2013.1, Build901 2013/11/27)

>  <Rbt.Parameter_File>
/export/apps/rDock/src/rDock_2013.1_src/data/scripts/dock_solv.prm

>  <Rbt.Receptor>
prm/pocket_docking_8.prm

>  <SCORE>
-12.0697

>  <SCORE.INTER>
-7.59709

>  <SCORE.INTER.CONST>
1

>  <SCORE.INTER.POLAR>
0

>  <SCORE.INTER.ROT>
6

>  <SCORE.INTER.SOLV>
21.8728

>  <SCORE.INTER.VDW>
-19.9557

>  <SCORE.INTER.norm>
-0.245067

>  <SCORE.INTRA>
-4.47259

>  <SCORE.INTRA.DIHEDRAL>
-8.19698

>  <SCORE.INTRA.DIHEDRAL.0>
11.2357

>  <SCORE.INTRA.POLAR>
0

>  <SCORE.INTRA.POLAR.0>
0

>  <SCORE.INTRA.REPUL>
0

>  <SCORE.INTRA.REPUL.0>
0

>  <SCORE.INTRA.SOLV>
-2.10377

>  <SCORE.INTRA.SOLV.lig_0>
-83.3092

>  <SCORE.INTRA.VDW>
0.677787

>  <SCORE.INTRA.VDW.0>
-4.47057

>  <SCORE.INTRA.norm>
-0.144277

>  <SCORE.RESTR>
0

>  <SCORE.RESTR.CAVITY>
0

>  <SCORE.RESTR.norm>
0

>  <SCORE.SYSTEM>
0

>  <SCORE.SYSTEM.CONST>
0

>  <SCORE.SYSTEM.DIHEDRAL>
0

>  <SCORE.SYSTEM.SOLV>
0

>  <SCORE.SYSTEM.norm>
0

>  <SCORE.heavy>
31

>  <SCORE.norm>
-0.389345

>  <RMSD>
5.162

$$$$
ligand
 OpenBabel11021811433D
libRbt.so/2013.1/901 2013/11/27
 31 33  0  0  0  0  0  0  0  0999 V2000
   36.0908   26.1720    1.2436 C   0  0  0  0  0  0  0  0  0  0  0  0
   38.9540   26.9057    7.1191 N   0  0  0  0  0  0  0  0  0  0  0  0
   35.8867   24.8122    1.6544 O   0  0  0  0  0  0  0  0  0  0  0  0
   37.5971   26.2776    1.0199 C   0  0  1  0  0  0  0  0  0  0  0  0
   43.1863   24.5626    5.5940 N   0  0  0  0  0  0  0  0  0  0  0  0
   38.4481   25.8878    2.2148 O   0  0  0  0  0  0  0  0  0  0  0  0
   39.0776   24.6735    2.0690 C   0  0  1  0  0  0  0  0  0  0  0  0
   43.8357   19.1280    1.3695 N   0  0  0  0  0  0  0  0  0  0  0  0
   38.9758   23.7520    3.1187 O   0  0  0  0  0  0  0  0  0  0  0  0
   39.5654   23.9858    4.4801 C   0  0  2  0  0  0  0  0  0  0  0  0
   43.2066   24.9787    2.3339 N   0  0  0  0  0  0  0  0  0  0  0  0
   37.4836   25.1579    5.1758 O   0  0  0  0  0  0  0  0  0  0  0  0
   38.9486   25.2929    5.0604 C   0  0  1  0  0  0  0  0  0  0  0  0
   41.6795   22.9762    3.8949 O   0  0  0  0  0  0  0  0  0  0  0  0
   39.5602   25.5993    6.5180 C   0  0  1  0  0  0  0  0  0  0  0  0
   43.1247   21.2843    3.0501 O   0  0  0  0  0  0  0  0  0  0  0  0
   41.1369   25.7388    6.3603 C   0  0  0  0  0  0  0  0  0  0  0  0
   41.7633   21.1751   -0.4148 O   0  0  0  0  0  0  0  0  0  0  0  0
   41.7020   24.3955    5.7367 C   0  0  1  0  0  0  0  0  0  0  0  0
   42.7825   23.8418   -0.3511 O   0  0  0  0  0  0  0  0  0  0  0  0
   41.1466   24.1503    4.3699 C   0  0  2  0  0  0  0  0  0  0  0  0
   39.6232   23.3527    0.1592 O   0  0  0  0  0  0  0  0  0  0  0  0
   43.0149   22.7483    3.3759 C   0  0  1  0  0  0  0  0  0  0  0  0
   39.4463   26.0053   -0.6117 O   0  0  0  0  0  0  0  0  0  0  0  0
   42.2255   20.7886    1.9257 C   0  0  2  0  0  0  0  0  0  0  0  0
   42.4244   19.2900    1.7301 C   0  0  0  0  0  0  0  0  0  0  0  0
   42.5817   21.5833    0.6481 C   0  0  2  0  0  0  0  0  0  0  0  0
   42.4181   23.0765    0.8777 C   0  0  1  0  0  0  0  0  0  0  0  0
   43.3227   23.4940    2.0520 C   0  0  1  0  0  0  0  0  0  0  0  0
   38.6345   24.1411    0.7159 C   0  0  2  0  0  0  0  0  0  0  0  0
   38.2215   25.4175   -0.0850 C   0  0  1  0  0  0  0  0  0  0  0  0
  1  3  1  0  0  0  0
  4  1  1  1  0  0  0
  4  6  1  0  0  0  0
  4 31  1  0  0  0  0
  6  7  1  0  0  0  0
  7  9  1  1  0  0  0
  7 30  1  0  0  0  0
  8 26  1  0  0  0  0
 10  9  1  6  0  0  0
 10 13  1  0  0  0  0
 10 21  1  0  0  0  0
 13 12  1  1  0  0  0
 13 15  1  0  0  0  0
 15  2  1  6  0  0  0
 15 17  1  0  0  0  0
 16 25  1  0  0  0  0
 16 23  1  0  0  0  0
 17 19  1  0  0  0  0
 19  5  1  6  0  0  0
 19 21  1  0  0  0  0
 21 14  1  1  0  0  0
 23 14  1  6  0  0  0
 23 29  1  0  0  0  0
 25 26  1  6  0  0  0
 25 27  1  0  0  0  0
 27 18  1  6  0  0  0
 27 28  1  0  0  0  0
 28 20  1  6  0  0  0
 28 29  1  0  0  0  0
 29 11  1  1  0  0  0
 30 22  1  6  0  0  0
 30 31  1  0  0  0  0
 31 24  1  1  0  0  0
M  END
>  <CHROM.1>
-55.88927941,-65.14735905,58.43925346,177.26424221,166.00215988,-60.93806024
40.48941270,23.88617080,2.61547831,2.61491740,-0.61407318,1.22863511

>  <Name>
ligand

>  <RI>
0

>  <Rbt.Current_Directory>
/home/itssahil/PROJECTS/Mol_Feturizer/New_Systems/rnas/2ET5

>  <Rbt.Executable>
rbdock ($Id: //depot/dev/client3/rdock/2013.1/src/exe/rbdock.cxx#4 $)

>  <Rbt.Library>
libRbt.so (2013.1, Build901 2013/11/27)

>  <Rbt.Parameter_File>
/export/apps/rDock/src/rDock_2013.1_src/data/scripts/dock_solv.prm

>  <Rbt.Receptor>
prm/pocket_docking_4.prm

>  <SCORE>
-8.90649

>  <SCORE.INTER>
-5.95076

>  <SCORE.INTER.CONST>
1

>  <SCORE.INTER.POLAR>
0

>  <SCORE.INTER.ROT>
6

>  <SCORE.INTER.SOLV>
12.8849

>  <SCORE.INTER.VDW>
-15.8621

>  <SCORE.INTER.norm>
-0.19196

>  <SCORE.INTRA>
-2.95572

>  <SCORE.INTRA.DIHEDRAL>
-9.93199

>  <SCORE.INTRA.DIHEDRAL.0>
11.2357

>  <SCORE.INTRA.POLAR>
0

>  <SCORE.INTRA.POLAR.0>
0

>  <SCORE.INTRA.REPUL>
0

>  <SCORE.INTRA.REPUL.0>
0

>  <SCORE.INTRA.SOLV>
3.09045

>  <SCORE.INTRA.SOLV.lig_0>
-83.3092

>  <SCORE.INTRA.VDW>
0.465045

>  <SCORE.INTRA.VDW.0>
-4.47057

>  <SCORE.INTRA.norm>
-0.0953459

>  <SCORE.RESTR>
0

>  <SCORE.RESTR.CAVITY>
0

>  <SCORE.RESTR.norm>
0

>  <SCORE.SYSTEM>
0

>  <SCORE.SYSTEM.CONST>
0

>  <SCORE.SYSTEM.DIHEDRAL>
0

>  <SCORE.SYSTEM.SOLV>
0

>  <SCORE.SYSTEM.norm>
0

>  <SCORE.heavy>
31

>  <SCORE.norm>
-0.287306

>  <RMSD>
5.172

$$$$
ligand
 OpenBabel11021811433D
libRbt.so/2013.1/901 2013/11/27
 31 33  0  0  0  0  0  0  0  0999 V2000
   44.6384   22.2935    1.7536 C   0  0  0  0  0  0  0  0  0  0  0  0
   39.5713   24.0690   -5.3748 N   0  0  0  0  0  0  0  0  0  0  0  0
   45.4568   21.5932    2.7019 O   0  0  0  0  0  0  0  0  0  0  0  0
   43.2359   21.7345    1.9785 C   0  0  1  0  0  0  0  0  0  0  0  0
   39.4567   26.4515   -0.8983 N   0  0  0  0  0  0  0  0  0  0  0  0
   42.1576   22.3465    1.1029 O   0  0  0  0  0  0  0  0  0  0  0  0
   41.7222   21.5104    0.1012 C   0  0  1  0  0  0  0  0  0  0  0  0
   36.4315   24.5167    2.2649 N   0  0  0  0  0  0  0  0  0  0  0  0
   41.6546   22.0253   -1.1994 O   0  0  0  0  0  0  0  0  0  0  0  0
   40.5055   22.8538   -1.6986 C   0  0  2  0  0  0  0  0  0  0  0  0
   42.8086   24.8326    1.8669 N   0  0  0  0  0  0  0  0  0  0  0  0
   40.6190   21.6827   -3.8911 O   0  0  0  0  0  0  0  0  0  0  0  0
   40.6495   23.0074   -3.2417 C   0  0  1  0  0  0  0  0  0  0  0  0
   40.3662   24.1450    0.3372 O   0  0  0  0  0  0  0  0  0  0  0  0
   39.4469   23.9032   -3.8280 C   0  0  1  0  0  0  0  0  0  0  0  0
   39.0666   25.2078    2.0245 O   0  0  0  0  0  0  0  0  0  0  0  0
   39.5067   25.3213   -3.1099 C   0  0  0  0  0  0  0  0  0  0  0  0
   39.4394   22.5848    4.6420 O   0  0  0  0  0  0  0  0  0  0  0  0
   39.3890   25.0992   -1.5448 C   0  0  1  0  0  0  0  0  0  0  0  0
   42.1552   23.4248    4.3715 O   0  0  0  0  0  0  0  0  0  0  0  0
   40.5345   24.2945   -1.0183 C   0  0  2  0  0  0  0  0  0  0  0  0
   41.8264   19.1456   -0.1922 O   0  0  0  0  0  0  0  0  0  0  0  0
   40.4157   25.1717    1.3610 C   0  0  1  0  0  0  0  0  0  0  0  0
   41.9022   19.7127    2.5161 O   0  0  0  0  0  0  0  0  0  0  0  0
   38.6803   23.9581    2.8039 C   0  0  2  0  0  0  0  0  0  0  0  0
   37.2845   24.1292    3.3921 C   0  0  0  0  0  0  0  0  0  0  0  0
   39.7418   23.7398    3.9067 C   0  0  2  0  0  0  0  0  0  0  0  0
   41.1305   23.6148    3.3026 C   0  0  1  0  0  0  0  0  0  0  0  0
   41.4319   24.8928    2.4981 C   0  0  1  0  0  0  0  0  0  0  0  0
   42.5494   20.2423    0.2363 C   0  0  2  0  0  0  0  0  0  0  0  0
   43.0100   20.2387    1.7293 C   0  0  1  0  0  0  0  0  0  0  0  0
  1  3  1  0  0  0  0
  4  1  1  6  0  0  0
  4  6  1  0  0  0  0
  4 31  1  0  0  0  0
  6  7  1  0  0  0  0
  7  9  1  6  0  0  0
  7 30  1  0  0  0  0
  8 26  1  0  0  0  0
 10  9  1  1  0  0  0
 10 13  1  0  0  0  0
 10 21  1  0  0  0  0
 13 12  1  6  0  0  0
 13 15  1  0  0  0  0
 15  2  1  6  0  0  0
 15 17  1  0  0  0  0
 16 25  1  0  0  0  0
 16 23  1  0  0  0  0
 17 19  1  0  0  0  0
 19  5  1  1  0  0  0
 19 21  1  0  0  0  0
 21 14  1  1  0  0  0
 23 14  1  6  0  0  0
 23 29  1  0  0  0  0
 25 26  1  1  0  0  0
 25 27  1  0  0  0  0
 27 18  1  6  0  0  0
 27 28  1  0  0  0  0
 28 20  1  1  0  0  0
 28 29  1  0  0  0  0
 29 11  1  6  0  0  0
 30 22  1  1  0  0  0
 30 31  1  0  0  0  0
 31 24  1  1  0  0  0
M  END
>  <CHROM.1>
178.67044425,-81.60978723,-169.27822800,118.51869728,175.46160302,52.46969653
40.89036518,23.10913197,0.64245826,-1.11258482,0.73230456,-1.62666486

>  <Name>
ligand

>  <RI>
0

>  <Rbt.Current_Directory>
/home/itssahil/PROJECTS/Mol_Feturizer/New_Systems/rnas/2ET5

>  <Rbt.Executable>
rbdock ($Id: //depot/dev/client3/rdock/2013.1/src/exe/rbdock.cxx#4 $)

>  <Rbt.Library>
libRbt.so (2013.1, Build901 2013/11/27)

>  <Rbt.Parameter_File>
/export/apps/rDock/src/rDock_2013.1_src/data/scripts/dock_solv.prm

>  <Rbt.Receptor>
prm/pocket_docking_3.prm

>  <SCORE>
-2.29508

>  <SCORE.INTER>
-4.40092

>  <SCORE.INTER.CONST>
1

>  <SCORE.INTER.POLAR>
0

>  <SCORE.INTER.ROT>
6

>  <SCORE.INTER.SOLV>
17.6039

>  <SCORE.INTER.VDW>
-16.4019

>  <SCORE.INTER.norm>
-0.141965

>  <SCORE.INTRA>
2.10583

>  <SCORE.INTRA.DIHEDRAL>
-1.09595

>  <SCORE.INTRA.DIHEDRAL.0>
11.2357

>  <SCORE.INTRA.POLAR>
0

>  <SCORE.INTRA.POLAR.0>
0

>  <SCORE.INTRA.REPUL>
0.232201

>  <SCORE.INTRA.REPUL.0>
0

>  <SCORE.INTRA.SOLV>
1.46518

>  <SCORE.INTRA.SOLV.lig_0>
-83.3092

>  <SCORE.INTRA.VDW>
0.760217

>  <SCORE.INTRA.VDW.0>
-4.47057

>  <SCORE.INTRA.norm>
0.0679301

>  <SCORE.RESTR>
0

>  <SCORE.RESTR.CAVITY>
0

>  <SCORE.RESTR.norm>
0

>  <SCORE.SYSTEM>
0

>  <SCORE.SYSTEM.CONST>
0

>  <SCORE.SYSTEM.DIHEDRAL>
0

>  <SCORE.SYSTEM.SOLV>
0

>  <SCORE.SYSTEM.norm>
0

>  <SCORE.heavy>
31

>  <SCORE.norm>
-0.0740349

>  <RMSD>
5.176

$$$$
ligand
 OpenBabel11021811433D
libRbt.so/2013.1/901 2013/11/27
 31 33  0  0  0  0  0  0  0  0999 V2000
   37.2300   26.4530   -1.4860 C   0  0  0  0  0  0  0  0  0  0  0  0
   37.5260   25.8002    4.8189 N   0  0  0  0  0  0  0  0  0  0  0  0
   36.6179   25.1621   -1.3503 O   0  0  0  0  0  0  0  0  0  0  0  0
   38.7232   26.1829   -1.3207 C   0  0  1  0  0  0  0  0  0  0  0  0
   42.0647   23.5742    4.4025 N   0  0  0  0  0  0  0  0  0  0  0  0
   39.1054   25.4831   -0.0291 O   0  0  0  0  0  0  0  0  0  0  0  0
   39.4570   24.1644   -0.2012 C   0  0  1  0  0  0  0  0  0  0  0  0
   44.8891   24.0312    3.7667 N   0  0  0  0  0  0  0  0  0  0  0  0
   38.8666   23.2133    0.6403 O   0  0  0  0  0  0  0  0  0  0  0  0
   38.9919   23.2467    2.1367 C   0  0  2  0  0  0  0  0  0  0  0  0
   41.3201   20.1167    0.0851 N   0  0  0  0  0  0  0  0  0  0  0  0
   36.7762   24.3683    2.2929 O   0  0  0  0  0  0  0  0  0  0  0  0
   38.2000   24.4794    2.6647 C   0  0  1  0  0  0  0  0  0  0  0  0
   41.2003   22.2703    2.1163 O   0  0  0  0  0  0  0  0  0  0  0  0
   38.3144   24.5711    4.2681 C   0  0  1  0  0  0  0  0  0  0  0  0
   43.4787   22.7751    1.6477 O   0  0  0  0  0  0  0  0  0  0  0  0
   39.8574   24.6896    4.6360 C   0  0  0  0  0  0  0  0  0  0  0  0
   44.9840   19.8185    3.3398 O   0  0  0  0  0  0  0  0  0  0  0  0
   40.6146   23.4281    4.0460 C   0  0  1  0  0  0  0  0  0  0  0  0
   43.4902   18.5217    1.2804 O   0  0  0  0  0  0  0  0  0  0  0  0
   40.5237   23.3833    2.5539 C   0  0  2  0  0  0  0  0  0  0  0  0
   40.1852   22.9186   -2.1004 O   0  0  0  0  0  0  0  0  0  0  0  0
   42.2136   22.1920    1.0810 C   0  0  1  0  0  0  0  0  0  0  0  0
   40.8335   25.5828   -2.4792 O   0  0  0  0  0  0  0  0  0  0  0  0
   44.1018   22.0036    2.8031 C   0  0  2  0  0  0  0  0  0  0  0  0
   45.3533   22.7257    3.2887 C   0  0  0  0  0  0  0  0  0  0  0  0
   44.4243   20.5769    2.3017 C   0  0  2  0  0  0  0  0  0  0  0  0
   43.1716   19.8909    1.7826 C   0  0  1  0  0  0  0  0  0  0  0  0
   42.5772   20.7479    0.6496 C   0  0  1  0  0  0  0  0  0  0  0  0
   39.2890   23.8852   -1.6859 C   0  0  2  0  0  0  0  0  0  0  0  0
   39.4113   25.2897   -2.3595 C   0  0  1  0  0  0  0  0  0  0  0  0
  1  3  1  0  0  0  0
  4  1  1  6  0  0  0
  4  6  1  0  0  0  0
  4 31  1  0  0  0  0
  6  7  1  0  0  0  0
  7  9  1  1  0  0  0
  7 30  1  0  0  0  0
  8 26  1  0  0  0  0
 10  9  1  6  0  0  0
 10 13  1  0  0  0  0
 10 21  1  0  0  0  0
 13 12  1  1  0  0  0
 13 15  1  0  0  0  0
 15  2  1  6  0  0  0
 15 17  1  0  0  0  0
 16 25  1  0  0  0  0
 16 23  1  0  0  0  0
 17 19  1  0  0  0  0
 19  5  1  6  0  0  0
 19 21  1  0  0  0  0
 21 14  1  1  0  0  0
 23 14  1  1  0  0  0
 23 29  1  0  0  0  0
 25 26  1  6  0  0  0
 25 27  1  0  0  0  0
 27 18  1  1  0  0  0
 27 28  1  0  0  0  0
 28 20  1  6  0  0  0
 28 29  1  0  0  0  0
 29 11  1  1  0  0  0
 30 22  1  6  0  0  0
 30 31  1  0  0  0  0
 31 24  1  1  0  0  0
M  END
>  <CHROM.1>
-55.98017404,-58.93107418,68.50007885,74.36634745,112.24632768,62.19391470
40.75947628,23.26799450,1.36902757,-2.83230033,-0.64641569,1.46844229

>  <Name>
ligand

>  <RI>
0

>  <Rbt.Current_Directory>
/home/itssahil/PROJECTS/Mol_Feturizer/New_Systems/rnas/2ET5

>  <Rbt.Executable>
rbdock ($Id: //depot/dev/client3/rdock/2013.1/src/exe/rbdock.cxx#4 $)

>  <Rbt.Library>
libRbt.so (2013.1, Build901 2013/11/27)

>  <Rbt.Parameter_File>
/export/apps/rDock/src/rDock_2013.1_src/data/scripts/dock_solv.prm

>  <Rbt.Receptor>
prm/pocket_docking_3.prm

>  <SCORE>
-5.42752

>  <SCORE.INTER>
-4.90478

>  <SCORE.INTER.CONST>
1

>  <SCORE.INTER.POLAR>
0

>  <SCORE.INTER.ROT>
6

>  <SCORE.INTER.SOLV>
22.2886

>  <SCORE.INTER.VDW>
-18.2994

>  <SCORE.INTER.norm>
-0.158219

>  <SCORE.INTRA>
-0.522745

>  <SCORE.INTRA.DIHEDRAL>
-2.8162

>  <SCORE.INTRA.DIHEDRAL.0>
11.2357

>  <SCORE.INTRA.POLAR>
0

>  <SCORE.INTRA.POLAR.0>
0

>  <SCORE.INTRA.REPUL>
0

>  <SCORE.INTRA.REPUL.0>
0

>  <SCORE.INTRA.SOLV>
1.57825

>  <SCORE.INTRA.SOLV.lig_0>
-83.3092

>  <SCORE.INTRA.VDW>
0.0962334

>  <SCORE.INTRA.VDW.0>
-4.47057

>  <SCORE.INTRA.norm>
-0.0168627

>  <SCORE.RESTR>
0

>  <SCORE.RESTR.CAVITY>
0

>  <SCORE.RESTR.norm>
0

>  <SCORE.SYSTEM>
0

>  <SCORE.SYSTEM.CONST>
0

>  <SCORE.SYSTEM.DIHEDRAL>
0

>  <SCORE.SYSTEM.SOLV>
0

>  <SCORE.SYSTEM.norm>
0

>  <SCORE.heavy>
31

>  <SCORE.norm>
-0.175081

>  <RMSD>
5.180

$$$$
ligand
 OpenBabel11021811433D
libRbt.so/2013.1/901 2013/11/27
 31 33  0  0  0  0  0  0  0  0999 V2000
   37.4605   25.5435   -1.4468 C   0  0  0  0  0  0  0  0  0  0  0  0
   37.5961   25.9927    4.8495 N   0  0  0  0  0  0  0  0  0  0  0  0
   37.0269   24.2099   -1.1414 O   0  0  0  0  0  0  0  0  0  0  0  0
   38.9636   25.5226   -1.1817 C   0  0  1  0  0  0  0  0  0  0  0  0
   42.2962   24.0955    5.0462 N   0  0  0  0  0  0  0  0  0  0  0  0
   39.3586   25.0790    0.2152 O   0  0  0  0  0  0  0  0  0  0  0  0
   39.9007   23.8155    0.2584 C   0  0  1  0  0  0  0  0  0  0  0  0
   44.7686   25.2119    1.5222 N   0  0  0  0  0  0  0  0  0  0  0  0
   39.3976   22.9184    1.2089 O   0  0  0  0  0  0  0  0  0  0  0  0
   39.4169   23.1873    2.6864 C   0  0  2  0  0  0  0  0  0  0  0  0
   41.8216   19.5128    2.2810 N   0  0  0  0  0  0  0  0  0  0  0  0
   37.1232   24.1407    2.5386 O   0  0  0  0  0  0  0  0  0  0  0  0
   38.5068   24.4191    2.9696 C   0  0  1  0  0  0  0  0  0  0  0  0
   41.6839   22.3970    2.9452 O   0  0  0  0  0  0  0  0  0  0  0  0
   38.5039   24.7608    4.5431 C   0  0  1  0  0  0  0  0  0  0  0  0
   43.2266   22.8283    1.1849 O   0  0  0  0  0  0  0  0  0  0  0  0
   40.0060   25.0552    4.9759 C   0  0  0  0  0  0  0  0  0  0  0  0
   46.2691   21.5053    2.8770 O   0  0  0  0  0  0  0  0  0  0  0  0
   40.8877   23.7830    4.6341 C   0  0  1  0  0  0  0  0  0  0  0  0
   44.7134   19.1184    2.6857 O   0  0  0  0  0  0  0  0  0  0  0  0
   40.9031   23.5063    3.1645 C   0  0  2  0  0  0  0  0  0  0  0  0
   40.9122   22.4312   -1.3999 O   0  0  0  0  0  0  0  0  0  0  0  0
   42.1667   21.8822    1.6777 C   0  0  1  0  0  0  0  0  0  0  0  0
   41.2050   25.0797   -2.1493 O   0  0  0  0  0  0  0  0  0  0  0  0
   44.4892   22.9052    2.0325 C   0  0  2  0  0  0  0  0  0  0  0  0
   45.4536   23.9195    1.4288 C   0  0  0  0  0  0  0  0  0  0  0  0
   45.1100   21.4902    2.0881 C   0  0  2  0  0  0  0  0  0  0  0  0
   44.1180   20.4869    2.6525 C   0  0  1  0  0  0  0  0  0  0  0  0
   42.8556   20.4965    1.7706 C   0  0  1  0  0  0  0  0  0  0  0  0
   39.8660   23.3047   -1.1728 C   0  0  2  0  0  0  0  0  0  0  0  0
   39.8328   24.6007   -2.0449 C   0  0  1  0  0  0  0  0  0  0  0  0
  1  3  1  0  0  0  0
  4  1  1  6  0  0  0
  4  6  1  0  0  0  0
  4 31  1  0  0  0  0
  6  7  1  0  0  0  0
  7  9  1  1  0  0  0
  7 30  1  0  0  0  0
  8 26  1  0  0  0  0
 10  9  1  6  0  0  0
 10 13  1  0  0  0  0
 10 21  1  0  0  0  0
 13 12  1  1  0  0  0
 13 15  1  0  0  0  0
 15  2  1  6  0  0  0
 15 17  1  0  0  0  0
 16 25  1  0  0  0  0
 16 23  1  0  0  0  0
 17 19  1  0  0  0  0
 19  5  1  6  0  0  0
 19 21  1  0  0  0  0
 21 14  1  1  0  0  0
 23 14  1  1  0  0  0
 23 29  1  0  0  0  0
 25 26  1  6  0  0  0
 25 27  1  0  0  0  0
 27 18  1  1  0  0  0
 27 28  1  0  0  0  0
 28 20  1  6  0  0  0
 28 29  1  0  0  0  0
 29 11  1  1  0  0  0
 30 22  1  6  0  0  0
 30 31  1  0  0  0  0
 31 24  1  1  0  0  0
M  END
>  <CHROM.1>
-55.90401723,-58.58621129,64.26155559,71.55839786,72.88420234,64.02768027
41.15469100,23.31851182,1.63118341,-2.86301403,-0.47985077,1.59554221

>  <Name>
ligand

>  <RI>
0

>  <Rbt.Current_Directory>
/home/itssahil/PROJECTS/Mol_Feturizer/New_Systems/rnas/2ET5

>  <Rbt.Executable>
rbdock ($Id: //depot/dev/client3/rdock/2013.1/src/exe/rbdock.cxx#4 $)

>  <Rbt.Library>
libRbt.so (2013.1, Build901 2013/11/27)

>  <Rbt.Parameter_File>
/export/apps/rDock/src/rDock_2013.1_src/data/scripts/dock_solv.prm

>  <Rbt.Receptor>
prm/pocket_docking_5.prm

>  <SCORE>
-12.6889

>  <SCORE.INTER>
-7.04914

>  <SCORE.INTER.CONST>
1

>  <SCORE.INTER.POLAR>
0

>  <SCORE.INTER.ROT>
6

>  <SCORE.INTER.SOLV>
22.2315

>  <SCORE.INTER.VDW>
-19.7099

>  <SCORE.INTER.norm>
-0.227392

>  <SCORE.INTRA>
-5.63974

>  <SCORE.INTRA.DIHEDRAL>
-9.45475

>  <SCORE.INTRA.DIHEDRAL.0>
11.2357

>  <SCORE.INTRA.POLAR>
0

>  <SCORE.INTRA.POLAR.0>
0

>  <SCORE.INTRA.REPUL>
0

>  <SCORE.INTRA.REPUL.0>
0

>  <SCORE.INTRA.SOLV>
-2.80618

>  <SCORE.INTRA.SOLV.lig_0>
-83.3092

>  <SCORE.INTRA.VDW>
0.490729

>  <SCORE.INTRA.VDW.0>
-4.47057

>  <SCORE.INTRA.norm>
-0.181927

>  <SCORE.RESTR>
0

>  <SCORE.RESTR.CAVITY>
0

>  <SCORE.RESTR.norm>
0

>  <SCORE.SYSTEM>
0

>  <SCORE.SYSTEM.CONST>
0

>  <SCORE.SYSTEM.DIHEDRAL>
0

>  <SCORE.SYSTEM.SOLV>
0

>  <SCORE.SYSTEM.norm>
0

>  <SCORE.heavy>
31

>  <SCORE.norm>
-0.409319

>  <RMSD>
5.209

$$$$
ligand
 OpenBabel11021811433D
libRbt.so/2013.1/901 2013/11/27
 31 33  0  0  0  0  0  0  0  0999 V2000
   37.4345   25.5396   -1.4088 C   0  0  0  0  0  0  0  0  0  0  0  0
   37.5926   25.9739    4.8852 N   0  0  0  0  0  0  0  0  0  0  0  0
   37.0055   24.2028   -1.1110 O   0  0  0  0  0  0  0  0  0  0  0  0
   38.9386   25.5210   -1.1490 C   0  0  1  0  0  0  0  0  0  0  0  0
   42.2938   24.0778    5.0653 N   0  0  0  0  0  0  0  0  0  0  0  0
   39.3394   25.0739    0.2451 O   0  0  0  0  0  0  0  0  0  0  0  0
   39.8842   23.8114    0.2824 C   0  0  1  0  0  0  0  0  0  0  0  0
   44.7287   25.2292    1.5269 N   0  0  0  0  0  0  0  0  0  0  0  0
   39.3863   22.9103    1.2318 O   0  0  0  0  0  0  0  0  0  0  0  0
   39.4090   23.1751    2.7101 C   0  0  2  0  0  0  0  0  0  0  0  0
   41.8392   19.5028    2.2932 N   0  0  0  0  0  0  0  0  0  0  0  0
   37.1148   24.1282    2.5704 O   0  0  0  0  0  0  0  0  0  0  0  0
   38.4993   24.4058    2.9988 C   0  0  1  0  0  0  0  0  0  0  0  0
   41.6769   22.3848    2.9612 O   0  0  0  0  0  0  0  0  0  0  0  0
   38.5001   24.7432    4.5732 C   0  0  1  0  0  0  0  0  0  0  0  0
   43.2096   22.8325    1.1962 O   0  0  0  0  0  0  0  0  0  0  0  0
   40.0031   25.0369    5.0032 C   0  0  0  0  0  0  0  0  0  0  0  0
   46.2700   21.5359    2.8766 O   0  0  0  0  0  0  0  0  0  0  0  0
   40.8844   23.7659    4.6558 C   0  0  1  0  0  0  0  0  0  0  0  0
   44.7359   19.1348    2.6876 O   0  0  0  0  0  0  0  0  0  0  0  0
   40.8963   23.4932    3.1854 C   0  0  2  0  0  0  0  0  0  0  0  0
   40.8928   22.4344   -1.3837 O   0  0  0  0  0  0  0  0  0  0  0  0
   42.1602   21.8760    1.6915 C   0  0  1  0  0  0  0  0  0  0  0  0
   41.1774   25.0859   -2.1258 O   0  0  0  0  0  0  0  0  0  0  0  0
   44.4743   22.9201    2.0396 C   0  0  2  0  0  0  0  0  0  0  0  0
   45.4272   23.9441    1.4339 C   0  0  0  0  0  0  0  0  0  0  0  0
   45.1084   21.5109    2.0915 C   0  0  2  0  0  0  0  0  0  0  0  0
   44.1277   20.4978    2.6581 C   0  0  1  0  0  0  0  0  0  0  0  0
   42.8623   20.4966    1.7805 C   0  0  1  0  0  0  0  0  0  0  0  0
   39.8456   23.3050   -1.1503 C   0  0  2  0  0  0  0  0  0  0  0  0
   39.8067   24.6037   -2.0182 C   0  0  1  0  0  0  0  0  0  0  0  0
  1  3  1  0  0  0  0
  4  1  1  6  0  0  0
  4  6  1  0  0  0  0
  4 31  1  0  0  0  0
  6  7  1  0  0  0  0
  7  9  1  1  0  0  0
  7 30  1  0  0  0  0
  8 26  1  0  0  0  0
 10  9  1  6  0  0  0
 10 13  1  0  0  0  0
 10 21  1  0  0  0  0
 13 12  1  1  0  0  0
 13 15  1  0  0  0  0
 15  2  1  6  0  0  0
 15 17  1  0  0  0  0
 16 25  1  0  0  0  0
 16 23  1  0  0  0  0
 17 19  1  0  0  0  0
 19  5  1  6  0  0  0
 19 21  1  0  0  0  0
 21 14  1  1  0  0  0
 23 14  1  1  0  0  0
 23 29  1  0  0  0  0
 25 26  1  6  0  0  0
 25 27  1  0  0  0  0
 27 18  1  1  0  0  0
 27 28  1  0  0  0  0
 28 20  1  6  0  0  0
 28 29  1  0  0  0  0
 29 11  1  1  0  0  0
 30 22  1  6  0  0  0
 30 31  1  0  0  0  0
 31 24  1  1  0  0  0
M  END
>  <CHROM.1>
-56.11987187,-58.52788357,64.11955842,70.93293350,73.08907085,63.84129756
41.14444425,23.31719306,1.65039853,-2.86498301,-0.47667509,1.59697297

>  <Name>
ligand

>  <RI>
0

>  <Rbt.Current_Directory>
/home/itssahil/PROJECTS/Mol_Feturizer/New_Systems/rnas/2ET5

>  <Rbt.Executable>
rbdock ($Id: //depot/dev/client3/rdock/2013.1/src/exe/rbdock.cxx#4 $)

>  <Rbt.Library>
libRbt.so (2013.1, Build901 2013/11/27)

>  <Rbt.Parameter_File>
/export/apps/rDock/src/rDock_2013.1_src/data/scripts/dock_solv.prm

>  <Rbt.Receptor>
prm/pocket_docking_5.prm

>  <SCORE>
-12.7106

>  <SCORE.INTER>
-7.02383

>  <SCORE.INTER.CONST>
1

>  <SCORE.INTER.POLAR>
0

>  <SCORE.INTER.ROT>
6

>  <SCORE.INTER.SOLV>
22.3518

>  <SCORE.INTER.VDW>
-19.7332

>  <SCORE.INTER.norm>
-0.226575

>  <SCORE.INTRA>
-5.68673

>  <SCORE.INTRA.DIHEDRAL>
-9.51196

>  <SCORE.INTRA.DIHEDRAL.0>
11.2357

>  <SCORE.INTRA.POLAR>
0

>  <SCORE.INTRA.POLAR.0>
0

>  <SCORE.INTRA.REPUL>
0

>  <SCORE.INTRA.REPUL.0>
0

>  <SCORE.INTRA.SOLV>
-2.80261

>  <SCORE.INTRA.SOLV.lig_0>
-83.3092

>  <SCORE.INTRA.VDW>
0.47056

>  <SCORE.INTRA.VDW.0>
-4.47057

>  <SCORE.INTRA.norm>
-0.183443

>  <SCORE.RESTR>
0

>  <SCORE.RESTR.CAVITY>
0

>  <SCORE.RESTR.norm>
0

>  <SCORE.SYSTEM>
0

>  <SCORE.SYSTEM.CONST>
0

>  <SCORE.SYSTEM.DIHEDRAL>
0

>  <SCORE.SYSTEM.SOLV>
0

>  <SCORE.SYSTEM.norm>
0

>  <SCORE.heavy>
31

>  <SCORE.norm>
-0.410018

>  <RMSD>
5.210

$$$$
ligand
 OpenBabel11021811433D
libRbt.so/2013.1/901 2013/11/27
 31 33  0  0  0  0  0  0  0  0999 V2000
   37.4453   25.5147   -1.4649 C   0  0  0  0  0  0  0  0  0  0  0  0
   37.6276   26.0073    4.8623 N   0  0  0  0  0  0  0  0  0  0  0  0
   37.0072   24.1985   -1.0971 O   0  0  0  0  0  0  0  0  0  0  0  0
   38.9472   25.5035   -1.1925 C   0  0  1  0  0  0  0  0  0  0  0  0
   42.3096   24.0641    5.0398 N   0  0  0  0  0  0  0  0  0  0  0  0
   39.3378   25.0699    0.2088 O   0  0  0  0  0  0  0  0  0  0  0  0
   39.8866   23.8097    0.2617 C   0  0  1  0  0  0  0  0  0  0  0  0
   44.7205   25.2446    1.5568 N   0  0  0  0  0  0  0  0  0  0  0  0
   39.3837   22.9151    1.2147 O   0  0  0  0  0  0  0  0  0  0  0  0
   39.4117   23.1840    2.6921 C   0  0  2  0  0  0  0  0  0  0  0  0
   41.8630   19.4931    2.2656 N   0  0  0  0  0  0  0  0  0  0  0  0
   37.1270   24.1599    2.5537 O   0  0  0  0  0  0  0  0  0  0  0  0
   38.5150   24.4246    2.9789 C   0  0  1  0  0  0  0  0  0  0  0  0
   41.6719   22.3714    2.9417 O   0  0  0  0  0  0  0  0  0  0  0  0
   38.5220   24.7665    4.5523 C   0  0  1  0  0  0  0  0  0  0  0  0
   43.2202   22.8366    1.1948 O   0  0  0  0  0  0  0  0  0  0  0  0
   40.0287   25.0462    4.9789 C   0  0  0  0  0  0  0  0  0  0  0  0
   46.2719   21.5570    2.9038 O   0  0  0  0  0  0  0  0  0  0  0  0
   40.8964   23.7654    4.6336 C   0  0  1  0  0  0  0  0  0  0  0  0
   44.7579   19.1453    2.6902 O   0  0  0  0  0  0  0  0  0  0  0  0
   40.9030   23.4883    3.1640 C   0  0  2  0  0  0  0  0  0  0  0  0
   40.9136   22.4217   -1.3839 O   0  0  0  0  0  0  0  0  0  0  0  0
   42.1727   21.8707    1.6755 C   0  0  1  0  0  0  0  0  0  0  0  0
   41.1956   25.0675   -2.1467 O   0  0  0  0  0  0  0  0  0  0  0  0
   44.4751   22.9307    2.0522 C   0  0  2  0  0  0  0  0  0  0  0  0
   45.4267   23.9639    1.4603 C   0  0  0  0  0  0  0  0  0  0  0  0
   45.1191   21.5261    2.1062 C   0  0  2  0  0  0  0  0  0  0  0  0
   44.1399   20.5038    2.6587 C   0  0  1  0  0  0  0  0  0  0  0  0
   42.8841   20.4963    1.7674 C   0  0  1  0  0  0  0  0  0  0  0  0
   39.8616   23.2907   -1.1668 C   0  0  2  0  0  0  0  0  0  0  0  0
   39.8256   24.5816   -2.0463 C   0  0  1  0  0  0  0  0  0  0  0  0
  1  3  1  0  0  0  0
  4  1  1  6  0  0  0
  4  6  1  0  0  0  0
  4 31  1  0  0  0  0
  6  7  1  0  0  0  0
  7  9  1  1  0  0  0
  7 30  1  0  0  0  0
  8 26  1  0  0  0  0
 10  9  1  6  0  0  0
 10 13  1  0  0  0  0
 10 21  1  0  0  0  0
 13 12  1  1  0  0  0
 13 15  1  0  0  0  0
 15  2  1  6  0  0  0
 15 17  1  0  0  0  0
 16 25  1  0  0  0  0
 16 23  1  0  0  0  0
 17 19  1  0  0  0  0
 19  5  1  6  0  0  0
 19 21  1  0  0  0  0
 21 14  1  1  0  0  0
 23 14  1  1  0  0  0
 23 29  1  0  0  0  0
 25 26  1  6  0  0  0
 25 27  1  0  0  0  0
 27 18  1  1  0  0  0
 27 28  1  0  0  0  0
 28 20  1  6  0  0  0
 28 29  1  0  0  0  0
 29 11  1  1  0  0  0
 30 22  1  6  0  0  0
 30 31  1  0  0  0  0
 31 24  1  1  0  0  0
M  END
>  <CHROM.1>
-53.40209219,-59.46903908,63.98148522,69.49891794,74.59365794,64.13743608
41.15535432,23.31930953,1.63844990,-2.86308140,-0.47861569,1.58576273

>  <Name>
ligand

>  <RI>
0

>  <Rbt.Current_Directory>
/home/itssahil/PROJECTS/Mol_Feturizer/New_Systems/rnas/2ET5

>  <Rbt.Executable>
rbdock ($Id: //depot/dev/client3/rdock/2013.1/src/exe/rbdock.cxx#4 $)

>  <Rbt.Library>
libRbt.so (2013.1, Build901 2013/11/27)

>  <Rbt.Parameter_File>
/export/apps/rDock/src/rDock_2013.1_src/data/scripts/dock_solv.prm

>  <Rbt.Receptor>
prm/pocket_docking_5.prm

>  <SCORE>
-12.6968

>  <SCORE.INTER>
-7.0325

>  <SCORE.INTER.CONST>
1

>  <SCORE.INTER.POLAR>
0

>  <SCORE.INTER.ROT>
6

>  <SCORE.INTER.SOLV>
22.1836

>  <SCORE.INTER.VDW>
-19.6829

>  <SCORE.INTER.norm>
-0.226855

>  <SCORE.INTRA>
-5.66434

>  <SCORE.INTRA.DIHEDRAL>
-9.36488

>  <SCORE.INTRA.DIHEDRAL.0>
11.2357

>  <SCORE.INTRA.POLAR>
0

>  <SCORE.INTRA.POLAR.0>
0

>  <SCORE.INTRA.REPUL>
0

>  <SCORE.INTRA.REPUL.0>
0

>  <SCORE.INTRA.SOLV>
-2.74139

>  <SCORE.INTRA.SOLV.lig_0>
-83.3092

>  <SCORE.INTRA.VDW>
0.388791

>  <SCORE.INTRA.VDW.0>
-4.47057

>  <SCORE.INTRA.norm>
-0.182721

>  <SCORE.RESTR>
0

>  <SCORE.RESTR.CAVITY>
0

>  <SCORE.RESTR.norm>
0

>  <SCORE.SYSTEM>
0

>  <SCORE.SYSTEM.CONST>
0

>  <SCORE.SYSTEM.DIHEDRAL>
0

>  <SCORE.SYSTEM.SOLV>
0

>  <SCORE.SYSTEM.norm>
0

>  <SCORE.heavy>
31

>  <SCORE.norm>
-0.409576

>  <RMSD>
5.212

$$$$
ligand
 OpenBabel11021811433D
libRbt.so/2013.1/901 2013/11/27
 31 33  0  0  0  0  0  0  0  0999 V2000
   41.0357   22.7791   -2.5085 C   0  0  0  0  0  0  0  0  0  0  0  0
   37.7543   25.8741    5.0971 N   0  0  0  0  0  0  0  0  0  0  0  0
   40.1092   22.0286   -3.3071 O   0  0  0  0  0  0  0  0  0  0  0  0
   40.1964   23.9078   -1.9155 C   0  0  1  0  0  0  0  0  0  0  0  0
   42.5422   24.2000    5.0485 N   0  0  0  0  0  0  0  0  0  0  0  0
   39.1896   23.4707   -0.8671 O   0  0  0  0  0  0  0  0  0  0  0  0
   39.5457   23.8171    0.4156 C   0  0  1  0  0  0  0  0  0  0  0  0
   45.0806   25.1730    1.6235 N   0  0  0  0  0  0  0  0  0  0  0  0
   39.4877   22.8252    1.4026 O   0  0  0  0  0  0  0  0  0  0  0  0
   39.5787   23.1197    2.8726 C   0  0  2  0  0  0  0  0  0  0  0  0
   41.9103   19.5596    2.3154 N   0  0  0  0  0  0  0  0  0  0  0  0
   37.2380   23.9634    2.8442 O   0  0  0  0  0  0  0  0  0  0  0  0
   38.6293   24.3127    3.1904 C   0  0  1  0  0  0  0  0  0  0  0  0
   41.8915   22.4395    3.0111 O   0  0  0  0  0  0  0  0  0  0  0  0
   38.7002   24.6805    4.7563 C   0  0  1  0  0  0  0  0  0  0  0  0
   43.3964   22.8365    1.2103 O   0  0  0  0  0  0  0  0  0  0  0  0
   40.2090   25.0514    5.0972 C   0  0  0  0  0  0  0  0  0  0  0  0
   46.4394   21.3923    2.7995 O   0  0  0  0  0  0  0  0  0  0  0  0
   41.1287   23.8157    4.7232 C   0  0  1  0  0  0  0  0  0  0  0  0
   44.7973   19.0622    2.6311 O   0  0  0  0  0  0  0  0  0  0  0  0
   41.0731   23.5151    3.2593 C   0  0  2  0  0  0  0  0  0  0  0  0
   41.0434   25.4529    1.2933 O   0  0  0  0  0  0  0  0  0  0  0  0
   42.3192   21.9220    1.7250 C   0  0  1  0  0  0  0  0  0  0  0  0
   40.1769   26.2837   -1.2009 O   0  0  0  0  0  0  0  0  0  0  0  0
   44.6850   22.8611    2.0211 C   0  0  2  0  0  0  0  0  0  0  0  0
   45.6659   23.8482    1.3990 C   0  0  0  0  0  0  0  0  0  0  0  0
   45.2580   21.4252    2.0449 C   0  0  2  0  0  0  0  0  0  0  0  0
   44.2487   20.4506    2.6286 C   0  0  1  0  0  0  0  0  0  0  0  0
   42.9624   20.5126    1.7843 C   0  0  1  0  0  0  0  0  0  0  0  0
   40.8933   24.5098    0.2947 C   0  0  2  0  0  0  0  0  0  0  0  0
   40.9272   25.0349   -1.1765 C   0  0  1  0  0  0  0  0  0  0  0  0
  1  3  1  0  0  0  0
  4  1  1  1  0  0  0
  4  6  1  0  0  0  0
  4 31  1  0  0  0  0
  6  7  1  0  0  0  0
  7  9  1  1  0  0  0
  7 30  1  0  0  0  0
  8 26  1  0  0  0  0
 10  9  1  6  0  0  0
 10 13  1  0  0  0  0
 10 21  1  0  0  0  0
 13 12  1  1  0  0  0
 13 15  1  0  0  0  0
 15  2  1  6  0  0  0
 15 17  1  0  0  0  0
 16 25  1  0  0  0  0
 16 23  1  0  0  0  0
 17 19  1  0  0  0  0
 19  5  1  6  0  0  0
 19 21  1  0  0  0  0
 21 14  1  1  0  0  0
 23 14  1  1  0  0  0
 23 29  1  0  0  0  0
 25 26  1  6  0  0  0
 25 27  1  0  0  0  0
 27 18  1  1  0  0  0
 27 28  1  0  0  0  0
 28 20  1  6  0  0  0
 28 29  1  0  0  0  0
 29 11  1  1  0  0  0
 30 22  1  1  0  0  0
 30 31  1  0  0  0  0
 31 24  1  1  0  0  0
M  END
>  <CHROM.1>
70.14770810,-167.35127632,46.66124318,76.90525066,72.53336159,68.56476739
41.54777003,23.22141183,1.71878381,-3.07062358,-0.50585096,1.50638075

>  <Name>
ligand

>  <RI>
0

>  <Rbt.Current_Directory>
/home/itssahil/PROJECTS/Mol_Feturizer/New_Systems/rnas/2ET5

>  <Rbt.Executable>
rbdock ($Id: //depot/dev/client3/rdock/2013.1/src/exe/rbdock.cxx#4 $)

>  <Rbt.Library>
libRbt.so (2013.1, Build901 2013/11/27)

>  <Rbt.Parameter_File>
/export/apps/rDock/src/rDock_2013.1_src/data/scripts/dock_solv.prm

>  <Rbt.Receptor>
prm/pocket_docking_4.prm

>  <SCORE>
-12.1552

>  <SCORE.INTER>
-8.06903

>  <SCORE.INTER.CONST>
1

>  <SCORE.INTER.POLAR>
0

>  <SCORE.INTER.ROT>
6

>  <SCORE.INTER.SOLV>
23.0187

>  <SCORE.INTER.VDW>
-20.6522

>  <SCORE.INTER.norm>
-0.260291

>  <SCORE.INTRA>
-4.08617

>  <SCORE.INTRA.DIHEDRAL>
-6.82745

>  <SCORE.INTRA.DIHEDRAL.0>
11.2357

>  <SCORE.INTRA.POLAR>
0

>  <SCORE.INTRA.POLAR.0>
0

>  <SCORE.INTRA.REPUL>
0

>  <SCORE.INTRA.REPUL.0>
0

>  <SCORE.INTRA.SOLV>
-2.5509

>  <SCORE.INTRA.SOLV.lig_0>
-83.3092

>  <SCORE.INTRA.VDW>
0.603011

>  <SCORE.INTRA.VDW.0>
-4.47057

>  <SCORE.INTRA.norm>
-0.131812

>  <SCORE.RESTR>
0

>  <SCORE.RESTR.CAVITY>
0

>  <SCORE.RESTR.norm>
0

>  <SCORE.SYSTEM>
0

>  <SCORE.SYSTEM.CONST>
0

>  <SCORE.SYSTEM.DIHEDRAL>
0

>  <SCORE.SYSTEM.SOLV>
0

>  <SCORE.SYSTEM.norm>
0

>  <SCORE.heavy>
31

>  <SCORE.norm>
-0.392103

>  <RMSD>
5.234

$$$$
ligand
 OpenBabel11021811433D
libRbt.so/2013.1/901 2013/11/27
 31 33  0  0  0  0  0  0  0  0999 V2000
   39.5859   26.2121   -2.9183 C   0  0  0  0  0  0  0  0  0  0  0  0
   37.3532   26.0259    2.9323 N   0  0  0  0  0  0  0  0  0  0  0  0
   38.8899   27.1736   -2.1117 O   0  0  0  0  0  0  0  0  0  0  0  0
   40.8639   25.9173   -2.1373 C   0  0  1  0  0  0  0  0  0  0  0  0
   41.3416   23.3618    4.5826 N   0  0  0  0  0  0  0  0  0  0  0  0
   40.6475   25.2741   -0.7796 O   0  0  0  0  0  0  0  0  0  0  0  0
   40.9845   23.9410   -0.7425 C   0  0  1  0  0  0  0  0  0  0  0  0
   44.3575   25.1440    1.2664 N   0  0  0  0  0  0  0  0  0  0  0  0
   40.0601   23.0462   -0.1893 O   0  0  0  0  0  0  0  0  0  0  0  0
   39.5309   23.1695    1.2109 C   0  0  2  0  0  0  0  0  0  0  0  0
   42.0477   19.1274    1.7743 N   0  0  0  0  0  0  0  0  0  0  0  0
   37.6081   24.5016    0.3623 O   0  0  0  0  0  0  0  0  0  0  0  0
   38.7348   24.5041    1.3152 C   0  0  1  0  0  0  0  0  0  0  0  0
   41.4051   21.9918    2.1757 O   0  0  0  0  0  0  0  0  0  0  0  0
   38.1563   24.6937    2.8059 C   0  0  1  0  0  0  0  0  0  0  0  0
   43.2375   22.5526    0.7640 O   0  0  0  0  0  0  0  0  0  0  0  0
   39.3923   24.6921    3.8072 C   0  0  0  0  0  0  0  0  0  0  0  0
   45.9631   21.7410    3.1689 O   0  0  0  0  0  0  0  0  0  0  0  0
   40.1807   23.3281    3.6326 C   0  0  1  0  0  0  0  0  0  0  0  0
   44.8008   19.1556    2.8239 O   0  0  0  0  0  0  0  0  0  0  0  0
   40.7376   23.1904    2.2514 C   0  0  2  0  0  0  0  0  0  0  0  0
   42.3827   22.5865   -2.1209 O   0  0  0  0  0  0  0  0  0  0  0  0
   42.2207   21.4921    1.0849 C   0  0  1  0  0  0  0  0  0  0  0  0
   43.2381   25.2136   -2.2910 O   0  0  0  0  0  0  0  0  0  0  0  0
   44.2578   22.8416    1.8568 C   0  0  2  0  0  0  0  0  0  0  0  0
   45.1986   23.9514    1.4023 C   0  0  0  0  0  0  0  0  0  0  0  0
   45.0220   21.5301    2.1510 C   0  0  2  0  0  0  0  0  0  0  0  0
   44.0619   20.4257    2.5606 C   0  0  1  0  0  0  0  0  0  0  0  0
   43.0388   20.2207    1.4280 C   0  0  1  0  0  0  0  0  0  0  0  0
   41.4357   23.5922   -2.1515 C   0  0  2  0  0  0  0  0  0  0  0  0
   41.8835   24.9585   -2.7631 C   0  0  1  0  0  0  0  0  0  0  0  0
  1  3  1  0  0  0  0
  4  1  1  6  0  0  0
  4  6  1  0  0  0  0
  4 31  1  0  0  0  0
  6  7  1  0  0  0  0
  7  9  1  6  0  0  0
  7 30  1  0  0  0  0
  8 26  1  0  0  0  0
 10  9  1  6  0  0  0
 10 13  1  0  0  0  0
 10 21  1  0  0  0  0
 13 12  1  6  0  0  0
 13 15  1  0  0  0  0
 15  2  1  6  0  0  0
 15 17  1  0  0  0  0
 16 25  1  0  0  0  0
 16 23  1  0  0  0  0
 17 19  1  0  0  0  0
 19  5  1  1  0  0  0
 19 21  1  0  0  0  0
 21 14  1  1  0  0  0
 23 14  1  1  0  0  0
 23 29  1  0  0  0  0
 25 26  1  6  0  0  0
 25 27  1  0  0  0  0
 27 18  1  1  0  0  0
 27 28  1  0  0  0  0
 28 20  1  6  0  0  0
 28 29  1  0  0  0  0
 29 11  1  1  0  0  0
 30 22  1  1  0  0  0
 30 31  1  0  0  0  0
 31 24  1  1  0  0  0
M  END
>  <CHROM.1>
63.51385750,-57.45467260,63.43157401,52.53202099,69.06846897,64.79690700
41.58176859,23.41024012,0.84383197,-2.41282966,-0.47651284,2.05434655

>  <Name>
ligand

>  <RI>
0

>  <Rbt.Current_Directory>
/home/itssahil/PROJECTS/Mol_Feturizer/New_Systems/rnas/2ET5

>  <Rbt.Executable>
rbdock ($Id: //depot/dev/client3/rdock/2013.1/src/exe/rbdock.cxx#4 $)

>  <Rbt.Library>
libRbt.so (2013.1, Build901 2013/11/27)

>  <Rbt.Parameter_File>
/export/apps/rDock/src/rDock_2013.1_src/data/scripts/dock_solv.prm

>  <Rbt.Receptor>
prm/pocket_docking_6.prm

>  <SCORE>
-10.6361

>  <SCORE.INTER>
-4.37767

>  <SCORE.INTER.CONST>
1

>  <SCORE.INTER.POLAR>
0

>  <SCORE.INTER.ROT>
6

>  <SCORE.INTER.SOLV>
19.3749

>  <SCORE.INTER.VDW>
-16.9768

>  <SCORE.INTER.norm>
-0.141215

>  <SCORE.INTRA>
-6.25839

>  <SCORE.INTRA.DIHEDRAL>
-10.2092

>  <SCORE.INTRA.DIHEDRAL.0>
11.2357

>  <SCORE.INTRA.POLAR>
0

>  <SCORE.INTRA.POLAR.0>
0

>  <SCORE.INTRA.REPUL>
0

>  <SCORE.INTRA.REPUL.0>
0

>  <SCORE.INTRA.SOLV>
-2.33666

>  <SCORE.INTRA.SOLV.lig_0>
-83.3092

>  <SCORE.INTRA.VDW>
0.0145288

>  <SCORE.INTRA.VDW.0>
-4.47057

>  <SCORE.INTRA.norm>
-0.201884

>  <SCORE.RESTR>
0

>  <SCORE.RESTR.CAVITY>
0

>  <SCORE.RESTR.norm>
0

>  <SCORE.SYSTEM>
0

>  <SCORE.SYSTEM.CONST>
0

>  <SCORE.SYSTEM.DIHEDRAL>
0

>  <SCORE.SYSTEM.SOLV>
0

>  <SCORE.SYSTEM.norm>
0

>  <SCORE.heavy>
31

>  <SCORE.norm>
-0.343099

>  <RMSD>
5.238

$$$$
ligand
 OpenBabel11021811433D
libRbt.so/2013.1/901 2013/11/27
 31 33  0  0  0  0  0  0  0  0999 V2000
   36.2316   25.4076    4.8619 C   0  0  0  0  0  0  0  0  0  0  0  0
   42.4714   25.9490    7.0862 N   0  0  0  0  0  0  0  0  0  0  0  0
   36.6471   25.9938    6.1042 O   0  0  0  0  0  0  0  0  0  0  0  0
   37.2169   25.9594    3.8349 C   0  0  1  0  0  0  0  0  0  0  0  0
   44.6110   23.9706    2.9346 N   0  0  0  0  0  0  0  0  0  0  0  0
   38.6573   25.5246    4.0355 O   0  0  0  0  0  0  0  0  0  0  0  0
   39.0845   24.5952    3.1157 C   0  0  1  0  0  0  0  0  0  0  0  0
   40.6763   25.5253   -0.5653 N   0  0  0  0  0  0  0  0  0  0  0  0
   39.7319   23.4492    3.5940 O   0  0  0  0  0  0  0  0  0  0  0  0
   41.0609   23.4851    4.2928 C   0  0  2  0  0  0  0  0  0  0  0  0
   42.0894   19.7082    1.9032 N   0  0  0  0  0  0  0  0  0  0  0  0
   39.9758   24.4859    6.2959 O   0  0  0  0  0  0  0  0  0  0  0  0
   41.0495   24.6721    5.3009 C   0  0  1  0  0  0  0  0  0  0  0  0
   42.2530   22.6285    2.3755 O   0  0  0  0  0  0  0  0  0  0  0  0
   42.4616   24.7655    6.0690 C   0  0  1  0  0  0  0  0  0  0  0  0
   40.5644   22.9424    0.7277 O   0  0  0  0  0  0  0  0  0  0  0  0
   43.5957   24.9654    4.9718 C   0  0  0  0  0  0  0  0  0  0  0  0
   42.6732   22.2425   -2.2612 O   0  0  0  0  0  0  0  0  0  0  0  0
   43.5369   23.7480    3.9584 C   0  0  1  0  0  0  0  0  0  0  0  0
   42.7667   19.7001   -0.9644 O   0  0  0  0  0  0  0  0  0  0  0  0
   42.2303   23.7025    3.2324 C   0  0  2  0  0  0  0  0  0  0  0  0
   38.2964   23.9819    0.9496 O   0  0  0  0  0  0  0  0  0  0  0  0
   41.1279   21.9761    1.7327 C   0  0  1  0  0  0  0  0  0  0  0  0
   37.5531   26.5986    1.4613 O   0  0  0  0  0  0  0  0  0  0  0  0
   41.4785   23.2891   -0.4397 C   0  0  2  0  0  0  0  0  0  0  0  0
   40.7875   24.2946   -1.3535 C   0  0  0  0  0  0  0  0  0  0  0  0
   41.8143   21.9768   -1.1852 C   0  0  2  0  0  0  0  0  0  0  0  0
   42.4627   20.9731   -0.2464 C   0  0  1  0  0  0  0  0  0  0  0  0
   41.5005   20.7058    0.9258 C   0  0  1  0  0  0  0  0  0  0  0  0
   37.8844   24.3175    2.2250 C   0  0  2  0  0  0  0  0  0  0  0  0
   36.9976   25.5967    2.3616 C   0  0  1  0  0  0  0  0  0  0  0  0
  1  3  1  0  0  0  0
  4  1  1  1  0  0  0
  4  6  1  0  0  0  0
  4 31  1  0  0  0  0
  6  7  1  0  0  0  0
  7  9  1  1  0  0  0
  7 30  1  0  0  0  0
  8 26  1  0  0  0  0
 10  9  1  6  0  0  0
 10 13  1  0  0  0  0
 10 21  1  0  0  0  0
 13 12  1  1  0  0  0
 13 15  1  0  0  0  0
 15  2  1  1  0  0  0
 15 17  1  0  0  0  0
 16 25  1  0  0  0  0
 16 23  1  0  0  0  0
 17 19  1  0  0  0  0
 19  5  1  6  0  0  0
 19 21  1  0  0  0  0
 21 14  1  6  0  0  0
 23 14  1  6  0  0  0
 23 29  1  0  0  0  0
 25 26  1  6  0  0  0
 25 27  1  0  0  0  0
 27 18  1  6  0  0  0
 27 28  1  0  0  0  0
 28 20  1  6  0  0  0
 28 29  1  0  0  0  0
 29 11  1  1  0  0  0
 30 22  1  6  0  0  0
 30 31  1  0  0  0  0
 31 24  1  6  0  0  0
M  END
>  <CHROM.1>
64.66116377,-65.26550896,43.33659531,68.59740188,44.50367149,66.86601009
40.59368122,23.78453426,2.48225597,2.13739467,-0.42514287,1.19947752

>  <Name>
ligand

>  <RI>
0

>  <Rbt.Current_Directory>
/home/itssahil/PROJECTS/Mol_Feturizer/New_Systems/rnas/2ET5

>  <Rbt.Executable>
rbdock ($Id: //depot/dev/client3/rdock/2013.1/src/exe/rbdock.cxx#4 $)

>  <Rbt.Library>
libRbt.so (2013.1, Build901 2013/11/27)

>  <Rbt.Parameter_File>
/export/apps/rDock/src/rDock_2013.1_src/data/scripts/dock_solv.prm

>  <Rbt.Receptor>
prm/pocket_docking_3.prm

>  <SCORE>
-7.087

>  <SCORE.INTER>
-3.85

>  <SCORE.INTER.CONST>
1

>  <SCORE.INTER.POLAR>
0

>  <SCORE.INTER.ROT>
6

>  <SCORE.INTER.SOLV>
20.1967

>  <SCORE.INTER.VDW>
-16.8989

>  <SCORE.INTER.norm>
-0.124194

>  <SCORE.INTRA>
-3.237

>  <SCORE.INTRA.DIHEDRAL>
-7.95385

>  <SCORE.INTRA.DIHEDRAL.0>
11.2357

>  <SCORE.INTRA.POLAR>
0

>  <SCORE.INTRA.POLAR.0>
0

>  <SCORE.INTRA.REPUL>
0

>  <SCORE.INTRA.REPUL.0>
0

>  <SCORE.INTRA.SOLV>
-1.65729

>  <SCORE.INTRA.SOLV.lig_0>
-83.3092

>  <SCORE.INTRA.VDW>
1.56858

>  <SCORE.INTRA.VDW.0>
-4.47057

>  <SCORE.INTRA.norm>
-0.104419

>  <SCORE.RESTR>
0

>  <SCORE.RESTR.CAVITY>
0

>  <SCORE.RESTR.norm>
0

>  <SCORE.SYSTEM>
0

>  <SCORE.SYSTEM.CONST>
0

>  <SCORE.SYSTEM.DIHEDRAL>
0

>  <SCORE.SYSTEM.SOLV>
0

>  <SCORE.SYSTEM.norm>
0

>  <SCORE.heavy>
31

>  <SCORE.norm>
-0.228613

>  <RMSD>
5.246

$$$$
ligand
 OpenBabel11021811433D
libRbt.so/2013.1/901 2013/11/27
 31 33  0  0  0  0  0  0  0  0999 V2000
   37.5654   25.3415   -1.8440 C   0  0  0  0  0  0  0  0  0  0  0  0
   37.5390   26.0830    4.5712 N   0  0  0  0  0  0  0  0  0  0  0  0
   37.5390   25.7491   -3.2198 O   0  0  0  0  0  0  0  0  0  0  0  0
   39.0478   25.3337   -1.4801 C   0  0  1  0  0  0  0  0  0  0  0  0
   42.1570   24.0176    4.9412 N   0  0  0  0  0  0  0  0  0  0  0  0
   39.3490   24.9592   -0.0403 O   0  0  0  0  0  0  0  0  0  0  0  0
   39.8831   23.6994    0.1002 C   0  0  1  0  0  0  0  0  0  0  0  0
   44.6336   25.1024    1.4660 N   0  0  0  0  0  0  0  0  0  0  0  0
   39.3158   22.8499    1.0584 O   0  0  0  0  0  0  0  0  0  0  0  0
   39.3072   23.1562    2.5287 C   0  0  2  0  0  0  0  0  0  0  0  0
   41.7261   19.3880    2.2964 N   0  0  0  0  0  0  0  0  0  0  0  0
   37.0560   24.1904    2.2957 O   0  0  0  0  0  0  0  0  0  0  0  0
   38.4376   24.4280    2.7564 C   0  0  1  0  0  0  0  0  0  0  0  0
   41.5351   22.2889    2.8679 O   0  0  0  0  0  0  0  0  0  0  0  0
   38.4070   24.8105    4.3202 C   0  0  1  0  0  0  0  0  0  0  0  0
   43.1222   22.6865    1.1393 O   0  0  0  0  0  0  0  0  0  0  0  0
   39.9075   25.0598    4.7856 C   0  0  0  0  0  0  0  0  0  0  0  0
   46.1307   21.4542    2.9563 O   0  0  0  0  0  0  0  0  0  0  0  0
   40.7487   23.7472    4.4996 C   0  0  1  0  0  0  0  0  0  0  0  0
   44.6096   19.0430    2.7943 O   0  0  0  0  0  0  0  0  0  0  0  0
   40.7916   23.4319    3.0383 C   0  0  2  0  0  0  0  0  0  0  0  0
   40.9968   22.2354   -1.4184 O   0  0  0  0  0  0  0  0  0  0  0  0
   42.0600   21.7423    1.6308 C   0  0  1  0  0  0  0  0  0  0  0  0
   41.3464   24.8440   -2.2756 O   0  0  0  0  0  0  0  0  0  0  0  0
   44.3591   22.8050    2.0194 C   0  0  2  0  0  0  0  0  0  0  0  0
   45.3282   23.8129    1.4124 C   0  0  0  0  0  0  0  0  0  0  0  0
   44.9949   21.4004    2.1358 C   0  0  2  0  0  0  0  0  0  0  0  0
   43.9991   20.4022    2.7025 C   0  0  1  0  0  0  0  0  0  0  0  0
   42.7625   20.3689    1.7855 C   0  0  1  0  0  0  0  0  0  0  0  0
   39.9407   23.1190   -1.3035 C   0  0  2  0  0  0  0  0  0  0  0  0
   39.9689   24.3707   -2.2383 C   0  0  1  0  0  0  0  0  0  0  0  0
  1  3  1  0  0  0  0
  4  1  1  6  0  0  0
  4  6  1  0  0  0  0
  4 31  1  0  0  0  0
  6  7  1  0  0  0  0
  7  9  1  1  0  0  0
  7 30  1  0  0  0  0
  8 26  1  0  0  0  0
 10  9  1  6  0  0  0
 10 13  1  0  0  0  0
 10 21  1  0  0  0  0
 13 12  1  1  0  0  0
 13 15  1  0  0  0  0
 15  2  1  6  0  0  0
 15 17  1  0  0  0  0
 16 25  1  0  0  0  0
 16 23  1  0  0  0  0
 17 19  1  0  0  0  0
 19  5  1  6  0  0  0
 19 21  1  0  0  0  0
 21 14  1  1  0  0  0
 23 14  1  1  0  0  0
 23 29  1  0  0  0  0
 25 26  1  6  0  0  0
 25 27  1  0  0  0  0
 27 18  1  1  0  0  0
 27 28  1  0  0  0  0
 28 20  1  6  0  0  0
 28 29  1  0  0  0  0
 29 11  1  1  0  0  0
 30 22  1  1  0  0  0
 30 31  1  0  0  0  0
 31 24  1  1  0  0  0
M  END
>  <CHROM.1>
178.66461775,-62.09977774,64.59585907,67.95326193,74.63675514,64.88493103
41.11633572,23.28352220,1.44969040,-2.71626358,-0.52118943,1.63347419

>  <Name>
ligand

>  <RI>
0

>  <Rbt.Current_Directory>
/home/itssahil/PROJECTS/Mol_Feturizer/New_Systems/rnas/2ET5

>  <Rbt.Executable>
rbdock ($Id: //depot/dev/client3/rdock/2013.1/src/exe/rbdock.cxx#4 $)

>  <Rbt.Library>
libRbt.so (2013.1, Build901 2013/11/27)

>  <Rbt.Parameter_File>
/export/apps/rDock/src/rDock_2013.1_src/data/scripts/dock_solv.prm

>  <Rbt.Receptor>
prm/pocket_docking_7.prm

>  <SCORE>
-12.5533

>  <SCORE.INTER>
-6.6711

>  <SCORE.INTER.CONST>
1

>  <SCORE.INTER.POLAR>
0

>  <SCORE.INTER.ROT>
6

>  <SCORE.INTER.SOLV>
22.5062

>  <SCORE.INTER.VDW>
-19.5495

>  <SCORE.INTER.norm>
-0.215197

>  <SCORE.INTRA>
-5.91295

>  <SCORE.INTRA.DIHEDRAL>
-9.56801

>  <SCORE.INTRA.DIHEDRAL.0>
11.2357

>  <SCORE.INTRA.POLAR>
0

>  <SCORE.INTRA.POLAR.0>
0

>  <SCORE.INTRA.REPUL>
0

>  <SCORE.INTRA.REPUL.0>
0

>  <SCORE.INTRA.SOLV>
-3.47915

>  <SCORE.INTRA.SOLV.lig_0>
-83.3092

>  <SCORE.INTRA.VDW>
0.610627

>  <SCORE.INTRA.VDW.0>
-4.47057

>  <SCORE.INTRA.norm>
-0.19074

>  <SCORE.RESTR>
0.0307352

>  <SCORE.RESTR.CAVITY>
0.0307352

>  <SCORE.RESTR.norm>
0.000991459

>  <SCORE.SYSTEM>
0

>  <SCORE.SYSTEM.CONST>
0

>  <SCORE.SYSTEM.DIHEDRAL>
0

>  <SCORE.SYSTEM.SOLV>
0

>  <SCORE.SYSTEM.norm>
0

>  <SCORE.heavy>
31

>  <SCORE.norm>
-0.404946

>  <RMSD>
5.296

$$$$
ligand
 OpenBabel11021811433D
libRbt.so/2013.1/901 2013/11/27
 31 33  0  0  0  0  0  0  0  0999 V2000
   37.4092   25.3383   -2.0093 C   0  0  0  0  0  0  0  0  0  0  0  0
   37.3187   26.1406    4.3145 N   0  0  0  0  0  0  0  0  0  0  0  0
   37.4067   25.7198   -3.3928 O   0  0  0  0  0  0  0  0  0  0  0  0
   38.8873   25.3011   -1.6298 C   0  0  1  0  0  0  0  0  0  0  0  0
   41.8140   23.8619    4.8876 N   0  0  0  0  0  0  0  0  0  0  0  0
   39.1660   24.9133   -0.1889 O   0  0  0  0  0  0  0  0  0  0  0  0
   39.6752   23.6431   -0.0498 C   0  0  1  0  0  0  0  0  0  0  0  0
   44.1038   25.1764    1.4304 N   0  0  0  0  0  0  0  0  0  0  0  0
   39.0821   22.7992    0.8976 O   0  0  0  0  0  0  0  0  0  0  0  0
   39.0277   23.1173    2.3644 C   0  0  2  0  0  0  0  0  0  0  0  0
   41.6574   19.2569    2.3465 N   0  0  0  0  0  0  0  0  0  0  0  0
   36.8398   24.2550    2.0323 O   0  0  0  0  0  0  0  0  0  0  0  0
   38.2111   24.4306    2.5484 C   0  0  1  0  0  0  0  0  0  0  0  0
   41.1960   22.1482    2.8007 O   0  0  0  0  0  0  0  0  0  0  0  0
   38.1346   24.8265    4.1072 C   0  0  1  0  0  0  0  0  0  0  0  0
   42.8108   22.6226    1.1177 O   0  0  0  0  0  0  0  0  0  0  0  0
   39.6249   25.0083    4.6328 C   0  0  0  0  0  0  0  0  0  0  0  0
   45.8391   21.7203    3.0890 O   0  0  0  0  0  0  0  0  0  0  0  0
   40.4137   23.6550    4.3897 C   0  0  1  0  0  0  0  0  0  0  0  0
   44.5378   19.1816    2.9625 O   0  0  0  0  0  0  0  0  0  0  0  0
   40.5014   23.3264    2.9333 C   0  0  2  0  0  0  0  0  0  0  0  0
   40.7777   22.1668   -1.5646 O   0  0  0  0  0  0  0  0  0  0  0  0
   41.8146   21.6070    1.6052 C   0  0  1  0  0  0  0  0  0  0  0  0
   41.1847   24.7731   -2.4036 O   0  0  0  0  0  0  0  0  0  0  0  0
   43.9969   22.8786    2.0375 C   0  0  2  0  0  0  0  0  0  0  0  0
   44.8995   23.9455    1.4287 C   0  0  0  0  0  0  0  0  0  0  0  0
   44.7456   21.5396    2.2301 C   0  0  2  0  0  0  0  0  0  0  0  0
   43.8172   20.4785    2.7972 C   0  0  1  0  0  0  0  0  0  0  0  0
   42.6254   20.3061    1.8373 C   0  0  1  0  0  0  0  0  0  0  0  0
   39.7370   23.0692   -1.4560 C   0  0  2  0  0  0  0  0  0  0  0  0
   39.7983   24.3252   -2.3835 C   0  0  1  0  0  0  0  0  0  0  0  0
  1  3  1  0  0  0  0
  4  1  1  6  0  0  0
  4  6  1  0  0  0  0
  4 31  1  0  0  0  0
  6  7  1  0  0  0  0
  7  9  1  1  0  0  0
  7 30  1  0  0  0  0
  8 26  1  0  0  0  0
 10  9  1  6  0  0  0
 10 13  1  0  0  0  0
 10 21  1  0  0  0  0
 13 12  1  1  0  0  0
 13 15  1  0  0  0  0
 15  2  1  6  0  0  0
 15 17  1  0  0  0  0
 16 25  1  0  0  0  0
 16 23  1  0  0  0  0
 17 19  1  0  0  0  0
 19  5  1  6  0  0  0
 19 21  1  0  0  0  0
 21 14  1  1  0  0  0
 23 14  1  1  0  0  0
 23 29  1  0  0  0  0
 25 26  1  6  0  0  0
 25 27  1  0  0  0  0
 27 18  1  1  0  0  0
 27 28  1  0  0  0  0
 28 20  1  6  0  0  0
 28 29  1  0  0  0  0
 29 11  1  1  0  0  0
 30 22  1  1  0  0  0
 30 31  1  0  0  0  0
 31 24  1  1  0  0  0
M  END
>  <CHROM.1>
-179.88017828,-60.22958127,61.59694513,58.26447824,78.73918088,65.87741258
40.87506054,23.27185028,1.36689765,-2.65640300,-0.52241421,1.63790638

>  <Name>
ligand

>  <RI>
0

>  <Rbt.Current_Directory>
/home/itssahil/PROJECTS/Mol_Feturizer/New_Systems/rnas/2ET5

>  <Rbt.Executable>
rbdock ($Id: //depot/dev/client3/rdock/2013.1/src/exe/rbdock.cxx#4 $)

>  <Rbt.Library>
libRbt.so (2013.1, Build901 2013/11/27)

>  <Rbt.Parameter_File>
/export/apps/rDock/src/rDock_2013.1_src/data/scripts/dock_solv.prm

>  <Rbt.Receptor>
prm/pocket_docking_2.prm

>  <SCORE>
-8.53937

>  <SCORE.INTER>
-4.80451

>  <SCORE.INTER.CONST>
1

>  <SCORE.INTER.POLAR>
0

>  <SCORE.INTER.ROT>
6

>  <SCORE.INTER.SOLV>
22.9059

>  <SCORE.INTER.VDW>
-18.4383

>  <SCORE.INTER.norm>
-0.154984

>  <SCORE.INTRA>
-5.74266

>  <SCORE.INTRA.DIHEDRAL>
-9.34826

>  <SCORE.INTRA.DIHEDRAL.0>
11.2357

>  <SCORE.INTRA.POLAR>
0

>  <SCORE.INTRA.POLAR.0>
0

>  <SCORE.INTRA.REPUL>
0

>  <SCORE.INTRA.REPUL.0>
0

>  <SCORE.INTRA.SOLV>
-3.11361

>  <SCORE.INTRA.SOLV.lig_0>
-83.3092

>  <SCORE.INTRA.VDW>
0.488276

>  <SCORE.INTRA.VDW.0>
-4.47057

>  <SCORE.INTRA.norm>
-0.185247

>  <SCORE.RESTR>
2.00779

>  <SCORE.RESTR.CAVITY>
2.00779

>  <SCORE.RESTR.norm>
0.0647675

>  <SCORE.SYSTEM>
0

>  <SCORE.SYSTEM.CONST>
0

>  <SCORE.SYSTEM.DIHEDRAL>
0

>  <SCORE.SYSTEM.SOLV>
0

>  <SCORE.SYSTEM.norm>
0

>  <SCORE.heavy>
31

>  <SCORE.norm>
-0.275464

>  <RMSD>
5.302

$$$$
ligand
 OpenBabel11021811433D
libRbt.so/2013.1/901 2013/11/27
 31 33  0  0  0  0  0  0  0  0999 V2000
   37.9858   25.9109   -2.0876 C   0  0  0  0  0  0  0  0  0  0  0  0
   37.1431   26.1127    4.1825 N   0  0  0  0  0  0  0  0  0  0  0  0
   38.1331   26.5235   -3.3770 O   0  0  0  0  0  0  0  0  0  0  0  0
   39.4145   25.7761   -1.5673 C   0  0  1  0  0  0  0  0  0  0  0  0
   41.5369   23.7342    5.0576 N   0  0  0  0  0  0  0  0  0  0  0  0
   39.5296   25.2450   -0.1501 O   0  0  0  0  0  0  0  0  0  0  0  0
   39.9800   23.9469   -0.0840 C   0  0  1  0  0  0  0  0  0  0  0  0
   45.4274   24.8715    2.2314 N   0  0  0  0  0  0  0  0  0  0  0  0
   39.2647   23.0446    0.7132 O   0  0  0  0  0  0  0  0  0  0  0  0
   39.0477   23.2399    2.1865 C   0  0  2  0  0  0  0  0  0  0  0  0
   41.8251   19.3515    2.3812 N   0  0  0  0  0  0  0  0  0  0  0  0
   36.9153   24.4306    1.7103 O   0  0  0  0  0  0  0  0  0  0  0  0
   38.2208   24.5442    2.3886 C   0  0  1  0  0  0  0  0  0  0  0  0
   41.1496   22.2089    2.7779 O   0  0  0  0  0  0  0  0  0  0  0  0
   37.9719   24.8097    3.9571 C   0  0  1  0  0  0  0  0  0  0  0  0
   42.6376   22.7588    1.0034 O   0  0  0  0  0  0  0  0  0  0  0  0
   39.3947   24.9270    4.6586 C   0  0  0  0  0  0  0  0  0  0  0  0
   45.8206   22.1670    2.8443 O   0  0  0  0  0  0  0  0  0  0  0  0
   40.2004   23.5883    4.3914 C   0  0  1  0  0  0  0  0  0  0  0  0
   44.7281   19.5287    2.8536 O   0  0  0  0  0  0  0  0  0  0  0  0
   40.4493   23.3811    2.9314 C   0  0  2  0  0  0  0  0  0  0  0  0
   41.1850   22.5723   -1.6163 O   0  0  0  0  0  0  0  0  0  0  0  0
   41.7528   21.6819    1.5682 C   0  0  1  0  0  0  0  0  0  0  0  0
   41.7614   25.2255   -2.1546 O   0  0  0  0  0  0  0  0  0  0  0  0
   43.8413   23.1388    1.8550 C   0  0  2  0  0  0  0  0  0  0  0  0
   44.6228   24.2554    1.1724 C   0  0  0  0  0  0  0  0  0  0  0  0
   44.7059   21.8714    2.0467 C   0  0  2  0  0  0  0  0  0  0  0  0
   43.8962   20.7573    2.6888 C   0  0  1  0  0  0  0  0  0  0  0  0
   42.6781   20.4588    1.7952 C   0  0  1  0  0  0  0  0  0  0  0  0
   40.1685   23.5039   -1.5258 C   0  0  2  0  0  0  0  0  0  0  0  0
   40.3666   24.8367   -2.3167 C   0  0  1  0  0  0  0  0  0  0  0  0
  1  3  1  0  0  0  0
  4  1  1  6  0  0  0
  4  6  1  0  0  0  0
  4 31  1  0  0  0  0
  6  7  1  0  0  0  0
  7  9  1  6  0  0  0
  7 30  1  0  0  0  0
  8 26  1  0  0  0  0
 10  9  1  6  0  0  0
 10 13  1  0  0  0  0
 10 21  1  0  0  0  0
 13 12  1  6  0  0  0
 13 15  1  0  0  0  0
 15  2  1  6  0  0  0
 15 17  1  0  0  0  0
 16 25  1  0  0  0  0
 16 23  1  0  0  0  0
 17 19  1  0  0  0  0
 19  5  1  1  0  0  0
 19 21  1  0  0  0  0
 21 14  1  1  0  0  0
 23 14  1  1  0  0  0
 23 29  1  0  0  0  0
 25 26  1  6  0  0  0
 25 27  1  0  0  0  0
 27 18  1  1  0  0  0
 27 28  1  0  0  0  0
 28 20  1  6  0  0  0
 28 29  1  0  0  0  0
 29 11  1  1  0  0  0
 30 22  1  1  0  0  0
 30 31  1  0  0  0  0
 31 24  1  1  0  0  0
M  END
>  <CHROM.1>
175.43335314,-59.08514225,62.55111653,53.09260407,70.17751097,160.08775351
41.03198057,23.49903391,1.32773895,-2.58082920,-0.47078780,1.82846210

>  <Name>
ligand

>  <RI>
0

>  <Rbt.Current_Directory>
/home/itssahil/PROJECTS/Mol_Feturizer/New_Systems/rnas/2ET5

>  <Rbt.Executable>
rbdock ($Id: //depot/dev/client3/rdock/2013.1/src/exe/rbdock.cxx#4 $)

>  <Rbt.Library>
libRbt.so (2013.1, Build901 2013/11/27)

>  <Rbt.Parameter_File>
/export/apps/rDock/src/rDock_2013.1_src/data/scripts/dock_solv.prm

>  <Rbt.Receptor>
prm/pocket_docking_5.prm

>  <SCORE>
-9.37328

>  <SCORE.INTER>
-4.009

>  <SCORE.INTER.CONST>
1

>  <SCORE.INTER.POLAR>
0

>  <SCORE.INTER.ROT>
6

>  <SCORE.INTER.SOLV>
22.1759

>  <SCORE.INTER.VDW>
-17.6646

>  <SCORE.INTER.norm>
-0.129323

>  <SCORE.INTRA>
-5.36428

>  <SCORE.INTRA.DIHEDRAL>
-8.94814

>  <SCORE.INTRA.DIHEDRAL.0>
11.2357

>  <SCORE.INTRA.POLAR>
0

>  <SCORE.INTRA.POLAR.0>
0

>  <SCORE.INTRA.REPUL>
0

>  <SCORE.INTRA.REPUL.0>
0

>  <SCORE.INTRA.SOLV>
-2.66183

>  <SCORE.INTRA.SOLV.lig_0>
-83.3092

>  <SCORE.INTRA.VDW>
0.440707

>  <SCORE.INTRA.VDW.0>
-4.47057

>  <SCORE.INTRA.norm>
-0.173041

>  <SCORE.RESTR>
0

>  <SCORE.RESTR.CAVITY>
0

>  <SCORE.RESTR.norm>
0

>  <SCORE.SYSTEM>
0

>  <SCORE.SYSTEM.CONST>
0

>  <SCORE.SYSTEM.DIHEDRAL>
0

>  <SCORE.SYSTEM.SOLV>
0

>  <SCORE.SYSTEM.norm>
0

>  <SCORE.heavy>
31

>  <SCORE.norm>
-0.302364

>  <RMSD>
5.304

$$$$
ligand
 OpenBabel11021811433D
libRbt.so/2013.1/901 2013/11/27
 31 33  0  0  0  0  0  0  0  0999 V2000
   37.3193   25.0780   -1.3958 C   0  0  0  0  0  0  0  0  0  0  0  0
   37.8037   25.9117    5.0840 N   0  0  0  0  0  0  0  0  0  0  0  0
   37.1672   25.4600   -2.7708 O   0  0  0  0  0  0  0  0  0  0  0  0
   38.8127   25.2363   -1.1222 C   0  0  1  0  0  0  0  0  0  0  0  0
   42.5694   24.1751    5.0502 N   0  0  0  0  0  0  0  0  0  0  0  0
   39.2385   24.9124    0.2983 O   0  0  0  0  0  0  0  0  0  0  0  0
   39.9151   23.7201    0.4114 C   0  0  1  0  0  0  0  0  0  0  0  0
   45.0243   25.1330    1.5076 N   0  0  0  0  0  0  0  0  0  0  0  0
   39.5027   22.8241    1.4056 O   0  0  0  0  0  0  0  0  0  0  0  0
   39.5953   23.1239    2.8745 C   0  0  2  0  0  0  0  0  0  0  0  0
   41.9247   19.5315    2.3359 N   0  0  0  0  0  0  0  0  0  0  0  0
   37.2659   23.9979    2.8387 O   0  0  0  0  0  0  0  0  0  0  0  0
   38.6611   24.3305    3.1855 C   0  0  1  0  0  0  0  0  0  0  0  0
   41.8989   22.4143    3.0195 O   0  0  0  0  0  0  0  0  0  0  0  0
   38.7344   24.7043    4.7499 C   0  0  1  0  0  0  0  0  0  0  0  0
   43.4077   22.8065    1.2209 O   0  0  0  0  0  0  0  0  0  0  0  0
   40.2474   25.0570    5.0916 C   0  0  0  0  0  0  0  0  0  0  0  0
   46.4492   21.3744    2.8239 O   0  0  0  0  0  0  0  0  0  0  0  0
   41.1515   23.8078    4.7244 C   0  0  1  0  0  0  0  0  0  0  0  0
   44.8117   19.0406    2.6610 O   0  0  0  0  0  0  0  0  0  0  0  0
   41.0942   23.5015    3.2617 C   0  0  2  0  0  0  0  0  0  0  0  0
   41.0902   22.3705   -1.1656 O   0  0  0  0  0  0  0  0  0  0  0  0
   42.3308   21.8922    1.7367 C   0  0  1  0  0  0  0  0  0  0  0  0
   41.0995   24.9923   -2.0532 O   0  0  0  0  0  0  0  0  0  0  0  0
   44.6942   22.8368    2.0349 C   0  0  2  0  0  0  0  0  0  0  0  0
   45.6748   23.8231    1.4113 C   0  0  0  0  0  0  0  0  0  0  0  0
   45.2697   21.4020    2.0661 C   0  0  2  0  0  0  0  0  0  0  0  0
   44.2607   20.4280    2.6514 C   0  0  1  0  0  0  0  0  0  0  0  0
   42.9764   20.4842    1.8035 C   0  0  1  0  0  0  0  0  0  0  0  0
   39.9522   23.1345   -0.9908 C   0  0  2  0  0  0  0  0  0  0  0  0
   39.7870   24.3716   -1.9307 C   0  0  1  0  0  0  0  0  0  0  0  0
  1  3  1  0  0  0  0
  4  1  1  1  0  0  0
  4  6  1  0  0  0  0
  4 31  1  0  0  0  0
  6  7  1  0  0  0  0
  7  9  1  1  0  0  0
  7 30  1  0  0  0  0
  8 26  1  0  0  0  0
 10  9  1  6  0  0  0
 10 13  1  0  0  0  0
 10 21  1  0  0  0  0
 13 12  1  1  0  0  0
 13 15  1  0  0  0  0
 15  2  1  6  0  0  0
 15 17  1  0  0  0  0
 16 25  1  0  0  0  0
 16 23  1  0  0  0  0
 17 19  1  0  0  0  0
 19  5  1  6  0  0  0
 19 21  1  0  0  0  0
 21 14  1  1  0  0  0
 23 14  1  1  0  0  0
 23 29  1  0  0  0  0
 25 26  1  6  0  0  0
 25 27  1  0  0  0  0
 27 18  1  1  0  0  0
 27 28  1  0  0  0  0
 28 20  1  6  0  0  0
 28 29  1  0  0  0  0
 29 11  1  1  0  0  0
 30 22  1  6  0  0  0
 30 31  1  0  0  0  0
 31 24  1  1  0  0  0
M  END
>  <CHROM.1>
178.90260377,-64.42993210,63.94063806,75.83015086,73.09644535,63.00598674
41.27918581,23.28123559,1.66061010,-2.81788397,-0.48323152,1.57523417

>  <Name>
ligand

>  <RI>
0

>  <Rbt.Current_Directory>
/home/itssahil/PROJECTS/Mol_Feturizer/New_Systems/rnas/2ET5

>  <Rbt.Executable>
rbdock ($Id: //depot/dev/client3/rdock/2013.1/src/exe/rbdock.cxx#4 $)

>  <Rbt.Library>
libRbt.so (2013.1, Build901 2013/11/27)

>  <Rbt.Parameter_File>
/export/apps/rDock/src/rDock_2013.1_src/data/scripts/dock_solv.prm

>  <Rbt.Receptor>
prm/pocket_docking_4.prm

>  <SCORE>
-13.1522

>  <SCORE.INTER>
-7.7002

>  <SCORE.INTER.CONST>
1

>  <SCORE.INTER.POLAR>
0

>  <SCORE.INTER.ROT>
6

>  <SCORE.INTER.SOLV>
23.1408

>  <SCORE.INTER.VDW>
-20.4471

>  <SCORE.INTER.norm>
-0.248394

>  <SCORE.INTRA>
-5.45204

>  <SCORE.INTRA.DIHEDRAL>
-8.91859

>  <SCORE.INTRA.DIHEDRAL.0>
11.2357

>  <SCORE.INTRA.POLAR>
0

>  <SCORE.INTRA.POLAR.0>
0

>  <SCORE.INTRA.REPUL>
0

>  <SCORE.INTRA.REPUL.0>
0

>  <SCORE.INTRA.SOLV>
-3.40331

>  <SCORE.INTRA.SOLV.lig_0>
-83.3092

>  <SCORE.INTRA.VDW>
0.708909

>  <SCORE.INTRA.VDW.0>
-4.47057

>  <SCORE.INTRA.norm>
-0.175872

>  <SCORE.RESTR>
0

>  <SCORE.RESTR.CAVITY>
0

>  <SCORE.RESTR.norm>
0

>  <SCORE.SYSTEM>
0

>  <SCORE.SYSTEM.CONST>
0

>  <SCORE.SYSTEM.DIHEDRAL>
0

>  <SCORE.SYSTEM.SOLV>
0

>  <SCORE.SYSTEM.norm>
0

>  <SCORE.heavy>
31

>  <SCORE.norm>
-0.424266

>  <RMSD>
5.310

$$$$
ligand
 OpenBabel11021811433D
libRbt.so/2013.1/901 2013/11/27
 31 33  0  0  0  0  0  0  0  0999 V2000
   36.3315   25.1191    0.1060 C   0  0  0  0  0  0  0  0  0  0  0  0
   38.4102   26.2004    6.1520 N   0  0  0  0  0  0  0  0  0  0  0  0
   35.8117   25.5194   -1.1704 O   0  0  0  0  0  0  0  0  0  0  0  0
   37.8220   25.4383    0.0244 C   0  0  1  0  0  0  0  0  0  0  0  0
   43.0664   24.4238    5.2076 N   0  0  0  0  0  0  0  0  0  0  0  0
   38.6064   25.1483    1.2912 O   0  0  0  0  0  0  0  0  0  0  0  0
   39.4114   24.0368    1.1973 C   0  0  1  0  0  0  0  0  0  0  0  0
   45.1268   25.2809    1.6800 N   0  0  0  0  0  0  0  0  0  0  0  0
   39.3446   23.0902    2.2273 O   0  0  0  0  0  0  0  0  0  0  0  0
   39.7208   23.3926    3.6496 C   0  0  2  0  0  0  0  0  0  0  0  0
   41.7717   19.8439    2.4723 N   0  0  0  0  0  0  0  0  0  0  0  0
   37.4350   24.2860    4.0598 O   0  0  0  0  0  0  0  0  0  0  0  0
   38.8734   24.6077    4.1300 C   0  0  1  0  0  0  0  0  0  0  0  0
   42.0036   22.6640    3.3509 O   0  0  0  0  0  0  0  0  0  0  0  0
   39.2497   24.9845    5.6496 C   0  0  1  0  0  0  0  0  0  0  0  0
   43.3749   23.0935    1.4535 O   0  0  0  0  0  0  0  0  0  0  0  0
   40.8029   25.3253    5.6920 C   0  0  0  0  0  0  0  0  0  0  0  0
   46.4376   21.3593    2.6714 O   0  0  0  0  0  0  0  0  0  0  0  0
   41.6095   24.0677    5.1624 C   0  0  1  0  0  0  0  0  0  0  0  0
   44.6354   19.1509    2.4990 O   0  0  0  0  0  0  0  0  0  0  0  0
   41.2691   23.7585    3.7393 C   0  0  2  0  0  0  0  0  0  0  0  0
   40.3101   22.8421   -0.6612 O   0  0  0  0  0  0  0  0  0  0  0  0
   42.2862   22.2126    2.0014 C   0  0  1  0  0  0  0  0  0  0  0  0
   39.8326   25.4583   -1.4290 O   0  0  0  0  0  0  0  0  0  0  0  0
   44.7259   22.9829    2.1473 C   0  0  2  0  0  0  0  0  0  0  0  0
   45.7146   23.9496    1.5059 C   0  0  0  0  0  0  0  0  0  0  0  0
   45.2018   21.5167    2.0278 C   0  0  2  0  0  0  0  0  0  0  0  0
   44.1824   20.5669    2.6344 C   0  0  1  0  0  0  0  0  0  0  0  0
   42.8367   20.7660    1.9128 C   0  0  1  0  0  0  0  0  0  0  0  0
   39.1734   23.4739   -0.1944 C   0  0  2  0  0  0  0  0  0  0  0  0
   38.6598   24.6952   -1.0226 C   0  0  1  0  0  0  0  0  0  0  0  0
  1  3  1  0  0  0  0
  4  1  1  1  0  0  0
  4  6  1  0  0  0  0
  4 31  1  0  0  0  0
  6  7  1  0  0  0  0
  7  9  1  1  0  0  0
  7 30  1  0  0  0  0
  8 26  1  0  0  0  0
 10  9  1  6  0  0  0
 10 13  1  0  0  0  0
 10 21  1  0  0  0  0
 13 12  1  1  0  0  0
 13 15  1  0  0  0  0
 15  2  1  6  0  0  0
 15 17  1  0  0  0  0
 16 25  1  0  0  0  0
 16 23  1  0  0  0  0
 17 19  1  0  0  0  0
 19  5  1  6  0  0  0
 19 21  1  0  0  0  0
 21 14  1  1  0  0  0
 23 14  1  1  0  0  0
 23 29  1  0  0  0  0
 25 26  1  6  0  0  0
 25 27  1  0  0  0  0
 27 18  1  1  0  0  0
 27 28  1  0  0  0  0
 28 20  1  6  0  0  0
 28 29  1  0  0  0  0
 29 11  1  1  0  0  0
 30 22  1  6  0  0  0
 30 31  1  0  0  0  0
 31 24  1  1  0  0  0
M  END
>  <CHROM.1>
177.88492435,-62.83261307,55.82001581,77.75315272,79.85106768,59.72067348
41.08433821,23.51899481,2.22266367,-3.04097623,-0.46290883,1.38665292

>  <Name>
ligand

>  <RI>
0

>  <Rbt.Current_Directory>
/home/itssahil/PROJECTS/Mol_Feturizer/New_Systems/rnas/2ET5

>  <Rbt.Executable>
rbdock ($Id: //depot/dev/client3/rdock/2013.1/src/exe/rbdock.cxx#4 $)

>  <Rbt.Library>
libRbt.so (2013.1, Build901 2013/11/27)

>  <Rbt.Parameter_File>
/export/apps/rDock/src/rDock_2013.1_src/data/scripts/dock_solv.prm

>  <Rbt.Receptor>
prm/pocket_docking_4.prm

>  <SCORE>
-12.7369

>  <SCORE.INTER>
-8.30548

>  <SCORE.INTER.CONST>
1

>  <SCORE.INTER.POLAR>
0

>  <SCORE.INTER.ROT>
6

>  <SCORE.INTER.SOLV>
22.7787

>  <SCORE.INTER.VDW>
-20.7299

>  <SCORE.INTER.norm>
-0.267919

>  <SCORE.INTRA>
-4.43144

>  <SCORE.INTRA.DIHEDRAL>
-7.75094

>  <SCORE.INTRA.DIHEDRAL.0>
11.2357

>  <SCORE.INTRA.POLAR>
0

>  <SCORE.INTRA.POLAR.0>
0

>  <SCORE.INTRA.REPUL>
0

>  <SCORE.INTRA.REPUL.0>
0

>  <SCORE.INTRA.SOLV>
-2.75522

>  <SCORE.INTRA.SOLV.lig_0>
-83.3092

>  <SCORE.INTRA.VDW>
0.821632

>  <SCORE.INTRA.VDW.0>
-4.47057

>  <SCORE.INTRA.norm>
-0.14295

>  <SCORE.RESTR>
0

>  <SCORE.RESTR.CAVITY>
0

>  <SCORE.RESTR.norm>
0

>  <SCORE.SYSTEM>
0

>  <SCORE.SYSTEM.CONST>
0

>  <SCORE.SYSTEM.DIHEDRAL>
0

>  <SCORE.SYSTEM.SOLV>
0

>  <SCORE.SYSTEM.norm>
0

>  <SCORE.heavy>
31

>  <SCORE.norm>
-0.410869

>  <RMSD>
5.324

$$$$
ligand
 OpenBabel11021811433D
libRbt.so/2013.1/901 2013/11/27
 31 33  0  0  0  0  0  0  0  0999 V2000
   45.5758   21.1370    2.5052 C   0  0  0  0  0  0  0  0  0  0  0  0
   40.6146   23.0182   -4.2135 N   0  0  0  0  0  0  0  0  0  0  0  0
   45.6145   22.2090    3.4586 O   0  0  0  0  0  0  0  0  0  0  0  0
   44.1971   20.5105    2.6961 C   0  0  1  0  0  0  0  0  0  0  0  0
   38.0844   25.2430   -0.4218 N   0  0  0  0  0  0  0  0  0  0  0  0
   43.0339   21.4769    2.5654 O   0  0  0  0  0  0  0  0  0  0  0  0
   42.3222   21.3264    1.3979 C   0  0  1  0  0  0  0  0  0  0  0  0
   39.8532   24.1105    6.5006 N   0  0  0  0  0  0  0  0  0  0  0  0
   42.0483   22.4747    0.6445 O   0  0  0  0  0  0  0  0  0  0  0  0
   40.8557   22.6015   -0.2597 C   0  0  2  0  0  0  0  0  0  0  0  0
   40.3036   26.5950    1.0924 N   0  0  0  0  0  0  0  0  0  0  0  0
   42.1449   21.5366   -2.1024 O   0  0  0  0  0  0  0  0  0  0  0  0
   41.3668   22.7323   -1.7251 C   0  0  1  0  0  0  0  0  0  0  0  0
   39.5366   23.7503    1.4050 O   0  0  0  0  0  0  0  0  0  0  0  0
   40.1244   22.8868   -2.7377 C   0  0  1  0  0  0  0  0  0  0  0  0
   39.1352   24.1607    3.7149 O   0  0  0  0  0  0  0  0  0  0  0  0
   39.3074   24.1813   -2.3054 C   0  0  0  0  0  0  0  0  0  0  0  0
   42.6940   24.4121    4.7839 O   0  0  0  0  0  0  0  0  0  0  0  0
   38.8433   24.0051   -0.8000 C   0  0  1  0  0  0  0  0  0  0  0  0
   42.5323   26.6511    3.0190 O   0  0  0  0  0  0  0  0  0  0  0  0
   40.0137   23.8985    0.1249 C   0  0  2  0  0  0  0  0  0  0  0  0
   42.1207   19.5260   -0.1537 O   0  0  0  0  0  0  0  0  0  0  0  0
   39.1804   24.7914    2.3504 C   0  0  1  0  0  0  0  0  0  0  0  0
   42.7970   18.4960    2.3250 O   0  0  0  0  0  0  0  0  0  0  0  0
   40.4650   23.6461    4.2490 C   0  0  2  0  0  0  0  0  0  0  0  0
   40.2585   23.0116    5.6195 C   0  0  0  0  0  0  0  0  0  0  0  0
   41.4441   24.8410    4.3148 C   0  0  2  0  0  0  0  0  0  0  0  0
   41.6025   25.4854    2.9477 C   0  0  1  0  0  0  0  0  0  0  0  0
   40.2157   25.9405    2.4567 C   0  0  1  0  0  0  0  0  0  0  0  0
   43.0243   20.2190    0.6289 C   0  0  2  0  0  0  0  0  0  0  0  0
   43.7725   19.3993    1.7288 C   0  0  1  0  0  0  0  0  0  0  0  0
  1  3  1  0  0  0  0
  4  1  1  6  0  0  0
  4  6  1  0  0  0  0
  4 31  1  0  0  0  0
  6  7  1  0  0  0  0
  7  9  1  6  0  0  0
  7 30  1  0  0  0  0
  8 26  1  0  0  0  0
 10  9  1  1  0  0  0
 10 13  1  0  0  0  0
 10 21  1  0  0  0  0
 13 12  1  6  0  0  0
 13 15  1  0  0  0  0
 15  2  1  6  0  0  0
 15 17  1  0  0  0  0
 16 25  1  0  0  0  0
 16 23  1  0  0  0  0
 17 19  1  0  0  0  0
 19  5  1  1  0  0  0
 19 21  1  0  0  0  0
 21 14  1  1  0  0  0
 23 14  1  6  0  0  0
 23 29  1  0  0  0  0
 25 26  1  1  0  0  0
 25 27  1  0  0  0  0
 27 18  1  6  0  0  0
 27 28  1  0  0  0  0
 28 20  1  1  0  0  0
 28 29  1  0  0  0  0
 29 11  1  6  0  0  0
 30 22  1  1  0  0  0
 30 31  1  0  0  0  0
 31 24  1  1  0  0  0
M  END
>  <CHROM.1>
55.18921153,-152.55772440,-115.28727061,-162.45828146,154.47281685,-65.67094094
41.42946645,23.01583788,1.50734074,-1.20434942,0.84112025,-1.95230713

>  <Name>
ligand

>  <RI>
0

>  <Rbt.Current_Directory>
/home/itssahil/PROJECTS/Mol_Feturizer/New_Systems/rnas/2ET5

>  <Rbt.Executable>
rbdock ($Id: //depot/dev/client3/rdock/2013.1/src/exe/rbdock.cxx#4 $)

>  <Rbt.Library>
libRbt.so (2013.1, Build901 2013/11/27)

>  <Rbt.Parameter_File>
/export/apps/rDock/src/rDock_2013.1_src/data/scripts/dock_solv.prm

>  <Rbt.Receptor>
prm/pocket_docking_3.prm

>  <SCORE>
-4.24611

>  <SCORE.INTER>
-8.28788

>  <SCORE.INTER.CONST>
1

>  <SCORE.INTER.POLAR>
0

>  <SCORE.INTER.ROT>
6

>  <SCORE.INTER.SOLV>
20.8091

>  <SCORE.INTER.VDW>
-20.0616

>  <SCORE.INTER.norm>
-0.267351

>  <SCORE.INTRA>
3.95064

>  <SCORE.INTRA.DIHEDRAL>
3.388

>  <SCORE.INTRA.DIHEDRAL.0>
11.2357

>  <SCORE.INTRA.POLAR>
0

>  <SCORE.INTRA.POLAR.0>
0

>  <SCORE.INTRA.REPUL>
0.100031

>  <SCORE.INTRA.REPUL.0>
0

>  <SCORE.INTRA.SOLV>
2.38596

>  <SCORE.INTRA.SOLV.lig_0>
-83.3092

>  <SCORE.INTRA.VDW>
0.563509

>  <SCORE.INTRA.VDW.0>
-4.47057

>  <SCORE.INTRA.norm>
0.12744

>  <SCORE.RESTR>
0.091127

>  <SCORE.RESTR.CAVITY>
0.091127

>  <SCORE.RESTR.norm>
0.00293958

>  <SCORE.SYSTEM>
0

>  <SCORE.SYSTEM.CONST>
0

>  <SCORE.SYSTEM.DIHEDRAL>
0

>  <SCORE.SYSTEM.SOLV>
0

>  <SCORE.SYSTEM.norm>
0

>  <SCORE.heavy>
31

>  <SCORE.norm>
-0.136971

>  <RMSD>
5.354

$$$$
ligand
 OpenBabel11021811433D
libRbt.so/2013.1/901 2013/11/27
 31 33  0  0  0  0  0  0  0  0999 V2000
   40.6574   22.3033   -3.6678 C   0  0  0  0  0  0  0  0  0  0  0  0
   36.1118   25.5830    3.1880 N   0  0  0  0  0  0  0  0  0  0  0  0
   41.6395   22.6993   -2.6991 O   0  0  0  0  0  0  0  0  0  0  0  0
   39.4930   23.2638   -3.4405 C   0  0  1  0  0  0  0  0  0  0  0  0
   40.0748   22.7941    4.6865 N   0  0  0  0  0  0  0  0  0  0  0  0
   38.9510   23.2847   -2.0229 O   0  0  0  0  0  0  0  0  0  0  0  0
   39.2905   24.4179   -1.3208 C   0  0  1  0  0  0  0  0  0  0  0  0
   45.0969   23.7249    4.4589 N   0  0  0  0  0  0  0  0  0  0  0  0
   39.8260   24.2577   -0.0367 O   0  0  0  0  0  0  0  0  0  0  0  0
   39.0186   23.7888    1.1398 C   0  0  2  0  0  0  0  0  0  0  0  0
   41.4204   20.1274    0.3292 N   0  0  0  0  0  0  0  0  0  0  0  0
   37.1109   25.1976    0.3868 O   0  0  0  0  0  0  0  0  0  0  0  0
   38.0124   24.9149    1.5203 C   0  0  1  0  0  0  0  0  0  0  0  0
   40.8317   22.4729    2.0411 O   0  0  0  0  0  0  0  0  0  0  0  0
   37.1289   24.4681    2.7901 C   0  0  1  0  0  0  0  0  0  0  0  0
   42.9553   23.3745    1.4556 O   0  0  0  0  0  0  0  0  0  0  0  0
   38.1273   24.1710    3.9923 C   0  0  0  0  0  0  0  0  0  0  0  0
   45.0387   21.0711    3.5110 O   0  0  0  0  0  0  0  0  0  0  0  0
   39.1447   23.0444    3.5360 C   0  0  1  0  0  0  0  0  0  0  0  0
   43.8693   19.2107    1.6873 O   0  0  0  0  0  0  0  0  0  0  0  0
   39.9773   23.4950    2.3783 C   0  0  2  0  0  0  0  0  0  0  0  0
   39.9979   26.5918   -2.0013 O   0  0  0  0  0  0  0  0  0  0  0  0
   41.8467   22.4639    1.0046 C   0  0  1  0  0  0  0  0  0  0  0  0
   38.5067   25.4600   -4.0403 O   0  0  0  0  0  0  0  0  0  0  0  0
   43.7185   22.9230    2.6935 C   0  0  2  0  0  0  0  0  0  0  0  0
   44.7849   23.9537    3.0452 C   0  0  0  0  0  0  0  0  0  0  0  0
   44.3393   21.5400    2.3897 C   0  0  2  0  0  0  0  0  0  0  0  0
   43.2643   20.5392    1.9998 C   0  0  1  0  0  0  0  0  0  0  0  0
   42.5110   21.0826    0.7716 C   0  0  1  0  0  0  0  0  0  0  0  0
   40.1491   25.2438   -2.2648 C   0  0  2  0  0  0  0  0  0  0  0  0
   39.7341   24.7571   -3.6903 C   0  0  1  0  0  0  0  0  0  0  0  0
  1  3  1  0  0  0  0
  4  1  1  1  0  0  0
  4  6  1  0  0  0  0
  4 31  1  0  0  0  0
  6  7  1  0  0  0  0
  7  9  1  1  0  0  0
  7 30  1  0  0  0  0
  8 26  1  0  0  0  0
 10  9  1  6  0  0  0
 10 13  1  0  0  0  0
 10 21  1  0  0  0  0
 13 12  1  6  0  0  0
 13 15  1  0  0  0  0
 15  2  1  1  0  0  0
 15 17  1  0  0  0  0
 16 25  1  0  0  0  0
 16 23  1  0  0  0  0
 17 19  1  0  0  0  0
 19  5  1  1  0  0  0
 19 21  1  0  0  0  0
 21 14  1  6  0  0  0
 23 14  1  1  0  0  0
 23 29  1  0  0  0  0
 25 26  1  6  0  0  0
 25 27  1  0  0  0  0
 27 18  1  1  0  0  0
 27 28  1  0  0  0  0
 28 20  1  6  0  0  0
 28 29  1  0  0  0  0
 29 11  1  1  0  0  0
 30 22  1  6  0  0  0
 30 31  1  0  0  0  0
 31 24  1  1  0  0  0
M  END
>  <CHROM.1>
-55.81649901,-70.48946433,-69.56313738,70.71198616,63.75600931,159.03088166
40.74230248,23.30087999,0.72872288,-2.44478523,-0.51471272,1.60330269

>  <Name>
ligand

>  <RI>
0

>  <Rbt.Current_Directory>
/home/itssahil/PROJECTS/Mol_Feturizer/New_Systems/rnas/2ET5

>  <Rbt.Executable>
rbdock ($Id: //depot/dev/client3/rdock/2013.1/src/exe/rbdock.cxx#4 $)

>  <Rbt.Library>
libRbt.so (2013.1, Build901 2013/11/27)

>  <Rbt.Parameter_File>
/export/apps/rDock/src/rDock_2013.1_src/data/scripts/dock_solv.prm

>  <Rbt.Receptor>
prm/pocket_docking_3.prm

>  <SCORE>
-5.51785

>  <SCORE.INTER>
-1.52459

>  <SCORE.INTER.CONST>
1

>  <SCORE.INTER.POLAR>
0

>  <SCORE.INTER.ROT>
6

>  <SCORE.INTER.SOLV>
26.5792

>  <SCORE.INTER.VDW>
-17.4761

>  <SCORE.INTER.norm>
-0.0491804

>  <SCORE.INTRA>
-4.00653

>  <SCORE.INTRA.DIHEDRAL>
-8.02089

>  <SCORE.INTRA.DIHEDRAL.0>
11.2357

>  <SCORE.INTRA.POLAR>
0

>  <SCORE.INTRA.POLAR.0>
0

>  <SCORE.INTRA.REPUL>
0

>  <SCORE.INTRA.REPUL.0>
0

>  <SCORE.INTRA.SOLV>
-2.50621

>  <SCORE.INTRA.SOLV.lig_0>
-83.3092

>  <SCORE.INTRA.VDW>
1.25701

>  <SCORE.INTRA.VDW.0>
-4.47057

>  <SCORE.INTRA.norm>
-0.129243

>  <SCORE.RESTR>
0.0132797

>  <SCORE.RESTR.CAVITY>
0.0132797

>  <SCORE.RESTR.norm>
0.000428376

>  <SCORE.SYSTEM>
0

>  <SCORE.SYSTEM.CONST>
0

>  <SCORE.SYSTEM.DIHEDRAL>
0

>  <SCORE.SYSTEM.SOLV>
0

>  <SCORE.SYSTEM.norm>
0

>  <SCORE.heavy>
31

>  <SCORE.norm>
-0.177995

>  <RMSD>
5.398

$$$$
ligand
 OpenBabel11021811433D
libRbt.so/2013.1/901 2013/11/27
 31 33  0  0  0  0  0  0  0  0999 V2000
   42.4216   23.8711   -3.5588 C   0  0  0  0  0  0  0  0  0  0  0  0
   36.1402   25.3925    2.8276 N   0  0  0  0  0  0  0  0  0  0  0  0
   42.7361   24.8410   -2.5488 O   0  0  0  0  0  0  0  0  0  0  0  0
   40.9057   23.7137   -3.4732 C   0  0  1  0  0  0  0  0  0  0  0  0
   40.1084   22.9165    4.7901 N   0  0  0  0  0  0  0  0  0  0  0  0
   40.3974   23.1363   -2.1646 O   0  0  0  0  0  0  0  0  0  0  0  0
   39.7843   24.0643   -1.3553 C   0  0  1  0  0  0  0  0  0  0  0  0
   44.8091   25.3445    4.2464 N   0  0  0  0  0  0  0  0  0  0  0  0
   40.1745   24.1219   -0.0115 O   0  0  0  0  0  0  0  0  0  0  0  0
   39.2985   23.6674    1.1207 C   0  0  2  0  0  0  0  0  0  0  0  0
   42.3649   20.0195    1.2395 N   0  0  0  0  0  0  0  0  0  0  0  0
   37.3873   24.9239    0.1409 O   0  0  0  0  0  0  0  0  0  0  0  0
   38.2055   24.7515    1.3568 C   0  0  1  0  0  0  0  0  0  0  0  0
   41.0982   22.5058    2.2355 O   0  0  0  0  0  0  0  0  0  0  0  0
   37.2448   24.3195    2.5746 C   0  0  1  0  0  0  0  0  0  0  0  0
   42.9816   23.7270    1.4440 O   0  0  0  0  0  0  0  0  0  0  0  0
   38.1545   24.1418    3.8674 C   0  0  0  0  0  0  0  0  0  0  0  0
   45.3913   22.6508    4.0720 O   0  0  0  0  0  0  0  0  0  0  0  0
   39.2649   23.0541    3.5568 C   0  0  1  0  0  0  0  0  0  0  0  0
   44.8490   20.1426    2.8193 O   0  0  0  0  0  0  0  0  0  0  0  0
   40.1655   23.4927    2.4463 C   0  0  2  0  0  0  0  0  0  0  0  0
   38.8063   26.1959   -1.7902 O   0  0  0  0  0  0  0  0  0  0  0  0
   42.1631   22.4804    1.2506 C   0  0  1  0  0  0  0  0  0  0  0  0
   38.7102   24.6813   -4.1051 O   0  0  0  0  0  0  0  0  0  0  0  0
   43.7323   23.8259    2.7652 C   0  0  2  0  0  0  0  0  0  0  0  0
   44.4890   25.1475    2.8297 C   0  0  0  0  0  0  0  0  0  0  0  0
   44.6892   22.6150    2.8588 C   0  0  2  0  0  0  0  0  0  0  0  0
   43.9200   21.3090    2.7492 C   0  0  1  0  0  0  0  0  0  0  0  0
   43.1560   21.3007    1.4122 C   0  0  1  0  0  0  0  0  0  0  0  0
   39.8827   25.3864   -2.0989 C   0  0  2  0  0  0  0  0  0  0  0  0
   40.0440   24.9756   -3.5977 C   0  0  1  0  0  0  0  0  0  0  0  0
  1  3  1  0  0  0  0
  4  1  1  1  0  0  0
  4  6  1  0  0  0  0
  4 31  1  0  0  0  0
  6  7  1  0  0  0  0
  7  9  1  1  0  0  0
  7 30  1  0  0  0  0
  8 26  1  0  0  0  0
 10  9  1  6  0  0  0
 10 13  1  0  0  0  0
 10 21  1  0  0  0  0
 13 12  1  6  0  0  0
 13 15  1  0  0  0  0
 15  2  1  1  0  0  0
 15 17  1  0  0  0  0
 16 25  1  0  0  0  0
 16 23  1  0  0  0  0
 17 19  1  0  0  0  0
 19  5  1  1  0  0  0
 19 21  1  0  0  0  0
 21 14  1  6  0  0  0
 23 14  1  1  0  0  0
 23 29  1  0  0  0  0
 25 26  1  6  0  0  0
 25 27  1  0  0  0  0
 27 18  1  1  0  0  0
 27 28  1  0  0  0  0
 28 20  1  6  0  0  0
 28 29  1  0  0  0  0
 29 11  1  1  0  0  0
 30 22  1  6  0  0  0
 30 31  1  0  0  0  0
 31 24  1  1  0  0  0
M  END
>  <CHROM.1>
-64.36525606,-109.17231958,-75.93047538,55.29417608,61.13999860,162.46608404
41.09375823,23.64303388,0.86199987,-2.32494618,-0.30965882,1.71621908

>  <Name>
ligand

>  <RI>
0

>  <Rbt.Current_Directory>
/home/itssahil/PROJECTS/Mol_Feturizer/New_Systems/rnas/2ET5

>  <Rbt.Executable>
rbdock ($Id: //depot/dev/client3/rdock/2013.1/src/exe/rbdock.cxx#4 $)

>  <Rbt.Library>
libRbt.so (2013.1, Build901 2013/11/27)

>  <Rbt.Parameter_File>
/export/apps/rDock/src/rDock_2013.1_src/data/scripts/dock_solv.prm

>  <Rbt.Receptor>
prm/pocket_docking_4.prm

>  <SCORE>
-4.95298

>  <SCORE.INTER>
-3.94227

>  <SCORE.INTER.CONST>
1

>  <SCORE.INTER.POLAR>
0

>  <SCORE.INTER.ROT>
6

>  <SCORE.INTER.SOLV>
18.9802

>  <SCORE.INTER.VDW>
-16.5549

>  <SCORE.INTER.norm>
-0.12717

>  <SCORE.INTRA>
-1.01071

>  <SCORE.INTRA.DIHEDRAL>
-2.22944

>  <SCORE.INTRA.DIHEDRAL.0>
11.2357

>  <SCORE.INTRA.POLAR>
0

>  <SCORE.INTRA.POLAR.0>
0

>  <SCORE.INTRA.REPUL>
0.00526949

>  <SCORE.INTRA.REPUL.0>
0

>  <SCORE.INTRA.SOLV>
-2.59627

>  <SCORE.INTRA.SOLV.lig_0>
-83.3092

>  <SCORE.INTRA.VDW>
1.3758

>  <SCORE.INTRA.VDW.0>
-4.47057

>  <SCORE.INTRA.norm>
-0.0326035

>  <SCORE.RESTR>
0

>  <SCORE.RESTR.CAVITY>
0

>  <SCORE.RESTR.norm>
0

>  <SCORE.SYSTEM>
0

>  <SCORE.SYSTEM.CONST>
0

>  <SCORE.SYSTEM.DIHEDRAL>
0

>  <SCORE.SYSTEM.SOLV>
0

>  <SCORE.SYSTEM.norm>
0

>  <SCORE.heavy>
31

>  <SCORE.norm>
-0.159774

>  <RMSD>
5.418

$$$$
ligand
 OpenBabel11021811433D
libRbt.so/2013.1/901 2013/11/27
 31 33  0  0  0  0  0  0  0  0999 V2000
   44.8956   19.9414    2.8938 C   0  0  0  0  0  0  0  0  0  0  0  0
   39.8494   24.4543   -3.2203 N   0  0  0  0  0  0  0  0  0  0  0  0
   45.3814   20.6574    1.7489 O   0  0  0  0  0  0  0  0  0  0  0  0
   43.7118   19.1372    2.3628 C   0  0  1  0  0  0  0  0  0  0  0  0
   39.0339   24.2989    1.7836 N   0  0  0  0  0  0  0  0  0  0  0  0
   42.5621   19.9720    1.8285 O   0  0  0  0  0  0  0  0  0  0  0  0
   42.4652   19.9604    0.4565 C   0  0  1  0  0  0  0  0  0  0  0  0
   45.2265   23.2469    3.1981 N   0  0  0  0  0  0  0  0  0  0  0  0
   42.3357   21.1897   -0.2020 O   0  0  0  0  0  0  0  0  0  0  0  0
   41.0155   21.8713   -0.4217 C   0  0  2  0  0  0  0  0  0  0  0  0
   39.3900   23.1633    4.4025 N   0  0  0  0  0  0  0  0  0  0  0  0
   41.4713   21.9569   -2.8664 O   0  0  0  0  0  0  0  0  0  0  0  0
   41.1377   22.7748   -1.6844 C   0  0  1  0  0  0  0  0  0  0  0  0
   40.5053   21.9569    1.9369 O   0  0  0  0  0  0  0  0  0  0  0  0
   39.7492   23.5432   -1.9572 C   0  0  1  0  0  0  0  0  0  0  0  0
   42.6822   22.1617    2.8773 O   0  0  0  0  0  0  0  0  0  0  0  0
   39.4179   24.4139   -0.6680 C   0  0  0  0  0  0  0  0  0  0  0  0
   43.0278   25.8498    2.4906 O   0  0  0  0  0  0  0  0  0  0  0  0
   39.3390   23.4477    0.5862 C   0  0  1  0  0  0  0  0  0  0  0  0
   40.8315   25.7315    4.3118 O   0  0  0  0  0  0  0  0  0  0  0  0
   40.6489   22.7724    0.8403 C   0  0  2  0  0  0  0  0  0  0  0  0
   43.2898   18.4679   -1.2114 O   0  0  0  0  0  0  0  0  0  0  0  0
   41.2194   22.0235    3.1980 C   0  0  1  0  0  0  0  0  0  0  0  0
   43.0084   17.0802    1.1670 O   0  0  0  0  0  0  0  0  0  0  0  0
   43.0863   23.4537    2.1802 C   0  0  2  0  0  0  0  0  0  0  0  0
   44.5836   23.4382    1.8950 C   0  0  0  0  0  0  0  0  0  0  0  0
   42.6925   24.6323    3.1002 C   0  0  2  0  0  0  0  0  0  0  0  0
   41.2044   24.6044    3.4068 C   0  0  1  0  0  0  0  0  0  0  0  0
   40.8656   23.2561    4.0692 C   0  0  1  0  0  0  0  0  0  0  0  0
   43.6218   19.1022   -0.0296 C   0  0  2  0  0  0  0  0  0  0  0  0
   43.9598   18.1836    1.1883 C   0  0  1  0  0  0  0  0  0  0  0  0
  1  3  1  0  0  0  0
  4  1  1  6  0  0  0
  4  6  1  0  0  0  0
  4 31  1  0  0  0  0
  6  7  1  0  0  0  0
  7  9  1  6  0  0  0
  7 30  1  0  0  0  0
  8 26  1  0  0  0  0
 10  9  1  1  0  0  0
 10 13  1  0  0  0  0
 10 21  1  0  0  0  0
 13 12  1  6  0  0  0
 13 15  1  0  0  0  0
 15  2  1  6  0  0  0
 15 17  1  0  0  0  0
 16 25  1  0  0  0  0
 16 23  1  0  0  0  0
 17 19  1  0  0  0  0
 19  5  1  1  0  0  0
 19 21  1  0  0  0  0
 21 14  1  1  0  0  0
 23 14  1  6  0  0  0
 23 29  1  0  0  0  0
 25 26  1  1  0  0  0
 25 27  1  0  0  0  0
 27 18  1  6  0  0  0
 27 28  1  0  0  0  0
 28 20  1  1  0  0  0
 28 29  1  0  0  0  0
 29 11  1  6  0  0  0
 30 22  1  6  0  0  0
 30 31  1  0  0  0  0
 31 24  1  1  0  0  0
M  END
>  <CHROM.1>
-62.71859098,-85.91528407,-153.61955652,-47.40980121,122.74960324,-57.22806617
42.03721539,22.12672954,1.27757085,-0.69050956,-0.87016503,0.91785845

>  <Name>
ligand

>  <RI>
0

>  <Rbt.Current_Directory>
/home/itssahil/PROJECTS/Mol_Feturizer/New_Systems/rnas/2ET5

>  <Rbt.Executable>
rbdock ($Id: //depot/dev/client3/rdock/2013.1/src/exe/rbdock.cxx#4 $)

>  <Rbt.Library>
libRbt.so (2013.1, Build901 2013/11/27)

>  <Rbt.Parameter_File>
/export/apps/rDock/src/rDock_2013.1_src/data/scripts/dock_solv.prm

>  <Rbt.Receptor>
prm/pocket_docking_2.prm

>  <SCORE>
-1.30197

>  <SCORE.INTER>
-7.62116

>  <SCORE.INTER.CONST>
1

>  <SCORE.INTER.POLAR>
0

>  <SCORE.INTER.ROT>
6

>  <SCORE.INTER.SOLV>
19.4672

>  <SCORE.INTER.VDW>
-19.1698

>  <SCORE.INTER.norm>
-0.245844

>  <SCORE.INTRA>
5.27859

>  <SCORE.INTRA.DIHEDRAL>
2.52874

>  <SCORE.INTRA.DIHEDRAL.0>
11.2357

>  <SCORE.INTRA.POLAR>
0

>  <SCORE.INTRA.POLAR.0>
0

>  <SCORE.INTRA.REPUL>
0.0110533

>  <SCORE.INTRA.REPUL.0>
0

>  <SCORE.INTRA.SOLV>
6.86276

>  <SCORE.INTRA.SOLV.lig_0>
-83.3092

>  <SCORE.INTRA.VDW>
0.527573

>  <SCORE.INTRA.VDW.0>
-4.47057

>  <SCORE.INTRA.norm>
0.170277

>  <SCORE.RESTR>
1.0406

>  <SCORE.RESTR.CAVITY>
1.0406

>  <SCORE.RESTR.norm>
0.0335678

>  <SCORE.SYSTEM>
0

>  <SCORE.SYSTEM.CONST>
0

>  <SCORE.SYSTEM.DIHEDRAL>
0

>  <SCORE.SYSTEM.SOLV>
0

>  <SCORE.SYSTEM.norm>
0

>  <SCORE.heavy>
31

>  <SCORE.norm>
-0.0419989

>  <RMSD>
5.431

$$$$
ligand
 OpenBabel11021811433D
libRbt.so/2013.1/901 2013/11/27
 31 33  0  0  0  0  0  0  0  0999 V2000
   40.3487   22.3847   -3.7356 C   0  0  0  0  0  0  0  0  0  0  0  0
   36.3284   25.7322    2.8622 N   0  0  0  0  0  0  0  0  0  0  0  0
   41.2735   22.2690   -2.6443 O   0  0  0  0  0  0  0  0  0  0  0  0
   39.5729   23.6656   -3.4400 C   0  0  1  0  0  0  0  0  0  0  0  0
   40.1947   23.0449    4.7486 N   0  0  0  0  0  0  0  0  0  0  0  0
   39.1022   23.8090   -2.0040 O   0  0  0  0  0  0  0  0  0  0  0  0
   39.8138   24.7391   -1.2823 C   0  0  1  0  0  0  0  0  0  0  0  0
   45.3466   25.2156    1.4534 N   0  0  0  0  0  0  0  0  0  0  0  0
   40.2968   24.3619   -0.0230 O   0  0  0  0  0  0  0  0  0  0  0  0
   39.4059   23.9175    1.1016 C   0  0  2  0  0  0  0  0  0  0  0  0
   42.2600   20.1287    1.0926 N   0  0  0  0  0  0  0  0  0  0  0  0
   37.5463   25.2765    0.1599 O   0  0  0  0  0  0  0  0  0  0  0  0
   38.3603   25.0406    1.3680 C   0  0  1  0  0  0  0  0  0  0  0  0
   41.1584   22.6547    2.1809 O   0  0  0  0  0  0  0  0  0  0  0  0
   37.3860   24.6201    2.5790 C   0  0  1  0  0  0  0  0  0  0  0  0
   43.0910   23.7888    1.3782 O   0  0  0  0  0  0  0  0  0  0  0  0
   38.2913   24.3732    3.8635 C   0  0  0  0  0  0  0  0  0  0  0  0
   45.4911   22.5080    3.9219 O   0  0  0  0  0  0  0  0  0  0  0  0
   39.3540   23.2476    3.5224 C   0  0  1  0  0  0  0  0  0  0  0  0
   44.7803   20.0691    2.6178 O   0  0  0  0  0  0  0  0  0  0  0  0
   40.2688   23.6745    2.4190 C   0  0  2  0  0  0  0  0  0  0  0  0
   41.1834   26.5832   -1.9248 O   0  0  0  0  0  0  0  0  0  0  0  0
   42.1989   22.5959    1.1716 C   0  0  1  0  0  0  0  0  0  0  0  0
   39.3536   26.0856   -3.9414 O   0  0  0  0  0  0  0  0  0  0  0  0
   43.8741   23.8095    2.6840 C   0  0  2  0  0  0  0  0  0  0  0  0
   44.7060   25.0842    2.7652 C   0  0  0  0  0  0  0  0  0  0  0  0
   44.7623   22.5445    2.7245 C   0  0  2  0  0  0  0  0  0  0  0  0
   43.9179   21.2874    2.5990 C   0  0  1  0  0  0  0  0  0  0  0  0
   43.1262   21.3583    1.2800 C   0  0  1  0  0  0  0  0  0  0  0  0
   40.8743   25.2719   -2.2319 C   0  0  2  0  0  0  0  0  0  0  0  0
   40.2878   25.0046   -3.6553 C   0  0  1  0  0  0  0  0  0  0  0  0
  1  3  1  0  0  0  0
  4  1  1  1  0  0  0
  4  6  1  0  0  0  0
  4 31  1  0  0  0  0
  6  7  1  0  0  0  0
  7  9  1  1  0  0  0
  7 30  1  0  0  0  0
  8 26  1  0  0  0  0
 10  9  1  6  0  0  0
 10 13  1  0  0  0  0
 10 21  1  0  0  0  0
 13 12  1  6  0  0  0
 13 15  1  0  0  0  0
 15  2  1  1  0  0  0
 15 17  1  0  0  0  0
 16 25  1  0  0  0  0
 16 23  1  0  0  0  0
 17 19  1  0  0  0  0
 19  5  1  1  0  0  0
 19 21  1  0  0  0  0
 21 14  1  6  0  0  0
 23 14  1  1  0  0  0
 23 29  1  0  0  0  0
 25 26  1  6  0  0  0
 25 27  1  0  0  0  0
 27 18  1  1  0  0  0
 27 28  1  0  0  0  0
 28 20  1  6  0  0  0
 28 29  1  0  0  0  0
 29 11  1  1  0  0  0
 30 22  1  1  0  0  0
 30 31  1  0  0  0  0
 31 24  1  1  0  0  0
M  END
>  <CHROM.1>
-45.51580479,-59.89192175,-56.04758214,56.86716592,59.62104796,-45.92081289
41.11063959,23.68655628,0.72553175,-2.37985725,-0.37412166,1.69037637

>  <Name>
ligand

>  <RI>
0

>  <Rbt.Current_Directory>
/home/itssahil/PROJECTS/Mol_Feturizer/New_Systems/rnas/2ET5

>  <Rbt.Executable>
rbdock ($Id: //depot/dev/client3/rdock/2013.1/src/exe/rbdock.cxx#4 $)

>  <Rbt.Library>
libRbt.so (2013.1, Build901 2013/11/27)

>  <Rbt.Parameter_File>
/export/apps/rDock/src/rDock_2013.1_src/data/scripts/dock_solv.prm

>  <Rbt.Receptor>
prm/pocket_docking_5.prm

>  <SCORE>
-9.07532

>  <SCORE.INTER>
-5.07041

>  <SCORE.INTER.CONST>
1

>  <SCORE.INTER.POLAR>
0

>  <SCORE.INTER.ROT>
6

>  <SCORE.INTER.SOLV>
16.078

>  <SCORE.INTER.VDW>
-16.3396

>  <SCORE.INTER.norm>
-0.163562

>  <SCORE.INTRA>
-4.00491

>  <SCORE.INTRA.DIHEDRAL>
-9.55409

>  <SCORE.INTRA.DIHEDRAL.0>
11.2357

>  <SCORE.INTRA.POLAR>
0

>  <SCORE.INTRA.POLAR.0>
0

>  <SCORE.INTRA.REPUL>
0

>  <SCORE.INTRA.REPUL.0>
0

>  <SCORE.INTRA.SOLV>
-2.35823

>  <SCORE.INTRA.SOLV.lig_0>
-83.3092

>  <SCORE.INTRA.VDW>
1.95125

>  <SCORE.INTRA.VDW.0>
-4.47057

>  <SCORE.INTRA.norm>
-0.129191

>  <SCORE.RESTR>
0

>  <SCORE.RESTR.CAVITY>
0

>  <SCORE.RESTR.norm>
0

>  <SCORE.SYSTEM>
0

>  <SCORE.SYSTEM.CONST>
0

>  <SCORE.SYSTEM.DIHEDRAL>
0

>  <SCORE.SYSTEM.SOLV>
0

>  <SCORE.SYSTEM.norm>
0

>  <SCORE.heavy>
31

>  <SCORE.norm>
-0.292752

>  <RMSD>
5.438

$$$$
ligand
 OpenBabel11021811433D
libRbt.so/2013.1/901 2013/11/27
 31 33  0  0  0  0  0  0  0  0999 V2000
   41.0456   23.1625   -4.0214 C   0  0  0  0  0  0  0  0  0  0  0  0
   35.9076   25.5450    3.0958 N   0  0  0  0  0  0  0  0  0  0  0  0
   41.7246   23.4566   -2.7918 O   0  0  0  0  0  0  0  0  0  0  0  0
   39.5845   23.5011   -3.7371 C   0  0  1  0  0  0  0  0  0  0  0  0
   40.0576   22.9847    4.4925 N   0  0  0  0  0  0  0  0  0  0  0  0
   39.1156   23.1719   -2.3315 O   0  0  0  0  0  0  0  0  0  0  0  0
   38.9438   24.2803   -1.5352 C   0  0  1  0  0  0  0  0  0  0  0  0
   43.7226   25.0530    3.9278 N   0  0  0  0  0  0  0  0  0  0  0  0
   39.5213   24.2670   -0.2594 O   0  0  0  0  0  0  0  0  0  0  0  0
   38.7921   23.8059    0.9700 C   0  0  2  0  0  0  0  0  0  0  0  0
   41.4937   20.4451   -0.0448 N   0  0  0  0  0  0  0  0  0  0  0  0
   36.7898   25.1035    0.2638 O   0  0  0  0  0  0  0  0  0  0  0  0
   37.7555   24.9005    1.3610 C   0  0  1  0  0  0  0  0  0  0  0  0
   40.7026   22.6024    1.8257 O   0  0  0  0  0  0  0  0  0  0  0  0
   36.9537   24.4616    2.6866 C   0  0  1  0  0  0  0  0  0  0  0  0
   42.8851   23.5270    1.6087 O   0  0  0  0  0  0  0  0  0  0  0  0
   38.0198   24.2508    3.8481 C   0  0  0  0  0  0  0  0  0  0  0  0
   44.6897   20.9825    3.6434 O   0  0  0  0  0  0  0  0  0  0  0  0
   39.0640   23.1536    3.3808 C   0  0  1  0  0  0  0  0  0  0  0  0
   43.7516   19.3481    1.4980 O   0  0  0  0  0  0  0  0  0  0  0  0
   39.8202   23.5980    2.1695 C   0  0  2  0  0  0  0  0  0  0  0  0
   38.6243   26.5923   -2.0273 O   0  0  0  0  0  0  0  0  0  0  0  0
   41.8389   22.6883    0.9278 C   0  0  1  0  0  0  0  0  0  0  0  0
   37.7313   25.0916   -4.1748 O   0  0  0  0  0  0  0  0  0  0  0  0
   43.4867   22.9328    2.8750 C   0  0  2  0  0  0  0  0  0  0  0  0
   44.5039   23.9023    3.4657 C   0  0  0  0  0  0  0  0  0  0  0  0
   44.1369   21.5804    2.5019 C   0  0  2  0  0  0  0  0  0  0  0  0
   43.1161   20.6449    1.8757 C   0  0  1  0  0  0  0  0  0  0  0  0
   42.5232   21.3293    0.6301 C   0  0  1  0  0  0  0  0  0  0  0  0
   39.3400   25.4692   -2.3955 C   0  0  2  0  0  0  0  0  0  0  0  0
   39.1488   24.9656   -3.8622 C   0  0  1  0  0  0  0  0  0  0  0  0
  1  3  1  0  0  0  0
  4  1  1  1  0  0  0
  4  6  1  0  0  0  0
  4 31  1  0  0  0  0
  6  7  1  0  0  0  0
  7  9  1  1  0  0  0
  7 30  1  0  0  0  0
  8 26  1  0  0  0  0
 10  9  1  6  0  0  0
 10 13  1  0  0  0  0
 10 21  1  0  0  0  0
 13 12  1  6  0  0  0
 13 15  1  0  0  0  0
 15  2  1  1  0  0  0
 15 17  1  0  0  0  0
 16 25  1  0  0  0  0
 16 23  1  0  0  0  0
 17 19  1  0  0  0  0
 19  5  1  1  0  0  0
 19 21  1  0  0  0  0
 21 14  1  6  0  0  0
 23 14  1  1  0  0  0
 23 29  1  0  0  0  0
 25 26  1  6  0  0  0
 25 27  1  0  0  0  0
 27 18  1  1  0  0  0
 27 28  1  0  0  0  0
 28 20  1  6  0  0  0
 28 29  1  0  0  0  0
 29 11  1  1  0  0  0
 30 22  1  1  0  0  0
 30 31  1  0  0  0  0
 31 24  1  1  0  0  0
M  END
>  <CHROM.1>
-36.48504253,-92.35637894,-73.61274389,70.30515894,77.21090755,67.68167239
40.48557439,23.44580261,0.60202203,-2.42357021,-0.51441332,1.58436852

>  <Name>
ligand

>  <RI>
0

>  <Rbt.Current_Directory>
/home/itssahil/PROJECTS/Mol_Feturizer/New_Systems/rnas/2ET5

>  <Rbt.Executable>
rbdock ($Id: //depot/dev/client3/rdock/2013.1/src/exe/rbdock.cxx#4 $)

>  <Rbt.Library>
libRbt.so (2013.1, Build901 2013/11/27)

>  <Rbt.Parameter_File>
/export/apps/rDock/src/rDock_2013.1_src/data/scripts/dock_solv.prm

>  <Rbt.Receptor>
prm/pocket_docking_2.prm

>  <SCORE>
-2.06263

>  <SCORE.INTER>
-2.23993

>  <SCORE.INTER.CONST>
1

>  <SCORE.INTER.POLAR>
0

>  <SCORE.INTER.ROT>
6

>  <SCORE.INTER.SOLV>
19.8342

>  <SCORE.INTER.VDW>
-15.7047

>  <SCORE.INTER.norm>
-0.0722558

>  <SCORE.INTRA>
-1.84387

>  <SCORE.INTRA.DIHEDRAL>
-2.43457

>  <SCORE.INTRA.DIHEDRAL.0>
11.2357

>  <SCORE.INTRA.POLAR>
0

>  <SCORE.INTRA.POLAR.0>
0

>  <SCORE.INTRA.REPUL>
0

>  <SCORE.INTRA.REPUL.0>
0

>  <SCORE.INTRA.SOLV>
-2.62951

>  <SCORE.INTRA.SOLV.lig_0>
-83.3092

>  <SCORE.INTRA.VDW>
0.688164

>  <SCORE.INTRA.VDW.0>
-4.47057

>  <SCORE.INTRA.norm>
-0.0594797

>  <SCORE.RESTR>
2.02117

>  <SCORE.RESTR.CAVITY>
2.02117

>  <SCORE.RESTR.norm>
0.0651992

>  <SCORE.SYSTEM>
0

>  <SCORE.SYSTEM.CONST>
0

>  <SCORE.SYSTEM.DIHEDRAL>
0

>  <SCORE.SYSTEM.SOLV>
0

>  <SCORE.SYSTEM.norm>
0

>  <SCORE.heavy>
31

>  <SCORE.norm>
-0.0665363

>  <RMSD>
5.446

$$$$
ligand
 OpenBabel11021811433D
libRbt.so/2013.1/901 2013/11/27
 31 33  0  0  0  0  0  0  0  0999 V2000
   34.3688   24.4827    4.3128 C   0  0  0  0  0  0  0  0  0  0  0  0
   39.3109   31.0518    2.5167 N   0  0  0  0  0  0  0  0  0  0  0  0
   35.4221   23.7991    3.6181 O   0  0  0  0  0  0  0  0  0  0  0  0
   34.2337   25.8144    3.5792 C   0  0  1  0  0  0  0  0  0  0  0  0
   42.3286   26.9748    2.4910 N   0  0  0  0  0  0  0  0  0  0  0  0
   35.5156   26.6215    3.4816 O   0  0  0  0  0  0  0  0  0  0  0  0
   36.0693   26.6242    2.2224 C   0  0  1  0  0  0  0  0  0  0  0  0
   40.9504   23.6458   -2.0108 N   0  0  0  0  0  0  0  0  0  0  0  0
   37.4344   26.3338    2.1058 O   0  0  0  0  0  0  0  0  0  0  0  0
   38.5100   27.1574    2.7542 C   0  0  2  0  0  0  0  0  0  0  0  0
   40.1004   22.9322    4.4654 N   0  0  0  0  0  0  0  0  0  0  0  0
   37.0082   29.1410    2.7161 O   0  0  0  0  0  0  0  0  0  0  0  0
   38.3313   28.6366    2.3007 C   0  0  1  0  0  0  0  0  0  0  0  0
   40.1039   25.3435    2.7437 O   0  0  0  0  0  0  0  0  0  0  0  0
   39.4723   29.5634    2.9576 C   0  0  1  0  0  0  0  0  0  0  0  0
   38.9282   24.1045    1.0861 O   0  0  0  0  0  0  0  0  0  0  0  0
   40.8832   28.9951    2.4921 C   0  0  0  0  0  0  0  0  0  0  0  0
   41.7804   21.9974   -0.0523 O   0  0  0  0  0  0  0  0  0  0  0  0
   40.9935   27.4819    2.9512 C   0  0  1  0  0  0  0  0  0  0  0  0
   41.5367   21.1088    2.6505 O   0  0  0  0  0  0  0  0  0  0  0  0
   39.9458   26.6350    2.3018 C   0  0  2  0  0  0  0  0  0  0  0  0
   35.1712   26.1747    0.0589 O   0  0  0  0  0  0  0  0  0  0  0  0
   39.2032   24.2212    2.5599 C   0  0  1  0  0  0  0  0  0  0  0  0
   33.1224   27.0201    1.7172 O   0  0  0  0  0  0  0  0  0  0  0  0
   40.1239   23.7364    0.2182 C   0  0  2  0  0  0  0  0  0  0  0  0
   39.7011   23.6839   -1.2453 C   0  0  0  0  0  0  0  0  0  0  0  0
   40.6620   22.3715    0.7063 C   0  0  2  0  0  0  0  0  0  0  0  0
   41.0371   22.4336    2.1775 C   0  0  1  0  0  0  0  0  0  0  0  0
   39.7931   22.8514    2.9834 C   0  0  1  0  0  0  0  0  0  0  0  0
   35.1624   25.7485    1.3732 C   0  0  2  0  0  0  0  0  0  0  0  0
   33.7867   25.7852    2.1130 C   0  0  1  0  0  0  0  0  0  0  0  0
  1  3  1  0  0  0  0
  4  1  1  6  0  0  0
  4  6  1  0  0  0  0
  4 31  1  0  0  0  0
  6  7  1  0  0  0  0
  7  9  1  1  0  0  0
  7 30  1  0  0  0  0
  8 26  1  0  0  0  0
 10  9  1  6  0  0  0
 10 13  1  0  0  0  0
 10 21  1  0  0  0  0
 13 12  1  1  0  0  0
 13 15  1  0  0  0  0
 15  2  1  6  0  0  0
 15 17  1  0  0  0  0
 16 25  1  0  0  0  0
 16 23  1  0  0  0  0
 17 19  1  0  0  0  0
 19  5  1  6  0  0  0
 19 21  1  0  0  0  0
 21 14  1  1  0  0  0
 23 14  1  6  0  0  0
 23 29  1  0  0  0  0
 25 26  1  6  0  0  0
 25 27  1  0  0  0  0
 27 18  1  6  0  0  0
 27 28  1  0  0  0  0
 28 20  1  1  0  0  0
 28 29  1  0  0  0  0
 29 11  1  1  0  0  0
 30 22  1  6  0  0  0
 30 31  1  0  0  0  0
 31 24  1  6  0  0  0
M  END
>  <CHROM.1>
-55.19075267,-60.61927507,-54.94236613,53.63409341,51.31125017,166.84112252
38.38329686,25.54292258,2.06798482,2.50439280,0.11900279,0.16817587

>  <Name>
ligand

>  <RI>
0

>  <Rbt.Current_Directory>
/home/itssahil/PROJECTS/Mol_Feturizer/New_Systems/rnas/2ET5

>  <Rbt.Executable>
rbdock ($Id: //depot/dev/client3/rdock/2013.1/src/exe/rbdock.cxx#4 $)

>  <Rbt.Library>
libRbt.so (2013.1, Build901 2013/11/27)

>  <Rbt.Parameter_File>
/export/apps/rDock/src/rDock_2013.1_src/data/scripts/dock_solv.prm

>  <Rbt.Receptor>
prm/pocket_docking_6.prm

>  <SCORE>
-7.41891

>  <SCORE.INTER>
-3.30728

>  <SCORE.INTER.CONST>
1

>  <SCORE.INTER.POLAR>
0

>  <SCORE.INTER.ROT>
6

>  <SCORE.INTER.SOLV>
15.232

>  <SCORE.INTER.VDW>
-14.8822

>  <SCORE.INTER.norm>
-0.106687

>  <SCORE.INTRA>
-4.11162

>  <SCORE.INTRA.DIHEDRAL>
-9.71996

>  <SCORE.INTRA.DIHEDRAL.0>
11.2357

>  <SCORE.INTRA.POLAR>
0

>  <SCORE.INTRA.POLAR.0>
0

>  <SCORE.INTRA.REPUL>
0.00119558

>  <SCORE.INTRA.REPUL.0>
0

>  <SCORE.INTRA.SOLV>
-2.87365

>  <SCORE.INTRA.SOLV.lig_0>
-83.3092

>  <SCORE.INTRA.VDW>
2.1792

>  <SCORE.INTRA.VDW.0>
-4.47057

>  <SCORE.INTRA.norm>
-0.132633

>  <SCORE.RESTR>
0

>  <SCORE.RESTR.CAVITY>
0

>  <SCORE.RESTR.norm>
0

>  <SCORE.SYSTEM>
0

>  <SCORE.SYSTEM.CONST>
0

>  <SCORE.SYSTEM.DIHEDRAL>
0

>  <SCORE.SYSTEM.SOLV>
0

>  <SCORE.SYSTEM.norm>
0

>  <SCORE.heavy>
31

>  <SCORE.norm>
-0.23932

>  <RMSD>
5.454

$$$$
ligand
 OpenBabel11021811433D
libRbt.so/2013.1/901 2013/11/27
 31 33  0  0  0  0  0  0  0  0999 V2000
   40.2646   22.3334   -3.7760 C   0  0  0  0  0  0  0  0  0  0  0  0
   36.3586   25.7525    2.7992 N   0  0  0  0  0  0  0  0  0  0  0  0
   41.3145   22.2655   -2.7998 O   0  0  0  0  0  0  0  0  0  0  0  0
   39.5696   23.6625   -3.4924 C   0  0  1  0  0  0  0  0  0  0  0  0
   40.1078   22.8836    4.6542 N   0  0  0  0  0  0  0  0  0  0  0  0
   39.1011   23.8442   -2.0600 O   0  0  0  0  0  0  0  0  0  0  0  0
   39.8660   24.7319   -1.3396 C   0  0  1  0  0  0  0  0  0  0  0  0
   43.7941   25.9444    2.7862 N   0  0  0  0  0  0  0  0  0  0  0  0
   40.3174   24.3328   -0.0753 O   0  0  0  0  0  0  0  0  0  0  0  0
   39.3973   23.8865    1.0247 C   0  0  2  0  0  0  0  0  0  0  0  0
   42.1137   20.0066    0.9298 N   0  0  0  0  0  0  0  0  0  0  0  0
   37.5967   25.3338    0.1001 O   0  0  0  0  0  0  0  0  0  0  0  0
   38.3861   25.0360    1.3107 C   0  0  1  0  0  0  0  0  0  0  0  0
   41.0922   22.5350    2.0884 O   0  0  0  0  0  0  0  0  0  0  0  0
   37.3823   24.6140    2.4969 C   0  0  1  0  0  0  0  0  0  0  0  0
   43.0768   23.6211    1.3488 O   0  0  0  0  0  0  0  0  0  0  0  0
   38.2616   24.3000    3.7847 C   0  0  0  0  0  0  0  0  0  0  0  0
   45.3917   22.1671    3.8782 O   0  0  0  0  0  0  0  0  0  0  0  0
   39.2907   23.1495    3.4241 C   0  0  1  0  0  0  0  0  0  0  0  0
   44.6085   19.8013    2.4840 O   0  0  0  0  0  0  0  0  0  0  0  0
   40.2339   23.5769    2.3451 C   0  0  2  0  0  0  0  0  0  0  0  0
   41.3527   26.4820   -1.9849 O   0  0  0  0  0  0  0  0  0  0  0  0
   42.1437   22.4704    1.0909 C   0  0  1  0  0  0  0  0  0  0  0  0
   39.5062   26.0883   -4.0091 O   0  0  0  0  0  0  0  0  0  0  0  0
   43.8419   23.5690    2.6643 C   0  0  2  0  0  0  0  0  0  0  0  0
   44.7196   24.8080    2.7988 C   0  0  0  0  0  0  0  0  0  0  0  0
   44.6815   22.2708    2.6736 C   0  0  2  0  0  0  0  0  0  0  0  0
   43.7926   21.0513    2.4952 C   0  0  1  0  0  0  0  0  0  0  0  0
   43.0226   21.1956    1.1694 C   0  0  1  0  0  0  0  0  0  0  0  0
   40.9632   25.1910   -2.2861 C   0  0  2  0  0  0  0  0  0  0  0  0
   40.3687   24.9524   -3.7113 C   0  0  1  0  0  0  0  0  0  0  0  0
  1  3  1  0  0  0  0
  4  1  1  1  0  0  0
  4  6  1  0  0  0  0
  4 31  1  0  0  0  0
  6  7  1  0  0  0  0
  7  9  1  1  0  0  0
  7 30  1  0  0  0  0
  8 26  1  0  0  0  0
 10  9  1  6  0  0  0
 10 13  1  0  0  0  0
 10 21  1  0  0  0  0
 13 12  1  6  0  0  0
 13 15  1  0  0  0  0
 15  2  1  1  0  0  0
 15 17  1  0  0  0  0
 16 25  1  0  0  0  0
 16 23  1  0  0  0  0
 17 19  1  0  0  0  0
 19  5  1  1  0  0  0
 19 21  1  0  0  0  0
 21 14  1  6  0  0  0
 23 14  1  1  0  0  0
 23 29  1  0  0  0  0
 25 26  1  6  0  0  0
 25 27  1  0  0  0  0
 27 18  1  1  0  0  0
 27 28  1  0  0  0  0
 28 20  1  6  0  0  0
 28 29  1  0  0  0  0
 29 11  1  1  0  0  0
 30 22  1  1  0  0  0
 30 31  1  0  0  0  0
 31 24  1  1  0  0  0
M  END
>  <CHROM.1>
-54.18223282,-56.71984242,-57.61360653,57.20537986,59.63427165,60.91681344
41.04677728,23.61268947,0.69894264,-2.34075858,-0.46337260,1.65362839

>  <Name>
ligand

>  <RI>
0

>  <Rbt.Current_Directory>
/home/itssahil/PROJECTS/Mol_Feturizer/New_Systems/rnas/2ET5

>  <Rbt.Executable>
rbdock ($Id: //depot/dev/client3/rdock/2013.1/src/exe/rbdock.cxx#4 $)

>  <Rbt.Library>
libRbt.so (2013.1, Build901 2013/11/27)

>  <Rbt.Parameter_File>
/export/apps/rDock/src/rDock_2013.1_src/data/scripts/dock_solv.prm

>  <Rbt.Receptor>
prm/pocket_docking_5.prm

>  <SCORE>
-10.6918

>  <SCORE.INTER>
-5.21742

>  <SCORE.INTER.CONST>
1

>  <SCORE.INTER.POLAR>
0

>  <SCORE.INTER.ROT>
6

>  <SCORE.INTER.SOLV>
16.1087

>  <SCORE.INTER.VDW>
-16.4479

>  <SCORE.INTER.norm>
-0.168304

>  <SCORE.INTRA>
-5.47437

>  <SCORE.INTRA.DIHEDRAL>
-10.8486

>  <SCORE.INTRA.DIHEDRAL.0>
11.2357

>  <SCORE.INTRA.POLAR>
0

>  <SCORE.INTRA.POLAR.0>
0

>  <SCORE.INTRA.REPUL>
0

>  <SCORE.INTRA.REPUL.0>
0

>  <SCORE.INTRA.SOLV>
-3.64197

>  <SCORE.INTRA.SOLV.lig_0>
-83.3092

>  <SCORE.INTRA.VDW>
1.77089

>  <SCORE.INTRA.VDW.0>
-4.47057

>  <SCORE.INTRA.norm>
-0.176593

>  <SCORE.RESTR>
0

>  <SCORE.RESTR.CAVITY>
0

>  <SCORE.RESTR.norm>
0

>  <SCORE.SYSTEM>
0

>  <SCORE.SYSTEM.CONST>
0

>  <SCORE.SYSTEM.DIHEDRAL>
0

>  <SCORE.SYSTEM.SOLV>
0

>  <SCORE.SYSTEM.norm>
0

>  <SCORE.heavy>
31

>  <SCORE.norm>
-0.344897

>  <RMSD>
5.463

$$$$
ligand
 OpenBabel11021811433D
libRbt.so/2013.1/901 2013/11/27
 31 33  0  0  0  0  0  0  0  0999 V2000
   40.2720   22.3054   -3.8274 C   0  0  0  0  0  0  0  0  0  0  0  0
   36.3683   25.7191    2.7818 N   0  0  0  0  0  0  0  0  0  0  0  0
   41.3318   22.2459   -2.8615 O   0  0  0  0  0  0  0  0  0  0  0  0
   39.5525   23.6159   -3.5193 C   0  0  1  0  0  0  0  0  0  0  0  0
   40.1420   22.9015    4.6657 N   0  0  0  0  0  0  0  0  0  0  0  0
   39.0884   23.7659   -2.0819 O   0  0  0  0  0  0  0  0  0  0  0  0
   39.8395   24.6573   -1.3515 C   0  0  1  0  0  0  0  0  0  0  0  0
   43.7832   25.9380    2.7538 N   0  0  0  0  0  0  0  0  0  0  0  0
   40.3056   24.2475   -0.0961 O   0  0  0  0  0  0  0  0  0  0  0  0
   39.3965   23.8230    1.0216 C   0  0  2  0  0  0  0  0  0  0  0  0
   42.1427   19.9551    0.9918 N   0  0  0  0  0  0  0  0  0  0  0  0
   37.5837   25.2448    0.0816 O   0  0  0  0  0  0  0  0  0  0  0  0
   38.3846   24.9757    1.2914 C   0  0  1  0  0  0  0  0  0  0  0  0
   41.1047   22.4995    2.0994 O   0  0  0  0  0  0  0  0  0  0  0  0
   37.3926   24.5770    2.4954 C   0  0  1  0  0  0  0  0  0  0  0  0
   43.0830   23.5832    1.3397 O   0  0  0  0  0  0  0  0  0  0  0  0
   38.2842   24.2937    3.7818 C   0  0  0  0  0  0  0  0  0  0  0  0
   45.4051   22.1939    3.8988 O   0  0  0  0  0  0  0  0  0  0  0  0
   39.3133   23.1383    3.4374 C   0  0  1  0  0  0  0  0  0  0  0  0
   44.6376   19.7961    2.5513 O   0  0  0  0  0  0  0  0  0  0  0  0
   40.2457   23.5445    2.3409 C   0  0  2  0  0  0  0  0  0  0  0  0
   41.2879   26.4463   -1.9769 O   0  0  0  0  0  0  0  0  0  0  0  0
   42.1573   22.4217    1.1041 C   0  0  1  0  0  0  0  0  0  0  0  0
   39.4385   26.0478   -3.9976 O   0  0  0  0  0  0  0  0  0  0  0  0
   43.8474   23.5619    2.6565 C   0  0  2  0  0  0  0  0  0  0  0  0
   44.7173   24.8087    2.7669 C   0  0  0  0  0  0  0  0  0  0  0  0
   44.6951   22.2693    2.6920 C   0  0  2  0  0  0  0  0  0  0  0  0
   43.8139   21.0410    2.5373 C   0  0  1  0  0  0  0  0  0  0  0  0
   43.0440   21.1543    1.2084 C   0  0  1  0  0  0  0  0  0  0  0  0
   40.9223   25.1527   -2.2964 C   0  0  2  0  0  0  0  0  0  0  0  0
   40.3249   24.9247   -3.7221 C   0  0  1  0  0  0  0  0  0  0  0  0
  1  3  1  0  0  0  0
  4  1  1  1  0  0  0
  4  6  1  0  0  0  0
  4 31  1  0  0  0  0
  6  7  1  0  0  0  0
  7  9  1  1  0  0  0
  7 30  1  0  0  0  0
  8 26  1  0  0  0  0
 10  9  1  6  0  0  0
 10 13  1  0  0  0  0
 10 21  1  0  0  0  0
 13 12  1  6  0  0  0
 13 15  1  0  0  0  0
 15  2  1  1  0  0  0
 15 17  1  0  0  0  0
 16 25  1  0  0  0  0
 16 23  1  0  0  0  0
 17 19  1  0  0  0  0
 19  5  1  1  0  0  0
 19 21  1  0  0  0  0
 21 14  1  6  0  0  0
 23 14  1  1  0  0  0
 23 29  1  0  0  0  0
 25 26  1  6  0  0  0
 25 27  1  0  0  0  0
 27 18  1  1  0  0  0
 27 28  1  0  0  0  0
 28 20  1  6  0  0  0
 28 29  1  0  0  0  0
 29 11  1  1  0  0  0
 30 22  1  1  0  0  0
 30 31  1  0  0  0  0
 31 24  1  1  0  0  0
M  END
>  <CHROM.1>
-54.42184168,-59.47977162,-55.56733005,56.71998869,60.38652617,61.83413112
41.04600169,23.57995535,0.69735598,-2.33925746,-0.46114206,1.64412782

>  <Name>
ligand

>  <RI>
0

>  <Rbt.Current_Directory>
/home/itssahil/PROJECTS/Mol_Feturizer/New_Systems/rnas/2ET5

>  <Rbt.Executable>
rbdock ($Id: //depot/dev/client3/rdock/2013.1/src/exe/rbdock.cxx#4 $)

>  <Rbt.Library>
libRbt.so (2013.1, Build901 2013/11/27)

>  <Rbt.Parameter_File>
/export/apps/rDock/src/rDock_2013.1_src/data/scripts/dock_solv.prm

>  <Rbt.Receptor>
prm/pocket_docking_4.prm

>  <SCORE>
-10.6454

>  <SCORE.INTER>
-5.2633

>  <SCORE.INTER.CONST>
1

>  <SCORE.INTER.POLAR>
0

>  <SCORE.INTER.ROT>
6

>  <SCORE.INTER.SOLV>
16.3639

>  <SCORE.INTER.VDW>
-16.5635

>  <SCORE.INTER.norm>
-0.169784

>  <SCORE.INTRA>
-5.38214

>  <SCORE.INTRA.DIHEDRAL>
-10.8165

>  <SCORE.INTRA.DIHEDRAL.0>
11.2357

>  <SCORE.INTRA.POLAR>
0

>  <SCORE.INTRA.POLAR.0>
0

>  <SCORE.INTRA.REPUL>
0

>  <SCORE.INTRA.REPUL.0>
0

>  <SCORE.INTRA.SOLV>
-3.64549

>  <SCORE.INTRA.SOLV.lig_0>
-83.3092

>  <SCORE.INTRA.VDW>
1.84887

>  <SCORE.INTRA.VDW.0>
-4.47057

>  <SCORE.INTRA.norm>
-0.173617

>  <SCORE.RESTR>
0

>  <SCORE.RESTR.CAVITY>
0

>  <SCORE.RESTR.norm>
0

>  <SCORE.SYSTEM>
0

>  <SCORE.SYSTEM.CONST>
0

>  <SCORE.SYSTEM.DIHEDRAL>
0

>  <SCORE.SYSTEM.SOLV>
0

>  <SCORE.SYSTEM.norm>
0

>  <SCORE.heavy>
31

>  <SCORE.norm>
-0.343401

>  <RMSD>
5.464

$$$$
ligand
 OpenBabel11021811433D
libRbt.so/2013.1/901 2013/11/27
 31 33  0  0  0  0  0  0  0  0999 V2000
   40.2977   22.2538   -3.7684 C   0  0  0  0  0  0  0  0  0  0  0  0
   36.3532   25.7097    2.8027 N   0  0  0  0  0  0  0  0  0  0  0  0
   41.3298   22.2127   -2.7720 O   0  0  0  0  0  0  0  0  0  0  0  0
   39.5577   23.5602   -3.4929 C   0  0  1  0  0  0  0  0  0  0  0  0
   40.1673   22.9391    4.6749 N   0  0  0  0  0  0  0  0  0  0  0  0
   39.0912   23.7388   -2.0595 O   0  0  0  0  0  0  0  0  0  0  0  0
   39.8282   24.6598   -1.3519 C   0  0  1  0  0  0  0  0  0  0  0  0
   43.7687   26.0167    2.7928 N   0  0  0  0  0  0  0  0  0  0  0  0
   40.3006   24.2888   -0.0867 O   0  0  0  0  0  0  0  0  0  0  0  0
   39.4001   23.8524    1.0333 C   0  0  2  0  0  0  0  0  0  0  0  0
   42.1878   20.0172    0.9929 N   0  0  0  0  0  0  0  0  0  0  0  0
   37.5669   25.2517    0.0989 O   0  0  0  0  0  0  0  0  0  0  0  0
   38.3746   24.9923    1.3064 C   0  0  1  0  0  0  0  0  0  0  0  0
   41.1278   22.5502    2.1058 O   0  0  0  0  0  0  0  0  0  0  0  0
   37.3910   24.5807    2.5129 C   0  0  1  0  0  0  0  0  0  0  0  0
   43.0888   23.6560    1.3332 O   0  0  0  0  0  0  0  0  0  0  0  0
   38.2896   24.3081    3.7968 C   0  0  0  0  0  0  0  0  0  0  0  0
   45.4426   22.2947    3.8783 O   0  0  0  0  0  0  0  0  0  0  0  0
   39.3323   23.1659    3.4490 C   0  0  1  0  0  0  0  0  0  0  0  0
   44.6941   19.8876    2.5368 O   0  0  0  0  0  0  0  0  0  0  0  0
   40.2564   23.5843    2.3501 C   0  0  2  0  0  0  0  0  0  0  0  0
   41.2484   26.4550   -2.0223 O   0  0  0  0  0  0  0  0  0  0  0  0
   42.1749   22.4839    1.1039 C   0  0  1  0  0  0  0  0  0  0  0  0
   39.4056   25.9773   -4.0317 O   0  0  0  0  0  0  0  0  0  0  0  0
   43.8617   23.6441    2.6451 C   0  0  2  0  0  0  0  0  0  0  0  0
   44.7180   24.9008    2.7495 C   0  0  0  0  0  0  0  0  0  0  0  0
   44.7243   22.3613    2.6759 C   0  0  2  0  0  0  0  0  0  0  0  0
   43.8562   21.1230    2.5273 C   0  0  1  0  0  0  0  0  0  0  0  0
   43.0767   21.2267    1.2032 C   0  0  1  0  0  0  0  0  0  0  0  0
   40.9032   25.1483   -2.3092 C   0  0  2  0  0  0  0  0  0  0  0  0
   40.3095   24.8754   -3.7285 C   0  0  1  0  0  0  0  0  0  0  0  0
  1  3  1  0  0  0  0
  4  1  1  1  0  0  0
  4  6  1  0  0  0  0
  4 31  1  0  0  0  0
  6  7  1  0  0  0  0
  7  9  1  1  0  0  0
  7 30  1  0  0  0  0
  8 26  1  0  0  0  0
 10  9  1  6  0  0  0
 10 13  1  0  0  0  0
 10 21  1  0  0  0  0
 13 12  1  6  0  0  0
 13 15  1  0  0  0  0
 15  2  1  1  0  0  0
 15 17  1  0  0  0  0
 16 25  1  0  0  0  0
 16 23  1  0  0  0  0
 17 19  1  0  0  0  0
 19  5  1  1  0  0  0
 19 21  1  0  0  0  0
 21 14  1  6  0  0  0
 23 14  1  1  0  0  0
 23 29  1  0  0  0  0
 25 26  1  6  0  0  0
 25 27  1  0  0  0  0
 27 18  1  1  0  0  0
 27 28  1  0  0  0  0
 28 20  1  6  0  0  0
 28 29  1  0  0  0  0
 29 11  1  1  0  0  0
 30 22  1  6  0  0  0
 30 31  1  0  0  0  0
 31 24  1  1  0  0  0
M  END
>  <CHROM.1>
-52.48898370,-58.24767484,-57.29352424,56.88880411,60.11127148,63.91381944
41.05285559,23.60772201,0.70310771,-2.34981698,-0.45090965,1.62839685

>  <Name>
ligand

>  <RI>
0

>  <Rbt.Current_Directory>
/home/itssahil/PROJECTS/Mol_Feturizer/New_Systems/rnas/2ET5

>  <Rbt.Executable>
rbdock ($Id: //depot/dev/client3/rdock/2013.1/src/exe/rbdock.cxx#4 $)

>  <Rbt.Library>
libRbt.so (2013.1, Build901 2013/11/27)

>  <Rbt.Parameter_File>
/export/apps/rDock/src/rDock_2013.1_src/data/scripts/dock_solv.prm

>  <Rbt.Receptor>
prm/pocket_docking_6.prm

>  <SCORE>
-10.636

>  <SCORE.INTER>
-5.18529

>  <SCORE.INTER.CONST>
1

>  <SCORE.INTER.POLAR>
0

>  <SCORE.INTER.ROT>
6

>  <SCORE.INTER.SOLV>
16.0096

>  <SCORE.INTER.VDW>
-16.3934

>  <SCORE.INTER.norm>
-0.167267

>  <SCORE.INTRA>
-5.45074

>  <SCORE.INTRA.DIHEDRAL>
-10.7359

>  <SCORE.INTRA.DIHEDRAL.0>
11.2357

>  <SCORE.INTRA.POLAR>
0

>  <SCORE.INTRA.POLAR.0>
0

>  <SCORE.INTRA.REPUL>
0

>  <SCORE.INTRA.REPUL.0>
0

>  <SCORE.INTRA.SOLV>
-3.65937

>  <SCORE.INTRA.SOLV.lig_0>
-83.3092

>  <SCORE.INTRA.VDW>
1.7469

>  <SCORE.INTRA.VDW.0>
-4.47057

>  <SCORE.INTRA.norm>
-0.17583

>  <SCORE.RESTR>
0

>  <SCORE.RESTR.CAVITY>
0

>  <SCORE.RESTR.norm>
0

>  <SCORE.SYSTEM>
0

>  <SCORE.SYSTEM.CONST>
0

>  <SCORE.SYSTEM.DIHEDRAL>
0

>  <SCORE.SYSTEM.SOLV>
0

>  <SCORE.SYSTEM.norm>
0

>  <SCORE.heavy>
31

>  <SCORE.norm>
-0.343098

>  <RMSD>
5.470

$$$$
ligand
 OpenBabel11021811433D
libRbt.so/2013.1/901 2013/11/27
 31 33  0  0  0  0  0  0  0  0999 V2000
   36.2187   25.0248   -0.4995 C   0  0  0  0  0  0  0  0  0  0  0  0
   36.0873   28.4239    4.0056 N   0  0  0  0  0  0  0  0  0  0  0  0
   35.5819   26.3104   -0.5363 O   0  0  0  0  0  0  0  0  0  0  0  0
   37.5536   25.2434   -1.2070 C   0  0  1  0  0  0  0  0  0  0  0  0
   39.3783   25.3077    6.2832 N   0  0  0  0  0  0  0  0  0  0  0  0
   38.4677   26.2581   -0.5444 O   0  0  0  0  0  0  0  0  0  0  0  0
   39.5418   25.6914    0.1017 C   0  0  1  0  0  0  0  0  0  0  0  0
   43.4293   21.3399    1.2389 N   0  0  0  0  0  0  0  0  0  0  0  0
   39.8070   26.0998    1.4148 O   0  0  0  0  0  0  0  0  0  0  0  0
   38.8293   25.9329    2.5426 C   0  0  2  0  0  0  0  0  0  0  0  0
   42.0614   25.9891    5.6694 N   0  0  0  0  0  0  0  0  0  0  0  0
   37.2589   27.4933    1.4066 O   0  0  0  0  0  0  0  0  0  0  0  0
   37.9939   27.2420    2.6612 C   0  0  1  0  0  0  0  0  0  0  0  0
   40.3086   24.4991    3.8023 O   0  0  0  0  0  0  0  0  0  0  0  0
   36.9367   27.1217    3.8697 C   0  0  1  0  0  0  0  0  0  0  0  0
   41.5801   22.5371    4.2482 O   0  0  0  0  0  0  0  0  0  0  0  0
   37.7582   26.8514    5.2047 C   0  0  0  0  0  0  0  0  0  0  0  0
   44.6169   23.4814    2.3098 O   0  0  0  0  0  0  0  0  0  0  0  0
   38.6113   25.5293    5.0127 C   0  0  1  0  0  0  0  0  0  0  0  0
   44.6322   25.5217    4.3076 O   0  0  0  0  0  0  0  0  0  0  0  0
   39.6091   25.6771    3.9085 C   0  0  2  0  0  0  0  0  0  0  0  0
   40.6149   23.5705   -0.0975 O   0  0  0  0  0  0  0  0  0  0  0  0
   41.1462   23.8656    4.8033 C   0  0  1  0  0  0  0  0  0  0  0  0
   39.3816   24.1754   -2.5006 O   0  0  0  0  0  0  0  0  0  0  0  0
   42.4847   22.5961    3.0247 C   0  0  2  0  0  0  0  0  0  0  0  0
   42.8160   21.1825    2.5608 C   0  0  0  0  0  0  0  0  0  0  0  0
   43.7579   23.3825    3.4137 C   0  0  2  0  0  0  0  0  0  0  0  0
   43.4024   24.7728    3.9137 C   0  0  1  0  0  0  0  0  0  0  0  0
   42.4557   24.6326    5.1202 C   0  0  1  0  0  0  0  0  0  0  0  0
   39.3801   24.1900   -0.0723 C   0  0  2  0  0  0  0  0  0  0  0  0
   38.4954   24.0424   -1.3517 C   0  0  1  0  0  0  0  0  0  0  0  0
  1  3  1  0  0  0  0
  4  1  1  1  0  0  0
  4  6  1  0  0  0  0
  4 31  1  0  0  0  0
  6  7  1  0  0  0  0
  7  9  1  1  0  0  0
  7 30  1  0  0  0  0
  8 26  1  0  0  0  0
 10  9  1  6  0  0  0
 10 13  1  0  0  0  0
 10 21  1  0  0  0  0
 13 12  1  6  0  0  0
 13 15  1  0  0  0  0
 15  2  1  1  0  0  0
 15 17  1  0  0  0  0
 16 25  1  0  0  0  0
 16 23  1  0  0  0  0
 17 19  1  0  0  0  0
 19  5  1  1  0  0  0
 19 21  1  0  0  0  0
 21 14  1  6  0  0  0
 23 14  1  6  0  0  0
 23 29  1  0  0  0  0
 25 26  1  1  0  0  0
 25 27  1  0  0  0  0
 27 18  1  6  0  0  0
 27 28  1  0  0  0  0
 28 20  1  1  0  0  0
 28 29  1  0  0  0  0
 29 11  1  6  0  0  0
 30 22  1  6  0  0  0
 30 31  1  0  0  0  0
 31 24  1  6  0  0  0
M  END
>  <CHROM.1>
61.13165008,60.26651867,-93.12877243,174.76454396,-179.33047158,168.01439563
40.01585957,24.96759767,2.33682768,-2.84104077,-0.54432819,1.22608542

>  <Name>
ligand

>  <RI>
0

>  <Rbt.Current_Directory>
/home/itssahil/PROJECTS/Mol_Feturizer/New_Systems/rnas/2ET5

>  <Rbt.Executable>
rbdock ($Id: //depot/dev/client3/rdock/2013.1/src/exe/rbdock.cxx#4 $)

>  <Rbt.Library>
libRbt.so (2013.1, Build901 2013/11/27)

>  <Rbt.Parameter_File>
/export/apps/rDock/src/rDock_2013.1_src/data/scripts/dock_solv.prm

>  <Rbt.Receptor>
prm/pocket_docking_4.prm

>  <SCORE>
-3.57487

>  <SCORE.INTER>
-3.24619

>  <SCORE.INTER.CONST>
1

>  <SCORE.INTER.POLAR>
0

>  <SCORE.INTER.ROT>
6

>  <SCORE.INTER.SOLV>
10.613

>  <SCORE.INTER.VDW>
-13.3018

>  <SCORE.INTER.norm>
-0.104716

>  <SCORE.INTRA>
-0.328678

>  <SCORE.INTRA.DIHEDRAL>
-6.26495

>  <SCORE.INTRA.DIHEDRAL.0>
11.2357

>  <SCORE.INTRA.POLAR>
0

>  <SCORE.INTRA.POLAR.0>
0

>  <SCORE.INTRA.REPUL>
0

>  <SCORE.INTRA.REPUL.0>
0

>  <SCORE.INTRA.SOLV>
2.7227

>  <SCORE.INTRA.SOLV.lig_0>
-83.3092

>  <SCORE.INTRA.VDW>
1.44245

>  <SCORE.INTRA.VDW.0>
-4.47057

>  <SCORE.INTRA.norm>
-0.0106025

>  <SCORE.RESTR>
0

>  <SCORE.RESTR.CAVITY>
0

>  <SCORE.RESTR.norm>
0

>  <SCORE.SYSTEM>
0

>  <SCORE.SYSTEM.CONST>
0

>  <SCORE.SYSTEM.DIHEDRAL>
0

>  <SCORE.SYSTEM.SOLV>
0

>  <SCORE.SYSTEM.norm>
0

>  <SCORE.heavy>
31

>  <SCORE.norm>
-0.115318

>  <RMSD>
5.486

$$$$
ligand
 OpenBabel11021811433D
libRbt.so/2013.1/901 2013/11/27
 31 33  0  0  0  0  0  0  0  0999 V2000
   40.7493   22.9747   -3.9527 C   0  0  0  0  0  0  0  0  0  0  0  0
   36.0268   25.6768    2.9544 N   0  0  0  0  0  0  0  0  0  0  0  0
   40.0896   21.7003   -3.9572 O   0  0  0  0  0  0  0  0  0  0  0  0
   39.6404   23.9737   -3.6328 C   0  0  1  0  0  0  0  0  0  0  0  0
   39.8535   22.7319    4.5075 N   0  0  0  0  0  0  0  0  0  0  0  0
   39.0499   23.8466   -2.2403 O   0  0  0  0  0  0  0  0  0  0  0  0
   39.4345   24.8535   -1.3857 C   0  0  1  0  0  0  0  0  0  0  0  0
   43.8265   25.3082    3.4882 N   0  0  0  0  0  0  0  0  0  0  0  0
   39.9121   24.4921   -0.1197 O   0  0  0  0  0  0  0  0  0  0  0  0
   39.0285   23.9645    0.9742 C   0  0  2  0  0  0  0  0  0  0  0  0
   41.5222   20.2796    0.1685 N   0  0  0  0  0  0  0  0  0  0  0  0
   37.1891   25.4503    0.1993 O   0  0  0  0  0  0  0  0  0  0  0  0
   38.0161   25.0818    1.3645 C   0  0  1  0  0  0  0  0  0  0  0  0
   40.7656   22.5639    1.8971 O   0  0  0  0  0  0  0  0  0  0  0  0
   37.0511   24.5717    2.5482 C   0  0  1  0  0  0  0  0  0  0  0  0
   42.9023   23.5264    1.4807 O   0  0  0  0  0  0  0  0  0  0  0  0
   37.9704   24.1829    3.7868 C   0  0  0  0  0  0  0  0  0  0  0  0
   44.8956   21.2121    3.6118 O   0  0  0  0  0  0  0  0  0  0  0  0
   38.9986   23.0697    3.3216 C   0  0  1  0  0  0  0  0  0  0  0  0
   43.8948   19.3782    1.6651 O   0  0  0  0  0  0  0  0  0  0  0  0
   39.9060   23.5774    2.2467 C   0  0  2  0  0  0  0  0  0  0  0  0
   40.3018   27.0448   -1.7534 O   0  0  0  0  0  0  0  0  0  0  0  0
   41.8479   22.6052    0.9319 C   0  0  1  0  0  0  0  0  0  0  0  0
   38.8168   26.2906   -3.9643 O   0  0  0  0  0  0  0  0  0  0  0  0
   43.5908   23.0573    2.7553 C   0  0  2  0  0  0  0  0  0  0  0  0
   44.6070   24.1004    3.2053 C   0  0  0  0  0  0  0  0  0  0  0  0
   44.2625   21.6967    2.4583 C   0  0  2  0  0  0  0  0  0  0  0  0
   43.2396   20.6843    1.9704 C   0  0  1  0  0  0  0  0  0  0  0  0
   42.5581   21.2453    0.7085 C   0  0  1  0  0  0  0  0  0  0  0  0
   40.3771   25.7355   -2.1883 C   0  0  2  0  0  0  0  0  0  0  0  0
   39.9840   25.4672   -3.6765 C   0  0  1  0  0  0  0  0  0  0  0  0
  1  3  1  0  0  0  0
  4  1  1  1  0  0  0
  4  6  1  0  0  0  0
  4 31  1  0  0  0  0
  6  7  1  0  0  0  0
  7  9  1  1  0  0  0
  7 30  1  0  0  0  0
  8 26  1  0  0  0  0
 10  9  1  6  0  0  0
 10 13  1  0  0  0  0
 10 21  1  0  0  0  0
 13 12  1  6  0  0  0
 13 15  1  0  0  0  0
 15  2  1  1  0  0  0
 15 17  1  0  0  0  0
 16 25  1  0  0  0  0
 16 23  1  0  0  0  0
 17 19  1  0  0  0  0
 19  5  1  1  0  0  0
 19 21  1  0  0  0  0
 21 14  1  6  0  0  0
 23 14  1  1  0  0  0
 23 29  1  0  0  0  0
 25 26  1  6  0  0  0
 25 27  1  0  0  0  0
 27 18  1  1  0  0  0
 27 28  1  0  0  0  0
 28 20  1  6  0  0  0
 28 29  1  0  0  0  0
 29 11  1  1  0  0  0
 30 22  1  1  0  0  0
 30 31  1  0  0  0  0
 31 24  1  1  0  0  0
M  END
>  <CHROM.1>
66.21939892,-72.20014477,-63.70439621,67.41337385,64.25693751,62.21937297
40.66368510,23.55964852,0.58310865,-2.37376441,-0.56976315,1.62897236

>  <Name>
ligand

>  <RI>
0

>  <Rbt.Current_Directory>
/home/itssahil/PROJECTS/Mol_Feturizer/New_Systems/rnas/2ET5

>  <Rbt.Executable>
rbdock ($Id: //depot/dev/client3/rdock/2013.1/src/exe/rbdock.cxx#4 $)

>  <Rbt.Library>
libRbt.so (2013.1, Build901 2013/11/27)

>  <Rbt.Parameter_File>
/export/apps/rDock/src/rDock_2013.1_src/data/scripts/dock_solv.prm

>  <Rbt.Receptor>
prm/pocket_docking_7.prm

>  <SCORE>
-9.2262

>  <SCORE.INTER>
-3.76542

>  <SCORE.INTER.CONST>
1

>  <SCORE.INTER.POLAR>
0

>  <SCORE.INTER.ROT>
6

>  <SCORE.INTER.SOLV>
19.5944

>  <SCORE.INTER.VDW>
-16.6418

>  <SCORE.INTER.norm>
-0.121465

>  <SCORE.INTRA>
-5.46078

>  <SCORE.INTRA.DIHEDRAL>
-9.8216

>  <SCORE.INTRA.DIHEDRAL.0>
11.2357

>  <SCORE.INTRA.POLAR>
0

>  <SCORE.INTRA.POLAR.0>
0

>  <SCORE.INTRA.REPUL>
0

>  <SCORE.INTRA.REPUL.0>
0

>  <SCORE.INTRA.SOLV>
-4.38314

>  <SCORE.INTRA.SOLV.lig_0>
-83.3092

>  <SCORE.INTRA.VDW>
1.64159

>  <SCORE.INTRA.VDW.0>
-4.47057

>  <SCORE.INTRA.norm>
-0.176154

>  <SCORE.RESTR>
0

>  <SCORE.RESTR.CAVITY>
0

>  <SCORE.RESTR.norm>
0

>  <SCORE.SYSTEM>
0

>  <SCORE.SYSTEM.CONST>
0

>  <SCORE.SYSTEM.DIHEDRAL>
0

>  <SCORE.SYSTEM.SOLV>
0

>  <SCORE.SYSTEM.norm>
0

>  <SCORE.heavy>
31

>  <SCORE.norm>
-0.297619

>  <RMSD>
5.509

$$$$
ligand
 OpenBabel11021811433D
libRbt.so/2013.1/901 2013/11/27
 31 33  0  0  0  0  0  0  0  0999 V2000
   40.6922   22.9921   -4.0212 C   0  0  0  0  0  0  0  0  0  0  0  0
   36.1067   25.6814    2.9236 N   0  0  0  0  0  0  0  0  0  0  0  0
   40.0068   21.7341   -3.9358 O   0  0  0  0  0  0  0  0  0  0  0  0
   39.6280   24.0275   -3.6669 C   0  0  1  0  0  0  0  0  0  0  0  0
   39.9451   22.7553    4.4835 N   0  0  0  0  0  0  0  0  0  0  0  0
   39.0604   23.9043   -2.2645 O   0  0  0  0  0  0  0  0  0  0  0  0
   39.4992   24.8848   -1.4054 C   0  0  1  0  0  0  0  0  0  0  0  0
   43.8528   25.3592    3.5143 N   0  0  0  0  0  0  0  0  0  0  0  0
   39.9874   24.4894   -0.1537 O   0  0  0  0  0  0  0  0  0  0  0  0
   39.1079   23.9656    0.9454 C   0  0  2  0  0  0  0  0  0  0  0  0
   41.6577   20.2836    0.1753 N   0  0  0  0  0  0  0  0  0  0  0  0
   37.2627   25.4422    0.1668 O   0  0  0  0  0  0  0  0  0  0  0  0
   38.0936   25.0825    1.3319 C   0  0  1  0  0  0  0  0  0  0  0  0
   40.8510   22.5748    1.8718 O   0  0  0  0  0  0  0  0  0  0  0  0
   37.1330   24.5767    2.5210 C   0  0  1  0  0  0  0  0  0  0  0  0
   42.9812   23.5593    1.4740 O   0  0  0  0  0  0  0  0  0  0  0  0
   38.0564   24.1973    3.7594 C   0  0  0  0  0  0  0  0  0  0  0  0
   44.9741   21.2898    3.6532 O   0  0  0  0  0  0  0  0  0  0  0  0
   39.0863   23.0841    3.2979 C   0  0  1  0  0  0  0  0  0  0  0  0
   44.0211   19.4254    1.7114 O   0  0  0  0  0  0  0  0  0  0  0  0
   39.9897   23.5881    2.2178 C   0  0  2  0  0  0  0  0  0  0  0  0
   40.4409   27.0469   -1.7632 O   0  0  0  0  0  0  0  0  0  0  0  0
   41.9453   22.6201    0.9205 C   0  0  1  0  0  0  0  0  0  0  0  0
   38.8859   26.3777   -3.9532 O   0  0  0  0  0  0  0  0  0  0  0  0
   43.6585   23.1107    2.7619 C   0  0  2  0  0  0  0  0  0  0  0  0
   44.6561   24.1704    3.2150 C   0  0  0  0  0  0  0  0  0  0  0  0
   44.3504   21.7556    2.4869 C   0  0  2  0  0  0  0  0  0  0  0  0
   43.3463   20.7263    1.9955 C   0  0  1  0  0  0  0  0  0  0  0  0
   42.6747   21.2669    0.7195 C   0  0  1  0  0  0  0  0  0  0  0  0
   40.4585   25.7414   -2.2156 C   0  0  2  0  0  0  0  0  0  0  0  0
   40.0267   25.5076   -3.6989 C   0  0  1  0  0  0  0  0  0  0  0  0
  1  3  1  0  0  0  0
  4  1  1  1  0  0  0
  4  6  1  0  0  0  0
  4 31  1  0  0  0  0
  6  7  1  0  0  0  0
  7  9  1  1  0  0  0
  7 30  1  0  0  0  0
  8 26  1  0  0  0  0
 10  9  1  6  0  0  0
 10 13  1  0  0  0  0
 10 21  1  0  0  0  0
 13 12  1  6  0  0  0
 13 15  1  0  0  0  0
 15  2  1  1  0  0  0
 15 17  1  0  0  0  0
 16 25  1  0  0  0  0
 16 23  1  0  0  0  0
 17 19  1  0  0  0  0
 19  5  1  1  0  0  0
 19 21  1  0  0  0  0
 21 14  1  6  0  0  0
 23 14  1  1  0  0  0
 23 29  1  0  0  0  0
 25 26  1  6  0  0  0
 25 27  1  0  0  0  0
 27 18  1  1  0  0  0
 27 28  1  0  0  0  0
 28 20  1  6  0  0  0
 28 29  1  0  0  0  0
 29 11  1  1  0  0  0
 30 22  1  1  0  0  0
 30 31  1  0  0  0  0
 31 24  1  1  0  0  0
M  END
>  <CHROM.1>
62.28685601,-71.45798106,-61.47124010,66.14257936,65.42102724,63.85672000
40.73195079,23.58830276,0.57376026,-2.36996985,-0.56499791,1.62290946

>  <Name>
ligand

>  <RI>
0

>  <Rbt.Current_Directory>
/home/itssahil/PROJECTS/Mol_Feturizer/New_Systems/rnas/2ET5

>  <Rbt.Executable>
rbdock ($Id: //depot/dev/client3/rdock/2013.1/src/exe/rbdock.cxx#4 $)

>  <Rbt.Library>
libRbt.so (2013.1, Build901 2013/11/27)

>  <Rbt.Parameter_File>
/export/apps/rDock/src/rDock_2013.1_src/data/scripts/dock_solv.prm

>  <Rbt.Receptor>
prm/pocket_docking_7.prm

>  <SCORE>
-9.34983

>  <SCORE.INTER>
-3.85233

>  <SCORE.INTER.CONST>
1

>  <SCORE.INTER.POLAR>
0

>  <SCORE.INTER.ROT>
6

>  <SCORE.INTER.SOLV>
18.9226

>  <SCORE.INTER.VDW>
-16.4757

>  <SCORE.INTER.norm>
-0.124269

>  <SCORE.INTRA>
-5.4975

>  <SCORE.INTRA.DIHEDRAL>
-10.0698

>  <SCORE.INTRA.DIHEDRAL.0>
11.2357

>  <SCORE.INTRA.POLAR>
0

>  <SCORE.INTRA.POLAR.0>
0

>  <SCORE.INTRA.REPUL>
0

>  <SCORE.INTRA.REPUL.0>
0

>  <SCORE.INTRA.SOLV>
-4.35743

>  <SCORE.INTRA.SOLV.lig_0>
-83.3092

>  <SCORE.INTRA.VDW>
1.71613

>  <SCORE.INTRA.VDW.0>
-4.47057

>  <SCORE.INTRA.norm>
-0.177339

>  <SCORE.RESTR>
0

>  <SCORE.RESTR.CAVITY>
0

>  <SCORE.RESTR.norm>
0

>  <SCORE.SYSTEM>
0

>  <SCORE.SYSTEM.CONST>
0

>  <SCORE.SYSTEM.DIHEDRAL>
0

>  <SCORE.SYSTEM.SOLV>
0

>  <SCORE.SYSTEM.norm>
0

>  <SCORE.heavy>
31

>  <SCORE.norm>
-0.301607

>  <RMSD>
5.510

$$$$
ligand
 OpenBabel11021811433D
libRbt.so/2013.1/901 2013/11/27
 31 33  0  0  0  0  0  0  0  0999 V2000
   40.7213   22.9689   -3.8610 C   0  0  0  0  0  0  0  0  0  0  0  0
   36.0817   25.6651    2.7800 N   0  0  0  0  0  0  0  0  0  0  0  0
   39.8658   21.8260   -3.7149 O   0  0  0  0  0  0  0  0  0  0  0  0
   39.8289   24.1568   -3.5107 C   0  0  1  0  0  0  0  0  0  0  0  0
   39.8060   22.7516    4.6157 N   0  0  0  0  0  0  0  0  0  0  0  0
   39.2279   24.1138   -2.1175 O   0  0  0  0  0  0  0  0  0  0  0  0
   39.8032   25.0058   -1.2425 C   0  0  1  0  0  0  0  0  0  0  0  0
   43.5531   26.0057    3.0162 N   0  0  0  0  0  0  0  0  0  0  0  0
   40.2040   24.5282    0.0115 O   0  0  0  0  0  0  0  0  0  0  0  0
   39.2438   23.9884    1.0326 C   0  0  2  0  0  0  0  0  0  0  0  0
   42.0010   20.1608    0.7986 N   0  0  0  0  0  0  0  0  0  0  0  0
   37.4552   25.4592    0.1221 O   0  0  0  0  0  0  0  0  0  0  0  0
   38.1935   25.0946    1.3466 C   0  0  1  0  0  0  0  0  0  0  0  0
   40.9182   22.6013    2.0830 O   0  0  0  0  0  0  0  0  0  0  0  0
   37.1451   24.5712    2.4511 C   0  0  1  0  0  0  0  0  0  0  0  0
   42.8980   23.7586    1.4457 O   0  0  0  0  0  0  0  0  0  0  0  0
   37.9699   24.1870    3.7558 C   0  0  0  0  0  0  0  0  0  0  0  0
   45.1902   22.1938    3.9294 O   0  0  0  0  0  0  0  0  0  0  0  0
   39.0418   23.0853    3.3683 C   0  0  1  0  0  0  0  0  0  0  0  0
   44.4704   19.9022    2.3850 O   0  0  0  0  0  0  0  0  0  0  0  0
   40.0244   23.6053    2.3680 C   0  0  2  0  0  0  0  0  0  0  0  0
   41.0800   26.9945   -1.5656 O   0  0  0  0  0  0  0  0  0  0  0  0
   41.9884   22.6110    1.1035 C   0  0  1  0  0  0  0  0  0  0  0  0
   39.4717   26.5969   -3.7831 O   0  0  0  0  0  0  0  0  0  0  0  0
   43.6400   23.6410    2.7702 C   0  0  2  0  0  0  0  0  0  0  0  0
   44.4951   24.8830    2.9932 C   0  0  0  0  0  0  0  0  0  0  0  0
   44.5002   22.3572    2.7196 C   0  0  2  0  0  0  0  0  0  0  0  0
   43.6344   21.1371    2.4537 C   0  0  1  0  0  0  0  0  0  0  0  0
   42.8862   21.3472    1.1242 C   0  0  1  0  0  0  0  0  0  0  0  0
   40.8978   25.7063   -2.0309 C   0  0  2  0  0  0  0  0  0  0  0  0
   40.4568   25.5554   -3.5223 C   0  0  1  0  0  0  0  0  0  0  0  0
  1  3  1  0  0  0  0
  4  1  1  1  0  0  0
  4  6  1  0  0  0  0
  4 31  1  0  0  0  0
  6  7  1  0  0  0  0
  7  9  1  1  0  0  0
  7 30  1  0  0  0  0
  8 26  1  0  0  0  0
 10  9  1  6  0  0  0
 10 13  1  0  0  0  0
 10 21  1  0  0  0  0
 13 12  1  6  0  0  0
 13 15  1  0  0  0  0
 15  2  1  1  0  0  0
 15 17  1  0  0  0  0
 16 25  1  0  0  0  0
 16 23  1  0  0  0  0
 17 19  1  0  0  0  0
 19  5  1  1  0  0  0
 19 21  1  0  0  0  0
 21 14  1  6  0  0  0
 23 14  1  1  0  0  0
 23 29  1  0  0  0  0
 25 26  1  6  0  0  0
 25 27  1  0  0  0  0
 27 18  1  1  0  0  0
 27 28  1  0  0  0  0
 28 20  1  6  0  0  0
 28 29  1  0  0  0  0
 29 11  1  1  0  0  0
 30 22  1  1  0  0  0
 30 31  1  0  0  0  0
 31 24  1  1  0  0  0
M  END
>  <CHROM.1>
58.74588095,-63.93254970,-57.54226086,58.41068605,57.33685717,60.37791631
40.87267643,23.76025983,0.71319201,-2.29979913,-0.46025954,1.70184635

>  <Name>
ligand

>  <RI>
0

>  <Rbt.Current_Directory>
/home/itssahil/PROJECTS/Mol_Feturizer/New_Systems/rnas/2ET5

>  <Rbt.Executable>
rbdock ($Id: //depot/dev/client3/rdock/2013.1/src/exe/rbdock.cxx#4 $)

>  <Rbt.Library>
libRbt.so (2013.1, Build901 2013/11/27)

>  <Rbt.Parameter_File>
/export/apps/rDock/src/rDock_2013.1_src/data/scripts/dock_solv.prm

>  <Rbt.Receptor>
prm/pocket_docking_8.prm

>  <SCORE>
-8.7822

>  <SCORE.INTER>
-3.17509

>  <SCORE.INTER.CONST>
1

>  <SCORE.INTER.POLAR>
0

>  <SCORE.INTER.ROT>
6

>  <SCORE.INTER.SOLV>
16.983

>  <SCORE.INTER.VDW>
-15.3777

>  <SCORE.INTER.norm>
-0.102422

>  <SCORE.INTRA>
-5.6071

>  <SCORE.INTRA.DIHEDRAL>
-10.9361

>  <SCORE.INTRA.DIHEDRAL.0>
11.2357

>  <SCORE.INTRA.POLAR>
0

>  <SCORE.INTRA.POLAR.0>
0

>  <SCORE.INTRA.REPUL>
0

>  <SCORE.INTRA.REPUL.0>
0

>  <SCORE.INTRA.SOLV>
-4.39409

>  <SCORE.INTRA.SOLV.lig_0>
-83.3092

>  <SCORE.INTRA.VDW>
2.05798

>  <SCORE.INTRA.VDW.0>
-4.47057

>  <SCORE.INTRA.norm>
-0.180874

>  <SCORE.RESTR>
0

>  <SCORE.RESTR.CAVITY>
0

>  <SCORE.RESTR.norm>
0

>  <SCORE.SYSTEM>
0

>  <SCORE.SYSTEM.CONST>
0

>  <SCORE.SYSTEM.DIHEDRAL>
0

>  <SCORE.SYSTEM.SOLV>
0

>  <SCORE.SYSTEM.norm>
0

>  <SCORE.heavy>
31

>  <SCORE.norm>
-0.283297

>  <RMSD>
5.517

$$$$
ligand
 OpenBabel11021811433D
libRbt.so/2013.1/901 2013/11/27
 31 33  0  0  0  0  0  0  0  0999 V2000
   42.3422   22.0099    2.7102 C   0  0  0  0  0  0  0  0  0  0  0  0
   40.9118   28.9550   -2.3925 N   0  0  0  0  0  0  0  0  0  0  0  0
   43.7022   22.4652    2.7636 O   0  0  0  0  0  0  0  0  0  0  0  0
   41.5717   23.0199    3.5566 C   0  0  1  0  0  0  0  0  0  0  0  0
   43.0551   29.4054    2.1827 N   0  0  0  0  0  0  0  0  0  0  0  0
   41.5560   24.4339    3.0049 O   0  0  0  0  0  0  0  0  0  0  0  0
   40.3437   24.8020    2.4694 C   0  0  1  0  0  0  0  0  0  0  0  0
   39.1545   27.2094    6.7687 N   0  0  0  0  0  0  0  0  0  0  0  0
   40.3393   25.3850    1.1960 O   0  0  0  0  0  0  0  0  0  0  0  0
   40.4566   26.8648    0.9672 C   0  0  2  0  0  0  0  0  0  0  0  0
   44.4853   26.7465    3.1592 N   0  0  0  0  0  0  0  0  0  0  0  0
   39.4323   26.5936   -1.2842 O   0  0  0  0  0  0  0  0  0  0  0  0
   40.6113   27.1106   -0.5629 C   0  0  1  0  0  0  0  0  0  0  0  0
   41.5663   27.2475    3.0775 O   0  0  0  0  0  0  0  0  0  0  0  0
   40.7567   28.6858   -0.8631 C   0  0  1  0  0  0  0  0  0  0  0  0
   41.6192   27.6632    5.4205 O   0  0  0  0  0  0  0  0  0  0  0  0
   42.0333   29.2120   -0.0733 C   0  0  0  0  0  0  0  0  0  0  0  0
   42.0481   24.1325    6.5256 O   0  0  0  0  0  0  0  0  0  0  0  0
   41.8335   28.9054    1.4690 C   0  0  1  0  0  0  0  0  0  0  0  0
   44.4825   24.5145    5.0827 O   0  0  0  0  0  0  0  0  0  0  0  0
   41.7358   27.4355    1.7269 C   0  0  2  0  0  0  0  0  0  0  0  0
   38.1274   23.9685    2.7576 O   0  0  0  0  0  0  0  0  0  0  0  0
   42.4316   27.6885    4.1552 C   0  0  1  0  0  0  0  0  0  0  0  0
   39.6036   23.3797    5.0239 O   0  0  0  0  0  0  0  0  0  0  0  0
   41.1609   26.2870    5.8837 C   0  0  2  0  0  0  0  0  0  0  0  0
   40.3291   26.4220    7.1539 C   0  0  0  0  0  0  0  0  0  0  0  0
   42.4204   25.4207    6.1154 C   0  0  2  0  0  0  0  0  0  0  0  0
   43.2570   25.3345    4.8497 C   0  0  1  0  0  0  0  0  0  0  0  0
   43.6456   26.7616    4.4209 C   0  0  1  0  0  0  0  0  0  0  0  0
   39.4461   23.5833    2.6092 C   0  0  2  0  0  0  0  0  0  0  0  0
   40.0763   22.7723    3.7867 C   0  0  1  0  0  0  0  0  0  0  0  0
  1  3  1  0  0  0  0
  4  1  1  6  0  0  0
  4  6  1  0  0  0  0
  4 31  1  0  0  0  0
  6  7  1  0  0  0  0
  7  9  1  6  0  0  0
  7 30  1  0  0  0  0
  8 26  1  0  0  0  0
 10  9  1  6  0  0  0
 10 13  1  0  0  0  0
 10 21  1  0  0  0  0
 13 12  1  6  0  0  0
 13 15  1  0  0  0  0
 15  2  1  6  0  0  0
 15 17  1  0  0  0  0
 16 25  1  0  0  0  0
 16 23  1  0  0  0  0
 17 19  1  0  0  0  0
 19  5  1  1  0  0  0
 19 21  1  0  0  0  0
 21 14  1  1  0  0  0
 23 14  1  6  0  0  0
 23 29  1  0  0  0  0
 25 26  1  1  0  0  0
 25 27  1  0  0  0  0
 27 18  1  6  0  0  0
 27 28  1  0  0  0  0
 28 20  1  1  0  0  0
 28 29  1  0  0  0  0
 29 11  1  6  0  0  0
 30 22  1  1  0  0  0
 30 31  1  0  0  0  0
 31 24  1  1  0  0  0
M  END
>  <CHROM.1>
64.65566416,-89.79709684,172.30573859,161.24756231,-175.57528217,62.85040313
41.42891635,25.90184132,3.04039008,1.37695936,1.07607338,2.31792577

>  <Name>
ligand

>  <RI>
0

>  <Rbt.Current_Directory>
/home/itssahil/PROJECTS/Mol_Feturizer/New_Systems/rnas/2ET5

>  <Rbt.Executable>
rbdock ($Id: //depot/dev/client3/rdock/2013.1/src/exe/rbdock.cxx#4 $)

>  <Rbt.Library>
libRbt.so (2013.1, Build901 2013/11/27)

>  <Rbt.Parameter_File>
/export/apps/rDock/src/rDock_2013.1_src/data/scripts/dock_solv.prm

>  <Rbt.Receptor>
prm/pocket_docking_7.prm

>  <SCORE>
-2.9589

>  <SCORE.INTER>
-1.40407

>  <SCORE.INTER.CONST>
1

>  <SCORE.INTER.POLAR>
0

>  <SCORE.INTER.ROT>
6

>  <SCORE.INTER.SOLV>
6.76351

>  <SCORE.INTER.VDW>
-10.7906

>  <SCORE.INTER.norm>
-0.0452927

>  <SCORE.INTRA>
-1.55482

>  <SCORE.INTRA.DIHEDRAL>
-5.54469

>  <SCORE.INTRA.DIHEDRAL.0>
11.2357

>  <SCORE.INTRA.POLAR>
0

>  <SCORE.INTRA.POLAR.0>
0

>  <SCORE.INTRA.REPUL>
0.00324456

>  <SCORE.INTRA.REPUL.0>
0

>  <SCORE.INTRA.SOLV>
2.14616

>  <SCORE.INTRA.SOLV.lig_0>
-83.3092

>  <SCORE.INTRA.VDW>
0.128219

>  <SCORE.INTRA.VDW.0>
-4.47057

>  <SCORE.INTRA.norm>
-0.0501556

>  <SCORE.RESTR>
0

>  <SCORE.RESTR.CAVITY>
0

>  <SCORE.RESTR.norm>
0

>  <SCORE.SYSTEM>
0

>  <SCORE.SYSTEM.CONST>
0

>  <SCORE.SYSTEM.DIHEDRAL>
0

>  <SCORE.SYSTEM.SOLV>
0

>  <SCORE.SYSTEM.norm>
0

>  <SCORE.heavy>
31

>  <SCORE.norm>
-0.0954483

>  <RMSD>
5.520

$$$$
ligand
 OpenBabel11021811433D
libRbt.so/2013.1/901 2013/11/27
 31 33  0  0  0  0  0  0  0  0999 V2000
   40.7074   22.9483   -3.9277 C   0  0  0  0  0  0  0  0  0  0  0  0
   36.1107   25.6094    2.9369 N   0  0  0  0  0  0  0  0  0  0  0  0
   40.0134   21.6933   -3.8738 O   0  0  0  0  0  0  0  0  0  0  0  0
   39.6484   23.9825   -3.5548 C   0  0  1  0  0  0  0  0  0  0  0  0
   40.0785   22.9718    4.6771 N   0  0  0  0  0  0  0  0  0  0  0  0
   39.1064   23.8594   -2.1423 O   0  0  0  0  0  0  0  0  0  0  0  0
   39.5594   24.8410   -1.2918 C   0  0  1  0  0  0  0  0  0  0  0  0
   44.8247   25.3068    4.2593 N   0  0  0  0  0  0  0  0  0  0  0  0
   40.0708   24.4470   -0.0490 O   0  0  0  0  0  0  0  0  0  0  0  0
   39.2100   23.9410    1.0729 C   0  0  2  0  0  0  0  0  0  0  0  0
   42.2448   20.2631    0.9202 N   0  0  0  0  0  0  0  0  0  0  0  0
   37.2992   25.2771    0.2038 O   0  0  0  0  0  0  0  0  0  0  0  0
   38.1378   25.0247    1.3915 C   0  0  1  0  0  0  0  0  0  0  0  0
   41.0132   22.6934    2.0843 O   0  0  0  0  0  0  0  0  0  0  0  0
   37.1943   24.5374    2.6018 C   0  0  1  0  0  0  0  0  0  0  0  0
   42.9116   23.9399    1.3721 O   0  0  0  0  0  0  0  0  0  0  0  0
   38.1256   24.2742    3.8641 C   0  0  0  0  0  0  0  0  0  0  0  0
   45.3107   22.6575    3.9158 O   0  0  0  0  0  0  0  0  0  0  0  0
   39.2137   23.1908    3.4706 C   0  0  1  0  0  0  0  0  0  0  0  0
   44.7329   20.2467    2.4986 O   0  0  0  0  0  0  0  0  0  0  0  0
   40.0993   23.6793    2.3690 C   0  0  2  0  0  0  0  0  0  0  0  0
   40.4916   27.0041   -1.6680 O   0  0  0  0  0  0  0  0  0  0  0  0
   42.0761   22.7202    1.0973 C   0  0  1  0  0  0  0  0  0  0  0  0
   38.8980   26.3315   -3.8289 O   0  0  0  0  0  0  0  0  0  0  0  0
   43.6655   23.9397    2.6950 C   0  0  2  0  0  0  0  0  0  0  0  0
   44.4400   25.2439    2.8464 C   0  0  0  0  0  0  0  0  0  0  0  0
   44.6063   22.7127    2.7046 C   0  0  2  0  0  0  0  0  0  0  0  0
   43.8195   21.4274    2.5094 C   0  0  1  0  0  0  0  0  0  0  0  0
   43.0533   21.5192    1.1767 C   0  0  1  0  0  0  0  0  0  0  0  0
   40.5027   25.6985   -2.1198 C   0  0  2  0  0  0  0  0  0  0  0  0
   40.0443   25.4631   -3.5949 C   0  0  1  0  0  0  0  0  0  0  0  0
  1  3  1  0  0  0  0
  4  1  1  1  0  0  0
  4  6  1  0  0  0  0
  4 31  1  0  0  0  0
  6  7  1  0  0  0  0
  7  9  1  1  0  0  0
  7 30  1  0  0  0  0
  8 26  1  0  0  0  0
 10  9  1  6  0  0  0
 10 13  1  0  0  0  0
 10 21  1  0  0  0  0
 13 12  1  6  0  0  0
 13 15  1  0  0  0  0
 15  2  1  1  0  0  0
 15 17  1  0  0  0  0
 16 25  1  0  0  0  0
 16 23  1  0  0  0  0
 17 19  1  0  0  0  0
 19  5  1  1  0  0  0
 19 21  1  0  0  0  0
 21 14  1  6  0  0  0
 23 14  1  1  0  0  0
 23 29  1  0  0  0  0
 25 26  1  6  0  0  0
 25 27  1  0  0  0  0
 27 18  1  1  0  0  0
 27 28  1  0  0  0  0
 28 20  1  6  0  0  0
 28 29  1  0  0  0  0
 29 11  1  1  0  0  0
 30 22  1  1  0  0  0
 30 31  1  0  0  0  0
 31 24  1  1  0  0  0
M  END
>  <CHROM.1>
64.19765362,-72.35041375,-56.59474811,54.84909460,62.53140437,165.30494045
40.88588546,23.79060529,0.75275167,-2.34346332,-0.41670720,1.59137086

>  <Name>
ligand

>  <RI>
0

>  <Rbt.Current_Directory>
/home/itssahil/PROJECTS/Mol_Feturizer/New_Systems/rnas/2ET5

>  <Rbt.Executable>
rbdock ($Id: //depot/dev/client3/rdock/2013.1/src/exe/rbdock.cxx#4 $)

>  <Rbt.Library>
libRbt.so (2013.1, Build901 2013/11/27)

>  <Rbt.Parameter_File>
/export/apps/rDock/src/rDock_2013.1_src/data/scripts/dock_solv.prm

>  <Rbt.Receptor>
prm/pocket_docking_6.prm

>  <SCORE>
-7.6687

>  <SCORE.INTER>
-3.38647

>  <SCORE.INTER.CONST>
1

>  <SCORE.INTER.POLAR>
0

>  <SCORE.INTER.ROT>
6

>  <SCORE.INTER.SOLV>
18.6594

>  <SCORE.INTER.VDW>
-16.0775

>  <SCORE.INTER.norm>
-0.109241

>  <SCORE.INTRA>
-4.28223

>  <SCORE.INTRA.DIHEDRAL>
-9.36133

>  <SCORE.INTRA.DIHEDRAL.0>
11.2357

>  <SCORE.INTRA.POLAR>
0

>  <SCORE.INTRA.POLAR.0>
0

>  <SCORE.INTRA.REPUL>
0

>  <SCORE.INTRA.REPUL.0>
0

>  <SCORE.INTRA.SOLV>
-3.50076

>  <SCORE.INTRA.SOLV.lig_0>
-83.3092

>  <SCORE.INTRA.VDW>
2.14881

>  <SCORE.INTRA.VDW.0>
-4.47057

>  <SCORE.INTRA.norm>
-0.138136

>  <SCORE.RESTR>
0

>  <SCORE.RESTR.CAVITY>
0

>  <SCORE.RESTR.norm>
0

>  <SCORE.SYSTEM>
0

>  <SCORE.SYSTEM.CONST>
0

>  <SCORE.SYSTEM.DIHEDRAL>
0

>  <SCORE.SYSTEM.SOLV>
0

>  <SCORE.SYSTEM.norm>
0

>  <SCORE.heavy>
31

>  <SCORE.norm>
-0.247378

>  <RMSD>
5.556

$$$$
ligand
 OpenBabel11021811433D
libRbt.so/2013.1/901 2013/11/27
 31 33  0  0  0  0  0  0  0  0999 V2000
   40.9797   23.4693   -3.7145 C   0  0  0  0  0  0  0  0  0  0  0  0
   35.3682   25.5155    3.1180 N   0  0  0  0  0  0  0  0  0  0  0  0
   41.0360   22.1012   -3.2848 O   0  0  0  0  0  0  0  0  0  0  0  0
   39.5137   23.8592   -3.5450 C   0  0  1  0  0  0  0  0  0  0  0  0
   39.6623   23.2501    4.5866 N   0  0  0  0  0  0  0  0  0  0  0  0
   38.9396   23.5968   -2.1645 O   0  0  0  0  0  0  0  0  0  0  0  0
   38.7475   24.7390   -1.4225 C   0  0  1  0  0  0  0  0  0  0  0  0
   43.4361   25.5975    4.0036 N   0  0  0  0  0  0  0  0  0  0  0  0
   39.2356   24.7579   -0.1099 O   0  0  0  0  0  0  0  0  0  0  0  0
   38.4942   24.1633    1.0531 C   0  0  2  0  0  0  0  0  0  0  0  0
   41.3046   21.1067   -0.1006 N   0  0  0  0  0  0  0  0  0  0  0  0
   36.4182   25.3202    0.3157 O   0  0  0  0  0  0  0  0  0  0  0  0
   37.3458   25.1382    1.4488 C   0  0  1  0  0  0  0  0  0  0  0  0
   40.4634   23.0832    1.9400 O   0  0  0  0  0  0  0  0  0  0  0  0
   36.5257   24.5536    2.7052 C   0  0  1  0  0  0  0  0  0  0  0  0
   42.5924   24.1280    1.7383 O   0  0  0  0  0  0  0  0  0  0  0  0
   37.5510   24.3689    3.9072 C   0  0  0  0  0  0  0  0  0  0  0  0
   44.5717   21.5374    3.5390 O   0  0  0  0  0  0  0  0  0  0  0  0
   38.7107   23.3966    3.4357 C   0  0  1  0  0  0  0  0  0  0  0  0
   43.6539   20.0157    1.3038 O   0  0  0  0  0  0  0  0  0  0  0  0
   39.4796   23.9759    2.2913 C   0  0  2  0  0  0  0  0  0  0  0  0
   38.5332   27.0387   -2.0183 O   0  0  0  0  0  0  0  0  0  0  0  0
   41.5691   23.2891    1.0237 C   0  0  1  0  0  0  0  0  0  0  0  0
   37.7442   25.4831   -4.1676 O   0  0  0  0  0  0  0  0  0  0  0  0
   43.2564   23.4755    2.9433 C   0  0  2  0  0  0  0  0  0  0  0  0
   44.2420   24.4496    3.5782 C   0  0  0  0  0  0  0  0  0  0  0  0
   43.9597   22.1871    2.4575 C   0  0  2  0  0  0  0  0  0  0  0  0
   42.9679   21.2492    1.7898 C   0  0  1  0  0  0  0  0  0  0  0  0
   42.3090   21.9905    0.6118 C   0  0  1  0  0  0  0  0  0  0  0  0
   39.2379   25.8829   -2.2952 C   0  0  2  0  0  0  0  0  0  0  0  0
   39.1324   25.3295   -3.7526 C   0  0  1  0  0  0  0  0  0  0  0  0
  1  3  1  0  0  0  0
  4  1  1  1  0  0  0
  4  6  1  0  0  0  0
  4 31  1  0  0  0  0
  6  7  1  0  0  0  0
  7  9  1  1  0  0  0
  7 30  1  0  0  0  0
  8 26  1  0  0  0  0
 10  9  1  6  0  0  0
 10 13  1  0  0  0  0
 10 21  1  0  0  0  0
 13 12  1  6  0  0  0
 13 15  1  0  0  0  0
 15  2  1  1  0  0  0
 15 17  1  0  0  0  0
 16 25  1  0  0  0  0
 16 23  1  0  0  0  0
 17 19  1  0  0  0  0
 19  5  1  1  0  0  0
 19 21  1  0  0  0  0
 21 14  1  6  0  0  0
 23 14  1  1  0  0  0
 23 29  1  0  0  0  0
 25 26  1  6  0  0  0
 25 27  1  0  0  0  0
 27 18  1  1  0  0  0
 27 28  1  0  0  0  0
 28 20  1  6  0  0  0
 28 29  1  0  0  0  0
 29 11  1  1  0  0  0
 30 22  1  6  0  0  0
 30 31  1  0  0  0  0
 31 24  1  1  0  0  0
M  END
>  <CHROM.1>
53.22072713,-82.31805323,-76.75648047,76.18726080,71.80801019,61.32241208
40.23381831,23.80365557,0.64218408,-2.43315017,-0.46731607,1.57329980

>  <Name>
ligand

>  <RI>
0

>  <Rbt.Current_Directory>
/home/itssahil/PROJECTS/Mol_Feturizer/New_Systems/rnas/2ET5

>  <Rbt.Executable>
rbdock ($Id: //depot/dev/client3/rdock/2013.1/src/exe/rbdock.cxx#4 $)

>  <Rbt.Library>
libRbt.so (2013.1, Build901 2013/11/27)

>  <Rbt.Parameter_File>
/export/apps/rDock/src/rDock_2013.1_src/data/scripts/dock_solv.prm

>  <Rbt.Receptor>
prm/pocket_docking_3.prm

>  <SCORE>
-5.79205

>  <SCORE.INTER>
-2.45827

>  <SCORE.INTER.CONST>
1

>  <SCORE.INTER.POLAR>
0

>  <SCORE.INTER.ROT>
6

>  <SCORE.INTER.SOLV>
17.391

>  <SCORE.INTER.VDW>
-15.0358

>  <SCORE.INTER.norm>
-0.0792989

>  <SCORE.INTRA>
-3.33378

>  <SCORE.INTRA.DIHEDRAL>
-5.62063

>  <SCORE.INTRA.DIHEDRAL.0>
11.2357

>  <SCORE.INTRA.POLAR>
0

>  <SCORE.INTRA.POLAR.0>
0

>  <SCORE.INTRA.REPUL>
0

>  <SCORE.INTRA.REPUL.0>
0

>  <SCORE.INTRA.SOLV>
-2.72978

>  <SCORE.INTRA.SOLV.lig_0>
-83.3092

>  <SCORE.INTRA.VDW>
0.841422

>  <SCORE.INTRA.VDW.0>
-4.47057

>  <SCORE.INTRA.norm>
-0.107541

>  <SCORE.RESTR>
0

>  <SCORE.RESTR.CAVITY>
0

>  <SCORE.RESTR.norm>
0

>  <SCORE.SYSTEM>
0

>  <SCORE.SYSTEM.CONST>
0

>  <SCORE.SYSTEM.DIHEDRAL>
0

>  <SCORE.SYSTEM.SOLV>
0

>  <SCORE.SYSTEM.norm>
0

>  <SCORE.heavy>
31

>  <SCORE.norm>
-0.18684

>  <RMSD>
5.571

$$$$
ligand
 OpenBabel11021811433D
libRbt.so/2013.1/901 2013/11/27
 31 33  0  0  0  0  0  0  0  0999 V2000
   44.6603   21.4209    2.8405 C   0  0  0  0  0  0  0  0  0  0  0  0
   40.2819   22.7198   -4.6235 N   0  0  0  0  0  0  0  0  0  0  0  0
   45.9629   21.9547    2.5611 O   0  0  0  0  0  0  0  0  0  0  0  0
   43.8015   22.6497    3.1279 C   0  0  1  0  0  0  0  0  0  0  0  0
   38.4364   26.1745   -1.4005 N   0  0  0  0  0  0  0  0  0  0  0  0
   43.6449   23.6056    1.9592 O   0  0  0  0  0  0  0  0  0  0  0  0
   42.3988   23.5645    1.3781 C   0  0  1  0  0  0  0  0  0  0  0  0
   35.1798   24.6917    2.3860 N   0  0  0  0  0  0  0  0  0  0  0  0
   42.3290   23.4463   -0.0157 O   0  0  0  0  0  0  0  0  0  0  0  0
   41.0343   23.4275   -0.7768 C   0  0  2  0  0  0  0  0  0  0  0  0
   41.4703   26.3921    2.8701 N   0  0  0  0  0  0  0  0  0  0  0  0
   41.9910   21.7582   -2.3546 O   0  0  0  0  0  0  0  0  0  0  0  0
   41.3476   23.0830   -2.2629 C   0  0  1  0  0  0  0  0  0  0  0  0
   40.0288   25.1289    0.6107 O   0  0  0  0  0  0  0  0  0  0  0  0
   39.9906   23.0646   -3.1295 C   0  0  1  0  0  0  0  0  0  0  0  0
   38.1627   26.5303    1.0788 O   0  0  0  0  0  0  0  0  0  0  0  0
   39.3223   24.5031   -3.0106 C   0  0  0  0  0  0  0  0  0  0  0  0
   37.0140   24.7870    4.1631 O   0  0  0  0  0  0  0  0  0  0  0  0
   39.0581   24.8111   -1.4783 C   0  0  1  0  0  0  0  0  0  0  0  0
   39.5775   25.7067    5.0217 O   0  0  0  0  0  0  0  0  0  0  0  0
   40.3349   24.8573   -0.7010 C   0  0  2  0  0  0  0  0  0  0  0  0
   40.2759   22.8025    2.1541 O   0  0  0  0  0  0  0  0  0  0  0  0
   39.6567   26.4039    1.1944 C   0  0  1  0  0  0  0  0  0  0  0  0
   41.8183   23.5213    4.3373 O   0  0  0  0  0  0  0  0  0  0  0  0
   37.3505   25.5276    1.8872 C   0  0  2  0  0  0  0  0  0  0  0  0
   35.8628   25.7585    1.6487 C   0  0  0  0  0  0  0  0  0  0  0  0
   37.7242   25.7056    3.3770 C   0  0  2  0  0  0  0  0  0  0  0  0
   39.2171   25.5138    3.5859 C   0  0  1  0  0  0  0  0  0  0  0  0
   39.9697   26.5304    2.7076 C   0  0  1  0  0  0  0  0  0  0  0  0
   41.6246   22.5023    2.1416 C   0  0  2  0  0  0  0  0  0  0  0  0
   42.3389   22.4263    3.5292 C   0  0  1  0  0  0  0  0  0  0  0  0
  1  3  1  0  0  0  0
  4  1  1  6  0  0  0
  4  6  1  0  0  0  0
  4 31  1  0  0  0  0
  6  7  1  0  0  0  0
  7  9  1  6  0  0  0
  7 30  1  0  0  0  0
  8 26  1  0  0  0  0
 10  9  1  1  0  0  0
 10 13  1  0  0  0  0
 10 21  1  0  0  0  0
 13 12  1  1  0  0  0
 13 15  1  0  0  0  0
 15  2  1  6  0  0  0
 15 17  1  0  0  0  0
 16 25  1  0  0  0  0
 16 23  1  0  0  0  0
 17 19  1  0  0  0  0
 19  5  1  6  0  0  0
 19 21  1  0  0  0  0
 21 14  1  1  0  0  0
 23 14  1  1  0  0  0
 23 29  1  0  0  0  0
 25 26  1  1  0  0  0
 25 27  1  0  0  0  0
 27 18  1  1  0  0  0
 27 28  1  0  0  0  0
 28 20  1  1  0  0  0
 28 29  1  0  0  0  0
 29 11  1  6  0  0  0
 30 22  1  1  0  0  0
 30 31  1  0  0  0  0
 31 24  1  1  0  0  0
M  END
>  <CHROM.1>
63.33051769,-178.30477962,-172.09169129,88.59205556,165.48940377,175.99063707
40.41321472,24.20911674,1.16278346,-0.19536045,-0.47117436,1.41464593

>  <Name>
ligand

>  <RI>
0

>  <Rbt.Current_Directory>
/home/itssahil/PROJECTS/Mol_Feturizer/New_Systems/rnas/2ET5

>  <Rbt.Executable>
rbdock ($Id: //depot/dev/client3/rdock/2013.1/src/exe/rbdock.cxx#4 $)

>  <Rbt.Library>
libRbt.so (2013.1, Build901 2013/11/27)

>  <Rbt.Parameter_File>
/export/apps/rDock/src/rDock_2013.1_src/data/scripts/dock_solv.prm

>  <Rbt.Receptor>
prm/pocket_docking_3.prm

>  <SCORE>
-2.61196

>  <SCORE.INTER>
-1.86752

>  <SCORE.INTER.CONST>
1

>  <SCORE.INTER.POLAR>
0

>  <SCORE.INTER.ROT>
6

>  <SCORE.INTER.SOLV>
14.9043

>  <SCORE.INTER.VDW>
-13.8131

>  <SCORE.INTER.norm>
-0.0602427

>  <SCORE.INTRA>
-0.744434

>  <SCORE.INTRA.DIHEDRAL>
-6.3875

>  <SCORE.INTRA.DIHEDRAL.0>
11.2357

>  <SCORE.INTRA.POLAR>
0

>  <SCORE.INTRA.POLAR.0>
0

>  <SCORE.INTRA.REPUL>
0

>  <SCORE.INTRA.REPUL.0>
0

>  <SCORE.INTRA.SOLV>
3.72838

>  <SCORE.INTRA.SOLV.lig_0>
-83.3092

>  <SCORE.INTRA.VDW>
0.585128

>  <SCORE.INTRA.VDW.0>
-4.47057

>  <SCORE.INTRA.norm>
-0.024014

>  <SCORE.RESTR>
0

>  <SCORE.RESTR.CAVITY>
0

>  <SCORE.RESTR.norm>
0

>  <SCORE.SYSTEM>
0

>  <SCORE.SYSTEM.CONST>
0

>  <SCORE.SYSTEM.DIHEDRAL>
0

>  <SCORE.SYSTEM.SOLV>
0

>  <SCORE.SYSTEM.norm>
0

>  <SCORE.heavy>
31

>  <SCORE.norm>
-0.0842567

>  <RMSD>
5.601

$$$$
ligand
 OpenBabel11021811433D
libRbt.so/2013.1/901 2013/11/27
 31 33  0  0  0  0  0  0  0  0999 V2000
   35.0279   29.0746    3.8845 C   0  0  0  0  0  0  0  0  0  0  0  0
   40.3104   26.9207   -2.6481 N   0  0  0  0  0  0  0  0  0  0  0  0
   35.9101   28.1278    4.5050 O   0  0  0  0  0  0  0  0  0  0  0  0
   34.9256   28.6036    2.4361 C   0  0  1  0  0  0  0  0  0  0  0  0
   42.9095   26.6961    1.7020 N   0  0  0  0  0  0  0  0  0  0  0  0
   36.2533   28.4773    1.7114 O   0  0  0  0  0  0  0  0  0  0  0  0
   36.6525   27.1753    1.5179 C   0  0  1  0  0  0  0  0  0  0  0  0
   39.9888   22.8812    3.5613 N   0  0  0  0  0  0  0  0  0  0  0  0
   37.9632   26.8319    1.8722 O   0  0  0  0  0  0  0  0  0  0  0  0
   39.1739   27.3441    1.1457 C   0  0  2  0  0  0  0  0  0  0  0  0
   40.3082   29.0215    5.4416 N   0  0  0  0  0  0  0  0  0  0  0  0
   37.8708   27.4066   -0.9731 O   0  0  0  0  0  0  0  0  0  0  0  0
   39.0894   26.8715   -0.3358 C   0  0  1  0  0  0  0  0  0  0  0  0
   40.5792   27.2194    3.1055 O   0  0  0  0  0  0  0  0  0  0  0  0
   40.3755   27.3827   -1.1588 C   0  0  1  0  0  0  0  0  0  0  0  0
   39.4828   25.5142    4.3526 O   0  0  0  0  0  0  0  0  0  0  0  0
   41.6698   26.7906   -0.4486 C   0  0  0  0  0  0  0  0  0  0  0  0
   42.3071   24.7001    6.6398 O   0  0  0  0  0  0  0  0  0  0  0  0
   41.6838   27.2768    1.0601 C   0  0  1  0  0  0  0  0  0  0  0  0
   41.7943   27.4031    7.4048 O   0  0  0  0  0  0  0  0  0  0  0  0
   40.4986   26.7613    1.8125 C   0  0  2  0  0  0  0  0  0  0  0  0
   35.4692   25.1043    1.5087 O   0  0  0  0  0  0  0  0  0  0  0  0
   39.6401   27.0009    4.1895 C   0  0  1  0  0  0  0  0  0  0  0  0
   33.7133   27.1379    0.8431 O   0  0  0  0  0  0  0  0  0  0  0  0
   40.7259   24.7651    4.8132 C   0  0  2  0  0  0  0  0  0  0  0  0
   40.4239   23.2738    4.9047 C   0  0  0  0  0  0  0  0  0  0  0  0
   41.1504   25.3467    6.1815 C   0  0  2  0  0  0  0  0  0  0  0  0
   41.4047   26.8412    6.0777 C   0  0  1  0  0  0  0  0  0  0  0  0
   40.1213   27.5227    5.5678 C   0  0  1  0  0  0  0  0  0  0  0  0
   35.5779   26.3159    2.1638 C   0  0  2  0  0  0  0  0  0  0  0  0
   34.3078   27.2259    2.1704 C   0  0  1  0  0  0  0  0  0  0  0  0
  1  3  1  0  0  0  0
  4  1  1  1  0  0  0
  4  6  1  0  0  0  0
  4 31  1  0  0  0  0
  6  7  1  0  0  0  0
  7  9  1  1  0  0  0
  7 30  1  0  0  0  0
  8 26  1  0  0  0  0
 10  9  1  1  0  0  0
 10 13  1  0  0  0  0
 10 21  1  0  0  0  0
 13 12  1  6  0  0  0
 13 15  1  0  0  0  0
 15  2  1  6  0  0  0
 15 17  1  0  0  0  0
 16 25  1  0  0  0  0
 16 23  1  0  0  0  0
 17 19  1  0  0  0  0
 19  5  1  1  0  0  0
 19 21  1  0  0  0  0
 21 14  1  1  0  0  0
 23 14  1  6  0  0  0
 23 29  1  0  0  0  0
 25 26  1  1  0  0  0
 25 27  1  0  0  0  0
 27 18  1  6  0  0  0
 27 28  1  0  0  0  0
 28 20  1  1  0  0  0
 28 29  1  0  0  0  0
 29 11  1  6  0  0  0
 30 22  1  6  0  0  0
 30 31  1  0  0  0  0
 31 24  1  6  0  0  0
M  END
>  <CHROM.1>
-56.10338715,-67.94229964,-60.70378830,56.39164597,60.53379012,58.23700219
38.90855886,26.74003908,2.75997376,2.46964273,0.21293027,-1.49114617

>  <Name>
ligand

>  <RI>
0

>  <Rbt.Current_Directory>
/home/itssahil/PROJECTS/Mol_Feturizer/New_Systems/rnas/2ET5

>  <Rbt.Executable>
rbdock ($Id: //depot/dev/client3/rdock/2013.1/src/exe/rbdock.cxx#4 $)

>  <Rbt.Library>
libRbt.so (2013.1, Build901 2013/11/27)

>  <Rbt.Parameter_File>
/export/apps/rDock/src/rDock_2013.1_src/data/scripts/dock_solv.prm

>  <Rbt.Receptor>
prm/pocket_docking_5.prm

>  <SCORE>
-8.2601

>  <SCORE.INTER>
-2.76947

>  <SCORE.INTER.CONST>
1

>  <SCORE.INTER.POLAR>
0

>  <SCORE.INTER.ROT>
6

>  <SCORE.INTER.SOLV>
8.95318

>  <SCORE.INTER.VDW>
-12.4307

>  <SCORE.INTER.norm>
-0.0893377

>  <SCORE.INTRA>
-5.49063

>  <SCORE.INTRA.DIHEDRAL>
-10.6601

>  <SCORE.INTRA.DIHEDRAL.0>
11.2357

>  <SCORE.INTRA.POLAR>
0

>  <SCORE.INTRA.POLAR.0>
0

>  <SCORE.INTRA.REPUL>
0

>  <SCORE.INTRA.REPUL.0>
0

>  <SCORE.INTRA.SOLV>
-3.60638

>  <SCORE.INTRA.SOLV.lig_0>
-83.3092

>  <SCORE.INTRA.VDW>
1.64263

>  <SCORE.INTRA.VDW.0>
-4.47057

>  <SCORE.INTRA.norm>
-0.177117

>  <SCORE.RESTR>
0

>  <SCORE.RESTR.CAVITY>
0

>  <SCORE.RESTR.norm>
0

>  <SCORE.SYSTEM>
0

>  <SCORE.SYSTEM.CONST>
0

>  <SCORE.SYSTEM.DIHEDRAL>
0

>  <SCORE.SYSTEM.SOLV>
0

>  <SCORE.SYSTEM.norm>
0

>  <SCORE.heavy>
31

>  <SCORE.norm>
-0.266455

>  <RMSD>
5.602

$$$$
ligand
 OpenBabel11021811433D
libRbt.so/2013.1/901 2013/11/27
 31 33  0  0  0  0  0  0  0  0999 V2000
   35.6900   26.2847    6.8411 C   0  0  0  0  0  0  0  0  0  0  0  0
   37.9759   29.7561   -0.4805 N   0  0  0  0  0  0  0  0  0  0  0  0
   35.7456   27.6879    7.1370 O   0  0  0  0  0  0  0  0  0  0  0  0
   35.0151   26.2128    5.4739 C   0  0  1  0  0  0  0  0  0  0  0  0
   41.9277   28.7349    2.5310 N   0  0  0  0  0  0  0  0  0  0  0  0
   35.7799   26.8865    4.3490 O   0  0  0  0  0  0  0  0  0  0  0  0
   36.3726   26.0008    3.4793 C   0  0  1  0  0  0  0  0  0  0  0  0
   41.6271   23.4855    2.1690 N   0  0  0  0  0  0  0  0  0  0  0  0
   37.7212   26.2003    3.1583 O   0  0  0  0  0  0  0  0  0  0  0  0
   38.2964   27.5450    2.8168 C   0  0  2  0  0  0  0  0  0  0  0  0
   40.0364   27.3248    7.0886 N   0  0  0  0  0  0  0  0  0  0  0  0
   36.3565   27.9908    1.3235 O   0  0  0  0  0  0  0  0  0  0  0  0
   37.8296   27.9242    1.3802 C   0  0  1  0  0  0  0  0  0  0  0  0
   40.2851   27.1892    4.1394 O   0  0  0  0  0  0  0  0  0  0  0  0
   38.4328   29.3558    0.9571 C   0  0  1  0  0  0  0  0  0  0  0  0
   40.3566   24.8156    4.3013 O   0  0  0  0  0  0  0  0  0  0  0  0
   40.0185   29.2517    1.0281 C   0  0  0  0  0  0  0  0  0  0  0  0
   43.8123   24.5304    5.6606 O   0  0  0  0  0  0  0  0  0  0  0  0
   40.4306   28.8320    2.5000 C   0  0  1  0  0  0  0  0  0  0  0  0
   42.5403   25.9406    7.7931 O   0  0  0  0  0  0  0  0  0  0  0  0
   39.8882   27.4849    2.8575 C   0  0  2  0  0  0  0  0  0  0  0  0
   35.9703   23.7018    2.9871 O   0  0  0  0  0  0  0  0  0  0  0  0
   39.8689   26.0727    4.9670 C   0  0  1  0  0  0  0  0  0  0  0  0
   33.6321   24.8313    3.9459 O   0  0  0  0  0  0  0  0  0  0  0  0
   41.8686   24.6503    4.2293 C   0  0  2  0  0  0  0  0  0  0  0  0
   42.2108   23.3524    3.5069 C   0  0  0  0  0  0  0  0  0  0  0  0
   42.4162   24.6603    5.6752 C   0  0  2  0  0  0  0  0  0  0  0  0
   42.0276   25.9432    6.3911 C   0  0  1  0  0  0  0  0  0  0  0  0
   40.4922   26.0613    6.3865 C   0  0  1  0  0  0  0  0  0  0  0  0
   36.0499   24.6170    4.0192 C   0  0  2  0  0  0  0  0  0  0  0  0
   34.7573   24.8267    4.8717 C   0  0  1  0  0  0  0  0  0  0  0  0
  1  3  1  0  0  0  0
  4  1  1  1  0  0  0
  4  6  1  0  0  0  0
  4 31  1  0  0  0  0
  6  7  1  0  0  0  0
  7  9  1  1  0  0  0
  7 30  1  0  0  0  0
  8 26  1  0  0  0  0
 10  9  1  6  0  0  0
 10 13  1  0  0  0  0
 10 21  1  0  0  0  0
 13 12  1  1  0  0  0
 13 15  1  0  0  0  0
 15  2  1  6  0  0  0
 15 17  1  0  0  0  0
 16 25  1  0  0  0  0
 16 23  1  0  0  0  0
 17 19  1  0  0  0  0
 19  5  1  6  0  0  0
 19 21  1  0  0  0  0
 21 14  1  1  0  0  0
 23 14  1  6  0  0  0
 23 29  1  0  0  0  0
 25 26  1  1  0  0  0
 25 27  1  0  0  0  0
 27 18  1  6  0  0  0
 27 28  1  0  0  0  0
 28 20  1  1  0  0  0
 28 29  1  0  0  0  0
 29 11  1  6  0  0  0
 30 22  1  6  0  0  0
 30 31  1  0  0  0  0
 31 24  1  6  0  0  0
M  END
>  <CHROM.1>
62.58677817,-44.78886715,-74.36077075,64.64209022,53.90090411,60.12733784
38.85632654,26.37164604,4.00526153,2.85478911,-0.00035691,-0.96325112

>  <Name>
ligand

>  <RI>
0

>  <Rbt.Current_Directory>
/home/itssahil/PROJECTS/Mol_Feturizer/New_Systems/rnas/2ET5

>  <Rbt.Executable>
rbdock ($Id: //depot/dev/client3/rdock/2013.1/src/exe/rbdock.cxx#4 $)

>  <Rbt.Library>
libRbt.so (2013.1, Build901 2013/11/27)

>  <Rbt.Parameter_File>
/export/apps/rDock/src/rDock_2013.1_src/data/scripts/dock_solv.prm

>  <Rbt.Receptor>
prm/pocket_docking_7.prm

>  <SCORE>
-10.0082

>  <SCORE.INTER>
-4.88582

>  <SCORE.INTER.CONST>
1

>  <SCORE.INTER.POLAR>
0

>  <SCORE.INTER.ROT>
6

>  <SCORE.INTER.SOLV>
11.1234

>  <SCORE.INTER.VDW>
-14.565

>  <SCORE.INTER.norm>
-0.157607

>  <SCORE.INTRA>
-5.12239

>  <SCORE.INTRA.DIHEDRAL>
-8.75663

>  <SCORE.INTRA.DIHEDRAL.0>
11.2357

>  <SCORE.INTRA.POLAR>
0

>  <SCORE.INTRA.POLAR.0>
0

>  <SCORE.INTRA.REPUL>
0

>  <SCORE.INTRA.REPUL.0>
0

>  <SCORE.INTRA.SOLV>
-4.41089

>  <SCORE.INTRA.SOLV.lig_0>
-83.3092

>  <SCORE.INTRA.VDW>
1.46137

>  <SCORE.INTRA.VDW.0>
-4.47057

>  <SCORE.INTRA.norm>
-0.165238

>  <SCORE.RESTR>
0

>  <SCORE.RESTR.CAVITY>
0

>  <SCORE.RESTR.norm>
0

>  <SCORE.SYSTEM>
0

>  <SCORE.SYSTEM.CONST>
0

>  <SCORE.SYSTEM.DIHEDRAL>
0

>  <SCORE.SYSTEM.SOLV>
0

>  <SCORE.SYSTEM.norm>
0

>  <SCORE.heavy>
31

>  <SCORE.norm>
-0.322846

>  <RMSD>
5.615

$$$$
ligand
 OpenBabel11021811433D
libRbt.so/2013.1/901 2013/11/27
 31 33  0  0  0  0  0  0  0  0999 V2000
   35.6899   25.4365    5.6993 C   0  0  0  0  0  0  0  0  0  0  0  0
   42.0619   25.9999    7.6834 N   0  0  0  0  0  0  0  0  0  0  0  0
   36.1871   25.9338    6.9504 O   0  0  0  0  0  0  0  0  0  0  0  0
   36.6091   26.0601    4.6522 C   0  0  1  0  0  0  0  0  0  0  0  0
   43.9734   24.4767    3.2388 N   0  0  0  0  0  0  0  0  0  0  0  0
   38.0701   25.6659    4.7703 O   0  0  0  0  0  0  0  0  0  0  0  0
   38.4833   24.7875    3.7957 C   0  0  1  0  0  0  0  0  0  0  0  0
   39.3189   25.4154   -1.0581 N   0  0  0  0  0  0  0  0  0  0  0  0
   39.1878   23.6459    4.1980 O   0  0  0  0  0  0  0  0  0  0  0  0
   40.5625   23.6962    4.8009 C   0  0  2  0  0  0  0  0  0  0  0  0
   41.4924   20.4315    1.3808 N   0  0  0  0  0  0  0  0  0  0  0  0
   39.5855   24.4744    6.9530 O   0  0  0  0  0  0  0  0  0  0  0  0
   40.5712   24.7964    5.9032 C   0  0  1  0  0  0  0  0  0  0  0  0
   41.6458   23.0605    2.7386 O   0  0  0  0  0  0  0  0  0  0  0  0
   42.0312   24.9028    6.5739 C   0  0  1  0  0  0  0  0  0  0  0  0
   40.1264   23.9297    1.1258 O   0  0  0  0  0  0  0  0  0  0  0  0
   43.0688   25.2499    5.4193 C   0  0  0  0  0  0  0  0  0  0  0  0
   42.5027   24.0867   -1.7377 O   0  0  0  0  0  0  0  0  0  0  0  0
   42.9912   24.1161    4.3143 C   0  0  1  0  0  0  0  0  0  0  0  0
   42.4407   21.2686   -1.2803 O   0  0  0  0  0  0  0  0  0  0  0  0
   41.6371   24.0596    3.6819 C   0  0  2  0  0  0  0  0  0  0  0  0
   37.6159   24.2327    1.6442 O   0  0  0  0  0  0  0  0  0  0  0  0
   40.5794   22.6811    1.8311 C   0  0  1  0  0  0  0  0  0  0  0  0
   36.8152   26.8016    2.2935 O   0  0  0  0  0  0  0  0  0  0  0  0
   41.1521   24.5774    0.2055 C   0  0  2  0  0  0  0  0  0  0  0  0
   40.5641   25.8407   -0.4125 C   0  0  0  0  0  0  0  0  0  0  0  0
   41.5416   23.5416   -0.8743 C   0  0  2  0  0  0  0  0  0  0  0  0
   42.0850   22.2742   -0.2359 C   0  0  1  0  0  0  0  0  0  0  0  0
   41.0119   21.7025    0.7091 C   0  0  1  0  0  0  0  0  0  0  0  0
   37.2528   24.5048    2.9493 C   0  0  2  0  0  0  0  0  0  0  0  0
   36.3336   25.7477    3.1768 C   0  0  1  0  0  0  0  0  0  0  0  0
  1  3  1  0  0  0  0
  4  1  1  1  0  0  0
  4  6  1  0  0  0  0
  4 31  1  0  0  0  0
  6  7  1  0  0  0  0
  7  9  1  1  0  0  0
  7 30  1  0  0  0  0
  8 26  1  0  0  0  0
 10  9  1  6  0  0  0
 10 13  1  0  0  0  0
 10 21  1  0  0  0  0
 13 12  1  1  0  0  0
 13 15  1  0  0  0  0
 15  2  1  1  0  0  0
 15 17  1  0  0  0  0
 16 25  1  0  0  0  0
 16 23  1  0  0  0  0
 17 19  1  0  0  0  0
 19  5  1  6  0  0  0
 19 21  1  0  0  0  0
 21 14  1  6  0  0  0
 23 14  1  1  0  0  0
 23 29  1  0  0  0  0
 25 26  1  6  0  0  0
 25 27  1  0  0  0  0
 27 18  1  6  0  0  0
 27 28  1  0  0  0  0
 28 20  1  6  0  0  0
 28 29  1  0  0  0  0
 29 11  1  1  0  0  0
 30 22  1  6  0  0  0
 30 31  1  0  0  0  0
 31 24  1  6  0  0  0
M  END
>  <CHROM.1>
61.80033309,-67.09783547,47.02890668,51.68880163,65.21664525,-55.09126874
40.06867036,24.30992452,2.92988563,2.12389335,-0.32039627,1.36474318

>  <Name>
ligand

>  <RI>
0

>  <Rbt.Current_Directory>
/home/itssahil/PROJECTS/Mol_Feturizer/New_Systems/rnas/2ET5

>  <Rbt.Executable>
rbdock ($Id: //depot/dev/client3/rdock/2013.1/src/exe/rbdock.cxx#4 $)

>  <Rbt.Library>
libRbt.so (2013.1, Build901 2013/11/27)

>  <Rbt.Parameter_File>
/export/apps/rDock/src/rDock_2013.1_src/data/scripts/dock_solv.prm

>  <Rbt.Receptor>
prm/pocket_docking_4.prm

>  <SCORE>
-7.52732

>  <SCORE.INTER>
-3.14075

>  <SCORE.INTER.CONST>
1

>  <SCORE.INTER.POLAR>
0

>  <SCORE.INTER.ROT>
6

>  <SCORE.INTER.SOLV>
18.945

>  <SCORE.INTER.VDW>
-16.0088

>  <SCORE.INTER.norm>
-0.101315

>  <SCORE.INTRA>
-4.38657

>  <SCORE.INTRA.DIHEDRAL>
-9.49005

>  <SCORE.INTRA.DIHEDRAL.0>
11.2357

>  <SCORE.INTRA.POLAR>
0

>  <SCORE.INTRA.POLAR.0>
0

>  <SCORE.INTRA.REPUL>
0

>  <SCORE.INTRA.REPUL.0>
0

>  <SCORE.INTRA.SOLV>
-1.03895

>  <SCORE.INTRA.SOLV.lig_0>
-83.3092

>  <SCORE.INTRA.VDW>
0.877934

>  <SCORE.INTRA.VDW.0>
-4.47057

>  <SCORE.INTRA.norm>
-0.141502

>  <SCORE.RESTR>
0

>  <SCORE.RESTR.CAVITY>
0

>  <SCORE.RESTR.norm>
0

>  <SCORE.SYSTEM>
0

>  <SCORE.SYSTEM.CONST>
0

>  <SCORE.SYSTEM.DIHEDRAL>
0

>  <SCORE.SYSTEM.SOLV>
0

>  <SCORE.SYSTEM.norm>
0

>  <SCORE.heavy>
31

>  <SCORE.norm>
-0.242817

>  <RMSD>
5.618

$$$$
ligand
 OpenBabel11021811433D
libRbt.so/2013.1/901 2013/11/27
 31 33  0  0  0  0  0  0  0  0999 V2000
   35.9058   26.2618    6.9268 C   0  0  0  0  0  0  0  0  0  0  0  0
   36.9148   25.6055   -1.7705 N   0  0  0  0  0  0  0  0  0  0  0  0
   35.7951   27.6261    7.3583 O   0  0  0  0  0  0  0  0  0  0  0  0
   35.1291   26.2162    5.6135 C   0  0  1  0  0  0  0  0  0  0  0  0
   40.1602   23.0973    1.2135 N   0  0  0  0  0  0  0  0  0  0  0  0
   35.6762   27.1128    4.5176 O   0  0  0  0  0  0  0  0  0  0  0  0
   36.3170   26.4253    3.5132 C   0  0  1  0  0  0  0  0  0  0  0  0
   40.6543   29.1549    5.9649 N   0  0  0  0  0  0  0  0  0  0  0  0
   37.5841   26.8721    3.1180 O   0  0  0  0  0  0  0  0  0  0  0  0
   38.2876   26.3716    1.8890 C   0  0  2  0  0  0  0  0  0  0  0  0
   42.7282   24.2963    3.2073 N   0  0  0  0  0  0  0  0  0  0  0  0
   36.6533   27.5903    0.4623 O   0  0  0  0  0  0  0  0  0  0  0  0
   37.2432   26.2662    0.7385 C   0  0  1  0  0  0  0  0  0  0  0  0
   39.8635   25.0507    3.1551 O   0  0  0  0  0  0  0  0  0  0  0  0
   37.9445   25.7178   -0.6032 C   0  0  1  0  0  0  0  0  0  0  0  0
   40.4547   27.1749    4.0516 O   0  0  0  0  0  0  0  0  0  0  0  0
   38.5693   24.2927   -0.2735 C   0  0  0  0  0  0  0  0  0  0  0  0
   41.1799   26.0454    7.5257 O   0  0  0  0  0  0  0  0  0  0  0  0
   39.5963   24.4570    0.9228 C   0  0  1  0  0  0  0  0  0  0  0  0
   43.2056   24.6291    6.0957 O   0  0  0  0  0  0  0  0  0  0  0  0
   38.9163   24.9339    2.1665 C   0  0  2  0  0  0  0  0  0  0  0  0
   36.2305   24.1513    2.7984 O   0  0  0  0  0  0  0  0  0  0  0  0
   40.9496   26.0087    3.2413 C   0  0  1  0  0  0  0  0  0  0  0  0
   33.8428   24.7855    4.0469 O   0  0  0  0  0  0  0  0  0  0  0  0
   40.1367   26.8777    5.5108 C   0  0  2  0  0  0  0  0  0  0  0  0
   39.6217   28.1399    6.1928 C   0  0  0  0  0  0  0  0  0  0  0  0
   41.4278   26.3531    6.1803 C   0  0  2  0  0  0  0  0  0  0  0  0
   41.9478   25.1207    5.4593 C   0  0  1  0  0  0  0  0  0  0  0  0
   42.2053   25.4869    3.9859 C   0  0  1  0  0  0  0  0  0  0  0  0
   36.2613   24.9611    3.9176 C   0  0  2  0  0  0  0  0  0  0  0  0
   35.0343   24.8727    4.8809 C   0  0  1  0  0  0  0  0  0  0  0  0
  1  3  1  0  0  0  0
  4  1  1  1  0  0  0
  4  6  1  0  0  0  0
  4 31  1  0  0  0  0
  6  7  1  0  0  0  0
  7  9  1  1  0  0  0
  7 30  1  0  0  0  0
  8 26  1  0  0  0  0
 10  9  1  1  0  0  0
 10 13  1  0  0  0  0
 10 21  1  0  0  0  0
 13 12  1  6  0  0  0
 13 15  1  0  0  0  0
 15  2  1  6  0  0  0
 15 17  1  0  0  0  0
 16 25  1  0  0  0  0
 16 23  1  0  0  0  0
 17 19  1  0  0  0  0
 19  5  1  1  0  0  0
 19 21  1  0  0  0  0
 21 14  1  1  0  0  0
 23 14  1  1  0  0  0
 23 29  1  0  0  0  0
 25 26  1  1  0  0  0
 25 27  1  0  0  0  0
 27 18  1  1  0  0  0
 27 28  1  0  0  0  0
 28 20  1  1  0  0  0
 28 29  1  0  0  0  0
 29 11  1  6  0  0  0
 30 22  1  6  0  0  0
 30 31  1  0  0  0  0
 31 24  1  6  0  0  0
M  END
>  <CHROM.1>
61.41246362,-169.06935422,41.86496487,93.32870726,-49.29500190,-54.94922044
38.56754176,25.88490537,3.65201051,2.49395318,0.11195493,-1.84373217

>  <Name>
ligand

>  <RI>
0

>  <Rbt.Current_Directory>
/home/itssahil/PROJECTS/Mol_Feturizer/New_Systems/rnas/2ET5

>  <Rbt.Executable>
rbdock ($Id: //depot/dev/client3/rdock/2013.1/src/exe/rbdock.cxx#4 $)

>  <Rbt.Library>
libRbt.so (2013.1, Build901 2013/11/27)

>  <Rbt.Parameter_File>
/export/apps/rDock/src/rDock_2013.1_src/data/scripts/dock_solv.prm

>  <Rbt.Receptor>
prm/pocket_docking_5.prm

>  <SCORE>
-2.35892

>  <SCORE.INTER>
-1.37811

>  <SCORE.INTER.CONST>
1

>  <SCORE.INTER.POLAR>
0

>  <SCORE.INTER.ROT>
6

>  <SCORE.INTER.SOLV>
11.0254

>  <SCORE.INTER.VDW>
-12.1939

>  <SCORE.INTER.norm>
-0.0444552

>  <SCORE.INTRA>
-0.980806

>  <SCORE.INTRA.DIHEDRAL>
-4.19697

>  <SCORE.INTRA.DIHEDRAL.0>
11.2357

>  <SCORE.INTRA.POLAR>
0

>  <SCORE.INTRA.POLAR.0>
0

>  <SCORE.INTRA.REPUL>
0

>  <SCORE.INTRA.REPUL.0>
0

>  <SCORE.INTRA.SOLV>
0.128016

>  <SCORE.INTRA.SOLV.lig_0>
-83.3092

>  <SCORE.INTRA.VDW>
1.05367

>  <SCORE.INTRA.VDW.0>
-4.47057

>  <SCORE.INTRA.norm>
-0.0316389

>  <SCORE.RESTR>
0

>  <SCORE.RESTR.CAVITY>
0

>  <SCORE.RESTR.norm>
0

>  <SCORE.SYSTEM>
0

>  <SCORE.SYSTEM.CONST>
0

>  <SCORE.SYSTEM.DIHEDRAL>
0

>  <SCORE.SYSTEM.SOLV>
0

>  <SCORE.SYSTEM.norm>
0

>  <SCORE.heavy>
31

>  <SCORE.norm>
-0.0760941

>  <RMSD>
5.623

$$$$
ligand
 OpenBabel11021811433D
libRbt.so/2013.1/901 2013/11/27
 31 33  0  0  0  0  0  0  0  0999 V2000
   44.3629   21.7942    2.9578 C   0  0  0  0  0  0  0  0  0  0  0  0
   39.9087   24.6069   -4.4912 N   0  0  0  0  0  0  0  0  0  0  0  0
   44.8429   22.0148    1.6234 O   0  0  0  0  0  0  0  0  0  0  0  0
   43.0029   21.1283    2.7654 C   0  0  1  0  0  0  0  0  0  0  0  0
   39.5391   26.5997    0.1585 N   0  0  0  0  0  0  0  0  0  0  0  0
   42.0157   21.9239    1.9308 O   0  0  0  0  0  0  0  0  0  0  0  0
   41.8195   21.4081    0.6708 C   0  0  1  0  0  0  0  0  0  0  0  0
   41.1555   24.5031    6.3118 N   0  0  0  0  0  0  0  0  0  0  0  0
   41.9005   22.2864   -0.4171 O   0  0  0  0  0  0  0  0  0  0  0  0
   40.7431   23.1171   -0.8929 C   0  0  2  0  0  0  0  0  0  0  0  0
   37.5845   24.6812    0.8050 N   0  0  0  0  0  0  0  0  0  0  0  0
   40.9816   22.1387   -3.1683 O   0  0  0  0  0  0  0  0  0  0  0  0
   40.9408   23.4044   -2.4107 C   0  0  1  0  0  0  0  0  0  0  0  0
   40.4806   24.2274    1.2354 O   0  0  0  0  0  0  0  0  0  0  0  0
   39.7309   24.3078   -2.9699 C   0  0  1  0  0  0  0  0  0  0  0  0
   39.9440   22.9276    3.1557 O   0  0  0  0  0  0  0  0  0  0  0  0
   39.7135   25.6616   -2.1350 C   0  0  0  0  0  0  0  0  0  0  0  0
   38.9795   25.7468    5.3902 O   0  0  0  0  0  0  0  0  0  0  0  0
   39.5436   25.3051   -0.5999 C   0  0  1  0  0  0  0  0  0  0  0  0
   36.9686   25.9813    3.3764 O   0  0  0  0  0  0  0  0  0  0  0  0
   40.6955   24.4957   -0.0951 C   0  0  2  0  0  0  0  0  0  0  0  0
   42.1941   19.2484   -0.2699 O   0  0  0  0  0  0  0  0  0  0  0  0
   39.4384   23.4069    1.8230 C   0  0  1  0  0  0  0  0  0  0  0  0
   41.8039   18.9782    2.4571 O   0  0  0  0  0  0  0  0  0  0  0  0
   40.1684   24.0085    4.2045 C   0  0  2  0  0  0  0  0  0  0  0  0
   40.7054   23.3797    5.4850 C   0  0  0  0  0  0  0  0  0  0  0  0
   38.8194   24.7256    4.4428 C   0  0  2  0  0  0  0  0  0  0  0  0
   38.2808   25.3077    3.1466 C   0  0  1  0  0  0  0  0  0  0  0  0
   38.1209   24.1659    2.1256 C   0  0  1  0  0  0  0  0  0  0  0  0
   42.7349   20.1983    0.5753 C   0  0  2  0  0  0  0  0  0  0  0  0
   42.9622   19.7677    2.0599 C   0  0  1  0  0  0  0  0  0  0  0  0
  1  3  1  0  0  0  0
  4  1  1  6  0  0  0
  4  6  1  0  0  0  0
  4 31  1  0  0  0  0
  6  7  1  0  0  0  0
  7  9  1  6  0  0  0
  7 30  1  0  0  0  0
  8 26  1  0  0  0  0
 10  9  1  1  0  0  0
 10 13  1  0  0  0  0
 10 21  1  0  0  0  0
 13 12  1  6  0  0  0
 13 15  1  0  0  0  0
 15  2  1  6  0  0  0
 15 17  1  0  0  0  0
 16 25  1  0  0  0  0
 16 23  1  0  0  0  0
 17 19  1  0  0  0  0
 19  5  1  1  0  0  0
 19 21  1  0  0  0  0
 21 14  1  1  0  0  0
 23 14  1  1  0  0  0
 23 29  1  0  0  0  0
 25 26  1  1  0  0  0
 25 27  1  0  0  0  0
 27 18  1  1  0  0  0
 27 28  1  0  0  0  0
 28 20  1  1  0  0  0
 28 29  1  0  0  0  0
 29 11  1  6  0  0  0
 30 22  1  6  0  0  0
 30 31  1  0  0  0  0
 31 24  1  1  0  0  0
M  END
>  <CHROM.1>
-57.03475100,-85.02601164,-153.12713961,155.42663236,-51.78357904,168.16426650
40.66903042,23.24211561,1.28473879,-0.99090166,-0.84486490,1.57743662

>  <Name>
ligand

>  <RI>
0

>  <Rbt.Current_Directory>
/home/itssahil/PROJECTS/Mol_Feturizer/New_Systems/rnas/2ET5

>  <Rbt.Executable>
rbdock ($Id: //depot/dev/client3/rdock/2013.1/src/exe/rbdock.cxx#4 $)

>  <Rbt.Library>
libRbt.so (2013.1, Build901 2013/11/27)

>  <Rbt.Parameter_File>
/export/apps/rDock/src/rDock_2013.1_src/data/scripts/dock_solv.prm

>  <Rbt.Receptor>
prm/pocket_docking_3.prm

>  <SCORE>
-2.85465

>  <SCORE.INTER>
-6.39913

>  <SCORE.INTER.CONST>
1

>  <SCORE.INTER.POLAR>
0

>  <SCORE.INTER.ROT>
6

>  <SCORE.INTER.SOLV>
16.6164

>  <SCORE.INTER.VDW>
-17.4049

>  <SCORE.INTER.norm>
-0.206424

>  <SCORE.INTRA>
3.54449

>  <SCORE.INTRA.DIHEDRAL>
-2.0615

>  <SCORE.INTRA.DIHEDRAL.0>
11.2357

>  <SCORE.INTRA.POLAR>
0

>  <SCORE.INTRA.POLAR.0>
0

>  <SCORE.INTRA.REPUL>
0

>  <SCORE.INTRA.REPUL.0>
0

>  <SCORE.INTRA.SOLV>
3.69615

>  <SCORE.INTRA.SOLV.lig_0>
-83.3092

>  <SCORE.INTRA.VDW>
2.72716

>  <SCORE.INTRA.VDW.0>
-4.47057

>  <SCORE.INTRA.norm>
0.114338

>  <SCORE.RESTR>
0

>  <SCORE.RESTR.CAVITY>
0

>  <SCORE.RESTR.norm>
0

>  <SCORE.SYSTEM>
0

>  <SCORE.SYSTEM.CONST>
0

>  <SCORE.SYSTEM.DIHEDRAL>
0

>  <SCORE.SYSTEM.SOLV>
0

>  <SCORE.SYSTEM.norm>
0

>  <SCORE.heavy>
31

>  <SCORE.norm>
-0.0920854

>  <RMSD>
5.651

$$$$
ligand
 OpenBabel11021811433D
libRbt.so/2013.1/901 2013/11/27
 31 33  0  0  0  0  0  0  0  0999 V2000
   41.6978   22.3040   -0.6718 C   0  0  0  0  0  0  0  0  0  0  0  0
   37.6897   25.9756    6.4700 N   0  0  0  0  0  0  0  0  0  0  0  0
   41.6533   22.1984   -2.1024 O   0  0  0  0  0  0  0  0  0  0  0  0
   40.2732   22.6835   -0.2760 C   0  0  1  0  0  0  0  0  0  0  0  0
   42.6684   25.1829    7.0286 N   0  0  0  0  0  0  0  0  0  0  0  0
   40.0788   22.9785    1.2003 O   0  0  0  0  0  0  0  0  0  0  0  0
   39.9133   24.3157    1.4768 C   0  0  1  0  0  0  0  0  0  0  0  0
   44.8993   20.6926    2.8466 N   0  0  0  0  0  0  0  0  0  0  0  0
   40.6877   24.8740    2.5016 O   0  0  0  0  0  0  0  0  0  0  0  0
   40.4535   24.5916    3.9580 C   0  0  2  0  0  0  0  0  0  0  0  0
   44.0458   26.9516    4.3553 N   0  0  0  0  0  0  0  0  0  0  0  0
   38.0226   25.0222    3.6463 O   0  0  0  0  0  0  0  0  0  0  0  0
   39.2154   25.4152    4.4212 C   0  0  1  0  0  0  0  0  0  0  0  0
   42.8011   24.2637    4.4187 O   0  0  0  0  0  0  0  0  0  0  0  0
   38.9285   25.1598    5.9849 C   0  0  1  0  0  0  0  0  0  0  0  0
   44.9670   23.3063    4.1791 O   0  0  0  0  0  0  0  0  0  0  0  0
   40.2297   25.5920    6.7913 C   0  0  0  0  0  0  0  0  0  0  0  0
   45.4691   24.1463    0.5856 O   0  0  0  0  0  0  0  0  0  0  0  0
   41.4589   24.7467    6.2552 C   0  0  1  0  0  0  0  0  0  0  0  0
   45.3242   26.7686    1.7069 O   0  0  0  0  0  0  0  0  0  0  0  0
   41.7274   25.0264    4.8108 C   0  0  2  0  0  0  0  0  0  0  0  0
   39.2574   26.1763    0.1361 O   0  0  0  0  0  0  0  0  0  0  0  0
   44.2086   24.5081    4.6711 C   0  0  1  0  0  0  0  0  0  0  0  0
   38.2048   23.8664   -0.9675 O   0  0  0  0  0  0  0  0  0  0  0  0
   44.9200   23.0654    2.6763 C   0  0  2  0  0  0  0  0  0  0  0  0
   45.7041   21.8044    2.3323 C   0  0  0  0  0  0  0  0  0  0  0  0
   45.5090   24.3125    1.9774 C   0  0  2  0  0  0  0  0  0  0  0  0
   44.7401   25.5639    2.3673 C   0  0  1  0  0  0  0  0  0  0  0  0
   44.7967   25.7168    3.8986 C   0  0  1  0  0  0  0  0  0  0  0  0
   40.0271   25.0288    0.1392 C   0  0  2  0  0  0  0  0  0  0  0  0
   39.6592   23.9350   -0.9142 C   0  0  1  0  0  0  0  0  0  0  0  0
  1  3  1  0  0  0  0
  4  1  1  1  0  0  0
  4  6  1  0  0  0  0
  4 31  1  0  0  0  0
  6  7  1  0  0  0  0
  7  9  1  1  0  0  0
  7 30  1  0  0  0  0
  8 26  1  0  0  0  0
 10  9  1  6  0  0  0
 10 13  1  0  0  0  0
 10 21  1  0  0  0  0
 13 12  1  6  0  0  0
 13 15  1  0  0  0  0
 15  2  1  1  0  0  0
 15 17  1  0  0  0  0
 16 25  1  0  0  0  0
 16 23  1  0  0  0  0
 17 19  1  0  0  0  0
 19  5  1  1  0  0  0
 19 21  1  0  0  0  0
 21 14  1  6  0  0  0
 23 14  1  6  0  0  0
 23 29  1  0  0  0  0
 25 26  1  1  0  0  0
 25 27  1  0  0  0  0
 27 18  1  6  0  0  0
 27 28  1  0  0  0  0
 28 20  1  6  0  0  0
 28 29  1  0  0  0  0
 29 11  1  6  0  0  0
 30 22  1  1  0  0  0
 30 31  1  0  0  0  0
 31 24  1  1  0  0  0
M  END
>  <CHROM.1>
-174.86288388,-72.21351077,-76.69287565,173.42961454,163.89341634,70.74978317
41.90089323,24.38527369,2.70900249,-2.82251834,-0.14286214,1.25172140

>  <Name>
ligand

>  <RI>
0

>  <Rbt.Current_Directory>
/home/itssahil/PROJECTS/Mol_Feturizer/New_Systems/rnas/2ET5

>  <Rbt.Executable>
rbdock ($Id: //depot/dev/client3/rdock/2013.1/src/exe/rbdock.cxx#4 $)

>  <Rbt.Library>
libRbt.so (2013.1, Build901 2013/11/27)

>  <Rbt.Parameter_File>
/export/apps/rDock/src/rDock_2013.1_src/data/scripts/dock_solv.prm

>  <Rbt.Receptor>
prm/pocket_docking_6.prm

>  <SCORE>
-9.58145

>  <SCORE.INTER>
-6.89406

>  <SCORE.INTER.CONST>
1

>  <SCORE.INTER.POLAR>
0

>  <SCORE.INTER.ROT>
6

>  <SCORE.INTER.SOLV>
22.0301

>  <SCORE.INTER.VDW>
-19.5394

>  <SCORE.INTER.norm>
-0.222389

>  <SCORE.INTRA>
-2.69774

>  <SCORE.INTRA.DIHEDRAL>
-7.1951

>  <SCORE.INTRA.DIHEDRAL.0>
11.2357

>  <SCORE.INTRA.POLAR>
0

>  <SCORE.INTRA.POLAR.0>
0

>  <SCORE.INTRA.REPUL>
0

>  <SCORE.INTRA.REPUL.0>
0

>  <SCORE.INTRA.SOLV>
-1.26176

>  <SCORE.INTRA.SOLV.lig_0>
-83.3092

>  <SCORE.INTRA.VDW>
1.5307

>  <SCORE.INTRA.VDW.0>
-4.47057

>  <SCORE.INTRA.norm>
-0.0870237

>  <SCORE.RESTR>
0.0103429

>  <SCORE.RESTR.CAVITY>
0.0103429

>  <SCORE.RESTR.norm>
0.000333642

>  <SCORE.SYSTEM>
0

>  <SCORE.SYSTEM.CONST>
0

>  <SCORE.SYSTEM.DIHEDRAL>
0

>  <SCORE.SYSTEM.SOLV>
0

>  <SCORE.SYSTEM.norm>
0

>  <SCORE.heavy>
31

>  <SCORE.norm>
-0.309079

>  <RMSD>
5.663

$$$$
ligand
 OpenBabel11021811433D
libRbt.so/2013.1/901 2013/11/27
 31 33  0  0  0  0  0  0  0  0999 V2000
   42.7021   20.9819    2.5955 C   0  0  0  0  0  0  0  0  0  0  0  0
   39.9657   23.7993   -5.5963 N   0  0  0  0  0  0  0  0  0  0  0  0
   43.2155   22.1854    2.0059 O   0  0  0  0  0  0  0  0  0  0  0  0
   41.9862   20.2741    1.4481 C   0  0  1  0  0  0  0  0  0  0  0  0
   38.0153   26.7462   -1.9575 N   0  0  0  0  0  0  0  0  0  0  0  0
   40.8503   21.0626    0.8220 O   0  0  0  0  0  0  0  0  0  0  0  0
   41.1516   21.5685   -0.4212 C   0  0  1  0  0  0  0  0  0  0  0  0
   35.5889   24.5161    2.8908 N   0  0  0  0  0  0  0  0  0  0  0  0
   40.8793   22.9209   -0.6624 O   0  0  0  0  0  0  0  0  0  0  0  0
   39.8368   23.3901   -1.6365 C   0  0  2  0  0  0  0  0  0  0  0  0
   41.4829   25.9299    0.8025 N   0  0  0  0  0  0  0  0  0  0  0  0
   40.8462   21.9555   -3.4013 O   0  0  0  0  0  0  0  0  0  0  0  0
   40.4483   23.3368   -3.0679 C   0  0  1  0  0  0  0  0  0  0  0  0
   38.8349   24.9111   -0.0510 O   0  0  0  0  0  0  0  0  0  0  0  0
   39.3733   23.8459   -4.1532 C   0  0  1  0  0  0  0  0  0  0  0  0
   37.9245   25.6897    2.0057 O   0  0  0  0  0  0  0  0  0  0  0  0
   38.9651   25.3340   -3.7671 C   0  0  0  0  0  0  0  0  0  0  0  0
   39.3978   23.0705    4.2057 O   0  0  0  0  0  0  0  0  0  0  0  0
   38.3822   25.3305   -2.2930 C   0  0  1  0  0  0  0  0  0  0  0  0
   41.7747   24.3473    3.2707 O   0  0  0  0  0  0  0  0  0  0  0  0
   39.4085   24.8875   -1.2995 C   0  0  2  0  0  0  0  0  0  0  0  0
   42.7919   20.9846   -2.0516 O   0  0  0  0  0  0  0  0  0  0  0  0
   39.0217   25.8955    0.9981 C   0  0  1  0  0  0  0  0  0  0  0  0
   42.2452   18.7589   -0.4995 O   0  0  0  0  0  0  0  0  0  0  0  0
   37.9596   24.3672    2.7596 C   0  0  2  0  0  0  0  0  0  0  0  0
   36.7772   24.2896    3.7184 C   0  0  0  0  0  0  0  0  0  0  0  0
   39.3092   24.2844    3.5096 C   0  0  2  0  0  0  0  0  0  0  0  0
   40.4737   24.4069    2.5410 C   0  0  1  0  0  0  0  0  0  0  0  0
   40.3469   25.7445    1.7885 C   0  0  1  0  0  0  0  0  0  0  0  0
   42.5884   21.1548   -0.6955 C   0  0  2  0  0  0  0  0  0  0  0  0
   42.8087   19.9003    0.2094 C   0  0  1  0  0  0  0  0  0  0  0  0
  1  3  1  0  0  0  0
  4  1  1  1  0  0  0
  4  6  1  0  0  0  0
  4 31  1  0  0  0  0
  6  7  1  0  0  0  0
  7  9  1  1  0  0  0
  7 30  1  0  0  0  0
  8 26  1  0  0  0  0
 10  9  1  1  0  0  0
 10 13  1  0  0  0  0
 10 21  1  0  0  0  0
 13 12  1  6  0  0  0
 13 15  1  0  0  0  0
 15  2  1  6  0  0  0
 15 17  1  0  0  0  0
 16 25  1  0  0  0  0
 16 23  1  0  0  0  0
 17 19  1  0  0  0  0
 19  5  1  1  0  0  0
 19 21  1  0  0  0  0
 21 14  1  1  0  0  0
 23 14  1  6  0  0  0
 23 29  1  0  0  0  0
 25 26  1  1  0  0  0
 25 27  1  0  0  0  0
 27 18  1  6  0  0  0
 27 28  1  0  0  0  0
 28 20  1  1  0  0  0
 28 29  1  0  0  0  0
 29 11  1  6  0  0  0
 30 22  1  6  0  0  0
 30 31  1  0  0  0  0
 31 24  1  6  0  0  0
M  END
>  <CHROM.1>
-59.85417323,-113.30284700,-81.10684345,165.21202786,138.43475146,54.85480100
40.20287880,23.37649529,0.15416520,-0.78549969,-0.84373371,1.62664039

>  <Name>
ligand

>  <RI>
0

>  <Rbt.Current_Directory>
/home/itssahil/PROJECTS/Mol_Feturizer/New_Systems/rnas/2ET5

>  <Rbt.Executable>
rbdock ($Id: //depot/dev/client3/rdock/2013.1/src/exe/rbdock.cxx#4 $)

>  <Rbt.Library>
libRbt.so (2013.1, Build901 2013/11/27)

>  <Rbt.Parameter_File>
/export/apps/rDock/src/rDock_2013.1_src/data/scripts/dock_solv.prm

>  <Rbt.Receptor>
prm/pocket_docking_4.prm

>  <SCORE>
-1.50441

>  <SCORE.INTER>
-3.57356

>  <SCORE.INTER.CONST>
1

>  <SCORE.INTER.POLAR>
0

>  <SCORE.INTER.ROT>
6

>  <SCORE.INTER.SOLV>
16.57

>  <SCORE.INTER.VDW>
-15.5057

>  <SCORE.INTER.norm>
-0.115276

>  <SCORE.INTRA>
2.06915

>  <SCORE.INTRA.DIHEDRAL>
4.43134

>  <SCORE.INTRA.DIHEDRAL.0>
11.2357

>  <SCORE.INTRA.POLAR>
0

>  <SCORE.INTRA.POLAR.0>
0

>  <SCORE.INTRA.REPUL>
0

>  <SCORE.INTRA.REPUL.0>
0

>  <SCORE.INTRA.SOLV>
-0.463581

>  <SCORE.INTRA.SOLV.lig_0>
-83.3092

>  <SCORE.INTRA.VDW>
0.0852701

>  <SCORE.INTRA.VDW.0>
-4.47057

>  <SCORE.INTRA.norm>
0.0667468

>  <SCORE.RESTR>
0

>  <SCORE.RESTR.CAVITY>
0

>  <SCORE.RESTR.norm>
0

>  <SCORE.SYSTEM>
0

>  <SCORE.SYSTEM.CONST>
0

>  <SCORE.SYSTEM.DIHEDRAL>
0

>  <SCORE.SYSTEM.SOLV>
0

>  <SCORE.SYSTEM.norm>
0

>  <SCORE.heavy>
31

>  <SCORE.norm>
-0.0485292

>  <RMSD>
5.691

$$$$
ligand
 OpenBabel11021811433D
libRbt.so/2013.1/901 2013/11/27
 31 33  0  0  0  0  0  0  0  0999 V2000
   40.6876   29.1342   -0.5795 C   0  0  0  0  0  0  0  0  0  0  0  0
   38.4795   30.4427    3.4420 N   0  0  0  0  0  0  0  0  0  0  0  0
   40.2903   30.0420   -1.6176 O   0  0  0  0  0  0  0  0  0  0  0  0
   40.3568   27.7527   -1.1380 C   0  0  1  0  0  0  0  0  0  0  0  0
   43.2838   28.8408    3.1578 N   0  0  0  0  0  0  0  0  0  0  0  0
   40.7119   26.5937   -0.2243 O   0  0  0  0  0  0  0  0  0  0  0  0
   39.6182   26.0010    0.3628 C   0  0  1  0  0  0  0  0  0  0  0  0
   38.8132   24.0186    3.9265 N   0  0  0  0  0  0  0  0  0  0  0  0
   39.6533   25.7849    1.7460 O   0  0  0  0  0  0  0  0  0  0  0  0
   40.0390   26.8465    2.7360 C   0  0  2  0  0  0  0  0  0  0  0  0
   45.1008   25.3226    3.3591 N   0  0  0  0  0  0  0  0  0  0  0  0
   37.6760   27.6214    2.8194 O   0  0  0  0  0  0  0  0  0  0  0  0
   39.0650   28.0496    2.5648 C   0  0  1  0  0  0  0  0  0  0  0  0
   42.3825   26.2696    2.6574 O   0  0  0  0  0  0  0  0  0  0  0  0
   39.4450   29.2264    3.5960 C   0  0  1  0  0  0  0  0  0  0  0  0
   41.4976   24.8188    4.3238 O   0  0  0  0  0  0  0  0  0  0  0  0
   40.9445   29.6649    3.2968 C   0  0  0  0  0  0  0  0  0  0  0  0
   41.9999   21.6167    2.4894 O   0  0  0  0  0  0  0  0  0  0  0  0
   41.8816   28.3961    3.4537 C   0  0  1  0  0  0  0  0  0  0  0  0
   44.7114   22.4553    2.8035 O   0  0  0  0  0  0  0  0  0  0  0  0
   41.5322   27.3315    2.4633 C   0  0  2  0  0  0  0  0  0  0  0  0
   37.2984   25.9773   -0.1916 O   0  0  0  0  0  0  0  0  0  0  0  0
   42.7092   25.6047    3.9047 C   0  0  1  0  0  0  0  0  0  0  0  0
   38.7621   26.4246   -2.4979 O   0  0  0  0  0  0  0  0  0  0  0  0
   41.1081   23.6668    3.4074 C   0  0  2  0  0  0  0  0  0  0  0  0
   39.8532   22.9859    3.9413 C   0  0  0  0  0  0  0  0  0  0  0  0
   42.3038   22.6888    3.3406 C   0  0  2  0  0  0  0  0  0  0  0  0
   43.5543   23.3974    2.8472 C   0  0  1  0  0  0  0  0  0  0  0  0
   43.8595   24.5709    3.7965 C   0  0  1  0  0  0  0  0  0  0  0  0
   38.4134   26.7905   -0.1228 C   0  0  2  0  0  0  0  0  0  0  0  0
   38.8910   27.4402   -1.4611 C   0  0  1  0  0  0  0  0  0  0  0  0
  1  3  1  0  0  0  0
  4  1  1  1  0  0  0
  4  6  1  0  0  0  0
  4 31  1  0  0  0  0
  6  7  1  0  0  0  0
  7  9  1  1  0  0  0
  7 30  1  0  0  0  0
  8 26  1  0  0  0  0
 10  9  1  6  0  0  0
 10 13  1  0  0  0  0
 10 21  1  0  0  0  0
 13 12  1  1  0  0  0
 13 15  1  0  0  0  0
 15  2  1  6  0  0  0
 15 17  1  0  0  0  0
 16 25  1  0  0  0  0
 16 23  1  0  0  0  0
 17 19  1  0  0  0  0
 19  5  1  6  0  0  0
 19 21  1  0  0  0  0
 21 14  1  1  0  0  0
 23 14  1  6  0  0  0
 23 29  1  0  0  0  0
 25 26  1  1  0  0  0
 25 27  1  0  0  0  0
 27 18  1  6  0  0  0
 27 28  1  0  0  0  0
 28 20  1  1  0  0  0
 28 29  1  0  0  0  0
 29 11  1  6  0  0  0
 30 22  1  6  0  0  0
 30 31  1  0  0  0  0
 31 24  1  6  0  0  0
M  END
>  <CHROM.1>
178.93408721,49.06880057,58.48995952,71.53537934,-68.58710044,61.32867448
40.78668365,26.29187155,1.98048111,-2.49977555,0.83564481,-2.95598130

>  <Name>
ligand

>  <RI>
0

>  <Rbt.Current_Directory>
/home/itssahil/PROJECTS/Mol_Feturizer/New_Systems/rnas/2ET5

>  <Rbt.Executable>
rbdock ($Id: //depot/dev/client3/rdock/2013.1/src/exe/rbdock.cxx#4 $)

>  <Rbt.Library>
libRbt.so (2013.1, Build901 2013/11/27)

>  <Rbt.Parameter_File>
/export/apps/rDock/src/rDock_2013.1_src/data/scripts/dock_solv.prm

>  <Rbt.Receptor>
prm/pocket_docking_6.prm

>  <SCORE>
-2.67542

>  <SCORE.INTER>
1.98383

>  <SCORE.INTER.CONST>
1

>  <SCORE.INTER.POLAR>
0

>  <SCORE.INTER.ROT>
6

>  <SCORE.INTER.SOLV>
6.2723

>  <SCORE.INTER.VDW>
-8.36822

>  <SCORE.INTER.norm>
0.0639944

>  <SCORE.INTRA>
-4.65925

>  <SCORE.INTRA.DIHEDRAL>
-9.52502

>  <SCORE.INTRA.DIHEDRAL.0>
11.2357

>  <SCORE.INTRA.POLAR>
0

>  <SCORE.INTRA.POLAR.0>
0

>  <SCORE.INTRA.REPUL>
0

>  <SCORE.INTRA.REPUL.0>
0

>  <SCORE.INTRA.SOLV>
0.321216

>  <SCORE.INTRA.SOLV.lig_0>
-83.3092

>  <SCORE.INTRA.VDW>
-0.0573474

>  <SCORE.INTRA.VDW.0>
-4.47057

>  <SCORE.INTRA.norm>
-0.150298

>  <SCORE.RESTR>
0

>  <SCORE.RESTR.CAVITY>
0

>  <SCORE.RESTR.norm>
0

>  <SCORE.SYSTEM>
0

>  <SCORE.SYSTEM.CONST>
0

>  <SCORE.SYSTEM.DIHEDRAL>
0

>  <SCORE.SYSTEM.SOLV>
0

>  <SCORE.SYSTEM.norm>
0

>  <SCORE.heavy>
31

>  <SCORE.norm>
-0.086304

>  <RMSD>
5.760

$$$$
ligand
 OpenBabel11021811433D
libRbt.so/2013.1/901 2013/11/27
 31 33  0  0  0  0  0  0  0  0999 V2000
   36.0719   27.8915    0.8326 C   0  0  0  0  0  0  0  0  0  0  0  0
   41.4999   25.8983   -4.3260 N   0  0  0  0  0  0  0  0  0  0  0  0
   35.9441   27.2990    2.1335 O   0  0  0  0  0  0  0  0  0  0  0  0
   37.0510   29.0446    1.0366 C   0  0  1  0  0  0  0  0  0  0  0  0
   44.9163   26.2877   -0.5970 N   0  0  0  0  0  0  0  0  0  0  0  0
   38.4386   28.6300    1.4914 O   0  0  0  0  0  0  0  0  0  0  0  0
   39.3937   28.7327    0.5068 C   0  0  1  0  0  0  0  0  0  0  0  0
   43.4676   23.7072    2.7048 N   0  0  0  0  0  0  0  0  0  0  0  0
   40.2358   27.6342    0.2933 O   0  0  0  0  0  0  0  0  0  0  0  0
   41.3266   27.6210   -0.7391 C   0  0  2  0  0  0  0  0  0  0  0  0
   43.1970   30.1586    2.5892 N   0  0  0  0  0  0  0  0  0  0  0  0
   39.6185   27.3964   -2.5346 O   0  0  0  0  0  0  0  0  0  0  0  0
   40.8331   26.7876   -1.9587 C   0  0  1  0  0  0  0  0  0  0  0  0
   43.0862   27.7190    0.9117 O   0  0  0  0  0  0  0  0  0  0  0  0
   41.9746   26.7286   -3.0928 C   0  0  1  0  0  0  0  0  0  0  0  0
   42.6731   26.4424    2.8776 O   0  0  0  0  0  0  0  0  0  0  0  0
   43.2678   26.0691   -2.4424 C   0  0  0  0  0  0  0  0  0  0  0  0
   46.1189   26.5947    4.2826 O   0  0  0  0  0  0  0  0  0  0  0  0
   43.7021   26.9394   -1.1908 C   0  0  1  0  0  0  0  0  0  0  0  0
   45.4147   29.3611    4.3578 O   0  0  0  0  0  0  0  0  0  0  0  0
   42.6409   26.9508   -0.1370 C   0  0  2  0  0  0  0  0  0  0  0  0
   39.4922   29.9715   -1.5291 O   0  0  0  0  0  0  0  0  0  0  0  0
   42.5374   27.8032    2.2520 C   0  0  1  0  0  0  0  0  0  0  0  0
   37.7880   31.2699    0.2235 O   0  0  0  0  0  0  0  0  0  0  0  0
   44.0990   25.9639    3.1151 C   0  0  2  0  0  0  0  0  0  0  0  0
   44.0784   24.5663    3.7232 C   0  0  0  0  0  0  0  0  0  0  0  0
   44.7918   26.9828    4.0492 C   0  0  2  0  0  0  0  0  0  0  0  0
   44.7634   28.3764    3.4442 C   0  0  1  0  0  0  0  0  0  0  0  0
   43.2963   28.7725    3.1943 C   0  0  1  0  0  0  0  0  0  0  0  0
   38.6560   29.2132   -0.7323 C   0  0  2  0  0  0  0  0  0  0  0  0
   37.3839   29.9270   -0.1722 C   0  0  1  0  0  0  0  0  0  0  0  0
  1  3  1  0  0  0  0
  4  1  1  6  0  0  0
  4  6  1  0  0  0  0
  4 31  1  0  0  0  0
  6  7  1  0  0  0  0
  7  9  1  6  0  0  0
  7 30  1  0  0  0  0
  8 26  1  0  0  0  0
 10  9  1  1  0  0  0
 10 13  1  0  0  0  0
 10 21  1  0  0  0  0
 13 12  1  6  0  0  0
 13 15  1  0  0  0  0
 15  2  1  6  0  0  0
 15 17  1  0  0  0  0
 16 25  1  0  0  0  0
 16 23  1  0  0  0  0
 17 19  1  0  0  0  0
 19  5  1  1  0  0  0
 19 21  1  0  0  0  0
 21 14  1  1  0  0  0
 23 14  1  6  0  0  0
 23 29  1  0  0  0  0
 25 26  1  1  0  0  0
 25 27  1  0  0  0  0
 27 18  1  6  0  0  0
 27 28  1  0  0  0  0
 28 20  1  1  0  0  0
 28 29  1  0  0  0  0
 29 11  1  6  0  0  0
 30 22  1  1  0  0  0
 30 31  1  0  0  0  0
 31 24  1  1  0  0  0
M  END
>  <CHROM.1>
62.41933237,-179.38640888,-102.87449621,62.96151055,75.70719176,63.54415143
41.50872330,27.65695259,0.81662328,2.76826829,0.39531197,-1.84869308

>  <Name>
ligand

>  <RI>
0

>  <Rbt.Current_Directory>
/home/itssahil/PROJECTS/Mol_Feturizer/New_Systems/rnas/2ET5

>  <Rbt.Executable>
rbdock ($Id: //depot/dev/client3/rdock/2013.1/src/exe/rbdock.cxx#4 $)

>  <Rbt.Library>
libRbt.so (2013.1, Build901 2013/11/27)

>  <Rbt.Parameter_File>
/export/apps/rDock/src/rDock_2013.1_src/data/scripts/dock_solv.prm

>  <Rbt.Receptor>
prm/pocket_docking_8.prm

>  <SCORE>
-2.62914

>  <SCORE.INTER>
-0.290847

>  <SCORE.INTER.CONST>
1

>  <SCORE.INTER.POLAR>
0

>  <SCORE.INTER.ROT>
6

>  <SCORE.INTER.SOLV>
4.47998

>  <SCORE.INTER.VDW>
-9.28723

>  <SCORE.INTER.norm>
-0.00938215

>  <SCORE.INTRA>
-2.33829

>  <SCORE.INTRA.DIHEDRAL>
-3.98893

>  <SCORE.INTRA.DIHEDRAL.0>
11.2357

>  <SCORE.INTRA.POLAR>
0

>  <SCORE.INTRA.POLAR.0>
0

>  <SCORE.INTRA.REPUL>
0

>  <SCORE.INTRA.REPUL.0>
0

>  <SCORE.INTRA.SOLV>
-3.36112

>  <SCORE.INTRA.SOLV.lig_0>
-83.3092

>  <SCORE.INTRA.VDW>
1.33673

>  <SCORE.INTRA.VDW.0>
-4.47057

>  <SCORE.INTRA.norm>
-0.0754287

>  <SCORE.RESTR>
0

>  <SCORE.RESTR.CAVITY>
0

>  <SCORE.RESTR.norm>
0

>  <SCORE.SYSTEM>
0

>  <SCORE.SYSTEM.CONST>
0

>  <SCORE.SYSTEM.DIHEDRAL>
0

>  <SCORE.SYSTEM.SOLV>
0

>  <SCORE.SYSTEM.norm>
0

>  <SCORE.heavy>
31

>  <SCORE.norm>
-0.0848109

>  <RMSD>
5.768

$$$$
ligand
 OpenBabel11021811433D
libRbt.so/2013.1/901 2013/11/27
 31 33  0  0  0  0  0  0  0  0999 V2000
   43.5307   18.6763    2.0633 C   0  0  0  0  0  0  0  0  0  0  0  0
   41.1644   22.6357   -2.8993 N   0  0  0  0  0  0  0  0  0  0  0  0
   42.9985   18.2563    0.7984 O   0  0  0  0  0  0  0  0  0  0  0  0
   44.4988   19.8027    1.7113 C   0  0  1  0  0  0  0  0  0  0  0  0
   43.1728   26.7951   -0.8029 N   0  0  0  0  0  0  0  0  0  0  0  0
   43.8564   21.0172    1.0661 O   0  0  0  0  0  0  0  0  0  0  0  0
   43.7747   22.1060    1.9029 C   0  0  1  0  0  0  0  0  0  0  0  0
   39.4501   24.1401    5.0475 N   0  0  0  0  0  0  0  0  0  0  0  0
   42.5430   22.7648    2.0030 O   0  0  0  0  0  0  0  0  0  0  0  0
   41.9523   23.5807    0.8889 C   0  0  2  0  0  0  0  0  0  0  0  0
   43.0614   28.3576    2.8833 N   0  0  0  0  0  0  0  0  0  0  0  0
   41.0136   21.5106   -0.1236 O   0  0  0  0  0  0  0  0  0  0  0  0
   41.8708   22.6837   -0.3817 C   0  0  1  0  0  0  0  0  0  0  0  0
   42.9056   25.6445    1.7028 O   0  0  0  0  0  0  0  0  0  0  0  0
   41.2562   23.5171   -1.6147 C   0  0  1  0  0  0  0  0  0  0  0  0
   40.9564   25.2397    3.0073 O   0  0  0  0  0  0  0  0  0  0  0  0
   42.2003   24.7721   -1.8674 C   0  0  0  0  0  0  0  0  0  0  0  0
   42.6529   24.8560    6.3005 O   0  0  0  0  0  0  0  0  0  0  0  0
   42.2707   25.6265   -0.5341 C   0  0  1  0  0  0  0  0  0  0  0  0
   43.2831   27.5792    5.7164 O   0  0  0  0  0  0  0  0  0  0  0  0
   42.8762   24.8433    0.5869 C   0  0  2  0  0  0  0  0  0  0  0  0
   44.9435   22.7086    3.8929 O   0  0  0  0  0  0  0  0  0  0  0  0
   41.7918   26.3066    2.3553 C   0  0  1  0  0  0  0  0  0  0  0  0
   46.5478   21.0255    2.3912 O   0  0  0  0  0  0  0  0  0  0  0  0
   41.6250   24.4809    4.1456 C   0  0  2  0  0  0  0  0  0  0  0  0
   40.6736   23.4191    4.6853 C   0  0  0  0  0  0  0  0  0  0  0  0
   42.0134   25.5064    5.2356 C   0  0  2  0  0  0  0  0  0  0  0  0
   42.9267   26.5795    4.6667 C   0  0  1  0  0  0  0  0  0  0  0  0
   42.2012   27.2714    3.4977 C   0  0  1  0  0  0  0  0  0  0  0  0
   44.3558   21.6478    3.2306 C   0  0  2  0  0  0  0  0  0  0  0  0
   45.2895   20.4535    2.8522 C   0  0  1  0  0  0  0  0  0  0  0  0
  1  3  1  0  0  0  0
  4  1  1  1  0  0  0
  4  6  1  0  0  0  0
  4 31  1  0  0  0  0
  6  7  1  0  0  0  0
  7  9  1  1  0  0  0
  7 30  1  0  0  0  0
  8 26  1  0  0  0  0
 10  9  1  1  0  0  0
 10 13  1  0  0  0  0
 10 21  1  0  0  0  0
 13 12  1  1  0  0  0
 13 15  1  0  0  0  0
 15  2  1  6  0  0  0
 15 17  1  0  0  0  0
 16 25  1  0  0  0  0
 16 23  1  0  0  0  0
 17 19  1  0  0  0  0
 19  5  1  6  0  0  0
 19 21  1  0  0  0  0
 21 14  1  1  0  0  0
 23 14  1  1  0  0  0
 23 29  1  0  0  0  0
 25 26  1  1  0  0  0
 25 27  1  0  0  0  0
 27 18  1  1  0  0  0
 27 28  1  0  0  0  0
 28 20  1  1  0  0  0
 28 29  1  0  0  0  0
 29 11  1  6  0  0  0
 30 22  1  6  0  0  0
 30 31  1  0  0  0  0
 31 24  1  6  0  0  0
M  END
>  <CHROM.1>
62.82639509,-69.83886775,55.05985258,70.07807899,-60.67552544,-55.28934896
42.71780866,23.63652299,2.10589954,-1.07892338,-1.20136845,0.98331725

>  <Name>
ligand

>  <RI>
0

>  <Rbt.Current_Directory>
/home/itssahil/PROJECTS/Mol_Feturizer/New_Systems/rnas/2ET5

>  <Rbt.Executable>
rbdock ($Id: //depot/dev/client3/rdock/2013.1/src/exe/rbdock.cxx#4 $)

>  <Rbt.Library>
libRbt.so (2013.1, Build901 2013/11/27)

>  <Rbt.Parameter_File>
/export/apps/rDock/src/rDock_2013.1_src/data/scripts/dock_solv.prm

>  <Rbt.Receptor>
prm/pocket_docking_8.prm

>  <SCORE>
-11.4203

>  <SCORE.INTER>
-6.75454

>  <SCORE.INTER.CONST>
1

>  <SCORE.INTER.POLAR>
0

>  <SCORE.INTER.ROT>
6

>  <SCORE.INTER.SOLV>
15.0989

>  <SCORE.INTER.VDW>
-17.136

>  <SCORE.INTER.norm>
-0.217888

>  <SCORE.INTRA>
-4.66575

>  <SCORE.INTRA.DIHEDRAL>
-9.9207

>  <SCORE.INTRA.DIHEDRAL.0>
11.2357

>  <SCORE.INTRA.POLAR>
0

>  <SCORE.INTRA.POLAR.0>
0

>  <SCORE.INTRA.REPUL>
0

>  <SCORE.INTRA.REPUL.0>
0

>  <SCORE.INTRA.SOLV>
-1.21918

>  <SCORE.INTRA.SOLV.lig_0>
-83.3092

>  <SCORE.INTRA.VDW>
0.904189

>  <SCORE.INTRA.VDW.0>
-4.47057

>  <SCORE.INTRA.norm>
-0.150508

>  <SCORE.RESTR>
0

>  <SCORE.RESTR.CAVITY>
0

>  <SCORE.RESTR.norm>
0

>  <SCORE.SYSTEM>
0

>  <SCORE.SYSTEM.CONST>
0

>  <SCORE.SYSTEM.DIHEDRAL>
0

>  <SCORE.SYSTEM.SOLV>
0

>  <SCORE.SYSTEM.norm>
0

>  <SCORE.heavy>
31

>  <SCORE.norm>
-0.368396

>  <RMSD>
5.772

$$$$
ligand
 OpenBabel11021811433D
libRbt.so/2013.1/901 2013/11/27
 31 33  0  0  0  0  0  0  0  0999 V2000
   33.8460   24.4923    3.8948 C   0  0  0  0  0  0  0  0  0  0  0  0
   38.0664   30.3137   -0.2625 N   0  0  0  0  0  0  0  0  0  0  0  0
   32.6331   24.5353    4.6607 O   0  0  0  0  0  0  0  0  0  0  0  0
   34.9454   24.7933    4.9102 C   0  0  1  0  0  0  0  0  0  0  0  0
   41.8888   28.6342    2.6181 N   0  0  0  0  0  0  0  0  0  0  0  0
   36.3509   24.8238    4.3378 O   0  0  0  0  0  0  0  0  0  0  0  0
   36.8753   26.0913    4.2342 C   0  0  1  0  0  0  0  0  0  0  0  0
   41.8869   24.0164    1.4799 N   0  0  0  0  0  0  0  0  0  0  0  0
   37.4573   26.4623    3.0156 O   0  0  0  0  0  0  0  0  0  0  0  0
   38.1594   27.7730    2.8035 C   0  0  2  0  0  0  0  0  0  0  0  0
   39.8293   26.6774    6.9960 N   0  0  0  0  0  0  0  0  0  0  0  0
   36.2779   28.5440    1.3692 O   0  0  0  0  0  0  0  0  0  0  0  0
   37.7377   28.3323    1.4125 C   0  0  1  0  0  0  0  0  0  0  0  0
   40.0990   27.1031    4.0763 O   0  0  0  0  0  0  0  0  0  0  0  0
   38.4764   29.7343    1.1274 C   0  0  1  0  0  0  0  0  0  0  0  0
   40.4048   24.7577    3.8098 O   0  0  0  0  0  0  0  0  0  0  0  0
   40.0446   29.4734    1.1809 C   0  0  0  0  0  0  0  0  0  0  0  0
   43.8677   24.5671    5.1674 O   0  0  0  0  0  0  0  0  0  0  0  0
   40.4079   28.8757    2.6034 C   0  0  1  0  0  0  0  0  0  0  0  0
   42.4559   25.4376    7.4919 O   0  0  0  0  0  0  0  0  0  0  0  0
   39.7381   27.5581    2.8309 C   0  0  2  0  0  0  0  0  0  0  0  0
   36.3367   28.1571    5.2979 O   0  0  0  0  0  0  0  0  0  0  0  0
   39.7929   25.8202    4.6806 C   0  0  1  0  0  0  0  0  0  0  0  0
   35.5545   26.0749    6.9454 O   0  0  0  0  0  0  0  0  0  0  0  0
   41.9259   24.7554    3.7408 C   0  0  2  0  0  0  0  0  0  0  0  0
   42.3971   23.6493    2.8039 C   0  0  0  0  0  0  0  0  0  0  0  0
   42.4656   24.5564    5.1760 C   0  0  2  0  0  0  0  0  0  0  0  0
   41.9496   25.6445    6.1028 C   0  0  1  0  0  0  0  0  0  0  0  0
   40.4101   25.6122    6.0876 C   0  0  1  0  0  0  0  0  0  0  0  0
   35.7834   27.0286    4.7240 C   0  0  2  0  0  0  0  0  0  0  0  0
   34.8940   26.1362    5.6481 C   0  0  1  0  0  0  0  0  0  0  0  0
  1  3  1  0  0  0  0
  4  1  1  6  0  0  0
  4  6  1  0  0  0  0
  4 31  1  0  0  0  0
  6  7  1  0  0  0  0
  7  9  1  6  0  0  0
  7 30  1  0  0  0  0
  8 26  1  0  0  0  0
 10  9  1  6  0  0  0
 10 13  1  0  0  0  0
 10 21  1  0  0  0  0
 13 12  1  1  0  0  0
 13 15  1  0  0  0  0
 15  2  1  6  0  0  0
 15 17  1  0  0  0  0
 16 25  1  0  0  0  0
 16 23  1  0  0  0  0
 17 19  1  0  0  0  0
 19  5  1  6  0  0  0
 19 21  1  0  0  0  0
 21 14  1  1  0  0  0
 23 14  1  6  0  0  0
 23 29  1  0  0  0  0
 25 26  1  6  0  0  0
 25 27  1  0  0  0  0
 27 18  1  6  0  0  0
 27 28  1  0  0  0  0
 28 20  1  1  0  0  0
 28 29  1  0  0  0  0
 29 11  1  1  0  0  0
 30 22  1  1  0  0  0
 30 31  1  0  0  0  0
 31 24  1  1  0  0  0
M  END
>  <CHROM.1>
-179.28343754,-175.06800044,-137.77224191,60.81986663,68.01609194,64.05434032
38.77453592,26.44154016,3.93102783,3.03471912,0.06112761,-0.83641310

>  <Name>
ligand

>  <RI>
0

>  <Rbt.Current_Directory>
/home/itssahil/PROJECTS/Mol_Feturizer/New_Systems/rnas/2ET5

>  <Rbt.Executable>
rbdock ($Id: //depot/dev/client3/rdock/2013.1/src/exe/rbdock.cxx#4 $)

>  <Rbt.Library>
libRbt.so (2013.1, Build901 2013/11/27)

>  <Rbt.Parameter_File>
/export/apps/rDock/src/rDock_2013.1_src/data/scripts/dock_solv.prm

>  <Rbt.Receptor>
prm/pocket_docking_6.prm

>  <SCORE>
-8.39507

>  <SCORE.INTER>
-5.39472

>  <SCORE.INTER.CONST>
1

>  <SCORE.INTER.POLAR>
0

>  <SCORE.INTER.ROT>
6

>  <SCORE.INTER.SOLV>
11.8313

>  <SCORE.INTER.VDW>
-15.1403

>  <SCORE.INTER.norm>
-0.174023

>  <SCORE.INTRA>
-3.00035

>  <SCORE.INTRA.DIHEDRAL>
-4.85092

>  <SCORE.INTRA.DIHEDRAL.0>
11.2357

>  <SCORE.INTRA.POLAR>
0

>  <SCORE.INTRA.POLAR.0>
0

>  <SCORE.INTRA.REPUL>
0

>  <SCORE.INTRA.REPUL.0>
0

>  <SCORE.INTRA.SOLV>
-3.51847

>  <SCORE.INTRA.SOLV.lig_0>
-83.3092

>  <SCORE.INTRA.VDW>
1.18434

>  <SCORE.INTRA.VDW.0>
-4.47057

>  <SCORE.INTRA.norm>
-0.0967856

>  <SCORE.RESTR>
0

>  <SCORE.RESTR.CAVITY>
0

>  <SCORE.RESTR.norm>
0

>  <SCORE.SYSTEM>
0

>  <SCORE.SYSTEM.CONST>
0

>  <SCORE.SYSTEM.DIHEDRAL>
0

>  <SCORE.SYSTEM.SOLV>
0

>  <SCORE.SYSTEM.norm>
0

>  <SCORE.heavy>
31

>  <SCORE.norm>
-0.270809

>  <RMSD>
5.789

$$$$
ligand
 OpenBabel11021811433D
libRbt.so/2013.1/901 2013/11/27
 31 33  0  0  0  0  0  0  0  0999 V2000
   42.2917   25.6689    7.0791 C   0  0  0  0  0  0  0  0  0  0  0  0
   44.1478   19.8702    0.9540 N   0  0  0  0  0  0  0  0  0  0  0  0
   42.9895   24.4964    6.6342 O   0  0  0  0  0  0  0  0  0  0  0  0
   41.0996   25.7816    6.1324 C   0  0  1  0  0  0  0  0  0  0  0  0
   40.4263   22.5576   -1.2039 N   0  0  0  0  0  0  0  0  0  0  0  0
   41.4508   25.7344    4.6564 O   0  0  0  0  0  0  0  0  0  0  0  0
   41.1074   24.5499    4.0470 C   0  0  1  0  0  0  0  0  0  0  0  0
   39.0199   26.5393   -2.9442 N   0  0  0  0  0  0  0  0  0  0  0  0
   42.0765   23.9107    3.2635 O   0  0  0  0  0  0  0  0  0  0  0  0
   41.7757   22.7354    2.3781 C   0  0  2  0  0  0  0  0  0  0  0  0
   38.1944   25.5106    2.8669 N   0  0  0  0  0  0  0  0  0  0  0  0
   43.6327   21.4650    3.4409 O   0  0  0  0  0  0  0  0  0  0  0  0
   43.0983   21.9447    2.1518 C   0  0  1  0  0  0  0  0  0  0  0  0
   40.0267   23.8985    1.1870 O   0  0  0  0  0  0  0  0  0  0  0  0
   42.8342   20.6782    1.1933 C   0  0  1  0  0  0  0  0  0  0  0  0
   39.7884   25.5158   -0.5430 O   0  0  0  0  0  0  0  0  0  0  0  0
   42.2598   21.2271   -0.1848 C   0  0  0  0  0  0  0  0  0  0  0  0
   36.3314   24.6008   -1.5836 O   0  0  0  0  0  0  0  0  0  0  0  0
   40.9369   22.0484    0.1119 C   0  0  1  0  0  0  0  0  0  0  0  0
   35.8441   25.4767    1.0902 O   0  0  0  0  0  0  0  0  0  0  0  0
   41.2130   23.2383    0.9747 C   0  0  2  0  0  0  0  0  0  0  0  0
   39.5608   22.8258    4.6169 O   0  0  0  0  0  0  0  0  0  0  0  0
   39.7282   25.2972    0.9437 C   0  0  1  0  0  0  0  0  0  0  0  0
   38.7160   25.1978    5.7667 O   0  0  0  0  0  0  0  0  0  0  0  0
   38.7307   24.7873   -1.3610 C   0  0  2  0  0  0  0  0  0  0  0  0
   38.9344   25.0796   -2.8430 C   0  0  0  0  0  0  0  0  0  0  0  0
   37.3428   25.2609   -0.8712 C   0  0  2  0  0  0  0  0  0  0  0  0
   37.1769   24.9996    0.6166 C   0  0  1  0  0  0  0  0  0  0  0  0
   38.3025   25.7310    1.3712 C   0  0  1  0  0  0  0  0  0  0  0  0
   40.5085   23.6830    5.1425 C   0  0  2  0  0  0  0  0  0  0  0  0
   40.0116   24.7046    6.2153 C   0  0  1  0  0  0  0  0  0  0  0  0
  1  3  1  0  0  0  0
  4  1  1  1  0  0  0
  4  6  1  0  0  0  0
  4 31  1  0  0  0  0
  6  7  1  0  0  0  0
  7  9  1  1  0  0  0
  7 30  1  0  0  0  0
  8 26  1  0  0  0  0
 10  9  1  1  0  0  0
 10 13  1  0  0  0  0
 10 21  1  0  0  0  0
 13 12  1  1  0  0  0
 13 15  1  0  0  0  0
 15  2  1  6  0  0  0
 15 17  1  0  0  0  0
 16 25  1  0  0  0  0
 16 23  1  0  0  0  0
 17 19  1  0  0  0  0
 19  5  1  6  0  0  0
 19 21  1  0  0  0  0
 21 14  1  1  0  0  0
 23 14  1  6  0  0  0
 23 29  1  0  0  0  0
 25 26  1  6  0  0  0
 25 27  1  0  0  0  0
 27 18  1  6  0  0  0
 27 28  1  0  0  0  0
 28 20  1  1  0  0  0
 28 29  1  0  0  0  0
 29 11  1  1  0  0  0
 30 22  1  6  0  0  0
 30 31  1  0  0  0  0
 31 24  1  6  0  0  0
M  END
>  <CHROM.1>
-51.81493473,-170.24651635,-156.61678570,66.48002082,116.00582172,-51.10680375
40.29736016,24.04768178,2.01387791,0.89400977,-0.66484211,1.26501927

>  <Name>
ligand

>  <RI>
0

>  <Rbt.Current_Directory>
/home/itssahil/PROJECTS/Mol_Feturizer/New_Systems/rnas/2ET5

>  <Rbt.Executable>
rbdock ($Id: //depot/dev/client3/rdock/2013.1/src/exe/rbdock.cxx#4 $)

>  <Rbt.Library>
libRbt.so (2013.1, Build901 2013/11/27)

>  <Rbt.Parameter_File>
/export/apps/rDock/src/rDock_2013.1_src/data/scripts/dock_solv.prm

>  <Rbt.Receptor>
prm/pocket_docking_3.prm

>  <SCORE>
-3.17737

>  <SCORE.INTER>
-5.22174

>  <SCORE.INTER.CONST>
1

>  <SCORE.INTER.POLAR>
0

>  <SCORE.INTER.ROT>
6

>  <SCORE.INTER.SOLV>
15.8659

>  <SCORE.INTER.VDW>
-16.3698

>  <SCORE.INTER.norm>
-0.168443

>  <SCORE.INTRA>
2.04437

>  <SCORE.INTRA.DIHEDRAL>
-0.447227

>  <SCORE.INTRA.DIHEDRAL.0>
11.2357

>  <SCORE.INTRA.POLAR>
0

>  <SCORE.INTRA.POLAR.0>
0

>  <SCORE.INTRA.REPUL>
0

>  <SCORE.INTRA.REPUL.0>
0

>  <SCORE.INTRA.SOLV>
4.40303

>  <SCORE.INTRA.SOLV.lig_0>
-83.3092

>  <SCORE.INTRA.VDW>
0.0664706

>  <SCORE.INTRA.VDW.0>
-4.47057

>  <SCORE.INTRA.norm>
0.0659474

>  <SCORE.RESTR>
0

>  <SCORE.RESTR.CAVITY>
0

>  <SCORE.RESTR.norm>
0

>  <SCORE.SYSTEM>
0

>  <SCORE.SYSTEM.CONST>
0

>  <SCORE.SYSTEM.DIHEDRAL>
0

>  <SCORE.SYSTEM.SOLV>
0

>  <SCORE.SYSTEM.norm>
0

>  <SCORE.heavy>
31

>  <SCORE.norm>
-0.102496

>  <RMSD>
5.796

$$$$
ligand
 OpenBabel11021811433D
libRbt.so/2013.1/901 2013/11/27
 31 33  0  0  0  0  0  0  0  0999 V2000
   45.4595   21.9069    2.9761 C   0  0  0  0  0  0  0  0  0  0  0  0
   42.9452   19.2814   -0.2349 N   0  0  0  0  0  0  0  0  0  0  0  0
   44.2640   21.2628    3.4405 O   0  0  0  0  0  0  0  0  0  0  0  0
   45.0766   23.3804    2.8650 C   0  0  1  0  0  0  0  0  0  0  0  0
   41.6050   23.6469   -2.4427 N   0  0  0  0  0  0  0  0  0  0  0  0
   43.8434   23.6571    2.0242 O   0  0  0  0  0  0  0  0  0  0  0  0
   42.7385   24.0046    2.7662 C   0  0  1  0  0  0  0  0  0  0  0  0
   39.0167   22.5030    3.5172 N   0  0  0  0  0  0  0  0  0  0  0  0
   41.5341   23.3419    2.4984 O   0  0  0  0  0  0  0  0  0  0  0  0
   41.2738   22.5887    1.2254 C   0  0  2  0  0  0  0  0  0  0  0  0
   39.1666   26.7100   -1.3971 N   0  0  0  0  0  0  0  0  0  0  0  0
   41.9716   20.4752    2.3381 O   0  0  0  0  0  0  0  0  0  0  0  0
   42.2274   21.3580    1.1836 C   0  0  1  0  0  0  0  0  0  0  0  0
   40.6867   24.5833   -0.0026 O   0  0  0  0  0  0  0  0  0  0  0  0
   41.9994   20.5212   -0.1731 C   0  0  1  0  0  0  0  0  0  0  0  0
   38.6546   23.8511    0.9972 O   0  0  0  0  0  0  0  0  0  0  0  0
   42.2820   21.4981   -1.3961 C   0  0  0  0  0  0  0  0  0  0  0  0
   38.2829   26.6447    3.4321 O   0  0  0  0  0  0  0  0  0  0  0  0
   41.3081   22.7436   -1.2819 C   0  0  1  0  0  0  0  0  0  0  0  0
   38.0774   28.0810    0.9726 O   0  0  0  0  0  0  0  0  0  0  0  0
   41.5620   23.5243   -0.0319 C   0  0  2  0  0  0  0  0  0  0  0  0
   42.4778   24.8569    4.9786 O   0  0  0  0  0  0  0  0  0  0  0  0
   39.2484   24.5573   -0.1903 C   0  0  1  0  0  0  0  0  0  0  0  0
   44.9841   25.5636    4.0400 O   0  0  0  0  0  0  0  0  0  0  0  0
   38.8178   24.5583    2.3358 C   0  0  2  0  0  0  0  0  0  0  0  0
   38.1959   23.7149    3.4428 C   0  0  0  0  0  0  0  0  0  0  0  0
   38.1414   25.9443    2.2256 C   0  0  2  0  0  0  0  0  0  0  0  0
   38.7466   26.7517    1.0893 C   0  0  1  0  0  0  0  0  0  0  0  0
   38.5816   25.9566   -0.2191 C   0  0  1  0  0  0  0  0  0  0  0  0
   43.1834   23.9441    4.2184 C   0  0  2  0  0  0  0  0  0  0  0  0
   44.7332   24.1330    4.1558 C   0  0  1  0  0  0  0  0  0  0  0  0
  1  3  1  0  0  0  0
  4  1  1  1  0  0  0
  4  6  1  0  0  0  0
  4 31  1  0  0  0  0
  6  7  1  0  0  0  0
  7  9  1  1  0  0  0
  7 30  1  0  0  0  0
  8 26  1  0  0  0  0
 10  9  1  1  0  0  0
 10 13  1  0  0  0  0
 10 21  1  0  0  0  0
 13 12  1  1  0  0  0
 13 15  1  0  0  0  0
 15  2  1  1  0  0  0
 15 17  1  0  0  0  0
 16 25  1  0  0  0  0
 16 23  1  0  0  0  0
 17 19  1  0  0  0  0
 19  5  1  6  0  0  0
 19 21  1  0  0  0  0
 21 14  1  1  0  0  0
 23 14  1  1  0  0  0
 23 29  1  0  0  0  0
 25 26  1  1  0  0  0
 25 27  1  0  0  0  0
 27 18  1  1  0  0  0
 27 28  1  0  0  0  0
 28 20  1  6  0  0  0
 28 29  1  0  0  0  0
 29 11  1  6  0  0  0
 30 22  1  1  0  0  0
 30 31  1  0  0  0  0
 31 24  1  6  0  0  0
M  END
>  <CHROM.1>
-53.75783517,-18.34614056,66.31497398,68.44290826,-67.59117067,65.99228080
41.33437919,23.74590286,1.63662141,-0.16974216,-0.63350477,0.92499393

>  <Name>
ligand

>  <RI>
0

>  <Rbt.Current_Directory>
/home/itssahil/PROJECTS/Mol_Feturizer/New_Systems/rnas/2ET5

>  <Rbt.Executable>
rbdock ($Id: //depot/dev/client3/rdock/2013.1/src/exe/rbdock.cxx#4 $)

>  <Rbt.Library>
libRbt.so (2013.1, Build901 2013/11/27)

>  <Rbt.Parameter_File>
/export/apps/rDock/src/rDock_2013.1_src/data/scripts/dock_solv.prm

>  <Rbt.Receptor>
prm/pocket_docking_4.prm

>  <SCORE>
-6.03048

>  <SCORE.INTER>
-4.61267

>  <SCORE.INTER.CONST>
1

>  <SCORE.INTER.POLAR>
0

>  <SCORE.INTER.ROT>
6

>  <SCORE.INTER.SOLV>
18.5258

>  <SCORE.INTER.VDW>
-16.8504

>  <SCORE.INTER.norm>
-0.148796

>  <SCORE.INTRA>
-1.41781

>  <SCORE.INTRA.DIHEDRAL>
-4.4871

>  <SCORE.INTRA.DIHEDRAL.0>
11.2357

>  <SCORE.INTRA.POLAR>
0

>  <SCORE.INTRA.POLAR.0>
0

>  <SCORE.INTRA.REPUL>
0

>  <SCORE.INTRA.REPUL.0>
0

>  <SCORE.INTRA.SOLV>
1.29087

>  <SCORE.INTRA.SOLV.lig_0>
-83.3092

>  <SCORE.INTRA.VDW>
0.180303

>  <SCORE.INTRA.VDW.0>
-4.47057

>  <SCORE.INTRA.norm>
-0.045736

>  <SCORE.RESTR>
0

>  <SCORE.RESTR.CAVITY>
0

>  <SCORE.RESTR.norm>
0

>  <SCORE.SYSTEM>
0

>  <SCORE.SYSTEM.CONST>
0

>  <SCORE.SYSTEM.DIHEDRAL>
0

>  <SCORE.SYSTEM.SOLV>
0

>  <SCORE.SYSTEM.norm>
0

>  <SCORE.heavy>
31

>  <SCORE.norm>
-0.194532

>  <RMSD>
5.801

$$$$
ligand
 OpenBabel11021811433D
libRbt.so/2013.1/901 2013/11/27
 31 33  0  0  0  0  0  0  0  0999 V2000
   35.3837   27.5336    5.9589 C   0  0  0  0  0  0  0  0  0  0  0  0
   37.3833   25.5395   -2.2215 N   0  0  0  0  0  0  0  0  0  0  0  0
   35.7433   28.8606    5.5475 O   0  0  0  0  0  0  0  0  0  0  0  0
   34.6478   26.9507    4.7552 C   0  0  1  0  0  0  0  0  0  0  0  0
   41.5742   25.8811    0.6154 N   0  0  0  0  0  0  0  0  0  0  0  0
   35.4763   26.8539    3.4870 O   0  0  0  0  0  0  0  0  0  0  0  0
   35.8513   25.5686    3.1717 C   0  0  1  0  0  0  0  0  0  0  0  0
   40.8370   29.1959    5.9455 N   0  0  0  0  0  0  0  0  0  0  0  0
   37.1977   25.3350    2.8651 O   0  0  0  0  0  0  0  0  0  0  0  0
   37.9011   25.9765    1.7034 C   0  0  2  0  0  0  0  0  0  0  0  0
   40.9766   23.3604    3.2057 N   0  0  0  0  0  0  0  0  0  0  0  0
   35.8334   25.7585    0.3364 O   0  0  0  0  0  0  0  0  0  0  0  0
   37.2707   25.4284    0.3889 C   0  0  1  0  0  0  0  0  0  0  0  0
   40.0025   26.1397    2.8818 O   0  0  0  0  0  0  0  0  0  0  0  0
   38.0011   26.0748   -0.8921 C   0  0  1  0  0  0  0  0  0  0  0  0
   41.5409   26.8253    4.5636 O   0  0  0  0  0  0  0  0  0  0  0  0
   39.5452   25.7022   -0.8066 C   0  0  0  0  0  0  0  0  0  0  0  0
   39.7201   25.4085    7.4873 O   0  0  0  0  0  0  0  0  0  0  0  0
   40.1220   26.2551    0.5624 C   0  0  1  0  0  0  0  0  0  0  0  0
   40.3367   23.0129    6.0608 O   0  0  0  0  0  0  0  0  0  0  0  0
   39.4528   25.6152    1.7368 C   0  0  2  0  0  0  0  0  0  0  0  0
   34.9989   23.4328    3.8052 O   0  0  0  0  0  0  0  0  0  0  0  0
   41.2669   25.7943    3.5036 C   0  0  1  0  0  0  0  0  0  0  0  0
   32.9620   25.2976    3.9928 O   0  0  0  0  0  0  0  0  0  0  0  0
   40.5697   26.8413    5.7362 C   0  0  2  0  0  0  0  0  0  0  0  0
   40.9549   27.9501    6.7086 C   0  0  0  0  0  0  0  0  0  0  0  0
   40.6160   25.4501    6.4094 C   0  0  2  0  0  0  0  0  0  0  0  0
   40.2710   24.3561    5.4127 C   0  0  1  0  0  0  0  0  0  0  0  0
   41.2662   24.4299    4.2399 C   0  0  1  0  0  0  0  0  0  0  0  0
   35.2960   24.6943    4.2843 C   0  0  2  0  0  0  0  0  0  0  0  0
   34.1055   25.5211    4.8677 C   0  0  1  0  0  0  0  0  0  0  0  0
  1  3  1  0  0  0  0
  4  1  1  1  0  0  0
  4  6  1  0  0  0  0
  4 31  1  0  0  0  0
  6  7  1  0  0  0  0
  7  9  1  1  0  0  0
  7 30  1  0  0  0  0
  8 26  1  0  0  0  0
 10  9  1  1  0  0  0
 10 13  1  0  0  0  0
 10 21  1  0  0  0  0
 13 12  1  1  0  0  0
 13 15  1  0  0  0  0
 15  2  1  6  0  0  0
 15 17  1  0  0  0  0
 16 25  1  0  0  0  0
 16 23  1  0  0  0  0
 17 19  1  0  0  0  0
 19  5  1  1  0  0  0
 19 21  1  0  0  0  0
 21 14  1  1  0  0  0
 23 14  1  1  0  0  0
 23 29  1  0  0  0  0
 25 26  1  1  0  0  0
 25 27  1  0  0  0  0
 27 18  1  1  0  0  0
 27 28  1  0  0  0  0
 28 20  1  1  0  0  0
 28 29  1  0  0  0  0
 29 11  1  6  0  0  0
 30 22  1  6  0  0  0
 30 31  1  0  0  0  0
 31 24  1  6  0  0  0
M  END
>  <CHROM.1>
61.36078734,-61.65900355,-66.45053856,168.91474972,163.05722874,61.67603640
38.25127573,25.83990303,3.46479691,2.68311497,0.02959610,-1.70057710

>  <Name>
ligand

>  <RI>
0

>  <Rbt.Current_Directory>
/home/itssahil/PROJECTS/Mol_Feturizer/New_Systems/rnas/2ET5

>  <Rbt.Executable>
rbdock ($Id: //depot/dev/client3/rdock/2013.1/src/exe/rbdock.cxx#4 $)

>  <Rbt.Library>
libRbt.so (2013.1, Build901 2013/11/27)

>  <Rbt.Parameter_File>
/export/apps/rDock/src/rDock_2013.1_src/data/scripts/dock_solv.prm

>  <Rbt.Receptor>
prm/pocket_docking_5.prm

>  <SCORE>
-5.73824

>  <SCORE.INTER>
-2.25772

>  <SCORE.INTER.CONST>
1

>  <SCORE.INTER.POLAR>
0

>  <SCORE.INTER.ROT>
6

>  <SCORE.INTER.SOLV>
11.418

>  <SCORE.INTER.VDW>
-12.9111

>  <SCORE.INTER.norm>
-0.0728298

>  <SCORE.INTRA>
-3.48052

>  <SCORE.INTRA.DIHEDRAL>
-8.95396

>  <SCORE.INTRA.DIHEDRAL.0>
11.2357

>  <SCORE.INTRA.POLAR>
0

>  <SCORE.INTRA.POLAR.0>
0

>  <SCORE.INTRA.REPUL>
0

>  <SCORE.INTRA.REPUL.0>
0

>  <SCORE.INTRA.SOLV>
-1.57969

>  <SCORE.INTRA.SOLV.lig_0>
-83.3092

>  <SCORE.INTRA.VDW>
1.7863

>  <SCORE.INTRA.VDW.0>
-4.47057

>  <SCORE.INTRA.norm>
-0.112275

>  <SCORE.RESTR>
0

>  <SCORE.RESTR.CAVITY>
0

>  <SCORE.RESTR.norm>
0

>  <SCORE.SYSTEM>
0

>  <SCORE.SYSTEM.CONST>
0

>  <SCORE.SYSTEM.DIHEDRAL>
0

>  <SCORE.SYSTEM.SOLV>
0

>  <SCORE.SYSTEM.norm>
0

>  <SCORE.heavy>
31

>  <SCORE.norm>
-0.185105

>  <RMSD>
5.801

$$$$
ligand
 OpenBabel11021811433D
libRbt.so/2013.1/901 2013/11/27
 31 33  0  0  0  0  0  0  0  0999 V2000
   34.9000   29.1255    3.9556 C   0  0  0  0  0  0  0  0  0  0  0  0
   40.4918   29.4260   -2.0671 N   0  0  0  0  0  0  0  0  0  0  0  0
   35.8003   28.1859    4.5608 O   0  0  0  0  0  0  0  0  0  0  0  0
   34.8865   28.7392    2.4789 C   0  0  1  0  0  0  0  0  0  0  0  0
   43.0208   27.8951    2.0546 N   0  0  0  0  0  0  0  0  0  0  0  0
   36.2394   28.7941    1.7929 O   0  0  0  0  0  0  0  0  0  0  0  0
   36.7760   27.5541    1.5350 C   0  0  1  0  0  0  0  0  0  0  0  0
   41.5199   23.3513    2.3393 N   0  0  0  0  0  0  0  0  0  0  0  0
   38.1050   27.3235    1.9119 O   0  0  0  0  0  0  0  0  0  0  0  0
   39.2409   28.2238    1.5181 C   0  0  2  0  0  0  0  0  0  0  0  0
   39.7965   28.2942    6.1291 N   0  0  0  0  0  0  0  0  0  0  0  0
   37.9791   28.9217   -0.5098 O   0  0  0  0  0  0  0  0  0  0  0  0
   39.2513   28.3445   -0.0346 C   0  0  1  0  0  0  0  0  0  0  0  0
   40.6155   27.5424    3.3828 O   0  0  0  0  0  0  0  0  0  0  0  0
   40.4636   29.2902   -0.5126 C   0  0  1  0  0  0  0  0  0  0  0  0
   40.0838   25.2794    3.8939 O   0  0  0  0  0  0  0  0  0  0  0  0
   41.8177   28.6426    0.0139 C   0  0  0  0  0  0  0  0  0  0  0  0
   43.0098   24.5822    6.0900 O   0  0  0  0  0  0  0  0  0  0  0  0
   41.7352   28.5150    1.5918 C   0  0  1  0  0  0  0  0  0  0  0  0
   41.6945   26.6034    7.6194 O   0  0  0  0  0  0  0  0  0  0  0  0
   40.6245   27.6051    2.0101 C   0  0  2  0  0  0  0  0  0  0  0  0
   35.8133   25.3786    1.3614 O   0  0  0  0  0  0  0  0  0  0  0  0
   39.7819   26.7132    4.2326 C   0  0  1  0  0  0  0  0  0  0  0  0
   33.8759   27.2621    0.7606 O   0  0  0  0  0  0  0  0  0  0  0  0
   41.4935   24.8061    4.2215 C   0  0  2  0  0  0  0  0  0  0  0  0
   41.6594   23.3512    3.7983 C   0  0  0  0  0  0  0  0  0  0  0  0
   41.7136   24.9874    5.7411 C   0  0  2  0  0  0  0  0  0  0  0  0
   41.5014   26.4359    6.1486 C   0  0  1  0  0  0  0  0  0  0  0  0
   40.0742   26.8536    5.7486 C   0  0  1  0  0  0  0  0  0  0  0  0
   35.7785   26.5512    2.0915 C   0  0  2  0  0  0  0  0  0  0  0  0
   34.4216   27.3256    2.1101 C   0  0  1  0  0  0  0  0  0  0  0  0
  1  3  1  0  0  0  0
  4  1  1  1  0  0  0
  4  6  1  0  0  0  0
  4 31  1  0  0  0  0
  6  7  1  0  0  0  0
  7  9  1  1  0  0  0
  7 30  1  0  0  0  0
  8 26  1  0  0  0  0
 10  9  1  6  0  0  0
 10 13  1  0  0  0  0
 10 21  1  0  0  0  0
 13 12  1  1  0  0  0
 13 15  1  0  0  0  0
 15  2  1  6  0  0  0
 15 17  1  0  0  0  0
 16 25  1  0  0  0  0
 16 23  1  0  0  0  0
 17 19  1  0  0  0  0
 19  5  1  6  0  0  0
 19 21  1  0  0  0  0
 21 14  1  1  0  0  0
 23 14  1  6  0  0  0
 23 29  1  0  0  0  0
 25 26  1  1  0  0  0
 25 27  1  0  0  0  0
 27 18  1  6  0  0  0
 27 28  1  0  0  0  0
 28 20  1  1  0  0  0
 28 29  1  0  0  0  0
 29 11  1  6  0  0  0
 30 22  1  6  0  0  0
 30 31  1  0  0  0  0
 31 24  1  6  0  0  0
M  END
>  <CHROM.1>
-59.28627337,-52.20404583,-55.80574824,60.92413581,66.88728207,64.39870952
39.12974472,27.14656965,2.78719565,2.49892486,0.12241164,-1.14907430

>  <Name>
ligand

>  <RI>
0

>  <Rbt.Current_Directory>
/home/itssahil/PROJECTS/Mol_Feturizer/New_Systems/rnas/2ET5

>  <Rbt.Executable>
rbdock ($Id: //depot/dev/client3/rdock/2013.1/src/exe/rbdock.cxx#4 $)

>  <Rbt.Library>
libRbt.so (2013.1, Build901 2013/11/27)

>  <Rbt.Parameter_File>
/export/apps/rDock/src/rDock_2013.1_src/data/scripts/dock_solv.prm

>  <Rbt.Receptor>
prm/pocket_docking_6.prm

>  <SCORE>
-9.21623

>  <SCORE.INTER>
-4.03832

>  <SCORE.INTER.CONST>
1

>  <SCORE.INTER.POLAR>
0

>  <SCORE.INTER.ROT>
6

>  <SCORE.INTER.SOLV>
7.59552

>  <SCORE.INTER.VDW>
-12.8241

>  <SCORE.INTER.norm>
-0.130268

>  <SCORE.INTRA>
-5.17791

>  <SCORE.INTRA.DIHEDRAL>
-10.4112

>  <SCORE.INTRA.DIHEDRAL.0>
11.2357

>  <SCORE.INTRA.POLAR>
0

>  <SCORE.INTRA.POLAR.0>
0

>  <SCORE.INTRA.REPUL>
0

>  <SCORE.INTRA.REPUL.0>
0

>  <SCORE.INTRA.SOLV>
-3.59486

>  <SCORE.INTRA.SOLV.lig_0>
-83.3092

>  <SCORE.INTRA.VDW>
1.82511

>  <SCORE.INTRA.VDW.0>
-4.47057

>  <SCORE.INTRA.norm>
-0.167029

>  <SCORE.RESTR>
0

>  <SCORE.RESTR.CAVITY>
0

>  <SCORE.RESTR.norm>
0

>  <SCORE.SYSTEM>
0

>  <SCORE.SYSTEM.CONST>
0

>  <SCORE.SYSTEM.DIHEDRAL>
0

>  <SCORE.SYSTEM.SOLV>
0

>  <SCORE.SYSTEM.norm>
0

>  <SCORE.heavy>
31

>  <SCORE.norm>
-0.297298

>  <RMSD>
5.806

$$$$
ligand
 OpenBabel11021811433D
libRbt.so/2013.1/901 2013/11/27
 31 33  0  0  0  0  0  0  0  0999 V2000
   43.7259   18.0972    1.8651 C   0  0  0  0  0  0  0  0  0  0  0  0
   41.1274   22.8213   -2.6820 N   0  0  0  0  0  0  0  0  0  0  0  0
   43.0801   17.7677    0.6265 O   0  0  0  0  0  0  0  0  0  0  0  0
   44.6374   19.2708    1.5160 C   0  0  1  0  0  0  0  0  0  0  0  0
   43.1920   26.5894    0.0139 N   0  0  0  0  0  0  0  0  0  0  0  0
   43.9193   20.5037    0.9978 O   0  0  0  0  0  0  0  0  0  0  0  0
   43.8734   21.5359    1.9058 C   0  0  1  0  0  0  0  0  0  0  0  0
   39.1625   22.0852    4.0759 N   0  0  0  0  0  0  0  0  0  0  0  0
   42.6368   22.1513    2.1370 O   0  0  0  0  0  0  0  0  0  0  0  0
   42.0167   23.1361    1.1876 C   0  0  2  0  0  0  0  0  0  0  0  0
   43.6049   26.8785    4.5467 N   0  0  0  0  0  0  0  0  0  0  0  0
   41.0507   21.2560   -0.1252 O   0  0  0  0  0  0  0  0  0  0  0  0
   41.9009   22.4591   -0.2101 C   0  0  1  0  0  0  0  0  0  0  0  0
   42.9919   25.0427    2.3034 O   0  0  0  0  0  0  0  0  0  0  0  0
   41.2537   23.4807   -1.2732 C   0  0  1  0  0  0  0  0  0  0  0  0
   40.6785   25.2596    2.8195 O   0  0  0  0  0  0  0  0  0  0  0  0
   42.1910   24.7641   -1.3416 C   0  0  0  0  0  0  0  0  0  0  0  0
   40.6781   23.1793    5.9087 O   0  0  0  0  0  0  0  0  0  0  0  0
   42.2972   25.3888    0.1114 C   0  0  1  0  0  0  0  0  0  0  0  0
   42.3972   25.3074    6.7272 O   0  0  0  0  0  0  0  0  0  0  0  0
   42.9324   24.4351    1.0723 C   0  0  2  0  0  0  0  0  0  0  0  0
   45.1719   22.0484    3.8400 O   0  0  0  0  0  0  0  0  0  0  0  0
   42.0194   25.9350    2.9057 C   0  0  1  0  0  0  0  0  0  0  0  0
   46.7007   20.5084    2.1216 O   0  0  0  0  0  0  0  0  0  0  0  0
   40.5291   23.9817    3.6339 C   0  0  2  0  0  0  0  0  0  0  0  0
   39.1363   23.3984    3.4256 C   0  0  0  0  0  0  0  0  0  0  0  0
   40.7852   24.3322    5.1178 C   0  0  2  0  0  0  0  0  0  0  0  0
   42.1613   24.9514    5.2968 C   0  0  1  0  0  0  0  0  0  0  0  0
   42.2512   26.2098    4.4138 C   0  0  1  0  0  0  0  0  0  0  0  0
   44.5627   21.0138    3.1560 C   0  0  2  0  0  0  0  0  0  0  0  0
   45.4946   19.8728    2.6355 C   0  0  1  0  0  0  0  0  0  0  0  0
  1  3  1  0  0  0  0
  4  1  1  1  0  0  0
  4  6  1  0  0  0  0
  4 31  1  0  0  0  0
  6  7  1  0  0  0  0
  7  9  1  1  0  0  0
  7 30  1  0  0  0  0
  8 26  1  0  0  0  0
 10  9  1  1  0  0  0
 10 13  1  0  0  0  0
 10 21  1  0  0  0  0
 13 12  1  1  0  0  0
 13 15  1  0  0  0  0
 15  2  1  6  0  0  0
 15 17  1  0  0  0  0
 16 25  1  0  0  0  0
 16 23  1  0  0  0  0
 17 19  1  0  0  0  0
 19  5  1  6  0  0  0
 19 21  1  0  0  0  0
 21 14  1  1  0  0  0
 23 14  1  1  0  0  0
 23 29  1  0  0  0  0
 25 26  1  1  0  0  0
 25 27  1  0  0  0  0
 27 18  1  1  0  0  0
 27 28  1  0  0  0  0
 28 20  1  1  0  0  0
 28 29  1  0  0  0  0
 29 11  1  6  0  0  0
 30 22  1  6  0  0  0
 30 31  1  0  0  0  0
 31 24  1  6  0  0  0
M  END
>  <CHROM.1>
61.08304284,-76.84653606,55.91162101,51.21421754,-81.45206294,171.63410440
42.53652650,22.98037224,2.23946127,-0.74178839,-1.08812264,1.29286811

>  <Name>
ligand

>  <RI>
0

>  <Rbt.Current_Directory>
/home/itssahil/PROJECTS/Mol_Feturizer/New_Systems/rnas/2ET5

>  <Rbt.Executable>
rbdock ($Id: //depot/dev/client3/rdock/2013.1/src/exe/rbdock.cxx#4 $)

>  <Rbt.Library>
libRbt.so (2013.1, Build901 2013/11/27)

>  <Rbt.Parameter_File>
/export/apps/rDock/src/rDock_2013.1_src/data/scripts/dock_solv.prm

>  <Rbt.Receptor>
prm/pocket_docking_4.prm

>  <SCORE>
-9.16822

>  <SCORE.INTER>
-6.53798

>  <SCORE.INTER.CONST>
1

>  <SCORE.INTER.POLAR>
0

>  <SCORE.INTER.ROT>
6

>  <SCORE.INTER.SOLV>
20.9219

>  <SCORE.INTER.VDW>
-18.9326

>  <SCORE.INTER.norm>
-0.210902

>  <SCORE.INTRA>
-2.63025

>  <SCORE.INTRA.DIHEDRAL>
-7.07487

>  <SCORE.INTRA.DIHEDRAL.0>
11.2357

>  <SCORE.INTRA.POLAR>
0

>  <SCORE.INTRA.POLAR.0>
0

>  <SCORE.INTRA.REPUL>
0

>  <SCORE.INTRA.REPUL.0>
0

>  <SCORE.INTRA.SOLV>
-1.76141

>  <SCORE.INTRA.SOLV.lig_0>
-83.3092

>  <SCORE.INTRA.VDW>
1.78789

>  <SCORE.INTRA.VDW.0>
-4.47057

>  <SCORE.INTRA.norm>
-0.0848467

>  <SCORE.RESTR>
0

>  <SCORE.RESTR.CAVITY>
0

>  <SCORE.RESTR.norm>
0

>  <SCORE.SYSTEM>
0

>  <SCORE.SYSTEM.CONST>
0

>  <SCORE.SYSTEM.DIHEDRAL>
0

>  <SCORE.SYSTEM.SOLV>
0

>  <SCORE.SYSTEM.norm>
0

>  <SCORE.heavy>
31

>  <SCORE.norm>
-0.295749

>  <RMSD>
5.809

$$$$
ligand
 OpenBabel11021811433D
libRbt.so/2013.1/901 2013/11/27
 31 33  0  0  0  0  0  0  0  0999 V2000
   45.0050   21.0302    2.2087 C   0  0  0  0  0  0  0  0  0  0  0  0
   41.2931   22.2540   -3.0275 N   0  0  0  0  0  0  0  0  0  0  0  0
   43.8158   20.4552    2.7697 O   0  0  0  0  0  0  0  0  0  0  0  0
   44.7356   22.5326    2.2094 C   0  0  1  0  0  0  0  0  0  0  0  0
   39.1515   26.2852   -0.8158 N   0  0  0  0  0  0  0  0  0  0  0  0
   43.4877   22.9570    1.4566 O   0  0  0  0  0  0  0  0  0  0  0  0
   42.4526   23.3385    2.2784 C   0  0  1  0  0  0  0  0  0  0  0  0
   35.9362   24.9542    4.4139 N   0  0  0  0  0  0  0  0  0  0  0  0
   41.1874   22.7885    2.0374 O   0  0  0  0  0  0  0  0  0  0  0  0
   40.4088   23.0346    0.7768 C   0  0  2  0  0  0  0  0  0  0  0  0
   41.4295   27.1382    1.8615 N   0  0  0  0  0  0  0  0  0  0  0  0
   41.5086   21.0691   -0.2810 O   0  0  0  0  0  0  0  0  0  0  0  0
   41.2512   22.5149   -0.4256 C   0  0  1  0  0  0  0  0  0  0  0  0
   39.3599   25.0291    1.6444 O   0  0  0  0  0  0  0  0  0  0  0  0
   40.4662   22.7690   -1.8082 C   0  0  1  0  0  0  0  0  0  0  0  0
   37.9308   26.3563    3.0087 O   0  0  0  0  0  0  0  0  0  0  0  0
   40.2042   24.3329   -1.9343 C   0  0  0  0  0  0  0  0  0  0  0  0
   39.6828   25.7791    6.2442 O   0  0  0  0  0  0  0  0  0  0  0  0
   39.3742   24.8085   -0.6704 C   0  0  1  0  0  0  0  0  0  0  0  0
   41.7287   27.1437    4.7927 O   0  0  0  0  0  0  0  0  0  0  0  0
   40.1372   24.5945    0.5979 C   0  0  2  0  0  0  0  0  0  0  0  0
   42.3722   24.0616    4.5500 O   0  0  0  0  0  0  0  0  0  0  0  0
   39.0811   26.3965    2.0409 C   0  0  1  0  0  0  0  0  0  0  0  0
   44.8764   24.6350    3.5194 O   0  0  0  0  0  0  0  0  0  0  0  0
   38.2069   25.6595    4.3341 C   0  0  2  0  0  0  0  0  0  0  0  0
   36.9484   25.6718    5.1941 C   0  0  0  0  0  0  0  0  0  0  0  0
   39.3769   26.3983    5.0238 C   0  0  2  0  0  0  0  0  0  0  0  0
   40.6075   26.4118    4.1324 C   0  0  1  0  0  0  0  0  0  0  0  0
   40.2404   27.0915    2.8002 C   0  0  1  0  0  0  0  0  0  0  0  0
   42.9638   23.1493    3.6973 C   0  0  2  0  0  0  0  0  0  0  0  0
   44.5186   23.2232    3.5609 C   0  0  1  0  0  0  0  0  0  0  0  0
  1  3  1  0  0  0  0
  4  1  1  1  0  0  0
  4  6  1  0  0  0  0
  4 31  1  0  0  0  0
  6  7  1  0  0  0  0
  7  9  1  6  0  0  0
  7 30  1  0  0  0  0
  8 26  1  0  0  0  0
 10  9  1  1  0  0  0
 10 13  1  0  0  0  0
 10 21  1  0  0  0  0
 13 12  1  1  0  0  0
 13 15  1  0  0  0  0
 15  2  1  6  0  0  0
 15 17  1  0  0  0  0
 16 25  1  0  0  0  0
 16 23  1  0  0  0  0
 17 19  1  0  0  0  0
 19  5  1  6  0  0  0
 19 21  1  0  0  0  0
 21 14  1  1  0  0  0
 23 14  1  1  0  0  0
 23 29  1  0  0  0  0
 25 26  1  1  0  0  0
 25 27  1  0  0  0  0
 27 18  1  1  0  0  0
 27 28  1  0  0  0  0
 28 20  1  1  0  0  0
 28 29  1  0  0  0  0
 29 11  1  6  0  0  0
 30 22  1  1  0  0  0
 30 31  1  0  0  0  0
 31 24  1  6  0  0  0
M  END
>  <CHROM.1>
-56.95153263,-64.11402536,60.05512923,166.26413902,166.94749876,59.95552771
40.98718736,24.30165117,2.17613534,-0.74468404,-0.52344317,1.18830889

>  <Name>
ligand

>  <RI>
0

>  <Rbt.Current_Directory>
/home/itssahil/PROJECTS/Mol_Feturizer/New_Systems/rnas/2ET5

>  <Rbt.Executable>
rbdock ($Id: //depot/dev/client3/rdock/2013.1/src/exe/rbdock.cxx#4 $)

>  <Rbt.Library>
libRbt.so (2013.1, Build901 2013/11/27)

>  <Rbt.Parameter_File>
/export/apps/rDock/src/rDock_2013.1_src/data/scripts/dock_solv.prm

>  <Rbt.Receptor>
prm/pocket_docking_5.prm

>  <SCORE>
-6.31352

>  <SCORE.INTER>
-2.46757

>  <SCORE.INTER.CONST>
1

>  <SCORE.INTER.POLAR>
0

>  <SCORE.INTER.ROT>
6

>  <SCORE.INTER.SOLV>
13.5036

>  <SCORE.INTER.VDW>
-13.7462

>  <SCORE.INTER.norm>
-0.0795991

>  <SCORE.INTRA>
-3.84594

>  <SCORE.INTRA.DIHEDRAL>
-9.28906

>  <SCORE.INTRA.DIHEDRAL.0>
11.2357

>  <SCORE.INTRA.POLAR>
0

>  <SCORE.INTRA.POLAR.0>
0

>  <SCORE.INTRA.REPUL>
0

>  <SCORE.INTRA.REPUL.0>
0

>  <SCORE.INTRA.SOLV>
0.656659

>  <SCORE.INTRA.SOLV.lig_0>
-83.3092

>  <SCORE.INTRA.VDW>
0.470256

>  <SCORE.INTRA.VDW.0>
-4.47057

>  <SCORE.INTRA.norm>
-0.124063

>  <SCORE.RESTR>
0

>  <SCORE.RESTR.CAVITY>
0

>  <SCORE.RESTR.norm>
0

>  <SCORE.SYSTEM>
0

>  <SCORE.SYSTEM.CONST>
0

>  <SCORE.SYSTEM.DIHEDRAL>
0

>  <SCORE.SYSTEM.SOLV>
0

>  <SCORE.SYSTEM.norm>
0

>  <SCORE.heavy>
31

>  <SCORE.norm>
-0.203662

>  <RMSD>
5.817

$$$$
ligand
 OpenBabel11021811433D
libRbt.so/2013.1/901 2013/11/27
 31 33  0  0  0  0  0  0  0  0999 V2000
   43.3366   19.4232    2.1318 C   0  0  0  0  0  0  0  0  0  0  0  0
   39.9639   23.8955   -1.8982 N   0  0  0  0  0  0  0  0  0  0  0  0
   44.3381   18.4223    2.3656 O   0  0  0  0  0  0  0  0  0  0  0  0
   44.1281   20.6601    1.7149 C   0  0  1  0  0  0  0  0  0  0  0  0
   41.8413   27.8768    0.6225 N   0  0  0  0  0  0  0  0  0  0  0  0
   43.2812   21.8648    1.3466 O   0  0  0  0  0  0  0  0  0  0  0  0
   43.3006   22.8613    2.2945 C   0  0  1  0  0  0  0  0  0  0  0  0
   39.9724   22.8061    4.5038 N   0  0  0  0  0  0  0  0  0  0  0  0
   42.0741   23.3939    2.7111 O   0  0  0  0  0  0  0  0  0  0  0  0
   41.2358   24.2992    1.8546 C   0  0  2  0  0  0  0  0  0  0  0  0
   42.1813   28.8054    4.4797 N   0  0  0  0  0  0  0  0  0  0  0  0
   40.3661   22.3204    0.6218 O   0  0  0  0  0  0  0  0  0  0  0  0
   41.0479   23.6198    0.4658 C   0  0  1  0  0  0  0  0  0  0  0  0
   42.0895   26.3062    2.8909 O   0  0  0  0  0  0  0  0  0  0  0  0
   40.1657   24.5587   -0.4999 C   0  0  1  0  0  0  0  0  0  0  0  0
   40.3919   25.4964    4.3496 O   0  0  0  0  0  0  0  0  0  0  0  0
   40.9255   25.9484   -0.6477 C   0  0  0  0  0  0  0  0  0  0  0  0
   42.5746   24.7950    7.2847 O   0  0  0  0  0  0  0  0  0  0  0  0
   41.1166   26.5744    0.7960 C   0  0  1  0  0  0  0  0  0  0  0  0
   42.8774   27.6277    7.0894 O   0  0  0  0  0  0  0  0  0  0  0  0
   41.9672   25.7018    1.6629 C   0  0  2  0  0  0  0  0  0  0  0  0
   44.8154   23.3848    4.0611 O   0  0  0  0  0  0  0  0  0  0  0  0
   41.0293   26.7353    3.7835 C   0  0  1  0  0  0  0  0  0  0  0  0
   46.1832   21.9972    2.0950 O   0  0  0  0  0  0  0  0  0  0  0  0
   41.2811   24.6479    5.2485 C   0  0  2  0  0  0  0  0  0  0  0  0
   40.5127   23.4190    5.7206 C   0  0  0  0  0  0  0  0  0  0  0  0
   41.7340   25.5289    6.4356 C   0  0  2  0  0  0  0  0  0  0  0  0
   42.4597   26.7693    5.9417 C   0  0  1  0  0  0  0  0  0  0  0  0
   41.5158   27.5508    5.0091 C   0  0  1  0  0  0  0  0  0  0  0  0
   44.1778   22.3394    3.4209 C   0  0  2  0  0  0  0  0  0  0  0  0
   45.0928   21.2740    2.7361 C   0  0  1  0  0  0  0  0  0  0  0  0
  1  3  1  0  0  0  0
  4  1  1  1  0  0  0
  4  6  1  0  0  0  0
  4 31  1  0  0  0  0
  6  7  1  0  0  0  0
  7  9  1  1  0  0  0
  7 30  1  0  0  0  0
  8 26  1  0  0  0  0
 10  9  1  1  0  0  0
 10 13  1  0  0  0  0
 10 21  1  0  0  0  0
 13 12  1  1  0  0  0
 13 15  1  0  0  0  0
 15  2  1  6  0  0  0
 15 17  1  0  0  0  0
 16 25  1  0  0  0  0
 16 23  1  0  0  0  0
 17 19  1  0  0  0  0
 19  5  1  6  0  0  0
 19 21  1  0  0  0  0
 21 14  1  1  0  0  0
 23 14  1  6  0  0  0
 23 29  1  0  0  0  0
 25 26  1  1  0  0  0
 25 27  1  0  0  0  0
 27 18  1  1  0  0  0
 27 28  1  0  0  0  0
 28 20  1  1  0  0  0
 28 29  1  0  0  0  0
 29 11  1  6  0  0  0
 30 22  1  6  0  0  0
 30 31  1  0  0  0  0
 31 24  1  6  0  0  0
M  END
>  <CHROM.1>
177.44078554,-72.60304020,51.25781240,70.87125982,-62.39329572,51.71953410
42.22571005,24.18360137,2.94769359,-1.05411533,-1.03176294,0.97288808

>  <Name>
ligand

>  <RI>
0

>  <Rbt.Current_Directory>
/home/itssahil/PROJECTS/Mol_Feturizer/New_Systems/rnas/2ET5

>  <Rbt.Executable>
rbdock ($Id: //depot/dev/client3/rdock/2013.1/src/exe/rbdock.cxx#4 $)

>  <Rbt.Library>
libRbt.so (2013.1, Build901 2013/11/27)

>  <Rbt.Parameter_File>
/export/apps/rDock/src/rDock_2013.1_src/data/scripts/dock_solv.prm

>  <Rbt.Receptor>
prm/pocket_docking_6.prm

>  <SCORE>
-11.389

>  <SCORE.INTER>
-7.64168

>  <SCORE.INTER.CONST>
1

>  <SCORE.INTER.POLAR>
0

>  <SCORE.INTER.ROT>
6

>  <SCORE.INTER.SOLV>
15.397

>  <SCORE.INTER.VDW>
-17.8268

>  <SCORE.INTER.norm>
-0.246506

>  <SCORE.INTRA>
-3.74734

>  <SCORE.INTRA.DIHEDRAL>
-9.12967

>  <SCORE.INTRA.DIHEDRAL.0>
11.2357

>  <SCORE.INTRA.POLAR>
0

>  <SCORE.INTRA.POLAR.0>
0

>  <SCORE.INTRA.REPUL>
0

>  <SCORE.INTRA.REPUL.0>
0

>  <SCORE.INTRA.SOLV>
0.079792

>  <SCORE.INTRA.SOLV.lig_0>
-83.3092

>  <SCORE.INTRA.VDW>
0.777599

>  <SCORE.INTRA.VDW.0>
-4.47057

>  <SCORE.INTRA.norm>
-0.120882

>  <SCORE.RESTR>
0

>  <SCORE.RESTR.CAVITY>
0

>  <SCORE.RESTR.norm>
0

>  <SCORE.SYSTEM>
0

>  <SCORE.SYSTEM.CONST>
0

>  <SCORE.SYSTEM.DIHEDRAL>
0

>  <SCORE.SYSTEM.SOLV>
0

>  <SCORE.SYSTEM.norm>
0

>  <SCORE.heavy>
31

>  <SCORE.norm>
-0.367388

>  <RMSD>
5.843

$$$$
ligand
 OpenBabel11021811433D
libRbt.so/2013.1/901 2013/11/27
 31 33  0  0  0  0  0  0  0  0999 V2000
   33.9014   24.5458    4.1703 C   0  0  0  0  0  0  0  0  0  0  0  0
   39.4159   23.7138   -2.3327 N   0  0  0  0  0  0  0  0  0  0  0  0
   34.7737   23.5900    3.5497 O   0  0  0  0  0  0  0  0  0  0  0  0
   34.4022   25.8973    3.6675 C   0  0  1  0  0  0  0  0  0  0  0  0
   42.4460   25.2868    1.4187 N   0  0  0  0  0  0  0  0  0  0  0  0
   35.9120   26.0534    3.6549 O   0  0  0  0  0  0  0  0  0  0  0  0
   36.4587   26.0124    2.3933 C   0  0  1  0  0  0  0  0  0  0  0  0
   39.1787   29.3359    5.6927 N   0  0  0  0  0  0  0  0  0  0  0  0
   37.5554   25.1678    2.1811 O   0  0  0  0  0  0  0  0  0  0  0  0
   38.6258   25.4472    1.1651 C   0  0  2  0  0  0  0  0  0  0  0  0
   41.8356   23.8112    3.6820 N   0  0  0  0  0  0  0  0  0  0  0  0
   37.1181   24.6352   -0.6403 O   0  0  0  0  0  0  0  0  0  0  0  0
   38.4445   24.4528   -0.0198 C   0  0  1  0  0  0  0  0  0  0  0  0
   40.2252   26.1486    2.8327 O   0  0  0  0  0  0  0  0  0  0  0  0
   39.5799   24.7000   -1.1344 C   0  0  1  0  0  0  0  0  0  0  0  0
   40.9349   27.2920    4.7959 O   0  0  0  0  0  0  0  0  0  0  0  0
   40.9945   24.4967   -0.4360 C   0  0  0  0  0  0  0  0  0  0  0  0
   38.8436   25.4059    7.2331 O   0  0  0  0  0  0  0  0  0  0  0  0
   41.1073   25.5092    0.7783 C   0  0  1  0  0  0  0  0  0  0  0  0
   40.5248   23.3072    6.2722 O   0  0  0  0  0  0  0  0  0  0  0  0
   40.0651   25.2381    1.8160 C   0  0  2  0  0  0  0  0  0  0  0  0
   35.5411   26.3651    0.2200 O   0  0  0  0  0  0  0  0  0  0  0  0
   41.2971   26.2177    3.8079 C   0  0  1  0  0  0  0  0  0  0  0  0
   34.0182   27.7543    2.0675 O   0  0  0  0  0  0  0  0  0  0  0  0
   39.7049   27.0162    5.6501 C   0  0  2  0  0  0  0  0  0  0  0  0
   39.4465   28.1982    6.5772 C   0  0  0  0  0  0  0  0  0  0  0  0
   39.9605   25.7138    6.4433 C   0  0  2  0  0  0  0  0  0  0  0  0
   40.2583   24.5582    5.5025 C   0  0  1  0  0  0  0  0  0  0  0  0
   41.4837   24.9267    4.6458 C   0  0  1  0  0  0  0  0  0  0  0  0
   35.2914   25.7816    1.4473 C   0  0  2  0  0  0  0  0  0  0  0  0
   34.0474   26.3070    2.2334 C   0  0  1  0  0  0  0  0  0  0  0  0
  1  3  1  0  0  0  0
  4  1  1  6  0  0  0
  4  6  1  0  0  0  0
  4 31  1  0  0  0  0
  6  7  1  0  0  0  0
  7  9  1  1  0  0  0
  7 30  1  0  0  0  0
  8 26  1  0  0  0  0
 10  9  1  1  0  0  0
 10 13  1  0  0  0  0
 10 21  1  0  0  0  0
 13 12  1  6  0  0  0
 13 15  1  0  0  0  0
 15  2  1  6  0  0  0
 15 17  1  0  0  0  0
 16 25  1  0  0  0  0
 16 23  1  0  0  0  0
 17 19  1  0  0  0  0
 19  5  1  1  0  0  0
 19 21  1  0  0  0  0
 21 14  1  1  0  0  0
 23 14  1  6  0  0  0
 23 29  1  0  0  0  0
 25 26  1  1  0  0  0
 25 27  1  0  0  0  0
 27 18  1  6  0  0  0
 27 28  1  0  0  0  0
 28 20  1  1  0  0  0
 28 29  1  0  0  0  0
 29 11  1  6  0  0  0
 30 22  1  6  0  0  0
 30 31  1  0  0  0  0
 31 24  1  1  0  0  0
M  END
>  <CHROM.1>
-42.91999419,-150.21843265,-107.40627906,-173.72788544,171.42689902,62.33293299
38.44942484,25.57743195,2.90138567,2.50979816,0.11699763,-1.80981362

>  <Name>
ligand

>  <RI>
0

>  <Rbt.Current_Directory>
/home/itssahil/PROJECTS/Mol_Feturizer/New_Systems/rnas/2ET5

>  <Rbt.Executable>
rbdock ($Id: //depot/dev/client3/rdock/2013.1/src/exe/rbdock.cxx#4 $)

>  <Rbt.Library>
libRbt.so (2013.1, Build901 2013/11/27)

>  <Rbt.Parameter_File>
/export/apps/rDock/src/rDock_2013.1_src/data/scripts/dock_solv.prm

>  <Rbt.Receptor>
prm/pocket_docking_5.prm

>  <SCORE>
-0.366854

>  <SCORE.INTER>
-3.15862

>  <SCORE.INTER.CONST>
1

>  <SCORE.INTER.POLAR>
0

>  <SCORE.INTER.ROT>
6

>  <SCORE.INTER.SOLV>
10.7975

>  <SCORE.INTER.VDW>
-13.3049

>  <SCORE.INTER.norm>
-0.101891

>  <SCORE.INTRA>
2.79177

>  <SCORE.INTRA.DIHEDRAL>
0.374616

>  <SCORE.INTRA.DIHEDRAL.0>
11.2357

>  <SCORE.INTRA.POLAR>
0

>  <SCORE.INTRA.POLAR.0>
0

>  <SCORE.INTRA.REPUL>
0

>  <SCORE.INTRA.REPUL.0>
0

>  <SCORE.INTRA.SOLV>
1.4658

>  <SCORE.INTRA.SOLV.lig_0>
-83.3092

>  <SCORE.INTRA.VDW>
1.87156

>  <SCORE.INTRA.VDW.0>
-4.47057

>  <SCORE.INTRA.norm>
0.090057

>  <SCORE.RESTR>
0

>  <SCORE.RESTR.CAVITY>
0

>  <SCORE.RESTR.norm>
0

>  <SCORE.SYSTEM>
0

>  <SCORE.SYSTEM.CONST>
0

>  <SCORE.SYSTEM.DIHEDRAL>
0

>  <SCORE.SYSTEM.SOLV>
0

>  <SCORE.SYSTEM.norm>
0

>  <SCORE.heavy>
31

>  <SCORE.norm>
-0.011834

>  <RMSD>
5.853

$$$$
ligand
 OpenBabel11021811433D
libRbt.so/2013.1/901 2013/11/27
 31 33  0  0  0  0  0  0  0  0999 V2000
   34.9706   28.6756    4.3767 C   0  0  0  0  0  0  0  0  0  0  0  0
   40.4460   29.4729   -2.0732 N   0  0  0  0  0  0  0  0  0  0  0  0
   35.3703   30.0315    4.6245 O   0  0  0  0  0  0  0  0  0  0  0  0
   34.8864   28.5780    2.8557 C   0  0  1  0  0  0  0  0  0  0  0  0
   42.9814   27.9070    2.0314 N   0  0  0  0  0  0  0  0  0  0  0  0
   36.2062   28.7688    2.1305 O   0  0  0  0  0  0  0  0  0  0  0  0
   36.7247   27.6033    1.6160 C   0  0  1  0  0  0  0  0  0  0  0  0
   41.5139   23.3334    2.3411 N   0  0  0  0  0  0  0  0  0  0  0  0
   38.0687   27.3111    1.8796 O   0  0  0  0  0  0  0  0  0  0  0  0
   39.2000   28.2220    1.4970 C   0  0  2  0  0  0  0  0  0  0  0  0
   39.7158   28.2880    6.0846 N   0  0  0  0  0  0  0  0  0  0  0  0
   37.9354   28.9370   -0.5232 O   0  0  0  0  0  0  0  0  0  0  0  0
   39.2104   28.3610   -0.0542 C   0  0  1  0  0  0  0  0  0  0  0  0
   40.5775   27.5260    3.3542 O   0  0  0  0  0  0  0  0  0  0  0  0
   40.4179   29.3187   -0.5205 C   0  0  1  0  0  0  0  0  0  0  0  0
   40.0410   25.2644    3.8665 O   0  0  0  0  0  0  0  0  0  0  0  0
   41.7752   28.6722   -0.0009 C   0  0  0  0  0  0  0  0  0  0  0  0
   42.9342   24.5803    6.1097 O   0  0  0  0  0  0  0  0  0  0  0  0
   41.6927   28.5255    1.5753 C   0  0  1  0  0  0  0  0  0  0  0  0
   41.5931   26.6060    7.6105 O   0  0  0  0  0  0  0  0  0  0  0  0
   40.5867   27.6049    1.9824 C   0  0  2  0  0  0  0  0  0  0  0  0
   35.7454   25.4965    1.0758 O   0  0  0  0  0  0  0  0  0  0  0  0
   39.7321   26.6992    4.1946 C   0  0  1  0  0  0  0  0  0  0  0  0
   33.7903   27.4510    0.9363 O   0  0  0  0  0  0  0  0  0  0  0  0
   41.4462   24.7944    4.2174 C   0  0  2  0  0  0  0  0  0  0  0  0
   41.6204   23.3380    3.8029 C   0  0  0  0  0  0  0  0  0  0  0  0
   41.6429   24.9823    5.7395 C   0  0  2  0  0  0  0  0  0  0  0  0
   41.4226   26.4321    6.1377 C   0  0  1  0  0  0  0  0  0  0  0  0
   40.0011   26.8462    5.7143 C   0  0  1  0  0  0  0  0  0  0  0  0
   35.7498   26.5081    2.0170 C   0  0  2  0  0  0  0  0  0  0  0  0
   34.3986   27.2585    2.2462 C   0  0  1  0  0  0  0  0  0  0  0  0
  1  3  1  0  0  0  0
  4  1  1  1  0  0  0
  4  6  1  0  0  0  0
  4 31  1  0  0  0  0
  6  7  1  0  0  0  0
  7  9  1  1  0  0  0
  7 30  1  0  0  0  0
  8 26  1  0  0  0  0
 10  9  1  6  0  0  0
 10 13  1  0  0  0  0
 10 21  1  0  0  0  0
 13 12  1  1  0  0  0
 13 15  1  0  0  0  0
 15  2  1  6  0  0  0
 15 17  1  0  0  0  0
 16 25  1  0  0  0  0
 16 23  1  0  0  0  0
 17 19  1  0  0  0  0
 19  5  1  6  0  0  0
 19 21  1  0  0  0  0
 21 14  1  1  0  0  0
 23 14  1  6  0  0  0
 23 29  1  0  0  0  0
 25 26  1  1  0  0  0
 25 27  1  0  0  0  0
 27 18  1  6  0  0  0
 27 28  1  0  0  0  0
 28 20  1  1  0  0  0
 28 29  1  0  0  0  0
 29 11  1  6  0  0  0
 30 22  1  6  0  0  0
 30 31  1  0  0  0  0
 31 24  1  6  0  0  0
M  END
>  <CHROM.1>
64.20660709,-58.01782758,-62.12847474,62.51056338,65.73444657,64.84250206
39.07060380,27.20391118,2.81526699,2.53251588,0.18802635,-1.18450867

>  <Name>
ligand

>  <RI>
0

>  <Rbt.Current_Directory>
/home/itssahil/PROJECTS/Mol_Feturizer/New_Systems/rnas/2ET5

>  <Rbt.Executable>
rbdock ($Id: //depot/dev/client3/rdock/2013.1/src/exe/rbdock.cxx#4 $)

>  <Rbt.Library>
libRbt.so (2013.1, Build901 2013/11/27)

>  <Rbt.Parameter_File>
/export/apps/rDock/src/rDock_2013.1_src/data/scripts/dock_solv.prm

>  <Rbt.Receptor>
prm/pocket_docking_6.prm

>  <SCORE>
-9.18983

>  <SCORE.INTER>
-3.35085

>  <SCORE.INTER.CONST>
1

>  <SCORE.INTER.POLAR>
0

>  <SCORE.INTER.ROT>
6

>  <SCORE.INTER.SOLV>
8.28306

>  <SCORE.INTER.VDW>
-12.5949

>  <SCORE.INTER.norm>
-0.108092

>  <SCORE.INTRA>
-5.83898

>  <SCORE.INTRA.DIHEDRAL>
-10.7108

>  <SCORE.INTRA.DIHEDRAL.0>
11.2357

>  <SCORE.INTRA.POLAR>
0

>  <SCORE.INTRA.POLAR.0>
0

>  <SCORE.INTRA.REPUL>
0

>  <SCORE.INTRA.REPUL.0>
0

>  <SCORE.INTRA.SOLV>
-4.40816

>  <SCORE.INTRA.SOLV.lig_0>
-83.3092

>  <SCORE.INTRA.VDW>
1.72048

>  <SCORE.INTRA.VDW.0>
-4.47057

>  <SCORE.INTRA.norm>
-0.188354

>  <SCORE.RESTR>
0

>  <SCORE.RESTR.CAVITY>
0

>  <SCORE.RESTR.norm>
0

>  <SCORE.SYSTEM>
0

>  <SCORE.SYSTEM.CONST>
0

>  <SCORE.SYSTEM.DIHEDRAL>
0

>  <SCORE.SYSTEM.SOLV>
0

>  <SCORE.SYSTEM.norm>
0

>  <SCORE.heavy>
31

>  <SCORE.norm>
-0.296446

>  <RMSD>
5.853

$$$$
ligand
 OpenBabel11021811433D
libRbt.so/2013.1/901 2013/11/27
 31 33  0  0  0  0  0  0  0  0999 V2000
   44.3343   19.5952    2.3582 C   0  0  0  0  0  0  0  0  0  0  0  0
   41.3563   21.8487   -3.1042 N   0  0  0  0  0  0  0  0  0  0  0  0
   45.5141   19.2053    3.0761 O   0  0  0  0  0  0  0  0  0  0  0  0
   44.5561   21.0713    2.0390 C   0  0  1  0  0  0  0  0  0  0  0  0
   39.1649   25.8765   -0.9357 N   0  0  0  0  0  0  0  0  0  0  0  0
   43.4325   21.7312    1.2604 O   0  0  0  0  0  0  0  0  0  0  0  0
   42.6675   22.5875    2.0178 C   0  0  1  0  0  0  0  0  0  0  0  0
   35.5928   25.0179    3.7336 N   0  0  0  0  0  0  0  0  0  0  0  0
   41.2749   22.4538    1.9532 O   0  0  0  0  0  0  0  0  0  0  0  0
   40.4843   22.6694    0.6945 C   0  0  2  0  0  0  0  0  0  0  0  0
   41.8778   25.9690    2.5252 N   0  0  0  0  0  0  0  0  0  0  0  0
   41.6085   20.7068   -0.3427 O   0  0  0  0  0  0  0  0  0  0  0  0
   41.3272   22.1461   -0.5061 C   0  0  1  0  0  0  0  0  0  0  0  0
   39.4093   24.6592    1.5407 O   0  0  0  0  0  0  0  0  0  0  0  0
   40.5292   22.3678   -1.8869 C   0  0  1  0  0  0  0  0  0  0  0  0
   38.1393   26.1049    2.9415 O   0  0  0  0  0  0  0  0  0  0  0  0
   40.2414   23.9254   -2.0334 C   0  0  0  0  0  0  0  0  0  0  0  0
   38.9677   24.4784    6.1879 O   0  0  0  0  0  0  0  0  0  0  0  0
   39.4121   24.4057   -0.7708 C   0  0  1  0  0  0  0  0  0  0  0  0
   41.5577   25.3826    5.3950 O   0  0  0  0  0  0  0  0  0  0  0  0
   40.1867   24.2221    0.4952 C   0  0  2  0  0  0  0  0  0  0  0  0
   43.0683   23.7242    4.0762 O   0  0  0  0  0  0  0  0  0  0  0  0
   39.4319   25.9578    2.1871 C   0  0  1  0  0  0  0  0  0  0  0  0
   45.4971   23.2197    2.8481 O   0  0  0  0  0  0  0  0  0  0  0  0
   37.9396   25.1415    4.1036 C   0  0  2  0  0  0  0  0  0  0  0  0
   36.5815   25.3891    4.7499 C   0  0  0  0  0  0  0  0  0  0  0  0
   39.0969   25.3601    5.1053 C   0  0  2  0  0  0  0  0  0  0  0  0
   40.4422   25.1506    4.4304 C   0  0  1  0  0  0  0  0  0  0  0  0
   40.5530   26.1267    3.2445 C   0  0  1  0  0  0  0  0  0  0  0  0
   43.2440   22.5195    3.4227 C   0  0  2  0  0  0  0  0  0  0  0  0
   44.7176   22.0440    3.2129 C   0  0  1  0  0  0  0  0  0  0  0  0
  1  3  1  0  0  0  0
  4  1  1  1  0  0  0
  4  6  1  0  0  0  0
  4 31  1  0  0  0  0
  6  7  1  0  0  0  0
  7  9  1  1  0  0  0
  7 30  1  0  0  0  0
  8 26  1  0  0  0  0
 10  9  1  1  0  0  0
 10 13  1  0  0  0  0
 10 21  1  0  0  0  0
 13 12  1  1  0  0  0
 13 15  1  0  0  0  0
 15  2  1  6  0  0  0
 15 17  1  0  0  0  0
 16 25  1  0  0  0  0
 16 23  1  0  0  0  0
 17 19  1  0  0  0  0
 19  5  1  6  0  0  0
 19 21  1  0  0  0  0
 21 14  1  1  0  0  0
 23 14  1  1  0  0  0
 23 29  1  0  0  0  0
 25 26  1  1  0  0  0
 25 27  1  0  0  0  0
 27 18  1  1  0  0  0
 27 28  1  0  0  0  0
 28 20  1  1  0  0  0
 28 29  1  0  0  0  0
 29 11  1  6  0  0  0
 30 22  1  6  0  0  0
 30 31  1  0  0  0  0
 31 24  1  6  0  0  0
M  END
>  <CHROM.1>
179.63329782,-62.94668780,36.05683967,161.98509173,145.62221858,65.91327752
41.07530838,23.55998780,2.10509252,-0.46024594,-0.57177948,1.30063835

>  <Name>
ligand

>  <RI>
0

>  <Rbt.Current_Directory>
/home/itssahil/PROJECTS/Mol_Feturizer/New_Systems/rnas/2ET5

>  <Rbt.Executable>
rbdock ($Id: //depot/dev/client3/rdock/2013.1/src/exe/rbdock.cxx#4 $)

>  <Rbt.Library>
libRbt.so (2013.1, Build901 2013/11/27)

>  <Rbt.Parameter_File>
/export/apps/rDock/src/rDock_2013.1_src/data/scripts/dock_solv.prm

>  <Rbt.Receptor>
prm/pocket_docking_2.prm

>  <SCORE>
2.12879

>  <SCORE.INTER>
-0.591311

>  <SCORE.INTER.CONST>
1

>  <SCORE.INTER.POLAR>
0

>  <SCORE.INTER.ROT>
6

>  <SCORE.INTER.SOLV>
16.574

>  <SCORE.INTER.VDW>
-13.5189

>  <SCORE.INTER.norm>
-0.0190745

>  <SCORE.INTRA>
0.434056

>  <SCORE.INTRA.DIHEDRAL>
-2.57419

>  <SCORE.INTRA.DIHEDRAL.0>
11.2357

>  <SCORE.INTRA.POLAR>
0

>  <SCORE.INTRA.POLAR.0>
0

>  <SCORE.INTRA.REPUL>
0

>  <SCORE.INTRA.REPUL.0>
0

>  <SCORE.INTRA.SOLV>
0.665951

>  <SCORE.INTRA.SOLV.lig_0>
-83.3092

>  <SCORE.INTRA.VDW>
1.38817

>  <SCORE.INTRA.VDW.0>
-4.47057

>  <SCORE.INTRA.norm>
0.0140018

>  <SCORE.RESTR>
2.28605

>  <SCORE.RESTR.CAVITY>
2.28605

>  <SCORE.RESTR.norm>
0.0737435

>  <SCORE.SYSTEM>
0

>  <SCORE.SYSTEM.CONST>
0

>  <SCORE.SYSTEM.DIHEDRAL>
0

>  <SCORE.SYSTEM.SOLV>
0

>  <SCORE.SYSTEM.norm>
0

>  <SCORE.heavy>
31

>  <SCORE.norm>
0.0686708

>  <RMSD>
5.855

$$$$
ligand
 OpenBabel11021811433D
libRbt.so/2013.1/901 2013/11/27
 31 33  0  0  0  0  0  0  0  0999 V2000
   45.4512   19.8564    2.5265 C   0  0  0  0  0  0  0  0  0  0  0  0
   41.5968   23.5118   -3.0575 N   0  0  0  0  0  0  0  0  0  0  0  0
   45.1816   20.9768    1.6711 O   0  0  0  0  0  0  0  0  0  0  0  0
   44.1397   19.0757    2.5521 C   0  0  1  0  0  0  0  0  0  0  0  0
   37.9219   24.4267    0.3169 N   0  0  0  0  0  0  0  0  0  0  0  0
   42.9135   19.9003    2.8994 O   0  0  0  0  0  0  0  0  0  0  0  0
   42.0946   20.1486    1.8224 C   0  0  1  0  0  0  0  0  0  0  0  0
   43.4306   24.5638    3.0357 N   0  0  0  0  0  0  0  0  0  0  0  0
   41.6756   21.4676    1.6078 O   0  0  0  0  0  0  0  0  0  0  0  0
   40.7730   21.8714    0.4772 C   0  0  2  0  0  0  0  0  0  0  0  0
   36.8505   24.2605    2.9818 N   0  0  0  0  0  0  0  0  0  0  0  0
   42.6144   21.4424   -1.1405 O   0  0  0  0  0  0  0  0  0  0  0  0
   41.6548   22.4576   -0.6649 C   0  0  1  0  0  0  0  0  0  0  0  0
   38.9444   22.4361    1.9497 O   0  0  0  0  0  0  0  0  0  0  0  0
   40.7321   22.9218   -1.9001 C   0  0  1  0  0  0  0  0  0  0  0  0
   40.2317   22.8855    3.9006 O   0  0  0  0  0  0  0  0  0  0  0  0
   39.7109   24.0134   -1.3562 C   0  0  0  0  0  0  0  0  0  0  0  0
   41.3009   26.3342    2.9873 O   0  0  0  0  0  0  0  0  0  0  0  0
   38.8672   23.3716   -0.1778 C   0  0  1  0  0  0  0  0  0  0  0  0
   38.4766   26.7098    3.1791 O   0  0  0  0  0  0  0  0  0  0  0  0
   39.7409   22.9804    0.9712 C   0  0  2  0  0  0  0  0  0  0  0  0
   41.8408   19.0838   -0.2969 O   0  0  0  0  0  0  0  0  0  0  0  0
   38.8374   22.8388    3.3394 C   0  0  1  0  0  0  0  0  0  0  0  0
   42.8317   17.2403    1.5147 O   0  0  0  0  0  0  0  0  0  0  0  0
   41.1496   23.9427    3.3020 C   0  0  2  0  0  0  0  0  0  0  0  0
   42.5286   23.8509    3.9448 C   0  0  0  0  0  0  0  0  0  0  0  0
   40.4995   25.3252    3.5404 C   0  0  2  0  0  0  0  0  0  0  0  0
   39.1093   25.3809    2.9293 C   0  0  1  0  0  0  0  0  0  0  0  0
   38.2554   24.2601    3.5506 C   0  0  1  0  0  0  0  0  0  0  0  0
   42.7778   19.5008    0.6291 C   0  0  2  0  0  0  0  0  0  0  0  0
   43.6841   18.3936    1.2569 C   0  0  1  0  0  0  0  0  0  0  0  0
  1  3  1  0  0  0  0
  4  1  1  6  0  0  0
  4  6  1  0  0  0  0
  4 31  1  0  0  0  0
  6  7  1  0  0  0  0
  7  9  1  6  0  0  0
  7 30  1  0  0  0  0
  8 26  1  0  0  0  0
 10  9  1  1  0  0  0
 10 13  1  0  0  0  0
 10 21  1  0  0  0  0
 13 12  1  6  0  0  0
 13 15  1  0  0  0  0
 15  2  1  6  0  0  0
 15 17  1  0  0  0  0
 16 25  1  0  0  0  0
 16 23  1  0  0  0  0
 17 19  1  0  0  0  0
 19  5  1  1  0  0  0
 19 21  1  0  0  0  0
 21 14  1  1  0  0  0
 23 14  1  6  0  0  0
 23 29  1  0  0  0  0
 25 26  1  1  0  0  0
 25 27  1  0  0  0  0
 27 18  1  6  0  0  0
 27 28  1  0  0  0  0
 28 20  1  1  0  0  0
 28 29  1  0  0  0  0
 29 11  1  6  0  0  0
 30 22  1  6  0  0  0
 30 31  1  0  0  0  0
 31 24  1  1  0  0  0
M  END
>  <CHROM.1>
-51.80893779,-179.48843173,-99.11685719,-51.65309635,117.14790507,161.95018713
41.18441929,22.41030716,1.57042621,-0.46251190,-0.80138854,1.17472900

>  <Name>
ligand

>  <RI>
0

>  <Rbt.Current_Directory>
/home/itssahil/PROJECTS/Mol_Feturizer/New_Systems/rnas/2ET5

>  <Rbt.Executable>
rbdock ($Id: //depot/dev/client3/rdock/2013.1/src/exe/rbdock.cxx#4 $)

>  <Rbt.Library>
libRbt.so (2013.1, Build901 2013/11/27)

>  <Rbt.Parameter_File>
/export/apps/rDock/src/rDock_2013.1_src/data/scripts/dock_solv.prm

>  <Rbt.Receptor>
prm/pocket_docking_2.prm

>  <SCORE>
0.305965

>  <SCORE.INTER>
-4.88684

>  <SCORE.INTER.CONST>
1

>  <SCORE.INTER.POLAR>
0

>  <SCORE.INTER.ROT>
6

>  <SCORE.INTER.SOLV>
18.7017

>  <SCORE.INTER.VDW>
-17.0918

>  <SCORE.INTER.norm>
-0.15764

>  <SCORE.INTRA>
4.3559

>  <SCORE.INTRA.DIHEDRAL>
2.96176

>  <SCORE.INTRA.DIHEDRAL.0>
11.2357

>  <SCORE.INTRA.POLAR>
0

>  <SCORE.INTRA.POLAR.0>
0

>  <SCORE.INTRA.REPUL>
0

>  <SCORE.INTRA.REPUL.0>
0

>  <SCORE.INTRA.SOLV>
3.93907

>  <SCORE.INTRA.SOLV.lig_0>
-83.3092

>  <SCORE.INTRA.VDW>
0.905487

>  <SCORE.INTRA.VDW.0>
-4.47057

>  <SCORE.INTRA.norm>
0.140513

>  <SCORE.RESTR>
0.836901

>  <SCORE.RESTR.CAVITY>
0.836901

>  <SCORE.RESTR.norm>
0.0269968

>  <SCORE.SYSTEM>
0

>  <SCORE.SYSTEM.CONST>
0

>  <SCORE.SYSTEM.DIHEDRAL>
0

>  <SCORE.SYSTEM.SOLV>
0

>  <SCORE.SYSTEM.norm>
0

>  <SCORE.heavy>
31

>  <SCORE.norm>
0.00986984

>  <RMSD>
5.857

$$$$
ligand
 OpenBabel11021811433D
libRbt.so/2013.1/901 2013/11/27
 31 33  0  0  0  0  0  0  0  0999 V2000
   43.2357   18.3312   -0.9249 C   0  0  0  0  0  0  0  0  0  0  0  0
   41.9293   24.5083   -4.0808 N   0  0  0  0  0  0  0  0  0  0  0  0
   44.0798   17.2698   -0.4554 O   0  0  0  0  0  0  0  0  0  0  0  0
   43.6495   19.5409   -0.0909 C   0  0  1  0  0  0  0  0  0  0  0  0
   41.0484   26.5275    0.4881 N   0  0  0  0  0  0  0  0  0  0  0  0
   42.9651   20.8414   -0.4706 O   0  0  0  0  0  0  0  0  0  0  0  0
   42.0133   21.2471    0.4358 C   0  0  1  0  0  0  0  0  0  0  0  0
   43.3615   24.4467    5.2734 N   0  0  0  0  0  0  0  0  0  0  0  0
   40.7546   21.6152   -0.0558 O   0  0  0  0  0  0  0  0  0  0  0  0
   40.4834   22.9350   -0.7196 C   0  0  2  0  0  0  0  0  0  0  0  0
   37.9333   23.1654    3.1632 N   0  0  0  0  0  0  0  0  0  0  0  0
   40.9568   21.9119   -2.9378 O   0  0  0  0  0  0  0  0  0  0  0  0
   41.3315   23.0080   -2.0237 C   0  0  1  0  0  0  0  0  0  0  0  0
   40.1148   24.0754    1.3767 O   0  0  0  0  0  0  0  0  0  0  0  0
   41.0888   24.4144   -2.7692 C   0  0  1  0  0  0  0  0  0  0  0  0
   41.6609   23.6876    3.1443 O   0  0  0  0  0  0  0  0  0  0  0  0
   41.5008   25.5731   -1.7602 C   0  0  0  0  0  0  0  0  0  0  0  0
   40.7334   26.6190    5.2461 O   0  0  0  0  0  0  0  0  0  0  0  0
   40.6308   25.4277   -0.4432 C   0  0  1  0  0  0  0  0  0  0  0  0
   38.2866   25.1483    5.3139 O   0  0  0  0  0  0  0  0  0  0  0  0
   40.8988   24.1297    0.2496 C   0  0  2  0  0  0  0  0  0  0  0  0
   41.6315   20.7140    2.7291 O   0  0  0  0  0  0  0  0  0  0  0  0
   40.3284   23.2857    2.5748 C   0  0  1  0  0  0  0  0  0  0  0  0
   44.3149   20.3411    2.1613 O   0  0  0  0  0  0  0  0  0  0  0  0
   41.7578   25.1204    3.6505 C   0  0  2  0  0  0  0  0  0  0  0  0
   43.1660   25.3894    4.1683 C   0  0  0  0  0  0  0  0  0  0  0  0
   40.6967   25.3042    4.7601 C   0  0  2  0  0  0  0  0  0  0  0  0
   39.3059   24.9897    4.2348 C   0  0  1  0  0  0  0  0  0  0  0  0
   39.2977   23.5443    3.7037 C   0  0  1  0  0  0  0  0  0  0  0  0
   41.9823   20.1703    1.5082 C   0  0  2  0  0  0  0  0  0  0  0  0
   43.3888   19.4958    1.4192 C   0  0  1  0  0  0  0  0  0  0  0  0
  1  3  1  0  0  0  0
  4  1  1  6  0  0  0
  4  6  1  0  0  0  0
  4 31  1  0  0  0  0
  6  7  1  0  0  0  0
  7  9  1  6  0  0  0
  7 30  1  0  0  0  0
  8 26  1  0  0  0  0
 10  9  1  1  0  0  0
 10 13  1  0  0  0  0
 10 21  1  0  0  0  0
 13 12  1  6  0  0  0
 13 15  1  0  0  0  0
 15  2  1  6  0  0  0
 15 17  1  0  0  0  0
 16 25  1  0  0  0  0
 16 23  1  0  0  0  0
 17 19  1  0  0  0  0
 19  5  1  1  0  0  0
 19 21  1  0  0  0  0
 21 14  1  1  0  0  0
 23 14  1  6  0  0  0
 23 29  1  0  0  0  0
 25 26  1  1  0  0  0
 25 27  1  0  0  0  0
 27 18  1  6  0  0  0
 27 28  1  0  0  0  0
 28 20  1  1  0  0  0
 28 29  1  0  0  0  0
 29 11  1  6  0  0  0
 30 22  1  1  0  0  0
 30 31  1  0  0  0  0
 31 24  1  1  0  0  0
M  END
>  <CHROM.1>
175.62928683,-77.19305505,63.46917659,58.92572232,85.04020823,-61.29069010
41.44896873,22.95639866,1.27201819,-0.74079753,-1.12653291,1.58384968

>  <Name>
ligand

>  <RI>
0

>  <Rbt.Current_Directory>
/home/itssahil/PROJECTS/Mol_Feturizer/New_Systems/rnas/2ET5

>  <Rbt.Executable>
rbdock ($Id: //depot/dev/client3/rdock/2013.1/src/exe/rbdock.cxx#4 $)

>  <Rbt.Library>
libRbt.so (2013.1, Build901 2013/11/27)

>  <Rbt.Parameter_File>
/export/apps/rDock/src/rDock_2013.1_src/data/scripts/dock_solv.prm

>  <Rbt.Receptor>
prm/pocket_docking_3.prm

>  <SCORE>
-4.45426

>  <SCORE.INTER>
-1.1376

>  <SCORE.INTER.CONST>
1

>  <SCORE.INTER.POLAR>
0

>  <SCORE.INTER.ROT>
6

>  <SCORE.INTER.SOLV>
17.7777

>  <SCORE.INTER.VDW>
-14.2843

>  <SCORE.INTER.norm>
-0.0366968

>  <SCORE.INTRA>
-3.31666

>  <SCORE.INTRA.DIHEDRAL>
-6.96108

>  <SCORE.INTRA.DIHEDRAL.0>
11.2357

>  <SCORE.INTRA.POLAR>
0

>  <SCORE.INTRA.POLAR.0>
0

>  <SCORE.INTRA.REPUL>
0.00577407

>  <SCORE.INTRA.REPUL.0>
0

>  <SCORE.INTRA.SOLV>
-1.03034

>  <SCORE.INTRA.SOLV.lig_0>
-83.3092

>  <SCORE.INTRA.VDW>
0.65018

>  <SCORE.INTRA.VDW.0>
-4.47057

>  <SCORE.INTRA.norm>
-0.106989

>  <SCORE.RESTR>
0

>  <SCORE.RESTR.CAVITY>
0

>  <SCORE.RESTR.norm>
0

>  <SCORE.SYSTEM>
0

>  <SCORE.SYSTEM.CONST>
0

>  <SCORE.SYSTEM.DIHEDRAL>
0

>  <SCORE.SYSTEM.SOLV>
0

>  <SCORE.SYSTEM.norm>
0

>  <SCORE.heavy>
31

>  <SCORE.norm>
-0.143686

>  <RMSD>
5.860

$$$$
ligand
 OpenBabel11021811433D
libRbt.so/2013.1/901 2013/11/27
 31 33  0  0  0  0  0  0  0  0999 V2000
   44.3514   19.9247    2.3131 C   0  0  0  0  0  0  0  0  0  0  0  0
   40.9676   22.2134   -3.1184 N   0  0  0  0  0  0  0  0  0  0  0  0
   45.5617   19.5826    3.0043 O   0  0  0  0  0  0  0  0  0  0  0  0
   44.5040   21.4099    1.9953 C   0  0  1  0  0  0  0  0  0  0  0  0
   39.1448   26.2931   -0.7180 N   0  0  0  0  0  0  0  0  0  0  0  0
   43.3429   22.0213    1.2323 O   0  0  0  0  0  0  0  0  0  0  0  0
   42.5504   22.8414    2.0014 C   0  0  1  0  0  0  0  0  0  0  0  0
   41.2713   24.1545    6.4165 N   0  0  0  0  0  0  0  0  0  0  0  0
   41.1643   22.6466    1.9534 O   0  0  0  0  0  0  0  0  0  0  0  0
   40.3307   22.9549    0.7427 C   0  0  2  0  0  0  0  0  0  0  0  0
   36.7117   26.0920    2.1070 N   0  0  0  0  0  0  0  0  0  0  0  0
   41.2760   20.9628   -0.4103 O   0  0  0  0  0  0  0  0  0  0  0  0
   41.0805   22.4217   -0.5139 C   0  0  1  0  0  0  0  0  0  0  0  0
   39.4271   24.9776    1.7035 O   0  0  0  0  0  0  0  0  0  0  0  0
   40.2340   22.7409   -1.8460 C   0  0  1  0  0  0  0  0  0  0  0  0
   39.0311   23.4815    3.5118 O   0  0  0  0  0  0  0  0  0  0  0  0
   40.0405   24.3176   -1.9287 C   0  0  0  0  0  0  0  0  0  0  0  0
   39.3167   25.9712    6.2670 O   0  0  0  0  0  0  0  0  0  0  0  0
   39.3044   24.8049   -0.6122 C   0  0  1  0  0  0  0  0  0  0  0  0
   37.0271   26.9877    4.8963 O   0  0  0  0  0  0  0  0  0  0  0  0
   40.1245   24.5292    0.6077 C   0  0  2  0  0  0  0  0  0  0  0  0
   42.9261   23.9900    4.0578 O   0  0  0  0  0  0  0  0  0  0  0  0
   38.3739   24.2951    2.4312 C   0  0  1  0  0  0  0  0  0  0  0  0
   45.3595   23.5958    2.7987 O   0  0  0  0  0  0  0  0  0  0  0  0
   39.7439   24.2774    4.5967 C   0  0  2  0  0  0  0  0  0  0  0  0
   40.3823   23.3235    5.5997 C   0  0  0  0  0  0  0  0  0  0  0  0
   38.7019   25.2002    5.2700 C   0  0  2  0  0  0  0  0  0  0  0  0
   38.0471   26.1126    4.2463 C   0  0  1  0  0  0  0  0  0  0  0  0
   37.3863   25.2397    3.1633 C   0  0  1  0  0  0  0  0  0  0  0  0
   43.1466   22.7957    3.3989 C   0  0  2  0  0  0  0  0  0  0  0  0
   44.6370   22.3861    3.1698 C   0  0  1  0  0  0  0  0  0  0  0  0
  1  3  1  0  0  0  0
  4  1  1  1  0  0  0
  4  6  1  0  0  0  0
  4 31  1  0  0  0  0
  6  7  1  0  0  0  0
  7  9  1  1  0  0  0
  7 30  1  0  0  0  0
  8 26  1  0  0  0  0
 10  9  1  1  0  0  0
 10 13  1  0  0  0  0
 10 21  1  0  0  0  0
 13 12  1  1  0  0  0
 13 15  1  0  0  0  0
 15  2  1  6  0  0  0
 15 17  1  0  0  0  0
 16 25  1  0  0  0  0
 16 23  1  0  0  0  0
 17 19  1  0  0  0  0
 19  5  1  6  0  0  0
 19 21  1  0  0  0  0
 21 14  1  1  0  0  0
 23 14  1  1  0  0  0
 23 29  1  0  0  0  0
 25 26  1  1  0  0  0
 25 27  1  0  0  0  0
 27 18  1  1  0  0  0
 27 28  1  0  0  0  0
 28 20  1  1  0  0  0
 28 29  1  0  0  0  0
 29 11  1  6  0  0  0
 30 22  1  6  0  0  0
 30 31  1  0  0  0  0
 31 24  1  6  0  0  0
M  END
>  <CHROM.1>
179.10441798,-68.96821573,43.84667823,89.36313457,-35.19503000,168.01577759
40.85725533,23.61824852,2.24090674,-0.44065711,-0.57812895,1.36996289

>  <Name>
ligand

>  <RI>
0

>  <Rbt.Current_Directory>
/home/itssahil/PROJECTS/Mol_Feturizer/New_Systems/rnas/2ET5

>  <Rbt.Executable>
rbdock ($Id: //depot/dev/client3/rdock/2013.1/src/exe/rbdock.cxx#4 $)

>  <Rbt.Library>
libRbt.so (2013.1, Build901 2013/11/27)

>  <Rbt.Parameter_File>
/export/apps/rDock/src/rDock_2013.1_src/data/scripts/dock_solv.prm

>  <Rbt.Receptor>
prm/pocket_docking_3.prm

>  <SCORE>
-5.83184

>  <SCORE.INTER>
-6.0017

>  <SCORE.INTER.CONST>
1

>  <SCORE.INTER.POLAR>
0

>  <SCORE.INTER.ROT>
6

>  <SCORE.INTER.SOLV>
18.5485

>  <SCORE.INTER.VDW>
-17.784

>  <SCORE.INTER.norm>
-0.193603

>  <SCORE.INTRA>
0.169864

>  <SCORE.INTRA.DIHEDRAL>
-2.92733

>  <SCORE.INTRA.DIHEDRAL.0>
11.2357

>  <SCORE.INTRA.POLAR>
0

>  <SCORE.INTRA.POLAR.0>
0

>  <SCORE.INTRA.REPUL>
0

>  <SCORE.INTRA.REPUL.0>
0

>  <SCORE.INTRA.SOLV>
0.513318

>  <SCORE.INTRA.SOLV.lig_0>
-83.3092

>  <SCORE.INTRA.VDW>
1.37687

>  <SCORE.INTRA.VDW.0>
-4.47057

>  <SCORE.INTRA.norm>
0.00547947

>  <SCORE.RESTR>
0

>  <SCORE.RESTR.CAVITY>
0

>  <SCORE.RESTR.norm>
0

>  <SCORE.SYSTEM>
0

>  <SCORE.SYSTEM.CONST>
0

>  <SCORE.SYSTEM.DIHEDRAL>
0

>  <SCORE.SYSTEM.SOLV>
0

>  <SCORE.SYSTEM.norm>
0

>  <SCORE.heavy>
31

>  <SCORE.norm>
-0.188124

>  <RMSD>
5.881

$$$$
ligand
 OpenBabel11021811433D
libRbt.so/2013.1/901 2013/11/27
 31 33  0  0  0  0  0  0  0  0999 V2000
   44.1612   19.7692    2.4994 C   0  0  0  0  0  0  0  0  0  0  0  0
   40.9978   22.1932   -3.0960 N   0  0  0  0  0  0  0  0  0  0  0  0
   44.0226   19.0768    1.2500 O   0  0  0  0  0  0  0  0  0  0  0  0
   44.4052   21.2226    2.1015 C   0  0  1  0  0  0  0  0  0  0  0  0
   39.2367   26.3275   -0.7433 N   0  0  0  0  0  0  0  0  0  0  0  0
   43.2851   21.8609    1.3002 O   0  0  0  0  0  0  0  0  0  0  0  0
   42.5430   22.7690    2.0191 C   0  0  1  0  0  0  0  0  0  0  0  0
   41.2798   24.0791    6.4122 N   0  0  0  0  0  0  0  0  0  0  0  0
   41.1477   22.6570    1.9748 O   0  0  0  0  0  0  0  0  0  0  0  0
   40.3343   22.9748    0.7528 C   0  0  2  0  0  0  0  0  0  0  0  0
   36.7895   26.2161    2.1401 N   0  0  0  0  0  0  0  0  0  0  0  0
   41.2493   20.9549   -0.3763 O   0  0  0  0  0  0  0  0  0  0  0  0
   41.0863   22.4170   -0.4918 C   0  0  1  0  0  0  0  0  0  0  0  0
   39.4639   25.0230    1.6899 O   0  0  0  0  0  0  0  0  0  0  0  0
   40.2617   22.7451   -1.8353 C   0  0  1  0  0  0  0  0  0  0  0  0
   39.0394   23.5118    3.4791 O   0  0  0  0  0  0  0  0  0  0  0  0
   40.1031   24.3249   -1.9308 C   0  0  0  0  0  0  0  0  0  0  0  0
   39.4326   25.9475    6.2690 O   0  0  0  0  0  0  0  0  0  0  0  0
   39.3631   24.8370   -0.6258 C   0  0  1  0  0  0  0  0  0  0  0  0
   37.1623   27.0574    4.9392 O   0  0  0  0  0  0  0  0  0  0  0  0
   40.1635   24.5521    0.6049 C   0  0  2  0  0  0  0  0  0  0  0  0
   42.9848   24.0039    4.0114 O   0  0  0  0  0  0  0  0  0  0  0  0
   38.3972   24.3627    2.4185 C   0  0  1  0  0  0  0  0  0  0  0  0
   45.3917   23.3930    2.7884 O   0  0  0  0  0  0  0  0  0  0  0  0
   39.7884   24.2676    4.5684 C   0  0  2  0  0  0  0  0  0  0  0  0
   40.4065   23.2783    5.5495 C   0  0  0  0  0  0  0  0  0  0  0  0
   38.7833   25.2122    5.2671 C   0  0  2  0  0  0  0  0  0  0  0  0
   38.1471   26.1608    4.2648 C   0  0  1  0  0  0  0  0  0  0  0  0
   37.4478   25.3264    3.1757 C   0  0  1  0  0  0  0  0  0  0  0  0
   43.1329   22.7640    3.4200 C   0  0  2  0  0  0  0  0  0  0  0  0
   44.5957   22.2520    3.2215 C   0  0  1  0  0  0  0  0  0  0  0  0
  1  3  1  0  0  0  0
  4  1  1  1  0  0  0
  4  6  1  0  0  0  0
  4 31  1  0  0  0  0
  6  7  1  0  0  0  0
  7  9  1  1  0  0  0
  7 30  1  0  0  0  0
  8 26  1  0  0  0  0
 10  9  1  1  0  0  0
 10 13  1  0  0  0  0
 10 21  1  0  0  0  0
 13 12  1  1  0  0  0
 13 15  1  0  0  0  0
 15  2  1  6  0  0  0
 15 17  1  0  0  0  0
 16 25  1  0  0  0  0
 16 23  1  0  0  0  0
 17 19  1  0  0  0  0
 19  5  1  6  0  0  0
 19 21  1  0  0  0  0
 21 14  1  1  0  0  0
 23 14  1  1  0  0  0
 23 29  1  0  0  0  0
 25 26  1  1  0  0  0
 25 27  1  0  0  0  0
 27 18  1  1  0  0  0
 27 28  1  0  0  0  0
 28 20  1  1  0  0  0
 28 29  1  0  0  0  0
 29 11  1  6  0  0  0
 30 22  1  6  0  0  0
 30 31  1  0  0  0  0
 31 24  1  6  0  0  0
M  END
>  <CHROM.1>
60.57021077,-70.21835156,41.07813645,87.14635870,-34.53022426,170.72894144
40.82346090,23.58320644,2.19084210,-0.57820853,-0.62557348,1.35362676

>  <Name>
ligand

>  <RI>
0

>  <Rbt.Current_Directory>
/home/itssahil/PROJECTS/Mol_Feturizer/New_Systems/rnas/2ET5

>  <Rbt.Executable>
rbdock ($Id: //depot/dev/client3/rdock/2013.1/src/exe/rbdock.cxx#4 $)

>  <Rbt.Library>
libRbt.so (2013.1, Build901 2013/11/27)

>  <Rbt.Parameter_File>
/export/apps/rDock/src/rDock_2013.1_src/data/scripts/dock_solv.prm

>  <Rbt.Receptor>
prm/pocket_docking_3.prm

>  <SCORE>
-5.63272

>  <SCORE.INTER>
-5.84447

>  <SCORE.INTER.CONST>
1

>  <SCORE.INTER.POLAR>
0

>  <SCORE.INTER.ROT>
6

>  <SCORE.INTER.SOLV>
17.6561

>  <SCORE.INTER.VDW>
-17.3817

>  <SCORE.INTER.norm>
-0.188531

>  <SCORE.INTRA>
0.211749

>  <SCORE.INTRA.DIHEDRAL>
-2.89263

>  <SCORE.INTRA.DIHEDRAL.0>
11.2357

>  <SCORE.INTRA.POLAR>
0

>  <SCORE.INTRA.POLAR.0>
0

>  <SCORE.INTRA.REPUL>
0

>  <SCORE.INTRA.REPUL.0>
0

>  <SCORE.INTRA.SOLV>
0.570245

>  <SCORE.INTRA.SOLV.lig_0>
-83.3092

>  <SCORE.INTRA.VDW>
1.37294

>  <SCORE.INTRA.VDW.0>
-4.47057

>  <SCORE.INTRA.norm>
0.00683063

>  <SCORE.RESTR>
0

>  <SCORE.RESTR.CAVITY>
0

>  <SCORE.RESTR.norm>
0

>  <SCORE.SYSTEM>
0

>  <SCORE.SYSTEM.CONST>
0

>  <SCORE.SYSTEM.DIHEDRAL>
0

>  <SCORE.SYSTEM.SOLV>
0

>  <SCORE.SYSTEM.norm>
0

>  <SCORE.heavy>
31

>  <SCORE.norm>
-0.181701

>  <RMSD>
5.883

$$$$
ligand
 OpenBabel11021811433D
libRbt.so/2013.1/901 2013/11/27
 31 33  0  0  0  0  0  0  0  0999 V2000
   44.9204   22.3060    2.6306 C   0  0  0  0  0  0  0  0  0  0  0  0
   43.9621   24.6035   -2.2374 N   0  0  0  0  0  0  0  0  0  0  0  0
   46.1407   21.5517    2.5903 O   0  0  0  0  0  0  0  0  0  0  0  0
   43.8301   21.2524    2.8073 C   0  0  1  0  0  0  0  0  0  0  0  0
   44.1801   26.3087    2.5347 N   0  0  0  0  0  0  0  0  0  0  0  0
   42.4288   21.8084    2.9840 O   0  0  0  0  0  0  0  0  0  0  0  0
   41.6277   21.6426    1.8781 C   0  0  1  0  0  0  0  0  0  0  0  0
   38.7498   24.8927   -0.0053 N   0  0  0  0  0  0  0  0  0  0  0  0
   40.9207   22.7564    1.4078 O   0  0  0  0  0  0  0  0  0  0  0  0
   41.5889   24.0038    0.9046 C   0  0  2  0  0  0  0  0  0  0  0  0
   41.3151   26.1816    5.7507 N   0  0  0  0  0  0  0  0  0  0  0  0
   41.4919   23.1141   -1.4172 O   0  0  0  0  0  0  0  0  0  0  0  0
   42.3962   23.6411   -0.3770 C   0  0  1  0  0  0  0  0  0  0  0  0
   41.8505   24.9286    3.1198 O   0  0  0  0  0  0  0  0  0  0  0  0
   43.1472   24.9447   -0.9509 C   0  0  1  0  0  0  0  0  0  0  0  0
   39.9412   26.0516    2.2488 O   0  0  0  0  0  0  0  0  0  0  0  0
   44.1121   25.4879    0.1911 C   0  0  0  0  0  0  0  0  0  0  0  0
   37.3504   23.9501    3.9048 O   0  0  0  0  0  0  0  0  0  0  0  0
   43.2416   25.8074    1.4767 C   0  0  1  0  0  0  0  0  0  0  0  0
   38.6072   25.1075    6.1928 O   0  0  0  0  0  0  0  0  0  0  0  0
   42.5822   24.5762    2.0114 C   0  0  2  0  0  0  0  0  0  0  0  0
   41.7352   20.1646    0.0091 O   0  0  0  0  0  0  0  0  0  0  0  0
   41.0143   26.1002    3.3013 C   0  0  1  0  0  0  0  0  0  0  0  0
   43.0432   18.9933    2.1491 O   0  0  0  0  0  0  0  0  0  0  0  0
   38.9538   24.8983    2.3650 C   0  0  2  0  0  0  0  0  0  0  0  0
   37.9492   24.9635    1.2204 C   0  0  0  0  0  0  0  0  0  0  0  0
   38.2585   25.0061    3.7418 C   0  0  2  0  0  0  0  0  0  0  0  0
   39.2803   24.9826    4.8662 C   0  0  1  0  0  0  0  0  0  0  0  0
   40.2654   26.1478    4.6579 C   0  0  1  0  0  0  0  0  0  0  0  0
   42.5015   20.9631    0.8363 C   0  0  2  0  0  0  0  0  0  0  0  0
   43.6114   20.2469    1.6708 C   0  0  1  0  0  0  0  0  0  0  0  0
  1  3  1  0  0  0  0
  4  1  1  6  0  0  0
  4  6  1  0  0  0  0
  4 31  1  0  0  0  0
  6  7  1  0  0  0  0
  7  9  1  6  0  0  0
  7 30  1  0  0  0  0
  8 26  1  0  0  0  0
 10  9  1  1  0  0  0
 10 13  1  0  0  0  0
 10 21  1  0  0  0  0
 13 12  1  6  0  0  0
 13 15  1  0  0  0  0
 15  2  1  6  0  0  0
 15 17  1  0  0  0  0
 16 25  1  0  0  0  0
 16 23  1  0  0  0  0
 17 19  1  0  0  0  0
 19  5  1  1  0  0  0
 19 21  1  0  0  0  0
 21 14  1  1  0  0  0
 23 14  1  1  0  0  0
 23 29  1  0  0  0  0
 25 26  1  6  0  0  0
 25 27  1  0  0  0  0
 27 18  1  1  0  0  0
 27 28  1  0  0  0  0
 28 20  1  1  0  0  0
 28 29  1  0  0  0  0
 29 11  1  1  0  0  0
 30 22  1  1  0  0  0
 30 31  1  0  0  0  0
 31 24  1  1  0  0  0
M  END
>  <CHROM.1>
175.64922246,62.03366604,64.48706381,60.04266664,-76.10422627,58.71248181
41.63350356,23.74121439,2.02642179,0.06008837,-0.79672086,2.35936313

>  <Name>
ligand

>  <RI>
0

>  <Rbt.Current_Directory>
/home/itssahil/PROJECTS/Mol_Feturizer/New_Systems/rnas/2ET5

>  <Rbt.Executable>
rbdock ($Id: //depot/dev/client3/rdock/2013.1/src/exe/rbdock.cxx#4 $)

>  <Rbt.Library>
libRbt.so (2013.1, Build901 2013/11/27)

>  <Rbt.Parameter_File>
/export/apps/rDock/src/rDock_2013.1_src/data/scripts/dock_solv.prm

>  <Rbt.Receptor>
prm/pocket_docking_5.prm

>  <SCORE>
-6.68105

>  <SCORE.INTER>
-2.58658

>  <SCORE.INTER.CONST>
1

>  <SCORE.INTER.POLAR>
0

>  <SCORE.INTER.ROT>
6

>  <SCORE.INTER.SOLV>
13.3394

>  <SCORE.INTER.VDW>
-13.7709

>  <SCORE.INTER.norm>
-0.083438

>  <SCORE.INTRA>
-4.09448

>  <SCORE.INTRA.DIHEDRAL>
-9.70007

>  <SCORE.INTRA.DIHEDRAL.0>
11.2357

>  <SCORE.INTRA.POLAR>
0

>  <SCORE.INTRA.POLAR.0>
0

>  <SCORE.INTRA.REPUL>
0.0338512

>  <SCORE.INTRA.REPUL.0>
0

>  <SCORE.INTRA.SOLV>
0.555523

>  <SCORE.INTRA.SOLV.lig_0>
-83.3092

>  <SCORE.INTRA.VDW>
0.30854

>  <SCORE.INTRA.VDW.0>
-4.47057

>  <SCORE.INTRA.norm>
-0.13208

>  <SCORE.RESTR>
0

>  <SCORE.RESTR.CAVITY>
0

>  <SCORE.RESTR.norm>
0

>  <SCORE.SYSTEM>
0

>  <SCORE.SYSTEM.CONST>
0

>  <SCORE.SYSTEM.DIHEDRAL>
0

>  <SCORE.SYSTEM.SOLV>
0

>  <SCORE.SYSTEM.norm>
0

>  <SCORE.heavy>
31

>  <SCORE.norm>
-0.215518

>  <RMSD>
5.913

$$$$
ligand
 OpenBabel11021811433D
libRbt.so/2013.1/901 2013/11/27
 31 33  0  0  0  0  0  0  0  0999 V2000
   45.2655   21.8511    3.2967 C   0  0  0  0  0  0  0  0  0  0  0  0
   43.0396   18.8439    0.5065 N   0  0  0  0  0  0  0  0  0  0  0  0
   45.6918   21.3730    2.0125 O   0  0  0  0  0  0  0  0  0  0  0  0
   44.9199   23.3187    3.0585 C   0  0  1  0  0  0  0  0  0  0  0  0
   42.1401   22.8293   -2.4995 N   0  0  0  0  0  0  0  0  0  0  0  0
   43.7718   23.5550    2.0940 O   0  0  0  0  0  0  0  0  0  0  0  0
   42.6113   23.9628    2.7098 C   0  0  1  0  0  0  0  0  0  0  0  0
   38.3820   24.6465    4.0694 N   0  0  0  0  0  0  0  0  0  0  0  0
   41.4242   23.2983    2.3769 O   0  0  0  0  0  0  0  0  0  0  0  0
   41.3050   22.3595    1.2107 C   0  0  2  0  0  0  0  0  0  0  0  0
   39.6280   26.0676   -2.2031 N   0  0  0  0  0  0  0  0  0  0  0  0
   41.7834   20.4363    2.7154 O   0  0  0  0  0  0  0  0  0  0  0  0
   42.2146   21.1251    1.4837 C   0  0  1  0  0  0  0  0  0  0  0  0
   40.9472   24.1459   -0.3741 O   0  0  0  0  0  0  0  0  0  0  0  0
   42.1354   20.0903    0.2527 C   0  0  1  0  0  0  0  0  0  0  0  0
   38.8084   23.5917    0.5110 O   0  0  0  0  0  0  0  0  0  0  0  0
   42.6052   20.8611   -1.0570 C   0  0  0  0  0  0  0  0  0  0  0  0
   38.2766   26.7125    2.4728 O   0  0  0  0  0  0  0  0  0  0  0  0
   41.6666   22.1216   -1.2641 C   0  0  1  0  0  0  0  0  0  0  0  0
   38.3505   27.7806   -0.1745 O   0  0  0  0  0  0  0  0  0  0  0  0
   41.7833   23.0841   -0.1255 C   0  0  2  0  0  0  0  0  0  0  0  0
   42.1691   24.9592    4.8313 O   0  0  0  0  0  0  0  0  0  0  0  0
   39.5338   24.1112   -0.6995 C   0  0  1  0  0  0  0  0  0  0  0  0
   44.7612   25.5742    4.0798 O   0  0  0  0  0  0  0  0  0  0  0  0
   38.8594   24.4829    1.7445 C   0  0  2  0  0  0  0  0  0  0  0  0
   38.1100   23.8164    2.8925 C   0  0  0  0  0  0  0  0  0  0  0  0
   38.2346   25.8469    1.3705 C   0  0  2  0  0  0  0  0  0  0  0  0
   38.9690   26.4738    0.1972 C   0  0  1  0  0  0  0  0  0  0  0  0
   38.9110   25.5000   -0.9944 C   0  0  1  0  0  0  0  0  0  0  0  0
   42.9237   23.9910    4.1971 C   0  0  2  0  0  0  0  0  0  0  0  0
   44.4759   24.1571    4.2628 C   0  0  1  0  0  0  0  0  0  0  0  0
  1  3  1  0  0  0  0
  4  1  1  1  0  0  0
  4  6  1  0  0  0  0
  4 31  1  0  0  0  0
  6  7  1  0  0  0  0
  7  9  1  1  0  0  0
  7 30  1  0  0  0  0
  8 26  1  0  0  0  0
 10  9  1  1  0  0  0
 10 13  1  0  0  0  0
 10 21  1  0  0  0  0
 13 12  1  1  0  0  0
 13 15  1  0  0  0  0
 15  2  1  1  0  0  0
 15 17  1  0  0  0  0
 16 25  1  0  0  0  0
 16 23  1  0  0  0  0
 17 19  1  0  0  0  0
 19  5  1  6  0  0  0
 19 21  1  0  0  0  0
 21 14  1  6  0  0  0
 23 14  1  1  0  0  0
 23 29  1  0  0  0  0
 25 26  1  1  0  0  0
 25 27  1  0  0  0  0
 27 18  1  1  0  0  0
 27 28  1  0  0  0  0
 28 20  1  6  0  0  0
 28 29  1  0  0  0  0
 29 11  1  6  0  0  0
 30 22  1  1  0  0  0
 30 31  1  0  0  0  0
 31 24  1  6  0  0  0
M  END
>  <CHROM.1>
63.22161722,-12.07862572,65.26368231,66.33900734,-65.28578318,171.95651096
41.42091501,23.60375372,1.42042175,-0.11849473,-0.66389442,0.93995487

>  <Name>
ligand

>  <RI>
0

>  <Rbt.Current_Directory>
/home/itssahil/PROJECTS/Mol_Feturizer/New_Systems/rnas/2ET5

>  <Rbt.Executable>
rbdock ($Id: //depot/dev/client3/rdock/2013.1/src/exe/rbdock.cxx#4 $)

>  <Rbt.Library>
libRbt.so (2013.1, Build901 2013/11/27)

>  <Rbt.Parameter_File>
/export/apps/rDock/src/rDock_2013.1_src/data/scripts/dock_solv.prm

>  <Rbt.Receptor>
prm/pocket_docking_4.prm

>  <SCORE>
-7.85122

>  <SCORE.INTER>
-6.30387

>  <SCORE.INTER.CONST>
1

>  <SCORE.INTER.POLAR>
0

>  <SCORE.INTER.ROT>
6

>  <SCORE.INTER.SOLV>
16.0544

>  <SCORE.INTER.VDW>
-17.1541

>  <SCORE.INTER.norm>
-0.203351

>  <SCORE.INTRA>
-1.54736

>  <SCORE.INTRA.DIHEDRAL>
-4.0214

>  <SCORE.INTRA.DIHEDRAL.0>
11.2357

>  <SCORE.INTRA.POLAR>
0

>  <SCORE.INTRA.POLAR.0>
0

>  <SCORE.INTRA.REPUL>
0

>  <SCORE.INTRA.REPUL.0>
0

>  <SCORE.INTRA.SOLV>
-0.543525

>  <SCORE.INTRA.SOLV.lig_0>
-83.3092

>  <SCORE.INTRA.VDW>
0.735106

>  <SCORE.INTRA.VDW.0>
-4.47057

>  <SCORE.INTRA.norm>
-0.0499147

>  <SCORE.RESTR>
0

>  <SCORE.RESTR.CAVITY>
0

>  <SCORE.RESTR.norm>
0

>  <SCORE.SYSTEM>
0

>  <SCORE.SYSTEM.CONST>
0

>  <SCORE.SYSTEM.DIHEDRAL>
0

>  <SCORE.SYSTEM.SOLV>
0

>  <SCORE.SYSTEM.norm>
0

>  <SCORE.heavy>
31

>  <SCORE.norm>
-0.253265

>  <RMSD>
5.914

$$$$
ligand
 OpenBabel11021811433D
libRbt.so/2013.1/901 2013/11/27
 31 33  0  0  0  0  0  0  0  0999 V2000
   34.7942   28.2617    2.6900 C   0  0  0  0  0  0  0  0  0  0  0  0
   38.9171   24.4375   -2.6996 N   0  0  0  0  0  0  0  0  0  0  0  0
   35.2232   29.0480    1.5687 O   0  0  0  0  0  0  0  0  0  0  0  0
   34.3874   26.9229    2.0798 C   0  0  1  0  0  0  0  0  0  0  0  0
   42.1762   25.5402    1.0274 N   0  0  0  0  0  0  0  0  0  0  0  0
   35.4928   26.2019    1.3299 O   0  0  0  0  0  0  0  0  0  0  0  0
   35.9897   25.1084    2.0003 C   0  0  1  0  0  0  0  0  0  0  0  0
   39.4436   29.1709    5.7486 N   0  0  0  0  0  0  0  0  0  0  0  0
   37.3797   24.9919    2.1252 O   0  0  0  0  0  0  0  0  0  0  0  0
   38.3450   25.5042    1.0949 C   0  0  2  0  0  0  0  0  0  0  0  0
   41.5314   23.5371    3.3985 N   0  0  0  0  0  0  0  0  0  0  0  0
   36.7300   24.9164   -0.7045 O   0  0  0  0  0  0  0  0  0  0  0  0
   38.1116   24.7145   -0.2270 C   0  0  1  0  0  0  0  0  0  0  0  0
   40.0450   26.0122    2.7329 O   0  0  0  0  0  0  0  0  0  0  0  0
   39.1348   25.2159   -1.3646 C   0  0  1  0  0  0  0  0  0  0  0  0
   40.9735   27.0353    4.6710 O   0  0  0  0  0  0  0  0  0  0  0  0
   40.6119   24.9857   -0.8209 C   0  0  0  0  0  0  0  0  0  0  0  0
   38.9222   25.2264    7.1991 O   0  0  0  0  0  0  0  0  0  0  0  0
   40.7789   25.7841    0.5382 C   0  0  1  0  0  0  0  0  0  0  0  0
   40.3705   23.0441    6.0614 O   0  0  0  0  0  0  0  0  0  0  0  0
   39.8429   25.2779    1.5892 C   0  0  2  0  0  0  0  0  0  0  0  0
   35.1117   23.7479    3.7518 O   0  0  0  0  0  0  0  0  0  0  0  0
   41.1845   25.9709    3.6299 C   0  0  1  0  0  0  0  0  0  0  0  0
   33.0040   24.8828    2.3620 O   0  0  0  0  0  0  0  0  0  0  0  0
   39.7890   26.8215    5.6036 C   0  0  2  0  0  0  0  0  0  0  0  0
   39.6850   27.9878    6.5795 C   0  0  0  0  0  0  0  0  0  0  0  0
   40.0012   25.4784    6.3397 C   0  0  2  0  0  0  0  0  0  0  0  0
   40.1453   24.3360    5.3481 C   0  0  1  0  0  0  0  0  0  0  0  0
   41.3321   24.6427    4.4160 C   0  0  1  0  0  0  0  0  0  0  0  0
   35.2305   25.0537    3.3161 C   0  0  2  0  0  0  0  0  0  0  0  0
   33.9000   25.8201    3.0266 C   0  0  1  0  0  0  0  0  0  0  0  0
  1  3  1  0  0  0  0
  4  1  1  1  0  0  0
  4  6  1  0  0  0  0
  4 31  1  0  0  0  0
  6  7  1  0  0  0  0
  7  9  1  1  0  0  0
  7 30  1  0  0  0  0
  8 26  1  0  0  0  0
 10  9  1  1  0  0  0
 10 13  1  0  0  0  0
 10 21  1  0  0  0  0
 13 12  1  6  0  0  0
 13 15  1  0  0  0  0
 15  2  1  6  0  0  0
 15 17  1  0  0  0  0
 16 25  1  0  0  0  0
 16 23  1  0  0  0  0
 17 19  1  0  0  0  0
 19  5  1  1  0  0  0
 19 21  1  0  0  0  0
 21 14  1  1  0  0  0
 23 14  1  6  0  0  0
 23 29  1  0  0  0  0
 25 26  1  1  0  0  0
 25 27  1  0  0  0  0
 27 18  1  1  0  0  0
 27 28  1  0  0  0  0
 28 20  1  1  0  0  0
 28 29  1  0  0  0  0
 29 11  1  6  0  0  0
 30 22  1  6  0  0  0
 30 31  1  0  0  0  0
 31 24  1  6  0  0  0
M  END
>  <CHROM.1>
59.40186204,-31.49730501,-63.54210866,175.78905539,170.64352099,62.26786662
38.29234740,25.66621592,2.74212247,2.50905926,0.16683281,-1.74362719

>  <Name>
ligand

>  <RI>
0

>  <Rbt.Current_Directory>
/home/itssahil/PROJECTS/Mol_Feturizer/New_Systems/rnas/2ET5

>  <Rbt.Executable>
rbdock ($Id: //depot/dev/client3/rdock/2013.1/src/exe/rbdock.cxx#4 $)

>  <Rbt.Library>
libRbt.so (2013.1, Build901 2013/11/27)

>  <Rbt.Parameter_File>
/export/apps/rDock/src/rDock_2013.1_src/data/scripts/dock_solv.prm

>  <Rbt.Receptor>
prm/pocket_docking_7.prm

>  <SCORE>
-5.47544

>  <SCORE.INTER>
-3.86164

>  <SCORE.INTER.CONST>
1

>  <SCORE.INTER.POLAR>
0

>  <SCORE.INTER.ROT>
6

>  <SCORE.INTER.SOLV>
11.8129

>  <SCORE.INTER.VDW>
-14.1121

>  <SCORE.INTER.norm>
-0.124569

>  <SCORE.INTRA>
-1.6138

>  <SCORE.INTRA.DIHEDRAL>
-7.27008

>  <SCORE.INTRA.DIHEDRAL.0>
11.2357

>  <SCORE.INTRA.POLAR>
0

>  <SCORE.INTRA.POLAR.0>
0

>  <SCORE.INTRA.REPUL>
0

>  <SCORE.INTRA.REPUL.0>
0

>  <SCORE.INTRA.SOLV>
-0.434145

>  <SCORE.INTRA.SOLV.lig_0>
-83.3092

>  <SCORE.INTRA.VDW>
2.23831

>  <SCORE.INTRA.VDW.0>
-4.47057

>  <SCORE.INTRA.norm>
-0.0520581

>  <SCORE.RESTR>
0

>  <SCORE.RESTR.CAVITY>
0

>  <SCORE.RESTR.norm>
0

>  <SCORE.SYSTEM>
0

>  <SCORE.SYSTEM.CONST>
0

>  <SCORE.SYSTEM.DIHEDRAL>
0

>  <SCORE.SYSTEM.SOLV>
0

>  <SCORE.SYSTEM.norm>
0

>  <SCORE.heavy>
31

>  <SCORE.norm>
-0.176627

>  <RMSD>
5.920

$$$$
ligand
 OpenBabel11021811433D
libRbt.so/2013.1/901 2013/11/27
 31 33  0  0  0  0  0  0  0  0999 V2000
   45.3083   21.7695    2.8366 C   0  0  0  0  0  0  0  0  0  0  0  0
   44.3268   24.8236   -2.1111 N   0  0  0  0  0  0  0  0  0  0  0  0
   46.4675   20.9511    2.6216 O   0  0  0  0  0  0  0  0  0  0  0  0
   44.1411   20.7861    2.8119 C   0  0  1  0  0  0  0  0  0  0  0  0
   45.2384   25.5399    2.8270 N   0  0  0  0  0  0  0  0  0  0  0  0
   42.7721   21.4167    2.9919 O   0  0  0  0  0  0  0  0  0  0  0  0
   42.0299   21.4598    1.8346 C   0  0  1  0  0  0  0  0  0  0  0  0
   39.6753   25.4476    0.5338 N   0  0  0  0  0  0  0  0  0  0  0  0
   41.4289   22.6759    1.4861 O   0  0  0  0  0  0  0  0  0  0  0  0
   42.2099   23.9103    1.1368 C   0  0  2  0  0  0  0  0  0  0  0  0
   42.5174   25.0146    6.3069 N   0  0  0  0  0  0  0  0  0  0  0  0
   41.7670   23.5022   -1.2775 O   0  0  0  0  0  0  0  0  0  0  0  0
   42.8316   23.7099   -0.2770 C   0  0  1  0  0  0  0  0  0  0  0  0
   42.8094   24.3540    3.4335 O   0  0  0  0  0  0  0  0  0  0  0  0
   43.6951   25.0030   -0.6953 C   0  0  1  0  0  0  0  0  0  0  0  0
   41.0875   25.9232    2.9457 O   0  0  0  0  0  0  0  0  0  0  0  0
   44.8315   25.1997    0.4002 C   0  0  0  0  0  0  0  0  0  0  0  0
   38.2238   23.9006    4.2023 O   0  0  0  0  0  0  0  0  0  0  0  0
   44.1418   25.3648    1.8178 C   0  0  1  0  0  0  0  0  0  0  0  0
   39.6813   24.2830    6.6279 O   0  0  0  0  0  0  0  0  0  0  0  0
   43.3749   24.1390    2.1997 C   0  0  2  0  0  0  0  0  0  0  0  0
   42.1505   20.2397   -0.2115 O   0  0  0  0  0  0  0  0  0  0  0  0
   42.1706   25.5607    3.9240 C   0  0  1  0  0  0  0  0  0  0  0  0
   43.2455   18.6998    1.8113 O   0  0  0  0  0  0  0  0  0  0  0  0
   39.9329   24.9359    2.8428 C   0  0  2  0  0  0  0  0  0  0  0  0
   38.9339   25.4191    1.7979 C   0  0  0  0  0  0  0  0  0  0  0  0
   39.2840   24.8175    4.2412 C   0  0  2  0  0  0  0  0  0  0  0  0
   40.3063   24.3764    5.2754 C   0  0  1  0  0  0  0  0  0  0  0  0
   41.4591   25.3973    5.2917 C   0  0  1  0  0  0  0  0  0  0  0  0
   42.9174   20.8617    0.7551 C   0  0  2  0  0  0  0  0  0  0  0  0
   43.9244   19.9599    1.5387 C   0  0  1  0  0  0  0  0  0  0  0  0
  1  3  1  0  0  0  0
  4  1  1  6  0  0  0
  4  6  1  0  0  0  0
  4 31  1  0  0  0  0
  6  7  1  0  0  0  0
  7  9  1  6  0  0  0
  7 30  1  0  0  0  0
  8 26  1  0  0  0  0
 10  9  1  1  0  0  0
 10 13  1  0  0  0  0
 10 21  1  0  0  0  0
 13 12  1  6  0  0  0
 13 15  1  0  0  0  0
 15  2  1  6  0  0  0
 15 17  1  0  0  0  0
 16 25  1  0  0  0  0
 16 23  1  0  0  0  0
 17 19  1  0  0  0  0
 19  5  1  1  0  0  0
 19 21  1  0  0  0  0
 21 14  1  1  0  0  0
 23 14  1  6  0  0  0
 23 29  1  0  0  0  0
 25 26  1  6  0  0  0
 25 27  1  0  0  0  0
 27 18  1  6  0  0  0
 27 28  1  0  0  0  0
 28 20  1  1  0  0  0
 28 29  1  0  0  0  0
 29 11  1  1  0  0  0
 30 22  1  6  0  0  0
 30 31  1  0  0  0  0
 31 24  1  1  0  0  0
M  END
>  <CHROM.1>
-178.80416373,64.69537127,73.25823784,54.88680295,-76.52137432,61.87703148
42.33475745,23.48621261,2.26228268,-0.15890499,-0.89167921,2.19127880

>  <Name>
ligand

>  <RI>
0

>  <Rbt.Current_Directory>
/home/itssahil/PROJECTS/Mol_Feturizer/New_Systems/rnas/2ET5

>  <Rbt.Executable>
rbdock ($Id: //depot/dev/client3/rdock/2013.1/src/exe/rbdock.cxx#4 $)

>  <Rbt.Library>
libRbt.so (2013.1, Build901 2013/11/27)

>  <Rbt.Parameter_File>
/export/apps/rDock/src/rDock_2013.1_src/data/scripts/dock_solv.prm

>  <Rbt.Receptor>
prm/pocket_docking_5.prm

>  <SCORE>
-7.98797

>  <SCORE.INTER>
-4.63891

>  <SCORE.INTER.CONST>
1

>  <SCORE.INTER.POLAR>
0

>  <SCORE.INTER.ROT>
6

>  <SCORE.INTER.SOLV>
17.4008

>  <SCORE.INTER.VDW>
-16.4929

>  <SCORE.INTER.norm>
-0.149642

>  <SCORE.INTRA>
-3.34906

>  <SCORE.INTRA.DIHEDRAL>
-8.74874

>  <SCORE.INTRA.DIHEDRAL.0>
11.2357

>  <SCORE.INTRA.POLAR>
0

>  <SCORE.INTRA.POLAR.0>
0

>  <SCORE.INTRA.REPUL>
0

>  <SCORE.INTRA.REPUL.0>
0

>  <SCORE.INTRA.SOLV>
1.18324

>  <SCORE.INTRA.SOLV.lig_0>
-83.3092

>  <SCORE.INTRA.VDW>
0.433689

>  <SCORE.INTRA.VDW.0>
-4.47057

>  <SCORE.INTRA.norm>
-0.108034

>  <SCORE.RESTR>
0

>  <SCORE.RESTR.CAVITY>
0

>  <SCORE.RESTR.norm>
0

>  <SCORE.SYSTEM>
0

>  <SCORE.SYSTEM.CONST>
0

>  <SCORE.SYSTEM.DIHEDRAL>
0

>  <SCORE.SYSTEM.SOLV>
0

>  <SCORE.SYSTEM.norm>
0

>  <SCORE.heavy>
31

>  <SCORE.norm>
-0.257676

>  <RMSD>
5.925

$$$$
ligand
 OpenBabel11021811433D
libRbt.so/2013.1/901 2013/11/27
 31 33  0  0  0  0  0  0  0  0999 V2000
   40.1436   24.5863    5.8528 C   0  0  0  0  0  0  0  0  0  0  0  0
   43.3791   18.4173    0.6993 N   0  0  0  0  0  0  0  0  0  0  0  0
   39.3536   24.7363    4.6641 O   0  0  0  0  0  0  0  0  0  0  0  0
   41.4482   23.9626    5.3639 C   0  0  1  0  0  0  0  0  0  0  0  0
   42.5910   22.5124   -2.1880 N   0  0  0  0  0  0  0  0  0  0  0  0
   41.2826   22.6848    4.5615 O   0  0  0  0  0  0  0  0  0  0  0  0
   41.5094   22.8478    3.2146 C   0  0  1  0  0  0  0  0  0  0  0  0
   37.7023   26.2577    2.3479 N   0  0  0  0  0  0  0  0  0  0  0  0
   40.5583   22.3360    2.3230 O   0  0  0  0  0  0  0  0  0  0  0  0
   40.9177   21.5210    1.1137 C   0  0  2  0  0  0  0  0  0  0  0  0
   40.1194   23.7403   -3.2860 N   0  0  0  0  0  0  0  0  0  0  0  0
   41.3259   19.5460    2.5711 O   0  0  0  0  0  0  0  0  0  0  0  0
   41.9317   20.4224    1.5501 C   0  0  1  0  0  0  0  0  0  0  0  0
   40.6692   23.3894   -0.3959 O   0  0  0  0  0  0  0  0  0  0  0  0
   42.3631   19.5265    0.2836 C   0  0  1  0  0  0  0  0  0  0  0  0
   38.3290   23.5214    0.0177 O   0  0  0  0  0  0  0  0  0  0  0  0
   43.0109   20.4979   -0.7966 C   0  0  0  0  0  0  0  0  0  0  0  0
   37.9480   27.1838   -0.5414 O   0  0  0  0  0  0  0  0  0  0  0  0
   41.9476   21.6105   -1.1761 C   0  0  1  0  0  0  0  0  0  0  0  0
   38.7618   26.3518   -3.1490 O   0  0  0  0  0  0  0  0  0  0  0  0
   41.5888   22.4513    0.0075 C   0  0  2  0  0  0  0  0  0  0  0  0
   42.6812   24.5035    1.9597 O   0  0  0  0  0  0  0  0  0  0  0  0
   39.3720   23.1628   -1.0046 C   0  0  1  0  0  0  0  0  0  0  0  0
   43.7370   24.4091    4.5167 O   0  0  0  0  0  0  0  0  0  0  0  0
   38.2737   24.9896    0.4179 C   0  0  2  0  0  0  0  0  0  0  0  0
   37.1953   25.1946    1.4755 C   0  0  0  0  0  0  0  0  0  0  0  0
   37.9887   25.8180   -0.8562 C   0  0  2  0  0  0  0  0  0  0  0  0
   39.0512   25.5663   -1.9130 C   0  0  1  0  0  0  0  0  0  0  0  0
   39.0766   24.0603   -2.2337 C   0  0  1  0  0  0  0  0  0  0  0  0
   41.8217   24.3235    3.0265 C   0  0  2  0  0  0  0  0  0  0  0  0
   42.3340   24.7915    4.4264 C   0  0  1  0  0  0  0  0  0  0  0  0
  1  3  1  0  0  0  0
  4  1  1  6  0  0  0
  4  6  1  0  0  0  0
  4 31  1  0  0  0  0
  6  7  1  0  0  0  0
  7  9  1  6  0  0  0
  7 30  1  0  0  0  0
  8 26  1  0  0  0  0
 10  9  1  1  0  0  0
 10 13  1  0  0  0  0
 10 21  1  0  0  0  0
 13 12  1  1  0  0  0
 13 15  1  0  0  0  0
 15  2  1  1  0  0  0
 15 17  1  0  0  0  0
 16 25  1  0  0  0  0
 16 23  1  0  0  0  0
 17 19  1  0  0  0  0
 19  5  1  6  0  0  0
 19 21  1  0  0  0  0
 21 14  1  6  0  0  0
 23 14  1  1  0  0  0
 23 29  1  0  0  0  0
 25 26  1  1  0  0  0
 25 27  1  0  0  0  0
 27 18  1  1  0  0  0
 27 28  1  0  0  0  0
 28 20  1  6  0  0  0
 28 29  1  0  0  0  0
 29 11  1  6  0  0  0
 30 22  1  6  0  0  0
 30 31  1  0  0  0  0
 31 24  1  6  0  0  0
M  END
>  <CHROM.1>
-54.22330965,-133.30771293,47.72005556,108.93321830,-59.99515872,146.12830785
40.58510247,23.41162704,1.09264041,0.57442458,-0.90795054,1.28206823

>  <Name>
ligand

>  <RI>
0

>  <Rbt.Current_Directory>
/home/itssahil/PROJECTS/Mol_Feturizer/New_Systems/rnas/2ET5

>  <Rbt.Executable>
rbdock ($Id: //depot/dev/client3/rdock/2013.1/src/exe/rbdock.cxx#4 $)

>  <Rbt.Library>
libRbt.so (2013.1, Build901 2013/11/27)

>  <Rbt.Parameter_File>
/export/apps/rDock/src/rDock_2013.1_src/data/scripts/dock_solv.prm

>  <Rbt.Receptor>
prm/pocket_docking_2.prm

>  <SCORE>
9.42376

>  <SCORE.INTER>
2.89637

>  <SCORE.INTER.CONST>
1

>  <SCORE.INTER.POLAR>
0

>  <SCORE.INTER.ROT>
6

>  <SCORE.INTER.SOLV>
17.2861

>  <SCORE.INTER.VDW>
-11.4311

>  <SCORE.INTER.norm>
0.0934314

>  <SCORE.INTRA>
4.17115

>  <SCORE.INTRA.DIHEDRAL>
5.66202

>  <SCORE.INTRA.DIHEDRAL.0>
11.2357

>  <SCORE.INTRA.POLAR>
0

>  <SCORE.INTRA.POLAR.0>
0

>  <SCORE.INTRA.REPUL>
0

>  <SCORE.INTRA.REPUL.0>
0

>  <SCORE.INTRA.SOLV>
1.27125

>  <SCORE.INTRA.SOLV.lig_0>
-83.3092

>  <SCORE.INTRA.VDW>
0.704512

>  <SCORE.INTRA.VDW.0>
-4.47057

>  <SCORE.INTRA.norm>
0.134553

>  <SCORE.RESTR>
2.35624

>  <SCORE.RESTR.CAVITY>
2.35624

>  <SCORE.RESTR.norm>
0.0760076

>  <SCORE.SYSTEM>
0

>  <SCORE.SYSTEM.CONST>
0

>  <SCORE.SYSTEM.DIHEDRAL>
0

>  <SCORE.SYSTEM.SOLV>
0

>  <SCORE.SYSTEM.norm>
0

>  <SCORE.heavy>
31

>  <SCORE.norm>
0.303992

>  <RMSD>
5.931

$$$$
ligand
 OpenBabel11021811433D
libRbt.so/2013.1/901 2013/11/27
 31 33  0  0  0  0  0  0  0  0999 V2000
   34.9600   28.6445    4.4748 C   0  0  0  0  0  0  0  0  0  0  0  0
   40.4257   29.9700   -1.7784 N   0  0  0  0  0  0  0  0  0  0  0  0
   35.3624   29.9948    4.7480 O   0  0  0  0  0  0  0  0  0  0  0  0
   34.8813   28.5739    2.9520 C   0  0  1  0  0  0  0  0  0  0  0  0
   42.9844   28.1623    2.2108 N   0  0  0  0  0  0  0  0  0  0  0  0
   36.1970   28.8130    2.2338 O   0  0  0  0  0  0  0  0  0  0  0  0
   36.7467   27.6714    1.6984 C   0  0  1  0  0  0  0  0  0  0  0  0
   41.5976   23.4979    2.2014 N   0  0  0  0  0  0  0  0  0  0  0  0
   38.0975   27.4093    1.9596 O   0  0  0  0  0  0  0  0  0  0  0  0
   39.1983   28.3875    1.6645 C   0  0  2  0  0  0  0  0  0  0  0  0
   39.6380   28.1172    6.2302 N   0  0  0  0  0  0  0  0  0  0  0  0
   37.9242   29.2212   -0.3035 O   0  0  0  0  0  0  0  0  0  0  0  0
   39.2154   28.6536    0.1301 C   0  0  1  0  0  0  0  0  0  0  0  0
   40.5857   27.5902    3.4729 O   0  0  0  0  0  0  0  0  0  0  0  0
   40.3914   29.6881   -0.2438 C   0  0  1  0  0  0  0  0  0  0  0  0
   40.1438   25.2763    3.8132 O   0  0  0  0  0  0  0  0  0  0  0  0
   41.7669   29.0489    0.2354 C   0  0  0  0  0  0  0  0  0  0  0  0
   43.0220   24.5636    6.0670 O   0  0  0  0  0  0  0  0  0  0  0  0
   41.6779   28.7707    1.7933 C   0  0  1  0  0  0  0  0  0  0  0  0
   41.5609   26.4160    7.6758 O   0  0  0  0  0  0  0  0  0  0  0  0
   40.6024   27.7816    2.1123 C   0  0  2  0  0  0  0  0  0  0  0  0
   35.8238   25.5505    1.1156 O   0  0  0  0  0  0  0  0  0  0  0  0
   39.7632   26.6690    4.2342 C   0  0  1  0  0  0  0  0  0  0  0  0
   33.8186   27.4558    1.0087 O   0  0  0  0  0  0  0  0  0  0  0  0
   41.5621   24.8454    4.1616 C   0  0  2  0  0  0  0  0  0  0  0  0
   41.8108   23.4313    3.6499 C   0  0  0  0  0  0  0  0  0  0  0  0
   41.7209   24.9332    5.6971 C   0  0  2  0  0  0  0  0  0  0  0  0
   41.4268   26.3398    6.1910 C   0  0  1  0  0  0  0  0  0  0  0  0
   39.9961   26.7195    5.7661 C   0  0  1  0  0  0  0  0  0  0  0  0
   35.8000   26.5437    2.0760 C   0  0  2  0  0  0  0  0  0  0  0  0
   34.4293   27.2541    2.3162 C   0  0  1  0  0  0  0  0  0  0  0  0
  1  3  1  0  0  0  0
  4  1  1  1  0  0  0
  4  6  1  0  0  0  0
  4 31  1  0  0  0  0
  6  7  1  0  0  0  0
  7  9  1  1  0  0  0
  7 30  1  0  0  0  0
  8 26  1  0  0  0  0
 10  9  1  6  0  0  0
 10 13  1  0  0  0  0
 10 21  1  0  0  0  0
 13 12  1  1  0  0  0
 13 15  1  0  0  0  0
 15  2  1  6  0  0  0
 15 17  1  0  0  0  0
 16 25  1  0  0  0  0
 16 23  1  0  0  0  0
 17 19  1  0  0  0  0
 19  5  1  6  0  0  0
 19 21  1  0  0  0  0
 21 14  1  1  0  0  0
 23 14  1  6  0  0  0
 23 29  1  0  0  0  0
 25 26  1  1  0  0  0
 25 27  1  0  0  0  0
 27 18  1  6  0  0  0
 27 28  1  0  0  0  0
 28 20  1  1  0  0  0
 28 29  1  0  0  0  0
 29 11  1  6  0  0  0
 30 22  1  6  0  0  0
 30 31  1  0  0  0  0
 31 24  1  6  0  0  0
M  END
>  <CHROM.1>
62.55116084,-54.62162975,-61.68089637,63.63675219,65.67217348,59.22840153
39.09451167,27.28562003,2.90204793,2.52918322,0.15490742,-1.09970175

>  <Name>
ligand

>  <RI>
0

>  <Rbt.Current_Directory>
/home/itssahil/PROJECTS/Mol_Feturizer/New_Systems/rnas/2ET5

>  <Rbt.Executable>
rbdock ($Id: //depot/dev/client3/rdock/2013.1/src/exe/rbdock.cxx#4 $)

>  <Rbt.Library>
libRbt.so (2013.1, Build901 2013/11/27)

>  <Rbt.Parameter_File>
/export/apps/rDock/src/rDock_2013.1_src/data/scripts/dock_solv.prm

>  <Rbt.Receptor>
prm/pocket_docking_7.prm

>  <SCORE>
-9.37113

>  <SCORE.INTER>
-3.58645

>  <SCORE.INTER.CONST>
1

>  <SCORE.INTER.POLAR>
0

>  <SCORE.INTER.ROT>
6

>  <SCORE.INTER.SOLV>
8.65539

>  <SCORE.INTER.VDW>
-12.8761

>  <SCORE.INTER.norm>
-0.115692

>  <SCORE.INTRA>
-5.78469

>  <SCORE.INTRA.DIHEDRAL>
-10.6933

>  <SCORE.INTRA.DIHEDRAL.0>
11.2357

>  <SCORE.INTRA.POLAR>
0

>  <SCORE.INTRA.POLAR.0>
0

>  <SCORE.INTRA.REPUL>
0

>  <SCORE.INTRA.REPUL.0>
0

>  <SCORE.INTRA.SOLV>
-4.34335

>  <SCORE.INTRA.SOLV.lig_0>
-83.3092

>  <SCORE.INTRA.VDW>
1.73364

>  <SCORE.INTRA.VDW.0>
-4.47057

>  <SCORE.INTRA.norm>
-0.186603

>  <SCORE.RESTR>
0

>  <SCORE.RESTR.CAVITY>
0

>  <SCORE.RESTR.norm>
0

>  <SCORE.SYSTEM>
0

>  <SCORE.SYSTEM.CONST>
0

>  <SCORE.SYSTEM.DIHEDRAL>
0

>  <SCORE.SYSTEM.SOLV>
0

>  <SCORE.SYSTEM.norm>
0

>  <SCORE.heavy>
31

>  <SCORE.norm>
-0.302295

>  <RMSD>
5.938

$$$$
ligand
 OpenBabel11021811433D
libRbt.so/2013.1/901 2013/11/27
 31 33  0  0  0  0  0  0  0  0999 V2000
   45.1609   21.0857    2.2757 C   0  0  0  0  0  0  0  0  0  0  0  0
   40.6994   23.4469   -4.0596 N   0  0  0  0  0  0  0  0  0  0  0  0
   45.5647   22.0393    3.2692 O   0  0  0  0  0  0  0  0  0  0  0  0
   43.7225   20.7366    2.6488 C   0  0  1  0  0  0  0  0  0  0  0  0
   38.4541   26.4790   -0.6693 N   0  0  0  0  0  0  0  0  0  0  0  0
   42.7678   21.9163    2.6806 O   0  0  0  0  0  0  0  0  0  0  0  0
   41.8929   21.9446    1.6195 C   0  0  1  0  0  0  0  0  0  0  0  0
   41.6169   24.1126    5.2202 N   0  0  0  0  0  0  0  0  0  0  0  0
   41.7559   23.1471    0.9147 O   0  0  0  0  0  0  0  0  0  0  0  0
   40.6567   23.3997   -0.0772 C   0  0  2  0  0  0  0  0  0  0  0  0
   36.5431   24.9377    1.1905 N   0  0  0  0  0  0  0  0  0  0  0  0
   41.8093   21.9311   -1.7222 O   0  0  0  0  0  0  0  0  0  0  0  0
   41.2565   23.2827   -1.5097 C   0  0  1  0  0  0  0  0  0  0  0  0
   39.4998   24.9377    1.3813 O   0  0  0  0  0  0  0  0  0  0  0  0
   40.1194   23.5605   -2.6152 C   0  0  1  0  0  0  0  0  0  0  0  0
   39.3283   23.5640    3.3174 O   0  0  0  0  0  0  0  0  0  0  0  0
   39.5445   25.0215   -2.3598 C   0  0  0  0  0  0  0  0  0  0  0  0
   38.1247   26.1918    5.6662 O   0  0  0  0  0  0  0  0  0  0  0  0
   38.9801   25.0896   -0.8802 C   0  0  1  0  0  0  0  0  0  0  0  0
   35.9447   26.1178    3.8232 O   0  0  0  0  0  0  0  0  0  0  0  0
   40.0603   24.8629    0.1289 C   0  0  2  0  0  0  0  0  0  0  0  0
   41.1348   20.2676    0.1022 O   0  0  0  0  0  0  0  0  0  0  0  0
   38.6481   23.9633    2.0371 C   0  0  1  0  0  0  0  0  0  0  0  0
   41.9134   19.0490    2.4624 O   0  0  0  0  0  0  0  0  0  0  0  0
   39.4675   24.6631    4.3621 C   0  0  2  0  0  0  0  0  0  0  0  0
   40.1975   24.1211    5.5855 C   0  0  0  0  0  0  0  0  0  0  0  0
   38.0478   25.1612    4.7185 C   0  0  2  0  0  0  0  0  0  0  0  0
   37.3222   25.6569    3.4788 C   0  0  1  0  0  0  0  0  0  0  0  0
   37.2581   24.5076    2.4559 C   0  0  1  0  0  0  0  0  0  0  0  0
   42.2532   20.7451    0.7582 C   0  0  2  0  0  0  0  0  0  0  0  0
   42.9618   19.7609    1.7434 C   0  0  1  0  0  0  0  0  0  0  0  0
  1  3  1  0  0  0  0
  4  1  1  6  0  0  0
  4  6  1  0  0  0  0
  4 31  1  0  0  0  0
  6  7  1  0  0  0  0
  7  9  1  6  0  0  0
  7 30  1  0  0  0  0
  8 26  1  0  0  0  0
 10  9  1  1  0  0  0
 10 13  1  0  0  0  0
 10 21  1  0  0  0  0
 13 12  1  6  0  0  0
 13 15  1  0  0  0  0
 15  2  1  6  0  0  0
 15 17  1  0  0  0  0
 16 25  1  0  0  0  0
 16 23  1  0  0  0  0
 17 19  1  0  0  0  0
 19  5  1  1  0  0  0
 19 21  1  0  0  0  0
 21 14  1  1  0  0  0
 23 14  1  1  0  0  0
 23 29  1  0  0  0  0
 25 26  1  1  0  0  0
 25 27  1  0  0  0  0
 27 18  1  1  0  0  0
 27 28  1  0  0  0  0
 28 20  1  1  0  0  0
 28 29  1  0  0  0  0
 29 11  1  6  0  0  0
 30 22  1  1  0  0  0
 30 31  1  0  0  0  0
 31 24  1  1  0  0  0
M  END
>  <CHROM.1>
58.59891583,-167.57874936,-103.77237438,121.55335574,-44.19100073,78.78856692
40.43395690,23.38827480,1.58205990,-0.30952195,-0.68133075,1.54079061

>  <Name>
ligand

>  <RI>
0

>  <Rbt.Current_Directory>
/home/itssahil/PROJECTS/Mol_Feturizer/New_Systems/rnas/2ET5

>  <Rbt.Executable>
rbdock ($Id: //depot/dev/client3/rdock/2013.1/src/exe/rbdock.cxx#4 $)

>  <Rbt.Library>
libRbt.so (2013.1, Build901 2013/11/27)

>  <Rbt.Parameter_File>
/export/apps/rDock/src/rDock_2013.1_src/data/scripts/dock_solv.prm

>  <Rbt.Receptor>
prm/pocket_docking_4.prm

>  <SCORE>
-2.67823

>  <SCORE.INTER>
-6.69261

>  <SCORE.INTER.CONST>
1

>  <SCORE.INTER.POLAR>
0

>  <SCORE.INTER.ROT>
6

>  <SCORE.INTER.SOLV>
17.5313

>  <SCORE.INTER.VDW>
-17.9055

>  <SCORE.INTER.norm>
-0.215891

>  <SCORE.INTRA>
4.01438

>  <SCORE.INTRA.DIHEDRAL>
5.06476

>  <SCORE.INTRA.DIHEDRAL.0>
11.2357

>  <SCORE.INTRA.POLAR>
0

>  <SCORE.INTRA.POLAR.0>
0

>  <SCORE.INTRA.REPUL>
0

>  <SCORE.INTRA.REPUL.0>
0

>  <SCORE.INTRA.SOLV>
0.334024

>  <SCORE.INTRA.SOLV.lig_0>
-83.3092

>  <SCORE.INTRA.VDW>
1.31498

>  <SCORE.INTRA.VDW.0>
-4.47057

>  <SCORE.INTRA.norm>
0.129496

>  <SCORE.RESTR>
0

>  <SCORE.RESTR.CAVITY>
0

>  <SCORE.RESTR.norm>
0

>  <SCORE.SYSTEM>
0

>  <SCORE.SYSTEM.CONST>
0

>  <SCORE.SYSTEM.DIHEDRAL>
0

>  <SCORE.SYSTEM.SOLV>
0

>  <SCORE.SYSTEM.norm>
0

>  <SCORE.heavy>
31

>  <SCORE.norm>
-0.0863947

>  <RMSD>
5.947

$$$$
ligand
 OpenBabel11021811433D
libRbt.so/2013.1/901 2013/11/27
 31 33  0  0  0  0  0  0  0  0999 V2000
   44.7356   22.7976    2.0397 C   0  0  0  0  0  0  0  0  0  0  0  0
   43.6040   24.3210   -2.5198 N   0  0  0  0  0  0  0  0  0  0  0  0
   46.1004   22.3622    1.9539 O   0  0  0  0  0  0  0  0  0  0  0  0
   43.9718   21.5593    2.5017 C   0  0  1  0  0  0  0  0  0  0  0  0
   42.3007   26.4751    1.8836 N   0  0  0  0  0  0  0  0  0  0  0  0
   42.4691   21.7419    2.6135 O   0  0  0  0  0  0  0  0  0  0  0  0
   41.7629   21.1156    1.6129 C   0  0  1  0  0  0  0  0  0  0  0  0
   43.4908   24.6851    5.6410 N   0  0  0  0  0  0  0  0  0  0  0  0
   40.7867   21.8575    0.9362 O   0  0  0  0  0  0  0  0  0  0  0  0
   41.0514   23.2043    0.3264 C   0  0  2  0  0  0  0  0  0  0  0  0
   37.7135   23.7141    2.9194 N   0  0  0  0  0  0  0  0  0  0  0  0
   41.7150   22.1044   -1.8047 O   0  0  0  0  0  0  0  0  0  0  0  0
   42.1606   23.0405   -0.7545 C   0  0  1  0  0  0  0  0  0  0  0  0
   40.5460   24.3875    2.3698 O   0  0  0  0  0  0  0  0  0  0  0  0
   42.4945   24.4627   -1.4315 C   0  0  1  0  0  0  0  0  0  0  0  0
   41.1130   23.5589    4.5279 O   0  0  0  0  0  0  0  0  0  0  0  0
   42.9706   25.4473   -0.2764 C   0  0  0  0  0  0  0  0  0  0  0  0
   39.7260   26.3908    6.5097 O   0  0  0  0  0  0  0  0  0  0  0  0
   41.8180   25.5480    0.8071 C   0  0  1  0  0  0  0  0  0  0  0  0
   37.3347   25.3831    5.3179 O   0  0  0  0  0  0  0  0  0  0  0  0
   41.5498   24.2227    1.4460 C   0  0  2  0  0  0  0  0  0  0  0  0
   42.3024   19.3314    0.1246 O   0  0  0  0  0  0  0  0  0  0  0  0
   40.1218   23.4596    3.4013 C   0  0  1  0  0  0  0  0  0  0  0  0
   43.8436   19.0832    2.4104 O   0  0  0  0  0  0  0  0  0  0  0  0
   41.1524   24.8951    5.2570 C   0  0  2  0  0  0  0  0  0  0  0  0
   42.2176   24.8557    6.3467 C   0  0  0  0  0  0  0  0  0  0  0  0
   39.7458   25.1575    5.8429 C   0  0  2  0  0  0  0  0  0  0  0  0
   38.6939   25.1499    4.7463 C   0  0  1  0  0  0  0  0  0  0  0  0
   38.7429   23.7879    4.0294 C   0  0  1  0  0  0  0  0  0  0  0  0
   42.8069   20.4756    0.7123 C   0  0  2  0  0  0  0  0  0  0  0  0
   44.0558   20.2980    1.6343 C   0  0  1  0  0  0  0  0  0  0  0  0
  1  3  1  0  0  0  0
  4  1  1  6  0  0  0
  4  6  1  0  0  0  0
  4 31  1  0  0  0  0
  6  7  1  0  0  0  0
  7  9  1  6  0  0  0
  7 30  1  0  0  0  0
  8 26  1  0  0  0  0
 10  9  1  1  0  0  0
 10 13  1  0  0  0  0
 10 21  1  0  0  0  0
 13 12  1  6  0  0  0
 13 15  1  0  0  0  0
 15  2  1  6  0  0  0
 15 17  1  0  0  0  0
 16 25  1  0  0  0  0
 16 23  1  0  0  0  0
 17 19  1  0  0  0  0
 19  5  1  1  0  0  0
 19 21  1  0  0  0  0
 21 14  1  1  0  0  0
 23 14  1  6  0  0  0
 23 29  1  0  0  0  0
 25 26  1  1  0  0  0
 25 27  1  0  0  0  0
 27 18  1  6  0  0  0
 27 28  1  0  0  0  0
 28 20  1  1  0  0  0
 28 29  1  0  0  0  0
 29 11  1  6  0  0  0
 30 22  1  1  0  0  0
 30 31  1  0  0  0  0
 31 24  1  1  0  0  0
M  END
>  <CHROM.1>
-177.39641225,51.48525224,60.72160297,78.27594009,74.65200098,63.84655747
41.71631039,23.35083765,2.30799756,-0.72132227,-0.82054525,1.67829844

>  <Name>
ligand

>  <RI>
0

>  <Rbt.Current_Directory>
/home/itssahil/PROJECTS/Mol_Feturizer/New_Systems/rnas/2ET5

>  <Rbt.Executable>
rbdock ($Id: //depot/dev/client3/rdock/2013.1/src/exe/rbdock.cxx#4 $)

>  <Rbt.Library>
libRbt.so (2013.1, Build901 2013/11/27)

>  <Rbt.Parameter_File>
/export/apps/rDock/src/rDock_2013.1_src/data/scripts/dock_solv.prm

>  <Rbt.Receptor>
prm/pocket_docking_4.prm

>  <SCORE>
-10.4604

>  <SCORE.INTER>
-5.95934

>  <SCORE.INTER.CONST>
1

>  <SCORE.INTER.POLAR>
0

>  <SCORE.INTER.ROT>
6

>  <SCORE.INTER.SOLV>
21.1926

>  <SCORE.INTER.VDW>
-18.6371

>  <SCORE.INTER.norm>
-0.192237

>  <SCORE.INTRA>
-4.50102

>  <SCORE.INTRA.DIHEDRAL>
-8.15217

>  <SCORE.INTRA.DIHEDRAL.0>
11.2357

>  <SCORE.INTRA.POLAR>
0

>  <SCORE.INTRA.POLAR.0>
0

>  <SCORE.INTRA.REPUL>
0.184364

>  <SCORE.INTRA.REPUL.0>
0

>  <SCORE.INTRA.SOLV>
-1.96693

>  <SCORE.INTRA.SOLV.lig_0>
-83.3092

>  <SCORE.INTRA.VDW>
-0.363297

>  <SCORE.INTRA.VDW.0>
-4.47057

>  <SCORE.INTRA.norm>
-0.145194

>  <SCORE.RESTR>
0

>  <SCORE.RESTR.CAVITY>
0

>  <SCORE.RESTR.norm>
0

>  <SCORE.SYSTEM>
0

>  <SCORE.SYSTEM.CONST>
0

>  <SCORE.SYSTEM.DIHEDRAL>
0

>  <SCORE.SYSTEM.SOLV>
0

>  <SCORE.SYSTEM.norm>
0

>  <SCORE.heavy>
31

>  <SCORE.norm>
-0.337431

>  <RMSD>
5.958

$$$$
ligand
 OpenBabel11021811433D
libRbt.so/2013.1/901 2013/11/27
 31 33  0  0  0  0  0  0  0  0999 V2000
   42.2400   19.0400   -0.0955 C   0  0  0  0  0  0  0  0  0  0  0  0
   40.5271   22.3368   -3.9756 N   0  0  0  0  0  0  0  0  0  0  0  0
   42.2519   17.6619    0.3046 O   0  0  0  0  0  0  0  0  0  0  0  0
   43.2870   19.7020    0.7965 C   0  0  1  0  0  0  0  0  0  0  0  0
   38.3731   25.5526   -0.6974 N   0  0  0  0  0  0  0  0  0  0  0  0
   43.6674   21.1149    0.3926 O   0  0  0  0  0  0  0  0  0  0  0  0
   43.1586   22.0818    1.2282 C   0  0  1  0  0  0  0  0  0  0  0  0
   42.4196   25.0475    5.5749 N   0  0  0  0  0  0  0  0  0  0  0  0
   42.5017   23.1726    0.6452 O   0  0  0  0  0  0  0  0  0  0  0  0
   41.2137   23.0471   -0.1171 C   0  0  2  0  0  0  0  0  0  0  0  0
   37.1224   24.9250    1.5791 N   0  0  0  0  0  0  0  0  0  0  0  0
   42.3192   21.4995   -1.7217 O   0  0  0  0  0  0  0  0  0  0  0  0
   41.5564   22.7576   -1.6086 C   0  0  1  0  0  0  0  0  0  0  0  0
   40.0566   24.6252    1.2975 O   0  0  0  0  0  0  0  0  0  0  0  0
   40.2063   22.6284   -2.4764 C   0  0  1  0  0  0  0  0  0  0  0  0
   40.0835   23.4206    3.3502 O   0  0  0  0  0  0  0  0  0  0  0  0
   39.4082   23.9970   -2.3342 C   0  0  0  0  0  0  0  0  0  0  0  0
   39.5376   26.3236    5.6185 O   0  0  0  0  0  0  0  0  0  0  0  0
   39.1178   24.2539   -0.7972 C   0  0  1  0  0  0  0  0  0  0  0  0
   37.0835   26.3486    4.1586 O   0  0  0  0  0  0  0  0  0  0  0  0
   40.3855   24.4048   -0.0183 C   0  0  2  0  0  0  0  0  0  0  0  0
   42.3478   22.0190    3.4706 O   0  0  0  0  0  0  0  0  0  0  0  0
   39.2394   23.7965    2.1637 C   0  0  1  0  0  0  0  0  0  0  0  0
   44.1431   19.9428    3.1127 O   0  0  0  0  0  0  0  0  0  0  0  0
   40.4963   24.5711    4.2581 C   0  0  2  0  0  0  0  0  0  0  0  0
   41.3666   24.0443    5.3933 C   0  0  0  0  0  0  0  0  0  0  0  0
   39.2084   25.2414    4.7899 C   0  0  2  0  0  0  0  0  0  0  0  0
   38.3355   25.7206    3.6421 C   0  0  1  0  0  0  0  0  0  0  0  0
   37.9954   24.5138    2.7479 C   0  0  1  0  0  0  0  0  0  0  0  0
   42.3411   21.3353    2.2699 C   0  0  2  0  0  0  0  0  0  0  0  0
   42.9489   19.8959    2.2792 C   0  0  1  0  0  0  0  0  0  0  0  0
  1  3  1  0  0  0  0
  4  1  1  6  0  0  0
  4  6  1  0  0  0  0
  4 31  1  0  0  0  0
  6  7  1  0  0  0  0
  7  9  1  6  0  0  0
  7 30  1  0  0  0  0
  8 26  1  0  0  0  0
 10  9  1  1  0  0  0
 10 13  1  0  0  0  0
 10 21  1  0  0  0  0
 13 12  1  1  0  0  0
 13 15  1  0  0  0  0
 15  2  1  6  0  0  0
 15 17  1  0  0  0  0
 16 25  1  0  0  0  0
 16 23  1  0  0  0  0
 17 19  1  0  0  0  0
 19  5  1  6  0  0  0
 19 21  1  0  0  0  0
 21 14  1  1  0  0  0
 23 14  1  6  0  0  0
 23 29  1  0  0  0  0
 25 26  1  1  0  0  0
 25 27  1  0  0  0  0
 27 18  1  1  0  0  0
 27 28  1  0  0  0  0
 28 20  1  1  0  0  0
 28 29  1  0  0  0  0
 29 11  1  6  0  0  0
 30 22  1  1  0  0  0
 30 31  1  0  0  0  0
 31 24  1  1  0  0  0
M  END
>  <CHROM.1>
168.60408372,65.48566282,-88.49051190,121.91388779,-61.70933870,140.09267511
40.83542095,23.04234639,1.48918487,-0.81139651,-0.80946520,1.30744791

>  <Name>
ligand

>  <RI>
0

>  <Rbt.Current_Directory>
/home/itssahil/PROJECTS/Mol_Feturizer/New_Systems/rnas/2ET5

>  <Rbt.Executable>
rbdock ($Id: //depot/dev/client3/rdock/2013.1/src/exe/rbdock.cxx#4 $)

>  <Rbt.Library>
libRbt.so (2013.1, Build901 2013/11/27)

>  <Rbt.Parameter_File>
/export/apps/rDock/src/rDock_2013.1_src/data/scripts/dock_solv.prm

>  <Rbt.Receptor>
prm/pocket_docking_2.prm

>  <SCORE>
1.69977

>  <SCORE.INTER>
-3.18008

>  <SCORE.INTER.CONST>
1

>  <SCORE.INTER.POLAR>
0

>  <SCORE.INTER.ROT>
6

>  <SCORE.INTER.SOLV>
19.7526

>  <SCORE.INTER.VDW>
-16.3042

>  <SCORE.INTER.norm>
-0.102583

>  <SCORE.INTRA>
3.93277

>  <SCORE.INTRA.DIHEDRAL>
3.89251

>  <SCORE.INTRA.DIHEDRAL.0>
11.2357

>  <SCORE.INTRA.POLAR>
0

>  <SCORE.INTRA.POLAR.0>
0

>  <SCORE.INTRA.REPUL>
0

>  <SCORE.INTRA.REPUL.0>
0

>  <SCORE.INTRA.SOLV>
2.07981

>  <SCORE.INTRA.SOLV.lig_0>
-83.3092

>  <SCORE.INTRA.VDW>
0.946612

>  <SCORE.INTRA.VDW.0>
-4.47057

>  <SCORE.INTRA.norm>
0.126864

>  <SCORE.RESTR>
0.947086

>  <SCORE.RESTR.CAVITY>
0.947086

>  <SCORE.RESTR.norm>
0.0305512

>  <SCORE.SYSTEM>
0

>  <SCORE.SYSTEM.CONST>
0

>  <SCORE.SYSTEM.DIHEDRAL>
0

>  <SCORE.SYSTEM.SOLV>
0

>  <SCORE.SYSTEM.norm>
0

>  <SCORE.heavy>
31

>  <SCORE.norm>
0.0548313

>  <RMSD>
5.972

$$$$
ligand
 OpenBabel11021811433D
libRbt.so/2013.1/901 2013/11/27
 31 33  0  0  0  0  0  0  0  0999 V2000
   42.0214   24.8305    6.8088 C   0  0  0  0  0  0  0  0  0  0  0  0
   45.0592   22.7524    2.1161 N   0  0  0  0  0  0  0  0  0  0  0  0
   43.3293   24.7151    6.2295 O   0  0  0  0  0  0  0  0  0  0  0  0
   41.2861   25.8043    5.8917 C   0  0  1  0  0  0  0  0  0  0  0  0
   42.2874   25.8190   -0.8236 N   0  0  0  0  0  0  0  0  0  0  0  0
   41.3380   25.4532    4.4159 O   0  0  0  0  0  0  0  0  0  0  0  0
   40.1489   24.9675    3.9238 C   0  0  1  0  0  0  0  0  0  0  0  0
   35.9239   26.6657    0.9609 N   0  0  0  0  0  0  0  0  0  0  0  0
   40.1841   23.7869    3.1714 O   0  0  0  0  0  0  0  0  0  0  0  0
   41.1579   23.5522    2.0522 C   0  0  2  0  0  0  0  0  0  0  0  0
   40.7131   23.2407   -1.6937 N   0  0  0  0  0  0  0  0  0  0  0  0
   42.5062   22.0817    3.5393 O   0  0  0  0  0  0  0  0  0  0  0  0
   42.5586   23.2764    2.6747 C   0  0  1  0  0  0  0  0  0  0  0  0
   40.0063   25.0473    0.5457 O   0  0  0  0  0  0  0  0  0  0  0  0
   43.6470   23.0322    1.5136 C   0  0  1  0  0  0  0  0  0  0  0  0
   37.7076   24.6028    0.1172 O   0  0  0  0  0  0  0  0  0  0  0  0
   43.6797   24.3345    0.6008 C   0  0  0  0  0  0  0  0  0  0  0  0
   37.4002   26.6216   -2.9975 O   0  0  0  0  0  0  0  0  0  0  0  0
   42.2241   24.5824    0.0240 C   0  0  1  0  0  0  0  0  0  0  0  0
   39.2851   24.6530   -3.8496 O   0  0  0  0  0  0  0  0  0  0  0  0
   41.2382   24.8409    1.1184 C   0  0  2  0  0  0  0  0  0  0  0  0
   37.8954   25.1265    4.6894 O   0  0  0  0  0  0  0  0  0  0  0  0
   39.1030   24.0566   -0.0088 C   0  0  1  0  0  0  0  0  0  0  0  0
   39.3192   27.2972    5.6501 O   0  0  0  0  0  0  0  0  0  0  0  0
   37.4083   25.8469   -0.7082 C   0  0  2  0  0  0  0  0  0  0  0  0
   35.9742   26.2985   -0.4571 C   0  0  0  0  0  0  0  0  0  0  0  0
   37.6446   25.4975   -2.1957 C   0  0  2  0  0  0  0  0  0  0  0  0
   39.0666   25.0090   -2.4164 C   0  0  1  0  0  0  0  0  0  0  0  0
   39.3072   23.7798   -1.5205 C   0  0  1  0  0  0  0  0  0  0  0  0
   39.1976   24.9331    5.1089 C   0  0  2  0  0  0  0  0  0  0  0  0
   39.7788   25.9904    6.1017 C   0  0  1  0  0  0  0  0  0  0  0  0
  1  3  1  0  0  0  0
  4  1  1  1  0  0  0
  4  6  1  0  0  0  0
  4 31  1  0  0  0  0
  6  7  1  0  0  0  0
  7  9  1  1  0  0  0
  7 30  1  0  0  0  0
  8 26  1  0  0  0  0
 10  9  1  1  0  0  0
 10 13  1  0  0  0  0
 10 21  1  0  0  0  0
 13 12  1  1  0  0  0
 13 15  1  0  0  0  0
 15  2  1  1  0  0  0
 15 17  1  0  0  0  0
 16 25  1  0  0  0  0
 16 23  1  0  0  0  0
 17 19  1  0  0  0  0
 19  5  1  6  0  0  0
 19 21  1  0  0  0  0
 21 14  1  6  0  0  0
 23 14  1  6  0  0  0
 23 29  1  0  0  0  0
 25 26  1  6  0  0  0
 25 27  1  0  0  0  0
 27 18  1  6  0  0  0
 27 28  1  0  0  0  0
 28 20  1  6  0  0  0
 28 29  1  0  0  0  0
 29 11  1  1  0  0  0
 30 22  1  6  0  0  0
 30 31  1  0  0  0  0
 31 24  1  6  0  0  0
M  END
>  <CHROM.1>
51.57811365,-47.89301073,74.33585951,152.61865684,-41.81693689,63.64427527
40.25406387,24.80120093,1.65820157,1.06481752,-0.41645898,1.43662440

>  <Name>
ligand

>  <RI>
0

>  <Rbt.Current_Directory>
/home/itssahil/PROJECTS/Mol_Feturizer/New_Systems/rnas/2ET5

>  <Rbt.Executable>
rbdock ($Id: //depot/dev/client3/rdock/2013.1/src/exe/rbdock.cxx#4 $)

>  <Rbt.Library>
libRbt.so (2013.1, Build901 2013/11/27)

>  <Rbt.Parameter_File>
/export/apps/rDock/src/rDock_2013.1_src/data/scripts/dock_solv.prm

>  <Rbt.Receptor>
prm/pocket_docking_4.prm

>  <SCORE>
-0.819187

>  <SCORE.INTER>
-0.968206

>  <SCORE.INTER.CONST>
1

>  <SCORE.INTER.POLAR>
0

>  <SCORE.INTER.ROT>
6

>  <SCORE.INTER.SOLV>
13.4098

>  <SCORE.INTER.VDW>
-12.7154

>  <SCORE.INTER.norm>
-0.0312325

>  <SCORE.INTRA>
0.147504

>  <SCORE.INTRA.DIHEDRAL>
-4.56079

>  <SCORE.INTRA.DIHEDRAL.0>
11.2357

>  <SCORE.INTRA.POLAR>
0

>  <SCORE.INTRA.POLAR.0>
0

>  <SCORE.INTRA.REPUL>
0

>  <SCORE.INTRA.REPUL.0>
0

>  <SCORE.INTRA.SOLV>
0.990273

>  <SCORE.INTRA.SOLV.lig_0>
-83.3092

>  <SCORE.INTRA.VDW>
1.93276

>  <SCORE.INTRA.VDW.0>
-4.47057

>  <SCORE.INTRA.norm>
0.0047582

>  <SCORE.RESTR>
0.00151458

>  <SCORE.RESTR.CAVITY>
0.00151458

>  <SCORE.RESTR.norm>
4.88576e-05

>  <SCORE.SYSTEM>
0

>  <SCORE.SYSTEM.CONST>
0

>  <SCORE.SYSTEM.DIHEDRAL>
0

>  <SCORE.SYSTEM.SOLV>
0

>  <SCORE.SYSTEM.norm>
0

>  <SCORE.heavy>
31

>  <SCORE.norm>
-0.0264254

>  <RMSD>
6.002

$$$$
ligand
 OpenBabel11021811433D
libRbt.so/2013.1/901 2013/11/27
 31 33  0  0  0  0  0  0  0  0999 V2000
   44.8350   24.0002    1.4553 C   0  0  0  0  0  0  0  0  0  0  0  0
   42.9841   23.3763   -2.7199 N   0  0  0  0  0  0  0  0  0  0  0  0
   46.2624   23.9889    1.3068 O   0  0  0  0  0  0  0  0  0  0  0  0
   44.5606   22.9753    2.5527 C   0  0  1  0  0  0  0  0  0  0  0  0
   40.9416   26.5416    0.6768 N   0  0  0  0  0  0  0  0  0  0  0  0
   43.0983   22.8203    2.9292 O   0  0  0  0  0  0  0  0  0  0  0  0
   42.5339   21.6516    2.4736 C   0  0  1  0  0  0  0  0  0  0  0  0
   42.5245   26.1484    6.3587 N   0  0  0  0  0  0  0  0  0  0  0  0
   41.3080   21.7340    1.8015 O   0  0  0  0  0  0  0  0  0  0  0  0
   41.0407   22.7110    0.6925 C   0  0  2  0  0  0  0  0  0  0  0  0
   37.3272   23.8796    3.0601 N   0  0  0  0  0  0  0  0  0  0  0  0
   42.0815   21.1422   -0.9346 O   0  0  0  0  0  0  0  0  0  0  0  0
   42.1323   22.5172   -0.4013 C   0  0  1  0  0  0  0  0  0  0  0  0
   40.1148   24.3692    2.1837 O   0  0  0  0  0  0  0  0  0  0  0  0
   41.9006   23.5544   -1.6109 C   0  0  1  0  0  0  0  0  0  0  0  0
   40.8714   23.5280    4.2778 O   0  0  0  0  0  0  0  0  0  0  0  0
   41.9608   25.0239   -1.0051 C   0  0  0  0  0  0  0  0  0  0  0  0
   39.8937   26.4603    6.3554 O   0  0  0  0  0  0  0  0  0  0  0  0
   40.8531   25.1504    0.1217 C   0  0  1  0  0  0  0  0  0  0  0  0
   37.3256   25.5923    5.4577 O   0  0  0  0  0  0  0  0  0  0  0  0
   41.1088   24.2023    1.2497 C   0  0  2  0  0  0  0  0  0  0  0  0
   43.4653   19.5702    1.7739 O   0  0  0  0  0  0  0  0  0  0  0  0
   39.7546   23.4798    3.2719 C   0  0  1  0  0  0  0  0  0  0  0  0
   45.2268   20.7920    3.5249 O   0  0  0  0  0  0  0  0  0  0  0  0
   41.0748   24.8661    4.9753 C   0  0  2  0  0  0  0  0  0  0  0  0
   42.2524   24.7709    5.9385 C   0  0  0  0  0  0  0  0  0  0  0  0
   39.7624   25.2216    5.7114 C   0  0  2  0  0  0  0  0  0  0  0  0
   38.5944   25.2691    4.7406 C   0  0  1  0  0  0  0  0  0  0  0  0
   38.4785   23.8998    4.0457 C   0  0  1  0  0  0  0  0  0  0  0  0
   43.6318   20.9398    1.6999 C   0  0  2  0  0  0  0  0  0  0  0  0
   44.9578   21.5179    2.2906 C   0  0  1  0  0  0  0  0  0  0  0  0
  1  3  1  0  0  0  0
  4  1  1  6  0  0  0
  4  6  1  0  0  0  0
  4 31  1  0  0  0  0
  6  7  1  0  0  0  0
  7  9  1  6  0  0  0
  7 30  1  0  0  0  0
  8 26  1  0  0  0  0
 10  9  1  1  0  0  0
 10 13  1  0  0  0  0
 10 21  1  0  0  0  0
 13 12  1  6  0  0  0
 13 15  1  0  0  0  0
 15  2  1  6  0  0  0
 15 17  1  0  0  0  0
 16 25  1  0  0  0  0
 16 23  1  0  0  0  0
 17 19  1  0  0  0  0
 19  5  1  1  0  0  0
 19 21  1  0  0  0  0
 21 14  1  1  0  0  0
 23 14  1  6  0  0  0
 23 29  1  0  0  0  0
 25 26  1  1  0  0  0
 25 27  1  0  0  0  0
 27 18  1  6  0  0  0
 27 28  1  0  0  0  0
 28 20  1  1  0  0  0
 28 29  1  0  0  0  0
 29 11  1  6  0  0  0
 30 22  1  1  0  0  0
 30 31  1  0  0  0  0
 31 24  1  1  0  0  0
M  END
>  <CHROM.1>
178.53333974,48.27714540,55.00913629,69.65828439,45.97459501,169.54184295
41.72484367,23.58146238,2.42049612,-0.81046567,-0.48572138,1.41243610

>  <Name>
ligand

>  <RI>
0

>  <Rbt.Current_Directory>
/home/itssahil/PROJECTS/Mol_Feturizer/New_Systems/rnas/2ET5

>  <Rbt.Executable>
rbdock ($Id: //depot/dev/client3/rdock/2013.1/src/exe/rbdock.cxx#4 $)

>  <Rbt.Library>
libRbt.so (2013.1, Build901 2013/11/27)

>  <Rbt.Parameter_File>
/export/apps/rDock/src/rDock_2013.1_src/data/scripts/dock_solv.prm

>  <Rbt.Receptor>
prm/pocket_docking_4.prm

>  <SCORE>
-9.91432

>  <SCORE.INTER>
-6.02916

>  <SCORE.INTER.CONST>
1

>  <SCORE.INTER.POLAR>
0

>  <SCORE.INTER.ROT>
6

>  <SCORE.INTER.SOLV>
19.3533

>  <SCORE.INTER.VDW>
-18.0705

>  <SCORE.INTER.norm>
-0.194489

>  <SCORE.INTRA>
-3.88516

>  <SCORE.INTRA.DIHEDRAL>
-8.5679

>  <SCORE.INTRA.DIHEDRAL.0>
11.2357

>  <SCORE.INTRA.POLAR>
0

>  <SCORE.INTRA.POLAR.0>
0

>  <SCORE.INTRA.REPUL>
0.187742

>  <SCORE.INTRA.REPUL.0>
0

>  <SCORE.INTRA.SOLV>
-2.26484

>  <SCORE.INTRA.SOLV.lig_0>
-83.3092

>  <SCORE.INTRA.VDW>
0.5925

>  <SCORE.INTRA.VDW.0>
-4.47057

>  <SCORE.INTRA.norm>
-0.125328

>  <SCORE.RESTR>
0

>  <SCORE.RESTR.CAVITY>
0

>  <SCORE.RESTR.norm>
0

>  <SCORE.SYSTEM>
0

>  <SCORE.SYSTEM.CONST>
0

>  <SCORE.SYSTEM.DIHEDRAL>
0

>  <SCORE.SYSTEM.SOLV>
0

>  <SCORE.SYSTEM.norm>
0

>  <SCORE.heavy>
31

>  <SCORE.norm>
-0.319817

>  <RMSD>
6.006

$$$$
ligand
 OpenBabel11021811433D
libRbt.so/2013.1/901 2013/11/27
 31 33  0  0  0  0  0  0  0  0999 V2000
   44.5519   23.1127    3.4564 C   0  0  0  0  0  0  0  0  0  0  0  0
   42.2308   22.0783   -2.0892 N   0  0  0  0  0  0  0  0  0  0  0  0
   43.7510   21.9227    3.5007 O   0  0  0  0  0  0  0  0  0  0  0  0
   43.5380   24.2530    3.4994 C   0  0  1  0  0  0  0  0  0  0  0  0
   38.3087   25.1413   -1.1074 N   0  0  0  0  0  0  0  0  0  0  0  0
   42.3700   24.1041    2.5414 O   0  0  0  0  0  0  0  0  0  0  0  0
   41.1872   23.7768    3.1628 C   0  0  1  0  0  0  0  0  0  0  0  0
   33.8880   25.1452    3.9082 N   0  0  0  0  0  0  0  0  0  0  0  0
   40.4450   22.7106    2.6396 O   0  0  0  0  0  0  0  0  0  0  0  0
   40.0432   22.6170    1.1954 C   0  0  2  0  0  0  0  0  0  0  0  0
   39.0979   26.9405    1.6393 N   0  0  0  0  0  0  0  0  0  0  0  0
   41.9991   21.1443    0.7511 O   0  0  0  0  0  0  0  0  0  0  0  0
   41.3291   22.3949    0.3453 C   0  0  1  0  0  0  0  0  0  0  0  0
   38.1800   24.1287    1.4678 O   0  0  0  0  0  0  0  0  0  0  0  0
   40.9553   22.3023   -1.2182 C   0  0  1  0  0  0  0  0  0  0  0  0
   36.0205   24.8396    2.1723 O   0  0  0  0  0  0  0  0  0  0  0  0
   40.2362   23.6619   -1.6239 C   0  0  0  0  0  0  0  0  0  0  0  0
   36.8596   25.4540    5.7486 O   0  0  0  0  0  0  0  0  0  0  0  0
   38.9578   23.8495   -0.7057 C   0  0  1  0  0  0  0  0  0  0  0  0
   38.5240   27.4045    4.4918 O   0  0  0  0  0  0  0  0  0  0  0  0
   39.3326   23.9677    0.7372 C   0  0  2  0  0  0  0  0  0  0  0  0
   40.4289   23.9909    5.4141 O   0  0  0  0  0  0  0  0  0  0  0  0
   37.2855   25.2708    1.4829 C   0  0  1  0  0  0  0  0  0  0  0  0
   42.3748   25.9021    4.9427 O   0  0  0  0  0  0  0  0  0  0  0  0
   36.1593   24.4872    3.6472 C   0  0  2  0  0  0  0  0  0  0  0  0
   34.8097   24.0435    4.1996 C   0  0  0  0  0  0  0  0  0  0  0  0
   36.6955   25.7358    4.3848 C   0  0  2  0  0  0  0  0  0  0  0  0
   38.0195   26.1869    3.7909 C   0  0  1  0  0  0  0  0  0  0  0  0
   37.8098   26.4833    2.2944 C   0  0  1  0  0  0  0  0  0  0  0  0
   41.5212   23.6490    4.6401 C   0  0  2  0  0  0  0  0  0  0  0  0
   42.8082   24.5163    4.8217 C   0  0  1  0  0  0  0  0  0  0  0  0
  1  3  1  0  0  0  0
  4  1  1  1  0  0  0
  4  6  1  0  0  0  0
  4 31  1  0  0  0  0
  6  7  1  0  0  0  0
  7  9  1  6  0  0  0
  7 30  1  0  0  0  0
  8 26  1  0  0  0  0
 10  9  1  1  0  0  0
 10 13  1  0  0  0  0
 10 21  1  0  0  0  0
 13 12  1  1  0  0  0
 13 15  1  0  0  0  0
 15  2  1  6  0  0  0
 15 17  1  0  0  0  0
 16 25  1  0  0  0  0
 16 23  1  0  0  0  0
 17 19  1  0  0  0  0
 19  5  1  6  0  0  0
 19 21  1  0  0  0  0
 21 14  1  1  0  0  0
 23 14  1  1  0  0  0
 23 29  1  0  0  0  0
 25 26  1  1  0  0  0
 25 27  1  0  0  0  0
 27 18  1  1  0  0  0
 27 28  1  0  0  0  0
 28 20  1  1  0  0  0
 28 29  1  0  0  0  0
 29 11  1  6  0  0  0
 30 22  1  1  0  0  0
 30 31  1  0  0  0  0
 31 24  1  6  0  0  0
M  END
>  <CHROM.1>
-47.37182846,-52.85143540,68.06493299,166.71866432,173.48508146,-55.52208861
39.68703920,24.22886270,2.43858081,-0.40077044,-0.28823887,1.24397921

>  <Name>
ligand

>  <RI>
0

>  <Rbt.Current_Directory>
/home/itssahil/PROJECTS/Mol_Feturizer/New_Systems/rnas/2ET5

>  <Rbt.Executable>
rbdock ($Id: //depot/dev/client3/rdock/2013.1/src/exe/rbdock.cxx#4 $)

>  <Rbt.Library>
libRbt.so (2013.1, Build901 2013/11/27)

>  <Rbt.Parameter_File>
/export/apps/rDock/src/rDock_2013.1_src/data/scripts/dock_solv.prm

>  <Rbt.Receptor>
prm/pocket_docking_4.prm

>  <SCORE>
-8.44878

>  <SCORE.INTER>
-5.93641

>  <SCORE.INTER.CONST>
1

>  <SCORE.INTER.POLAR>
0

>  <SCORE.INTER.ROT>
6

>  <SCORE.INTER.SOLV>
15.1293

>  <SCORE.INTER.VDW>
-16.6007

>  <SCORE.INTER.norm>
-0.191497

>  <SCORE.INTRA>
-2.51237

>  <SCORE.INTRA.DIHEDRAL>
-8.86757

>  <SCORE.INTRA.DIHEDRAL.0>
11.2357

>  <SCORE.INTRA.POLAR>
0

>  <SCORE.INTRA.POLAR.0>
0

>  <SCORE.INTRA.REPUL>
0

>  <SCORE.INTRA.REPUL.0>
0

>  <SCORE.INTRA.SOLV>
2.23824

>  <SCORE.INTRA.SOLV.lig_0>
-83.3092

>  <SCORE.INTRA.VDW>
0.8023

>  <SCORE.INTRA.VDW.0>
-4.47057

>  <SCORE.INTRA.norm>
-0.0810441

>  <SCORE.RESTR>
0

>  <SCORE.RESTR.CAVITY>
0

>  <SCORE.RESTR.norm>
0

>  <SCORE.SYSTEM>
0

>  <SCORE.SYSTEM.CONST>
0

>  <SCORE.SYSTEM.DIHEDRAL>
0

>  <SCORE.SYSTEM.SOLV>
0

>  <SCORE.SYSTEM.norm>
0

>  <SCORE.heavy>
31

>  <SCORE.norm>
-0.272541

>  <RMSD>
6.008

$$$$
ligand
 OpenBabel11021811433D
libRbt.so/2013.1/901 2013/11/27
 31 33  0  0  0  0  0  0  0  0999 V2000
   42.2628   26.1364    7.4262 C   0  0  0  0  0  0  0  0  0  0  0  0
   44.7734   20.6595    1.4851 N   0  0  0  0  0  0  0  0  0  0  0  0
   42.8037   27.4543    7.2518 O   0  0  0  0  0  0  0  0  0  0  0  0
   41.0221   26.1160    6.5372 C   0  0  1  0  0  0  0  0  0  0  0  0
   40.4863   22.3685   -0.6192 N   0  0  0  0  0  0  0  0  0  0  0  0
   41.3053   26.1482    5.0463 O   0  0  0  0  0  0  0  0  0  0  0  0
   41.0874   24.9436    4.4189 C   0  0  1  0  0  0  0  0  0  0  0  0
   39.4125   27.9306   -1.2649 N   0  0  0  0  0  0  0  0  0  0  0  0
   42.0915   24.4529    3.5750 O   0  0  0  0  0  0  0  0  0  0  0  0
   41.9750   23.1584    2.8223 C   0  0  2  0  0  0  0  0  0  0  0  0
   37.5793   24.5335    3.2766 N   0  0  0  0  0  0  0  0  0  0  0  0
   44.0997   22.3731    3.8521 O   0  0  0  0  0  0  0  0  0  0  0  0
   43.4108   22.6109    2.5689 C   0  0  1  0  0  0  0  0  0  0  0  0
   39.9695   23.8460    1.6664 O   0  0  0  0  0  0  0  0  0  0  0  0
   43.3437   21.2268    1.7490 C   0  0  1  0  0  0  0  0  0  0  0  0
   39.8993   26.0272    0.7165 O   0  0  0  0  0  0  0  0  0  0  0  0
   42.5973   21.5157    0.3744 C   0  0  0  0  0  0  0  0  0  0  0  0
   36.9526   25.4929   -1.4976 O   0  0  0  0  0  0  0  0  0  0  0  0
   41.1591   22.1001    0.6948 C   0  0  1  0  0  0  0  0  0  0  0  0
   35.7354   25.1509    1.0628 O   0  0  0  0  0  0  0  0  0  0  0  0
   41.2474   23.4019    1.4257 C   0  0  2  0  0  0  0  0  0  0  0  0
   39.8030   23.0217    5.0074 O   0  0  0  0  0  0  0  0  0  0  0  0
   39.5304   25.2051    1.9205 C   0  0  1  0  0  0  0  0  0  0  0  0
   38.7180   25.2380    6.2616 O   0  0  0  0  0  0  0  0  0  0  0  0
   39.1801   25.6654   -0.5759 C   0  0  2  0  0  0  0  0  0  0  0  0
   39.6751   26.5583   -1.7078 C   0  0  0  0  0  0  0  0  0  0  0  0
   37.6619   25.8349   -0.3373 C   0  0  2  0  0  0  0  0  0  0  0  0
   37.1974   24.9693    0.8221 C   0  0  1  0  0  0  0  0  0  0  0  0
   37.9962   25.3629    2.0784 C   0  0  1  0  0  0  0  0  0  0  0  0
   40.6574   23.9818    5.5147 C   0  0  2  0  0  0  0  0  0  0  0  0
   40.0860   24.9060    6.6376 C   0  0  1  0  0  0  0  0  0  0  0  0
  1  3  1  0  0  0  0
  4  1  1  1  0  0  0
  4  6  1  0  0  0  0
  4 31  1  0  0  0  0
  6  7  1  0  0  0  0
  7  9  1  1  0  0  0
  7 30  1  0  0  0  0
  8 26  1  0  0  0  0
 10  9  1  6  0  0  0
 10 13  1  0  0  0  0
 10 21  1  0  0  0  0
 13 12  1  1  0  0  0
 13 15  1  0  0  0  0
 15  2  1  6  0  0  0
 15 17  1  0  0  0  0
 16 25  1  0  0  0  0
 16 23  1  0  0  0  0
 17 19  1  0  0  0  0
 19  5  1  6  0  0  0
 19 21  1  0  0  0  0
 21 14  1  1  0  0  0
 23 14  1  6  0  0  0
 23 29  1  0  0  0  0
 25 26  1  6  0  0  0
 25 27  1  0  0  0  0
 27 18  1  6  0  0  0
 27 28  1  0  0  0  0
 28 20  1  1  0  0  0
 28 29  1  0  0  0  0
 29 11  1  1  0  0  0
 30 22  1  6  0  0  0
 30 31  1  0  0  0  0
 31 24  1  6  0  0  0
M  END
>  <CHROM.1>
69.12932685,-179.46456731,-153.47086324,60.14384262,84.68168346,-57.75425255
40.43035835,24.49167543,2.55494611,0.85418173,-0.64130860,1.21521206

>  <Name>
ligand

>  <RI>
0

>  <Rbt.Current_Directory>
/home/itssahil/PROJECTS/Mol_Feturizer/New_Systems/rnas/2ET5

>  <Rbt.Executable>
rbdock ($Id: //depot/dev/client3/rdock/2013.1/src/exe/rbdock.cxx#4 $)

>  <Rbt.Library>
libRbt.so (2013.1, Build901 2013/11/27)

>  <Rbt.Parameter_File>
/export/apps/rDock/src/rDock_2013.1_src/data/scripts/dock_solv.prm

>  <Rbt.Receptor>
prm/pocket_docking_6.prm

>  <SCORE>
-4.50927

>  <SCORE.INTER>
-3.05872

>  <SCORE.INTER.CONST>
1

>  <SCORE.INTER.POLAR>
0

>  <SCORE.INTER.ROT>
6

>  <SCORE.INTER.SOLV>
16.1198

>  <SCORE.INTER.VDW>
-15.0124

>  <SCORE.INTER.norm>
-0.0986684

>  <SCORE.INTRA>
-1.45054

>  <SCORE.INTRA.DIHEDRAL>
-5.22568

>  <SCORE.INTRA.DIHEDRAL.0>
11.2357

>  <SCORE.INTRA.POLAR>
0

>  <SCORE.INTRA.POLAR.0>
0

>  <SCORE.INTRA.REPUL>
0.000495498

>  <SCORE.INTRA.REPUL.0>
0

>  <SCORE.INTRA.SOLV>
1.23165

>  <SCORE.INTRA.SOLV.lig_0>
-83.3092

>  <SCORE.INTRA.VDW>
0.543991

>  <SCORE.INTRA.VDW.0>
-4.47057

>  <SCORE.INTRA.norm>
-0.0467917

>  <SCORE.RESTR>
0

>  <SCORE.RESTR.CAVITY>
0

>  <SCORE.RESTR.norm>
0

>  <SCORE.SYSTEM>
0

>  <SCORE.SYSTEM.CONST>
0

>  <SCORE.SYSTEM.DIHEDRAL>
0

>  <SCORE.SYSTEM.SOLV>
0

>  <SCORE.SYSTEM.norm>
0

>  <SCORE.heavy>
31

>  <SCORE.norm>
-0.14546

>  <RMSD>
6.019

$$$$
ligand
 OpenBabel11021811433D
libRbt.so/2013.1/901 2013/11/27
 31 33  0  0  0  0  0  0  0  0999 V2000
   45.1606   22.1781    1.9990 C   0  0  0  0  0  0  0  0  0  0  0  0
   42.8561   19.2085    1.1046 N   0  0  0  0  0  0  0  0  0  0  0  0
   46.1925   21.6854    2.8661 O   0  0  0  0  0  0  0  0  0  0  0  0
   44.8728   23.5855    2.5150 C   0  0  1  0  0  0  0  0  0  0  0  0
   42.0979   22.5762   -2.6119 N   0  0  0  0  0  0  0  0  0  0  0  0
   43.7068   24.2858    1.8410 O   0  0  0  0  0  0  0  0  0  0  0  0
   42.5850   24.3721    2.6324 C   0  0  1  0  0  0  0  0  0  0  0  0
   38.5567   23.3360    2.7914 N   0  0  0  0  0  0  0  0  0  0  0  0
   41.3601   23.9797    2.0783 O   0  0  0  0  0  0  0  0  0  0  0  0
   41.2217   22.8407    1.1091 C   0  0  2  0  0  0  0  0  0  0  0  0
   39.7491   25.9048   -2.9856 N   0  0  0  0  0  0  0  0  0  0  0  0
   41.6314   21.2246    2.9563 O   0  0  0  0  0  0  0  0  0  0  0  0
   42.0921   21.6555    1.6223 C   0  0  1  0  0  0  0  0  0  0  0  0
   40.9289   24.3040   -0.7892 O   0  0  0  0  0  0  0  0  0  0  0  0
   41.9912   20.4090    0.6081 C   0  0  1  0  0  0  0  0  0  0  0  0
   38.7355   23.9367    0.0586 O   0  0  0  0  0  0  0  0  0  0  0  0
   42.4935   20.9046   -0.8175 C   0  0  0  0  0  0  0  0  0  0  0  0
   38.1733   27.3521    1.4334 O   0  0  0  0  0  0  0  0  0  0  0  0
   41.5944   22.1287   -1.2712 C   0  0  1  0  0  0  0  0  0  0  0  0
   38.4074   27.9542   -1.3481 O   0  0  0  0  0  0  0  0  0  0  0  0
   41.7312   23.2857   -0.3336 C   0  0  2  0  0  0  0  0  0  0  0  0
   42.2531   24.2282    4.9900 O   0  0  0  0  0  0  0  0  0  0  0  0
   39.5338   24.2335   -1.1808 C   0  0  1  0  0  0  0  0  0  0  0  0
   44.8452   25.0688    4.5038 O   0  0  0  0  0  0  0  0  0  0  0  0
   38.7427   25.0237    1.1249 C   0  0  2  0  0  0  0  0  0  0  0  0
   37.9205   24.5718    2.3263 C   0  0  0  0  0  0  0  0  0  0  0  0
   38.1687   26.3125    0.4924 C   0  0  2  0  0  0  0  0  0  0  0  0
   38.9766   26.7213   -0.7280 C   0  0  1  0  0  0  0  0  0  0  0  0
   38.9582   25.5602   -1.7394 C   0  0  1  0  0  0  0  0  0  0  0  0
   42.9443   23.6700    3.9318 C   0  0  2  0  0  0  0  0  0  0  0  0
   44.5037   23.7471    3.9943 C   0  0  1  0  0  0  0  0  0  0  0  0
  1  3  1  0  0  0  0
  4  1  1  6  0  0  0
  4  6  1  0  0  0  0
  4 31  1  0  0  0  0
  6  7  1  0  0  0  0
  7  9  1  6  0  0  0
  7 30  1  0  0  0  0
  8 26  1  0  0  0  0
 10  9  1  1  0  0  0
 10 13  1  0  0  0  0
 10 21  1  0  0  0  0
 13 12  1  1  0  0  0
 13 15  1  0  0  0  0
 15  2  1  1  0  0  0
 15 17  1  0  0  0  0
 16 25  1  0  0  0  0
 16 23  1  0  0  0  0
 17 19  1  0  0  0  0
 19  5  1  6  0  0  0
 19 21  1  0  0  0  0
 21 14  1  6  0  0  0
 23 14  1  1  0  0  0
 23 29  1  0  0  0  0
 25 26  1  1  0  0  0
 25 27  1  0  0  0  0
 27 18  1  1  0  0  0
 27 28  1  0  0  0  0
 28 20  1  6  0  0  0
 28 29  1  0  0  0  0
 29 11  1  6  0  0  0
 30 22  1  1  0  0  0
 30 31  1  0  0  0  0
 31 24  1  6  0  0  0
M  END
>  <CHROM.1>
-174.33901121,35.66485898,43.34569268,67.12645231,-68.49503315,58.99986955
41.40075496,23.77682740,1.11078256,-0.10814912,0.72545583,-2.17146998

>  <Name>
ligand

>  <RI>
0

>  <Rbt.Current_Directory>
/home/itssahil/PROJECTS/Mol_Feturizer/New_Systems/rnas/2ET5

>  <Rbt.Executable>
rbdock ($Id: //depot/dev/client3/rdock/2013.1/src/exe/rbdock.cxx#4 $)

>  <Rbt.Library>
libRbt.so (2013.1, Build901 2013/11/27)

>  <Rbt.Parameter_File>
/export/apps/rDock/src/rDock_2013.1_src/data/scripts/dock_solv.prm

>  <Rbt.Receptor>
prm/pocket_docking_4.prm

>  <SCORE>
-6.69107

>  <SCORE.INTER>
-4.44675

>  <SCORE.INTER.CONST>
1

>  <SCORE.INTER.POLAR>
0

>  <SCORE.INTER.ROT>
6

>  <SCORE.INTER.SOLV>
18.5511

>  <SCORE.INTER.VDW>
-16.7482

>  <SCORE.INTER.norm>
-0.143444

>  <SCORE.INTRA>
-2.24432

>  <SCORE.INTRA.DIHEDRAL>
-6.61243

>  <SCORE.INTRA.DIHEDRAL.0>
11.2357

>  <SCORE.INTRA.POLAR>
0

>  <SCORE.INTRA.POLAR.0>
0

>  <SCORE.INTRA.REPUL>
0

>  <SCORE.INTRA.REPUL.0>
0

>  <SCORE.INTRA.SOLV>
1.25192

>  <SCORE.INTRA.SOLV.lig_0>
-83.3092

>  <SCORE.INTRA.VDW>
0.435936

>  <SCORE.INTRA.VDW.0>
-4.47057

>  <SCORE.INTRA.norm>
-0.0723974

>  <SCORE.RESTR>
0

>  <SCORE.RESTR.CAVITY>
0

>  <SCORE.RESTR.norm>
0

>  <SCORE.SYSTEM>
0

>  <SCORE.SYSTEM.CONST>
0

>  <SCORE.SYSTEM.DIHEDRAL>
0

>  <SCORE.SYSTEM.SOLV>
0

>  <SCORE.SYSTEM.norm>
0

>  <SCORE.heavy>
31

>  <SCORE.norm>
-0.215841

>  <RMSD>
6.028

$$$$
ligand
 OpenBabel11021811433D
libRbt.so/2013.1/901 2013/11/27
 31 33  0  0  0  0  0  0  0  0999 V2000
   42.0423   20.1616    0.2017 C   0  0  0  0  0  0  0  0  0  0  0  0
   39.8705   23.3748   -3.5353 N   0  0  0  0  0  0  0  0  0  0  0  0
   40.7934   20.8279    0.4379 O   0  0  0  0  0  0  0  0  0  0  0  0
   43.0569   20.9595    1.0167 C   0  0  1  0  0  0  0  0  0  0  0  0
   37.1811   25.8994   -0.0537 N   0  0  0  0  0  0  0  0  0  0  0  0
   43.1495   22.4308    0.6552 O   0  0  0  0  0  0  0  0  0  0  0  0
   42.5827   23.2640    1.5915 C   0  0  1  0  0  0  0  0  0  0  0  0
   40.3608   23.3958    6.3415 N   0  0  0  0  0  0  0  0  0  0  0  0
   41.6927   24.2471    1.1411 O   0  0  0  0  0  0  0  0  0  0  0  0
   40.4446   23.9353    0.3660 C   0  0  2  0  0  0  0  0  0  0  0  0
   36.1428   24.6402    2.3194 N   0  0  0  0  0  0  0  0  0  0  0  0
   41.8063   22.7351   -1.3360 O   0  0  0  0  0  0  0  0  0  0  0  0
   40.8228   23.8177   -1.1402 C   0  0  1  0  0  0  0  0  0  0  0  0
   39.0248   25.1689    1.8805 O   0  0  0  0  0  0  0  0  0  0  0  0
   39.5134   23.4981   -2.0211 C   0  0  1  0  0  0  0  0  0  0  0  0
   39.5073   23.9030    3.8374 O   0  0  0  0  0  0  0  0  0  0  0  0
   38.4749   24.6804   -1.7888 C   0  0  0  0  0  0  0  0  0  0  0  0
   38.3474   26.4134    6.3321 O   0  0  0  0  0  0  0  0  0  0  0  0
   38.1545   24.7727   -0.2392 C   0  0  1  0  0  0  0  0  0  0  0  0
   35.8884   25.8505    4.9938 O   0  0  0  0  0  0  0  0  0  0  0  0
   39.3782   25.1044    0.5541 C   0  0  2  0  0  0  0  0  0  0  0  0
   42.0476   22.9789    3.8984 O   0  0  0  0  0  0  0  0  0  0  0  0
   38.5186   24.1009    2.7218 C   0  0  1  0  0  0  0  0  0  0  0  0
   44.1126   21.2564    3.2422 O   0  0  0  0  0  0  0  0  0  0  0  0
   39.6528   25.0691    4.8057 C   0  0  2  0  0  0  0  0  0  0  0  0
   40.7040   24.7363    5.8581 C   0  0  0  0  0  0  0  0  0  0  0  0
   38.2691   25.3312    5.4439 C   0  0  2  0  0  0  0  0  0  0  0  0
   37.2272   25.6183    4.3756 C   0  0  1  0  0  0  0  0  0  0  0  0
   37.1676   24.4172    3.4136 C   0  0  1  0  0  0  0  0  0  0  0  0
   42.0216   22.3497    2.6685 C   0  0  2  0  0  0  0  0  0  0  0  0
   42.8579   21.0367    2.5349 C   0  0  1  0  0  0  0  0  0  0  0  0
  1  3  1  0  0  0  0
  4  1  1  6  0  0  0
  4  6  1  0  0  0  0
  4 31  1  0  0  0  0
  6  7  1  0  0  0  0
  7  9  1  6  0  0  0
  7 30  1  0  0  0  0
  8 26  1  0  0  0  0
 10  9  1  1  0  0  0
 10 13  1  0  0  0  0
 10 21  1  0  0  0  0
 13 12  1  1  0  0  0
 13 15  1  0  0  0  0
 15  2  1  6  0  0  0
 15 17  1  0  0  0  0
 16 25  1  0  0  0  0
 16 23  1  0  0  0  0
 17 19  1  0  0  0  0
 19  5  1  6  0  0  0
 19 21  1  0  0  0  0
 21 14  1  1  0  0  0
 23 14  1  6  0  0  0
 23 29  1  0  0  0  0
 25 26  1  1  0  0  0
 25 27  1  0  0  0  0
 27 18  1  1  0  0  0
 27 28  1  0  0  0  0
 28 20  1  1  0  0  0
 28 29  1  0  0  0  0
 29 11  1  6  0  0  0
 30 22  1  1  0  0  0
 30 31  1  0  0  0  0
 31 24  1  1  0  0  0
M  END
>  <CHROM.1>
-58.30728598,58.03373431,-85.09488493,118.37332280,-54.37222464,-48.36264329
40.05553478,23.73180758,1.98003800,-0.84296876,-0.58624938,1.46818606

>  <Name>
ligand

>  <RI>
0

>  <Rbt.Current_Directory>
/home/itssahil/PROJECTS/Mol_Feturizer/New_Systems/rnas/2ET5

>  <Rbt.Executable>
rbdock ($Id: //depot/dev/client3/rdock/2013.1/src/exe/rbdock.cxx#4 $)

>  <Rbt.Library>
libRbt.so (2013.1, Build901 2013/11/27)

>  <Rbt.Parameter_File>
/export/apps/rDock/src/rDock_2013.1_src/data/scripts/dock_solv.prm

>  <Rbt.Receptor>
prm/pocket_docking_4.prm

>  <SCORE>
0.599295

>  <SCORE.INTER>
-2.22315

>  <SCORE.INTER.CONST>
1

>  <SCORE.INTER.POLAR>
0

>  <SCORE.INTER.ROT>
6

>  <SCORE.INTER.SOLV>
20.0507

>  <SCORE.INTER.VDW>
-15.7657

>  <SCORE.INTER.norm>
-0.0717146

>  <SCORE.INTRA>
2.81934

>  <SCORE.INTRA.DIHEDRAL>
-0.629203

>  <SCORE.INTRA.DIHEDRAL.0>
11.2357

>  <SCORE.INTRA.POLAR>
0

>  <SCORE.INTRA.POLAR.0>
0

>  <SCORE.INTRA.REPUL>
0

>  <SCORE.INTRA.REPUL.0>
0

>  <SCORE.INTRA.SOLV>
4.726

>  <SCORE.INTRA.SOLV.lig_0>
-83.3092

>  <SCORE.INTRA.VDW>
0.770942

>  <SCORE.INTRA.VDW.0>
-4.47057

>  <SCORE.INTRA.norm>
0.0909465

>  <SCORE.RESTR>
0.00310813

>  <SCORE.RESTR.CAVITY>
0.00310813

>  <SCORE.RESTR.norm>
0.000100262

>  <SCORE.SYSTEM>
0

>  <SCORE.SYSTEM.CONST>
0

>  <SCORE.SYSTEM.DIHEDRAL>
0

>  <SCORE.SYSTEM.SOLV>
0

>  <SCORE.SYSTEM.norm>
0

>  <SCORE.heavy>
31

>  <SCORE.norm>
0.0193321

>  <RMSD>
6.031

$$$$
ligand
 OpenBabel11021811433D
libRbt.so/2013.1/901 2013/11/27
 31 33  0  0  0  0  0  0  0  0999 V2000
   43.5137   17.9634    1.5429 C   0  0  0  0  0  0  0  0  0  0  0  0
   42.5694   23.5905   -3.3753 N   0  0  0  0  0  0  0  0  0  0  0  0
   43.3088   17.4807    0.2070 O   0  0  0  0  0  0  0  0  0  0  0  0
   44.2133   19.3072    1.3565 C   0  0  1  0  0  0  0  0  0  0  0  0
   40.2162   26.3241    0.1910 N   0  0  0  0  0  0  0  0  0  0  0  0
   43.4139   20.3406    0.5838 O   0  0  0  0  0  0  0  0  0  0  0  0
   42.9086   21.3476    1.3728 C   0  0  1  0  0  0  0  0  0  0  0  0
   43.0146   26.1029    5.2705 N   0  0  0  0  0  0  0  0  0  0  0  0
   41.5535   21.6725    1.2333 O   0  0  0  0  0  0  0  0  0  0  0  0
   41.0306   22.5799    0.1567 C   0  0  2  0  0  0  0  0  0  0  0  0
   37.4222   23.3818    3.1817 N   0  0  0  0  0  0  0  0  0  0  0  0
   42.2288   21.2305   -1.5566 O   0  0  0  0  0  0  0  0  0  0  0  0
   42.0592   22.5918   -1.0127 C   0  0  1  0  0  0  0  0  0  0  0  0
   39.9187   24.0384    1.7275 O   0  0  0  0  0  0  0  0  0  0  0  0
   41.5528   23.5647   -2.1915 C   0  0  1  0  0  0  0  0  0  0  0  0
   41.1594   23.3137    3.6250 O   0  0  0  0  0  0  0  0  0  0  0  0
   41.3799   25.0208   -1.5748 C   0  0  0  0  0  0  0  0  0  0  0  0
   40.4259   26.2304    5.8216 O   0  0  0  0  0  0  0  0  0  0  0  0
   40.3504   24.9398   -0.3721 C   0  0  1  0  0  0  0  0  0  0  0  0
   37.7981   25.1598    5.5010 O   0  0  0  0  0  0  0  0  0  0  0  0
   40.8578   24.0587    0.7246 C   0  0  2  0  0  0  0  0  0  0  0  0
   43.5039   22.1632    3.5338 O   0  0  0  0  0  0  0  0  0  0  0  0
   39.8627   23.1584    2.8795 C   0  0  1  0  0  0  0  0  0  0  0  0
   45.7274   20.9841    2.3817 O   0  0  0  0  0  0  0  0  0  0  0  0
   41.4051   24.6826    4.2448 C   0  0  2  0  0  0  0  0  0  0  0  0
   42.7627   24.6979    4.9376 C   0  0  0  0  0  0  0  0  0  0  0  0
   40.2543   24.9673    5.2374 C   0  0  2  0  0  0  0  0  0  0  0  0
   38.9079   24.9048    4.5357 C   0  0  1  0  0  0  0  0  0  0  0  0
   38.7504   23.5109    3.9004 C   0  0  1  0  0  0  0  0  0  0  0  0
   43.3342   21.0097    2.7924 C   0  0  2  0  0  0  0  0  0  0  0  0
   44.5921   20.1005    2.6125 C   0  0  1  0  0  0  0  0  0  0  0  0
  1  3  1  0  0  0  0
  4  1  1  1  0  0  0
  4  6  1  0  0  0  0
  4 31  1  0  0  0  0
  6  7  1  0  0  0  0
  7  9  1  1  0  0  0
  7 30  1  0  0  0  0
  8 26  1  0  0  0  0
 10  9  1  1  0  0  0
 10 13  1  0  0  0  0
 10 21  1  0  0  0  0
 13 12  1  6  0  0  0
 13 15  1  0  0  0  0
 15  2  1  6  0  0  0
 15 17  1  0  0  0  0
 16 25  1  0  0  0  0
 16 23  1  0  0  0  0
 17 19  1  0  0  0  0
 19  5  1  1  0  0  0
 19 21  1  0  0  0  0
 21 14  1  1  0  0  0
 23 14  1  6  0  0  0
 23 29  1  0  0  0  0
 25 26  1  1  0  0  0
 25 27  1  0  0  0  0
 27 18  1  6  0  0  0
 27 28  1  0  0  0  0
 28 20  1  1  0  0  0
 28 29  1  0  0  0  0
 29 11  1  6  0  0  0
 30 22  1  1  0  0  0
 30 31  1  0  0  0  0
 31 24  1  6  0  0  0
M  END
>  <CHROM.1>
61.15108614,-82.40117273,22.44318391,56.80643889,50.73043220,169.50675160
41.63170128,22.88728432,1.93723819,-0.65026878,-0.90104632,1.51022680

>  <Name>
ligand

>  <RI>
0

>  <Rbt.Current_Directory>
/home/itssahil/PROJECTS/Mol_Feturizer/New_Systems/rnas/2ET5

>  <Rbt.Executable>
rbdock ($Id: //depot/dev/client3/rdock/2013.1/src/exe/rbdock.cxx#4 $)

>  <Rbt.Library>
libRbt.so (2013.1, Build901 2013/11/27)

>  <Rbt.Parameter_File>
/export/apps/rDock/src/rDock_2013.1_src/data/scripts/dock_solv.prm

>  <Rbt.Receptor>
prm/pocket_docking_3.prm

>  <SCORE>
-4.82292

>  <SCORE.INTER>
-4.59413

>  <SCORE.INTER.CONST>
1

>  <SCORE.INTER.POLAR>
0

>  <SCORE.INTER.ROT>
6

>  <SCORE.INTER.SOLV>
18.1648

>  <SCORE.INTER.VDW>
-16.7177

>  <SCORE.INTER.norm>
-0.148198

>  <SCORE.INTRA>
-0.248113

>  <SCORE.INTRA.DIHEDRAL>
-3.10194

>  <SCORE.INTRA.DIHEDRAL.0>
11.2357

>  <SCORE.INTRA.POLAR>
0

>  <SCORE.INTRA.POLAR.0>
0

>  <SCORE.INTRA.REPUL>
0

>  <SCORE.INTRA.REPUL.0>
0

>  <SCORE.INTRA.SOLV>
-2.47578

>  <SCORE.INTRA.SOLV.lig_0>
-83.3092

>  <SCORE.INTRA.VDW>
2.54075

>  <SCORE.INTRA.VDW.0>
-4.47057

>  <SCORE.INTRA.norm>
-0.00800365

>  <SCORE.RESTR>
0.0193281

>  <SCORE.RESTR.CAVITY>
0.0193281

>  <SCORE.RESTR.norm>
0.000623487

>  <SCORE.SYSTEM>
0

>  <SCORE.SYSTEM.CONST>
0

>  <SCORE.SYSTEM.DIHEDRAL>
0

>  <SCORE.SYSTEM.SOLV>
0

>  <SCORE.SYSTEM.norm>
0

>  <SCORE.heavy>
31

>  <SCORE.norm>
-0.155578

>  <RMSD>
6.043

$$$$
ligand
 OpenBabel11021811433D
libRbt.so/2013.1/901 2013/11/27
 31 33  0  0  0  0  0  0  0  0999 V2000
   34.8230   25.6121    2.9976 C   0  0  0  0  0  0  0  0  0  0  0  0
   37.3215   27.1625    7.5011 N   0  0  0  0  0  0  0  0  0  0  0  0
   33.6586   24.9624    2.4668 O   0  0  0  0  0  0  0  0  0  0  0  0
   35.5585   26.1354    1.7666 C   0  0  1  0  0  0  0  0  0  0  0  0
   41.3077   24.1581    6.5999 N   0  0  0  0  0  0  0  0  0  0  0  0
   36.8088   26.9424    2.0661 O   0  0  0  0  0  0  0  0  0  0  0  0
   37.9766   26.2717    1.7861 C   0  0  1  0  0  0  0  0  0  0  0  0
   44.1126   26.9295    4.4191 N   0  0  0  0  0  0  0  0  0  0  0  0
   38.9741   26.2536    2.7690 O   0  0  0  0  0  0  0  0  0  0  0  0
   38.7832   25.6365    4.1249 C   0  0  2  0  0  0  0  0  0  0  0  0
   40.7752   22.1046    1.7957 N   0  0  0  0  0  0  0  0  0  0  0  0
   36.8542   27.1528    4.5388 O   0  0  0  0  0  0  0  0  0  0  0  0
   38.1596   26.7098    5.0654 C   0  0  1  0  0  0  0  0  0  0  0  0
   40.7055   24.1930    3.8961 O   0  0  0  0  0  0  0  0  0  0  0  0
   37.9473   26.1027    6.5416 C   0  0  1  0  0  0  0  0  0  0  0  0
   42.5404   25.2657    2.8249 O   0  0  0  0  0  0  0  0  0  0  0  0
   39.3691   25.6352    7.0803 C   0  0  0  0  0  0  0  0  0  0  0  0
   45.1766   22.8399    3.8433 O   0  0  0  0  0  0  0  0  0  0  0  0
   39.9668   24.5716    6.0683 C   0  0  1  0  0  0  0  0  0  0  0  0
   43.5314   21.1564    2.2267 O   0  0  0  0  0  0  0  0  0  0  0  0
   40.1874   25.1677    4.7146 C   0  0  2  0  0  0  0  0  0  0  0  0
   38.4748   24.4041    0.3883 O   0  0  0  0  0  0  0  0  0  0  0  0
   41.3583   24.3610    2.6115 C   0  0  1  0  0  0  0  0  0  0  0  0
   36.2089   25.6645   -0.5809 O   0  0  0  0  0  0  0  0  0  0  0  0
   43.6485   24.7074    3.7075 C   0  0  2  0  0  0  0  0  0  0  0  0
   44.7590   25.7410    3.8553 C   0  0  0  0  0  0  0  0  0  0  0  0
   44.1645   23.4046    3.0540 C   0  0  2  0  0  0  0  0  0  0  0  0
   43.0339   22.4048    2.8766 C   0  0  1  0  0  0  0  0  0  0  0  0
   41.9370   23.0536    2.0121 C   0  0  1  0  0  0  0  0  0  0  0  0
   37.5528   24.8984    1.2910 C   0  0  2  0  0  0  0  0  0  0  0  0
   36.0979   25.1105    0.7621 C   0  0  1  0  0  0  0  0  0  0  0  0
  1  3  1  0  0  0  0
  4  1  1  1  0  0  0
  4  6  1  0  0  0  0
  4 31  1  0  0  0  0
  6  7  1  0  0  0  0
  7  9  1  1  0  0  0
  7 30  1  0  0  0  0
  8 26  1  0  0  0  0
 10  9  1  6  0  0  0
 10 13  1  0  0  0  0
 10 21  1  0  0  0  0
 13 12  1  6  0  0  0
 13 15  1  0  0  0  0
 15  2  1  1  0  0  0
 15 17  1  0  0  0  0
 16 25  1  0  0  0  0
 16 23  1  0  0  0  0
 17 19  1  0  0  0  0
 19  5  1  1  0  0  0
 19 21  1  0  0  0  0
 21 14  1  6  0  0  0
 23 14  1  1  0  0  0
 23 29  1  0  0  0  0
 25 26  1  6  0  0  0
 25 27  1  0  0  0  0
 27 18  1  1  0  0  0
 27 28  1  0  0  0  0
 28 20  1  6  0  0  0
 28 29  1  0  0  0  0
 29 11  1  1  0  0  0
 30 22  1  6  0  0  0
 30 31  1  0  0  0  0
 31 24  1  6  0  0  0
M  END
>  <CHROM.1>
176.78617051,61.90280180,-86.97815686,58.09283678,77.44872352,57.68526675
39.71445158,24.98899097,3.34914855,-3.13768174,-0.30763415,1.16998825

>  <Name>
ligand

>  <RI>
0

>  <Rbt.Current_Directory>
/home/itssahil/PROJECTS/Mol_Feturizer/New_Systems/rnas/2ET5

>  <Rbt.Executable>
rbdock ($Id: //depot/dev/client3/rdock/2013.1/src/exe/rbdock.cxx#4 $)

>  <Rbt.Library>
libRbt.so (2013.1, Build901 2013/11/27)

>  <Rbt.Parameter_File>
/export/apps/rDock/src/rDock_2013.1_src/data/scripts/dock_solv.prm

>  <Rbt.Receptor>
prm/pocket_docking_5.prm

>  <SCORE>
-7.1099

>  <SCORE.INTER>
-3.73137

>  <SCORE.INTER.CONST>
1

>  <SCORE.INTER.POLAR>
0

>  <SCORE.INTER.ROT>
6

>  <SCORE.INTER.SOLV>
14.4428

>  <SCORE.INTER.VDW>
-14.9018

>  <SCORE.INTER.norm>
-0.120367

>  <SCORE.INTRA>
-3.37853

>  <SCORE.INTRA.DIHEDRAL>
-6.57467

>  <SCORE.INTRA.DIHEDRAL.0>
11.2357

>  <SCORE.INTRA.POLAR>
0

>  <SCORE.INTRA.POLAR.0>
0

>  <SCORE.INTRA.REPUL>
0

>  <SCORE.INTRA.REPUL.0>
0

>  <SCORE.INTRA.SOLV>
-2.11658

>  <SCORE.INTRA.SOLV.lig_0>
-83.3092

>  <SCORE.INTRA.VDW>
0.967095

>  <SCORE.INTRA.VDW.0>
-4.47057

>  <SCORE.INTRA.norm>
-0.108985

>  <SCORE.RESTR>
0

>  <SCORE.RESTR.CAVITY>
0

>  <SCORE.RESTR.norm>
0

>  <SCORE.SYSTEM>
0

>  <SCORE.SYSTEM.CONST>
0

>  <SCORE.SYSTEM.DIHEDRAL>
0

>  <SCORE.SYSTEM.SOLV>
0

>  <SCORE.SYSTEM.norm>
0

>  <SCORE.heavy>
31

>  <SCORE.norm>
-0.229352

>  <RMSD>
6.044

$$$$
ligand
 OpenBabel11021811433D
libRbt.so/2013.1/901 2013/11/27
 31 33  0  0  0  0  0  0  0  0999 V2000
   38.6011   29.4953    0.3685 C   0  0  0  0  0  0  0  0  0  0  0  0
   45.6267   26.7900   -2.3085 N   0  0  0  0  0  0  0  0  0  0  0  0
   38.0150   30.8052    0.3824 O   0  0  0  0  0  0  0  0  0  0  0  0
   39.3378   29.3963    1.7018 C   0  0  1  0  0  0  0  0  0  0  0  0
   45.6298   23.8072    1.7941 N   0  0  0  0  0  0  0  0  0  0  0  0
   39.9359   28.0335    2.0001 O   0  0  0  0  0  0  0  0  0  0  0  0
   41.3057   27.9957    1.8800 C   0  0  1  0  0  0  0  0  0  0  0  0
   42.4903   26.8142    6.8705 N   0  0  0  0  0  0  0  0  0  0  0  0
   41.8694   26.9579    1.1272 O   0  0  0  0  0  0  0  0  0  0  0  0
   43.3504   26.7724    0.9598 C   0  0  2  0  0  0  0  0  0  0  0  0
   42.8860   22.4865    2.0256 N   0  0  0  0  0  0  0  0  0  0  0  0
   43.2976   28.2142   -1.0675 O   0  0  0  0  0  0  0  0  0  0  0  0
   43.6875   26.8859   -0.5565 C   0  0  1  0  0  0  0  0  0  0  0  0
   43.5181   25.2646    2.8385 O   0  0  0  0  0  0  0  0  0  0  0  0
   45.2665   26.6788   -0.7941 C   0  0  1  0  0  0  0  0  0  0  0  0
   43.3581   24.5856    5.1141 O   0  0  0  0  0  0  0  0  0  0  0  0
   45.6545   25.2415   -0.2340 C   0  0  0  0  0  0  0  0  0  0  0  0
   39.6503   24.2666    5.2610 O   0  0  0  0  0  0  0  0  0  0  0  0
   45.2591   25.1745    1.2996 C   0  0  1  0  0  0  0  0  0  0  0  0
   40.2606   22.2429    3.3410 O   0  0  0  0  0  0  0  0  0  0  0  0
   43.7847   25.3347    1.4923 C   0  0  2  0  0  0  0  0  0  0  0  0
   42.9803   29.6939    1.9131 O   0  0  0  0  0  0  0  0  0  0  0  0
   43.6503   24.1165    3.7155 C   0  0  1  0  0  0  0  0  0  0  0  0
   40.7787   30.5842    3.3352 O   0  0  0  0  0  0  0  0  0  0  0  0
   41.9323   25.0554    5.3688 C   0  0  2  0  0  0  0  0  0  0  0  0
   41.7951   25.5251    6.8124 C   0  0  0  0  0  0  0  0  0  0  0  0
   40.9818   23.8757    5.0596 C   0  0  2  0  0  0  0  0  0  0  0  0
   41.1650   23.3950    3.6297 C   0  0  1  0  0  0  0  0  0  0  0  0
   42.6349   22.9785    3.4371 C   0  0  1  0  0  0  0  0  0  0  0  0
   41.7179   29.3911    1.4401 C   0  0  2  0  0  0  0  0  0  0  0  0
   40.5494   30.3093    1.9228 C   0  0  1  0  0  0  0  0  0  0  0  0
  1  3  1  0  0  0  0
  4  1  1  6  0  0  0
  4  6  1  0  0  0  0
  4 31  1  0  0  0  0
  6  7  1  0  0  0  0
  7  9  1  6  0  0  0
  7 30  1  0  0  0  0
  8 26  1  0  0  0  0
 10  9  1  6  0  0  0
 10 13  1  0  0  0  0
 10 21  1  0  0  0  0
 13 12  1  1  0  0  0
 13 15  1  0  0  0  0
 15  2  1  6  0  0  0
 15 17  1  0  0  0  0
 16 25  1  0  0  0  0
 16 23  1  0  0  0  0
 17 19  1  0  0  0  0
 19  5  1  6  0  0  0
 19 21  1  0  0  0  0
 21 14  1  1  0  0  0
 23 14  1  6  0  0  0
 23 29  1  0  0  0  0
 25 26  1  1  0  0  0
 25 27  1  0  0  0  0
 27 18  1  6  0  0  0
 27 28  1  0  0  0  0
 28 20  1  1  0  0  0
 28 29  1  0  0  0  0
 29 11  1  6  0  0  0
 30 22  1  1  0  0  0
 30 31  1  0  0  0  0
 31 24  1  1  0  0  0
M  END
>  <CHROM.1>
174.02915767,-177.67129534,-118.97914491,174.90542508,174.66849183,73.61547184
42.24179881,26.42779646,2.27212014,1.92369779,0.69578046,-0.74203330

>  <Name>
ligand

>  <RI>
0

>  <Rbt.Current_Directory>
/home/itssahil/PROJECTS/Mol_Feturizer/New_Systems/rnas/2ET5

>  <Rbt.Executable>
rbdock ($Id: //depot/dev/client3/rdock/2013.1/src/exe/rbdock.cxx#4 $)

>  <Rbt.Library>
libRbt.so (2013.1, Build901 2013/11/27)

>  <Rbt.Parameter_File>
/export/apps/rDock/src/rDock_2013.1_src/data/scripts/dock_solv.prm

>  <Rbt.Receptor>
prm/pocket_docking_8.prm

>  <SCORE>
-3.70082

>  <SCORE.INTER>
-3.75978

>  <SCORE.INTER.CONST>
1

>  <SCORE.INTER.POLAR>
0

>  <SCORE.INTER.ROT>
6

>  <SCORE.INTER.SOLV>
12.709

>  <SCORE.INTER.VDW>
-14.3429

>  <SCORE.INTER.norm>
-0.121283

>  <SCORE.INTRA>
0.0589569

>  <SCORE.INTRA.DIHEDRAL>
-2.83766

>  <SCORE.INTRA.DIHEDRAL.0>
11.2357

>  <SCORE.INTRA.POLAR>
0

>  <SCORE.INTRA.POLAR.0>
0

>  <SCORE.INTRA.REPUL>
0

>  <SCORE.INTRA.REPUL.0>
0

>  <SCORE.INTRA.SOLV>
-0.139794

>  <SCORE.INTRA.SOLV.lig_0>
-83.3092

>  <SCORE.INTRA.VDW>
1.54768

>  <SCORE.INTRA.VDW.0>
-4.47057

>  <SCORE.INTRA.norm>
0.00190184

>  <SCORE.RESTR>
0

>  <SCORE.RESTR.CAVITY>
0

>  <SCORE.RESTR.norm>
0

>  <SCORE.SYSTEM>
0

>  <SCORE.SYSTEM.CONST>
0

>  <SCORE.SYSTEM.DIHEDRAL>
0

>  <SCORE.SYSTEM.SOLV>
0

>  <SCORE.SYSTEM.norm>
0

>  <SCORE.heavy>
31

>  <SCORE.norm>
-0.119381

>  <RMSD>
6.064

$$$$
ligand
 OpenBabel11021811433D
libRbt.so/2013.1/901 2013/11/27
 31 33  0  0  0  0  0  0  0  0999 V2000
   42.7598   17.5173    1.9005 C   0  0  0  0  0  0  0  0  0  0  0  0
   41.6318   23.6300   -2.9907 N   0  0  0  0  0  0  0  0  0  0  0  0
   42.2546   16.9003    0.7073 O   0  0  0  0  0  0  0  0  0  0  0  0
   43.6340   18.6614    1.3938 C   0  0  1  0  0  0  0  0  0  0  0  0
   37.8636   24.5431    0.2797 N   0  0  0  0  0  0  0  0  0  0  0  0
   42.8767   19.7951    0.7265 O   0  0  0  0  0  0  0  0  0  0  0  0
   42.8048   20.9349    1.4932 C   0  0  1  0  0  0  0  0  0  0  0  0
   41.9506   24.3734    5.4888 N   0  0  0  0  0  0  0  0  0  0  0  0
   41.5515   21.5390    1.6538 O   0  0  0  0  0  0  0  0  0  0  0  0
   40.6872   21.9618    0.5005 C   0  0  2  0  0  0  0  0  0  0  0  0
   36.6352   24.3348    2.7840 N   0  0  0  0  0  0  0  0  0  0  0  0
   42.5733   21.5329   -1.0648 O   0  0  0  0  0  0  0  0  0  0  0  0
   41.6082   22.5516   -0.6083 C   0  0  1  0  0  0  0  0  0  0  0  0
   38.8194   22.5277    1.9225 O   0  0  0  0  0  0  0  0  0  0  0  0
   40.7274   23.0360   -1.8661 C   0  0  1  0  0  0  0  0  0  0  0  0
   39.9804   23.0482    3.9341 O   0  0  0  0  0  0  0  0  0  0  0  0
   39.6992   24.1310   -1.3425 C   0  0  0  0  0  0  0  0  0  0  0  0
   41.0391   26.4946    3.0000 O   0  0  0  0  0  0  0  0  0  0  0  0
   38.8147   23.4848   -0.1967 C   0  0  1  0  0  0  0  0  0  0  0  0
   38.2021   26.8193    3.0158 O   0  0  0  0  0  0  0  0  0  0  0  0
   39.6498   23.0748    0.9742 C   0  0  2  0  0  0  0  0  0  0  0  0
   44.0974   21.7318    3.3327 O   0  0  0  0  0  0  0  0  0  0  0  0
   38.6228   22.9610    3.2931 C   0  0  1  0  0  0  0  0  0  0  0  0
   45.6626   20.0264    1.8149 O   0  0  0  0  0  0  0  0  0  0  0  0
   40.9128   24.1088    3.3645 C   0  0  2  0  0  0  0  0  0  0  0  0
   42.2527   24.0592    4.0895 C   0  0  0  0  0  0  0  0  0  0  0  0
   40.2248   25.4835    3.5299 C   0  0  2  0  0  0  0  0  0  0  0  0
   38.8725   25.4976    2.8368 C   0  0  1  0  0  0  0  0  0  0  0  0
   38.0037   24.3753    3.4343 C   0  0  1  0  0  0  0  0  0  0  0  0
   43.5158   20.6000    2.7943 C   0  0  2  0  0  0  0  0  0  0  0  0
   44.4786   19.4284    2.4179 C   0  0  1  0  0  0  0  0  0  0  0  0
  1  3  1  0  0  0  0
  4  1  1  1  0  0  0
  4  6  1  0  0  0  0
  4 31  1  0  0  0  0
  6  7  1  0  0  0  0
  7  9  1  1  0  0  0
  7 30  1  0  0  0  0
  8 26  1  0  0  0  0
 10  9  1  1  0  0  0
 10 13  1  0  0  0  0
 10 21  1  0  0  0  0
 13 12  1  6  0  0  0
 13 15  1  0  0  0  0
 15  2  1  6  0  0  0
 15 17  1  0  0  0  0
 16 25  1  0  0  0  0
 16 23  1  0  0  0  0
 17 19  1  0  0  0  0
 19  5  1  1  0  0  0
 19 21  1  0  0  0  0
 21 14  1  1  0  0  0
 23 14  1  6  0  0  0
 23 29  1  0  0  0  0
 25 26  1  1  0  0  0
 25 27  1  0  0  0  0
 27 18  1  6  0  0  0
 27 28  1  0  0  0  0
 28 20  1  1  0  0  0
 28 29  1  0  0  0  0
 29 11  1  6  0  0  0
 30 22  1  6  0  0  0
 30 31  1  0  0  0  0
 31 24  1  6  0  0  0
M  END
>  <CHROM.1>
68.36476474,-55.22962923,-38.79149739,-52.57177736,120.62840742,-62.15336934
41.08000198,22.52948604,1.70745788,-0.45346675,-0.80343854,1.18216772

>  <Name>
ligand

>  <RI>
0

>  <Rbt.Current_Directory>
/home/itssahil/PROJECTS/Mol_Feturizer/New_Systems/rnas/2ET5

>  <Rbt.Executable>
rbdock ($Id: //depot/dev/client3/rdock/2013.1/src/exe/rbdock.cxx#4 $)

>  <Rbt.Library>
libRbt.so (2013.1, Build901 2013/11/27)

>  <Rbt.Parameter_File>
/export/apps/rDock/src/rDock_2013.1_src/data/scripts/dock_solv.prm

>  <Rbt.Receptor>
prm/pocket_docking_2.prm

>  <SCORE>
-0.97653

>  <SCORE.INTER>
-5.43357

>  <SCORE.INTER.CONST>
1

>  <SCORE.INTER.POLAR>
0

>  <SCORE.INTER.ROT>
6

>  <SCORE.INTER.SOLV>
19.1363

>  <SCORE.INTER.VDW>
-17.6011

>  <SCORE.INTER.norm>
-0.175277

>  <SCORE.INTRA>
3.67938

>  <SCORE.INTRA.DIHEDRAL>
-1.27879

>  <SCORE.INTRA.DIHEDRAL.0>
11.2357

>  <SCORE.INTRA.POLAR>
0

>  <SCORE.INTRA.POLAR.0>
0

>  <SCORE.INTRA.REPUL>
0

>  <SCORE.INTRA.REPUL.0>
0

>  <SCORE.INTRA.SOLV>
3.89182

>  <SCORE.INTRA.SOLV.lig_0>
-83.3092

>  <SCORE.INTRA.VDW>
2.37287

>  <SCORE.INTRA.VDW.0>
-4.47057

>  <SCORE.INTRA.norm>
0.11869

>  <SCORE.RESTR>
0.777662

>  <SCORE.RESTR.CAVITY>
0.777662

>  <SCORE.RESTR.norm>
0.0250859

>  <SCORE.SYSTEM>
0

>  <SCORE.SYSTEM.CONST>
0

>  <SCORE.SYSTEM.DIHEDRAL>
0

>  <SCORE.SYSTEM.SOLV>
0

>  <SCORE.SYSTEM.norm>
0

>  <SCORE.heavy>
31

>  <SCORE.norm>
-0.031501

>  <RMSD>
6.071

$$$$
ligand
 OpenBabel11021811433D
libRbt.so/2013.1/901 2013/11/27
 31 33  0  0  0  0  0  0  0  0999 V2000
   45.0495   23.2248    2.3286 C   0  0  0  0  0  0  0  0  0  0  0  0
   43.4547   24.1600   -2.3993 N   0  0  0  0  0  0  0  0  0  0  0  0
   44.8173   24.2031    3.3526 O   0  0  0  0  0  0  0  0  0  0  0  0
   44.4475   21.9393    2.8900 C   0  0  1  0  0  0  0  0  0  0  0  0
   42.4042   26.6069    1.9178 N   0  0  0  0  0  0  0  0  0  0  0  0
   42.9426   21.9721    3.0852 O   0  0  0  0  0  0  0  0  0  0  0  0
   42.2513   21.2275    2.1580 C   0  0  1  0  0  0  0  0  0  0  0  0
   42.4797   26.2217    7.3092 N   0  0  0  0  0  0  0  0  0  0  0  0
   41.1659   21.8306    1.5103 O   0  0  0  0  0  0  0  0  0  0  0  0
   41.2693   23.1322    0.7680 C   0  0  2  0  0  0  0  0  0  0  0  0
   38.0345   23.7131    3.1993 N   0  0  0  0  0  0  0  0  0  0  0  0
   41.8148   21.8931   -1.3199 O   0  0  0  0  0  0  0  0  0  0  0  0
   42.2829   22.9478   -0.4000 C   0  0  1  0  0  0  0  0  0  0  0  0
   40.8665   24.4568    2.7464 O   0  0  0  0  0  0  0  0  0  0  0  0
   42.4432   24.3230   -1.2221 C   0  0  1  0  0  0  0  0  0  0  0  0
   41.3909   23.5849    4.8981 O   0  0  0  0  0  0  0  0  0  0  0  0
   42.9477   25.4373   -0.2053 C   0  0  0  0  0  0  0  0  0  0  0  0
   39.8916   26.3370    6.9103 O   0  0  0  0  0  0  0  0  0  0  0  0
   41.8960   25.5562    0.9748 C   0  0  1  0  0  0  0  0  0  0  0  0
   37.5554   25.3123    5.6271 O   0  0  0  0  0  0  0  0  0  0  0  0
   41.7901   24.2785    1.7446 C   0  0  2  0  0  0  0  0  0  0  0  0
   42.8913   19.4361    0.7190 O   0  0  0  0  0  0  0  0  0  0  0  0
   40.4334   23.4946    3.7421 C   0  0  1  0  0  0  0  0  0  0  0  0
   44.5761   19.4617    2.9151 O   0  0  0  0  0  0  0  0  0  0  0  0
   41.3826   24.9026    5.6612 C   0  0  2  0  0  0  0  0  0  0  0  0
   42.4180   24.8567    6.7790 C   0  0  0  0  0  0  0  0  0  0  0  0
   39.9553   25.1217    6.2138 C   0  0  2  0  0  0  0  0  0  0  0  0
   38.9344   25.1211    5.0882 C   0  0  1  0  0  0  0  0  0  0  0  0
   39.0313   23.7791    4.3392 C   0  0  1  0  0  0  0  0  0  0  0  0
   43.3047   20.6539    1.2242 C   0  0  2  0  0  0  0  0  0  0  0  0
   44.6152   20.6516    2.0751 C   0  0  1  0  0  0  0  0  0  0  0  0
  1  3  1  0  0  0  0
  4  1  1  6  0  0  0
  4  6  1  0  0  0  0
  4 31  1  0  0  0  0
  6  7  1  0  0  0  0
  7  9  1  6  0  0  0
  7 30  1  0  0  0  0
  8 26  1  0  0  0  0
 10  9  1  1  0  0  0
 10 13  1  0  0  0  0
 10 21  1  0  0  0  0
 13 12  1  6  0  0  0
 13 15  1  0  0  0  0
 15  2  1  6  0  0  0
 15 17  1  0  0  0  0
 16 25  1  0  0  0  0
 16 23  1  0  0  0  0
 17 19  1  0  0  0  0
 19  5  1  1  0  0  0
 19 21  1  0  0  0  0
 21 14  1  1  0  0  0
 23 14  1  6  0  0  0
 23 29  1  0  0  0  0
 25 26  1  1  0  0  0
 25 27  1  0  0  0  0
 27 18  1  6  0  0  0
 27 28  1  0  0  0  0
 28 20  1  1  0  0  0
 28 29  1  0  0  0  0
 29 11  1  6  0  0  0
 30 22  1  1  0  0  0
 30 31  1  0  0  0  0
 31 24  1  1  0  0  0
M  END
>  <CHROM.1>
65.04118464,54.67905167,61.40181505,86.74068848,61.96632884,171.41017700
41.89588759,23.51739511,2.75093135,-0.86271128,-0.80908869,1.58191344

>  <Name>
ligand

>  <RI>
0

>  <Rbt.Current_Directory>
/home/itssahil/PROJECTS/Mol_Feturizer/New_Systems/rnas/2ET5

>  <Rbt.Executable>
rbdock ($Id: //depot/dev/client3/rdock/2013.1/src/exe/rbdock.cxx#4 $)

>  <Rbt.Library>
libRbt.so (2013.1, Build901 2013/11/27)

>  <Rbt.Parameter_File>
/export/apps/rDock/src/rDock_2013.1_src/data/scripts/dock_solv.prm

>  <Rbt.Receptor>
prm/pocket_docking_4.prm

>  <SCORE>
-10.7294

>  <SCORE.INTER>
-7.6328

>  <SCORE.INTER.CONST>
1

>  <SCORE.INTER.POLAR>
0

>  <SCORE.INTER.ROT>
6

>  <SCORE.INTER.SOLV>
19.6198

>  <SCORE.INTER.VDW>
-19.2285

>  <SCORE.INTER.norm>
-0.246219

>  <SCORE.INTRA>
-3.09664

>  <SCORE.INTRA.DIHEDRAL>
-7.61514

>  <SCORE.INTRA.DIHEDRAL.0>
11.2357

>  <SCORE.INTRA.POLAR>
0

>  <SCORE.INTRA.POLAR.0>
0

>  <SCORE.INTRA.REPUL>
0.2201

>  <SCORE.INTRA.REPUL.0>
0

>  <SCORE.INTRA.SOLV>
-0.450538

>  <SCORE.INTRA.SOLV.lig_0>
-83.3092

>  <SCORE.INTRA.VDW>
-0.164299

>  <SCORE.INTRA.VDW.0>
-4.47057

>  <SCORE.INTRA.norm>
-0.0998915

>  <SCORE.RESTR>
0

>  <SCORE.RESTR.CAVITY>
0

>  <SCORE.RESTR.norm>
0

>  <SCORE.SYSTEM>
0

>  <SCORE.SYSTEM.CONST>
0

>  <SCORE.SYSTEM.DIHEDRAL>
0

>  <SCORE.SYSTEM.SOLV>
0

>  <SCORE.SYSTEM.norm>
0

>  <SCORE.heavy>
31

>  <SCORE.norm>
-0.346111

>  <RMSD>
6.074

$$$$
ligand
 OpenBabel11021811433D
libRbt.so/2013.1/901 2013/11/27
 31 33  0  0  0  0  0  0  0  0999 V2000
   35.1322   26.8904    1.1815 C   0  0  0  0  0  0  0  0  0  0  0  0
   37.0040   26.9909    7.5764 N   0  0  0  0  0  0  0  0  0  0  0  0
   34.4664   27.4701    2.3130 O   0  0  0  0  0  0  0  0  0  0  0  0
   36.5756   27.3717    1.3045 C   0  0  1  0  0  0  0  0  0  0  0  0
   41.7772   25.6951    6.4511 N   0  0  0  0  0  0  0  0  0  0  0  0
   37.2965   26.9116    2.5586 O   0  0  0  0  0  0  0  0  0  0  0  0
   38.2337   25.9319    2.3262 C   0  0  1  0  0  0  0  0  0  0  0  0
   45.1531   25.9650    2.1952 N   0  0  0  0  0  0  0  0  0  0  0  0
   38.2075   24.7932    3.1411 O   0  0  0  0  0  0  0  0  0  0  0  0
   38.5338   24.8216    4.6069 C   0  0  2  0  0  0  0  0  0  0  0  0
   40.7842   21.9213    2.4698 N   0  0  0  0  0  0  0  0  0  0  0  0
   36.1904   25.4893    5.1113 O   0  0  0  0  0  0  0  0  0  0  0  0
   37.6053   25.8672    5.2927 C   0  0  1  0  0  0  0  0  0  0  0  0
   40.8618   24.2924    4.2447 O   0  0  0  0  0  0  0  0  0  0  0  0
   37.9251   25.9487    6.8687 C   0  0  1  0  0  0  0  0  0  0  0  0
   42.5807   25.2042    2.8739 O   0  0  0  0  0  0  0  0  0  0  0  0
   39.4540   26.3569    7.0305 C   0  0  0  0  0  0  0  0  0  0  0  0
   45.3329   22.9608    3.9980 O   0  0  0  0  0  0  0  0  0  0  0  0
   40.3454   25.2776    6.2867 C   0  0  1  0  0  0  0  0  0  0  0  0
   43.5821   21.0549    2.7911 O   0  0  0  0  0  0  0  0  0  0  0  0
   40.0552   25.2446    4.8200 C   0  0  2  0  0  0  0  0  0  0  0  0
   39.4000   25.2412    0.3636 O   0  0  0  0  0  0  0  0  0  0  0  0
   41.3991   24.2742    2.8973 C   0  0  1  0  0  0  0  0  0  0  0  0
   38.6681   27.8954    0.0787 O   0  0  0  0  0  0  0  0  0  0  0  0
   43.7692   24.7837    3.7278 C   0  0  2  0  0  0  0  0  0  0  0  0
   44.8716   25.8315    3.6274 C   0  0  0  0  0  0  0  0  0  0  0  0
   44.2479   23.4015    3.2267 C   0  0  2  0  0  0  0  0  0  0  0  0
   43.1223   22.3828    3.2948 C   0  0  1  0  0  0  0  0  0  0  0  0
   41.9451   22.8955    2.4447 C   0  0  1  0  0  0  0  0  0  0  0  0
   38.1652   25.6435    0.8354 C   0  0  2  0  0  0  0  0  0  0  0  0
   37.5693   26.9486    0.2164 C   0  0  1  0  0  0  0  0  0  0  0  0
  1  3  1  0  0  0  0
  4  1  1  6  0  0  0
  4  6  1  0  0  0  0
  4 31  1  0  0  0  0
  6  7  1  0  0  0  0
  7  9  1  1  0  0  0
  7 30  1  0  0  0  0
  8 26  1  0  0  0  0
 10  9  1  6  0  0  0
 10 13  1  0  0  0  0
 10 21  1  0  0  0  0
 13 12  1  1  0  0  0
 13 15  1  0  0  0  0
 15  2  1  1  0  0  0
 15 17  1  0  0  0  0
 16 25  1  0  0  0  0
 16 23  1  0  0  0  0
 17 19  1  0  0  0  0
 19  5  1  6  0  0  0
 19 21  1  0  0  0  0
 21 14  1  6  0  0  0
 23 14  1  1  0  0  0
 23 29  1  0  0  0  0
 25 26  1  6  0  0  0
 25 27  1  0  0  0  0
 27 18  1  1  0  0  0
 27 28  1  0  0  0  0
 28 20  1  6  0  0  0
 28 29  1  0  0  0  0
 29 11  1  1  0  0  0
 30 22  1  6  0  0  0
 30 31  1  0  0  0  0
 31 24  1  1  0  0  0
M  END
>  <CHROM.1>
62.00106774,-67.14532449,55.47633555,78.97804174,92.22723718,-55.56728346
39.99376603,25.21928959,3.39330882,-3.06592454,-0.39863330,1.59132710

>  <Name>
ligand

>  <RI>
0

>  <Rbt.Current_Directory>
/home/itssahil/PROJECTS/Mol_Feturizer/New_Systems/rnas/2ET5

>  <Rbt.Executable>
rbdock ($Id: //depot/dev/client3/rdock/2013.1/src/exe/rbdock.cxx#4 $)

>  <Rbt.Library>
libRbt.so (2013.1, Build901 2013/11/27)

>  <Rbt.Parameter_File>
/export/apps/rDock/src/rDock_2013.1_src/data/scripts/dock_solv.prm

>  <Rbt.Receptor>
prm/pocket_docking_4.prm

>  <SCORE>
-6.51383

>  <SCORE.INTER>
-4.33783

>  <SCORE.INTER.CONST>
1

>  <SCORE.INTER.POLAR>
0

>  <SCORE.INTER.ROT>
6

>  <SCORE.INTER.SOLV>
11.2308

>  <SCORE.INTER.VDW>
-14.2355

>  <SCORE.INTER.norm>
-0.13993

>  <SCORE.INTRA>
-2.176

>  <SCORE.INTRA.DIHEDRAL>
-5.03939

>  <SCORE.INTRA.DIHEDRAL.0>
11.2357

>  <SCORE.INTRA.POLAR>
0

>  <SCORE.INTRA.POLAR.0>
0

>  <SCORE.INTRA.REPUL>
0

>  <SCORE.INTRA.REPUL.0>
0

>  <SCORE.INTRA.SOLV>
-0.586918

>  <SCORE.INTRA.SOLV.lig_0>
-83.3092

>  <SCORE.INTRA.VDW>
0.637158

>  <SCORE.INTRA.VDW.0>
-4.47057

>  <SCORE.INTRA.norm>
-0.0701934

>  <SCORE.RESTR>
0

>  <SCORE.RESTR.CAVITY>
0

>  <SCORE.RESTR.norm>
0

>  <SCORE.SYSTEM>
0

>  <SCORE.SYSTEM.CONST>
0

>  <SCORE.SYSTEM.DIHEDRAL>
0

>  <SCORE.SYSTEM.SOLV>
0

>  <SCORE.SYSTEM.norm>
0

>  <SCORE.heavy>
31

>  <SCORE.norm>
-0.210123

>  <RMSD>
6.093

$$$$
ligand
 OpenBabel11021811433D
libRbt.so/2013.1/901 2013/11/27
 31 33  0  0  0  0  0  0  0  0999 V2000
   45.6324   20.6323    2.5770 C   0  0  0  0  0  0  0  0  0  0  0  0
   39.1394   24.1243   -2.6003 N   0  0  0  0  0  0  0  0  0  0  0  0
   46.3515   19.3991    2.7243 O   0  0  0  0  0  0  0  0  0  0  0  0
   44.1727   20.2486    2.8056 C   0  0  1  0  0  0  0  0  0  0  0  0
   39.8424   27.0757    1.4646 N   0  0  0  0  0  0  0  0  0  0  0  0
   43.2084   21.4191    2.8702 O   0  0  0  0  0  0  0  0  0  0  0  0
   42.4168   21.5419    1.7519 C   0  0  1  0  0  0  0  0  0  0  0  0
   37.3050   26.0150    5.8291 N   0  0  0  0  0  0  0  0  0  0  0  0
   42.3238   22.8030    1.1498 O   0  0  0  0  0  0  0  0  0  0  0  0
   41.0161   23.4795    0.8531 C   0  0  2  0  0  0  0  0  0  0  0  0
   43.6376   24.9629    4.4269 N   0  0  0  0  0  0  0  0  0  0  0  0
   40.7277   22.0336   -1.1513 O   0  0  0  0  0  0  0  0  0  0  0  0
   40.7814   23.4329   -0.6858 C   0  0  1  0  0  0  0  0  0  0  0  0
   41.2314   25.0213    2.6990 O   0  0  0  0  0  0  0  0  0  0  0  0
   39.3950   24.1607   -1.0612 C   0  0  1  0  0  0  0  0  0  0  0  0
   40.4212   26.8639    3.9693 O   0  0  0  0  0  0  0  0  0  0  0  0
   39.4842   25.6635   -0.5474 C   0  0  0  0  0  0  0  0  0  0  0  0
   39.4725   24.9601    7.0265 O   0  0  0  0  0  0  0  0  0  0  0  0
   39.7560   25.6470    1.0141 C   0  0  1  0  0  0  0  0  0  0  0  0
   42.2956   24.5314    7.0143 O   0  0  0  0  0  0  0  0  0  0  0  0
   41.0643   24.9975    1.3353 C   0  0  2  0  0  0  0  0  0  0  0  0
   41.7910   20.0078    0.0360 O   0  0  0  0  0  0  0  0  0  0  0  0
   41.6590   26.1338    3.5262 C   0  0  1  0  0  0  0  0  0  0  0  0
   42.3975   18.5819    2.3296 O   0  0  0  0  0  0  0  0  0  0  0  0
   39.4888   26.0859    4.8880 C   0  0  2  0  0  0  0  0  0  0  0  0
   38.2715   26.9382    5.2276 C   0  0  0  0  0  0  0  0  0  0  0  0
   40.2858   25.6983    6.1549 C   0  0  2  0  0  0  0  0  0  0  0  0
   41.5176   24.8863    5.7908 C   0  0  1  0  0  0  0  0  0  0  0  0
   42.3872   25.7186    4.8304 C   0  0  1  0  0  0  0  0  0  0  0  0
   42.8520   20.4258    0.8162 C   0  0  2  0  0  0  0  0  0  0  0  0
   43.4916   19.3576    1.7603 C   0  0  1  0  0  0  0  0  0  0  0  0
  1  3  1  0  0  0  0
  4  1  1  6  0  0  0
  4  6  1  0  0  0  0
  4 31  1  0  0  0  0
  6  7  1  0  0  0  0
  7  9  1  6  0  0  0
  7 30  1  0  0  0  0
  8 26  1  0  0  0  0
 10  9  1  6  0  0  0
 10 13  1  0  0  0  0
 10 21  1  0  0  0  0
 13 12  1  1  0  0  0
 13 15  1  0  0  0  0
 15  2  1  6  0  0  0
 15 17  1  0  0  0  0
 16 25  1  0  0  0  0
 16 23  1  0  0  0  0
 17 19  1  0  0  0  0
 19  5  1  6  0  0  0
 19 21  1  0  0  0  0
 21 14  1  1  0  0  0
 23 14  1  1  0  0  0
 23 29  1  0  0  0  0
 25 26  1  1  0  0  0
 25 27  1  0  0  0  0
 27 18  1  1  0  0  0
 27 28  1  0  0  0  0
 28 20  1  1  0  0  0
 28 29  1  0  0  0  0
 29 11  1  6  0  0  0
 30 22  1  1  0  0  0
 30 31  1  0  0  0  0
 31 24  1  1  0  0  0
M  END
>  <CHROM.1>
172.91065043,-127.04418344,-107.30422652,91.34396713,163.15076601,166.80588910
41.43985046,23.58964652,2.56146207,-0.78621426,-0.84623313,1.17639057

>  <Name>
ligand

>  <RI>
0

>  <Rbt.Current_Directory>
/home/itssahil/PROJECTS/Mol_Feturizer/New_Systems/rnas/2ET5

>  <Rbt.Executable>
rbdock ($Id: //depot/dev/client3/rdock/2013.1/src/exe/rbdock.cxx#4 $)

>  <Rbt.Library>
libRbt.so (2013.1, Build901 2013/11/27)

>  <Rbt.Parameter_File>
/export/apps/rDock/src/rDock_2013.1_src/data/scripts/dock_solv.prm

>  <Rbt.Receptor>
prm/pocket_docking_3.prm

>  <SCORE>
0.279687

>  <SCORE.INTER>
-5.67068

>  <SCORE.INTER.CONST>
1

>  <SCORE.INTER.POLAR>
0

>  <SCORE.INTER.ROT>
6

>  <SCORE.INTER.SOLV>
15.2616

>  <SCORE.INTER.VDW>
-16.4677

>  <SCORE.INTER.norm>
-0.182925

>  <SCORE.INTRA>
5.91429

>  <SCORE.INTRA.DIHEDRAL>
8.02385

>  <SCORE.INTRA.DIHEDRAL.0>
11.2357

>  <SCORE.INTRA.POLAR>
0

>  <SCORE.INTRA.POLAR.0>
0

>  <SCORE.INTRA.REPUL>
0.0337275

>  <SCORE.INTRA.REPUL.0>
0

>  <SCORE.INTRA.SOLV>
-0.0897645

>  <SCORE.INTRA.SOLV.lig_0>
-83.3092

>  <SCORE.INTRA.VDW>
1.77861

>  <SCORE.INTRA.VDW.0>
-4.47057

>  <SCORE.INTRA.norm>
0.190784

>  <SCORE.RESTR>
0.0360723

>  <SCORE.RESTR.CAVITY>
0.0360723

>  <SCORE.RESTR.norm>
0.00116362

>  <SCORE.SYSTEM>
0

>  <SCORE.SYSTEM.CONST>
0

>  <SCORE.SYSTEM.DIHEDRAL>
0

>  <SCORE.SYSTEM.SOLV>
0

>  <SCORE.SYSTEM.norm>
0

>  <SCORE.heavy>
31

>  <SCORE.norm>
0.00902217

>  <RMSD>
6.105

$$$$
ligand
 OpenBabel11021811433D
libRbt.so/2013.1/901 2013/11/27
 31 33  0  0  0  0  0  0  0  0999 V2000
   44.8121   21.2233    1.9522 C   0  0  0  0  0  0  0  0  0  0  0  0
   41.3806   22.8468   -3.2402 N   0  0  0  0  0  0  0  0  0  0  0  0
   43.7156   20.4242    2.4199 O   0  0  0  0  0  0  0  0  0  0  0  0
   44.3426   22.6624    2.1494 C   0  0  1  0  0  0  0  0  0  0  0  0
   38.2494   25.9151   -0.6890 N   0  0  0  0  0  0  0  0  0  0  0  0
   43.0795   23.0304    1.3923 O   0  0  0  0  0  0  0  0  0  0  0  0
   41.9709   23.1509    2.1977 C   0  0  1  0  0  0  0  0  0  0  0  0
   40.8730   26.8618    5.2692 N   0  0  0  0  0  0  0  0  0  0  0  0
   40.8019   22.4855    1.8080 O   0  0  0  0  0  0  0  0  0  0  0  0
   40.0791   22.7741    0.5234 C   0  0  2  0  0  0  0  0  0  0  0  0
   36.4201   23.3791    3.3821 N   0  0  0  0  0  0  0  0  0  0  0  0
   41.6585   21.2862   -0.6946 O   0  0  0  0  0  0  0  0  0  0  0  0
   41.0985   22.6506   -0.6477 C   0  0  1  0  0  0  0  0  0  0  0  0
   38.5563   24.3327    1.5640 O   0  0  0  0  0  0  0  0  0  0  0  0
   40.3763   22.9662   -2.0517 C   0  0  1  0  0  0  0  0  0  0  0  0
   39.7955   25.0425    3.4681 O   0  0  0  0  0  0  0  0  0  0  0  0
   39.7843   24.4404   -1.9695 C   0  0  0  0  0  0  0  0  0  0  0  0
   37.7235   28.0215    4.3069 O   0  0  0  0  0  0  0  0  0  0  0  0
   38.7825   24.5136   -0.7433 C   0  0  1  0  0  0  0  0  0  0  0  0
   35.8091   25.9403    4.7044 O   0  0  0  0  0  0  0  0  0  0  0  0
   39.4824   24.2514    0.5520 C   0  0  2  0  0  0  0  0  0  0  0  0
   41.7044   23.5143    4.5400 O   0  0  0  0  0  0  0  0  0  0  0  0
   38.7547   24.0742    2.9777 C   0  0  1  0  0  0  0  0  0  0  0  0
   44.1470   24.5488    3.7491 O   0  0  0  0  0  0  0  0  0  0  0  0
   39.3979   26.5121    3.4357 C   0  0  2  0  0  0  0  0  0  0  0  0
   40.5564   27.3698    3.9313 C   0  0  0  0  0  0  0  0  0  0  0  0
   38.1416   26.6831    4.3206 C   0  0  2  0  0  0  0  0  0  0  0  0
   37.0134   25.7880    3.8356 C   0  0  1  0  0  0  0  0  0  0  0  0
   37.5027   24.3280    3.8562 C   0  0  1  0  0  0  0  0  0  0  0  0
   42.4467   22.8211    3.6032 C   0  0  2  0  0  0  0  0  0  0  0  0
   43.9815   23.1123    3.5698 C   0  0  1  0  0  0  0  0  0  0  0  0
  1  3  1  0  0  0  0
  4  1  1  1  0  0  0
  4  6  1  0  0  0  0
  4 31  1  0  0  0  0
  6  7  1  0  0  0  0
  7  9  1  6  0  0  0
  7 30  1  0  0  0  0
  8 26  1  0  0  0  0
 10  9  1  1  0  0  0
 10 13  1  0  0  0  0
 10 21  1  0  0  0  0
 13 12  1  6  0  0  0
 13 15  1  0  0  0  0
 15  2  1  6  0  0  0
 15 17  1  0  0  0  0
 16 25  1  0  0  0  0
 16 23  1  0  0  0  0
 17 19  1  0  0  0  0
 19  5  1  1  0  0  0
 19 21  1  0  0  0  0
 21 14  1  1  0  0  0
 23 14  1  6  0  0  0
 23 29  1  0  0  0  0
 25 26  1  1  0  0  0
 25 27  1  0  0  0  0
 27 18  1  6  0  0  0
 27 28  1  0  0  0  0
 28 20  1  1  0  0  0
 28 29  1  0  0  0  0
 29 11  1  6  0  0  0
 30 22  1  1  0  0  0
 30 31  1  0  0  0  0
 31 24  1  6  0  0  0
M  END
>  <CHROM.1>
-59.78695532,-61.47629193,53.62819492,60.45205721,57.99499845,-56.55616879
40.41992479,24.08703983,2.08053657,-0.65375671,-0.46556324,1.19414224

>  <Name>
ligand

>  <RI>
0

>  <Rbt.Current_Directory>
/home/itssahil/PROJECTS/Mol_Feturizer/New_Systems/rnas/2ET5

>  <Rbt.Executable>
rbdock ($Id: //depot/dev/client3/rdock/2013.1/src/exe/rbdock.cxx#4 $)

>  <Rbt.Library>
libRbt.so (2013.1, Build901 2013/11/27)

>  <Rbt.Parameter_File>
/export/apps/rDock/src/rDock_2013.1_src/data/scripts/dock_solv.prm

>  <Rbt.Receptor>
prm/pocket_docking_3.prm

>  <SCORE>
-7.35828

>  <SCORE.INTER>
-2.3246

>  <SCORE.INTER.CONST>
1

>  <SCORE.INTER.POLAR>
0

>  <SCORE.INTER.ROT>
6

>  <SCORE.INTER.SOLV>
15.3255

>  <SCORE.INTER.VDW>
-14.2582

>  <SCORE.INTER.norm>
-0.0749872

>  <SCORE.INTRA>
-5.03419

>  <SCORE.INTRA.DIHEDRAL>
-10.8198

>  <SCORE.INTRA.DIHEDRAL.0>
11.2357

>  <SCORE.INTRA.POLAR>
0

>  <SCORE.INTRA.POLAR.0>
0

>  <SCORE.INTRA.REPUL>
0

>  <SCORE.INTRA.REPUL.0>
0

>  <SCORE.INTRA.SOLV>
-0.740656

>  <SCORE.INTRA.SOLV.lig_0>
-83.3092

>  <SCORE.INTRA.VDW>
0.746064

>  <SCORE.INTRA.VDW.0>
-4.47057

>  <SCORE.INTRA.norm>
-0.162393

>  <SCORE.RESTR>
0.000512964

>  <SCORE.RESTR.CAVITY>
0.000512964

>  <SCORE.RESTR.norm>
1.65472e-05

>  <SCORE.SYSTEM>
0

>  <SCORE.SYSTEM.CONST>
0

>  <SCORE.SYSTEM.DIHEDRAL>
0

>  <SCORE.SYSTEM.SOLV>
0

>  <SCORE.SYSTEM.norm>
0

>  <SCORE.heavy>
31

>  <SCORE.norm>
-0.237364

>  <RMSD>
6.119

$$$$
ligand
 OpenBabel11021811433D
libRbt.so/2013.1/901 2013/11/27
 31 33  0  0  0  0  0  0  0  0999 V2000
   44.7676   21.0838    1.9370 C   0  0  0  0  0  0  0  0  0  0  0  0
   41.3438   22.8764   -3.3046 N   0  0  0  0  0  0  0  0  0  0  0  0
   43.6292   20.3166    2.3555 O   0  0  0  0  0  0  0  0  0  0  0  0
   44.3315   22.5358    2.1152 C   0  0  1  0  0  0  0  0  0  0  0  0
   38.2836   25.9565   -0.6823 N   0  0  0  0  0  0  0  0  0  0  0  0
   43.0850   22.9266    1.3421 O   0  0  0  0  0  0  0  0  0  0  0  0
   41.9721   23.0823    2.1353 C   0  0  1  0  0  0  0  0  0  0  0  0
   40.7954   26.9725    5.2680 N   0  0  0  0  0  0  0  0  0  0  0  0
   40.7909   22.4415    1.7407 O   0  0  0  0  0  0  0  0  0  0  0  0
   40.0653   22.7641    0.4659 C   0  0  2  0  0  0  0  0  0  0  0  0
   36.4715   23.3318    3.3714 N   0  0  0  0  0  0  0  0  0  0  0  0
   41.6102   21.2691   -0.7869 O   0  0  0  0  0  0  0  0  0  0  0  0
   41.0747   22.6422   -0.7138 C   0  0  1  0  0  0  0  0  0  0  0  0
   38.5769   24.3317    1.5421 O   0  0  0  0  0  0  0  0  0  0  0  0
   40.3493   22.9937   -2.1076 C   0  0  1  0  0  0  0  0  0  0  0  0
   39.8093   25.0703    3.4397 O   0  0  0  0  0  0  0  0  0  0  0  0
   39.7840   24.4764   -1.9972 C   0  0  0  0  0  0  0  0  0  0  0  0
   37.6755   28.0027    4.2872 O   0  0  0  0  0  0  0  0  0  0  0  0
   38.7915   24.5469   -0.7633 C   0  0  1  0  0  0  0  0  0  0  0  0
   35.8100   25.8796    4.6953 O   0  0  0  0  0  0  0  0  0  0  0  0
   39.4949   24.2509    0.5229 C   0  0  2  0  0  0  0  0  0  0  0  0
   41.6920   23.4759    4.4711 O   0  0  0  0  0  0  0  0  0  0  0  0
   38.7880   24.0787    2.9550 C   0  0  1  0  0  0  0  0  0  0  0  0
   44.1666   24.4426    3.6940 O   0  0  0  0  0  0  0  0  0  0  0  0
   39.3789   26.5306    3.4085 C   0  0  2  0  0  0  0  0  0  0  0  0
   40.5203   27.4143    3.8979 C   0  0  0  0  0  0  0  0  0  0  0  0
   38.1234   26.6741    4.2995 C   0  0  2  0  0  0  0  0  0  0  0  0
   37.0131   25.7536    3.8207 C   0  0  1  0  0  0  0  0  0  0  0  0
   37.5351   24.3049    3.8396 C   0  0  1  0  0  0  0  0  0  0  0  0
   42.4262   22.7554    3.5486 C   0  0  2  0  0  0  0  0  0  0  0  0
   43.9678   23.0088    3.5274 C   0  0  1  0  0  0  0  0  0  0  0  0
  1  3  1  0  0  0  0
  4  1  1  1  0  0  0
  4  6  1  0  0  0  0
  4 31  1  0  0  0  0
  6  7  1  0  0  0  0
  7  9  1  6  0  0  0
  7 30  1  0  0  0  0
  8 26  1  0  0  0  0
 10  9  1  1  0  0  0
 10 13  1  0  0  0  0
 10 21  1  0  0  0  0
 13 12  1  6  0  0  0
 13 15  1  0  0  0  0
 15  2  1  6  0  0  0
 15 17  1  0  0  0  0
 16 25  1  0  0  0  0
 16 23  1  0  0  0  0
 17 19  1  0  0  0  0
 19  5  1  1  0  0  0
 19 21  1  0  0  0  0
 21 14  1  1  0  0  0
 23 14  1  6  0  0  0
 23 29  1  0  0  0  0
 25 26  1  1  0  0  0
 25 27  1  0  0  0  0
 27 18  1  6  0  0  0
 27 28  1  0  0  0  0
 28 20  1  1  0  0  0
 28 29  1  0  0  0  0
 29 11  1  6  0  0  0
 30 22  1  1  0  0  0
 30 31  1  0  0  0  0
 31 24  1  6  0  0  0
M  END
>  <CHROM.1>
-57.73497544,-63.39556842,53.80531257,61.52260770,59.68252329,-60.19056370
40.40939960,24.06154560,2.04305464,-0.65868892,-0.48522858,1.20257873

>  <Name>
ligand

>  <RI>
0

>  <Rbt.Current_Directory>
/home/itssahil/PROJECTS/Mol_Feturizer/New_Systems/rnas/2ET5

>  <Rbt.Executable>
rbdock ($Id: //depot/dev/client3/rdock/2013.1/src/exe/rbdock.cxx#4 $)

>  <Rbt.Library>
libRbt.so (2013.1, Build901 2013/11/27)

>  <Rbt.Parameter_File>
/export/apps/rDock/src/rDock_2013.1_src/data/scripts/dock_solv.prm

>  <Rbt.Receptor>
prm/pocket_docking_3.prm

>  <SCORE>
-7.342

>  <SCORE.INTER>
-2.30272

>  <SCORE.INTER.CONST>
1

>  <SCORE.INTER.POLAR>
0

>  <SCORE.INTER.ROT>
6

>  <SCORE.INTER.SOLV>
15.4226

>  <SCORE.INTER.VDW>
-14.276

>  <SCORE.INTER.norm>
-0.0742813

>  <SCORE.INTRA>
-5.04293

>  <SCORE.INTRA.DIHEDRAL>
-10.8191

>  <SCORE.INTRA.DIHEDRAL.0>
11.2357

>  <SCORE.INTRA.POLAR>
0

>  <SCORE.INTRA.POLAR.0>
0

>  <SCORE.INTRA.REPUL>
0

>  <SCORE.INTRA.REPUL.0>
0

>  <SCORE.INTRA.SOLV>
-0.846665

>  <SCORE.INTRA.SOLV.lig_0>
-83.3092

>  <SCORE.INTRA.VDW>
0.789938

>  <SCORE.INTRA.VDW.0>
-4.47057

>  <SCORE.INTRA.norm>
-0.162675

>  <SCORE.RESTR>
0.0036441

>  <SCORE.RESTR.CAVITY>
0.0036441

>  <SCORE.RESTR.norm>
0.000117552

>  <SCORE.SYSTEM>
0

>  <SCORE.SYSTEM.CONST>
0

>  <SCORE.SYSTEM.DIHEDRAL>
0

>  <SCORE.SYSTEM.SOLV>
0

>  <SCORE.SYSTEM.norm>
0

>  <SCORE.heavy>
31

>  <SCORE.norm>
-0.236839

>  <RMSD>
6.130

$$$$
ligand
 OpenBabel11021811433D
libRbt.so/2013.1/901 2013/11/27
 31 33  0  0  0  0  0  0  0  0999 V2000
   44.9809   22.9579    2.6965 C   0  0  0  0  0  0  0  0  0  0  0  0
   43.9731   24.7334   -2.0159 N   0  0  0  0  0  0  0  0  0  0  0  0
   44.7317   23.7967    3.8341 O   0  0  0  0  0  0  0  0  0  0  0  0
   44.1899   21.6846    2.9848 C   0  0  1  0  0  0  0  0  0  0  0  0
   42.8412   26.6465    2.5435 N   0  0  0  0  0  0  0  0  0  0  0  0
   42.6846   21.8693    3.0463 O   0  0  0  0  0  0  0  0  0  0  0  0
   42.0231   21.3628    1.9518 C   0  0  1  0  0  0  0  0  0  0  0  0
   42.5065   26.3290    7.5516 N   0  0  0  0  0  0  0  0  0  0  0  0
   41.0835   22.1838    1.3158 O   0  0  0  0  0  0  0  0  0  0  0  0
   41.4072   23.5541    0.7929 C   0  0  2  0  0  0  0  0  0  0  0  0
   38.1508   23.8782    3.3254 N   0  0  0  0  0  0  0  0  0  0  0  0
   41.9849   22.5694   -1.4180 O   0  0  0  0  0  0  0  0  0  0  0  0
   42.4916   23.4092   -0.3155 C   0  0  1  0  0  0  0  0  0  0  0  0
   40.9904   24.6198    2.9193 O   0  0  0  0  0  0  0  0  0  0  0  0
   42.8873   24.8558   -0.9015 C   0  0  1  0  0  0  0  0  0  0  0  0
   41.4825   23.7279    5.0705 O   0  0  0  0  0  0  0  0  0  0  0  0
   43.4284   25.7353    0.3084 C   0  0  0  0  0  0  0  0  0  0  0  0
   39.9603   26.4653    7.0855 O   0  0  0  0  0  0  0  0  0  0  0  0
   42.2975   25.8193    1.4159 C   0  0  1  0  0  0  0  0  0  0  0  0
   37.6405   25.4570    5.7603 O   0  0  0  0  0  0  0  0  0  0  0  0
   41.9718   24.4687    1.9694 C   0  0  2  0  0  0  0  0  0  0  0  0
   42.6228   19.7457    0.3041 O   0  0  0  0  0  0  0  0  0  0  0  0
   40.5413   23.6499    3.9002 C   0  0  1  0  0  0  0  0  0  0  0  0
   44.0536   19.2346    2.6178 O   0  0  0  0  0  0  0  0  0  0  0  0
   41.4660   25.0388    5.8450 C   0  0  2  0  0  0  0  0  0  0  0  0
   42.4853   24.9809    6.9769 C   0  0  0  0  0  0  0  0  0  0  0  0
   40.0314   25.2561    6.3792 C   0  0  2  0  0  0  0  0  0  0  0  0
   39.0266   25.2676    5.2393 C   0  0  1  0  0  0  0  0  0  0  0  0
   39.1314   23.9320    4.4799 C   0  0  1  0  0  0  0  0  0  0  0  0
   43.1050   20.8140    1.0359 C   0  0  2  0  0  0  0  0  0  0  0  0
   44.3083   20.5244    1.9896 C   0  0  1  0  0  0  0  0  0  0  0  0
  1  3  1  0  0  0  0
  4  1  1  6  0  0  0
  4  6  1  0  0  0  0
  4 31  1  0  0  0  0
  6  7  1  0  0  0  0
  7  9  1  6  0  0  0
  7 30  1  0  0  0  0
  8 26  1  0  0  0  0
 10  9  1  1  0  0  0
 10 13  1  0  0  0  0
 10 21  1  0  0  0  0
 13 12  1  6  0  0  0
 13 15  1  0  0  0  0
 15  2  1  6  0  0  0
 15 17  1  0  0  0  0
 16 25  1  0  0  0  0
 16 23  1  0  0  0  0
 17 19  1  0  0  0  0
 19  5  1  1  0  0  0
 19 21  1  0  0  0  0
 21 14  1  1  0  0  0
 23 14  1  6  0  0  0
 23 29  1  0  0  0  0
 25 26  1  1  0  0  0
 25 27  1  0  0  0  0
 27 18  1  6  0  0  0
 27 28  1  0  0  0  0
 28 20  1  1  0  0  0
 28 29  1  0  0  0  0
 29 11  1  6  0  0  0
 30 22  1  1  0  0  0
 30 31  1  0  0  0  0
 31 24  1  1  0  0  0
M  END
>  <CHROM.1>
64.42158519,55.43222110,62.22745451,83.41591536,75.15861282,173.40546129
41.94633472,23.66758887,2.87708897,-0.63676429,-1.01698226,1.89716406

>  <Name>
ligand

>  <RI>
0

>  <Rbt.Current_Directory>
/home/itssahil/PROJECTS/Mol_Feturizer/New_Systems/rnas/2ET5

>  <Rbt.Executable>
rbdock ($Id: //depot/dev/client3/rdock/2013.1/src/exe/rbdock.cxx#4 $)

>  <Rbt.Library>
libRbt.so (2013.1, Build901 2013/11/27)

>  <Rbt.Parameter_File>
/export/apps/rDock/src/rDock_2013.1_src/data/scripts/dock_solv.prm

>  <Rbt.Receptor>
prm/pocket_docking_4.prm

>  <SCORE>
-11.3163

>  <SCORE.INTER>
-7.90894

>  <SCORE.INTER.CONST>
1

>  <SCORE.INTER.POLAR>
0

>  <SCORE.INTER.ROT>
6

>  <SCORE.INTER.SOLV>
19.2764

>  <SCORE.INTER.VDW>
-19.2981

>  <SCORE.INTER.norm>
-0.255127

>  <SCORE.INTRA>
-3.40732

>  <SCORE.INTRA.DIHEDRAL>
-7.31017

>  <SCORE.INTRA.DIHEDRAL.0>
11.2357

>  <SCORE.INTRA.POLAR>
0

>  <SCORE.INTRA.POLAR.0>
0

>  <SCORE.INTRA.REPUL>
0.105048

>  <SCORE.INTRA.REPUL.0>
0

>  <SCORE.INTRA.SOLV>
0.178264

>  <SCORE.INTRA.SOLV.lig_0>
-83.3092

>  <SCORE.INTRA.VDW>
-0.366601

>  <SCORE.INTRA.VDW.0>
-4.47057

>  <SCORE.INTRA.norm>
-0.109913

>  <SCORE.RESTR>
0

>  <SCORE.RESTR.CAVITY>
0

>  <SCORE.RESTR.norm>
0

>  <SCORE.SYSTEM>
0

>  <SCORE.SYSTEM.CONST>
0

>  <SCORE.SYSTEM.DIHEDRAL>
0

>  <SCORE.SYSTEM.SOLV>
0

>  <SCORE.SYSTEM.norm>
0

>  <SCORE.heavy>
31

>  <SCORE.norm>
-0.365041

>  <RMSD>
6.144

$$$$
ligand
 OpenBabel11021811433D
libRbt.so/2013.1/901 2013/11/27
 31 33  0  0  0  0  0  0  0  0999 V2000
   44.1773   18.6608    2.1848 C   0  0  0  0  0  0  0  0  0  0  0  0
   40.6958   22.4388   -2.5508 N   0  0  0  0  0  0  0  0  0  0  0  0
   45.3650   17.9913    2.6329 O   0  0  0  0  0  0  0  0  0  0  0  0
   44.6670   20.0298    1.7201 C   0  0  1  0  0  0  0  0  0  0  0  0
   40.1602   26.4417    0.5182 N   0  0  0  0  0  0  0  0  0  0  0  0
   43.5783   20.9581    1.2131 O   0  0  0  0  0  0  0  0  0  0  0  0
   43.2803   21.9823    2.0816 C   0  0  1  0  0  0  0  0  0  0  0  0
   44.7669   26.3849    2.6653 N   0  0  0  0  0  0  0  0  0  0  0  0
   41.9328   22.2129    2.3857 O   0  0  0  0  0  0  0  0  0  0  0  0
   40.9565   22.8003    1.4071 C   0  0  2  0  0  0  0  0  0  0  0  0
   39.1231   24.5966    5.2367 N   0  0  0  0  0  0  0  0  0  0  0  0
   41.2749   20.8342   -0.0844 O   0  0  0  0  0  0  0  0  0  0  0  0
   41.3398   22.3070   -0.0195 C   0  0  1  0  0  0  0  0  0  0  0  0
   40.6474   24.8128    2.7053 O   0  0  0  0  0  0  0  0  0  0  0  0
   40.3301   22.9219   -1.1126 C   0  0  1  0  0  0  0  0  0  0  0  0
   42.6466   25.0158    3.9809 O   0  0  0  0  0  0  0  0  0  0  0  0
   40.4229   24.5071   -1.0178 C   0  0  0  0  0  0  0  0  0  0  0  0
   42.1009   28.4998    5.1787 O   0  0  0  0  0  0  0  0  0  0  0  0
   40.0556   24.9459    0.4604 C   0  0  1  0  0  0  0  0  0  0  0  0
   39.8942   27.1815    6.4223 O   0  0  0  0  0  0  0  0  0  0  0  0
   41.0267   24.3915    1.4535 C   0  0  2  0  0  0  0  0  0  0  0  0
   44.4831   22.9752    3.8863 O   0  0  0  0  0  0  0  0  0  0  0  0
   41.2456   24.4692    3.9815 C   0  0  1  0  0  0  0  0  0  0  0  0
   46.2936   21.8616    2.1133 O   0  0  0  0  0  0  0  0  0  0  0  0
   42.7634   26.5334    3.9395 C   0  0  2  0  0  0  0  0  0  0  0  0
   44.2333   26.9361    3.9142 C   0  0  0  0  0  0  0  0  0  0  0  0
   42.0378   27.0990    5.1822 C   0  0  2  0  0  0  0  0  0  0  0  0
   40.5862   26.6507    5.2107 C   0  0  1  0  0  0  0  0  0  0  0  0
   40.5484   25.1112    5.2084 C   0  0  1  0  0  0  0  0  0  0  0  0
   44.1731   21.7665    3.2927 C   0  0  2  0  0  0  0  0  0  0  0  0
   45.3714   20.9268    2.7447 C   0  0  1  0  0  0  0  0  0  0  0  0
  1  3  1  0  0  0  0
  4  1  1  1  0  0  0
  4  6  1  0  0  0  0
  4 31  1  0  0  0  0
  6  7  1  0  0  0  0
  7  9  1  1  0  0  0
  7 30  1  0  0  0  0
  8 26  1  0  0  0  0
 10  9  1  1  0  0  0
 10 13  1  0  0  0  0
 10 21  1  0  0  0  0
 13 12  1  1  0  0  0
 13 15  1  0  0  0  0
 15  2  1  6  0  0  0
 15 17  1  0  0  0  0
 16 25  1  0  0  0  0
 16 23  1  0  0  0  0
 17 19  1  0  0  0  0
 19  5  1  6  0  0  0
 19 21  1  0  0  0  0
 21 14  1  1  0  0  0
 23 14  1  6  0  0  0
 23 29  1  0  0  0  0
 25 26  1  1  0  0  0
 25 27  1  0  0  0  0
 27 18  1  6  0  0  0
 27 28  1  0  0  0  0
 28 20  1  1  0  0  0
 28 29  1  0  0  0  0
 29 11  1  6  0  0  0
 30 22  1  6  0  0  0
 30 31  1  0  0  0  0
 31 24  1  6  0  0  0
M  END
>  <CHROM.1>
-178.92896450,-71.37473330,33.87291060,64.07452018,58.54114714,62.88443894
42.29658661,23.66409133,2.50527659,-1.10784633,-0.70551660,0.78617411

>  <Name>
ligand

>  <RI>
0

>  <Rbt.Current_Directory>
/home/itssahil/PROJECTS/Mol_Feturizer/New_Systems/rnas/2ET5

>  <Rbt.Executable>
rbdock ($Id: //depot/dev/client3/rdock/2013.1/src/exe/rbdock.cxx#4 $)

>  <Rbt.Library>
libRbt.so (2013.1, Build901 2013/11/27)

>  <Rbt.Parameter_File>
/export/apps/rDock/src/rDock_2013.1_src/data/scripts/dock_solv.prm

>  <Rbt.Receptor>
prm/pocket_docking_5.prm

>  <SCORE>
-8.0573

>  <SCORE.INTER>
-4.69128

>  <SCORE.INTER.CONST>
1

>  <SCORE.INTER.POLAR>
0

>  <SCORE.INTER.ROT>
6

>  <SCORE.INTER.SOLV>
15.573

>  <SCORE.INTER.VDW>
-15.9185

>  <SCORE.INTER.norm>
-0.151332

>  <SCORE.INTRA>
-3.36695

>  <SCORE.INTRA.DIHEDRAL>
-7.48859

>  <SCORE.INTRA.DIHEDRAL.0>
11.2357

>  <SCORE.INTRA.POLAR>
0

>  <SCORE.INTRA.POLAR.0>
0

>  <SCORE.INTRA.REPUL>
0.0323304

>  <SCORE.INTRA.REPUL.0>
0

>  <SCORE.INTRA.SOLV>
-3.0077

>  <SCORE.INTRA.SOLV.lig_0>
-83.3092

>  <SCORE.INTRA.VDW>
1.71954

>  <SCORE.INTRA.VDW.0>
-4.47057

>  <SCORE.INTRA.norm>
-0.108611

>  <SCORE.RESTR>
0.000931556

>  <SCORE.RESTR.CAVITY>
0.000931556

>  <SCORE.RESTR.norm>
3.00502e-05

>  <SCORE.SYSTEM>
0

>  <SCORE.SYSTEM.CONST>
0

>  <SCORE.SYSTEM.DIHEDRAL>
0

>  <SCORE.SYSTEM.SOLV>
0

>  <SCORE.SYSTEM.norm>
0

>  <SCORE.heavy>
31

>  <SCORE.norm>
-0.259913

>  <RMSD>
6.161

$$$$
ligand
 OpenBabel11021811433D
libRbt.so/2013.1/901 2013/11/27
 31 33  0  0  0  0  0  0  0  0999 V2000
   44.8219   21.4374    2.0118 C   0  0  0  0  0  0  0  0  0  0  0  0
   41.3123   22.7887   -3.3044 N   0  0  0  0  0  0  0  0  0  0  0  0
   46.0326   21.4181    2.7820 O   0  0  0  0  0  0  0  0  0  0  0  0
   44.2813   22.8535    2.1921 C   0  0  1  0  0  0  0  0  0  0  0  0
   38.2596   25.9546   -0.7772 N   0  0  0  0  0  0  0  0  0  0  0  0
   43.0242   23.1619    1.3992 O   0  0  0  0  0  0  0  0  0  0  0  0
   41.8892   23.2321    2.1731 C   0  0  1  0  0  0  0  0  0  0  0  0
   40.7823   27.4220    4.8855 N   0  0  0  0  0  0  0  0  0  0  0  0
   40.7634   22.5130    1.7525 O   0  0  0  0  0  0  0  0  0  0  0  0
   40.0371   22.7967    0.4688 C   0  0  2  0  0  0  0  0  0  0  0  0
   36.4960   23.5377    3.4479 N   0  0  0  0  0  0  0  0  0  0  0  0
   41.5784   21.2606   -0.7379 O   0  0  0  0  0  0  0  0  0  0  0  0
   41.0453   22.6362   -0.7073 C   0  0  1  0  0  0  0  0  0  0  0  0
   38.5523   24.3997    1.4968 O   0  0  0  0  0  0  0  0  0  0  0  0
   40.3191   22.9451   -2.1108 C   0  0  1  0  0  0  0  0  0  0  0  0
   39.7866   25.3587    3.2918 O   0  0  0  0  0  0  0  0  0  0  0  0
   39.7564   24.4316   -2.0464 C   0  0  0  0  0  0  0  0  0  0  0  0
   37.5848   28.3068    3.8682 O   0  0  0  0  0  0  0  0  0  0  0  0
   38.7651   24.5423   -0.8144 C   0  0  1  0  0  0  0  0  0  0  0  0
   35.7818   26.1893    4.5161 O   0  0  0  0  0  0  0  0  0  0  0  0
   39.4693   24.2855    0.4797 C   0  0  2  0  0  0  0  0  0  0  0  0
   41.5407   23.5857    4.5061 O   0  0  0  0  0  0  0  0  0  0  0  0
   38.7866   24.2972    2.9248 C   0  0  1  0  0  0  0  0  0  0  0  0
   43.9542   24.7308    3.7810 O   0  0  0  0  0  0  0  0  0  0  0  0
   39.3167   26.7967    3.1190 C   0  0  2  0  0  0  0  0  0  0  0  0
   40.4397   27.7545    3.4998 C   0  0  0  0  0  0  0  0  0  0  0  0
   38.0684   26.9981    4.0088 C   0  0  2  0  0  0  0  0  0  0  0  0
   36.9777   26.0057    3.6416 C   0  0  1  0  0  0  0  0  0  0  0  0
   37.5384   24.5802    3.7998 C   0  0  1  0  0  0  0  0  0  0  0  0
   42.3401   22.9264    3.5921 C   0  0  2  0  0  0  0  0  0  0  0  0
   43.8602   23.2880    3.6008 C   0  0  1  0  0  0  0  0  0  0  0  0
  1  3  1  0  0  0  0
  4  1  1  1  0  0  0
  4  6  1  0  0  0  0
  4 31  1  0  0  0  0
  6  7  1  0  0  0  0
  7  9  1  6  0  0  0
  7 30  1  0  0  0  0
  8 26  1  0  0  0  0
 10  9  1  1  0  0  0
 10 13  1  0  0  0  0
 10 21  1  0  0  0  0
 13 12  1  6  0  0  0
 13 15  1  0  0  0  0
 15  2  1  6  0  0  0
 15 17  1  0  0  0  0
 16 25  1  0  0  0  0
 16 23  1  0  0  0  0
 17 19  1  0  0  0  0
 19  5  1  1  0  0  0
 19 21  1  0  0  0  0
 21 14  1  1  0  0  0
 23 14  1  6  0  0  0
 23 29  1  0  0  0  0
 25 26  1  1  0  0  0
 25 27  1  0  0  0  0
 27 18  1  6  0  0  0
 27 28  1  0  0  0  0
 28 20  1  1  0  0  0
 28 29  1  0  0  0  0
 29 11  1  6  0  0  0
 30 22  1  1  0  0  0
 30 31  1  0  0  0  0
 31 24  1  6  0  0  0
M  END
>  <CHROM.1>
176.63836879,-63.57531439,58.72958216,59.02036183,65.14841405,-57.80128960
40.45173190,24.26763884,1.99363641,-0.55618399,-0.44583114,1.14744058

>  <Name>
ligand

>  <RI>
0

>  <Rbt.Current_Directory>
/home/itssahil/PROJECTS/Mol_Feturizer/New_Systems/rnas/2ET5

>  <Rbt.Executable>
rbdock ($Id: //depot/dev/client3/rdock/2013.1/src/exe/rbdock.cxx#4 $)

>  <Rbt.Library>
libRbt.so (2013.1, Build901 2013/11/27)

>  <Rbt.Parameter_File>
/export/apps/rDock/src/rDock_2013.1_src/data/scripts/dock_solv.prm

>  <Rbt.Receptor>
prm/pocket_docking_6.prm

>  <SCORE>
-7.88628

>  <SCORE.INTER>
-2.32876

>  <SCORE.INTER.CONST>
1

>  <SCORE.INTER.POLAR>
0

>  <SCORE.INTER.ROT>
6

>  <SCORE.INTER.SOLV>
15.8285

>  <SCORE.INTER.VDW>
-14.4287

>  <SCORE.INTER.norm>
-0.0751212

>  <SCORE.INTRA>
-5.55753

>  <SCORE.INTRA.DIHEDRAL>
-10.8318

>  <SCORE.INTRA.DIHEDRAL.0>
11.2357

>  <SCORE.INTRA.POLAR>
0

>  <SCORE.INTRA.POLAR.0>
0

>  <SCORE.INTRA.REPUL>
0

>  <SCORE.INTRA.REPUL.0>
0

>  <SCORE.INTRA.SOLV>
-1.71091

>  <SCORE.INTRA.SOLV.lig_0>
-83.3092

>  <SCORE.INTRA.VDW>
0.713841

>  <SCORE.INTRA.VDW.0>
-4.47057

>  <SCORE.INTRA.norm>
-0.179275

>  <SCORE.RESTR>
0

>  <SCORE.RESTR.CAVITY>
0

>  <SCORE.RESTR.norm>
0

>  <SCORE.SYSTEM>
0

>  <SCORE.SYSTEM.CONST>
0

>  <SCORE.SYSTEM.DIHEDRAL>
0

>  <SCORE.SYSTEM.SOLV>
0

>  <SCORE.SYSTEM.norm>
0

>  <SCORE.heavy>
31

>  <SCORE.norm>
-0.254396

>  <RMSD>
6.178

$$$$
ligand
 OpenBabel11021811433D
libRbt.so/2013.1/901 2013/11/27
 31 33  0  0  0  0  0  0  0  0999 V2000
   36.1420   24.9930   -0.2967 C   0  0  0  0  0  0  0  0  0  0  0  0
   37.5005   26.9282    8.2364 N   0  0  0  0  0  0  0  0  0  0  0  0
   37.5302   25.3520   -0.2358 O   0  0  0  0  0  0  0  0  0  0  0  0
   35.5021   25.7586    0.8585 C   0  0  1  0  0  0  0  0  0  0  0  0
   41.4958   24.3716    6.4393 N   0  0  0  0  0  0  0  0  0  0  0  0
   36.0728   25.4399    2.2284 O   0  0  0  0  0  0  0  0  0  0  0  0
   36.8642   26.4414    2.7412 C   0  0  1  0  0  0  0  0  0  0  0  0
   44.9897   25.5889    2.8376 N   0  0  0  0  0  0  0  0  0  0  0  0
   38.1203   26.0886    3.2504 O   0  0  0  0  0  0  0  0  0  0  0  0
   38.3178   25.4896    4.6134 C   0  0  2  0  0  0  0  0  0  0  0  0
   40.0376   22.5308    1.5600 N   0  0  0  0  0  0  0  0  0  0  0  0
   36.3720   26.7882    5.4615 O   0  0  0  0  0  0  0  0  0  0  0  0
   37.8057   26.5097    5.6730 C   0  0  1  0  0  0  0  0  0  0  0  0
   40.2909   24.2674    3.9471 O   0  0  0  0  0  0  0  0  0  0  0  0
   38.0088   25.9212    7.1579 C   0  0  1  0  0  0  0  0  0  0  0  0
   42.3144   25.1355    3.0431 O   0  0  0  0  0  0  0  0  0  0  0  0
   39.5606   25.6319    7.3544 C   0  0  0  0  0  0  0  0  0  0  0  0
   44.4473   22.1506    3.6851 O   0  0  0  0  0  0  0  0  0  0  0  0
   40.0302   24.6167    6.2312 C   0  0  1  0  0  0  0  0  0  0  0  0
   42.5678   21.0471    1.8401 O   0  0  0  0  0  0  0  0  0  0  0  0
   39.8643   25.1983    4.8635 C   0  0  2  0  0  0  0  0  0  0  0  0
   37.0430   28.7702    2.2574 O   0  0  0  0  0  0  0  0  0  0  0  0
   40.9950   24.5006    2.7002 C   0  0  1  0  0  0  0  0  0  0  0  0
   34.5006   27.9110    1.5795 O   0  0  0  0  0  0  0  0  0  0  0  0
   43.2823   24.2631    3.8309 C   0  0  2  0  0  0  0  0  0  0  0  0
   44.5559   25.0460    4.1281 C   0  0  0  0  0  0  0  0  0  0  0  0
   43.5726   22.9983    2.9904 C   0  0  2  0  0  0  0  0  0  0  0  0
   42.2860   22.2563    2.6689 C   0  0  1  0  0  0  0  0  0  0  0  0
   41.3449   23.2120    1.9124 C   0  0  1  0  0  0  0  0  0  0  0  0
   36.8962   27.5254    1.6760 C   0  0  2  0  0  0  0  0  0  0  0  0
   35.5944   27.2889    0.8449 C   0  0  1  0  0  0  0  0  0  0  0  0
  1  3  1  0  0  0  0
  4  1  1  6  0  0  0
  4  6  1  0  0  0  0
  4 31  1  0  0  0  0
  6  7  1  0  0  0  0
  7  9  1  6  0  0  0
  7 30  1  0  0  0  0
  8 26  1  0  0  0  0
 10  9  1  6  0  0  0
 10 13  1  0  0  0  0
 10 21  1  0  0  0  0
 13 12  1  6  0  0  0
 13 15  1  0  0  0  0
 15  2  1  1  0  0  0
 15 17  1  0  0  0  0
 16 25  1  0  0  0  0
 16 23  1  0  0  0  0
 17 19  1  0  0  0  0
 19  5  1  1  0  0  0
 19 21  1  0  0  0  0
 21 14  1  6  0  0  0
 23 14  1  1  0  0  0
 23 29  1  0  0  0  0
 25 26  1  6  0  0  0
 25 27  1  0  0  0  0
 27 18  1  1  0  0  0
 27 28  1  0  0  0  0
 28 20  1  6  0  0  0
 28 29  1  0  0  0  0
 29 11  1  1  0  0  0
 30 22  1  1  0  0  0
 30 31  1  0  0  0  0
 31 24  1  1  0  0  0
M  END
>  <CHROM.1>
-58.94040360,-79.61924527,-61.07454104,62.40755095,98.44141294,-51.12656451
39.46111036,25.16864451,3.38759634,-3.12041515,-0.46461652,1.31621042

>  <Name>
ligand

>  <RI>
0

>  <Rbt.Current_Directory>
/home/itssahil/PROJECTS/Mol_Feturizer/New_Systems/rnas/2ET5

>  <Rbt.Executable>
rbdock ($Id: //depot/dev/client3/rdock/2013.1/src/exe/rbdock.cxx#4 $)

>  <Rbt.Library>
libRbt.so (2013.1, Build901 2013/11/27)

>  <Rbt.Parameter_File>
/export/apps/rDock/src/rDock_2013.1_src/data/scripts/dock_solv.prm

>  <Rbt.Receptor>
prm/pocket_docking_5.prm

>  <SCORE>
-7.083

>  <SCORE.INTER>
-6.40033

>  <SCORE.INTER.CONST>
1

>  <SCORE.INTER.POLAR>
0

>  <SCORE.INTER.ROT>
6

>  <SCORE.INTER.SOLV>
14.32

>  <SCORE.INTER.VDW>
-16.6402

>  <SCORE.INTER.norm>
-0.206462

>  <SCORE.INTRA>
-0.682669

>  <SCORE.INTRA.DIHEDRAL>
-3.95928

>  <SCORE.INTRA.DIHEDRAL.0>
11.2357

>  <SCORE.INTRA.POLAR>
0

>  <SCORE.INTRA.POLAR.0>
0

>  <SCORE.INTRA.REPUL>
0

>  <SCORE.INTRA.REPUL.0>
0

>  <SCORE.INTRA.SOLV>
-0.190541

>  <SCORE.INTRA.SOLV.lig_0>
-83.3092

>  <SCORE.INTRA.VDW>
1.39224

>  <SCORE.INTRA.VDW.0>
-4.47057

>  <SCORE.INTRA.norm>
-0.0220216

>  <SCORE.RESTR>
0

>  <SCORE.RESTR.CAVITY>
0

>  <SCORE.RESTR.norm>
0

>  <SCORE.SYSTEM>
0

>  <SCORE.SYSTEM.CONST>
0

>  <SCORE.SYSTEM.DIHEDRAL>
0

>  <SCORE.SYSTEM.SOLV>
0

>  <SCORE.SYSTEM.norm>
0

>  <SCORE.heavy>
31

>  <SCORE.norm>
-0.228484

>  <RMSD>
6.182

$$$$
ligand
 OpenBabel11021811433D
libRbt.so/2013.1/901 2013/11/27
 31 33  0  0  0  0  0  0  0  0999 V2000
   44.8201   21.6532    2.1304 C   0  0  0  0  0  0  0  0  0  0  0  0
   41.3725   22.7688   -3.2121 N   0  0  0  0  0  0  0  0  0  0  0  0
   46.0258   21.6764    2.9086 O   0  0  0  0  0  0  0  0  0  0  0  0
   44.2352   23.0532    2.2971 C   0  0  1  0  0  0  0  0  0  0  0  0
   38.1893   25.9129   -0.8224 N   0  0  0  0  0  0  0  0  0  0  0  0
   42.9743   23.3172    1.4944 O   0  0  0  0  0  0  0  0  0  0  0  0
   41.8328   23.3581    2.2608 C   0  0  1  0  0  0  0  0  0  0  0  0
   41.2899   27.6783    2.4789 N   0  0  0  0  0  0  0  0  0  0  0  0
   40.7323   22.6017    1.8388 O   0  0  0  0  0  0  0  0  0  0  0  0
   40.0240   22.8347    0.5350 C   0  0  2  0  0  0  0  0  0  0  0  0
   36.4172   23.5389    3.4313 N   0  0  0  0  0  0  0  0  0  0  0  0
   41.6283   21.3112   -0.6039 O   0  0  0  0  0  0  0  0  0  0  0  0
   41.0588   22.6725   -0.6176 C   0  0  1  0  0  0  0  0  0  0  0  0
   38.4780   24.4222    1.4945 O   0  0  0  0  0  0  0  0  0  0  0  0
   40.3524   22.9277   -2.0418 C   0  0  1  0  0  0  0  0  0  0  0  0
   39.6410   25.4763    3.2838 O   0  0  0  0  0  0  0  0  0  0  0  0
   39.7499   24.3998   -2.0249 C   0  0  0  0  0  0  0  0  0  0  0  0
   37.3215   28.3551    3.7349 O   0  0  0  0  0  0  0  0  0  0  0  0
   38.7322   24.5140   -0.8150 C   0  0  1  0  0  0  0  0  0  0  0  0
   35.5853   26.1907    4.4098 O   0  0  0  0  0  0  0  0  0  0  0  0
   39.4174   24.3077    0.4982 C   0  0  2  0  0  0  0  0  0  0  0  0
   41.4591   23.7175    4.5891 O   0  0  0  0  0  0  0  0  0  0  0  0
   38.6880   24.3684    2.9290 C   0  0  1  0  0  0  0  0  0  0  0  0
   43.8408   24.9309    3.8701 O   0  0  0  0  0  0  0  0  0  0  0  0
   39.1220   26.8904    3.0613 C   0  0  2  0  0  0  0  0  0  0  0  0
   40.2014   27.8997    3.4351 C   0  0  0  0  0  0  0  0  0  0  0  0
   37.8500   27.0698    3.9217 C   0  0  2  0  0  0  0  0  0  0  0  0
   36.8039   26.0275    3.5631 C   0  0  1  0  0  0  0  0  0  0  0  0
   37.4135   24.6290    3.7724 C   0  0  1  0  0  0  0  0  0  0  0  0
   42.2841   23.0765    3.6848 C   0  0  2  0  0  0  0  0  0  0  0  0
   43.7922   23.4847    3.6999 C   0  0  1  0  0  0  0  0  0  0  0  0
  1  3  1  0  0  0  0
  4  1  1  1  0  0  0
  4  6  1  0  0  0  0
  4 31  1  0  0  0  0
  6  7  1  0  0  0  0
  7  9  1  6  0  0  0
  7 30  1  0  0  0  0
  8 26  1  0  0  0  0
 10  9  1  1  0  0  0
 10 13  1  0  0  0  0
 10 21  1  0  0  0  0
 13 12  1  6  0  0  0
 13 15  1  0  0  0  0
 15  2  1  6  0  0  0
 15 17  1  0  0  0  0
 16 25  1  0  0  0  0
 16 23  1  0  0  0  0
 17 19  1  0  0  0  0
 19  5  1  1  0  0  0
 19 21  1  0  0  0  0
 21 14  1  1  0  0  0
 23 14  1  6  0  0  0
 23 29  1  0  0  0  0
 25 26  1  1  0  0  0
 25 27  1  0  0  0  0
 27 18  1  6  0  0  0
 27 28  1  0  0  0  0
 28 20  1  1  0  0  0
 28 29  1  0  0  0  0
 29 11  1  6  0  0  0
 30 22  1  1  0  0  0
 30 31  1  0  0  0  0
 31 24  1  6  0  0  0
M  END
>  <CHROM.1>
176.66474369,-62.21301784,58.54097318,59.35117335,65.53748357,64.69893101
40.39187838,24.35386684,1.94494169,-0.47253821,-0.43064235,1.14833506

>  <Name>
ligand

>  <RI>
0

>  <Rbt.Current_Directory>
/home/itssahil/PROJECTS/Mol_Feturizer/New_Systems/rnas/2ET5

>  <Rbt.Executable>
rbdock ($Id: //depot/dev/client3/rdock/2013.1/src/exe/rbdock.cxx#4 $)

>  <Rbt.Library>
libRbt.so (2013.1, Build901 2013/11/27)

>  <Rbt.Parameter_File>
/export/apps/rDock/src/rDock_2013.1_src/data/scripts/dock_solv.prm

>  <Rbt.Receptor>
prm/pocket_docking_6.prm

>  <SCORE>
-8.74092

>  <SCORE.INTER>
-2.28424

>  <SCORE.INTER.CONST>
1

>  <SCORE.INTER.POLAR>
0

>  <SCORE.INTER.ROT>
6

>  <SCORE.INTER.SOLV>
15.8089

>  <SCORE.INTER.VDW>
-14.3925

>  <SCORE.INTER.norm>
-0.0736851

>  <SCORE.INTRA>
-6.45668

>  <SCORE.INTRA.DIHEDRAL>
-10.7878

>  <SCORE.INTRA.DIHEDRAL.0>
11.2357

>  <SCORE.INTRA.POLAR>
0

>  <SCORE.INTRA.POLAR.0>
0

>  <SCORE.INTRA.REPUL>
0

>  <SCORE.INTRA.REPUL.0>
0

>  <SCORE.INTRA.SOLV>
-3.0931

>  <SCORE.INTRA.SOLV.lig_0>
-83.3092

>  <SCORE.INTRA.VDW>
0.483753

>  <SCORE.INTRA.VDW.0>
-4.47057

>  <SCORE.INTRA.norm>
-0.20828

>  <SCORE.RESTR>
0

>  <SCORE.RESTR.CAVITY>
0

>  <SCORE.RESTR.norm>
0

>  <SCORE.SYSTEM>
0

>  <SCORE.SYSTEM.CONST>
0

>  <SCORE.SYSTEM.DIHEDRAL>
0

>  <SCORE.SYSTEM.SOLV>
0

>  <SCORE.SYSTEM.norm>
0

>  <SCORE.heavy>
31

>  <SCORE.norm>
-0.281965

>  <RMSD>
6.185

$$$$
ligand
 OpenBabel11021811433D
libRbt.so/2013.1/901 2013/11/27
 31 33  0  0  0  0  0  0  0  0999 V2000
   38.7214   28.5569   -2.1421 C   0  0  0  0  0  0  0  0  0  0  0  0
   33.7956   25.1736    3.7186 N   0  0  0  0  0  0  0  0  0  0  0  0
   38.0740   27.4674   -2.8155 O   0  0  0  0  0  0  0  0  0  0  0  0
   37.6359   29.1456   -1.2447 C   0  0  1  0  0  0  0  0  0  0  0  0
   38.2819   22.8068    3.7086 N   0  0  0  0  0  0  0  0  0  0  0  0
   37.0690   28.1846   -0.2155 O   0  0  0  0  0  0  0  0  0  0  0  0
   37.4867   28.4452    1.0690 C   0  0  1  0  0  0  0  0  0  0  0  0
   41.0227   25.6468    6.0382 N   0  0  0  0  0  0  0  0  0  0  0  0
   37.9812   27.3764    1.8271 O   0  0  0  0  0  0  0  0  0  0  0  0
   37.2615   26.0660    1.9708 C   0  0  2  0  0  0  0  0  0  0  0  0
   41.0200   24.7518   -0.3497 N   0  0  0  0  0  0  0  0  0  0  0  0
   35.0844   27.2703    2.0052 O   0  0  0  0  0  0  0  0  0  0  0  0
   35.9358   26.3207    2.7474 C   0  0  1  0  0  0  0  0  0  0  0  0
   39.3088   24.7893    2.0688 O   0  0  0  0  0  0  0  0  0  0  0  0
   35.1296   24.9407    2.9428 C   0  0  1  0  0  0  0  0  0  0  0  0
   41.0386   25.9525    3.2177 O   0  0  0  0  0  0  0  0  0  0  0  0
   36.0719   23.9405    3.7441 C   0  0  0  0  0  0  0  0  0  0  0  0
   43.3665   23.0737    3.6232 O   0  0  0  0  0  0  0  0  0  0  0  0
   37.4144   23.7466    2.9240 C   0  0  1  0  0  0  0  0  0  0  0  0
   43.3203   23.2952    0.7766 O   0  0  0  0  0  0  0  0  0  0  0  0
   38.1622   25.0343    2.7854 C   0  0  2  0  0  0  0  0  0  0  0  0
   38.3847   30.3916    2.1151 O   0  0  0  0  0  0  0  0  0  0  0  0
   40.4405   25.6742    1.8663 C   0  0  1  0  0  0  0  0  0  0  0  0
   36.8464   31.1717   -0.0499 O   0  0  0  0  0  0  0  0  0  0  0  0
   41.6564   24.7544    3.9259 C   0  0  2  0  0  0  0  0  0  0  0  0
   42.1923   25.1814    5.2875 C   0  0  0  0  0  0  0  0  0  0  0  0
   42.7781   24.1949    3.0208 C   0  0  2  0  0  0  0  0  0  0  0  0
   42.2310   23.8157    1.6547 C   0  0  1  0  0  0  0  0  0  0  0  0
   41.5873   25.0629    1.0210 C   0  0  1  0  0  0  0  0  0  0  0  0
   38.4294   29.6327    0.9613 C   0  0  2  0  0  0  0  0  0  0  0  0
   38.0043   30.3445   -0.3631 C   0  0  1  0  0  0  0  0  0  0  0  0
  1  3  1  0  0  0  0
  4  1  1  1  0  0  0
  4  6  1  0  0  0  0
  4 31  1  0  0  0  0
  6  7  1  0  0  0  0
  7  9  1  6  0  0  0
  7 30  1  0  0  0  0
  8 26  1  0  0  0  0
 10  9  1  1  0  0  0
 10 13  1  0  0  0  0
 10 21  1  0  0  0  0
 13 12  1  6  0  0  0
 13 15  1  0  0  0  0
 15  2  1  1  0  0  0
 15 17  1  0  0  0  0
 16 25  1  0  0  0  0
 16 23  1  0  0  0  0
 17 19  1  0  0  0  0
 19  5  1  1  0  0  0
 19 21  1  0  0  0  0
 21 14  1  6  0  0  0
 23 14  1  1  0  0  0
 23 29  1  0  0  0  0
 25 26  1  1  0  0  0
 25 27  1  0  0  0  0
 27 18  1  1  0  0  0
 27 28  1  0  0  0  0
 28 20  1  6  0  0  0
 28 29  1  0  0  0  0
 29 11  1  6  0  0  0
 30 22  1  1  0  0  0
 30 31  1  0  0  0  0
 31 24  1  1  0  0  0
M  END
>  <CHROM.1>
60.34388373,-49.68525862,-65.67962726,62.05384975,72.67490596,62.05771446
38.90236685,26.23095201,1.84009719,-2.30661012,-0.23796652,2.37666929

>  <Name>
ligand

>  <RI>
0

>  <Rbt.Current_Directory>
/home/itssahil/PROJECTS/Mol_Feturizer/New_Systems/rnas/2ET5

>  <Rbt.Executable>
rbdock ($Id: //depot/dev/client3/rdock/2013.1/src/exe/rbdock.cxx#4 $)

>  <Rbt.Library>
libRbt.so (2013.1, Build901 2013/11/27)

>  <Rbt.Parameter_File>
/export/apps/rDock/src/rDock_2013.1_src/data/scripts/dock_solv.prm

>  <Rbt.Receptor>
prm/pocket_docking_8.prm

>  <SCORE>
-7.93057

>  <SCORE.INTER>
-2.49776

>  <SCORE.INTER.CONST>
1

>  <SCORE.INTER.POLAR>
0

>  <SCORE.INTER.ROT>
6

>  <SCORE.INTER.SOLV>
14.7208

>  <SCORE.INTER.VDW>
-14.1721

>  <SCORE.INTER.norm>
-0.0805728

>  <SCORE.INTRA>
-5.43282

>  <SCORE.INTRA.DIHEDRAL>
-9.63781

>  <SCORE.INTRA.DIHEDRAL.0>
11.2357

>  <SCORE.INTRA.POLAR>
0

>  <SCORE.INTRA.POLAR.0>
0

>  <SCORE.INTRA.REPUL>
0

>  <SCORE.INTRA.REPUL.0>
0

>  <SCORE.INTRA.SOLV>
-4.13443

>  <SCORE.INTRA.SOLV.lig_0>
-83.3092

>  <SCORE.INTRA.VDW>
1.4533

>  <SCORE.INTRA.VDW.0>
-4.47057

>  <SCORE.INTRA.norm>
-0.175252

>  <SCORE.RESTR>
0

>  <SCORE.RESTR.CAVITY>
0

>  <SCORE.RESTR.norm>
0

>  <SCORE.SYSTEM>
0

>  <SCORE.SYSTEM.CONST>
0

>  <SCORE.SYSTEM.DIHEDRAL>
0

>  <SCORE.SYSTEM.SOLV>
0

>  <SCORE.SYSTEM.norm>
0

>  <SCORE.heavy>
31

>  <SCORE.norm>
-0.255825

>  <RMSD>
6.191

$$$$
ligand
 OpenBabel11021811433D
libRbt.so/2013.1/901 2013/11/27
 31 33  0  0  0  0  0  0  0  0999 V2000
   44.8738   21.4572    2.1136 C   0  0  0  0  0  0  0  0  0  0  0  0
   41.3988   22.8292   -3.2408 N   0  0  0  0  0  0  0  0  0  0  0  0
   46.1164   21.4647    2.8315 O   0  0  0  0  0  0  0  0  0  0  0  0
   44.3569   22.8881    2.2369 C   0  0  1  0  0  0  0  0  0  0  0  0
   38.2374   25.9250   -0.7609 N   0  0  0  0  0  0  0  0  0  0  0  0
   43.1035   23.1848    1.4337 O   0  0  0  0  0  0  0  0  0  0  0  0
   41.9713   23.3052    2.2056 C   0  0  1  0  0  0  0  0  0  0  0  0
   41.3119   27.7285    2.4883 N   0  0  0  0  0  0  0  0  0  0  0  0
   40.8331   22.5883    1.8161 O   0  0  0  0  0  0  0  0  0  0  0  0
   40.1049   22.8363    0.5261 C   0  0  2  0  0  0  0  0  0  0  0  0
   36.5514   23.4581    3.4861 N   0  0  0  0  0  0  0  0  0  0  0  0
   41.6988   21.3362   -0.6573 O   0  0  0  0  0  0  0  0  0  0  0  0
   41.1234   22.6950   -0.6435 C   0  0  1  0  0  0  0  0  0  0  0  0
   38.5663   24.4033    1.5303 O   0  0  0  0  0  0  0  0  0  0  0  0
   40.3952   22.9671   -2.0536 C   0  0  1  0  0  0  0  0  0  0  0  0
   39.7351   25.4588    3.3150 O   0  0  0  0  0  0  0  0  0  0  0  0
   39.7867   24.4360   -2.0072 C   0  0  0  0  0  0  0  0  0  0  0  0
   37.3680   28.2870    3.8336 O   0  0  0  0  0  0  0  0  0  0  0  0
   38.7863   24.5287   -0.7812 C   0  0  1  0  0  0  0  0  0  0  0  0
   35.6835   26.0820    4.5079 O   0  0  0  0  0  0  0  0  0  0  0  0
   39.4915   24.3070    0.5189 C   0  0  2  0  0  0  0  0  0  0  0  0
   41.6334   23.7589    4.5228 O   0  0  0  0  0  0  0  0  0  0  0  0
   38.7983   24.3369    2.9609 C   0  0  1  0  0  0  0  0  0  0  0  0
   44.0640   24.8336    3.7486 O   0  0  0  0  0  0  0  0  0  0  0  0
   39.1860   26.8652    3.1167 C   0  0  2  0  0  0  0  0  0  0  0  0
   40.2513   27.8906    3.4869 C   0  0  0  0  0  0  0  0  0  0  0  0
   37.9236   27.0101    3.9975 C   0  0  2  0  0  0  0  0  0  0  0  0
   36.8924   25.9521    3.6418 C   0  0  1  0  0  0  0  0  0  0  0  0
   37.5316   24.5632    3.8257 C   0  0  1  0  0  0  0  0  0  0  0  0
   42.4200   23.0499    3.6353 C   0  0  2  0  0  0  0  0  0  0  0  0
   43.9458   23.3864    3.6273 C   0  0  1  0  0  0  0  0  0  0  0  0
  1  3  1  0  0  0  0
  4  1  1  1  0  0  0
  4  6  1  0  0  0  0
  4 31  1  0  0  0  0
  6  7  1  0  0  0  0
  7  9  1  6  0  0  0
  7 30  1  0  0  0  0
  8 26  1  0  0  0  0
 10  9  1  1  0  0  0
 10 13  1  0  0  0  0
 10 21  1  0  0  0  0
 13 12  1  6  0  0  0
 13 15  1  0  0  0  0
 15  2  1  6  0  0  0
 15 17  1  0  0  0  0
 16 25  1  0  0  0  0
 16 23  1  0  0  0  0
 17 19  1  0  0  0  0
 19  5  1  1  0  0  0
 19 21  1  0  0  0  0
 21 14  1  1  0  0  0
 23 14  1  6  0  0  0
 23 29  1  0  0  0  0
 25 26  1  1  0  0  0
 25 27  1  0  0  0  0
 27 18  1  6  0  0  0
 27 28  1  0  0  0  0
 28 20  1  1  0  0  0
 28 29  1  0  0  0  0
 29 11  1  6  0  0  0
 30 22  1  1  0  0  0
 30 31  1  0  0  0  0
 31 24  1  6  0  0  0
M  END
>  <CHROM.1>
174.10415709,-63.89908854,55.67684290,59.96053684,65.87455352,66.33944847
40.48327649,24.31249583,1.94662425,-0.47455798,-0.43741669,1.16239517

>  <Name>
ligand

>  <RI>
0

>  <Rbt.Current_Directory>
/home/itssahil/PROJECTS/Mol_Feturizer/New_Systems/rnas/2ET5

>  <Rbt.Executable>
rbdock ($Id: //depot/dev/client3/rdock/2013.1/src/exe/rbdock.cxx#4 $)

>  <Rbt.Library>
libRbt.so (2013.1, Build901 2013/11/27)

>  <Rbt.Parameter_File>
/export/apps/rDock/src/rDock_2013.1_src/data/scripts/dock_solv.prm

>  <Rbt.Receptor>
prm/pocket_docking_5.prm

>  <SCORE>
-8.84548

>  <SCORE.INTER>
-2.48073

>  <SCORE.INTER.CONST>
1

>  <SCORE.INTER.POLAR>
0

>  <SCORE.INTER.ROT>
6

>  <SCORE.INTER.SOLV>
15.7624

>  <SCORE.INTER.VDW>
-14.508

>  <SCORE.INTER.norm>
-0.0800236

>  <SCORE.INTRA>
-6.36475

>  <SCORE.INTRA.DIHEDRAL>
-10.4917

>  <SCORE.INTRA.DIHEDRAL.0>
11.2357

>  <SCORE.INTRA.POLAR>
0

>  <SCORE.INTRA.POLAR.0>
0

>  <SCORE.INTRA.REPUL>
0

>  <SCORE.INTRA.REPUL.0>
0

>  <SCORE.INTRA.SOLV>
-3.33379

>  <SCORE.INTRA.SOLV.lig_0>
-83.3092

>  <SCORE.INTRA.VDW>
0.548003

>  <SCORE.INTRA.VDW.0>
-4.47057

>  <SCORE.INTRA.norm>
-0.205315

>  <SCORE.RESTR>
0

>  <SCORE.RESTR.CAVITY>
0

>  <SCORE.RESTR.norm>
0

>  <SCORE.SYSTEM>
0

>  <SCORE.SYSTEM.CONST>
0

>  <SCORE.SYSTEM.DIHEDRAL>
0

>  <SCORE.SYSTEM.SOLV>
0

>  <SCORE.SYSTEM.norm>
0

>  <SCORE.heavy>
31

>  <SCORE.norm>
-0.285338

>  <RMSD>
6.194

$$$$
ligand
 OpenBabel11021811433D
libRbt.so/2013.1/901 2013/11/27
 31 33  0  0  0  0  0  0  0  0999 V2000
   43.1318   24.7072    5.1483 C   0  0  0  0  0  0  0  0  0  0  0  0
   45.0402   20.8732    3.3427 N   0  0  0  0  0  0  0  0  0  0  0  0
   43.2221   24.6127    6.5774 O   0  0  0  0  0  0  0  0  0  0  0  0
   41.6621   25.0221    4.8820 C   0  0  1  0  0  0  0  0  0  0  0  0
   45.5317   25.4487    1.2093 N   0  0  0  0  0  0  0  0  0  0  0  0
   41.2956   25.1626    3.4158 O   0  0  0  0  0  0  0  0  0  0  0  0
   40.5764   24.0981    2.9241 C   0  0  1  0  0  0  0  0  0  0  0  0
   40.1683   29.0588    2.6031 N   0  0  0  0  0  0  0  0  0  0  0  0
   41.0008   23.5197    1.7213 O   0  0  0  0  0  0  0  0  0  0  0  0
   42.4375   23.1985    1.4237 C   0  0  2  0  0  0  0  0  0  0  0  0
   41.7100   25.9160   -2.2209 N   0  0  0  0  0  0  0  0  0  0  0  0
   42.1612   20.9767    2.5096 O   0  0  0  0  0  0  0  0  0  0  0  0
   42.9553   22.2205    2.5195 C   0  0  1  0  0  0  0  0  0  0  0  0
   42.8690   25.3655    0.4497 O   0  0  0  0  0  0  0  0  0  0  0  0
   44.5009   21.8543    2.2555 C   0  0  1  0  0  0  0  0  0  0  0  0
   41.1938   26.7561    1.4117 O   0  0  0  0  0  0  0  0  0  0  0  0
   45.3284   23.2127    2.2720 C   0  0  0  0  0  0  0  0  0  0  0  0
   42.5951   30.0272    0.3130 O   0  0  0  0  0  0  0  0  0  0  0  0
   44.7365   24.1772    1.1622 C   0  0  1  0  0  0  0  0  0  0  0  0
   42.0074   28.8474   -2.2202 O   0  0  0  0  0  0  0  0  0  0  0  0
   43.3115   24.5306    1.4473 C   0  0  2  0  0  0  0  0  0  0  0  0
   39.2677   22.4049    3.9776 O   0  0  0  0  0  0  0  0  0  0  0  0
   41.5257   25.8724    0.2411 C   0  0  1  0  0  0  0  0  0  0  0  0
   39.3229   24.6368    5.6138 O   0  0  0  0  0  0  0  0  0  0  0  0
   42.0277   28.0237    1.5398 C   0  0  2  0  0  0  0  0  0  0  0  0
   41.5996   28.7983    2.7808 C   0  0  0  0  0  0  0  0  0  0  0  0
   41.8286   28.8546    0.2512 C   0  0  2  0  0  0  0  0  0  0  0  0
   42.2203   28.0495   -0.9766 C   0  0  1  0  0  0  0  0  0  0  0  0
   41.3677   26.7677   -1.0148 C   0  0  1  0  0  0  0  0  0  0  0  0
   40.4440   23.1223    4.0821 C   0  0  2  0  0  0  0  0  0  0  0  0
   40.6129   24.0100    5.3567 C   0  0  1  0  0  0  0  0  0  0  0  0
  1  3  1  0  0  0  0
  4  1  1  6  0  0  0
  4  6  1  0  0  0  0
  4 31  1  0  0  0  0
  6  7  1  0  0  0  0
  7  9  1  6  0  0  0
  7 30  1  0  0  0  0
  8 26  1  0  0  0  0
 10  9  1  1  0  0  0
 10 13  1  0  0  0  0
 10 21  1  0  0  0  0
 13 12  1  6  0  0  0
 13 15  1  0  0  0  0
 15  2  1  1  0  0  0
 15 17  1  0  0  0  0
 16 25  1  0  0  0  0
 16 23  1  0  0  0  0
 17 19  1  0  0  0  0
 19  5  1  1  0  0  0
 19 21  1  0  0  0  0
 21 14  1  6  0  0  0
 23 14  1  1  0  0  0
 23 29  1  0  0  0  0
 25 26  1  1  0  0  0
 25 27  1  0  0  0  0
 27 18  1  1  0  0  0
 27 28  1  0  0  0  0
 28 20  1  6  0  0  0
 28 29  1  0  0  0  0
 29 11  1  6  0  0  0
 30 22  1  1  0  0  0
 30 31  1  0  0  0  0
 31 24  1  6  0  0  0
M  END
>  <CHROM.1>
-179.48988153,45.22201532,58.42795128,64.83941560,56.24758314,-57.54678909
42.15210499,25.17401767,2.11690125,1.48983957,-0.86354461,2.42710994

>  <Name>
ligand

>  <RI>
0

>  <Rbt.Current_Directory>
/home/itssahil/PROJECTS/Mol_Feturizer/New_Systems/rnas/2ET5

>  <Rbt.Executable>
rbdock ($Id: //depot/dev/client3/rdock/2013.1/src/exe/rbdock.cxx#4 $)

>  <Rbt.Library>
libRbt.so (2013.1, Build901 2013/11/27)

>  <Rbt.Parameter_File>
/export/apps/rDock/src/rDock_2013.1_src/data/scripts/dock_solv.prm

>  <Rbt.Receptor>
prm/pocket_docking_8.prm

>  <SCORE>
-6.07432

>  <SCORE.INTER>
-2.02935

>  <SCORE.INTER.CONST>
1

>  <SCORE.INTER.POLAR>
0

>  <SCORE.INTER.ROT>
6

>  <SCORE.INTER.SOLV>
15.3803

>  <SCORE.INTER.VDW>
-14.0797

>  <SCORE.INTER.norm>
-0.0654629

>  <SCORE.INTRA>
-4.04497

>  <SCORE.INTRA.DIHEDRAL>
-9.87611

>  <SCORE.INTRA.DIHEDRAL.0>
11.2357

>  <SCORE.INTRA.POLAR>
0

>  <SCORE.INTRA.POLAR.0>
0

>  <SCORE.INTRA.REPUL>
0.291403

>  <SCORE.INTRA.REPUL.0>
0

>  <SCORE.INTRA.SOLV>
-1.52759

>  <SCORE.INTRA.SOLV.lig_0>
-83.3092

>  <SCORE.INTRA.VDW>
0.199863

>  <SCORE.INTRA.VDW.0>
-4.47057

>  <SCORE.INTRA.norm>
-0.130483

>  <SCORE.RESTR>
0

>  <SCORE.RESTR.CAVITY>
0

>  <SCORE.RESTR.norm>
0

>  <SCORE.SYSTEM>
0

>  <SCORE.SYSTEM.CONST>
0

>  <SCORE.SYSTEM.DIHEDRAL>
0

>  <SCORE.SYSTEM.SOLV>
0

>  <SCORE.SYSTEM.norm>
0

>  <SCORE.heavy>
31

>  <SCORE.norm>
-0.195946

>  <RMSD>
6.196

$$$$
ligand
 OpenBabel11021811433D
libRbt.so/2013.1/901 2013/11/27
 31 33  0  0  0  0  0  0  0  0999 V2000
   45.2779   21.4966    2.4207 C   0  0  0  0  0  0  0  0  0  0  0  0
   41.5244   22.2171   -2.8720 N   0  0  0  0  0  0  0  0  0  0  0  0
   44.1827   20.7794    3.0086 O   0  0  0  0  0  0  0  0  0  0  0  0
   44.8065   22.9481    2.3898 C   0  0  1  0  0  0  0  0  0  0  0  0
   38.6912   25.8155   -0.6919 N   0  0  0  0  0  0  0  0  0  0  0  0
   43.5192   23.1842    1.6210 O   0  0  0  0  0  0  0  0  0  0  0  0
   42.4346   23.4367    2.4285 C   0  0  1  0  0  0  0  0  0  0  0  0
   41.7040   28.0194    4.4407 N   0  0  0  0  0  0  0  0  0  0  0  0
   41.2582   22.7150    2.1908 O   0  0  0  0  0  0  0  0  0  0  0  0
   40.4664   22.8261    0.9193 C   0  0  2  0  0  0  0  0  0  0  0  0
   37.0999   24.2652    3.9500 N   0  0  0  0  0  0  0  0  0  0  0  0
   41.9023   21.0812   -0.1224 O   0  0  0  0  0  0  0  0  0  0  0  0
   41.4023   22.4615   -0.2710 C   0  0  1  0  0  0  0  0  0  0  0  0
   39.0784   24.6089    1.7714 O   0  0  0  0  0  0  0  0  0  0  0  0
   40.6044   22.5797   -1.6646 C   0  0  1  0  0  0  0  0  0  0  0  0
   40.4859   25.7739    3.2967 O   0  0  0  0  0  0  0  0  0  0  0  0
   40.0793   24.0756   -1.7949 C   0  0  0  0  0  0  0  0  0  0  0  0
   38.5240   28.9363    3.4418 O   0  0  0  0  0  0  0  0  0  0  0  0
   39.1624   24.3988   -0.5429 C   0  0  1  0  0  0  0  0  0  0  0  0
   36.6315   27.1106    4.5550 O   0  0  0  0  0  0  0  0  0  0  0  0
   39.9332   24.3165    0.7360 C   0  0  2  0  0  0  0  0  0  0  0  0
   42.2364   24.1849    4.6847 O   0  0  0  0  0  0  0  0  0  0  0  0
   39.3969   24.7434    3.1804 C   0  0  1  0  0  0  0  0  0  0  0  0
   44.6483   25.0745    3.6585 O   0  0  0  0  0  0  0  0  0  0  0  0
   40.1013   27.1901    2.8904 C   0  0  2  0  0  0  0  0  0  0  0  0
   41.3069   28.1119    3.0328 C   0  0  0  0  0  0  0  0  0  0  0  0
   38.9287   27.6403    3.7921 C   0  0  2  0  0  0  0  0  0  0  0  0
   37.7539   26.6845    3.6678 C   0  0  1  0  0  0  0  0  0  0  0  0
   38.2290   25.2712    4.0528 C   0  0  1  0  0  0  0  0  0  0  0  0
   42.9542   23.3458    3.8541 C   0  0  2  0  0  0  0  0  0  0  0  0
   44.4856   23.6281    3.7259 C   0  0  1  0  0  0  0  0  0  0  0  0
  1  3  1  0  0  0  0
  4  1  1  1  0  0  0
  4  6  1  0  0  0  0
  4 31  1  0  0  0  0
  6  7  1  0  0  0  0
  7  9  1  1  0  0  0
  7 30  1  0  0  0  0
  8 26  1  0  0  0  0
 10  9  1  1  0  0  0
 10 13  1  0  0  0  0
 10 21  1  0  0  0  0
 13 12  1  1  0  0  0
 13 15  1  0  0  0  0
 15  2  1  6  0  0  0
 15 17  1  0  0  0  0
 16 25  1  0  0  0  0
 16 23  1  0  0  0  0
 17 19  1  0  0  0  0
 19  5  1  6  0  0  0
 19 21  1  0  0  0  0
 21 14  1  1  0  0  0
 23 14  1  6  0  0  0
 23 29  1  0  0  0  0
 25 26  1  1  0  0  0
 25 27  1  0  0  0  0
 27 18  1  6  0  0  0
 27 28  1  0  0  0  0
 28 20  1  1  0  0  0
 28 29  1  0  0  0  0
 29 11  1  6  0  0  0
 30 22  1  1  0  0  0
 30 31  1  0  0  0  0
 31 24  1  6  0  0  0
M  END
>  <CHROM.1>
-57.98454138,-63.95363079,57.56415604,55.21581942,66.69977031,-58.56473613
40.94916673,24.47800681,2.15325812,-0.72314350,-0.50153416,0.95133385

>  <Name>
ligand

>  <RI>
0

>  <Rbt.Current_Directory>
/home/itssahil/PROJECTS/Mol_Feturizer/New_Systems/rnas/2ET5

>  <Rbt.Executable>
rbdock ($Id: //depot/dev/client3/rdock/2013.1/src/exe/rbdock.cxx#4 $)

>  <Rbt.Library>
libRbt.so (2013.1, Build901 2013/11/27)

>  <Rbt.Parameter_File>
/export/apps/rDock/src/rDock_2013.1_src/data/scripts/dock_solv.prm

>  <Rbt.Receptor>
prm/pocket_docking_6.prm

>  <SCORE>
-7.2893

>  <SCORE.INTER>
-1.97907

>  <SCORE.INTER.CONST>
1

>  <SCORE.INTER.POLAR>
0

>  <SCORE.INTER.ROT>
6

>  <SCORE.INTER.SOLV>
14.4563

>  <SCORE.INTER.VDW>
-13.7381

>  <SCORE.INTER.norm>
-0.0638411

>  <SCORE.INTRA>
-5.31023

>  <SCORE.INTRA.DIHEDRAL>
-10.6364

>  <SCORE.INTRA.DIHEDRAL.0>
11.2357

>  <SCORE.INTRA.POLAR>
0

>  <SCORE.INTRA.POLAR.0>
0

>  <SCORE.INTRA.REPUL>
0

>  <SCORE.INTRA.REPUL.0>
0

>  <SCORE.INTRA.SOLV>
-0.835252

>  <SCORE.INTRA.SOLV.lig_0>
-83.3092

>  <SCORE.INTRA.VDW>
0.425582

>  <SCORE.INTRA.VDW.0>
-4.47057

>  <SCORE.INTRA.norm>
-0.171298

>  <SCORE.RESTR>
0

>  <SCORE.RESTR.CAVITY>
0

>  <SCORE.RESTR.norm>
0

>  <SCORE.SYSTEM>
0

>  <SCORE.SYSTEM.CONST>
0

>  <SCORE.SYSTEM.DIHEDRAL>
0

>  <SCORE.SYSTEM.SOLV>
0

>  <SCORE.SYSTEM.norm>
0

>  <SCORE.heavy>
31

>  <SCORE.norm>
-0.235139

>  <RMSD>
6.199

$$$$
ligand
 OpenBabel11021811433D
libRbt.so/2013.1/901 2013/11/27
 31 33  0  0  0  0  0  0  0  0999 V2000
   46.3098   20.9737    2.1451 C   0  0  0  0  0  0  0  0  0  0  0  0
   40.4662   23.4158   -3.6721 N   0  0  0  0  0  0  0  0  0  0  0  0
   47.0838   19.7660    2.1904 O   0  0  0  0  0  0  0  0  0  0  0  0
   44.9075   20.5403    2.5645 C   0  0  1  0  0  0  0  0  0  0  0  0
   39.1867   26.1954    0.3733 N   0  0  0  0  0  0  0  0  0  0  0  0
   43.8793   21.6564    2.6006 O   0  0  0  0  0  0  0  0  0  0  0  0
   42.9766   21.6064    1.5638 C   0  0  1  0  0  0  0  0  0  0  0  0
   38.7153   28.1919    5.0009 N   0  0  0  0  0  0  0  0  0  0  0  0
   42.7431   22.7827    0.8406 O   0  0  0  0  0  0  0  0  0  0  0  0
   41.4317   23.0961    0.1788 C   0  0  2  0  0  0  0  0  0  0  0  0
   41.5975   22.4155    3.8612 N   0  0  0  0  0  0  0  0  0  0  0  0
   42.1137   21.7503   -1.8000 O   0  0  0  0  0  0  0  0  0  0  0  0
   41.6483   23.0808   -1.3635 C   0  0  1  0  0  0  0  0  0  0  0  0
   40.6991   24.5237    1.9832 O   0  0  0  0  0  0  0  0  0  0  0  0
   40.2717   23.4269   -2.1237 C   0  0  1  0  0  0  0  0  0  0  0  0
   41.4797   26.1624    3.5228 O   0  0  0  0  0  0  0  0  0  0  0  0
   39.7971   24.8635   -1.6328 C   0  0  0  0  0  0  0  0  0  0  0  0
   38.7683   25.7803    6.0474 O   0  0  0  0  0  0  0  0  0  0  0  0
   39.6261   24.8268   -0.0573 C   0  0  1  0  0  0  0  0  0  0  0  0
   39.9645   23.1912    6.1879 O   0  0  0  0  0  0  0  0  0  0  0  0
   40.9238   24.5381    0.6277 C   0  0  2  0  0  0  0  0  0  0  0  0
   42.2893   19.8531    0.0999 O   0  0  0  0  0  0  0  0  0  0  0  0
   41.6581   24.7465    3.0488 C   0  0  1  0  0  0  0  0  0  0  0  0
   43.2077   18.7360    2.4600 O   0  0  0  0  0  0  0  0  0  0  0  0
   40.1447   26.4738    4.1858 C   0  0  2  0  0  0  0  0  0  0  0  0
   40.0987   27.9442    4.5849 C   0  0  0  0  0  0  0  0  0  0  0  0
   39.9961   25.5444    5.4124 C   0  0  2  0  0  0  0  0  0  0  0  0
   40.0878   24.0851    4.9986 C   0  0  1  0  0  0  0  0  0  0  0  0
   41.4415   23.8577    4.3005 C   0  0  1  0  0  0  0  0  0  0  0  0
   43.3912   20.4152    0.7155 C   0  0  2  0  0  0  0  0  0  0  0  0
   44.1882   19.4992    1.6990 C   0  0  1  0  0  0  0  0  0  0  0  0
  1  3  1  0  0  0  0
  4  1  1  6  0  0  0
  4  6  1  0  0  0  0
  4 31  1  0  0  0  0
  6  7  1  0  0  0  0
  7  9  1  6  0  0  0
  7 30  1  0  0  0  0
  8 26  1  0  0  0  0
 10  9  1  1  0  0  0
 10 13  1  0  0  0  0
 10 21  1  0  0  0  0
 13 12  1  6  0  0  0
 13 15  1  0  0  0  0
 15  2  1  6  0  0  0
 15 17  1  0  0  0  0
 16 25  1  0  0  0  0
 16 23  1  0  0  0  0
 17 19  1  0  0  0  0
 19  5  1  1  0  0  0
 19 21  1  0  0  0  0
 21 14  1  1  0  0  0
 23 14  1  6  0  0  0
 23 29  1  0  0  0  0
 25 26  1  1  0  0  0
 25 27  1  0  0  0  0
 27 18  1  6  0  0  0
 27 28  1  0  0  0  0
 28 20  1  1  0  0  0
 28 29  1  0  0  0  0
 29 11  1  6  0  0  0
 30 22  1  1  0  0  0
 30 31  1  0  0  0  0
 31 24  1  1  0  0  0
M  END
>  <CHROM.1>
179.88447808,-150.13063852,-112.84544073,100.51386234,85.24641065,170.85745296
41.67508588,23.31353362,1.97740099,-0.59929148,-0.85384919,1.37986968

>  <Name>
ligand

>  <RI>
0

>  <Rbt.Current_Directory>
/home/itssahil/PROJECTS/Mol_Feturizer/New_Systems/rnas/2ET5

>  <Rbt.Executable>
rbdock ($Id: //depot/dev/client3/rdock/2013.1/src/exe/rbdock.cxx#4 $)

>  <Rbt.Library>
libRbt.so (2013.1, Build901 2013/11/27)

>  <Rbt.Parameter_File>
/export/apps/rDock/src/rDock_2013.1_src/data/scripts/dock_solv.prm

>  <Rbt.Receptor>
prm/pocket_docking_3.prm

>  <SCORE>
1.00054

>  <SCORE.INTER>
-4.82458

>  <SCORE.INTER.CONST>
1

>  <SCORE.INTER.POLAR>
0

>  <SCORE.INTER.ROT>
6

>  <SCORE.INTER.SOLV>
16.3022

>  <SCORE.INTER.VDW>
-16.2504

>  <SCORE.INTER.norm>
-0.155631

>  <SCORE.INTRA>
5.81423

>  <SCORE.INTRA.DIHEDRAL>
7.76889

>  <SCORE.INTRA.DIHEDRAL.0>
11.2357

>  <SCORE.INTRA.POLAR>
0

>  <SCORE.INTRA.POLAR.0>
0

>  <SCORE.INTRA.REPUL>
0

>  <SCORE.INTRA.REPUL.0>
0

>  <SCORE.INTRA.SOLV>
1.59923

>  <SCORE.INTRA.SOLV.lig_0>
-83.3092

>  <SCORE.INTRA.VDW>
1.13017

>  <SCORE.INTRA.VDW.0>
-4.47057

>  <SCORE.INTRA.norm>
0.187556

>  <SCORE.RESTR>
0.0108848

>  <SCORE.RESTR.CAVITY>
0.0108848

>  <SCORE.RESTR.norm>
0.000351123

>  <SCORE.SYSTEM>
0

>  <SCORE.SYSTEM.CONST>
0

>  <SCORE.SYSTEM.DIHEDRAL>
0

>  <SCORE.SYSTEM.SOLV>
0

>  <SCORE.SYSTEM.norm>
0

>  <SCORE.heavy>
31

>  <SCORE.norm>
0.0322754

>  <RMSD>
6.200

$$$$
ligand
 OpenBabel11021811433D
libRbt.so/2013.1/901 2013/11/27
 31 33  0  0  0  0  0  0  0  0999 V2000
   35.7811   28.5036    1.8514 C   0  0  0  0  0  0  0  0  0  0  0  0
   37.1550   26.9202    7.9746 N   0  0  0  0  0  0  0  0  0  0  0  0
   35.6166   27.1047    1.5761 O   0  0  0  0  0  0  0  0  0  0  0  0
   37.2838   28.6743    2.0581 C   0  0  1  0  0  0  0  0  0  0  0  0
   41.7252   25.0273    6.8528 N   0  0  0  0  0  0  0  0  0  0  0  0
   37.8763   27.8204    3.1643 O   0  0  0  0  0  0  0  0  0  0  0  0
   38.6273   26.7647    2.7020 C   0  0  1  0  0  0  0  0  0  0  0  0
   45.1145   26.1158    2.4735 N   0  0  0  0  0  0  0  0  0  0  0  0
   38.3746   25.4959    3.2382 O   0  0  0  0  0  0  0  0  0  0  0  0
   38.5647   25.1625    4.6903 C   0  0  2  0  0  0  0  0  0  0  0  0
   40.6825   22.1340    2.3286 N   0  0  0  0  0  0  0  0  0  0  0  0
   36.3307   26.1320    5.2011 O   0  0  0  0  0  0  0  0  0  0  0  0
   37.7662   26.1977    5.5366 C   0  0  1  0  0  0  0  0  0  0  0  0
   40.7939   24.2998    4.3474 O   0  0  0  0  0  0  0  0  0  0  0  0
   37.9489   25.8940    7.1073 C   0  0  1  0  0  0  0  0  0  0  0  0
   42.5209   25.3324    3.0761 O   0  0  0  0  0  0  0  0  0  0  0  0
   39.5032   25.9720    7.4365 C   0  0  0  0  0  0  0  0  0  0  0  0
   45.2473   22.9478    3.9429 O   0  0  0  0  0  0  0  0  0  0  0  0
   40.2649   24.9230    6.5243 C   0  0  1  0  0  0  0  0  0  0  0  0
   43.4700   21.2040    2.5449 O   0  0  0  0  0  0  0  0  0  0  0  0
   40.1095   25.2455    5.0723 C   0  0  2  0  0  0  0  0  0  0  0  0
   39.7016   26.3340    0.6164 O   0  0  0  0  0  0  0  0  0  0  0  0
   41.3278   24.4198    3.0038 C   0  0  1  0  0  0  0  0  0  0  0  0
   39.4683   29.0718    0.9510 O   0  0  0  0  0  0  0  0  0  0  0  0
   43.7060   24.8081    3.8756 C   0  0  2  0  0  0  0  0  0  0  0  0
   44.8213   25.8472    3.8842 C   0  0  0  0  0  0  0  0  0  0  0  0
   44.1662   23.4820    3.2274 C   0  0  2  0  0  0  0  0  0  0  0  0
   43.0281   22.4757    3.1898 C   0  0  1  0  0  0  0  0  0  0  0  0
   41.8554   23.0911    2.4040 C   0  0  1  0  0  0  0  0  0  0  0  0
   38.5476   26.8371    1.1858 C   0  0  2  0  0  0  0  0  0  0  0  0
   38.2135   28.3340    0.8875 C   0  0  1  0  0  0  0  0  0  0  0  0
  1  3  1  0  0  0  0
  4  1  1  6  0  0  0
  4  6  1  0  0  0  0
  4 31  1  0  0  0  0
  6  7  1  0  0  0  0
  7  9  1  1  0  0  0
  7 30  1  0  0  0  0
  8 26  1  0  0  0  0
 10  9  1  6  0  0  0
 10 13  1  0  0  0  0
 10 21  1  0  0  0  0
 13 12  1  6  0  0  0
 13 15  1  0  0  0  0
 15  2  1  1  0  0  0
 15 17  1  0  0  0  0
 16 25  1  0  0  0  0
 16 23  1  0  0  0  0
 17 19  1  0  0  0  0
 19  5  1  1  0  0  0
 19 21  1  0  0  0  0
 21 14  1  6  0  0  0
 23 14  1  1  0  0  0
 23 29  1  0  0  0  0
 25 26  1  6  0  0  0
 25 27  1  0  0  0  0
 27 18  1  1  0  0  0
 27 28  1  0  0  0  0
 28 20  1  6  0  0  0
 28 29  1  0  0  0  0
 29 11  1  1  0  0  0
 30 22  1  6  0  0  0
 30 31  1  0  0  0  0
 31 24  1  1  0  0  0
M  END
>  <CHROM.1>
-57.84775732,-62.41436633,53.42591451,72.13451727,85.54787473,-56.36424930
40.17202181,25.57099706,3.60662543,-2.96233655,-0.50295386,1.86808363

>  <Name>
ligand

>  <RI>
0

>  <Rbt.Current_Directory>
/home/itssahil/PROJECTS/Mol_Feturizer/New_Systems/rnas/2ET5

>  <Rbt.Executable>
rbdock ($Id: //depot/dev/client3/rdock/2013.1/src/exe/rbdock.cxx#4 $)

>  <Rbt.Library>
libRbt.so (2013.1, Build901 2013/11/27)

>  <Rbt.Parameter_File>
/export/apps/rDock/src/rDock_2013.1_src/data/scripts/dock_solv.prm

>  <Rbt.Receptor>
prm/pocket_docking_7.prm

>  <SCORE>
-7.01928

>  <SCORE.INTER>
-3.88313

>  <SCORE.INTER.CONST>
1

>  <SCORE.INTER.POLAR>
0

>  <SCORE.INTER.ROT>
6

>  <SCORE.INTER.SOLV>
12.3367

>  <SCORE.INTER.VDW>
-14.301

>  <SCORE.INTER.norm>
-0.125262

>  <SCORE.INTRA>
-3.13615

>  <SCORE.INTRA.DIHEDRAL>
-7.33455

>  <SCORE.INTRA.DIHEDRAL.0>
11.2357

>  <SCORE.INTRA.POLAR>
0

>  <SCORE.INTRA.POLAR.0>
0

>  <SCORE.INTRA.REPUL>
0

>  <SCORE.INTRA.REPUL.0>
0

>  <SCORE.INTRA.SOLV>
-0.591303

>  <SCORE.INTRA.SOLV.lig_0>
-83.3092

>  <SCORE.INTRA.VDW>
0.82678

>  <SCORE.INTRA.VDW.0>
-4.47057

>  <SCORE.INTRA.norm>
-0.101166

>  <SCORE.RESTR>
0

>  <SCORE.RESTR.CAVITY>
0

>  <SCORE.RESTR.norm>
0

>  <SCORE.SYSTEM>
0

>  <SCORE.SYSTEM.CONST>
0

>  <SCORE.SYSTEM.DIHEDRAL>
0

>  <SCORE.SYSTEM.SOLV>
0

>  <SCORE.SYSTEM.norm>
0

>  <SCORE.heavy>
31

>  <SCORE.norm>
-0.226428

>  <RMSD>
6.211

$$$$
ligand
 OpenBabel11021811433D
libRbt.so/2013.1/901 2013/11/27
 31 33  0  0  0  0  0  0  0  0999 V2000
   42.7165   17.7729    1.4078 C   0  0  0  0  0  0  0  0  0  0  0  0
   42.7224   24.4151   -3.2337 N   0  0  0  0  0  0  0  0  0  0  0  0
   43.4620   16.7187    2.0342 O   0  0  0  0  0  0  0  0  0  0  0  0
   43.7454   18.8757    1.1723 C   0  0  1  0  0  0  0  0  0  0  0  0
   43.0928   26.6493    1.3049 N   0  0  0  0  0  0  0  0  0  0  0  0
   43.2269   20.0781    0.4045 O   0  0  0  0  0  0  0  0  0  0  0  0
   43.0405   21.1927    1.1887 C   0  0  1  0  0  0  0  0  0  0  0  0
   42.1950   26.2834    7.2629 N   0  0  0  0  0  0  0  0  0  0  0  0
   41.8190   21.8700    1.0856 O   0  0  0  0  0  0  0  0  0  0  0  0
   41.6714   23.2045    0.4123 C   0  0  2  0  0  0  0  0  0  0  0  0
   39.2354   23.1804    2.2981 N   0  0  0  0  0  0  0  0  0  0  0  0
   41.5281   22.0692   -1.7972 O   0  0  0  0  0  0  0  0  0  0  0  0
   42.2593   23.0926   -1.0255 C   0  0  1  0  0  0  0  0  0  0  0  0
   41.9144   24.4331    2.4769 O   0  0  0  0  0  0  0  0  0  0  0  0
   42.1395   24.5053   -1.7888 C   0  0  1  0  0  0  0  0  0  0  0  0
   42.1139   23.5806    4.6902 O   0  0  0  0  0  0  0  0  0  0  0  0
   42.9359   25.5849   -0.9341 C   0  0  0  0  0  0  0  0  0  0  0  0
   39.7412   25.9376    6.3289 O   0  0  0  0  0  0  0  0  0  0  0  0
   42.3162   25.6301    0.5242 C   0  0  1  0  0  0  0  0  0  0  0  0
   37.9623   24.5680    4.5642 O   0  0  0  0  0  0  0  0  0  0  0  0
   42.4701   24.3181    1.2254 C   0  0  2  0  0  0  0  0  0  0  0  0
   43.9108   21.8408    3.3129 O   0  0  0  0  0  0  0  0  0  0  0  0
   41.4602   23.3692    3.3525 C   0  0  1  0  0  0  0  0  0  0  0  0
   45.6913   20.0923    2.1151 O   0  0  0  0  0  0  0  0  0  0  0  0
   41.7017   24.8433    5.4346 C   0  0  2  0  0  0  0  0  0  0  0  0
   42.4631   24.9361    6.7518 C   0  0  0  0  0  0  0  0  0  0  0  0
   40.1735   24.7826    5.6616 C   0  0  2  0  0  0  0  0  0  0  0  0
   39.4360   24.6470    4.3399 C   0  0  1  0  0  0  0  0  0  0  0  0
   39.9346   23.3754    3.6286 C   0  0  1  0  0  0  0  0  0  0  0  0
   43.4099   20.7679    2.6006 C   0  0  2  0  0  0  0  0  0  0  0  0
   44.3688   19.5508    2.3994 C   0  0  1  0  0  0  0  0  0  0  0  0
  1  3  1  0  0  0  0
  4  1  1  1  0  0  0
  4  6  1  0  0  0  0
  4 31  1  0  0  0  0
  6  7  1  0  0  0  0
  7  9  1  1  0  0  0
  7 30  1  0  0  0  0
  8 26  1  0  0  0  0
 10  9  1  1  0  0  0
 10 13  1  0  0  0  0
 10 21  1  0  0  0  0
 13 12  1  6  0  0  0
 13 15  1  0  0  0  0
 15  2  1  6  0  0  0
 15 17  1  0  0  0  0
 16 25  1  0  0  0  0
 16 23  1  0  0  0  0
 17 19  1  0  0  0  0
 19  5  1  1  0  0  0
 19 21  1  0  0  0  0
 21 14  1  1  0  0  0
 23 14  1  6  0  0  0
 23 29  1  0  0  0  0
 25 26  1  1  0  0  0
 25 27  1  0  0  0  0
 27 18  1  6  0  0  0
 27 28  1  0  0  0  0
 28 20  1  1  0  0  0
 28 29  1  0  0  0  0
 29 11  1  6  0  0  0
 30 22  1  6  0  0  0
 30 31  1  0  0  0  0
 31 24  1  6  0  0  0
M  END
>  <CHROM.1>
175.12249872,-107.40669611,53.93486854,127.95856697,41.60643596,169.60876846
42.09691360,22.93321069,2.25010443,-0.33502306,-1.18024871,1.97223072

>  <Name>
ligand

>  <RI>
0

>  <Rbt.Current_Directory>
/home/itssahil/PROJECTS/Mol_Feturizer/New_Systems/rnas/2ET5

>  <Rbt.Executable>
rbdock ($Id: //depot/dev/client3/rdock/2013.1/src/exe/rbdock.cxx#4 $)

>  <Rbt.Library>
libRbt.so (2013.1, Build901 2013/11/27)

>  <Rbt.Parameter_File>
/export/apps/rDock/src/rDock_2013.1_src/data/scripts/dock_solv.prm

>  <Rbt.Receptor>
prm/pocket_docking_5.prm

>  <SCORE>
-4.30121

>  <SCORE.INTER>
-7.96159

>  <SCORE.INTER.CONST>
1

>  <SCORE.INTER.POLAR>
0

>  <SCORE.INTER.ROT>
6

>  <SCORE.INTER.SOLV>
16.9091

>  <SCORE.INTER.VDW>
-18.5441

>  <SCORE.INTER.norm>
-0.256825

>  <SCORE.INTRA>
3.66038

>  <SCORE.INTRA.DIHEDRAL>
4.19594

>  <SCORE.INTRA.DIHEDRAL.0>
11.2357

>  <SCORE.INTRA.POLAR>
0

>  <SCORE.INTRA.POLAR.0>
0

>  <SCORE.INTRA.REPUL>
0

>  <SCORE.INTRA.REPUL.0>
0

>  <SCORE.INTRA.SOLV>
-0.546389

>  <SCORE.INTRA.SOLV.lig_0>
-83.3092

>  <SCORE.INTRA.VDW>
1.83561

>  <SCORE.INTRA.VDW.0>
-4.47057

>  <SCORE.INTRA.norm>
0.118077

>  <SCORE.RESTR>
0

>  <SCORE.RESTR.CAVITY>
0

>  <SCORE.RESTR.norm>
0

>  <SCORE.SYSTEM>
0

>  <SCORE.SYSTEM.CONST>
0

>  <SCORE.SYSTEM.DIHEDRAL>
0

>  <SCORE.SYSTEM.SOLV>
0

>  <SCORE.SYSTEM.norm>
0

>  <SCORE.heavy>
31

>  <SCORE.norm>
-0.138749

>  <RMSD>
6.222

$$$$
ligand
 OpenBabel11021811433D
libRbt.so/2013.1/901 2013/11/27
 31 33  0  0  0  0  0  0  0  0999 V2000
   34.4758   24.0700    4.7727 C   0  0  0  0  0  0  0  0  0  0  0  0
   37.9688   30.6490   -0.2736 N   0  0  0  0  0  0  0  0  0  0  0  0
   33.3994   23.1436    4.5659 O   0  0  0  0  0  0  0  0  0  0  0  0
   34.0411   25.3280    4.0254 C   0  0  1  0  0  0  0  0  0  0  0  0
   41.5337   29.0294    2.9508 N   0  0  0  0  0  0  0  0  0  0  0  0
   35.0236   26.4829    4.0958 O   0  0  0  0  0  0  0  0  0  0  0  0
   35.7049   26.6979    2.9203 C   0  0  1  0  0  0  0  0  0  0  0  0
   43.2730   24.1095    3.0622 N   0  0  0  0  0  0  0  0  0  0  0  0
   37.0975   26.8313    2.9846 O   0  0  0  0  0  0  0  0  0  0  0  0
   37.8077   28.1443    2.8191 C   0  0  2  0  0  0  0  0  0  0  0  0
   39.1550   27.1651    7.1696 N   0  0  0  0  0  0  0  0  0  0  0  0
   36.0547   28.8856    1.2163 O   0  0  0  0  0  0  0  0  0  0  0  0
   37.5062   28.6847    1.3899 C   0  0  1  0  0  0  0  0  0  0  0  0
   39.6322   27.5026    4.2649 O   0  0  0  0  0  0  0  0  0  0  0  0
   38.2587   30.0885    1.1538 C   0  0  1  0  0  0  0  0  0  0  0  0
   39.8357   25.1391    4.0712 O   0  0  0  0  0  0  0  0  0  0  0  0
   39.8177   29.8391    1.3476 C   0  0  0  0  0  0  0  0  0  0  0  0
   43.1907   24.8141    5.6555 O   0  0  0  0  0  0  0  0  0  0  0  0
   40.0585   29.2603    2.8035 C   0  0  1  0  0  0  0  0  0  0  0  0
   41.6786   25.8115    7.8631 O   0  0  0  0  0  0  0  0  0  0  0  0
   39.3791   27.9408    2.9874 C   0  0  2  0  0  0  0  0  0  0  0  0
   35.2628   26.0837    0.6583 O   0  0  0  0  0  0  0  0  0  0  0  0
   39.2237   26.2520    4.8764 C   0  0  1  0  0  0  0  0  0  0  0  0
   32.8631   26.2181    2.0314 O   0  0  0  0  0  0  0  0  0  0  0  0
   41.3561   25.0607    4.1016 C   0  0  2  0  0  0  0  0  0  0  0  0
   41.8299   23.9093    3.2222 C   0  0  0  0  0  0  0  0  0  0  0  0
   41.7921   24.8721    5.5730 C   0  0  2  0  0  0  0  0  0  0  0  0
   41.2734   26.0075    6.4397 C   0  0  1  0  0  0  0  0  0  0  0  0
   39.7383   26.0500    6.3249 C   0  0  1  0  0  0  0  0  0  0  0  0
   35.2168   25.6248    1.9607 C   0  0  2  0  0  0  0  0  0  0  0  0
   33.8117   25.2226    2.5133 C   0  0  1  0  0  0  0  0  0  0  0  0
  1  3  1  0  0  0  0
  4  1  1  6  0  0  0
  4  6  1  0  0  0  0
  4 31  1  0  0  0  0
  6  7  1  0  0  0  0
  7  9  1  1  0  0  0
  7 30  1  0  0  0  0
  8 26  1  0  0  0  0
 10  9  1  6  0  0  0
 10 13  1  0  0  0  0
 10 21  1  0  0  0  0
 13 12  1  1  0  0  0
 13 15  1  0  0  0  0
 15  2  1  6  0  0  0
 15 17  1  0  0  0  0
 16 25  1  0  0  0  0
 16 23  1  0  0  0  0
 17 19  1  0  0  0  0
 19  5  1  6  0  0  0
 19 21  1  0  0  0  0
 21 14  1  1  0  0  0
 23 14  1  6  0  0  0
 23 29  1  0  0  0  0
 25 26  1  6  0  0  0
 25 27  1  0  0  0  0
 27 18  1  6  0  0  0
 27 28  1  0  0  0  0
 28 20  1  1  0  0  0
 28 29  1  0  0  0  0
 29 11  1  1  0  0  0
 30 22  1  6  0  0  0
 30 31  1  0  0  0  0
 31 24  1  6  0  0  0
M  END
>  <CHROM.1>
179.74560582,-106.37098372,-61.97263569,60.56548786,64.62941323,166.99889621
38.26056583,26.58064535,3.54216096,2.85153306,-0.23052374,-0.71265597

>  <Name>
ligand

>  <RI>
0

>  <Rbt.Current_Directory>
/home/itssahil/PROJECTS/Mol_Feturizer/New_Systems/rnas/2ET5

>  <Rbt.Executable>
rbdock ($Id: //depot/dev/client3/rdock/2013.1/src/exe/rbdock.cxx#4 $)

>  <Rbt.Library>
libRbt.so (2013.1, Build901 2013/11/27)

>  <Rbt.Parameter_File>
/export/apps/rDock/src/rDock_2013.1_src/data/scripts/dock_solv.prm

>  <Rbt.Receptor>
prm/pocket_docking_8.prm

>  <SCORE>
-9.01779

>  <SCORE.INTER>
-7.31123

>  <SCORE.INTER.CONST>
1

>  <SCORE.INTER.POLAR>
0

>  <SCORE.INTER.ROT>
6

>  <SCORE.INTER.SOLV>
13.7052

>  <SCORE.INTER.VDW>
-17.0425

>  <SCORE.INTER.norm>
-0.235846

>  <SCORE.INTRA>
-1.70656

>  <SCORE.INTRA.DIHEDRAL>
-4.22118

>  <SCORE.INTRA.DIHEDRAL.0>
11.2357

>  <SCORE.INTRA.POLAR>
0

>  <SCORE.INTRA.POLAR.0>
0

>  <SCORE.INTRA.REPUL>
0

>  <SCORE.INTRA.REPUL.0>
0

>  <SCORE.INTRA.SOLV>
-3.04628

>  <SCORE.INTRA.SOLV.lig_0>
-83.3092

>  <SCORE.INTRA.VDW>
1.92717

>  <SCORE.INTRA.VDW.0>
-4.47057

>  <SCORE.INTRA.norm>
-0.0550504

>  <SCORE.RESTR>
0

>  <SCORE.RESTR.CAVITY>
0

>  <SCORE.RESTR.norm>
0

>  <SCORE.SYSTEM>
0

>  <SCORE.SYSTEM.CONST>
0

>  <SCORE.SYSTEM.DIHEDRAL>
0

>  <SCORE.SYSTEM.SOLV>
0

>  <SCORE.SYSTEM.norm>
0

>  <SCORE.heavy>
31

>  <SCORE.norm>
-0.290896

>  <RMSD>
6.242

$$$$
ligand
 OpenBabel11021811433D
libRbt.so/2013.1/901 2013/11/27
 31 33  0  0  0  0  0  0  0  0999 V2000
   42.7048   25.0191    6.0349 C   0  0  0  0  0  0  0  0  0  0  0  0
   41.4971   30.6804    3.4669 N   0  0  0  0  0  0  0  0  0  0  0  0
   41.8673   26.1351    6.3707 O   0  0  0  0  0  0  0  0  0  0  0  0
   42.2559   24.6177    4.6322 C   0  0  1  0  0  0  0  0  0  0  0  0
   41.8756   28.7860   -1.2232 N   0  0  0  0  0  0  0  0  0  0  0  0
   42.3933   25.7060    3.5830 O   0  0  0  0  0  0  0  0  0  0  0  0
   43.4299   25.4947    2.7039 C   0  0  1  0  0  0  0  0  0  0  0  0
   40.5958   24.0385   -2.7746 N   0  0  0  0  0  0  0  0  0  0  0  0
   44.3127   26.5552    2.4641 O   0  0  0  0  0  0  0  0  0  0  0  0
   43.8745   27.8845    1.9193 C   0  0  2  0  0  0  0  0  0  0  0  0
   46.5626   26.4854   -1.5486 N   0  0  0  0  0  0  0  0  0  0  0  0
   43.6698   28.7628    4.2384 O   0  0  0  0  0  0  0  0  0  0  0  0
   42.9437   28.5590    2.9701 C   0  0  1  0  0  0  0  0  0  0  0  0
   43.9192   27.1212   -0.3712 O   0  0  0  0  0  0  0  0  0  0  0  0
   42.4315   29.9859    2.4276 C   0  0  1  0  0  0  0  0  0  0  0  0
   43.3899   24.8013   -0.4237 O   0  0  0  0  0  0  0  0  0  0  0  0
   41.6547   29.7329    1.0627 C   0  0  0  0  0  0  0  0  0  0  0  0
   42.8602   24.5122   -4.0989 O   0  0  0  0  0  0  0  0  0  0  0  0
   42.6393   29.0170    0.0475 C   0  0  1  0  0  0  0  0  0  0  0  0
   45.6278   25.2124   -4.0361 O   0  0  0  0  0  0  0  0  0  0  0  0
   43.0737   27.6797    0.5570 C   0  0  2  0  0  0  0  0  0  0  0  0
   44.6507   23.5426    2.0806 O   0  0  0  0  0  0  0  0  0  0  0  0
   44.5138   25.7980   -0.3541 C   0  0  1  0  0  0  0  0  0  0  0  0
   42.1423   22.7804    2.9688 O   0  0  0  0  0  0  0  0  0  0  0  0
   42.5839   24.8037   -1.7157 C   0  0  2  0  0  0  0  0  0  0  0  0
   41.4688   23.7682   -1.6288 C   0  0  0  0  0  0  0  0  0  0  0  0
   43.5544   24.5011   -2.8807 C   0  0  2  0  0  0  0  0  0  0  0  0
   44.6816   25.5195   -2.9230 C   0  0  1  0  0  0  0  0  0  0  0  0
   45.4211   25.4886   -1.5726 C   0  0  1  0  0  0  0  0  0  0  0  0
   44.0980   24.2073    3.1585 C   0  0  2  0  0  0  0  0  0  0  0  0
   42.9829   23.4524    3.9510 C   0  0  1  0  0  0  0  0  0  0  0  0
  1  3  1  0  0  0  0
  4  1  1  1  0  0  0
  4  6  1  0  0  0  0
  4 31  1  0  0  0  0
  6  7  1  0  0  0  0
  7  9  1  1  0  0  0
  7 30  1  0  0  0  0
  8 26  1  0  0  0  0
 10  9  1  1  0  0  0
 10 13  1  0  0  0  0
 10 21  1  0  0  0  0
 13 12  1  1  0  0  0
 13 15  1  0  0  0  0
 15  2  1  1  0  0  0
 15 17  1  0  0  0  0
 16 25  1  0  0  0  0
 16 23  1  0  0  0  0
 17 19  1  0  0  0  0
 19  5  1  6  0  0  0
 19 21  1  0  0  0  0
 21 14  1  6  0  0  0
 23 14  1  6  0  0  0
 23 29  1  0  0  0  0
 25 26  1  1  0  0  0
 25 27  1  0  0  0  0
 27 18  1  6  0  0  0
 27 28  1  0  0  0  0
 28 20  1  6  0  0  0
 28 29  1  0  0  0  0
 29 11  1  6  0  0  0
 30 22  1  6  0  0  0
 30 31  1  0  0  0  0
 31 24  1  6  0  0  0
M  END
>  <CHROM.1>
59.43325910,-58.99374251,64.98267816,62.95708606,66.67028850,168.47316984
43.21954310,26.11908552,0.95422442,-2.88802016,1.41098426,-0.48519882

>  <Name>
ligand

>  <RI>
0

>  <Rbt.Current_Directory>
/home/itssahil/PROJECTS/Mol_Feturizer/New_Systems/rnas/2ET5

>  <Rbt.Executable>
rbdock ($Id: //depot/dev/client3/rdock/2013.1/src/exe/rbdock.cxx#4 $)

>  <Rbt.Library>
libRbt.so (2013.1, Build901 2013/11/27)

>  <Rbt.Parameter_File>
/export/apps/rDock/src/rDock_2013.1_src/data/scripts/dock_solv.prm

>  <Rbt.Receptor>
prm/pocket_docking_7.prm

>  <SCORE>
-6.45239

>  <SCORE.INTER>
-0.721335

>  <SCORE.INTER.CONST>
1

>  <SCORE.INTER.POLAR>
0

>  <SCORE.INTER.ROT>
6

>  <SCORE.INTER.SOLV>
5.57375

>  <SCORE.INTER.VDW>
-9.93881

>  <SCORE.INTER.norm>
-0.0232689

>  <SCORE.INTRA>
-5.73309

>  <SCORE.INTRA.DIHEDRAL>
-10.2414

>  <SCORE.INTRA.DIHEDRAL.0>
11.2357

>  <SCORE.INTRA.POLAR>
0

>  <SCORE.INTRA.POLAR.0>
0

>  <SCORE.INTRA.REPUL>
0

>  <SCORE.INTRA.REPUL.0>
0

>  <SCORE.INTRA.SOLV>
-2.54613

>  <SCORE.INTRA.SOLV.lig_0>
-83.3092

>  <SCORE.INTRA.VDW>
0.660683

>  <SCORE.INTRA.VDW.0>
-4.47057

>  <SCORE.INTRA.norm>
-0.184939

>  <SCORE.RESTR>
0.00204056

>  <SCORE.RESTR.CAVITY>
0.00204056

>  <SCORE.RESTR.norm>
6.58244e-05

>  <SCORE.SYSTEM>
0

>  <SCORE.SYSTEM.CONST>
0

>  <SCORE.SYSTEM.DIHEDRAL>
0

>  <SCORE.SYSTEM.SOLV>
0

>  <SCORE.SYSTEM.norm>
0

>  <SCORE.heavy>
31

>  <SCORE.norm>
-0.208142

>  <RMSD>
6.257

$$$$
ligand
 OpenBabel11021811433D
libRbt.so/2013.1/901 2013/11/27
 31 33  0  0  0  0  0  0  0  0999 V2000
   42.2596   25.4054    6.6291 C   0  0  0  0  0  0  0  0  0  0  0  0
   41.9543   22.9973   -1.8030 N   0  0  0  0  0  0  0  0  0  0  0  0
   42.7431   24.5227    5.6060 O   0  0  0  0  0  0  0  0  0  0  0  0
   40.8435   25.7611    6.1837 C   0  0  1  0  0  0  0  0  0  0  0  0
   37.3616   24.9181   -0.8300 N   0  0  0  0  0  0  0  0  0  0  0  0
   40.7354   26.2909    4.7653 O   0  0  0  0  0  0  0  0  0  0  0  0
   40.1849   25.3910    3.8825 C   0  0  1  0  0  0  0  0  0  0  0  0
   33.5747   24.7532    4.0648 N   0  0  0  0  0  0  0  0  0  0  0  0
   40.8526   25.1680    2.6718 O   0  0  0  0  0  0  0  0  0  0  0  0
   40.2919   24.3205    1.5659 C   0  0  2  0  0  0  0  0  0  0  0  0
   37.8673   28.1467    1.7057 N   0  0  0  0  0  0  0  0  0  0  0  0
   42.5681   23.4294    1.1004 O   0  0  0  0  0  0  0  0  0  0  0  0
   41.4067   24.1123    0.4984 C   0  0  1  0  0  0  0  0  0  0  0  0
   38.0567   25.1929    1.8374 O   0  0  0  0  0  0  0  0  0  0  0  0
   40.8516   23.2195   -0.7212 C   0  0  1  0  0  0  0  0  0  0  0  0
   35.7545   25.1187    2.4372 O   0  0  0  0  0  0  0  0  0  0  0  0
   39.6031   23.9805   -1.3475 C   0  0  0  0  0  0  0  0  0  0  0  0
   36.1282   26.3516    5.9317 O   0  0  0  0  0  0  0  0  0  0  0  0
   38.5196   24.1926   -0.2101 C   0  0  1  0  0  0  0  0  0  0  0  0
   37.0205   28.6453    4.4835 O   0  0  0  0  0  0  0  0  0  0  0  0
   39.0461   25.0527    0.8943 C   0  0  2  0  0  0  0  0  0  0  0  0
   38.8210   23.4573    4.1828 O   0  0  0  0  0  0  0  0  0  0  0  0
   36.8056   25.9174    1.7170 C   0  0  1  0  0  0  0  0  0  0  0  0
   38.4411   25.1595    6.3323 O   0  0  0  0  0  0  0  0  0  0  0  0
   35.9387   24.9909    3.9434 C   0  0  2  0  0  0  0  0  0  0  0  0
   34.8206   24.1356    4.5280 C   0  0  0  0  0  0  0  0  0  0  0  0
   35.9408   26.4158    4.5436 C   0  0  2  0  0  0  0  0  0  0  0  0
   37.0345   27.2643    3.9166 C   0  0  1  0  0  0  0  0  0  0  0  0
   36.8062   27.3120    2.3945 C   0  0  1  0  0  0  0  0  0  0  0  0
   39.9115   24.1349    4.6937 C   0  0  2  0  0  0  0  0  0  0  0  0
   39.7937   24.6439    6.1662 C   0  0  1  0  0  0  0  0  0  0  0  0
  1  3  1  0  0  0  0
  4  1  1  6  0  0  0
  4  6  1  0  0  0  0
  4 31  1  0  0  0  0
  6  7  1  0  0  0  0
  7  9  1  6  0  0  0
  7 30  1  0  0  0  0
  8 26  1  0  0  0  0
 10  9  1  1  0  0  0
 10 13  1  0  0  0  0
 10 21  1  0  0  0  0
 13 12  1  1  0  0  0
 13 15  1  0  0  0  0
 15  2  1  6  0  0  0
 15 17  1  0  0  0  0
 16 25  1  0  0  0  0
 16 23  1  0  0  0  0
 17 19  1  0  0  0  0
 19  5  1  6  0  0  0
 19 21  1  0  0  0  0
 21 14  1  1  0  0  0
 23 14  1  1  0  0  0
 23 29  1  0  0  0  0
 25 26  1  1  0  0  0
 25 27  1  0  0  0  0
 27 18  1  1  0  0  0
 27 28  1  0  0  0  0
 28 20  1  1  0  0  0
 28 29  1  0  0  0  0
 29 11  1  6  0  0  0
 30 22  1  6  0  0  0
 30 31  1  0  0  0  0
 31 24  1  6  0  0  0
M  END
>  <CHROM.1>
-52.79888159,-173.65461451,-170.56467396,142.18480603,173.10411201,-53.43668174
38.78632189,25.18072053,3.00871972,-2.34224763,0.24344367,-1.78759142

>  <Name>
ligand

>  <RI>
0

>  <Rbt.Current_Directory>
/home/itssahil/PROJECTS/Mol_Feturizer/New_Systems/rnas/2ET5

>  <Rbt.Executable>
rbdock ($Id: //depot/dev/client3/rdock/2013.1/src/exe/rbdock.cxx#4 $)

>  <Rbt.Library>
libRbt.so (2013.1, Build901 2013/11/27)

>  <Rbt.Parameter_File>
/export/apps/rDock/src/rDock_2013.1_src/data/scripts/dock_solv.prm

>  <Rbt.Receptor>
prm/pocket_docking_4.prm

>  <SCORE>
-4.11017

>  <SCORE.INTER>
-2.27404

>  <SCORE.INTER.CONST>
1

>  <SCORE.INTER.POLAR>
0

>  <SCORE.INTER.ROT>
6

>  <SCORE.INTER.SOLV>
11.0238

>  <SCORE.INTER.VDW>
-12.7906

>  <SCORE.INTER.norm>
-0.0733562

>  <SCORE.INTRA>
-1.83612

>  <SCORE.INTRA.DIHEDRAL>
-4.91293

>  <SCORE.INTRA.DIHEDRAL.0>
11.2357

>  <SCORE.INTRA.POLAR>
0

>  <SCORE.INTRA.POLAR.0>
0

>  <SCORE.INTRA.REPUL>
0

>  <SCORE.INTRA.REPUL.0>
0

>  <SCORE.INTRA.SOLV>
1.66928

>  <SCORE.INTRA.SOLV.lig_0>
-83.3092

>  <SCORE.INTRA.VDW>
-0.214297

>  <SCORE.INTRA.VDW.0>
-4.47057

>  <SCORE.INTRA.norm>
-0.0592298

>  <SCORE.RESTR>
0

>  <SCORE.RESTR.CAVITY>
0

>  <SCORE.RESTR.norm>
0

>  <SCORE.SYSTEM>
0

>  <SCORE.SYSTEM.CONST>
0

>  <SCORE.SYSTEM.DIHEDRAL>
0

>  <SCORE.SYSTEM.SOLV>
0

>  <SCORE.SYSTEM.norm>
0

>  <SCORE.heavy>
31

>  <SCORE.norm>
-0.132586

>  <RMSD>
6.276

$$$$
ligand
 OpenBabel11021811433D
libRbt.so/2013.1/901 2013/11/27
 31 33  0  0  0  0  0  0  0  0999 V2000
   34.9810   28.6776    2.3178 C   0  0  0  0  0  0  0  0  0  0  0  0
   33.2874   25.1129    3.7167 N   0  0  0  0  0  0  0  0  0  0  0  0
   35.0405   28.9606    3.7235 O   0  0  0  0  0  0  0  0  0  0  0  0
   36.3949   28.9578    1.8153 C   0  0  1  0  0  0  0  0  0  0  0  0
   36.9680   26.5090    6.9155 N   0  0  0  0  0  0  0  0  0  0  0  0
   37.4797   28.1145    2.4603 O   0  0  0  0  0  0  0  0  0  0  0  0
   37.9822   27.1376    1.6324 C   0  0  1  0  0  0  0  0  0  0  0  0
   40.7503   21.9944    2.4399 N   0  0  0  0  0  0  0  0  0  0  0  0
   38.0765   25.8348    2.1375 O   0  0  0  0  0  0  0  0  0  0  0  0
   37.2402   25.3316    3.2791 C   0  0  2  0  0  0  0  0  0  0  0  0
   41.0604   25.9244    6.9171 N   0  0  0  0  0  0  0  0  0  0  0  0
   35.4460   24.6929    1.6777 O   0  0  0  0  0  0  0  0  0  0  0  0
   35.7403   25.4834    2.8885 C   0  0  1  0  0  0  0  0  0  0  0  0
   38.8506   26.0107    4.9454 O   0  0  0  0  0  0  0  0  0  0  0  0
   34.7966   24.9705    4.0881 C   0  0  1  0  0  0  0  0  0  0  0  0
   39.4857   23.8385    4.2083 O   0  0  0  0  0  0  0  0  0  0  0  0
   35.1371   25.8400    5.3758 C   0  0  0  0  0  0  0  0  0  0  0  0
   42.5695   24.8359    2.3736 O   0  0  0  0  0  0  0  0  0  0  0  0
   36.6787   25.6723    5.7041 C   0  0  1  0  0  0  0  0  0  0  0  0
   43.2995   25.5702    5.0349 O   0  0  0  0  0  0  0  0  0  0  0  0
   37.5347   26.1869    4.5910 C   0  0  2  0  0  0  0  0  0  0  0  0
   37.9787   26.8657   -0.7373 O   0  0  0  0  0  0  0  0  0  0  0  0
   39.5030   24.7880    5.3744 C   0  0  1  0  0  0  0  0  0  0  0  0
   37.7848   29.5635   -0.1487 O   0  0  0  0  0  0  0  0  0  0  0  0
   40.3059   24.2639    2.9980 C   0  0  2  0  0  0  0  0  0  0  0  0
   40.1695   23.2237    1.8923 C   0  0  0  0  0  0  0  0  0  0  0  0
   41.7749   24.4242    3.4531 C   0  0  2  0  0  0  0  0  0  0  0  0
   41.8829   25.4332    4.5842 C   0  0  1  0  0  0  0  0  0  0  0  0
   40.9972   24.9582    5.7510 C   0  0  1  0  0  0  0  0  0  0  0  0
   37.1996   27.2568    0.3347 C   0  0  2  0  0  0  0  0  0  0  0  0
   36.6865   28.7326    0.3271 C   0  0  1  0  0  0  0  0  0  0  0  0
  1  3  1  0  0  0  0
  4  1  1  6  0  0  0
  4  6  1  0  0  0  0
  4 31  1  0  0  0  0
  6  7  1  0  0  0  0
  7  9  1  1  0  0  0
  7 30  1  0  0  0  0
  8 26  1  0  0  0  0
 10  9  1  6  0  0  0
 10 13  1  0  0  0  0
 10 21  1  0  0  0  0
 13 12  1  6  0  0  0
 13 15  1  0  0  0  0
 15  2  1  6  0  0  0
 15 17  1  0  0  0  0
 16 25  1  0  0  0  0
 16 23  1  0  0  0  0
 17 19  1  0  0  0  0
 19  5  1  1  0  0  0
 19 21  1  0  0  0  0
 21 14  1  1  0  0  0
 23 14  1  6  0  0  0
 23 29  1  0  0  0  0
 25 26  1  6  0  0  0
 25 27  1  0  0  0  0
 27 18  1  6  0  0  0
 27 28  1  0  0  0  0
 28 20  1  1  0  0  0
 28 29  1  0  0  0  0
 29 11  1  1  0  0  0
 30 22  1  6  0  0  0
 30 31  1  0  0  0  0
 31 24  1  1  0  0  0
M  END
>  <CHROM.1>
59.94053382,23.12119602,58.27451230,65.42492839,-64.38380193,-63.30119258
38.18261122,25.99378171,3.25816803,-2.66211934,-0.31238877,1.98055891

>  <Name>
ligand

>  <RI>
0

>  <Rbt.Current_Directory>
/home/itssahil/PROJECTS/Mol_Feturizer/New_Systems/rnas/2ET5

>  <Rbt.Executable>
rbdock ($Id: //depot/dev/client3/rdock/2013.1/src/exe/rbdock.cxx#4 $)

>  <Rbt.Library>
libRbt.so (2013.1, Build901 2013/11/27)

>  <Rbt.Parameter_File>
/export/apps/rDock/src/rDock_2013.1_src/data/scripts/dock_solv.prm

>  <Rbt.Receptor>
prm/pocket_docking_5.prm

>  <SCORE>
-6.15139

>  <SCORE.INTER>
-3.27126

>  <SCORE.INTER.CONST>
1

>  <SCORE.INTER.POLAR>
0

>  <SCORE.INTER.ROT>
6

>  <SCORE.INTER.SOLV>
14.4928

>  <SCORE.INTER.VDW>
-14.6118

>  <SCORE.INTER.norm>
-0.105525

>  <SCORE.INTRA>
-2.88013

>  <SCORE.INTRA.DIHEDRAL>
-6.05862

>  <SCORE.INTRA.DIHEDRAL.0>
11.2357

>  <SCORE.INTRA.POLAR>
0

>  <SCORE.INTRA.POLAR.0>
0

>  <SCORE.INTRA.REPUL>
0

>  <SCORE.INTRA.REPUL.0>
0

>  <SCORE.INTRA.SOLV>
-0.222943

>  <SCORE.INTRA.SOLV.lig_0>
-83.3092

>  <SCORE.INTRA.VDW>
0.260655

>  <SCORE.INTRA.VDW.0>
-4.47057

>  <SCORE.INTRA.norm>
-0.0929073

>  <SCORE.RESTR>
0

>  <SCORE.RESTR.CAVITY>
0

>  <SCORE.RESTR.norm>
0

>  <SCORE.SYSTEM>
0

>  <SCORE.SYSTEM.CONST>
0

>  <SCORE.SYSTEM.DIHEDRAL>
0

>  <SCORE.SYSTEM.SOLV>
0

>  <SCORE.SYSTEM.norm>
0

>  <SCORE.heavy>
31

>  <SCORE.norm>
-0.198432

>  <RMSD>
6.292

$$$$
ligand
 OpenBabel11021811433D
libRbt.so/2013.1/901 2013/11/27
 31 33  0  0  0  0  0  0  0  0999 V2000
   39.3365   30.1330    7.5594 C   0  0  0  0  0  0  0  0  0  0  0  0
   33.5060   24.4990    4.1286 N   0  0  0  0  0  0  0  0  0  0  0  0
   40.0596   28.9111    7.3508 O   0  0  0  0  0  0  0  0  0  0  0  0
   37.9187   29.6804    7.8988 C   0  0  1  0  0  0  0  0  0  0  0  0
   38.1174   24.1026    2.0535 N   0  0  0  0  0  0  0  0  0  0  0  0
   37.2738   28.7751    6.8651 O   0  0  0  0  0  0  0  0  0  0  0  0
   37.1869   27.4611    7.2624 C   0  0  1  0  0  0  0  0  0  0  0  0
   42.4197   22.4378    2.1140 N   0  0  0  0  0  0  0  0  0  0  0  0
   37.6306   26.4760    6.3712 O   0  0  0  0  0  0  0  0  0  0  0  0
   36.9820   26.2158    5.0417 C   0  0  2  0  0  0  0  0  0  0  0  0
   40.6876   28.3787    4.2996 N   0  0  0  0  0  0  0  0  0  0  0  0
   34.7398   26.3848    6.1072 O   0  0  0  0  0  0  0  0  0  0  0  0
   35.6139   25.5162    5.2955 C   0  0  1  0  0  0  0  0  0  0  0  0
   39.0936   25.9117    3.9104 O   0  0  0  0  0  0  0  0  0  0  0  0
   34.8811   25.1999    3.8971 C   0  0  1  0  0  0  0  0  0  0  0  0
   40.9366   24.6476    4.7292 O   0  0  0  0  0  0  0  0  0  0  0  0
   35.8464   24.2640    3.0470 C   0  0  0  0  0  0  0  0  0  0  0  0
   43.1156   24.9744    1.7265 O   0  0  0  0  0  0  0  0  0  0  0  0
   37.2295   25.0129    2.8500 C   0  0  1  0  0  0  0  0  0  0  0  0
   42.9517   27.7074    2.5376 O   0  0  0  0  0  0  0  0  0  0  0  0
   37.9071   25.2647    4.1592 C   0  0  2  0  0  0  0  0  0  0  0  0
   37.2521   26.4100    9.4026 O   0  0  0  0  0  0  0  0  0  0  0  0
   40.2627   25.9914    4.7658 C   0  0  1  0  0  0  0  0  0  0  0  0
   36.3643   29.0133    9.7139 O   0  0  0  0  0  0  0  0  0  0  0  0
   41.5180   24.2367    3.3832 C   0  0  2  0  0  0  0  0  0  0  0  0
   42.1388   22.8488    3.4926 C   0  0  0  0  0  0  0  0  0  0  0  0
   42.5640   25.2993    2.9740 C   0  0  2  0  0  0  0  0  0  0  0  0
   41.9346   26.6811    2.9128 C   0  0  1  0  0  0  0  0  0  0  0  0
   41.3336   27.0076    4.2925 C   0  0  1  0  0  0  0  0  0  0  0  0
   37.8312   27.4046    8.6380 C   0  0  2  0  0  0  0  0  0  0  0  0
   37.7121   28.8651    9.1806 C   0  0  1  0  0  0  0  0  0  0  0  0
  1  3  1  0  0  0  0
  4  1  1  6  0  0  0
  4  6  1  0  0  0  0
  4 31  1  0  0  0  0
  6  7  1  0  0  0  0
  7  9  1  6  0  0  0
  7 30  1  0  0  0  0
  8 26  1  0  0  0  0
 10  9  1  1  0  0  0
 10 13  1  0  0  0  0
 10 21  1  0  0  0  0
 13 12  1  1  0  0  0
 13 15  1  0  0  0  0
 15  2  1  1  0  0  0
 15 17  1  0  0  0  0
 16 25  1  0  0  0  0
 16 23  1  0  0  0  0
 17 19  1  0  0  0  0
 19  5  1  6  0  0  0
 19 21  1  0  0  0  0
 21 14  1  6  0  0  0
 23 14  1  6  0  0  0
 23 29  1  0  0  0  0
 25 26  1  1  0  0  0
 25 27  1  0  0  0  0
 27 18  1  6  0  0  0
 27 28  1  0  0  0  0
 28 20  1  1  0  0  0
 28 29  1  0  0  0  0
 29 11  1  6  0  0  0
 30 22  1  1  0  0  0
 30 31  1  0  0  0  0
 31 24  1  6  0  0  0
M  END
>  <CHROM.1>
-55.59094975,-64.37531875,-72.59128795,73.60753670,83.19039213,168.92310982
38.79721707,26.33746856,5.12783122,-2.29886048,-0.22451912,-2.31261266

>  <Name>
ligand

>  <RI>
0

>  <Rbt.Current_Directory>
/home/itssahil/PROJECTS/Mol_Feturizer/New_Systems/rnas/2ET5

>  <Rbt.Executable>
rbdock ($Id: //depot/dev/client3/rdock/2013.1/src/exe/rbdock.cxx#4 $)

>  <Rbt.Library>
libRbt.so (2013.1, Build901 2013/11/27)

>  <Rbt.Parameter_File>
/export/apps/rDock/src/rDock_2013.1_src/data/scripts/dock_solv.prm

>  <Rbt.Receptor>
prm/pocket_docking_7.prm

>  <SCORE>
-4.89332

>  <SCORE.INTER>
-2.36893

>  <SCORE.INTER.CONST>
1

>  <SCORE.INTER.POLAR>
0

>  <SCORE.INTER.ROT>
6

>  <SCORE.INTER.SOLV>
11.1187

>  <SCORE.INTER.VDW>
-12.8855

>  <SCORE.INTER.norm>
-0.0764171

>  <SCORE.INTRA>
-2.52439

>  <SCORE.INTRA.DIHEDRAL>
-6.54383

>  <SCORE.INTRA.DIHEDRAL.0>
11.2357

>  <SCORE.INTRA.POLAR>
0

>  <SCORE.INTRA.POLAR.0>
0

>  <SCORE.INTRA.REPUL>
0

>  <SCORE.INTRA.REPUL.0>
0

>  <SCORE.INTRA.SOLV>
-0.436758

>  <SCORE.INTRA.SOLV.lig_0>
-83.3092

>  <SCORE.INTRA.VDW>
0.965902

>  <SCORE.INTRA.VDW.0>
-4.47057

>  <SCORE.INTRA.norm>
-0.0814321

>  <SCORE.RESTR>
0

>  <SCORE.RESTR.CAVITY>
0

>  <SCORE.RESTR.norm>
0

>  <SCORE.SYSTEM>
0

>  <SCORE.SYSTEM.CONST>
0

>  <SCORE.SYSTEM.DIHEDRAL>
0

>  <SCORE.SYSTEM.SOLV>
0

>  <SCORE.SYSTEM.norm>
0

>  <SCORE.heavy>
31

>  <SCORE.norm>
-0.157849

>  <RMSD>
6.292

$$$$
ligand
 OpenBabel11021811433D
libRbt.so/2013.1/901 2013/11/27
 31 33  0  0  0  0  0  0  0  0999 V2000
   45.7856   21.8585    2.8266 C   0  0  0  0  0  0  0  0  0  0  0  0
   45.4325   25.2070   -1.0197 N   0  0  0  0  0  0  0  0  0  0  0  0
   45.5881   22.6055    1.6173 O   0  0  0  0  0  0  0  0  0  0  0  0
   44.5243   21.0085    2.9565 C   0  0  1  0  0  0  0  0  0  0  0  0
   45.5067   25.9603    3.9958 N   0  0  0  0  0  0  0  0  0  0  0  0
   43.2718   21.7794    3.3320 O   0  0  0  0  0  0  0  0  0  0  0  0
   42.3863   21.9310    2.2904 C   0  0  1  0  0  0  0  0  0  0  0  0
   40.1525   25.7128    0.9002 N   0  0  0  0  0  0  0  0  0  0  0  0
   41.8814   23.2132    2.0405 O   0  0  0  0  0  0  0  0  0  0  0  0
   42.7560   24.4145    1.8214 C   0  0  2  0  0  0  0  0  0  0  0  0
   42.3517   25.7024    6.9593 N   0  0  0  0  0  0  0  0  0  0  0  0
   42.7203   23.9882   -0.6298 O   0  0  0  0  0  0  0  0  0  0  0  0
   43.6039   24.1725    0.5377 C   0  0  1  0  0  0  0  0  0  0  0  0
   42.9674   24.8692    4.1835 O   0  0  0  0  0  0  0  0  0  0  0  0
   44.5737   25.4284    0.2644 C   0  0  1  0  0  0  0  0  0  0  0  0
   41.2806   26.3602    3.4114 O   0  0  0  0  0  0  0  0  0  0  0  0
   45.5111   25.6005    1.5379 C   0  0  0  0  0  0  0  0  0  0  0  0
   38.3344   24.3492    4.4822 O   0  0  0  0  0  0  0  0  0  0  0  0
   44.5945   25.8097    2.8141 C   0  0  1  0  0  0  0  0  0  0  0  0
   39.5114   24.9209    7.0203 O   0  0  0  0  0  0  0  0  0  0  0  0
   43.7284   24.6171    3.0675 C   0  0  2  0  0  0  0  0  0  0  0  0
   42.0872   20.7553    0.2367 O   0  0  0  0  0  0  0  0  0  0  0  0
   42.2569   26.0879    4.5222 C   0  0  1  0  0  0  0  0  0  0  0  0
   43.2734   19.0568    2.0724 O   0  0  0  0  0  0  0  0  0  0  0  0
   40.1624   25.3394    3.2497 C   0  0  2  0  0  0  0  0  0  0  0  0
   39.2746   25.7301    2.0738 C   0  0  0  0  0  0  0  0  0  0  0  0
   39.3671   25.2932    4.5749 C   0  0  2  0  0  0  0  0  0  0  0  0
   40.2784   24.9444    5.7398 C   0  0  1  0  0  0  0  0  0  0  0  0
   41.4036   25.9932    5.8131 C   0  0  1  0  0  0  0  0  0  0  0  0
   43.0443   21.2666    1.0921 C   0  0  2  0  0  0  0  0  0  0  0  0
   44.0437   20.2420    1.7188 C   0  0  1  0  0  0  0  0  0  0  0  0
  1  3  1  0  0  0  0
  4  1  1  6  0  0  0
  4  6  1  0  0  0  0
  4 31  1  0  0  0  0
  6  7  1  0  0  0  0
  7  9  1  6  0  0  0
  7 30  1  0  0  0  0
  8 26  1  0  0  0  0
 10  9  1  1  0  0  0
 10 13  1  0  0  0  0
 10 21  1  0  0  0  0
 13 12  1  6  0  0  0
 13 15  1  0  0  0  0
 15  2  1  6  0  0  0
 15 17  1  0  0  0  0
 16 25  1  0  0  0  0
 16 23  1  0  0  0  0
 17 19  1  0  0  0  0
 19  5  1  1  0  0  0
 19 21  1  0  0  0  0
 21 14  1  1  0  0  0
 23 14  1  6  0  0  0
 23 29  1  0  0  0  0
 25 26  1  6  0  0  0
 25 27  1  0  0  0  0
 27 18  1  6  0  0  0
 27 28  1  0  0  0  0
 28 20  1  1  0  0  0
 28 29  1  0  0  0  0
 29 11  1  1  0  0  0
 30 22  1  6  0  0  0
 30 31  1  0  0  0  0
 31 24  1  1  0  0  0
M  END
>  <CHROM.1>
-71.87463093,54.13203082,62.80376042,58.77732813,-73.94310925,61.23036649
42.60992536,23.96909151,2.75476652,0.68021041,-0.65359414,-2.91534659

>  <Name>
ligand

>  <RI>
0

>  <Rbt.Current_Directory>
/home/itssahil/PROJECTS/Mol_Feturizer/New_Systems/rnas/2ET5

>  <Rbt.Executable>
rbdock ($Id: //depot/dev/client3/rdock/2013.1/src/exe/rbdock.cxx#4 $)

>  <Rbt.Library>
libRbt.so (2013.1, Build901 2013/11/27)

>  <Rbt.Parameter_File>
/export/apps/rDock/src/rDock_2013.1_src/data/scripts/dock_solv.prm

>  <Rbt.Receptor>
prm/pocket_docking_5.prm

>  <SCORE>
-8.59706

>  <SCORE.INTER>
-5.67937

>  <SCORE.INTER.CONST>
1

>  <SCORE.INTER.POLAR>
0

>  <SCORE.INTER.ROT>
6

>  <SCORE.INTER.SOLV>
18.2438

>  <SCORE.INTER.VDW>
-17.4675

>  <SCORE.INTER.norm>
-0.183205

>  <SCORE.INTRA>
-2.9177

>  <SCORE.INTRA.DIHEDRAL>
-9.4719

>  <SCORE.INTRA.DIHEDRAL.0>
11.2357

>  <SCORE.INTRA.POLAR>
0

>  <SCORE.INTRA.POLAR.0>
0

>  <SCORE.INTRA.REPUL>
0.053911

>  <SCORE.INTRA.REPUL.0>
0

>  <SCORE.INTRA.SOLV>
2.71137

>  <SCORE.INTRA.SOLV.lig_0>
-83.3092

>  <SCORE.INTRA.VDW>
0.193014

>  <SCORE.INTRA.VDW.0>
-4.47057

>  <SCORE.INTRA.norm>
-0.0941193

>  <SCORE.RESTR>
0

>  <SCORE.RESTR.CAVITY>
0

>  <SCORE.RESTR.norm>
0

>  <SCORE.SYSTEM>
0

>  <SCORE.SYSTEM.CONST>
0

>  <SCORE.SYSTEM.DIHEDRAL>
0

>  <SCORE.SYSTEM.SOLV>
0

>  <SCORE.SYSTEM.norm>
0

>  <SCORE.heavy>
31

>  <SCORE.norm>
-0.277325

>  <RMSD>
6.327

$$$$
ligand
 OpenBabel11021811433D
libRbt.so/2013.1/901 2013/11/27
 31 33  0  0  0  0  0  0  0  0999 V2000
   43.3779   23.9279    4.0681 C   0  0  0  0  0  0  0  0  0  0  0  0
   39.7505   24.4209   -3.3505 N   0  0  0  0  0  0  0  0  0  0  0  0
   44.1978   25.0799    4.3136 O   0  0  0  0  0  0  0  0  0  0  0  0
   41.9897   24.3420    4.5491 C   0  0  1  0  0  0  0  0  0  0  0  0
   35.9949   26.4099   -0.5814 N   0  0  0  0  0  0  0  0  0  0  0  0
   41.3479   25.4644    3.7539 O   0  0  0  0  0  0  0  0  0  0  0  0
   40.3248   25.0440    2.9361 C   0  0  1  0  0  0  0  0  0  0  0  0
   34.3934   23.6486    3.8871 N   0  0  0  0  0  0  0  0  0  0  0  0
   40.3377   25.4655    1.6006 O   0  0  0  0  0  0  0  0  0  0  0  0
   39.3563   24.9777    0.5735 C   0  0  2  0  0  0  0  0  0  0  0  0
   37.9317   28.7748    2.4306 N   0  0  0  0  0  0  0  0  0  0  0  0
   41.2321   24.0464   -0.7702 O   0  0  0  0  0  0  0  0  0  0  0  0
   40.0701   24.9551   -0.8105 C   0  0  1  0  0  0  0  0  0  0  0  0
   37.4606   25.9370    1.7212 O   0  0  0  0  0  0  0  0  0  0  0  0
   39.0544   24.4522   -1.9541 C   0  0  1  0  0  0  0  0  0  0  0  0
   35.4432   26.0052    2.9823 O   0  0  0  0  0  0  0  0  0  0  0  0
   37.8156   25.4499   -1.9722 C   0  0  0  0  0  0  0  0  0  0  0  0
   36.9927   25.9976    6.3690 O   0  0  0  0  0  0  0  0  0  0  0  0
   37.1519   25.4557   -0.5327 C   0  0  1  0  0  0  0  0  0  0  0  0
   37.9802   28.4805    5.3619 O   0  0  0  0  0  0  0  0  0  0  0  0
   38.1025   25.9589    0.5064 C   0  0  2  0  0  0  0  0  0  0  0  0
   38.9461   23.0975    2.9399 O   0  0  0  0  0  0  0  0  0  0  0  0
   36.4243   26.8329    2.1989 C   0  0  1  0  0  0  0  0  0  0  0  0
   39.8432   23.5603    5.5173 O   0  0  0  0  0  0  0  0  0  0  0  0
   35.9803   25.3807    4.2630 C   0  0  2  0  0  0  0  0  0  0  0  0
   34.8878   24.5526    4.9294 C   0  0  0  0  0  0  0  0  0  0  0  0
   36.4688   26.5255    5.1803 C   0  0  2  0  0  0  0  0  0  0  0  0
   37.5258   27.3641    4.4813 C   0  0  1  0  0  0  0  0  0  0  0  0
   36.9245   27.9248    3.1792 C   0  0  1  0  0  0  0  0  0  0  0  0
   40.2432   23.5376    3.1223 C   0  0  2  0  0  0  0  0  0  0  0  0
   40.8775   23.2870    4.5280 C   0  0  1  0  0  0  0  0  0  0  0  0
  1  3  1  0  0  0  0
  4  1  1  6  0  0  0
  4  6  1  0  0  0  0
  4 31  1  0  0  0  0
  6  7  1  0  0  0  0
  7  9  1  6  0  0  0
  7 30  1  0  0  0  0
  8 26  1  0  0  0  0
 10  9  1  1  0  0  0
 10 13  1  0  0  0  0
 10 21  1  0  0  0  0
 13 12  1  1  0  0  0
 13 15  1  0  0  0  0
 15  2  1  6  0  0  0
 15 17  1  0  0  0  0
 16 25  1  0  0  0  0
 16 23  1  0  0  0  0
 17 19  1  0  0  0  0
 19  5  1  6  0  0  0
 19 21  1  0  0  0  0
 21 14  1  1  0  0  0
 23 14  1  1  0  0  0
 23 29  1  0  0  0  0
 25 26  1  1  0  0  0
 25 27  1  0  0  0  0
 27 18  1  1  0  0  0
 27 28  1  0  0  0  0
 28 20  1  1  0  0  0
 28 29  1  0  0  0  0
 29 11  1  6  0  0  0
 30 22  1  1  0  0  0
 30 31  1  0  0  0  0
 31 24  1  1  0  0  0
M  END
>  <CHROM.1>
65.36191517,174.10755986,-148.28602634,141.72511205,168.24637149,52.37260577
38.69313196,25.36182165,2.47987940,-0.86788462,-0.30918848,1.51554845

>  <Name>
ligand

>  <RI>
0

>  <Rbt.Current_Directory>
/home/itssahil/PROJECTS/Mol_Feturizer/New_Systems/rnas/2ET5

>  <Rbt.Executable>
rbdock ($Id: //depot/dev/client3/rdock/2013.1/src/exe/rbdock.cxx#4 $)

>  <Rbt.Library>
libRbt.so (2013.1, Build901 2013/11/27)

>  <Rbt.Parameter_File>
/export/apps/rDock/src/rDock_2013.1_src/data/scripts/dock_solv.prm

>  <Rbt.Receptor>
prm/pocket_docking_4.prm

>  <SCORE>
-0.820808

>  <SCORE.INTER>
-0.137172

>  <SCORE.INTER.CONST>
1

>  <SCORE.INTER.POLAR>
0

>  <SCORE.INTER.ROT>
6

>  <SCORE.INTER.SOLV>
14.1722

>  <SCORE.INTER.VDW>
-12.4155

>  <SCORE.INTER.norm>
-0.00442491

>  <SCORE.INTRA>
-0.683636

>  <SCORE.INTRA.DIHEDRAL>
-0.973747

>  <SCORE.INTRA.DIHEDRAL.0>
11.2357

>  <SCORE.INTRA.POLAR>
0

>  <SCORE.INTRA.POLAR.0>
0

>  <SCORE.INTRA.REPUL>
0

>  <SCORE.INTRA.REPUL.0>
0

>  <SCORE.INTRA.SOLV>
-2.13484

>  <SCORE.INTRA.SOLV.lig_0>
-83.3092

>  <SCORE.INTRA.VDW>
0.870658

>  <SCORE.INTRA.VDW.0>
-4.47057

>  <SCORE.INTRA.norm>
-0.0220528

>  <SCORE.RESTR>
0

>  <SCORE.RESTR.CAVITY>
0

>  <SCORE.RESTR.norm>
0

>  <SCORE.SYSTEM>
0

>  <SCORE.SYSTEM.CONST>
0

>  <SCORE.SYSTEM.DIHEDRAL>
0

>  <SCORE.SYSTEM.SOLV>
0

>  <SCORE.SYSTEM.norm>
0

>  <SCORE.heavy>
31

>  <SCORE.norm>
-0.0264777

>  <RMSD>
6.328

$$$$
ligand
 OpenBabel11021811433D
libRbt.so/2013.1/901 2013/11/27
 31 33  0  0  0  0  0  0  0  0999 V2000
   43.9083   23.6807    3.8523 C   0  0  0  0  0  0  0  0  0  0  0  0
   41.7297   22.5482   -1.1890 N   0  0  0  0  0  0  0  0  0  0  0  0
   43.1949   22.4502    3.6611 O   0  0  0  0  0  0  0  0  0  0  0  0
   42.8270   24.6903    4.2287 C   0  0  1  0  0  0  0  0  0  0  0  0
   37.8895   25.7151   -0.2133 N   0  0  0  0  0  0  0  0  0  0  0  0
   41.5516   24.5931    3.4115 O   0  0  0  0  0  0  0  0  0  0  0  0
   40.4951   24.0481    4.1035 C   0  0  1  0  0  0  0  0  0  0  0  0
   33.6427   23.3308    3.7637 N   0  0  0  0  0  0  0  0  0  0  0  0
   39.7699   23.0194    3.4893 O   0  0  0  0  0  0  0  0  0  0  0  0
   39.4266   23.0130    2.0272 C   0  0  2  0  0  0  0  0  0  0  0  0
   38.7250   27.2447    2.9774 N   0  0  0  0  0  0  0  0  0  0  0  0
   41.3418   21.4862    1.5886 O   0  0  0  0  0  0  0  0  0  0  0  0
   40.7380   22.7812    1.2197 C   0  0  1  0  0  0  0  0  0  0  0  0
   37.6127   24.5835    2.3000 O   0  0  0  0  0  0  0  0  0  0  0  0
   40.4278   22.7805   -0.3603 C   0  0  1  0  0  0  0  0  0  0  0  0
   35.4565   25.3788    2.9191 O   0  0  0  0  0  0  0  0  0  0  0  0
   39.7792   24.1862   -0.7255 C   0  0  0  0  0  0  0  0  0  0  0  0
   35.9874   25.3875    6.6054 O   0  0  0  0  0  0  0  0  0  0  0  0
   38.4710   24.3801    0.1484 C   0  0  1  0  0  0  0  0  0  0  0  0
   37.9131   27.3396    5.8082 O   0  0  0  0  0  0  0  0  0  0  0  0
   38.7884   24.4121    1.6095 C   0  0  2  0  0  0  0  0  0  0  0  0
   40.0438   23.7958    6.4320 O   0  0  0  0  0  0  0  0  0  0  0  0
   36.8124   25.7882    2.4138 C   0  0  1  0  0  0  0  0  0  0  0  0
   41.7551   25.9431    6.0827 O   0  0  0  0  0  0  0  0  0  0  0  0
   35.4227   24.8046    4.3289 C   0  0  2  0  0  0  0  0  0  0  0  0
   33.9953   24.4105    4.6902 C   0  0  0  0  0  0  0  0  0  0  0  0
   35.9797   25.8784    5.2919 C   0  0  2  0  0  0  0  0  0  0  0  0
   37.3864   26.2881    4.8887 C   0  0  1  0  0  0  0  0  0  0  0  0
   37.3475   26.8168    3.4429 C   0  0  1  0  0  0  0  0  0  0  0  0
   41.0404   23.7021    5.4795 C   0  0  2  0  0  0  0  0  0  0  0  0
   42.2708   24.6486    5.6568 C   0  0  1  0  0  0  0  0  0  0  0  0
  1  3  1  0  0  0  0
  4  1  1  1  0  0  0
  4  6  1  0  0  0  0
  4 31  1  0  0  0  0
  6  7  1  0  0  0  0
  7  9  1  6  0  0  0
  7 30  1  0  0  0  0
  8 26  1  0  0  0  0
 10  9  1  1  0  0  0
 10 13  1  0  0  0  0
 10 21  1  0  0  0  0
 13 12  1  1  0  0  0
 13 15  1  0  0  0  0
 15  2  1  6  0  0  0
 15 17  1  0  0  0  0
 16 25  1  0  0  0  0
 16 23  1  0  0  0  0
 17 19  1  0  0  0  0
 19  5  1  6  0  0  0
 19 21  1  0  0  0  0
 21 14  1  1  0  0  0
 23 14  1  1  0  0  0
 23 29  1  0  0  0  0
 25 26  1  1  0  0  0
 25 27  1  0  0  0  0
 27 18  1  1  0  0  0
 27 28  1  0  0  0  0
 28 20  1  1  0  0  0
 28 29  1  0  0  0  0
 29 11  1  6  0  0  0
 30 22  1  1  0  0  0
 30 31  1  0  0  0  0
 31 24  1  6  0  0  0
M  END
>  <CHROM.1>
-42.48196739,-39.61056597,70.05515837,163.88388521,168.65418257,64.40915929
39.10460125,24.48108906,3.27054819,-0.37338081,-0.23056286,1.27245747

>  <Name>
ligand

>  <RI>
0

>  <Rbt.Current_Directory>
/home/itssahil/PROJECTS/Mol_Feturizer/New_Systems/rnas/2ET5

>  <Rbt.Executable>
rbdock ($Id: //depot/dev/client3/rdock/2013.1/src/exe/rbdock.cxx#4 $)

>  <Rbt.Library>
libRbt.so (2013.1, Build901 2013/11/27)

>  <Rbt.Parameter_File>
/export/apps/rDock/src/rDock_2013.1_src/data/scripts/dock_solv.prm

>  <Rbt.Receptor>
prm/pocket_docking_5.prm

>  <SCORE>
-7.85701

>  <SCORE.INTER>
-5.63298

>  <SCORE.INTER.CONST>
1

>  <SCORE.INTER.POLAR>
0

>  <SCORE.INTER.ROT>
6

>  <SCORE.INTER.SOLV>
15.5922

>  <SCORE.INTER.VDW>
-16.5527

>  <SCORE.INTER.norm>
-0.181709

>  <SCORE.INTRA>
-2.22403

>  <SCORE.INTRA.DIHEDRAL>
-5.8704

>  <SCORE.INTRA.DIHEDRAL.0>
11.2357

>  <SCORE.INTRA.POLAR>
0

>  <SCORE.INTRA.POLAR.0>
0

>  <SCORE.INTRA.REPUL>
0

>  <SCORE.INTRA.REPUL.0>
0

>  <SCORE.INTRA.SOLV>
0.581855

>  <SCORE.INTRA.SOLV.lig_0>
-83.3092

>  <SCORE.INTRA.VDW>
0.420244

>  <SCORE.INTRA.VDW.0>
-4.47057

>  <SCORE.INTRA.norm>
-0.0717428

>  <SCORE.RESTR>
0

>  <SCORE.RESTR.CAVITY>
0

>  <SCORE.RESTR.norm>
0

>  <SCORE.SYSTEM>
0

>  <SCORE.SYSTEM.CONST>
0

>  <SCORE.SYSTEM.DIHEDRAL>
0

>  <SCORE.SYSTEM.SOLV>
0

>  <SCORE.SYSTEM.norm>
0

>  <SCORE.heavy>
31

>  <SCORE.norm>
-0.253452

>  <RMSD>
6.361

$$$$
ligand
 OpenBabel11021811433D
libRbt.so/2013.1/901 2013/11/27
 31 33  0  0  0  0  0  0  0  0999 V2000
   45.0037   22.7970    3.6906 C   0  0  0  0  0  0  0  0  0  0  0  0
   43.4632   20.0213   -0.5845 N   0  0  0  0  0  0  0  0  0  0  0  0
   45.4954   22.4726    2.3819 O   0  0  0  0  0  0  0  0  0  0  0  0
   44.1378   24.0351    3.4731 C   0  0  1  0  0  0  0  0  0  0  0  0
   40.2328   23.6870   -1.9466 N   0  0  0  0  0  0  0  0  0  0  0  0
   42.9606   23.8334    2.5363 O   0  0  0  0  0  0  0  0  0  0  0  0
   41.7464   23.7861    3.1810 C   0  0  1  0  0  0  0  0  0  0  0  0
   38.2274   28.5986   -0.4454 N   0  0  0  0  0  0  0  0  0  0  0  0
   40.8788   22.7322    2.8683 O   0  0  0  0  0  0  0  0  0  0  0  0
   40.7928   22.1137    1.5023 C   0  0  2  0  0  0  0  0  0  0  0  0
   37.5642   23.8214    3.0540 N   0  0  0  0  0  0  0  0  0  0  0  0
   42.4064   20.3536    2.2022 O   0  0  0  0  0  0  0  0  0  0  0  0
   42.1474   21.4066    1.2013 C   0  0  1  0  0  0  0  0  0  0  0  0
   39.3137   23.8279    0.6628 O   0  0  0  0  0  0  0  0  0  0  0  0
   42.1144   20.7373   -0.2628 C   0  0  1  0  0  0  0  0  0  0  0  0
   39.0684   26.1926    0.5474 O   0  0  0  0  0  0  0  0  0  0  0  0
   41.8338   21.8952   -1.3167 C   0  0  0  0  0  0  0  0  0  0  0  0
   35.5650   26.2515   -0.7148 O   0  0  0  0  0  0  0  0  0  0  0  0
   40.4634   22.5977   -0.9409 C   0  0  1  0  0  0  0  0  0  0  0  0
   35.1682   25.0268    1.8341 O   0  0  0  0  0  0  0  0  0  0  0  0
   40.5298   23.2413    0.4074 C   0  0  2  0  0  0  0  0  0  0  0  0
   41.0195   24.5498    5.3206 O   0  0  0  0  0  0  0  0  0  0  0  0
   39.0419   25.0037    1.4680 C   0  0  1  0  0  0  0  0  0  0  0  0
   43.1860   26.0743    4.5180 O   0  0  0  0  0  0  0  0  0  0  0  0
   37.9730   26.2341   -0.5094 C   0  0  2  0  0  0  0  0  0  0  0  0
   38.1448   27.4731   -1.3805 C   0  0  0  0  0  0  0  0  0  0  0  0
   36.6098   26.2338    0.2202 C   0  0  2  0  0  0  0  0  0  0  0  0
   36.4767   25.0133    1.1156 C   0  0  1  0  0  0  0  0  0  0  0  0
   37.6384   25.0178    2.1264 C   0  0  1  0  0  0  0  0  0  0  0  0
   42.0617   23.9267    4.6613 C   0  0  2  0  0  0  0  0  0  0  0  0
   43.4456   24.6514    4.6944 C   0  0  1  0  0  0  0  0  0  0  0  0
  1  3  1  0  0  0  0
  4  1  1  1  0  0  0
  4  6  1  0  0  0  0
  4 31  1  0  0  0  0
  6  7  1  0  0  0  0
  7  9  1  1  0  0  0
  7 30  1  0  0  0  0
  8 26  1  0  0  0  0
 10  9  1  1  0  0  0
 10 13  1  0  0  0  0
 10 21  1  0  0  0  0
 13 12  1  1  0  0  0
 13 15  1  0  0  0  0
 15  2  1  6  0  0  0
 15 17  1  0  0  0  0
 16 25  1  0  0  0  0
 16 23  1  0  0  0  0
 17 19  1  0  0  0  0
 19  5  1  6  0  0  0
 19 21  1  0  0  0  0
 21 14  1  1  0  0  0
 23 14  1  6  0  0  0
 23 29  1  0  0  0  0
 25 26  1  1  0  0  0
 25 27  1  0  0  0  0
 27 18  1  6  0  0  0
 27 28  1  0  0  0  0
 28 20  1  1  0  0  0
 28 29  1  0  0  0  0
 29 11  1  1  0  0  0
 30 22  1  1  0  0  0
 30 31  1  0  0  0  0
 31 24  1  6  0  0  0
M  END
>  <CHROM.1>
60.62601950,-33.20755679,65.79757699,91.90952516,91.99661086,-52.51396035
40.47942771,23.99794488,1.49950752,0.00518959,-0.58333270,0.96653056

>  <Name>
ligand

>  <RI>
0

>  <Rbt.Current_Directory>
/home/itssahil/PROJECTS/Mol_Feturizer/New_Systems/rnas/2ET5

>  <Rbt.Executable>
rbdock ($Id: //depot/dev/client3/rdock/2013.1/src/exe/rbdock.cxx#4 $)

>  <Rbt.Library>
libRbt.so (2013.1, Build901 2013/11/27)

>  <Rbt.Parameter_File>
/export/apps/rDock/src/rDock_2013.1_src/data/scripts/dock_solv.prm

>  <Rbt.Receptor>
prm/pocket_docking_4.prm

>  <SCORE>
-5.75933

>  <SCORE.INTER>
-6.29338

>  <SCORE.INTER.CONST>
1

>  <SCORE.INTER.POLAR>
0

>  <SCORE.INTER.ROT>
6

>  <SCORE.INTER.SOLV>
19.6665

>  <SCORE.INTER.VDW>
-18.3511

>  <SCORE.INTER.norm>
-0.203012

>  <SCORE.INTRA>
0.534051

>  <SCORE.INTRA.DIHEDRAL>
0.0781213

>  <SCORE.INTRA.DIHEDRAL.0>
11.2357

>  <SCORE.INTRA.POLAR>
0

>  <SCORE.INTRA.POLAR.0>
0

>  <SCORE.INTRA.REPUL>
0

>  <SCORE.INTRA.REPUL.0>
0

>  <SCORE.INTRA.SOLV>
-0.0748824

>  <SCORE.INTRA.SOLV.lig_0>
-83.3092

>  <SCORE.INTRA.VDW>
0.532432

>  <SCORE.INTRA.VDW.0>
-4.47057

>  <SCORE.INTRA.norm>
0.0172275

>  <SCORE.RESTR>
0

>  <SCORE.RESTR.CAVITY>
0

>  <SCORE.RESTR.norm>
0

>  <SCORE.SYSTEM>
0

>  <SCORE.SYSTEM.CONST>
0

>  <SCORE.SYSTEM.DIHEDRAL>
0

>  <SCORE.SYSTEM.SOLV>
0

>  <SCORE.SYSTEM.norm>
0

>  <SCORE.heavy>
31

>  <SCORE.norm>
-0.185785

>  <RMSD>
6.364

$$$$
ligand
 OpenBabel11021811433D
libRbt.so/2013.1/901 2013/11/27
 31 33  0  0  0  0  0  0  0  0999 V2000
   38.2555   24.9458   -1.9005 C   0  0  0  0  0  0  0  0  0  0  0  0
   33.9153   26.5025    2.0263 N   0  0  0  0  0  0  0  0  0  0  0  0
   36.8861   25.3749   -1.8881 O   0  0  0  0  0  0  0  0  0  0  0  0
   38.9957   26.0195   -1.1071 C   0  0  1  0  0  0  0  0  0  0  0  0
   37.1157   28.2774    5.5386 N   0  0  0  0  0  0  0  0  0  0  0  0
   38.4828   26.2361    0.3050 O   0  0  0  0  0  0  0  0  0  0  0  0
   39.3186   25.7363    1.2765 C   0  0  1  0  0  0  0  0  0  0  0  0
   42.8981   23.4437    3.1917 N   0  0  0  0  0  0  0  0  0  0  0  0
   38.7553   24.9335    2.2763 O   0  0  0  0  0  0  0  0  0  0  0  0
   37.5742   25.3548    3.1029 C   0  0  2  0  0  0  0  0  0  0  0  0
   39.3622   26.5322    7.7601 N   0  0  0  0  0  0  0  0  0  0  0  0
   36.0406   24.5015    1.3390 O   0  0  0  0  0  0  0  0  0  0  0  0
   36.3985   25.6894    2.1379 C   0  0  1  0  0  0  0  0  0  0  0  0
   38.9506   26.3256    4.8332 O   0  0  0  0  0  0  0  0  0  0  0  0
   35.1071   26.1630    2.9750 C   0  0  1  0  0  0  0  0  0  0  0  0
   39.6543   24.0544    4.9417 O   0  0  0  0  0  0  0  0  0  0  0  0
   35.5243   27.4420    3.8237 C   0  0  0  0  0  0  0  0  0  0  0  0
   43.2871   24.7003    5.4481 O   0  0  0  0  0  0  0  0  0  0  0  0
   36.7424   27.0505    4.7596 C   0  0  1  0  0  0  0  0  0  0  0  0
   42.2270   25.8477    7.8385 O   0  0  0  0  0  0  0  0  0  0  0  0
   37.9400   26.6477    3.9596 C   0  0  2  0  0  0  0  0  0  0  0  0
   41.6353   25.1685    1.2824 O   0  0  0  0  0  0  0  0  0  0  0  0
   39.0319   25.1805    5.7202 C   0  0  1  0  0  0  0  0  0  0  0  0
   41.1917   27.0858   -0.6641 O   0  0  0  0  0  0  0  0  0  0  0  0
   41.1003   24.2668    4.5147 C   0  0  2  0  0  0  0  0  0  0  0  0
   41.5830   23.0625    3.7146 C   0  0  0  0  0  0  0  0  0  0  0  0
   41.9456   24.4798    5.7917 C   0  0  2  0  0  0  0  0  0  0  0  0
   41.4215   25.6577    6.5961 C   0  0  1  0  0  0  0  0  0  0  0  0
   39.9477   25.3903    6.9535 C   0  0  1  0  0  0  0  0  0  0  0  0
   40.4781   25.0959    0.5308 C   0  0  2  0  0  0  0  0  0  0  0  0
   40.4945   25.8205   -0.8534 C   0  0  1  0  0  0  0  0  0  0  0  0
  1  3  1  0  0  0  0
  4  1  1  1  0  0  0
  4  6  1  0  0  0  0
  4 31  1  0  0  0  0
  6  7  1  0  0  0  0
  7  9  1  6  0  0  0
  7 30  1  0  0  0  0
  8 26  1  0  0  0  0
 10  9  1  6  0  0  0
 10 13  1  0  0  0  0
 10 21  1  0  0  0  0
 13 12  1  1  0  0  0
 13 15  1  0  0  0  0
 15  2  1  6  0  0  0
 15 17  1  0  0  0  0
 16 25  1  0  0  0  0
 16 23  1  0  0  0  0
 17 19  1  0  0  0  0
 19  5  1  6  0  0  0
 19 21  1  0  0  0  0
 21 14  1  1  0  0  0
 23 14  1  6  0  0  0
 23 29  1  0  0  0  0
 25 26  1  1  0  0  0
 25 27  1  0  0  0  0
 27 18  1  6  0  0  0
 27 28  1  0  0  0  0
 28 20  1  1  0  0  0
 28 29  1  0  0  0  0
 29 11  1  6  0  0  0
 30 22  1  1  0  0  0
 30 31  1  0  0  0  0
 31 24  1  1  0  0  0
M  END
>  <CHROM.1>
57.12212819,-52.70410044,56.92257450,87.53444270,-48.40312838,172.04848207
39.13472274,25.57208015,3.07321661,-2.12737879,-0.29003758,1.49018974

>  <Name>
ligand

>  <RI>
0

>  <Rbt.Current_Directory>
/home/itssahil/PROJECTS/Mol_Feturizer/New_Systems/rnas/2ET5

>  <Rbt.Executable>
rbdock ($Id: //depot/dev/client3/rdock/2013.1/src/exe/rbdock.cxx#4 $)

>  <Rbt.Library>
libRbt.so (2013.1, Build901 2013/11/27)

>  <Rbt.Parameter_File>
/export/apps/rDock/src/rDock_2013.1_src/data/scripts/dock_solv.prm

>  <Rbt.Receptor>
prm/pocket_docking_4.prm

>  <SCORE>
-2.18703

>  <SCORE.INTER>
-0.101455

>  <SCORE.INTER.CONST>
1

>  <SCORE.INTER.POLAR>
0

>  <SCORE.INTER.ROT>
6

>  <SCORE.INTER.SOLV>
12.2089

>  <SCORE.INTER.VDW>
-11.7373

>  <SCORE.INTER.norm>
-0.00327274

>  <SCORE.INTRA>
-2.09423

>  <SCORE.INTRA.DIHEDRAL>
-6.79228

>  <SCORE.INTRA.DIHEDRAL.0>
11.2357

>  <SCORE.INTRA.POLAR>
0

>  <SCORE.INTRA.POLAR.0>
0

>  <SCORE.INTRA.REPUL>
0

>  <SCORE.INTRA.REPUL.0>
0

>  <SCORE.INTRA.SOLV>
0.943709

>  <SCORE.INTRA.SOLV.lig_0>
-83.3092

>  <SCORE.INTRA.VDW>
0.830052

>  <SCORE.INTRA.VDW.0>
-4.47057

>  <SCORE.INTRA.norm>
-0.0675559

>  <SCORE.RESTR>
0.00865446

>  <SCORE.RESTR.CAVITY>
0.00865446

>  <SCORE.RESTR.norm>
0.000279176

>  <SCORE.SYSTEM>
0

>  <SCORE.SYSTEM.CONST>
0

>  <SCORE.SYSTEM.DIHEDRAL>
0

>  <SCORE.SYSTEM.SOLV>
0

>  <SCORE.SYSTEM.norm>
0

>  <SCORE.heavy>
31

>  <SCORE.norm>
-0.0705495

>  <RMSD>
6.377

$$$$
ligand
 OpenBabel11021811433D
libRbt.so/2013.1/901 2013/11/27
 31 33  0  0  0  0  0  0  0  0999 V2000
   42.0151   20.5289    1.8673 C   0  0  0  0  0  0  0  0  0  0  0  0
   46.6787   27.2146   -1.2232 N   0  0  0  0  0  0  0  0  0  0  0  0
   41.9393   19.1883    2.3738 O   0  0  0  0  0  0  0  0  0  0  0  0
   43.5114   20.7973    1.7293 C   0  0  1  0  0  0  0  0  0  0  0  0
   41.8081   28.3303   -0.3511 N   0  0  0  0  0  0  0  0  0  0  0  0
   43.8641   22.1045    1.0431 O   0  0  0  0  0  0  0  0  0  0  0  0
   44.3409   23.0661    1.9035 C   0  0  1  0  0  0  0  0  0  0  0  0
   42.1914   23.9255    4.8327 N   0  0  0  0  0  0  0  0  0  0  0  0
   43.7799   24.3473    1.8306 O   0  0  0  0  0  0  0  0  0  0  0  0
   43.7706   25.1722    0.5755 C   0  0  2  0  0  0  0  0  0  0  0  0
   39.1890   25.1253   -0.8429 N   0  0  0  0  0  0  0  0  0  0  0  0
   46.1698   24.6267    0.2042 O   0  0  0  0  0  0  0  0  0  0  0  0
   45.2056   25.7341    0.3509 C   0  0  1  0  0  0  0  0  0  0  0  0
   41.4797   25.8715    0.8818 O   0  0  0  0  0  0  0  0  0  0  0  0
   45.2478   26.6417   -0.9784 C   0  0  1  0  0  0  0  0  0  0  0  0
   41.3142   23.7465    1.9411 O   0  0  0  0  0  0  0  0  0  0  0  0
   44.2001   27.8236   -0.7896 C   0  0  0  0  0  0  0  0  0  0  0  0
   38.2382   24.4363    3.9244 O   0  0  0  0  0  0  0  0  0  0  0  0
   42.7690   27.1923   -0.5326 C   0  0  1  0  0  0  0  0  0  0  0  0
   37.1956   24.6521    1.2747 O   0  0  0  0  0  0  0  0  0  0  0  0
   42.7454   26.3829    0.7248 C   0  0  2  0  0  0  0  0  0  0  0  0
   45.3037   22.9536    4.0828 O   0  0  0  0  0  0  0  0  0  0  0  0
   41.0371   24.5057    0.6730 C   0  0  1  0  0  0  0  0  0  0  0  0
   45.7406   20.5458    2.7892 O   0  0  0  0  0  0  0  0  0  0  0  0
   40.5180   24.1871    3.1620 C   0  0  2  0  0  0  0  0  0  0  0  0
   40.9244   23.3517    4.3705 C   0  0  0  0  0  0  0  0  0  0  0  0
   39.0161   24.0229    2.8335 C   0  0  2  0  0  0  0  0  0  0  0  0
   38.6415   24.8292    1.6011 C   0  0  1  0  0  0  0  0  0  0  0  0
   39.5142   24.3579    0.4230 C   0  0  1  0  0  0  0  0  0  0  0  0
   44.3001   22.4365    3.2863 C   0  0  2  0  0  0  0  0  0  0  0  0
   44.3446   20.8988    3.0122 C   0  0  1  0  0  0  0  0  0  0  0  0
  1  3  1  0  0  0  0
  4  1  1  1  0  0  0
  4  6  1  0  0  0  0
  4 31  1  0  0  0  0
  6  7  1  0  0  0  0
  7  9  1  1  0  0  0
  7 30  1  0  0  0  0
  8 26  1  0  0  0  0
 10  9  1  1  0  0  0
 10 13  1  0  0  0  0
 10 21  1  0  0  0  0
 13 12  1  6  0  0  0
 13 15  1  0  0  0  0
 15  2  1  1  0  0  0
 15 17  1  0  0  0  0
 16 25  1  0  0  0  0
 16 23  1  0  0  0  0
 17 19  1  0  0  0  0
 19  5  1  1  0  0  0
 19 21  1  0  0  0  0
 21 14  1  6  0  0  0
 23 14  1  1  0  0  0
 23 29  1  0  0  0  0
 25 26  1  1  0  0  0
 25 27  1  0  0  0  0
 27 18  1  1  0  0  0
 27 28  1  0  0  0  0
 28 20  1  6  0  0  0
 28 29  1  0  0  0  0
 29 11  1  6  0  0  0
 30 22  1  1  0  0  0
 30 31  1  0  0  0  0
 31 24  1  6  0  0  0
M  END
>  <CHROM.1>
172.76561057,-57.45145322,-75.18269540,84.78119171,-12.38976990,78.83596754
42.48409296,24.11537735,1.54432184,-2.40570187,0.15449107,-0.54493690

>  <Name>
ligand

>  <RI>
0

>  <Rbt.Current_Directory>
/home/itssahil/PROJECTS/Mol_Feturizer/New_Systems/rnas/2ET5

>  <Rbt.Executable>
rbdock ($Id: //depot/dev/client3/rdock/2013.1/src/exe/rbdock.cxx#4 $)

>  <Rbt.Library>
libRbt.so (2013.1, Build901 2013/11/27)

>  <Rbt.Parameter_File>
/export/apps/rDock/src/rDock_2013.1_src/data/scripts/dock_solv.prm

>  <Rbt.Receptor>
prm/pocket_docking_8.prm

>  <SCORE>
-4.38103

>  <SCORE.INTER>
-5.1792

>  <SCORE.INTER.CONST>
1

>  <SCORE.INTER.POLAR>
0

>  <SCORE.INTER.ROT>
6

>  <SCORE.INTER.SOLV>
13.7732

>  <SCORE.INTER.VDW>
-15.6439

>  <SCORE.INTER.norm>
-0.167071

>  <SCORE.INTRA>
0.798169

>  <SCORE.INTRA.DIHEDRAL>
0.435427

>  <SCORE.INTRA.DIHEDRAL.0>
11.2357

>  <SCORE.INTRA.POLAR>
0

>  <SCORE.INTRA.POLAR.0>
0

>  <SCORE.INTRA.REPUL>
0

>  <SCORE.INTRA.REPUL.0>
0

>  <SCORE.INTRA.SOLV>
-0.0438901

>  <SCORE.INTRA.SOLV.lig_0>
-83.3092

>  <SCORE.INTRA.VDW>
0.6024

>  <SCORE.INTRA.VDW.0>
-4.47057

>  <SCORE.INTRA.norm>
0.0257474

>  <SCORE.RESTR>
0

>  <SCORE.RESTR.CAVITY>
0

>  <SCORE.RESTR.norm>
0

>  <SCORE.SYSTEM>
0

>  <SCORE.SYSTEM.CONST>
0

>  <SCORE.SYSTEM.DIHEDRAL>
0

>  <SCORE.SYSTEM.SOLV>
0

>  <SCORE.SYSTEM.norm>
0

>  <SCORE.heavy>
31

>  <SCORE.norm>
-0.141324

>  <RMSD>
6.380

$$$$
ligand
 OpenBabel11021811433D
libRbt.so/2013.1/901 2013/11/27
 31 33  0  0  0  0  0  0  0  0999 V2000
   40.4681   23.6393    5.9849 C   0  0  0  0  0  0  0  0  0  0  0  0
   45.9354   21.9915    2.9949 N   0  0  0  0  0  0  0  0  0  0  0  0
   39.8535   22.9172    4.9076 O   0  0  0  0  0  0  0  0  0  0  0  0
   40.9283   24.9484    5.3489 C   0  0  1  0  0  0  0  0  0  0  0  0
   45.5474   25.9498   -0.1530 N   0  0  0  0  0  0  0  0  0  0  0  0
   41.8652   24.7876    4.1654 O   0  0  0  0  0  0  0  0  0  0  0  0
   41.2727   25.0587    2.9540 C   0  0  1  0  0  0  0  0  0  0  0  0
   43.1482   29.4202    2.1079 N   0  0  0  0  0  0  0  0  0  0  0  0
   41.4374   24.1278    1.9207 O   0  0  0  0  0  0  0  0  0  0  0  0
   42.7759   23.7669    1.3429 C   0  0  2  0  0  0  0  0  0  0  0  0
   40.7393   25.3223   -2.2744 N   0  0  0  0  0  0  0  0  0  0  0  0
   42.9403   21.8560    2.9280 O   0  0  0  0  0  0  0  0  0  0  0  0
   43.6186   23.0791    2.4575 C   0  0  1  0  0  0  0  0  0  0  0  0
   42.7932   25.6531   -0.1648 O   0  0  0  0  0  0  0  0  0  0  0  0
   45.0739   22.6840    1.8932 C   0  0  1  0  0  0  0  0  0  0  0  0
   41.5595   27.5046    0.6807 O   0  0  0  0  0  0  0  0  0  0  0  0
   45.7777   24.0206    1.3949 C   0  0  0  0  0  0  0  0  0  0  0  0
   42.4217   29.9274   -2.0132 O   0  0  0  0  0  0  0  0  0  0  0  0
   44.8610   24.6910    0.2891 C   0  0  1  0  0  0  0  0  0  0  0  0
   40.9748   27.9815   -3.5213 O   0  0  0  0  0  0  0  0  0  0  0  0
   43.5284   25.0804    0.8450 C   0  0  2  0  0  0  0  0  0  0  0  0
   39.3259   26.2953    2.3457 O   0  0  0  0  0  0  0  0  0  0  0  0
   41.4583   26.2159   -0.0877 C   0  0  1  0  0  0  0  0  0  0  0  0
   40.2854   27.2693    4.7524 O   0  0  0  0  0  0  0  0  0  0  0  0
   42.3651   28.6106    0.0125 C   0  0  2  0  0  0  0  0  0  0  0  0
   42.4036   29.8374    0.9164 C   0  0  0  0  0  0  0  0  0  0  0  0
   41.7016   28.9247   -1.3483 C   0  0  2  0  0  0  0  0  0  0  0  0
   41.6343   27.6794   -2.2166 C   0  0  1  0  0  0  0  0  0  0  0  0
   40.8441   26.5960   -1.4595 C   0  0  1  0  0  0  0  0  0  0  0  0
   39.8260   25.4002    3.2718 C   0  0  2  0  0  0  0  0  0  0  0  0
   39.8593   25.8760    4.7597 C   0  0  1  0  0  0  0  0  0  0  0  0
  1  3  1  0  0  0  0
  4  1  1  6  0  0  0
  4  6  1  0  0  0  0
  4 31  1  0  0  0  0
  6  7  1  0  0  0  0
  7  9  1  6  0  0  0
  7 30  1  0  0  0  0
  8 26  1  0  0  0  0
 10  9  1  1  0  0  0
 10 13  1  0  0  0  0
 10 21  1  0  0  0  0
 13 12  1  6  0  0  0
 13 15  1  0  0  0  0
 15  2  1  1  0  0  0
 15 17  1  0  0  0  0
 16 25  1  0  0  0  0
 16 23  1  0  0  0  0
 17 19  1  0  0  0  0
 19  5  1  1  0  0  0
 19 21  1  0  0  0  0
 21 14  1  6  0  0  0
 23 14  1  6  0  0  0
 23 29  1  0  0  0  0
 25 26  1  1  0  0  0
 25 27  1  0  0  0  0
 27 18  1  6  0  0  0
 27 28  1  0  0  0  0
 28 20  1  6  0  0  0
 28 29  1  0  0  0  0
 29 11  1  6  0  0  0
 30 22  1  6  0  0  0
 30 31  1  0  0  0  0
 31 24  1  6  0  0  0
M  END
>  <CHROM.1>
-57.03690352,-61.80665970,64.45385924,71.61395891,63.92183997,64.92811129
42.13274958,25.72176420,1.46470935,1.57176978,-0.68066663,2.27081818

>  <Name>
ligand

>  <RI>
0

>  <Rbt.Current_Directory>
/home/itssahil/PROJECTS/Mol_Feturizer/New_Systems/rnas/2ET5

>  <Rbt.Executable>
rbdock ($Id: //depot/dev/client3/rdock/2013.1/src/exe/rbdock.cxx#4 $)

>  <Rbt.Library>
libRbt.so (2013.1, Build901 2013/11/27)

>  <Rbt.Parameter_File>
/export/apps/rDock/src/rDock_2013.1_src/data/scripts/dock_solv.prm

>  <Rbt.Receptor>
prm/pocket_docking_8.prm

>  <SCORE>
-5.28242

>  <SCORE.INTER>
0.899071

>  <SCORE.INTER.CONST>
1

>  <SCORE.INTER.POLAR>
0

>  <SCORE.INTER.ROT>
6

>  <SCORE.INTER.SOLV>
14.3439

>  <SCORE.INTER.VDW>
-11.7819

>  <SCORE.INTER.norm>
0.0290023

>  <SCORE.INTRA>
-6.18149

>  <SCORE.INTRA.DIHEDRAL>
-10.1449

>  <SCORE.INTRA.DIHEDRAL.0>
11.2357

>  <SCORE.INTRA.POLAR>
0

>  <SCORE.INTRA.POLAR.0>
0

>  <SCORE.INTRA.REPUL>
0

>  <SCORE.INTRA.REPUL.0>
0

>  <SCORE.INTRA.SOLV>
-3.01485

>  <SCORE.INTRA.SOLV.lig_0>
-83.3092

>  <SCORE.INTRA.VDW>
0.398363

>  <SCORE.INTRA.VDW.0>
-4.47057

>  <SCORE.INTRA.norm>
-0.199403

>  <SCORE.RESTR>
0

>  <SCORE.RESTR.CAVITY>
0

>  <SCORE.RESTR.norm>
0

>  <SCORE.SYSTEM>
0

>  <SCORE.SYSTEM.CONST>
0

>  <SCORE.SYSTEM.DIHEDRAL>
0

>  <SCORE.SYSTEM.SOLV>
0

>  <SCORE.SYSTEM.norm>
0

>  <SCORE.heavy>
31

>  <SCORE.norm>
-0.170401

>  <RMSD>
6.426

$$$$
ligand
 OpenBabel11021811433D
libRbt.so/2013.1/901 2013/11/27
 31 33  0  0  0  0  0  0  0  0999 V2000
   45.3273   23.5701    1.7782 C   0  0  0  0  0  0  0  0  0  0  0  0
   41.8605   21.9939   -2.1694 N   0  0  0  0  0  0  0  0  0  0  0  0
   44.9355   24.5978    2.7001 O   0  0  0  0  0  0  0  0  0  0  0  0
   45.5551   22.3417    2.6554 C   0  0  1  0  0  0  0  0  0  0  0  0
   41.7945   25.4810    1.5135 N   0  0  0  0  0  0  0  0  0  0  0  0
   44.3379   21.8820    3.4372 O   0  0  0  0  0  0  0  0  0  0  0  0
   43.7702   20.7303    2.9439 C   0  0  1  0  0  0  0  0  0  0  0  0
   41.6466   25.5063    7.3439 N   0  0  0  0  0  0  0  0  0  0  0  0
   42.3854   20.7195    2.7347 O   0  0  0  0  0  0  0  0  0  0  0  0
   41.6869   21.6610    1.7958 C   0  0  2  0  0  0  0  0  0  0  0  0
   39.1286   22.6826    2.0504 N   0  0  0  0  0  0  0  0  0  0  0  0
   41.7710   19.9330    0.0073 O   0  0  0  0  0  0  0  0  0  0  0  0
   42.1357   21.3229    0.3433 C   0  0  1  0  0  0  0  0  0  0  0  0
   41.6463   23.4617    3.4041 O   0  0  0  0  0  0  0  0  0  0  0  0
   41.4252   22.3164   -0.7059 C   0  0  1  0  0  0  0  0  0  0  0  0
   40.4569   23.5494    5.4639 O   0  0  0  0  0  0  0  0  0  0  0  0
   41.8368   23.8030   -0.3177 C   0  0  0  0  0  0  0  0  0  0  0  0
   38.5954   26.7082    4.8101 O   0  0  0  0  0  0  0  0  0  0  0  0
   41.3855   24.0771    1.1769 C   0  0  1  0  0  0  0  0  0  0  0  0
   37.5151   25.0450    2.7555 O   0  0  0  0  0  0  0  0  0  0  0  0
   42.0841   23.1663    2.1355 C   0  0  2  0  0  0  0  0  0  0  0  0
   44.6035   18.9847    1.5482 O   0  0  0  0  0  0  0  0  0  0  0  0
   40.4897   22.9250    4.0963 C   0  0  1  0  0  0  0  0  0  0  0  0
   46.7321   20.1676    2.8641 O   0  0  0  0  0  0  0  0  0  0  0  0
   40.2159   25.0525    5.4981 C   0  0  2  0  0  0  0  0  0  0  0  0
   40.2380   25.5447    6.9406 C   0  0  0  0  0  0  0  0  0  0  0  0
   38.8539   25.3301    4.8210 C   0  0  2  0  0  0  0  0  0  0  0  0
   38.8383   24.7937    3.3993 C   0  0  1  0  0  0  0  0  0  0  0  0
   39.1301   23.2822    3.4424 C   0  0  1  0  0  0  0  0  0  0  0  0
   44.5961   20.3551    1.7242 C   0  0  2  0  0  0  0  0  0  0  0  0
   45.9799   21.0379    1.9698 C   0  0  1  0  0  0  0  0  0  0  0  0
  1  3  1  0  0  0  0
  4  1  1  6  0  0  0
  4  6  1  0  0  0  0
  4 31  1  0  0  0  0
  6  7  1  0  0  0  0
  7  9  1  6  0  0  0
  7 30  1  0  0  0  0
  8 26  1  0  0  0  0
 10  9  1  1  0  0  0
 10 13  1  0  0  0  0
 10 21  1  0  0  0  0
 13 12  1  6  0  0  0
 13 15  1  0  0  0  0
 15  2  1  6  0  0  0
 15 17  1  0  0  0  0
 16 25  1  0  0  0  0
 16 23  1  0  0  0  0
 17 19  1  0  0  0  0
 19  5  1  1  0  0  0
 19 21  1  0  0  0  0
 21 14  1  1  0  0  0
 23 14  1  6  0  0  0
 23 29  1  0  0  0  0
 25 26  1  1  0  0  0
 25 27  1  0  0  0  0
 27 18  1  6  0  0  0
 27 28  1  0  0  0  0
 28 20  1  1  0  0  0
 28 29  1  0  0  0  0
 29 11  1  6  0  0  0
 30 22  1  1  0  0  0
 30 31  1  0  0  0  0
 31 24  1  1  0  0  0
M  END
>  <CHROM.1>
60.19657574,60.36350420,66.59103208,179.17057656,-30.51477541,73.24685317
41.98456238,22.95478137,2.66900701,-0.71685481,-0.43535955,1.11365447

>  <Name>
ligand

>  <RI>
0

>  <Rbt.Current_Directory>
/home/itssahil/PROJECTS/Mol_Feturizer/New_Systems/rnas/2ET5

>  <Rbt.Executable>
rbdock ($Id: //depot/dev/client3/rdock/2013.1/src/exe/rbdock.cxx#4 $)

>  <Rbt.Library>
libRbt.so (2013.1, Build901 2013/11/27)

>  <Rbt.Parameter_File>
/export/apps/rDock/src/rDock_2013.1_src/data/scripts/dock_solv.prm

>  <Rbt.Receptor>
prm/pocket_docking_4.prm

>  <SCORE>
-10.5487

>  <SCORE.INTER>
-10.0104

>  <SCORE.INTER.CONST>
1

>  <SCORE.INTER.POLAR>
0

>  <SCORE.INTER.ROT>
6

>  <SCORE.INTER.SOLV>
23.9377

>  <SCORE.INTER.VDW>
-22.2528

>  <SCORE.INTER.norm>
-0.322915

>  <SCORE.INTRA>
-0.538301

>  <SCORE.INTRA.DIHEDRAL>
-6.77503

>  <SCORE.INTRA.DIHEDRAL.0>
11.2357

>  <SCORE.INTRA.POLAR>
0

>  <SCORE.INTRA.POLAR.0>
0

>  <SCORE.INTRA.REPUL>
0

>  <SCORE.INTRA.REPUL.0>
0

>  <SCORE.INTRA.SOLV>
4.02503

>  <SCORE.INTRA.SOLV.lig_0>
-83.3092

>  <SCORE.INTRA.VDW>
0.836702

>  <SCORE.INTRA.VDW.0>
-4.47057

>  <SCORE.INTRA.norm>
-0.0173645

>  <SCORE.RESTR>
0

>  <SCORE.RESTR.CAVITY>
0

>  <SCORE.RESTR.norm>
0

>  <SCORE.SYSTEM>
0

>  <SCORE.SYSTEM.CONST>
0

>  <SCORE.SYSTEM.DIHEDRAL>
0

>  <SCORE.SYSTEM.SOLV>
0

>  <SCORE.SYSTEM.norm>
0

>  <SCORE.heavy>
31

>  <SCORE.norm>
-0.340279

>  <RMSD>
6.450

$$$$
ligand
 OpenBabel11021811433D
libRbt.so/2013.1/901 2013/11/27
 31 33  0  0  0  0  0  0  0  0999 V2000
   33.9957   27.1717    1.7646 C   0  0  0  0  0  0  0  0  0  0  0  0
   38.7789   25.4715   -1.6839 N   0  0  0  0  0  0  0  0  0  0  0  0
   34.3190   26.8658    0.4002 O   0  0  0  0  0  0  0  0  0  0  0  0
   33.8888   25.8084    2.4429 C   0  0  1  0  0  0  0  0  0  0  0  0
   41.2457   27.6806    2.1584 N   0  0  0  0  0  0  0  0  0  0  0  0
   35.0744   24.8883    2.2154 O   0  0  0  0  0  0  0  0  0  0  0  0
   35.8824   24.7490    3.3199 C   0  0  1  0  0  0  0  0  0  0  0  0
   42.4087   24.2223    5.0357 N   0  0  0  0  0  0  0  0  0  0  0  0
   37.2627   24.9109    3.1470 O   0  0  0  0  0  0  0  0  0  0  0  0
   37.8622   25.8819    2.1703 C   0  0  2  0  0  0  0  0  0  0  0  0
   37.6112   28.4899    5.8913 N   0  0  0  0  0  0  0  0  0  0  0  0
   36.6598   24.7471    0.3107 O   0  0  0  0  0  0  0  0  0  0  0  0
   37.9895   25.1698    0.7911 C   0  0  1  0  0  0  0  0  0  0  0  0
   39.1732   26.9965    3.8644 O   0  0  0  0  0  0  0  0  0  0  0  0
   38.6431   26.1654   -0.2926 C   0  0  1  0  0  0  0  0  0  0  0  0
   39.8604   25.4886    5.5729 O   0  0  0  0  0  0  0  0  0  0  0  0
   40.0720   26.6021    0.2531 C   0  0  0  0  0  0  0  0  0  0  0  0
   42.2630   27.7629    7.2835 O   0  0  0  0  0  0  0  0  0  0  0  0
   39.8824   27.2887    1.6692 C   0  0  1  0  0  0  0  0  0  0  0  0
   39.8234   29.1847    7.7093 O   0  0  0  0  0  0  0  0  0  0  0  0
   39.3067   26.3353    2.6673 C   0  0  2  0  0  0  0  0  0  0  0  0
   35.5194   25.1217    5.6477 O   0  0  0  0  0  0  0  0  0  0  0  0
   38.7816   26.4465    5.1485 C   0  0  1  0  0  0  0  0  0  0  0  0
   33.0884   24.5759    4.4419 O   0  0  0  0  0  0  0  0  0  0  0  0
   41.2201   26.1106    5.8611 C   0  0  2  0  0  0  0  0  0  0  0  0
   42.2128   25.0209    6.2490 C   0  0  0  0  0  0  0  0  0  0  0  0
   41.0373   27.1462    6.9946 C   0  0  2  0  0  0  0  0  0  0  0  0
   40.0125   28.1984    6.6048 C   0  0  1  0  0  0  0  0  0  0  0  0
   38.6810   27.4924    6.2885 C   0  0  1  0  0  0  0  0  0  0  0  0
   35.2713   25.6384    4.3905 C   0  0  2  0  0  0  0  0  0  0  0  0
   33.7722   25.7733    3.9712 C   0  0  1  0  0  0  0  0  0  0  0  0
  1  3  1  0  0  0  0
  4  1  1  1  0  0  0
  4  6  1  0  0  0  0
  4 31  1  0  0  0  0
  6  7  1  0  0  0  0
  7  9  1  6  0  0  0
  7 30  1  0  0  0  0
  8 26  1  0  0  0  0
 10  9  1  1  0  0  0
 10 13  1  0  0  0  0
 10 21  1  0  0  0  0
 13 12  1  6  0  0  0
 13 15  1  0  0  0  0
 15  2  1  6  0  0  0
 15 17  1  0  0  0  0
 16 25  1  0  0  0  0
 16 23  1  0  0  0  0
 17 19  1  0  0  0  0
 19  5  1  1  0  0  0
 19 21  1  0  0  0  0
 21 14  1  1  0  0  0
 23 14  1  6  0  0  0
 23 29  1  0  0  0  0
 25 26  1  1  0  0  0
 25 27  1  0  0  0  0
 27 18  1  6  0  0  0
 27 28  1  0  0  0  0
 28 20  1  1  0  0  0
 28 29  1  0  0  0  0
 29 11  1  6  0  0  0
 30 22  1  1  0  0  0
 30 31  1  0  0  0  0
 31 24  1  6  0  0  0
M  END
>  <CHROM.1>
51.12785295,34.38543090,-87.50687264,65.39791698,68.51549258,67.33035715
38.08261314,26.22861813,3.63891838,2.47256848,-0.11512531,-1.72643415

>  <Name>
ligand

>  <RI>
0

>  <Rbt.Current_Directory>
/home/itssahil/PROJECTS/Mol_Feturizer/New_Systems/rnas/2ET5

>  <Rbt.Executable>
rbdock ($Id: //depot/dev/client3/rdock/2013.1/src/exe/rbdock.cxx#4 $)

>  <Rbt.Library>
libRbt.so (2013.1, Build901 2013/11/27)

>  <Rbt.Parameter_File>
/export/apps/rDock/src/rDock_2013.1_src/data/scripts/dock_solv.prm

>  <Rbt.Receptor>
prm/pocket_docking_6.prm

>  <SCORE>
-7.80174

>  <SCORE.INTER>
-5.04283

>  <SCORE.INTER.CONST>
1

>  <SCORE.INTER.POLAR>
0

>  <SCORE.INTER.ROT>
6

>  <SCORE.INTER.SOLV>
11.2106

>  <SCORE.INTER.VDW>
-14.6988

>  <SCORE.INTER.norm>
-0.162672

>  <SCORE.INTRA>
-2.75891

>  <SCORE.INTRA.DIHEDRAL>
-4.29027

>  <SCORE.INTRA.DIHEDRAL.0>
11.2357

>  <SCORE.INTRA.POLAR>
0

>  <SCORE.INTRA.POLAR.0>
0

>  <SCORE.INTRA.REPUL>
0

>  <SCORE.INTRA.REPUL.0>
0

>  <SCORE.INTRA.SOLV>
-2.55777

>  <SCORE.INTRA.SOLV.lig_0>
-83.3092

>  <SCORE.INTRA.VDW>
0.665112

>  <SCORE.INTRA.VDW.0>
-4.47057

>  <SCORE.INTRA.norm>
-0.088997

>  <SCORE.RESTR>
0

>  <SCORE.RESTR.CAVITY>
0

>  <SCORE.RESTR.norm>
0

>  <SCORE.SYSTEM>
0

>  <SCORE.SYSTEM.CONST>
0

>  <SCORE.SYSTEM.DIHEDRAL>
0

>  <SCORE.SYSTEM.SOLV>
0

>  <SCORE.SYSTEM.norm>
0

>  <SCORE.heavy>
31

>  <SCORE.norm>
-0.251669

>  <RMSD>
6.451

$$$$
ligand
 OpenBabel11021811433D
libRbt.so/2013.1/901 2013/11/27
 31 33  0  0  0  0  0  0  0  0999 V2000
   42.1087   20.1199    1.8852 C   0  0  0  0  0  0  0  0  0  0  0  0
   41.0833   24.4209    5.6822 N   0  0  0  0  0  0  0  0  0  0  0  0
   41.6140   20.0509    0.5398 O   0  0  0  0  0  0  0  0  0  0  0  0
   43.6200   20.2641    1.7257 C   0  0  1  0  0  0  0  0  0  0  0  0
   39.3351   22.8101    1.2013 N   0  0  0  0  0  0  0  0  0  0  0  0
   44.0668   21.5104    0.9833 O   0  0  0  0  0  0  0  0  0  0  0  0
   44.6260   22.4660    1.7995 C   0  0  1  0  0  0  0  0  0  0  0  0
   46.1079   26.1767   -0.1447 N   0  0  0  0  0  0  0  0  0  0  0  0
   44.1661   23.7832    1.6773 O   0  0  0  0  0  0  0  0  0  0  0  0
   42.7878   24.2158    2.0883 C   0  0  2  0  0  0  0  0  0  0  0  0
   40.7989   23.3352   -2.7525 N   0  0  0  0  0  0  0  0  0  0  0  0
   43.6822   24.9618    4.2871 O   0  0  0  0  0  0  0  0  0  0  0  0
   42.6806   24.0947    3.6373 C   0  0  1  0  0  0  0  0  0  0  0  0
   41.7751   23.4259    0.0434 O   0  0  0  0  0  0  0  0  0  0  0  0
   41.2122   24.5337    4.1310 C   0  0  1  0  0  0  0  0  0  0  0  0
   42.4110   25.6934   -0.3014 O   0  0  0  0  0  0  0  0  0  0  0  0
   40.1576   23.5826    3.4144 C   0  0  0  0  0  0  0  0  0  0  0  0
   45.3931   25.0375   -2.4340 O   0  0  0  0  0  0  0  0  0  0  0  0
   40.3362   23.7234    1.8457 C   0  0  1  0  0  0  0  0  0  0  0  0
   43.3285   23.9976   -4.1105 O   0  0  0  0  0  0  0  0  0  0  0  0
   41.6947   23.2775    1.4071 C   0  0  2  0  0  0  0  0  0  0  0  0
   45.5994   22.3675    3.9749 O   0  0  0  0  0  0  0  0  0  0  0  0
   41.4724   24.6055   -0.7451 C   0  0  1  0  0  0  0  0  0  0  0  0
   45.8334   19.8819    2.7795 O   0  0  0  0  0  0  0  0  0  0  0  0
   43.8864   25.4514   -0.5903 C   0  0  2  0  0  0  0  0  0  0  0  0
   44.7127   26.6179   -0.0612 C   0  0  0  0  0  0  0  0  0  0  0  0
   44.0491   25.2833   -2.1186 C   0  0  2  0  0  0  0  0  0  0  0  0
   43.1847   24.1437   -2.6318 C   0  0  1  0  0  0  0  0  0  0  0  0
   41.7180   24.4382   -2.2667 C   0  0  1  0  0  0  0  0  0  0  0  0
   44.5503   21.8986    3.2076 C   0  0  2  0  0  0  0  0  0  0  0  0
   44.4717   20.3523    2.9974 C   0  0  1  0  0  0  0  0  0  0  0  0
  1  3  1  0  0  0  0
  4  1  1  1  0  0  0
  4  6  1  0  0  0  0
  4 31  1  0  0  0  0
  6  7  1  0  0  0  0
  7  9  1  1  0  0  0
  7 30  1  0  0  0  0
  8 26  1  0  0  0  0
 10  9  1  6  0  0  0
 10 13  1  0  0  0  0
 10 21  1  0  0  0  0
 13 12  1  1  0  0  0
 13 15  1  0  0  0  0
 15  2  1  1  0  0  0
 15 17  1  0  0  0  0
 16 25  1  0  0  0  0
 16 23  1  0  0  0  0
 17 19  1  0  0  0  0
 19  5  1  6  0  0  0
 19 21  1  0  0  0  0
 21 14  1  6  0  0  0
 23 14  1  1  0  0  0
 23 29  1  0  0  0  0
 25 26  1  6  0  0  0
 25 27  1  0  0  0  0
 27 18  1  1  0  0  0
 27 28  1  0  0  0  0
 28 20  1  6  0  0  0
 28 29  1  0  0  0  0
 29 11  1  1  0  0  0
 30 22  1  1  0  0  0
 30 31  1  0  0  0  0
 31 24  1  6  0  0  0
M  END
>  <CHROM.1>
61.34010416,68.79018056,67.11210640,61.32973797,-66.28870655,169.15915661
43.02230918,23.41820444,0.99222811,-1.60832375,0.30686343,-1.13504440

>  <Name>
ligand

>  <RI>
0

>  <Rbt.Current_Directory>
/home/itssahil/PROJECTS/Mol_Feturizer/New_Systems/rnas/2ET5

>  <Rbt.Executable>
rbdock ($Id: //depot/dev/client3/rdock/2013.1/src/exe/rbdock.cxx#4 $)

>  <Rbt.Library>
libRbt.so (2013.1, Build901 2013/11/27)

>  <Rbt.Parameter_File>
/export/apps/rDock/src/rDock_2013.1_src/data/scripts/dock_solv.prm

>  <Rbt.Receptor>
prm/pocket_docking_8.prm

>  <SCORE>
-9.64011

>  <SCORE.INTER>
-5.50354

>  <SCORE.INTER.CONST>
1

>  <SCORE.INTER.POLAR>
0

>  <SCORE.INTER.ROT>
6

>  <SCORE.INTER.SOLV>
18.6004

>  <SCORE.INTER.VDW>
-17.4692

>  <SCORE.INTER.norm>
-0.177533

>  <SCORE.INTRA>
-4.13657

>  <SCORE.INTRA.DIHEDRAL>
-9.86077

>  <SCORE.INTRA.DIHEDRAL.0>
11.2357

>  <SCORE.INTRA.POLAR>
0

>  <SCORE.INTRA.POLAR.0>
0

>  <SCORE.INTRA.REPUL>
0

>  <SCORE.INTRA.REPUL.0>
0

>  <SCORE.INTRA.SOLV>
0.416376

>  <SCORE.INTRA.SOLV.lig_0>
-83.3092

>  <SCORE.INTRA.VDW>
0.585627

>  <SCORE.INTRA.VDW.0>
-4.47057

>  <SCORE.INTRA.norm>
-0.133438

>  <SCORE.RESTR>
0

>  <SCORE.RESTR.CAVITY>
0

>  <SCORE.RESTR.norm>
0

>  <SCORE.SYSTEM>
0

>  <SCORE.SYSTEM.CONST>
0

>  <SCORE.SYSTEM.DIHEDRAL>
0

>  <SCORE.SYSTEM.SOLV>
0

>  <SCORE.SYSTEM.norm>
0

>  <SCORE.heavy>
31

>  <SCORE.norm>
-0.310971

>  <RMSD>
6.490

$$$$
ligand
 OpenBabel11021811433D
libRbt.so/2013.1/901 2013/11/27
 31 33  0  0  0  0  0  0  0  0999 V2000
   42.1234   20.5196    1.5225 C   0  0  0  0  0  0  0  0  0  0  0  0
   41.6418   24.0923   -3.8877 N   0  0  0  0  0  0  0  0  0  0  0  0
   42.8804   19.8561    2.5453 O   0  0  0  0  0  0  0  0  0  0  0  0
   42.1173   21.9857    1.9472 C   0  0  1  0  0  0  0  0  0  0  0  0
   39.1325   27.8259   -1.5441 N   0  0  0  0  0  0  0  0  0  0  0  0
   41.4503   22.9314    0.9650 O   0  0  0  0  0  0  0  0  0  0  0  0
   40.2222   23.3858    1.3864 C   0  0  1  0  0  0  0  0  0  0  0  0
   41.0767   27.6379    2.8382 N   0  0  0  0  0  0  0  0  0  0  0  0
   39.1514   23.3107    0.4869 O   0  0  0  0  0  0  0  0  0  0  0  0
   39.1120   24.0647   -0.8115 C   0  0  2  0  0  0  0  0  0  0  0  0
   35.1929   25.6225    1.0784 N   0  0  0  0  0  0  0  0  0  0  0  0
   40.3738   22.2248   -1.9134 O   0  0  0  0  0  0  0  0  0  0  0  0
   40.3719   23.6749   -1.6399 C   0  0  1  0  0  0  0  0  0  0  0  0
   37.9896   25.9677    0.1632 O   0  0  0  0  0  0  0  0  0  0  0  0
   40.3868   24.4695   -3.0402 C   0  0  1  0  0  0  0  0  0  0  0  0
   38.6631   26.1467    2.4390 O   0  0  0  0  0  0  0  0  0  0  0  0
   40.3842   26.0259   -2.7121 C   0  0  0  0  0  0  0  0  0  0  0  0
   37.3336   29.5687    3.0660 O   0  0  0  0  0  0  0  0  0  0  0  0
   39.1007   26.3557   -1.8424 C   0  0  1  0  0  0  0  0  0  0  0  0
   34.9030   28.1664    2.5365 O   0  0  0  0  0  0  0  0  0  0  0  0
   39.1263   25.6336   -0.5330 C   0  0  2  0  0  0  0  0  0  0  0  0
   39.1954   23.5158    3.5354 O   0  0  0  0  0  0  0  0  0  0  0  0
   37.6233   25.5797    1.5122 C   0  0  1  0  0  0  0  0  0  0  0  0
   41.9444   23.5612    3.8561 O   0  0  0  0  0  0  0  0  0  0  0  0
   38.7196   27.6663    2.5175 C   0  0  2  0  0  0  0  0  0  0  0  0
   39.8332   28.0916    3.4675 C   0  0  0  0  0  0  0  0  0  0  0  0
   37.3378   28.1683    2.9965 C   0  0  2  0  0  0  0  0  0  0  0  0
   36.2377   27.6974    2.0599 C   0  0  1  0  0  0  0  0  0  0  0  0
   36.2704   26.1590    1.9995 C   0  0  1  0  0  0  0  0  0  0  0  0
   39.9715   22.7099    2.7247 C   0  0  2  0  0  0  0  0  0  0  0  0
   41.3989   22.3533    3.2508 C   0  0  1  0  0  0  0  0  0  0  0  0
  1  3  1  0  0  0  0
  4  1  1  6  0  0  0
  4  6  1  0  0  0  0
  4 31  1  0  0  0  0
  6  7  1  0  0  0  0
  7  9  1  6  0  0  0
  7 30  1  0  0  0  0
  8 26  1  0  0  0  0
 10  9  1  1  0  0  0
 10 13  1  0  0  0  0
 10 21  1  0  0  0  0
 13 12  1  6  0  0  0
 13 15  1  0  0  0  0
 15  2  1  1  0  0  0
 15 17  1  0  0  0  0
 16 25  1  0  0  0  0
 16 23  1  0  0  0  0
 17 19  1  0  0  0  0
 19  5  1  1  0  0  0
 19 21  1  0  0  0  0
 21 14  1  1  0  0  0
 23 14  1  6  0  0  0
 23 29  1  0  0  0  0
 25 26  1  1  0  0  0
 25 27  1  0  0  0  0
 27 18  1  6  0  0  0
 27 28  1  0  0  0  0
 28 20  1  1  0  0  0
 28 29  1  0  0  0  0
 29 11  1  6  0  0  0
 30 22  1  1  0  0  0
 30 31  1  0  0  0  0
 31 24  1  6  0  0  0
M  END
>  <CHROM.1>
175.92576706,-63.27619023,56.78281530,62.20521014,66.30751282,64.58848604
39.40349537,24.97770624,1.03708372,-0.12100760,-0.91602536,1.65246196

>  <Name>
ligand

>  <RI>
0

>  <Rbt.Current_Directory>
/home/itssahil/PROJECTS/Mol_Feturizer/New_Systems/rnas/2ET5

>  <Rbt.Executable>
rbdock ($Id: //depot/dev/client3/rdock/2013.1/src/exe/rbdock.cxx#4 $)

>  <Rbt.Library>
libRbt.so (2013.1, Build901 2013/11/27)

>  <Rbt.Parameter_File>
/export/apps/rDock/src/rDock_2013.1_src/data/scripts/dock_solv.prm

>  <Rbt.Receptor>
prm/pocket_docking_6.prm

>  <SCORE>
-5.69849

>  <SCORE.INTER>
0.779799

>  <SCORE.INTER.CONST>
1

>  <SCORE.INTER.POLAR>
0

>  <SCORE.INTER.ROT>
6

>  <SCORE.INTER.SOLV>
11.2889

>  <SCORE.INTER.VDW>
-10.8431

>  <SCORE.INTER.norm>
0.0251548

>  <SCORE.INTRA>
-6.47829

>  <SCORE.INTRA.DIHEDRAL>
-10.6377

>  <SCORE.INTRA.DIHEDRAL.0>
11.2357

>  <SCORE.INTRA.POLAR>
0

>  <SCORE.INTRA.POLAR.0>
0

>  <SCORE.INTRA.REPUL>
0

>  <SCORE.INTRA.REPUL.0>
0

>  <SCORE.INTRA.SOLV>
-3.52903

>  <SCORE.INTRA.SOLV.lig_0>
-83.3092

>  <SCORE.INTRA.VDW>
0.605094

>  <SCORE.INTRA.VDW.0>
-4.47057

>  <SCORE.INTRA.norm>
-0.208977

>  <SCORE.RESTR>
0

>  <SCORE.RESTR.CAVITY>
0

>  <SCORE.RESTR.norm>
0

>  <SCORE.SYSTEM>
0

>  <SCORE.SYSTEM.CONST>
0

>  <SCORE.SYSTEM.DIHEDRAL>
0

>  <SCORE.SYSTEM.SOLV>
0

>  <SCORE.SYSTEM.norm>
0

>  <SCORE.heavy>
31

>  <SCORE.norm>
-0.183822

>  <RMSD>
6.509

$$$$
ligand
 OpenBabel11021811433D
libRbt.so/2013.1/901 2013/11/27
 31 33  0  0  0  0  0  0  0  0999 V2000
   37.2399   27.4879   -0.9223 C   0  0  0  0  0  0  0  0  0  0  0  0
   37.4807   28.2572    7.4625 N   0  0  0  0  0  0  0  0  0  0  0  0
   37.0390   28.0992   -2.2051 O   0  0  0  0  0  0  0  0  0  0  0  0
   37.2073   28.6543    0.0619 C   0  0  1  0  0  0  0  0  0  0  0  0
   40.2150   24.1740    6.2057 N   0  0  0  0  0  0  0  0  0  0  0  0
   37.3685   28.2631    1.5197 O   0  0  0  0  0  0  0  0  0  0  0  0
   38.5986   28.5869    2.0432 C   0  0  1  0  0  0  0  0  0  0  0  0
   44.9678   24.7587    2.6776 N   0  0  0  0  0  0  0  0  0  0  0  0
   39.2928   27.5953    2.7478 O   0  0  0  0  0  0  0  0  0  0  0  0
   38.7224   26.8786    3.9381 C   0  0  2  0  0  0  0  0  0  0  0  0
   39.3911   23.5439    0.9651 N   0  0  0  0  0  0  0  0  0  0  0  0
   37.4244   28.9152    4.5372 O   0  0  0  0  0  0  0  0  0  0  0  0
   38.4072   27.9350    5.0382 C   0  0  1  0  0  0  0  0  0  0  0  0
   40.0165   24.8803    3.5344 O   0  0  0  0  0  0  0  0  0  0  0  0
   37.8052   27.2154    6.3468 C   0  0  1  0  0  0  0  0  0  0  0  0
   42.2544   25.1787    2.7808 O   0  0  0  0  0  0  0  0  0  0  0  0
   38.8854   26.1673    6.8614 C   0  0  0  0  0  0  0  0  0  0  0  0
   43.3590   21.6402    3.1417 O   0  0  0  0  0  0  0  0  0  0  0  0
   39.1894   25.1414    5.6919 C   0  0  1  0  0  0  0  0  0  0  0  0
   41.3430   21.3436    1.1412 O   0  0  0  0  0  0  0  0  0  0  0  0
   39.7795   25.8275    4.5012 C   0  0  2  0  0  0  0  0  0  0  0  0
   40.2800   30.1439    1.3813 O   0  0  0  0  0  0  0  0  0  0  0  0
   40.8272   25.0099    2.3382 C   0  0  1  0  0  0  0  0  0  0  0  0
   37.8291   31.0255    0.4443 O   0  0  0  0  0  0  0  0  0  0  0  0
   42.8717   23.9814    3.4910 C   0  0  2  0  0  0  0  0  0  0  0  0
   44.3021   24.3088    3.9035 C   0  0  0  0  0  0  0  0  0  0  0  0
   42.8180   22.7766    2.5235 C   0  0  2  0  0  0  0  0  0  0  0  0
   41.3888   22.4943    2.0912 C   0  0  1  0  0  0  0  0  0  0  0  0
   40.8202   23.7593    1.4220 C   0  0  1  0  0  0  0  0  0  0  0  0
   39.3797   29.2130    0.8994 C   0  0  2  0  0  0  0  0  0  0  0  0
   38.2795   29.7413   -0.0762 C   0  0  1  0  0  0  0  0  0  0  0  0
  1  3  1  0  0  0  0
  4  1  1  6  0  0  0
  4  6  1  0  0  0  0
  4 31  1  0  0  0  0
  6  7  1  0  0  0  0
  7  9  1  6  0  0  0
  7 30  1  0  0  0  0
  8 26  1  0  0  0  0
 10  9  1  6  0  0  0
 10 13  1  0  0  0  0
 10 21  1  0  0  0  0
 13 12  1  6  0  0  0
 13 15  1  0  0  0  0
 15  2  1  1  0  0  0
 15 17  1  0  0  0  0
 16 25  1  0  0  0  0
 16 23  1  0  0  0  0
 17 19  1  0  0  0  0
 19  5  1  1  0  0  0
 19 21  1  0  0  0  0
 21 14  1  6  0  0  0
 23 14  1  1  0  0  0
 23 29  1  0  0  0  0
 25 26  1  6  0  0  0
 25 27  1  0  0  0  0
 27 18  1  1  0  0  0
 27 28  1  0  0  0  0
 28 20  1  6  0  0  0
 28 29  1  0  0  0  0
 29 11  1  1  0  0  0
 30 22  1  1  0  0  0
 30 31  1  0  0  0  0
 31 24  1  1  0  0  0
M  END
>  <CHROM.1>
178.66975625,-56.58291571,-60.02485287,66.20559783,76.31341082,-53.70709866
39.82568553,26.24743152,2.74700707,-2.82595569,-0.89481589,1.67171522

>  <Name>
ligand

>  <RI>
0

>  <Rbt.Current_Directory>
/home/itssahil/PROJECTS/Mol_Feturizer/New_Systems/rnas/2ET5

>  <Rbt.Executable>
rbdock ($Id: //depot/dev/client3/rdock/2013.1/src/exe/rbdock.cxx#4 $)

>  <Rbt.Library>
libRbt.so (2013.1, Build901 2013/11/27)

>  <Rbt.Parameter_File>
/export/apps/rDock/src/rDock_2013.1_src/data/scripts/dock_solv.prm

>  <Rbt.Receptor>
prm/pocket_docking_7.prm

>  <SCORE>
-5.38699

>  <SCORE.INTER>
-1.29864

>  <SCORE.INTER.CONST>
1

>  <SCORE.INTER.POLAR>
0

>  <SCORE.INTER.ROT>
6

>  <SCORE.INTER.SOLV>
13.3816

>  <SCORE.INTER.VDW>
-12.9263

>  <SCORE.INTER.norm>
-0.0418916

>  <SCORE.INTRA>
-4.08835

>  <SCORE.INTRA.DIHEDRAL>
-9.47074

>  <SCORE.INTRA.DIHEDRAL.0>
11.2357

>  <SCORE.INTRA.POLAR>
0

>  <SCORE.INTRA.POLAR.0>
0

>  <SCORE.INTRA.REPUL>
0

>  <SCORE.INTRA.REPUL.0>
0

>  <SCORE.INTRA.SOLV>
-2.49406

>  <SCORE.INTRA.SOLV.lig_0>
-83.3092

>  <SCORE.INTRA.VDW>
1.89405

>  <SCORE.INTRA.VDW.0>
-4.47057

>  <SCORE.INTRA.norm>
-0.131882

>  <SCORE.RESTR>
0

>  <SCORE.RESTR.CAVITY>
0

>  <SCORE.RESTR.norm>
0

>  <SCORE.SYSTEM>
0

>  <SCORE.SYSTEM.CONST>
0

>  <SCORE.SYSTEM.DIHEDRAL>
0

>  <SCORE.SYSTEM.SOLV>
0

>  <SCORE.SYSTEM.norm>
0

>  <SCORE.heavy>
31

>  <SCORE.norm>
-0.173774

>  <RMSD>
6.509

$$$$
ligand
 OpenBabel11021811433D
libRbt.so/2013.1/901 2013/11/27
 31 33  0  0  0  0  0  0  0  0999 V2000
   42.1785   21.2250   -0.4102 C   0  0  0  0  0  0  0  0  0  0  0  0
   39.2357   26.2397   -3.3342 N   0  0  0  0  0  0  0  0  0  0  0  0
   42.3133   21.7758   -1.7286 O   0  0  0  0  0  0  0  0  0  0  0  0
   42.2402   22.4378    0.5147 C   0  0  1  0  0  0  0  0  0  0  0  0
   37.4209   28.1690    0.9917 N   0  0  0  0  0  0  0  0  0  0  0  0
   41.1417   23.4624    0.2968 O   0  0  0  0  0  0  0  0  0  0  0  0
   40.1844   23.4610    1.2845 C   0  0  1  0  0  0  0  0  0  0  0  0
   40.5092   25.4074    6.0121 N   0  0  0  0  0  0  0  0  0  0  0  0
   38.8398   23.4266    0.8942 O   0  0  0  0  0  0  0  0  0  0  0  0
   38.1841   24.5208    0.1014 C   0  0  2  0  0  0  0  0  0  0  0  0
   35.1226   24.4116    3.6569 N   0  0  0  0  0  0  0  0  0  0  0  0
   39.1226   23.5598   -1.9932 O   0  0  0  0  0  0  0  0  0  0  0  0
   39.0431   24.7826   -1.1710 C   0  0  1  0  0  0  0  0  0  0  0  0
   37.3126   25.6186    2.0677 O   0  0  0  0  0  0  0  0  0  0  0  0
   38.3904   25.9617   -2.0522 C   0  0  1  0  0  0  0  0  0  0  0  0
   38.8420   24.9778    3.7751 O   0  0  0  0  0  0  0  0  0  0  0  0
   38.3185   27.2628   -1.1400 C   0  0  0  0  0  0  0  0  0  0  0  0
   37.8444   27.5306    6.2968 O   0  0  0  0  0  0  0  0  0  0  0  0
   37.4625   26.9268    0.1511 C   0  0  1  0  0  0  0  0  0  0  0  0
   35.4192   26.0364    6.0970 O   0  0  0  0  0  0  0  0  0  0  0  0
   38.1059   25.8540    0.9707 C   0  0  2  0  0  0  0  0  0  0  0  0
   40.1795   22.6622    3.5320 O   0  0  0  0  0  0  0  0  0  0  0  0
   37.5228   24.6533    3.1301 C   0  0  1  0  0  0  0  0  0  0  0  0
   42.7843   23.2432    2.7974 O   0  0  0  0  0  0  0  0  0  0  0  0
   38.9110   26.3144    4.5012 C   0  0  2  0  0  0  0  0  0  0  0  0
   40.3085   26.5167    5.0755 C   0  0  0  0  0  0  0  0  0  0  0  0
   37.8335   26.3081    5.6101 C   0  0  2  0  0  0  0  0  0  0  0  0
   36.4543   26.0623    5.0215 C   0  0  1  0  0  0  0  0  0  0  0  0
   36.4743   24.7182    4.2702 C   0  0  1  0  0  0  0  0  0  0  0  0
   40.5907   22.3581    2.2484 C   0  0  2  0  0  0  0  0  0  0  0  0
   42.1286   22.1965    2.0245 C   0  0  1  0  0  0  0  0  0  0  0  0
  1  3  1  0  0  0  0
  4  1  1  6  0  0  0
  4  6  1  0  0  0  0
  4 31  1  0  0  0  0
  6  7  1  0  0  0  0
  7  9  1  6  0  0  0
  7 30  1  0  0  0  0
  8 26  1  0  0  0  0
 10  9  1  1  0  0  0
 10 13  1  0  0  0  0
 10 21  1  0  0  0  0
 13 12  1  6  0  0  0
 13 15  1  0  0  0  0
 15  2  1  6  0  0  0
 15 17  1  0  0  0  0
 16 25  1  0  0  0  0
 16 23  1  0  0  0  0
 17 19  1  0  0  0  0
 19  5  1  1  0  0  0
 19 21  1  0  0  0  0
 21 14  1  1  0  0  0
 23 14  1  6  0  0  0
 23 29  1  0  0  0  0
 25 26  1  1  0  0  0
 25 27  1  0  0  0  0
 27 18  1  6  0  0  0
 27 28  1  0  0  0  0
 28 20  1  1  0  0  0
 28 29  1  0  0  0  0
 29 11  1  6  0  0  0
 30 22  1  1  0  0  0
 30 31  1  0  0  0  0
 31 24  1  1  0  0  0
M  END
>  <CHROM.1>
60.93855228,-63.24225891,53.03170042,59.33045934,61.06612525,-60.75750604
39.06805769,24.75279272,1.93246822,-0.89255558,-0.70636382,1.59470968

>  <Name>
ligand

>  <RI>
0

>  <Rbt.Current_Directory>
/home/itssahil/PROJECTS/Mol_Feturizer/New_Systems/rnas/2ET5

>  <Rbt.Executable>
rbdock ($Id: //depot/dev/client3/rdock/2013.1/src/exe/rbdock.cxx#4 $)

>  <Rbt.Library>
libRbt.so (2013.1, Build901 2013/11/27)

>  <Rbt.Parameter_File>
/export/apps/rDock/src/rDock_2013.1_src/data/scripts/dock_solv.prm

>  <Rbt.Receptor>
prm/pocket_docking_4.prm

>  <SCORE>
-4.84679

>  <SCORE.INTER>
0.424263

>  <SCORE.INTER.CONST>
1

>  <SCORE.INTER.POLAR>
0

>  <SCORE.INTER.ROT>
6

>  <SCORE.INTER.SOLV>
11.4375

>  <SCORE.INTER.VDW>
-11.1297

>  <SCORE.INTER.norm>
0.0136859

>  <SCORE.INTRA>
-5.27106

>  <SCORE.INTRA.DIHEDRAL>
-10.7925

>  <SCORE.INTRA.DIHEDRAL.0>
11.2357

>  <SCORE.INTRA.POLAR>
0

>  <SCORE.INTRA.POLAR.0>
0

>  <SCORE.INTRA.REPUL>
0

>  <SCORE.INTRA.REPUL.0>
0

>  <SCORE.INTRA.SOLV>
-1.36586

>  <SCORE.INTRA.SOLV.lig_0>
-83.3092

>  <SCORE.INTRA.VDW>
0.808142

>  <SCORE.INTRA.VDW.0>
-4.47057

>  <SCORE.INTRA.norm>
-0.170034

>  <SCORE.RESTR>
0

>  <SCORE.RESTR.CAVITY>
0

>  <SCORE.RESTR.norm>
0

>  <SCORE.SYSTEM>
0

>  <SCORE.SYSTEM.CONST>
0

>  <SCORE.SYSTEM.DIHEDRAL>
0

>  <SCORE.SYSTEM.SOLV>
0

>  <SCORE.SYSTEM.norm>
0

>  <SCORE.heavy>
31

>  <SCORE.norm>
-0.156348

>  <RMSD>
6.512

$$$$
ligand
 OpenBabel11021811433D
libRbt.so/2013.1/901 2013/11/27
 31 33  0  0  0  0  0  0  0  0999 V2000
   44.7202   22.6302    3.5588 C   0  0  0  0  0  0  0  0  0  0  0  0
   42.4098   21.7547   -2.1159 N   0  0  0  0  0  0  0  0  0  0  0  0
   45.3948   22.4463    2.3054 O   0  0  0  0  0  0  0  0  0  0  0  0
   43.9113   23.9107    3.3688 C   0  0  1  0  0  0  0  0  0  0  0  0
   38.4903   24.8877   -1.3739 N   0  0  0  0  0  0  0  0  0  0  0  0
   42.7724   23.8033    2.3711 O   0  0  0  0  0  0  0  0  0  0  0  0
   41.5286   23.7705    2.9577 C   0  0  1  0  0  0  0  0  0  0  0  0
   37.4493   28.9178    0.0187 N   0  0  0  0  0  0  0  0  0  0  0  0
   40.6383   22.7686    2.5515 O   0  0  0  0  0  0  0  0  0  0  0  0
   40.2322   22.5583    1.1208 C   0  0  2  0  0  0  0  0  0  0  0  0
   36.3961   23.3310    3.3519 N   0  0  0  0  0  0  0  0  0  0  0  0
   42.1869   21.0542    0.7915 O   0  0  0  0  0  0  0  0  0  0  0  0
   41.5155   22.2678    0.2876 C   0  0  1  0  0  0  0  0  0  0  0  0
   38.3696   24.0872    1.2754 O   0  0  0  0  0  0  0  0  0  0  0  0
   41.1370   22.0487   -1.2620 C   0  0  1  0  0  0  0  0  0  0  0  0
   38.5704   26.2214    2.3099 O   0  0  0  0  0  0  0  0  0  0  0  0
   40.4165   23.3710   -1.7745 C   0  0  0  0  0  0  0  0  0  0  0  0
   35.2955   27.6041    1.1990 O   0  0  0  0  0  0  0  0  0  0  0  0
   39.1408   23.6326   -0.8707 C   0  0  1  0  0  0  0  0  0  0  0  0
   34.4064   25.4431    2.8402 O   0  0  0  0  0  0  0  0  0  0  0  0
   39.5200   23.8674    0.5568 C   0  0  2  0  0  0  0  0  0  0  0  0
   40.7316   24.4515    5.1002 O   0  0  0  0  0  0  0  0  0  0  0  0
   38.2284   24.7759    2.5445 C   0  0  1  0  0  0  0  0  0  0  0  0
   42.9875   25.9293    4.4766 O   0  0  0  0  0  0  0  0  0  0  0  0
   37.6233   26.9839    1.3932 C   0  0  2  0  0  0  0  0  0  0  0  0
   38.1111   28.4185    1.2274 C   0  0  0  0  0  0  0  0  0  0  0  0
   36.2108   26.9299    2.0198 C   0  0  2  0  0  0  0  0  0  0  0  0
   35.7616   25.4916    2.2162 C   0  0  1  0  0  0  0  0  0  0  0  0
   36.7870   24.7762    3.1153 C   0  0  1  0  0  0  0  0  0  0  0  0
   41.7798   23.8227    4.4560 C   0  0  2  0  0  0  0  0  0  0  0  0
   43.1862   24.4903    4.5889 C   0  0  1  0  0  0  0  0  0  0  0  0
  1  3  1  0  0  0  0
  4  1  1  1  0  0  0
  4  6  1  0  0  0  0
  4 31  1  0  0  0  0
  6  7  1  0  0  0  0
  7  9  1  1  0  0  0
  7 30  1  0  0  0  0
  8 26  1  0  0  0  0
 10  9  1  1  0  0  0
 10 13  1  0  0  0  0
 10 21  1  0  0  0  0
 13 12  1  1  0  0  0
 13 15  1  0  0  0  0
 15  2  1  6  0  0  0
 15 17  1  0  0  0  0
 16 25  1  0  0  0  0
 16 23  1  0  0  0  0
 17 19  1  0  0  0  0
 19  5  1  6  0  0  0
 19 21  1  0  0  0  0
 21 14  1  1  0  0  0
 23 14  1  6  0  0  0
 23 29  1  0  0  0  0
 25 26  1  1  0  0  0
 25 27  1  0  0  0  0
 27 18  1  6  0  0  0
 27 28  1  0  0  0  0
 28 20  1  1  0  0  0
 28 29  1  0  0  0  0
 29 11  1  6  0  0  0
 30 22  1  1  0  0  0
 30 31  1  0  0  0  0
 31 24  1  6  0  0  0
M  END
>  <CHROM.1>
67.63861851,-55.82677681,59.19300017,66.41034640,84.37482381,161.02457413
39.88387566,24.40576807,1.79168952,-0.13283920,-0.46799937,1.12899021

>  <Name>
ligand

>  <RI>
0

>  <Rbt.Current_Directory>
/home/itssahil/PROJECTS/Mol_Feturizer/New_Systems/rnas/2ET5

>  <Rbt.Executable>
rbdock ($Id: //depot/dev/client3/rdock/2013.1/src/exe/rbdock.cxx#4 $)

>  <Rbt.Library>
libRbt.so (2013.1, Build901 2013/11/27)

>  <Rbt.Parameter_File>
/export/apps/rDock/src/rDock_2013.1_src/data/scripts/dock_solv.prm

>  <Rbt.Receptor>
prm/pocket_docking_4.prm

>  <SCORE>
-7.04021

>  <SCORE.INTER>
-3.22641

>  <SCORE.INTER.CONST>
1

>  <SCORE.INTER.POLAR>
0

>  <SCORE.INTER.ROT>
6

>  <SCORE.INTER.SOLV>
21.0758

>  <SCORE.INTER.VDW>
-16.7762

>  <SCORE.INTER.norm>
-0.104078

>  <SCORE.INTRA>
-3.81794

>  <SCORE.INTRA.DIHEDRAL>
-6.8552

>  <SCORE.INTRA.DIHEDRAL.0>
11.2357

>  <SCORE.INTRA.POLAR>
0

>  <SCORE.INTRA.POLAR.0>
0

>  <SCORE.INTRA.REPUL>
0

>  <SCORE.INTRA.REPUL.0>
0

>  <SCORE.INTRA.SOLV>
-2.13409

>  <SCORE.INTRA.SOLV.lig_0>
-83.3092

>  <SCORE.INTRA.VDW>
0.676709

>  <SCORE.INTRA.VDW.0>
-4.47057

>  <SCORE.INTRA.norm>
-0.123159

>  <SCORE.RESTR>
0.00413728

>  <SCORE.RESTR.CAVITY>
0.00413728

>  <SCORE.RESTR.norm>
0.000133461

>  <SCORE.SYSTEM>
0

>  <SCORE.SYSTEM.CONST>
0

>  <SCORE.SYSTEM.DIHEDRAL>
0

>  <SCORE.SYSTEM.SOLV>
0

>  <SCORE.SYSTEM.norm>
0

>  <SCORE.heavy>
31

>  <SCORE.norm>
-0.227104

>  <RMSD>
6.528

$$$$
ligand
 OpenBabel11021811433D
libRbt.so/2013.1/901 2013/11/27
 31 33  0  0  0  0  0  0  0  0999 V2000
   42.1608   22.8856   -2.0384 C   0  0  0  0  0  0  0  0  0  0  0  0
   45.7507   19.5640    2.0702 N   0  0  0  0  0  0  0  0  0  0  0  0
   41.9362   23.7729   -3.1438 O   0  0  0  0  0  0  0  0  0  0  0  0
   40.7610   22.5615   -1.5229 C   0  0  1  0  0  0  0  0  0  0  0  0
   44.9766   23.9831    4.4369 N   0  0  0  0  0  0  0  0  0  0  0  0
   40.7201   21.5942   -0.3538 O   0  0  0  0  0  0  0  0  0  0  0  0
   40.4139   22.1938    0.8457 C   0  0  1  0  0  0  0  0  0  0  0  0
   45.9747   26.7144    1.9303 N   0  0  0  0  0  0  0  0  0  0  0  0
   41.2317   21.9120    1.9471 O   0  0  0  0  0  0  0  0  0  0  0  0
   42.7161   22.1409    1.9508 C   0  0  2  0  0  0  0  0  0  0  0  0
   40.1705   25.4209    4.4796 N   0  0  0  0  0  0  0  0  0  0  0  0
   43.0525   19.9502    0.8198 O   0  0  0  0  0  0  0  0  0  0  0  0
   43.4230   20.7541    2.0005 C   0  0  1  0  0  0  0  0  0  0  0  0
   42.5351   24.2283    3.1512 O   0  0  0  0  0  0  0  0  0  0  0  0
   45.0219   20.9431    2.0216 C   0  0  1  0  0  0  0  0  0  0  0  0
   43.7759   26.1810    3.7105 O   0  0  0  0  0  0  0  0  0  0  0  0
   45.3884   21.8116    3.3029 C   0  0  0  0  0  0  0  0  0  0  0  0
   42.2167   28.4707    1.2212 O   0  0  0  0  0  0  0  0  0  0  0  0
   44.6164   23.1931    3.2131 C   0  0  1  0  0  0  0  0  0  0  0  0
   39.9483   27.8628    2.8458 O   0  0  0  0  0  0  0  0  0  0  0  0
   43.1343   22.9942    3.2300 C   0  0  2  0  0  0  0  0  0  0  0  0
   39.3477   24.2545    1.3990 O   0  0  0  0  0  0  0  0  0  0  0  0
   42.6090   25.3185    4.1056 C   0  0  1  0  0  0  0  0  0  0  0  0
   38.4811   23.4451   -1.1022 O   0  0  0  0  0  0  0  0  0  0  0  0
   43.6445   26.8977    2.3735 C   0  0  2  0  0  0  0  0  0  0  0  0
   44.9073   27.7051    2.0960 C   0  0  0  0  0  0  0  0  0  0  0  0
   42.3921   27.8019    2.4411 C   0  0  2  0  0  0  0  0  0  0  0  0
   41.1521   26.9840    2.7610 C   0  0  1  0  0  0  0  0  0  0  0  0
   41.3758   26.2580    4.1005 C   0  0  1  0  0  0  0  0  0  0  0  0
   40.2581   23.6739    0.5369 C   0  0  2  0  0  0  0  0  0  0  0  0
   39.9079   23.7163   -0.9853 C   0  0  1  0  0  0  0  0  0  0  0  0
  1  3  1  0  0  0  0
  4  1  1  1  0  0  0
  4  6  1  0  0  0  0
  4 31  1  0  0  0  0
  6  7  1  0  0  0  0
  7  9  1  1  0  0  0
  7 30  1  0  0  0  0
  8 26  1  0  0  0  0
 10  9  1  1  0  0  0
 10 13  1  0  0  0  0
 10 21  1  0  0  0  0
 13 12  1  6  0  0  0
 13 15  1  0  0  0  0
 15  2  1  1  0  0  0
 15 17  1  0  0  0  0
 16 25  1  0  0  0  0
 16 23  1  0  0  0  0
 17 19  1  0  0  0  0
 19  5  1  1  0  0  0
 19 21  1  0  0  0  0
 21 14  1  6  0  0  0
 23 14  1  6  0  0  0
 23 29  1  0  0  0  0
 25 26  1  1  0  0  0
 25 27  1  0  0  0  0
 27 18  1  6  0  0  0
 27 28  1  0  0  0  0
 28 20  1  1  0  0  0
 28 29  1  0  0  0  0
 29 11  1  6  0  0  0
 30 22  1  1  0  0  0
 30 31  1  0  0  0  0
 31 24  1  1  0  0  0
M  END
>  <CHROM.1>
178.52177031,56.47128570,-112.01344030,90.66955068,178.57018548,65.83126835
42.34372751,24.04663083,1.69953807,1.67955914,0.64850660,-2.73207548

>  <Name>
ligand

>  <RI>
0

>  <Rbt.Current_Directory>
/home/itssahil/PROJECTS/Mol_Feturizer/New_Systems/rnas/2ET5

>  <Rbt.Executable>
rbdock ($Id: //depot/dev/client3/rdock/2013.1/src/exe/rbdock.cxx#4 $)

>  <Rbt.Library>
libRbt.so (2013.1, Build901 2013/11/27)

>  <Rbt.Parameter_File>
/export/apps/rDock/src/rDock_2013.1_src/data/scripts/dock_solv.prm

>  <Rbt.Receptor>
prm/pocket_docking_6.prm

>  <SCORE>
-4.37289

>  <SCORE.INTER>
-5.23197

>  <SCORE.INTER.CONST>
1

>  <SCORE.INTER.POLAR>
0

>  <SCORE.INTER.ROT>
6

>  <SCORE.INTER.SOLV>
15.9009

>  <SCORE.INTER.VDW>
-16.3883

>  <SCORE.INTER.norm>
-0.168773

>  <SCORE.INTRA>
0.859077

>  <SCORE.INTRA.DIHEDRAL>
-0.313951

>  <SCORE.INTRA.DIHEDRAL.0>
11.2357

>  <SCORE.INTRA.POLAR>
0

>  <SCORE.INTRA.POLAR.0>
0

>  <SCORE.INTRA.REPUL>
0

>  <SCORE.INTRA.REPUL.0>
0

>  <SCORE.INTRA.SOLV>
0.464089

>  <SCORE.INTRA.SOLV.lig_0>
-83.3092

>  <SCORE.INTRA.VDW>
0.784007

>  <SCORE.INTRA.VDW.0>
-4.47057

>  <SCORE.INTRA.norm>
0.0277121

>  <SCORE.RESTR>
0

>  <SCORE.RESTR.CAVITY>
0

>  <SCORE.RESTR.norm>
0

>  <SCORE.SYSTEM>
0

>  <SCORE.SYSTEM.CONST>
0

>  <SCORE.SYSTEM.DIHEDRAL>
0

>  <SCORE.SYSTEM.SOLV>
0

>  <SCORE.SYSTEM.norm>
0

>  <SCORE.heavy>
31

>  <SCORE.norm>
-0.141061

>  <RMSD>
6.532

$$$$
ligand
 OpenBabel11021811433D
libRbt.so/2013.1/901 2013/11/27
 31 33  0  0  0  0  0  0  0  0999 V2000
   43.6878   24.7419    0.0434 C   0  0  0  0  0  0  0  0  0  0  0  0
   44.0659   19.4041    0.3102 N   0  0  0  0  0  0  0  0  0  0  0  0
   42.5631   25.4458   -0.5034 O   0  0  0  0  0  0  0  0  0  0  0  0
   43.8189   25.2838    1.4644 C   0  0  1  0  0  0  0  0  0  0  0  0
   40.3891   22.5787   -1.1495 N   0  0  0  0  0  0  0  0  0  0  0  0
   42.6696   24.9295    2.3905 O   0  0  0  0  0  0  0  0  0  0  0  0
   42.9914   23.9733    3.3255 C   0  0  1  0  0  0  0  0  0  0  0  0
   39.2932   28.1347   -0.0667 N   0  0  0  0  0  0  0  0  0  0  0  0
   42.1210   22.8868    3.4784 O   0  0  0  0  0  0  0  0  0  0  0  0
   41.7815   21.9401    2.3629 C   0  0  2  0  0  0  0  0  0  0  0  0
   38.3085   23.7507    3.8502 N   0  0  0  0  0  0  0  0  0  0  0  0
   43.6178   20.4280    3.0930 O   0  0  0  0  0  0  0  0  0  0  0  0
   43.0815   21.1893    1.9483 C   0  0  1  0  0  0  0  0  0  0  0  0
   40.0490   23.3733    1.4823 O   0  0  0  0  0  0  0  0  0  0  0  0
   42.7755   20.1688    0.7410 C   0  0  1  0  0  0  0  0  0  0  0  0
   40.0374   25.7310    1.1563 O   0  0  0  0  0  0  0  0  0  0  0  0
   42.2000   21.0179   -0.4748 C   0  0  0  0  0  0  0  0  0  0  0  0
   36.5561   26.0207   -0.1350 O   0  0  0  0  0  0  0  0  0  0  0  0
   40.9012   21.7833    0.0151 C   0  0  1  0  0  0  0  0  0  0  0  0
   36.0421   25.0720    2.5089 O   0  0  0  0  0  0  0  0  0  0  0  0
   41.2161   22.7496    1.1122 C   0  0  2  0  0  0  0  0  0  0  0  0
   45.0713   23.2072    4.2068 O   0  0  0  0  0  0  0  0  0  0  0  0
   39.8946   24.6369    2.1781 C   0  0  1  0  0  0  0  0  0  0  0  0
   45.3840   25.8094    3.3164 O   0  0  0  0  0  0  0  0  0  0  0  0
   38.9508   25.7857    0.0910 C   0  0  2  0  0  0  0  0  0  0  0  0
   39.2433   26.9196   -0.8849 C   0  0  0  0  0  0  0  0  0  0  0  0
   37.5946   25.9838    0.8065 C   0  0  2  0  0  0  0  0  0  0  0  0
   37.3426   24.8665    1.8052 C   0  0  1  0  0  0  0  0  0  0  0  0
   38.4996   24.8469    2.8212 C   0  0  1  0  0  0  0  0  0  0  0  0
   44.4350   23.5911    3.0419 C   0  0  2  0  0  0  0  0  0  0  0  0
   45.0241   24.8321    2.2974 C   0  0  1  0  0  0  0  0  0  0  0  0
  1  3  1  0  0  0  0
  4  1  1  6  0  0  0
  4  6  1  0  0  0  0
  4 31  1  0  0  0  0
  6  7  1  0  0  0  0
  7  9  1  6  0  0  0
  7 30  1  0  0  0  0
  8 26  1  0  0  0  0
 10  9  1  1  0  0  0
 10 13  1  0  0  0  0
 10 21  1  0  0  0  0
 13 12  1  1  0  0  0
 13 15  1  0  0  0  0
 15  2  1  6  0  0  0
 15 17  1  0  0  0  0
 16 25  1  0  0  0  0
 16 23  1  0  0  0  0
 17 19  1  0  0  0  0
 19  5  1  6  0  0  0
 19 21  1  0  0  0  0
 21 14  1  1  0  0  0
 23 14  1  6  0  0  0
 23 29  1  0  0  0  0
 25 26  1  6  0  0  0
 25 27  1  0  0  0  0
 27 18  1  6  0  0  0
 27 28  1  0  0  0  0
 28 20  1  1  0  0  0
 28 29  1  0  0  0  0
 29 11  1  1  0  0  0
 30 22  1  1  0  0  0
 30 31  1  0  0  0  0
 31 24  1  1  0  0  0
M  END
>  <CHROM.1>
66.49789029,59.38711573,64.22407019,81.09377959,82.82513396,-58.44429985
41.28279459,23.93017367,1.52432502,-0.47807592,-0.25284600,0.08727272

>  <Name>
ligand

>  <RI>
0

>  <Rbt.Current_Directory>
/home/itssahil/PROJECTS/Mol_Feturizer/New_Systems/rnas/2ET5

>  <Rbt.Executable>
rbdock ($Id: //depot/dev/client3/rdock/2013.1/src/exe/rbdock.cxx#4 $)

>  <Rbt.Library>
libRbt.so (2013.1, Build901 2013/11/27)

>  <Rbt.Parameter_File>
/export/apps/rDock/src/rDock_2013.1_src/data/scripts/dock_solv.prm

>  <Rbt.Receptor>
prm/pocket_docking_7.prm

>  <SCORE>
-4.60646

>  <SCORE.INTER>
-1.40819

>  <SCORE.INTER.CONST>
1

>  <SCORE.INTER.POLAR>
0

>  <SCORE.INTER.ROT>
6

>  <SCORE.INTER.SOLV>
16.6923

>  <SCORE.INTER.VDW>
-14.1029

>  <SCORE.INTER.norm>
-0.0454254

>  <SCORE.INTRA>
-3.19827

>  <SCORE.INTRA.DIHEDRAL>
-6.60861

>  <SCORE.INTRA.DIHEDRAL.0>
11.2357

>  <SCORE.INTRA.POLAR>
0

>  <SCORE.INTRA.POLAR.0>
0

>  <SCORE.INTRA.REPUL>
0.0129428

>  <SCORE.INTRA.REPUL.0>
0

>  <SCORE.INTRA.SOLV>
1.35732

>  <SCORE.INTRA.SOLV.lig_0>
-83.3092

>  <SCORE.INTRA.VDW>
-0.637346

>  <SCORE.INTRA.VDW.0>
-4.47057

>  <SCORE.INTRA.norm>
-0.10317

>  <SCORE.RESTR>
0

>  <SCORE.RESTR.CAVITY>
0

>  <SCORE.RESTR.norm>
0

>  <SCORE.SYSTEM>
0

>  <SCORE.SYSTEM.CONST>
0

>  <SCORE.SYSTEM.DIHEDRAL>
0

>  <SCORE.SYSTEM.SOLV>
0

>  <SCORE.SYSTEM.norm>
0

>  <SCORE.heavy>
31

>  <SCORE.norm>
-0.148596

>  <RMSD>
6.542

$$$$
ligand
 OpenBabel11021811433D
libRbt.so/2013.1/901 2013/11/27
 31 33  0  0  0  0  0  0  0  0999 V2000
   43.7417   21.6572    3.0060 C   0  0  0  0  0  0  0  0  0  0  0  0
   41.4149   24.4533   -4.5392 N   0  0  0  0  0  0  0  0  0  0  0  0
   43.2871   20.4299    2.4173 O   0  0  0  0  0  0  0  0  0  0  0  0
   44.4204   22.3991    1.8575 C   0  0  1  0  0  0  0  0  0  0  0  0
   37.3771   24.9464   -1.5091 N   0  0  0  0  0  0  0  0  0  0  0  0
   43.5001   22.7795    0.7119 O   0  0  0  0  0  0  0  0  0  0  0  0
   43.2074   24.1227    0.6642 C   0  0  1  0  0  0  0  0  0  0  0  0
   38.1468   28.6412    0.6947 N   0  0  0  0  0  0  0  0  0  0  0  0
   41.8641   24.4969    0.5349 O   0  0  0  0  0  0  0  0  0  0  0  0
   40.9893   24.0466   -0.6000 C   0  0  2  0  0  0  0  0  0  0  0  0
   38.5164   22.6662    3.1031 N   0  0  0  0  0  0  0  0  0  0  0  0
   42.9935   23.8509   -2.0616 O   0  0  0  0  0  0  0  0  0  0  0  0
   41.6637   24.4780   -1.9359 C   0  0  1  0  0  0  0  0  0  0  0  0
   38.9557   24.3073    0.6757 O   0  0  0  0  0  0  0  0  0  0  0  0
   40.7562   24.0313   -3.1888 C   0  0  1  0  0  0  0  0  0  0  0  0
   38.9062   26.2562    2.0412 O   0  0  0  0  0  0  0  0  0  0  0  0
   39.3327   24.7219   -3.0244 C   0  0  0  0  0  0  0  0  0  0  0  0
   35.2384   26.2977    2.6869 O   0  0  0  0  0  0  0  0  0  0  0  0
   38.7120   24.2732   -1.6366 C   0  0  1  0  0  0  0  0  0  0  0  0
   35.9517   23.8405    3.9548 O   0  0  0  0  0  0  0  0  0  0  0  0
   39.5537   24.7289   -0.4874 C   0  0  2  0  0  0  0  0  0  0  0  0
   44.2830   26.0465    1.5763 O   0  0  0  0  0  0  0  0  0  0  0  0
   39.1973   24.7810    2.0256 C   0  0  1  0  0  0  0  0  0  0  0  0
   46.1676   24.0477    1.2368 O   0  0  0  0  0  0  0  0  0  0  0  0
   37.4557   26.6459    1.7904 C   0  0  2  0  0  0  0  0  0  0  0  0
   37.3202   28.1640    1.8070 C   0  0  0  0  0  0  0  0  0  0  0  0
   36.5902   25.9834    2.8872 C   0  0  2  0  0  0  0  0  0  0  0  0
   36.7728   24.4749    2.8815 C   0  0  1  0  0  0  0  0  0  0  0  0
   38.2648   24.1608    3.0977 C   0  0  1  0  0  0  0  0  0  0  0  0
   43.9237   24.7415    1.8537 C   0  0  2  0  0  0  0  0  0  0  0  0
   45.0863   23.7453    2.1655 C   0  0  1  0  0  0  0  0  0  0  0  0
  1  3  1  0  0  0  0
  4  1  1  1  0  0  0
  4  6  1  0  0  0  0
  4 31  1  0  0  0  0
  6  7  1  0  0  0  0
  7  9  1  1  0  0  0
  7 30  1  0  0  0  0
  8 26  1  0  0  0  0
 10  9  1  1  0  0  0
 10 13  1  0  0  0  0
 10 21  1  0  0  0  0
 13 12  1  6  0  0  0
 13 15  1  0  0  0  0
 15  2  1  6  0  0  0
 15 17  1  0  0  0  0
 16 25  1  0  0  0  0
 16 23  1  0  0  0  0
 17 19  1  0  0  0  0
 19  5  1  1  0  0  0
 19 21  1  0  0  0  0
 21 14  1  1  0  0  0
 23 14  1  6  0  0  0
 23 29  1  0  0  0  0
 25 26  1  1  0  0  0
 25 27  1  0  0  0  0
 27 18  1  6  0  0  0
 27 28  1  0  0  0  0
 28 20  1  1  0  0  0
 28 29  1  0  0  0  0
 29 11  1  6  0  0  0
 30 22  1  6  0  0  0
 30 31  1  0  0  0  0
 31 24  1  6  0  0  0
M  END
>  <CHROM.1>
63.56031669,-57.28833191,-56.89970530,58.71058505,79.07318072,62.51290050
40.46796096,24.51171051,0.82211109,-0.09423049,-0.35134728,1.76702022

>  <Name>
ligand

>  <RI>
0

>  <Rbt.Current_Directory>
/home/itssahil/PROJECTS/Mol_Feturizer/New_Systems/rnas/2ET5

>  <Rbt.Executable>
rbdock ($Id: //depot/dev/client3/rdock/2013.1/src/exe/rbdock.cxx#4 $)

>  <Rbt.Library>
libRbt.so (2013.1, Build901 2013/11/27)

>  <Rbt.Parameter_File>
/export/apps/rDock/src/rDock_2013.1_src/data/scripts/dock_solv.prm

>  <Rbt.Receptor>
prm/pocket_docking_5.prm

>  <SCORE>
-4.7767

>  <SCORE.INTER>
-0.0120201

>  <SCORE.INTER.CONST>
1

>  <SCORE.INTER.POLAR>
0

>  <SCORE.INTER.ROT>
6

>  <SCORE.INTER.SOLV>
16.3935

>  <SCORE.INTER.VDW>
-13.0725

>  <SCORE.INTER.norm>
-0.000387747

>  <SCORE.INTRA>
-4.76468

>  <SCORE.INTRA.DIHEDRAL>
-9.2878

>  <SCORE.INTRA.DIHEDRAL.0>
11.2357

>  <SCORE.INTRA.POLAR>
0

>  <SCORE.INTRA.POLAR.0>
0

>  <SCORE.INTRA.REPUL>
0

>  <SCORE.INTRA.REPUL.0>
0

>  <SCORE.INTRA.SOLV>
-3.68476

>  <SCORE.INTRA.SOLV.lig_0>
-83.3092

>  <SCORE.INTRA.VDW>
1.72159

>  <SCORE.INTRA.VDW.0>
-4.47057

>  <SCORE.INTRA.norm>
-0.153699

>  <SCORE.RESTR>
0

>  <SCORE.RESTR.CAVITY>
0

>  <SCORE.RESTR.norm>
0

>  <SCORE.SYSTEM>
0

>  <SCORE.SYSTEM.CONST>
0

>  <SCORE.SYSTEM.DIHEDRAL>
0

>  <SCORE.SYSTEM.SOLV>
0

>  <SCORE.SYSTEM.norm>
0

>  <SCORE.heavy>
31

>  <SCORE.norm>
-0.154087

>  <RMSD>
6.543

$$$$
ligand
 OpenBabel11021811433D
libRbt.so/2013.1/901 2013/11/27
 31 33  0  0  0  0  0  0  0  0999 V2000
   33.7878   26.8052    1.9157 C   0  0  0  0  0  0  0  0  0  0  0  0
   36.5726   27.2451    7.5662 N   0  0  0  0  0  0  0  0  0  0  0  0
   32.9773   27.4584    0.9277 O   0  0  0  0  0  0  0  0  0  0  0  0
   35.2138   27.2324    1.5779 C   0  0  1  0  0  0  0  0  0  0  0  0
   41.2065   26.3561    5.7047 N   0  0  0  0  0  0  0  0  0  0  0  0
   36.2524   26.8710    2.6241 O   0  0  0  0  0  0  0  0  0  0  0  0
   37.0726   25.8323    2.2492 C   0  0  1  0  0  0  0  0  0  0  0  0
   43.2328   28.0164    1.5270 N   0  0  0  0  0  0  0  0  0  0  0  0
   37.2615   24.7847    3.1592 O   0  0  0  0  0  0  0  0  0  0  0  0
   37.8252   24.9823    4.5372 C   0  0  2  0  0  0  0  0  0  0  0  0
   40.8985   22.0031    2.7812 N   0  0  0  0  0  0  0  0  0  0  0  0
   35.5383   25.4455    5.4017 O   0  0  0  0  0  0  0  0  0  0  0  0
   36.9084   25.9841    5.2998 C   0  0  1  0  0  0  0  0  0  0  0  0
   40.1046   24.6677    3.8050 O   0  0  0  0  0  0  0  0  0  0  0  0
   37.4781   26.2438    6.7832 C   0  0  1  0  0  0  0  0  0  0  0  0
   40.4372   25.5541    1.6212 O   0  0  0  0  0  0  0  0  0  0  0  0
   38.9528   26.8225    6.6396 C   0  0  0  0  0  0  0  0  0  0  0  0
   44.1610   25.4897    1.6383 O   0  0  0  0  0  0  0  0  0  0  0  0
   39.8275   25.7780    5.8292 C   0  0  1  0  0  0  0  0  0  0  0  0
   43.6017   22.6964    1.8355 O   0  0  0  0  0  0  0  0  0  0  0  0
   39.2995   25.5796    4.4441 C   0  0  2  0  0  0  0  0  0  0  0  0
   37.6291   24.8947    0.1277 O   0  0  0  0  0  0  0  0  0  0  0  0
   40.1062   24.3103    2.3989 C   0  0  1  0  0  0  0  0  0  0  0  0
   36.8832   27.5359   -0.2323 O   0  0  0  0  0  0  0  0  0  0  0  0
   41.8355   26.1164    1.8386 C   0  0  2  0  0  0  0  0  0  0  0  0
   42.0144   27.3848    1.0124 C   0  0  0  0  0  0  0  0  0  0  0  0
   42.8537   25.0246    1.4363 C   0  0  2  0  0  0  0  0  0  0  0  0
   42.6304   23.7550    2.2409 C   0  0  1  0  0  0  0  0  0  0  0  0
   41.1875   23.2719    2.0040 C   0  0  1  0  0  0  0  0  0  0  0  0
   36.5829   25.3970    0.8776 C   0  0  2  0  0  0  0  0  0  0  0  0
   35.8548   26.6573    0.3094 C   0  0  1  0  0  0  0  0  0  0  0  0
  1  3  1  0  0  0  0
  4  1  1  1  0  0  0
  4  6  1  0  0  0  0
  4 31  1  0  0  0  0
  6  7  1  0  0  0  0
  7  9  1  1  0  0  0
  7 30  1  0  0  0  0
  8 26  1  0  0  0  0
 10  9  1  6  0  0  0
 10 13  1  0  0  0  0
 10 21  1  0  0  0  0
 13 12  1  1  0  0  0
 13 15  1  0  0  0  0
 15  2  1  6  0  0  0
 15 17  1  0  0  0  0
 16 25  1  0  0  0  0
 16 23  1  0  0  0  0
 17 19  1  0  0  0  0
 19  5  1  6  0  0  0
 19 21  1  0  0  0  0
 21 14  1  6  0  0  0
 23 14  1  1  0  0  0
 23 29  1  0  0  0  0
 25 26  1  6  0  0  0
 25 27  1  0  0  0  0
 27 18  1  1  0  0  0
 27 28  1  0  0  0  0
 28 20  1  6  0  0  0
 28 29  1  0  0  0  0
 29 11  1  1  0  0  0
 30 22  1  6  0  0  0
 30 31  1  0  0  0  0
 31 24  1  1  0  0  0
M  END
>  <CHROM.1>
169.76443174,-58.83897470,58.58138119,61.22041658,71.92346229,166.64437737
38.89008793,25.68506006,2.86007252,3.05684763,-0.24654076,1.58645469

>  <Name>
ligand

>  <RI>
0

>  <Rbt.Current_Directory>
/home/itssahil/PROJECTS/Mol_Feturizer/New_Systems/rnas/2ET5

>  <Rbt.Executable>
rbdock ($Id: //depot/dev/client3/rdock/2013.1/src/exe/rbdock.cxx#4 $)

>  <Rbt.Library>
libRbt.so (2013.1, Build901 2013/11/27)

>  <Rbt.Parameter_File>
/export/apps/rDock/src/rDock_2013.1_src/data/scripts/dock_solv.prm

>  <Rbt.Receptor>
prm/pocket_docking_6.prm

>  <SCORE>
-6.62486

>  <SCORE.INTER>
-1.4155

>  <SCORE.INTER.CONST>
1

>  <SCORE.INTER.POLAR>
0

>  <SCORE.INTER.ROT>
6

>  <SCORE.INTER.SOLV>
10.6549

>  <SCORE.INTER.VDW>
-12.0953

>  <SCORE.INTER.norm>
-0.0456613

>  <SCORE.INTRA>
-5.20936

>  <SCORE.INTRA.DIHEDRAL>
-9.4075

>  <SCORE.INTRA.DIHEDRAL.0>
11.2357

>  <SCORE.INTRA.POLAR>
0

>  <SCORE.INTRA.POLAR.0>
0

>  <SCORE.INTRA.REPUL>
0

>  <SCORE.INTRA.REPUL.0>
0

>  <SCORE.INTRA.SOLV>
-2.62646

>  <SCORE.INTRA.SOLV.lig_0>
-83.3092

>  <SCORE.INTRA.VDW>
0.807623

>  <SCORE.INTRA.VDW.0>
-4.47057

>  <SCORE.INTRA.norm>
-0.168044

>  <SCORE.RESTR>
0

>  <SCORE.RESTR.CAVITY>
0

>  <SCORE.RESTR.norm>
0

>  <SCORE.SYSTEM>
0

>  <SCORE.SYSTEM.CONST>
0

>  <SCORE.SYSTEM.DIHEDRAL>
0

>  <SCORE.SYSTEM.SOLV>
0

>  <SCORE.SYSTEM.norm>
0

>  <SCORE.heavy>
31

>  <SCORE.norm>
-0.213705

>  <RMSD>
6.554

$$$$
ligand
 OpenBabel11021811433D
libRbt.so/2013.1/901 2013/11/27
 31 33  0  0  0  0  0  0  0  0999 V2000
   33.2331   23.8346    4.2536 C   0  0  0  0  0  0  0  0  0  0  0  0
   37.7822   26.9737   -2.5253 N   0  0  0  0  0  0  0  0  0  0  0  0
   33.1173   22.4131    4.0937 O   0  0  0  0  0  0  0  0  0  0  0  0
   34.6368   24.0388    4.8175 C   0  0  1  0  0  0  0  0  0  0  0  0
   41.0780   26.9282    1.3301 N   0  0  0  0  0  0  0  0  0  0  0  0
   35.7643   23.7108    3.8556 O   0  0  0  0  0  0  0  0  0  0  0  0
   36.4079   24.8223    3.3631 C   0  0  1  0  0  0  0  0  0  0  0  0
   39.9761   30.3140    3.9007 N   0  0  0  0  0  0  0  0  0  0  0  0
   36.6058   24.9059    1.9791 O   0  0  0  0  0  0  0  0  0  0  0  0
   37.3529   26.0300    1.3203 C   0  0  2  0  0  0  0  0  0  0  0  0
   39.8697   23.9331    4.8931 N   0  0  0  0  0  0  0  0  0  0  0  0
   35.7322   25.9951   -0.5675 O   0  0  0  0  0  0  0  0  0  0  0  0
   37.1636   25.9040   -0.2204 C   0  0  1  0  0  0  0  0  0  0  0  0
   39.0578   26.0886    3.0293 O   0  0  0  0  0  0  0  0  0  0  0  0
   37.9597   27.0805   -0.9785 C   0  0  1  0  0  0  0  0  0  0  0  0
   40.6094   27.5385    4.1043 O   0  0  0  0  0  0  0  0  0  0  0  0
   39.4958   26.9555   -0.5847 C   0  0  0  0  0  0  0  0  0  0  0  0
   38.6721   28.0764    7.2393 O   0  0  0  0  0  0  0  0  0  0  0  0
   39.6219   27.0575    0.9921 C   0  0  1  0  0  0  0  0  0  0  0  0
   39.1724   25.2711    7.4240 O   0  0  0  0  0  0  0  0  0  0  0  0
   38.9041   25.9356    1.6724 C   0  0  2  0  0  0  0  0  0  0  0  0
   36.5625   27.0754    4.1305 O   0  0  0  0  0  0  0  0  0  0  0  0
   40.2922   26.1022    3.7914 C   0  0  1  0  0  0  0  0  0  0  0  0
   36.0642   25.4271    6.2977 O   0  0  0  0  0  0  0  0  0  0  0  0
   39.6247   28.2469    5.0247 C   0  0  2  0  0  0  0  0  0  0  0  0
   40.0584   29.6942    5.2263 C   0  0  0  0  0  0  0  0  0  0  0  0
   39.5835   27.4717    6.3619 C   0  0  2  0  0  0  0  0  0  0  0  0
   39.1912   26.0215    6.1336 C   0  0  1  0  0  0  0  0  0  0  0  0
   40.2048   25.3863    5.1638 C   0  0  1  0  0  0  0  0  0  0  0  0
   35.6900   26.0159    3.9717 C   0  0  2  0  0  0  0  0  0  0  0  0
   35.0312   25.4494    5.2704 C   0  0  1  0  0  0  0  0  0  0  0  0
  1  3  1  0  0  0  0
  4  1  1  6  0  0  0
  4  6  1  0  0  0  0
  4 31  1  0  0  0  0
  6  7  1  0  0  0  0
  7  9  1  6  0  0  0
  7 30  1  0  0  0  0
  8 26  1  0  0  0  0
 10  9  1  1  0  0  0
 10 13  1  0  0  0  0
 10 21  1  0  0  0  0
 13 12  1  1  0  0  0
 13 15  1  0  0  0  0
 15  2  1  6  0  0  0
 15 17  1  0  0  0  0
 16 25  1  0  0  0  0
 16 23  1  0  0  0  0
 17 19  1  0  0  0  0
 19  5  1  6  0  0  0
 19 21  1  0  0  0  0
 21 14  1  1  0  0  0
 23 14  1  1  0  0  0
 23 29  1  0  0  0  0
 25 26  1  1  0  0  0
 25 27  1  0  0  0  0
 27 18  1  1  0  0  0
 27 28  1  0  0  0  0
 28 20  1  1  0  0  0
 28 29  1  0  0  0  0
 29 11  1  6  0  0  0
 30 22  1  1  0  0  0
 30 31  1  0  0  0  0
 31 24  1  1  0  0  0
M  END
>  <CHROM.1>
68.04138493,-176.85745755,-170.78456438,101.67116018,-178.53441560,63.59451877
37.85076738,26.13020238,3.41609457,3.13332535,-0.59376191,-1.50390154

>  <Name>
ligand

>  <RI>
0

>  <Rbt.Current_Directory>
/home/itssahil/PROJECTS/Mol_Feturizer/New_Systems/rnas/2ET5

>  <Rbt.Executable>
rbdock ($Id: //depot/dev/client3/rdock/2013.1/src/exe/rbdock.cxx#4 $)

>  <Rbt.Library>
libRbt.so (2013.1, Build901 2013/11/27)

>  <Rbt.Parameter_File>
/export/apps/rDock/src/rDock_2013.1_src/data/scripts/dock_solv.prm

>  <Rbt.Receptor>
prm/pocket_docking_8.prm

>  <SCORE>
-6.15506

>  <SCORE.INTER>
-3.79518

>  <SCORE.INTER.CONST>
1

>  <SCORE.INTER.POLAR>
0

>  <SCORE.INTER.ROT>
6

>  <SCORE.INTER.SOLV>
10.5331

>  <SCORE.INTER.VDW>
-13.6412

>  <SCORE.INTER.norm>
-0.122425

>  <SCORE.INTRA>
-2.35989

>  <SCORE.INTRA.DIHEDRAL>
-4.73322

>  <SCORE.INTRA.DIHEDRAL.0>
11.2357

>  <SCORE.INTRA.POLAR>
0

>  <SCORE.INTRA.POLAR.0>
0

>  <SCORE.INTRA.REPUL>
0

>  <SCORE.INTRA.REPUL.0>
0

>  <SCORE.INTRA.SOLV>
-0.453246

>  <SCORE.INTRA.SOLV.lig_0>
-83.3092

>  <SCORE.INTRA.VDW>
0.233345

>  <SCORE.INTRA.VDW.0>
-4.47057

>  <SCORE.INTRA.norm>
-0.0761254

>  <SCORE.RESTR>
0

>  <SCORE.RESTR.CAVITY>
0

>  <SCORE.RESTR.norm>
0

>  <SCORE.SYSTEM>
0

>  <SCORE.SYSTEM.CONST>
0

>  <SCORE.SYSTEM.DIHEDRAL>
0

>  <SCORE.SYSTEM.SOLV>
0

>  <SCORE.SYSTEM.norm>
0

>  <SCORE.heavy>
31

>  <SCORE.norm>
-0.19855

>  <RMSD>
6.556

$$$$
ligand
 OpenBabel11021811433D
libRbt.so/2013.1/901 2013/11/27
 31 33  0  0  0  0  0  0  0  0999 V2000
   40.3800   25.6199    6.8647 C   0  0  0  0  0  0  0  0  0  0  0  0
   42.6074   21.0155   -0.1756 N   0  0  0  0  0  0  0  0  0  0  0  0
   41.0709   26.8022    7.2945 O   0  0  0  0  0  0  0  0  0  0  0  0
   41.4841   24.7072    6.3374 C   0  0  1  0  0  0  0  0  0  0  0  0
   39.4758   24.9711   -0.6994 N   0  0  0  0  0  0  0  0  0  0  0  0
   41.0033   23.3756    5.7900 O   0  0  0  0  0  0  0  0  0  0  0  0
   41.0534   23.2947    4.4177 C   0  0  1  0  0  0  0  0  0  0  0  0
   40.5132   28.3705    2.0713 N   0  0  0  0  0  0  0  0  0  0  0  0
   39.9133   22.8358    3.7460 O   0  0  0  0  0  0  0  0  0  0  0  0
   39.8767   22.5783    2.2667 C   0  0  2  0  0  0  0  0  0  0  0  0
   35.8187   24.0586    3.1186 N   0  0  0  0  0  0  0  0  0  0  0  0
   41.4409   20.6663    2.5650 O   0  0  0  0  0  0  0  0  0  0  0  0
   41.2347   21.9402    1.8493 C   0  0  1  0  0  0  0  0  0  0  0  0
   38.4520   24.4778    1.8270 O   0  0  0  0  0  0  0  0  0  0  0  0
   41.2544   21.6568    0.2644 C   0  0  1  0  0  0  0  0  0  0  0  0
   38.7569   26.4103    3.1825 O   0  0  0  0  0  0  0  0  0  0  0  0
   41.0299   23.0460   -0.4772 C   0  0  0  0  0  0  0  0  0  0  0  0
   36.3506   28.6288    1.4051 O   0  0  0  0  0  0  0  0  0  0  0  0
   39.6531   23.6613    0.0109 C   0  0  1  0  0  0  0  0  0  0  0  0
   34.5686   26.6233    2.3833 O   0  0  0  0  0  0  0  0  0  0  0  0
   39.6711   23.9479    1.4786 C   0  0  2  0  0  0  0  0  0  0  0  0
   42.2755   24.5098    2.7686 O   0  0  0  0  0  0  0  0  0  0  0  0
   38.0681   25.0767    3.0914 C   0  0  1  0  0  0  0  0  0  0  0  0
   43.6658   24.6061    5.1602 O   0  0  0  0  0  0  0  0  0  0  0  0
   38.3212   27.4500    2.1589 C   0  0  2  0  0  0  0  0  0  0  0  0
   39.1215   28.7324    2.3550 C   0  0  0  0  0  0  0  0  0  0  0  0
   36.8048   27.6898    2.3422 C   0  0  2  0  0  0  0  0  0  0  0  0
   36.0300   26.3920    2.1854 C   0  0  1  0  0  0  0  0  0  0  0  0
   36.5534   25.3803    3.2217 C   0  0  1  0  0  0  0  0  0  0  0  0
   41.5637   24.6462    3.9451 C   0  0  2  0  0  0  0  0  0  0  0  0
   42.3427   25.2162    5.1738 C   0  0  1  0  0  0  0  0  0  0  0  0
  1  3  1  0  0  0  0
  4  1  1  6  0  0  0
  4  6  1  0  0  0  0
  4 31  1  0  0  0  0
  6  7  1  0  0  0  0
  7  9  1  6  0  0  0
  7 30  1  0  0  0  0
  8 26  1  0  0  0  0
 10  9  1  1  0  0  0
 10 13  1  0  0  0  0
 10 21  1  0  0  0  0
 13 12  1  1  0  0  0
 13 15  1  0  0  0  0
 15  2  1  6  0  0  0
 15 17  1  0  0  0  0
 16 25  1  0  0  0  0
 16 23  1  0  0  0  0
 17 19  1  0  0  0  0
 19  5  1  6  0  0  0
 19 21  1  0  0  0  0
 21 14  1  1  0  0  0
 23 14  1  6  0  0  0
 23 29  1  0  0  0  0
 25 26  1  1  0  0  0
 25 27  1  0  0  0  0
 27 18  1  6  0  0  0
 27 28  1  0  0  0  0
 28 20  1  1  0  0  0
 28 29  1  0  0  0  0
 29 11  1  6  0  0  0
 30 22  1  6  0  0  0
 30 31  1  0  0  0  0
 31 24  1  1  0  0  0
M  END
>  <CHROM.1>
-178.94284273,-174.09636044,38.84530410,72.04650948,71.32382933,63.84667128
39.69561078,24.79924343,2.87352660,-0.30258727,-0.66058051,0.94278013

>  <Name>
ligand

>  <RI>
0

>  <Rbt.Current_Directory>
/home/itssahil/PROJECTS/Mol_Feturizer/New_Systems/rnas/2ET5

>  <Rbt.Executable>
rbdock ($Id: //depot/dev/client3/rdock/2013.1/src/exe/rbdock.cxx#4 $)

>  <Rbt.Library>
libRbt.so (2013.1, Build901 2013/11/27)

>  <Rbt.Parameter_File>
/export/apps/rDock/src/rDock_2013.1_src/data/scripts/dock_solv.prm

>  <Rbt.Receptor>
prm/pocket_docking_6.prm

>  <SCORE>
-7.3045

>  <SCORE.INTER>
-2.82257

>  <SCORE.INTER.CONST>
1

>  <SCORE.INTER.POLAR>
0

>  <SCORE.INTER.ROT>
6

>  <SCORE.INTER.SOLV>
15.0267

>  <SCORE.INTER.VDW>
-14.4906

>  <SCORE.INTER.norm>
-0.0910505

>  <SCORE.INTRA>
-4.48193

>  <SCORE.INTRA.DIHEDRAL>
-7.57908

>  <SCORE.INTRA.DIHEDRAL.0>
11.2357

>  <SCORE.INTRA.POLAR>
0

>  <SCORE.INTRA.POLAR.0>
0

>  <SCORE.INTRA.REPUL>
0

>  <SCORE.INTRA.REPUL.0>
0

>  <SCORE.INTRA.SOLV>
-2.83197

>  <SCORE.INTRA.SOLV.lig_0>
-83.3092

>  <SCORE.INTRA.VDW>
0.72359

>  <SCORE.INTRA.VDW.0>
-4.47057

>  <SCORE.INTRA.norm>
-0.144578

>  <SCORE.RESTR>
0

>  <SCORE.RESTR.CAVITY>
0

>  <SCORE.RESTR.norm>
0

>  <SCORE.SYSTEM>
0

>  <SCORE.SYSTEM.CONST>
0

>  <SCORE.SYSTEM.DIHEDRAL>
0

>  <SCORE.SYSTEM.SOLV>
0

>  <SCORE.SYSTEM.norm>
0

>  <SCORE.heavy>
31

>  <SCORE.norm>
-0.235629

>  <RMSD>
6.561

$$$$
ligand
 OpenBabel11021811433D
libRbt.so/2013.1/901 2013/11/27
 31 33  0  0  0  0  0  0  0  0999 V2000
   37.4380   29.2588    0.0232 C   0  0  0  0  0  0  0  0  0  0  0  0
   41.8783   27.7276    4.7425 N   0  0  0  0  0  0  0  0  0  0  0  0
   37.4041   27.8614   -0.3019 O   0  0  0  0  0  0  0  0  0  0  0  0
   38.7852   29.7389   -0.5106 C   0  0  1  0  0  0  0  0  0  0  0  0
   45.5645   27.8018    1.2590 N   0  0  0  0  0  0  0  0  0  0  0  0
   39.9948   29.0737    0.1206 O   0  0  0  0  0  0  0  0  0  0  0  0
   40.6211   28.1715   -0.7077 C   0  0  1  0  0  0  0  0  0  0  0  0
   40.6255   23.8403    0.2663 N   0  0  0  0  0  0  0  0  0  0  0  0
   40.9169   26.9036   -0.1917 O   0  0  0  0  0  0  0  0  0  0  0  0
   41.9201   26.6729    0.9020 C   0  0  2  0  0  0  0  0  0  0  0  0
   45.9943   26.0976   -2.4864 N   0  0  0  0  0  0  0  0  0  0  0  0
   40.0840   26.6773    2.5814 O   0  0  0  0  0  0  0  0  0  0  0  0
   41.3667   27.3067    2.2126 C   0  0  1  0  0  0  0  0  0  0  0  0
   43.8014   26.7647   -0.6090 O   0  0  0  0  0  0  0  0  0  0  0  0
   42.4142   27.1003    3.4178 C   0  0  1  0  0  0  0  0  0  0  0  0
   43.2794   24.4467   -0.4684 O   0  0  0  0  0  0  0  0  0  0  0  0
   43.7834   27.7881    2.9906 C   0  0  0  0  0  0  0  0  0  0  0  0
   41.7147   24.1015   -3.8304 O   0  0  0  0  0  0  0  0  0  0  0  0
   44.2789   27.1271    1.6377 C   0  0  1  0  0  0  0  0  0  0  0  0
   44.3833   24.7895   -4.5782 O   0  0  0  0  0  0  0  0  0  0  0  0
   43.3069   27.3616    0.5256 C   0  0  2  0  0  0  0  0  0  0  0  0
   40.6140   27.8719   -3.0740 O   0  0  0  0  0  0  0  0  0  0  0  0
   44.3758   25.4391   -0.7417 C   0  0  1  0  0  0  0  0  0  0  0  0
   40.0332   30.5185   -2.5082 O   0  0  0  0  0  0  0  0  0  0  0  0
   42.1359   24.4324   -1.4737 C   0  0  2  0  0  0  0  0  0  0  0  0
   41.0929   23.4037   -1.0524 C   0  0  0  0  0  0  0  0  0  0  0  0
   42.7301   24.1066   -2.8635 C   0  0  2  0  0  0  0  0  0  0  0  0
   43.7974   25.1188   -3.2453 C   0  0  1  0  0  0  0  0  0  0  0  0
   44.8942   25.1060   -2.1644 C   0  0  1  0  0  0  0  0  0  0  0  0
   39.8055   28.1569   -1.9904 C   0  0  2  0  0  0  0  0  0  0  0  0
   39.0792   29.5403   -2.0021 C   0  0  1  0  0  0  0  0  0  0  0  0
  1  3  1  0  0  0  0
  4  1  1  1  0  0  0
  4  6  1  0  0  0  0
  4 31  1  0  0  0  0
  6  7  1  0  0  0  0
  7  9  1  1  0  0  0
  7 30  1  0  0  0  0
  8 26  1  0  0  0  0
 10  9  1  6  0  0  0
 10 13  1  0  0  0  0
 10 21  1  0  0  0  0
 13 12  1  1  0  0  0
 13 15  1  0  0  0  0
 15  2  1  1  0  0  0
 15 17  1  0  0  0  0
 16 25  1  0  0  0  0
 16 23  1  0  0  0  0
 17 19  1  0  0  0  0
 19  5  1  6  0  0  0
 19 21  1  0  0  0  0
 21 14  1  6  0  0  0
 23 14  1  6  0  0  0
 23 29  1  0  0  0  0
 25 26  1  1  0  0  0
 25 27  1  0  0  0  0
 27 18  1  6  0  0  0
 27 28  1  0  0  0  0
 28 20  1  6  0  0  0
 28 29  1  0  0  0  0
 29 11  1  6  0  0  0
 30 22  1  6  0  0  0
 30 31  1  0  0  0  0
 31 24  1  1  0  0  0
M  END
>  <CHROM.1>
-61.62932824,-66.86538886,67.41295117,65.77973651,-72.40506345,60.47942918
41.83765387,26.78844479,-0.49153973,2.52210513,-0.54420002,1.26108676

>  <Name>
ligand

>  <RI>
0

>  <Rbt.Current_Directory>
/home/itssahil/PROJECTS/Mol_Feturizer/New_Systems/rnas/2ET5

>  <Rbt.Executable>
rbdock ($Id: //depot/dev/client3/rdock/2013.1/src/exe/rbdock.cxx#4 $)

>  <Rbt.Library>
libRbt.so (2013.1, Build901 2013/11/27)

>  <Rbt.Parameter_File>
/export/apps/rDock/src/rDock_2013.1_src/data/scripts/dock_solv.prm

>  <Rbt.Receptor>
prm/pocket_docking_6.prm

>  <SCORE>
-2.58887

>  <SCORE.INTER>
1.81483

>  <SCORE.INTER.CONST>
1

>  <SCORE.INTER.POLAR>
0

>  <SCORE.INTER.ROT>
6

>  <SCORE.INTER.SOLV>
5.41605

>  <SCORE.INTER.VDW>
-8.19547

>  <SCORE.INTER.norm>
0.0585428

>  <SCORE.INTRA>
-4.40369

>  <SCORE.INTRA.DIHEDRAL>
-9.69863

>  <SCORE.INTRA.DIHEDRAL.0>
11.2357

>  <SCORE.INTRA.POLAR>
0

>  <SCORE.INTRA.POLAR.0>
0

>  <SCORE.INTRA.REPUL>
0

>  <SCORE.INTRA.REPUL.0>
0

>  <SCORE.INTRA.SOLV>
0.135524

>  <SCORE.INTRA.SOLV.lig_0>
-83.3092

>  <SCORE.INTRA.VDW>
0.377861

>  <SCORE.INTRA.VDW.0>
-4.47057

>  <SCORE.INTRA.norm>
-0.142055

>  <SCORE.RESTR>
0

>  <SCORE.RESTR.CAVITY>
0

>  <SCORE.RESTR.norm>
0

>  <SCORE.SYSTEM>
0

>  <SCORE.SYSTEM.CONST>
0

>  <SCORE.SYSTEM.DIHEDRAL>
0

>  <SCORE.SYSTEM.SOLV>
0

>  <SCORE.SYSTEM.norm>
0

>  <SCORE.heavy>
31

>  <SCORE.norm>
-0.0835118

>  <RMSD>
6.578

$$$$
ligand
 OpenBabel11021811433D
libRbt.so/2013.1/901 2013/11/27
 31 33  0  0  0  0  0  0  0  0999 V2000
   35.5724   28.6313    1.6733 C   0  0  0  0  0  0  0  0  0  0  0  0
   38.6592   23.8145    4.0899 N   0  0  0  0  0  0  0  0  0  0  0  0
   35.0000   27.5756    0.8876 O   0  0  0  0  0  0  0  0  0  0  0  0
   36.9706   28.8209    1.0909 C   0  0  1  0  0  0  0  0  0  0  0  0
   42.0801   23.6450    0.3486 N   0  0  0  0  0  0  0  0  0  0  0  0
   37.7980   27.5521    0.9931 O   0  0  0  0  0  0  0  0  0  0  0  0
   37.9360   27.0831   -0.2927 C   0  0  1  0  0  0  0  0  0  0  0  0
   41.9583   28.4259   -0.8547 N   0  0  0  0  0  0  0  0  0  0  0  0
   37.6746   25.7275   -0.5276 O   0  0  0  0  0  0  0  0  0  0  0  0
   38.3761   24.6155    0.1986 C   0  0  2  0  0  0  0  0  0  0  0  0
   39.5686   23.4359   -4.1717 N   0  0  0  0  0  0  0  0  0  0  0  0
   36.6954   24.7558    2.0282 O   0  0  0  0  0  0  0  0  0  0  0  0
   38.1390   24.8053    1.7261 C   0  0  1  0  0  0  0  0  0  0  0  0
   40.1346   24.4569   -1.4486 O   0  0  0  0  0  0  0  0  0  0  0  0
   38.8851   23.6439    2.5552 C   0  0  1  0  0  0  0  0  0  0  0  0
   40.3432   26.6446   -2.3628 O   0  0  0  0  0  0  0  0  0  0  0  0
   40.4355   23.7234    2.2087 C   0  0  0  0  0  0  0  0  0  0  0  0
   43.6479   26.1635   -4.0117 O   0  0  0  0  0  0  0  0  0  0  0  0
   40.6112   23.5575    0.6421 C   0  0  1  0  0  0  0  0  0  0  0  0
   42.0693   24.2881   -5.4764 O   0  0  0  0  0  0  0  0  0  0  0  0
   39.9397   24.6658   -0.1045 C   0  0  2  0  0  0  0  0  0  0  0  0
   37.6998   28.1206   -2.4275 O   0  0  0  0  0  0  0  0  0  0  0  0
   39.7072   25.2952   -2.5529 C   0  0  1  0  0  0  0  0  0  0  0  0
   38.3476   30.0588   -0.5605 O   0  0  0  0  0  0  0  0  0  0  0  0
   41.8619   26.6796   -2.4674 C   0  0  2  0  0  0  0  0  0  0  0  0
   42.3620   28.0990   -2.2252 C   0  0  0  0  0  0  0  0  0  0  0  0
   42.2525   26.1687   -3.8735 C   0  0  2  0  0  0  0  0  0  0  0  0
   41.7079   24.7700   -4.1105 C   0  0  1  0  0  0  0  0  0  0  0  0
   40.1771   24.8057   -3.9468 C   0  0  1  0  0  0  0  0  0  0  0  0
   37.1413   28.0402   -1.1662 C   0  0  2  0  0  0  0  0  0  0  0  0
   37.0864   29.3641   -0.3381 C   0  0  1  0  0  0  0  0  0  0  0  0
  1  3  1  0  0  0  0
  4  1  1  6  0  0  0
  4  6  1  0  0  0  0
  4 31  1  0  0  0  0
  6  7  1  0  0  0  0
  7  9  1  1  0  0  0
  7 30  1  0  0  0  0
  8 26  1  0  0  0  0
 10  9  1  6  0  0  0
 10 13  1  0  0  0  0
 10 21  1  0  0  0  0
 13 12  1  6  0  0  0
 13 15  1  0  0  0  0
 15  2  1  1  0  0  0
 15 17  1  0  0  0  0
 16 25  1  0  0  0  0
 16 23  1  0  0  0  0
 17 19  1  0  0  0  0
 19  5  1  1  0  0  0
 19 21  1  0  0  0  0
 21 14  1  6  0  0  0
 23 14  1  1  0  0  0
 23 29  1  0  0  0  0
 25 26  1  6  0  0  0
 25 27  1  0  0  0  0
 27 18  1  1  0  0  0
 27 28  1  0  0  0  0
 28 20  1  6  0  0  0
 28 29  1  0  0  0  0
 29 11  1  1  0  0  0
 30 22  1  6  0  0  0
 30 31  1  0  0  0  0
 31 24  1  1  0  0  0
M  END
>  <CHROM.1>
-52.35905073,-56.35403465,57.59316726,59.41992964,64.36633409,62.17247100
39.36318956,26.07368300,-0.80851442,2.83254134,-0.77122331,2.42114063

>  <Name>
ligand

>  <RI>
0

>  <Rbt.Current_Directory>
/home/itssahil/PROJECTS/Mol_Feturizer/New_Systems/rnas/2ET5

>  <Rbt.Executable>
rbdock ($Id: //depot/dev/client3/rdock/2013.1/src/exe/rbdock.cxx#4 $)

>  <Rbt.Library>
libRbt.so (2013.1, Build901 2013/11/27)

>  <Rbt.Parameter_File>
/export/apps/rDock/src/rDock_2013.1_src/data/scripts/dock_solv.prm

>  <Rbt.Receptor>
prm/pocket_docking_6.prm

>  <SCORE>
-5.54711

>  <SCORE.INTER>
0.650197

>  <SCORE.INTER.CONST>
1

>  <SCORE.INTER.POLAR>
0

>  <SCORE.INTER.ROT>
6

>  <SCORE.INTER.SOLV>
11.3724

>  <SCORE.INTER.VDW>
-10.9573

>  <SCORE.INTER.norm>
0.0209741

>  <SCORE.INTRA>
-6.19731

>  <SCORE.INTRA.DIHEDRAL>
-10.6782

>  <SCORE.INTRA.DIHEDRAL.0>
11.2357

>  <SCORE.INTRA.POLAR>
0

>  <SCORE.INTRA.POLAR.0>
0

>  <SCORE.INTRA.REPUL>
0

>  <SCORE.INTRA.REPUL.0>
0

>  <SCORE.INTRA.SOLV>
-2.27065

>  <SCORE.INTRA.SOLV.lig_0>
-83.3092

>  <SCORE.INTRA.VDW>
0.277135

>  <SCORE.INTRA.VDW.0>
-4.47057

>  <SCORE.INTRA.norm>
-0.199913

>  <SCORE.RESTR>
0

>  <SCORE.RESTR.CAVITY>
0

>  <SCORE.RESTR.norm>
0

>  <SCORE.SYSTEM>
0

>  <SCORE.SYSTEM.CONST>
0

>  <SCORE.SYSTEM.DIHEDRAL>
0

>  <SCORE.SYSTEM.SOLV>
0

>  <SCORE.SYSTEM.norm>
0

>  <SCORE.heavy>
31

>  <SCORE.norm>
-0.178939

>  <RMSD>
6.582

$$$$
ligand
 OpenBabel11021811433D
libRbt.so/2013.1/901 2013/11/27
 31 33  0  0  0  0  0  0  0  0999 V2000
   41.1363   22.4849   -1.2360 C   0  0  0  0  0  0  0  0  0  0  0  0
   41.1762   29.0672   -1.1354 N   0  0  0  0  0  0  0  0  0  0  0  0
   41.8420   23.4251   -2.0591 O   0  0  0  0  0  0  0  0  0  0  0  0
   41.5023   22.8826    0.1916 C   0  0  1  0  0  0  0  0  0  0  0  0
   40.1786   29.1006    3.8378 N   0  0  0  0  0  0  0  0  0  0  0  0
   41.0620   24.2773    0.5978 O   0  0  0  0  0  0  0  0  0  0  0  0
   39.9952   24.2863    1.4661 C   0  0  1  0  0  0  0  0  0  0  0  0
   42.2485   24.9898    5.2944 N   0  0  0  0  0  0  0  0  0  0  0  0
   38.9150   25.1266    1.1688 O   0  0  0  0  0  0  0  0  0  0  0  0
   39.0171   26.6250    1.1533 C   0  0  2  0  0  0  0  0  0  0  0  0
   35.9329   26.1298    4.5201 N   0  0  0  0  0  0  0  0  0  0  0  0
   39.5366   26.5603   -1.2793 O   0  0  0  0  0  0  0  0  0  0  0  0
   40.0184   27.0338    0.0327 C   0  0  1  0  0  0  0  0  0  0  0  0
   38.6394   26.8179    3.5305 O   0  0  0  0  0  0  0  0  0  0  0  0
   40.1768   28.6353   -0.0171 C   0  0  1  0  0  0  0  0  0  0  0  0
   39.4738   24.8551    4.5871 O   0  0  0  0  0  0  0  0  0  0  0  0
   40.6962   29.1136    1.4082 C   0  0  0  0  0  0  0  0  0  0  0  0
   39.2952   26.0860    8.0977 O   0  0  0  0  0  0  0  0  0  0  0  0
   39.6566   28.6419    2.5079 C   0  0  1  0  0  0  0  0  0  0  0  0
   36.5246   26.1119    7.4065 O   0  0  0  0  0  0  0  0  0  0  0  0
   39.5524   27.1509    2.5590 C   0  0  2  0  0  0  0  0  0  0  0  0
   39.0900   22.6388    2.9344 O   0  0  0  0  0  0  0  0  0  0  0  0
   38.2557   25.4920    3.9773 C   0  0  1  0  0  0  0  0  0  0  0  0
   41.7734   22.0942    2.5284 O   0  0  0  0  0  0  0  0  0  0  0  0
   39.9969   25.5122    5.8573 C   0  0  2  0  0  0  0  0  0  0  0  0
   41.2433   24.7796    6.3401 C   0  0  0  0  0  0  0  0  0  0  0  0
   38.8668   25.4724    6.9118 C   0  0  2  0  0  0  0  0  0  0  0  0
   37.6201   26.1701    6.3941 C   0  0  1  0  0  0  0  0  0  0  0  0
   37.1772   25.4794    5.0910 C   0  0  1  0  0  0  0  0  0  0  0  0
   39.6221   22.8274    1.6732 C   0  0  2  0  0  0  0  0  0  0  0  0
   40.9316   22.0427    1.3402 C   0  0  1  0  0  0  0  0  0  0  0  0
  1  3  1  0  0  0  0
  4  1  1  6  0  0  0
  4  6  1  0  0  0  0
  4 31  1  0  0  0  0
  6  7  1  0  0  0  0
  7  9  1  6  0  0  0
  7 30  1  0  0  0  0
  8 26  1  0  0  0  0
 10  9  1  1  0  0  0
 10 13  1  0  0  0  0
 10 21  1  0  0  0  0
 13 12  1  6  0  0  0
 13 15  1  0  0  0  0
 15  2  1  6  0  0  0
 15 17  1  0  0  0  0
 16 25  1  0  0  0  0
 16 23  1  0  0  0  0
 17 19  1  0  0  0  0
 19  5  1  1  0  0  0
 19 21  1  0  0  0  0
 21 14  1  1  0  0  0
 23 14  1  1  0  0  0
 23 29  1  0  0  0  0
 25 26  1  1  0  0  0
 25 27  1  0  0  0  0
 27 18  1  1  0  0  0
 27 28  1  0  0  0  0
 28 20  1  1  0  0  0
 28 29  1  0  0  0  0
 29 11  1  6  0  0  0
 30 22  1  1  0  0  0
 30 31  1  0  0  0  0
 31 24  1  1  0  0  0
M  END
>  <CHROM.1>
62.20633093,-65.24810918,63.26496143,63.83963557,64.98584398,64.71838564
39.71841439,25.51034328,2.76223541,-0.43644224,-1.19839604,2.51135498

>  <Name>
ligand

>  <RI>
0

>  <Rbt.Current_Directory>
/home/itssahil/PROJECTS/Mol_Feturizer/New_Systems/rnas/2ET5

>  <Rbt.Executable>
rbdock ($Id: //depot/dev/client3/rdock/2013.1/src/exe/rbdock.cxx#4 $)

>  <Rbt.Library>
libRbt.so (2013.1, Build901 2013/11/27)

>  <Rbt.Parameter_File>
/export/apps/rDock/src/rDock_2013.1_src/data/scripts/dock_solv.prm

>  <Rbt.Receptor>
prm/pocket_docking_6.prm

>  <SCORE>
-6.81207

>  <SCORE.INTER>
-0.22153

>  <SCORE.INTER.CONST>
1

>  <SCORE.INTER.POLAR>
0

>  <SCORE.INTER.ROT>
6

>  <SCORE.INTER.SOLV>
8.02322

>  <SCORE.INTER.VDW>
-10.4221

>  <SCORE.INTER.norm>
-0.00714611

>  <SCORE.INTRA>
-6.59054

>  <SCORE.INTRA.DIHEDRAL>
-10.6167

>  <SCORE.INTRA.DIHEDRAL.0>
11.2357

>  <SCORE.INTRA.POLAR>
0

>  <SCORE.INTRA.POLAR.0>
0

>  <SCORE.INTRA.REPUL>
0

>  <SCORE.INTRA.REPUL.0>
0

>  <SCORE.INTRA.SOLV>
-3.22075

>  <SCORE.INTRA.SOLV.lig_0>
-83.3092

>  <SCORE.INTRA.VDW>
0.328177

>  <SCORE.INTRA.VDW.0>
-4.47057

>  <SCORE.INTRA.norm>
-0.212598

>  <SCORE.RESTR>
0

>  <SCORE.RESTR.CAVITY>
0

>  <SCORE.RESTR.norm>
0

>  <SCORE.SYSTEM>
0

>  <SCORE.SYSTEM.CONST>
0

>  <SCORE.SYSTEM.DIHEDRAL>
0

>  <SCORE.SYSTEM.SOLV>
0

>  <SCORE.SYSTEM.norm>
0

>  <SCORE.heavy>
31

>  <SCORE.norm>
-0.219744

>  <RMSD>
6.589

$$$$
ligand
 OpenBabel11021811433D
libRbt.so/2013.1/901 2013/11/27
 31 33  0  0  0  0  0  0  0  0999 V2000
   42.3307   24.8507    6.4277 C   0  0  0  0  0  0  0  0  0  0  0  0
   42.8474   22.5311    0.4913 N   0  0  0  0  0  0  0  0  0  0  0  0
   43.4038   24.5236    5.5326 O   0  0  0  0  0  0  0  0  0  0  0  0
   41.4689   25.8352    5.6413 C   0  0  1  0  0  0  0  0  0  0  0  0
   38.6710   25.0370   -0.9255 N   0  0  0  0  0  0  0  0  0  0  0  0
   40.9486   25.3096    4.3158 O   0  0  0  0  0  0  0  0  0  0  0  0
   39.6057   25.0123    4.3309 C   0  0  1  0  0  0  0  0  0  0  0  0
   33.3825   24.4086    4.4796 N   0  0  0  0  0  0  0  0  0  0  0  0
   39.2041   23.7675    3.8302 O   0  0  0  0  0  0  0  0  0  0  0  0
   39.4525   23.3300    2.4151 C   0  0  2  0  0  0  0  0  0  0  0  0
   38.2695   27.3916    1.2276 N   0  0  0  0  0  0  0  0  0  0  0  0
   41.5123   22.1421    3.1483 O   0  0  0  0  0  0  0  0  0  0  0  0
   40.9884   23.1619    2.2193 C   0  0  1  0  0  0  0  0  0  0  0  0
   37.5459   24.5374    1.5561 O   0  0  0  0  0  0  0  0  0  0  0  0
   41.3120   22.7067    0.7091 C   0  0  1  0  0  0  0  0  0  0  0  0
   35.2532   25.1435    1.3529 O   0  0  0  0  0  0  0  0  0  0  0  0
   40.7360   23.8239   -0.2657 C   0  0  0  0  0  0  0  0  0  0  0  0
   34.8725   26.7159    4.7076 O   0  0  0  0  0  0  0  0  0  0  0  0
   39.1807   23.9730    0.0017 C   0  0  1  0  0  0  0  0  0  0  0  0
   36.7908   28.4759    3.5341 O   0  0  0  0  0  0  0  0  0  0  0  0
   38.9067   24.4297    1.3992 C   0  0  2  0  0  0  0  0  0  0  0  0
   37.8122   25.6993    5.7454 O   0  0  0  0  0  0  0  0  0  0  0  0
   36.6587   25.5354    0.9891 C   0  0  1  0  0  0  0  0  0  0  0  0
   39.7794   27.6461    5.7900 O   0  0  0  0  0  0  0  0  0  0  0  0
   34.9193   25.1851    2.8380 C   0  0  2  0  0  0  0  0  0  0  0  0
   33.4784   24.7373    3.0545 C   0  0  0  0  0  0  0  0  0  0  0  0
   35.1487   26.6309    3.3354 C   0  0  2  0  0  0  0  0  0  0  0  0
   36.5786   27.0725    3.0713 C   0  0  1  0  0  0  0  0  0  0  0  0
   36.8541   26.9635    1.5602 C   0  0  1  0  0  0  0  0  0  0  0  0
   39.1364   25.3048    5.7468 C   0  0  2  0  0  0  0  0  0  0  0  0
   40.1749   26.3368    6.2926 C   0  0  1  0  0  0  0  0  0  0  0  0
  1  3  1  0  0  0  0
  4  1  1  1  0  0  0
  4  6  1  0  0  0  0
  4 31  1  0  0  0  0
  6  7  1  0  0  0  0
  7  9  1  1  0  0  0
  7 30  1  0  0  0  0
  8 26  1  0  0  0  0
 10  9  1  1  0  0  0
 10 13  1  0  0  0  0
 10 21  1  0  0  0  0
 13 12  1  1  0  0  0
 13 15  1  0  0  0  0
 15  2  1  1  0  0  0
 15 17  1  0  0  0  0
 16 25  1  0  0  0  0
 16 23  1  0  0  0  0
 17 19  1  0  0  0  0
 19  5  1  6  0  0  0
 19 21  1  0  0  0  0
 21 14  1  6  0  0  0
 23 14  1  1  0  0  0
 23 29  1  0  0  0  0
 25 26  1  6  0  0  0
 25 27  1  0  0  0  0
 27 18  1  1  0  0  0
 27 28  1  0  0  0  0
 28 20  1  6  0  0  0
 28 29  1  0  0  0  0
 29 11  1  1  0  0  0
 30 22  1  6  0  0  0
 30 31  1  0  0  0  0
 31 24  1  6  0  0  0
M  END
>  <CHROM.1>
57.57639058,-60.34895838,66.74759696,174.82882296,170.29772782,162.78934199
38.62499554,25.11692457,3.09569518,-0.06658167,-0.30142792,1.17115343

>  <Name>
ligand

>  <RI>
0

>  <Rbt.Current_Directory>
/home/itssahil/PROJECTS/Mol_Feturizer/New_Systems/rnas/2ET5

>  <Rbt.Executable>
rbdock ($Id: //depot/dev/client3/rdock/2013.1/src/exe/rbdock.cxx#4 $)

>  <Rbt.Library>
libRbt.so (2013.1, Build901 2013/11/27)

>  <Rbt.Parameter_File>
/export/apps/rDock/src/rDock_2013.1_src/data/scripts/dock_solv.prm

>  <Rbt.Receptor>
prm/pocket_docking_4.prm

>  <SCORE>
-7.38326

>  <SCORE.INTER>
-4.04865

>  <SCORE.INTER.CONST>
1

>  <SCORE.INTER.POLAR>
0

>  <SCORE.INTER.ROT>
6

>  <SCORE.INTER.SOLV>
11.6179

>  <SCORE.INTER.VDW>
-14.1717

>  <SCORE.INTER.norm>
-0.130602

>  <SCORE.INTRA>
-3.35215

>  <SCORE.INTRA.DIHEDRAL>
-9.26772

>  <SCORE.INTRA.DIHEDRAL.0>
11.2357

>  <SCORE.INTRA.POLAR>
0

>  <SCORE.INTRA.POLAR.0>
0

>  <SCORE.INTRA.REPUL>
0

>  <SCORE.INTRA.REPUL.0>
0

>  <SCORE.INTRA.SOLV>
1.6173

>  <SCORE.INTRA.SOLV.lig_0>
-83.3092

>  <SCORE.INTRA.VDW>
0.473056

>  <SCORE.INTRA.VDW.0>
-4.47057

>  <SCORE.INTRA.norm>
-0.108134

>  <SCORE.RESTR>
0.017545

>  <SCORE.RESTR.CAVITY>
0.017545

>  <SCORE.RESTR.norm>
0.000565969

>  <SCORE.SYSTEM>
0

>  <SCORE.SYSTEM.CONST>
0

>  <SCORE.SYSTEM.DIHEDRAL>
0

>  <SCORE.SYSTEM.SOLV>
0

>  <SCORE.SYSTEM.norm>
0

>  <SCORE.heavy>
31

>  <SCORE.norm>
-0.23817

>  <RMSD>
6.590

$$$$
ligand
 OpenBabel11021811433D
libRbt.so/2013.1/901 2013/11/27
 31 33  0  0  0  0  0  0  0  0999 V2000
   33.3840   23.7399    4.0275 C   0  0  0  0  0  0  0  0  0  0  0  0
   37.6847   31.4636    4.3676 N   0  0  0  0  0  0  0  0  0  0  0  0
   34.7890   23.4569    4.1018 O   0  0  0  0  0  0  0  0  0  0  0  0
   33.3150   25.2194    3.6584 C   0  0  1  0  0  0  0  0  0  0  0  0
   40.0761   27.9470    1.6029 N   0  0  0  0  0  0  0  0  0  0  0  0
   34.1231   26.1389    4.5559 O   0  0  0  0  0  0  0  0  0  0  0  0
   35.2670   26.6205    3.9628 C   0  0  1  0  0  0  0  0  0  0  0  0
   37.4404   25.8081   -1.0926 N   0  0  0  0  0  0  0  0  0  0  0  0
   36.4664   26.5271    4.6798 O   0  0  0  0  0  0  0  0  0  0  0  0
   37.6104   27.4835    4.4994 C   0  0  2  0  0  0  0  0  0  0  0  0
   39.5701   23.4941    4.5683 N   0  0  0  0  0  0  0  0  0  0  0  0
   36.3874   29.1914    5.8330 O   0  0  0  0  0  0  0  0  0  0  0  0
   37.0438   28.9337    4.5368 C   0  0  1  0  0  0  0  0  0  0  0  0
   38.8488   25.9603    3.0932 O   0  0  0  0  0  0  0  0  0  0  0  0
   38.2310   30.0021    4.3322 C   0  0  1  0  0  0  0  0  0  0  0  0
   37.6454   24.6213    1.5363 O   0  0  0  0  0  0  0  0  0  0  0  0
   38.9172   29.6984    2.9297 C   0  0  0  0  0  0  0  0  0  0  0  0
   40.5886   23.1681   -0.2236 O   0  0  0  0  0  0  0  0  0  0  0  0
   39.4432   28.2031    2.9391 C   0  0  1  0  0  0  0  0  0  0  0  0
   40.9747   22.0895    2.3921 O   0  0  0  0  0  0  0  0  0  0  0  0
   38.3197   27.2285    3.0954 C   0  0  2  0  0  0  0  0  0  0  0  0
   35.9420   26.8337    1.6851 O   0  0  0  0  0  0  0  0  0  0  0  0
   38.1442   24.7000    2.9528 C   0  0  1  0  0  0  0  0  0  0  0  0
   33.1766   26.8597    1.8020 O   0  0  0  0  0  0  0  0  0  0  0  0
   38.7206   24.5403    0.4610 C   0  0  2  0  0  0  0  0  0  0  0  0
   38.0689   24.4958   -0.9162 C   0  0  0  0  0  0  0  0  0  0  0  0
   39.5686   23.2762    0.7325 C   0  0  2  0  0  0  0  0  0  0  0  0
   40.1736   23.3207    2.1257 C   0  0  1  0  0  0  0  0  0  0  0  0
   39.0323   23.4449    3.1521 C   0  0  1  0  0  0  0  0  0  0  0  0
   35.3076   25.9927    2.5791 C   0  0  2  0  0  0  0  0  0  0  0  0
   33.8173   25.6383    2.2717 C   0  0  1  0  0  0  0  0  0  0  0  0
  1  3  1  0  0  0  0
  4  1  1  1  0  0  0
  4  6  1  0  0  0  0
  4 31  1  0  0  0  0
  6  7  1  0  0  0  0
  7  9  1  1  0  0  0
  7 30  1  0  0  0  0
  8 26  1  0  0  0  0
 10  9  1  6  0  0  0
 10 13  1  0  0  0  0
 10 21  1  0  0  0  0
 13 12  1  1  0  0  0
 13 15  1  0  0  0  0
 15  2  1  6  0  0  0
 15 17  1  0  0  0  0
 16 25  1  0  0  0  0
 16 23  1  0  0  0  0
 17 19  1  0  0  0  0
 19  5  1  6  0  0  0
 19 21  1  0  0  0  0
 21 14  1  1  0  0  0
 23 14  1  6  0  0  0
 23 29  1  0  0  0  0
 25 26  1  6  0  0  0
 25 27  1  0  0  0  0
 27 18  1  6  0  0  0
 27 28  1  0  0  0  0
 28 20  1  1  0  0  0
 28 29  1  0  0  0  0
 29 11  1  1  0  0  0
 30 22  1  6  0  0  0
 30 31  1  0  0  0  0
 31 24  1  1  0  0  0
M  END
>  <CHROM.1>
-52.39355664,-151.82749628,47.84978562,69.71562342,75.34617430,66.95141637
37.33408570,25.97842963,2.78401864,2.22053258,0.26220460,0.38369924

>  <Name>
ligand

>  <RI>
0

>  <Rbt.Current_Directory>
/home/itssahil/PROJECTS/Mol_Feturizer/New_Systems/rnas/2ET5

>  <Rbt.Executable>
rbdock ($Id: //depot/dev/client3/rdock/2013.1/src/exe/rbdock.cxx#4 $)

>  <Rbt.Library>
libRbt.so (2013.1, Build901 2013/11/27)

>  <Rbt.Parameter_File>
/export/apps/rDock/src/rDock_2013.1_src/data/scripts/dock_solv.prm

>  <Rbt.Receptor>
prm/pocket_docking_6.prm

>  <SCORE>
-7.74678

>  <SCORE.INTER>
-4.91152

>  <SCORE.INTER.CONST>
1

>  <SCORE.INTER.POLAR>
0

>  <SCORE.INTER.ROT>
6

>  <SCORE.INTER.SOLV>
12.9607

>  <SCORE.INTER.VDW>
-15.1946

>  <SCORE.INTER.norm>
-0.158436

>  <SCORE.INTRA>
-2.83526

>  <SCORE.INTRA.DIHEDRAL>
-5.28574

>  <SCORE.INTRA.DIHEDRAL.0>
11.2357

>  <SCORE.INTRA.POLAR>
0

>  <SCORE.INTRA.POLAR.0>
0

>  <SCORE.INTRA.REPUL>
0.0150744

>  <SCORE.INTRA.REPUL.0>
0

>  <SCORE.INTRA.SOLV>
-0.90546

>  <SCORE.INTRA.SOLV.lig_0>
-83.3092

>  <SCORE.INTRA.VDW>
0.184972

>  <SCORE.INTRA.VDW.0>
-4.47057

>  <SCORE.INTRA.norm>
-0.0914599

>  <SCORE.RESTR>
0

>  <SCORE.RESTR.CAVITY>
0

>  <SCORE.RESTR.norm>
0

>  <SCORE.SYSTEM>
0

>  <SCORE.SYSTEM.CONST>
0

>  <SCORE.SYSTEM.DIHEDRAL>
0

>  <SCORE.SYSTEM.SOLV>
0

>  <SCORE.SYSTEM.norm>
0

>  <SCORE.heavy>
31

>  <SCORE.norm>
-0.249896

>  <RMSD>
6.593

$$$$
ligand
 OpenBabel11021811433D
libRbt.so/2013.1/901 2013/11/27
 31 33  0  0  0  0  0  0  0  0999 V2000
   41.0537   22.5292   -1.3093 C   0  0  0  0  0  0  0  0  0  0  0  0
   41.2924   29.1177   -1.0649 N   0  0  0  0  0  0  0  0  0  0  0  0
   41.8081   23.4566   -2.1032 O   0  0  0  0  0  0  0  0  0  0  0  0
   41.4193   22.8792    0.1308 C   0  0  1  0  0  0  0  0  0  0  0  0
   40.3243   29.0391    3.9135 N   0  0  0  0  0  0  0  0  0  0  0  0
   41.0261   24.2792    0.5663 O   0  0  0  0  0  0  0  0  0  0  0  0
   39.9514   24.3068    1.4245 C   0  0  1  0  0  0  0  0  0  0  0  0
   42.2636   24.9291    5.3401 N   0  0  0  0  0  0  0  0  0  0  0  0
   38.9057   25.1930    1.1373 O   0  0  0  0  0  0  0  0  0  0  0  0
   39.0608   26.6866    1.1652 C   0  0  2  0  0  0  0  0  0  0  0  0
   35.9768   26.1576    4.4991 N   0  0  0  0  0  0  0  0  0  0  0  0
   39.5642   26.6756   -1.2716 O   0  0  0  0  0  0  0  0  0  0  0  0
   40.0698   27.0927    0.0505 C   0  0  1  0  0  0  0  0  0  0  0  0
   38.7035   26.8223    3.5495 O   0  0  0  0  0  0  0  0  0  0  0  0
   40.2847   28.6885    0.0467 C   0  0  1  0  0  0  0  0  0  0  0  0
   39.5024   24.8436    4.6038 O   0  0  0  0  0  0  0  0  0  0  0  0
   40.8286   29.1058    1.4821 C   0  0  0  0  0  0  0  0  0  0  0  0
   39.2913   26.0534    8.1198 O   0  0  0  0  0  0  0  0  0  0  0  0
   39.7790   28.6387    2.5742 C   0  0  1  0  0  0  0  0  0  0  0  0
   36.5304   26.1143    7.3928 O   0  0  0  0  0  0  0  0  0  0  0  0
   39.6223   27.1514    2.5822 C   0  0  2  0  0  0  0  0  0  0  0  0
   38.9718   22.6593    2.8442 O   0  0  0  0  0  0  0  0  0  0  0  0
   38.2994   25.4978    3.9824 C   0  0  1  0  0  0  0  0  0  0  0  0
   41.6375   22.0264    2.4505 O   0  0  0  0  0  0  0  0  0  0  0  0
   40.0159   25.4865    5.8850 C   0  0  2  0  0  0  0  0  0  0  0  0
   41.2479   24.7371    6.3791 C   0  0  0  0  0  0  0  0  0  0  0  0
   38.8718   25.4523    6.9244 C   0  0  2  0  0  0  0  0  0  0  0  0
   37.6397   26.1671    6.3952 C   0  0  1  0  0  0  0  0  0  0  0  0
   37.2064   25.4898    5.0818 C   0  0  1  0  0  0  0  0  0  0  0  0
   39.5233   22.8580    1.5930 C   0  0  2  0  0  0  0  0  0  0  0  0
   40.8067   22.0339    1.2536 C   0  0  1  0  0  0  0  0  0  0  0  0
  1  3  1  0  0  0  0
  4  1  1  6  0  0  0
  4  6  1  0  0  0  0
  4 31  1  0  0  0  0
  6  7  1  0  0  0  0
  7  9  1  6  0  0  0
  7 30  1  0  0  0  0
  8 26  1  0  0  0  0
 10  9  1  1  0  0  0
 10 13  1  0  0  0  0
 10 21  1  0  0  0  0
 13 12  1  6  0  0  0
 13 15  1  0  0  0  0
 15  2  1  6  0  0  0
 15 17  1  0  0  0  0
 16 25  1  0  0  0  0
 16 23  1  0  0  0  0
 17 19  1  0  0  0  0
 19  5  1  1  0  0  0
 19 21  1  0  0  0  0
 21 14  1  1  0  0  0
 23 14  1  1  0  0  0
 23 29  1  0  0  0  0
 25 26  1  1  0  0  0
 25 27  1  0  0  0  0
 27 18  1  1  0  0  0
 27 28  1  0  0  0  0
 28 20  1  1  0  0  0
 28 29  1  0  0  0  0
 29 11  1  6  0  0  0
 30 22  1  1  0  0  0
 30 31  1  0  0  0  0
 31 24  1  1  0  0  0
M  END
>  <CHROM.1>
62.55526987,-65.55017591,64.36608063,64.60298514,66.64255202,64.03353095
39.72745517,25.51874135,2.75936809,-0.34245006,-1.22374347,2.62165782

>  <Name>
ligand

>  <RI>
0

>  <Rbt.Current_Directory>
/home/itssahil/PROJECTS/Mol_Feturizer/New_Systems/rnas/2ET5

>  <Rbt.Executable>
rbdock ($Id: //depot/dev/client3/rdock/2013.1/src/exe/rbdock.cxx#4 $)

>  <Rbt.Library>
libRbt.so (2013.1, Build901 2013/11/27)

>  <Rbt.Parameter_File>
/export/apps/rDock/src/rDock_2013.1_src/data/scripts/dock_solv.prm

>  <Rbt.Receptor>
prm/pocket_docking_8.prm

>  <SCORE>
-6.74459

>  <SCORE.INTER>
-0.151239

>  <SCORE.INTER.CONST>
1

>  <SCORE.INTER.POLAR>
0

>  <SCORE.INTER.ROT>
6

>  <SCORE.INTER.SOLV>
8.36004

>  <SCORE.INTER.VDW>
-10.4875

>  <SCORE.INTER.norm>
-0.00487868

>  <SCORE.INTRA>
-6.59335

>  <SCORE.INTRA.DIHEDRAL>
-10.4511

>  <SCORE.INTRA.DIHEDRAL.0>
11.2357

>  <SCORE.INTRA.POLAR>
0

>  <SCORE.INTRA.POLAR.0>
0

>  <SCORE.INTRA.REPUL>
0

>  <SCORE.INTRA.REPUL.0>
0

>  <SCORE.INTRA.SOLV>
-3.38234

>  <SCORE.INTRA.SOLV.lig_0>
-83.3092

>  <SCORE.INTRA.VDW>
0.32336

>  <SCORE.INTRA.VDW.0>
-4.47057

>  <SCORE.INTRA.norm>
-0.212689

>  <SCORE.RESTR>
0

>  <SCORE.RESTR.CAVITY>
0

>  <SCORE.RESTR.norm>
0

>  <SCORE.SYSTEM>
0

>  <SCORE.SYSTEM.CONST>
0

>  <SCORE.SYSTEM.DIHEDRAL>
0

>  <SCORE.SYSTEM.SOLV>
0

>  <SCORE.SYSTEM.norm>
0

>  <SCORE.heavy>
31

>  <SCORE.norm>
-0.217567

>  <RMSD>
6.593

$$$$
ligand
 OpenBabel11021811433D
libRbt.so/2013.1/901 2013/11/27
 31 33  0  0  0  0  0  0  0  0999 V2000
   45.9624   20.0714    2.7124 C   0  0  0  0  0  0  0  0  0  0  0  0
   42.4753   24.7478    6.4899 N   0  0  0  0  0  0  0  0  0  0  0  0
   46.0390   21.2307    1.8699 O   0  0  0  0  0  0  0  0  0  0  0  0
   44.4681   19.7781    2.8174 C   0  0  1  0  0  0  0  0  0  0  0  0
   38.4631   24.2777    3.4224 N   0  0  0  0  0  0  0  0  0  0  0  0
   43.6036   20.9815    3.1470 O   0  0  0  0  0  0  0  0  0  0  0  0
   42.8681   21.4396    2.0787 C   0  0  1  0  0  0  0  0  0  0  0  0
   44.2323   25.2536    0.7608 N   0  0  0  0  0  0  0  0  0  0  0  0
   42.9041   22.8111    1.7978 O   0  0  0  0  0  0  0  0  0  0  0  0
   42.1850   23.8399    2.6227 C   0  0  2  0  0  0  0  0  0  0  0  0
   38.0850   24.1538   -0.7444 N   0  0  0  0  0  0  0  0  0  0  0  0
   44.1631   24.0142    4.1221 O   0  0  0  0  0  0  0  0  0  0  0  0
   42.7123   23.7474    4.0852 C   0  0  1  0  0  0  0  0  0  0  0  0
   40.1605   23.6799    1.3163 O   0  0  0  0  0  0  0  0  0  0  0  0
   41.9605   24.8228    5.0185 C   0  0  1  0  0  0  0  0  0  0  0  0
   41.4892   25.3735    0.3007 O   0  0  0  0  0  0  0  0  0  0  0  0
   40.4023   24.5092    4.9576 C   0  0  0  0  0  0  0  0  0  0  0  0
   42.5291   23.4321   -2.7027 O   0  0  0  0  0  0  0  0  0  0  0  0
   39.9315   24.5854    3.4459 C   0  0  1  0  0  0  0  0  0  0  0  0
   39.7088   23.5619   -3.1307 O   0  0  0  0  0  0  0  0  0  0  0  0
   40.6173   23.5551    2.6063 C   0  0  2  0  0  0  0  0  0  0  0  0
   42.1811   20.4239    0.0327 O   0  0  0  0  0  0  0  0  0  0  0  0
   40.0829   24.8834    0.5099 C   0  0  1  0  0  0  0  0  0  0  0  0
   42.5785   18.4416    1.9233 O   0  0  0  0  0  0  0  0  0  0  0  0
   42.3909   24.4621   -0.5207 C   0  0  2  0  0  0  0  0  0  0  0  0
   43.7840   25.0723   -0.6228 C   0  0  0  0  0  0  0  0  0  0  0  0
   41.7427   24.2830   -1.9130 C   0  0  2  0  0  0  0  0  0  0  0  0
   40.3393   23.7142   -1.7862 C   0  0  1  0  0  0  0  0  0  0  0  0
   39.5021   24.6652   -0.9109 C   0  0  1  0  0  0  0  0  0  0  0  0
   43.2431   20.5451    0.9083 C   0  0  2  0  0  0  0  0  0  0  0  0
   43.7547   19.2286    1.5765 C   0  0  1  0  0  0  0  0  0  0  0  0
  1  3  1  0  0  0  0
  4  1  1  6  0  0  0
  4  6  1  0  0  0  0
  4 31  1  0  0  0  0
  6  7  1  0  0  0  0
  7  9  1  6  0  0  0
  7 30  1  0  0  0  0
  8 26  1  0  0  0  0
 10  9  1  6  0  0  0
 10 13  1  0  0  0  0
 10 21  1  0  0  0  0
 13 12  1  6  0  0  0
 13 15  1  0  0  0  0
 15  2  1  1  0  0  0
 15 17  1  0  0  0  0
 16 25  1  0  0  0  0
 16 23  1  0  0  0  0
 17 19  1  0  0  0  0
 19  5  1  1  0  0  0
 19 21  1  0  0  0  0
 21 14  1  6  0  0  0
 23 14  1  1  0  0  0
 23 29  1  0  0  0  0
 25 26  1  6  0  0  0
 25 27  1  0  0  0  0
 27 18  1  6  0  0  0
 27 28  1  0  0  0  0
 28 20  1  6  0  0  0
 28 29  1  0  0  0  0
 29 11  1  1  0  0  0
 30 22  1  6  0  0  0
 30 31  1  0  0  0  0
 31 24  1  1  0  0  0
M  END
>  <CHROM.1>
-48.14215476,-74.36866667,58.97032551,63.68407042,-67.40317361,57.17166726
42.11079748,23.05143508,1.46270440,-0.53782702,0.81171615,-1.79929415

>  <Name>
ligand

>  <RI>
0

>  <Rbt.Current_Directory>
/home/itssahil/PROJECTS/Mol_Feturizer/New_Systems/rnas/2ET5

>  <Rbt.Executable>
rbdock ($Id: //depot/dev/client3/rdock/2013.1/src/exe/rbdock.cxx#4 $)

>  <Rbt.Library>
libRbt.so (2013.1, Build901 2013/11/27)

>  <Rbt.Parameter_File>
/export/apps/rDock/src/rDock_2013.1_src/data/scripts/dock_solv.prm

>  <Rbt.Receptor>
prm/pocket_docking_5.prm

>  <SCORE>
-10.2214

>  <SCORE.INTER>
-6.19938

>  <SCORE.INTER.CONST>
1

>  <SCORE.INTER.POLAR>
0

>  <SCORE.INTER.ROT>
6

>  <SCORE.INTER.SOLV>
19.178

>  <SCORE.INTER.VDW>
-18.1256

>  <SCORE.INTER.norm>
-0.19998

>  <SCORE.INTRA>
-4.02198

>  <SCORE.INTRA.DIHEDRAL>
-9.28518

>  <SCORE.INTRA.DIHEDRAL.0>
11.2357

>  <SCORE.INTRA.POLAR>
0

>  <SCORE.INTRA.POLAR.0>
0

>  <SCORE.INTRA.REPUL>
0

>  <SCORE.INTRA.REPUL.0>
0

>  <SCORE.INTRA.SOLV>
0.562003

>  <SCORE.INTRA.SOLV.lig_0>
-83.3092

>  <SCORE.INTRA.VDW>
0.339608

>  <SCORE.INTRA.VDW.0>
-4.47057

>  <SCORE.INTRA.norm>
-0.129741

>  <SCORE.RESTR>
0

>  <SCORE.RESTR.CAVITY>
0

>  <SCORE.RESTR.norm>
0

>  <SCORE.SYSTEM>
0

>  <SCORE.SYSTEM.CONST>
0

>  <SCORE.SYSTEM.DIHEDRAL>
0

>  <SCORE.SYSTEM.SOLV>
0

>  <SCORE.SYSTEM.norm>
0

>  <SCORE.heavy>
31

>  <SCORE.norm>
-0.329721

>  <RMSD>
6.611

$$$$
ligand
 OpenBabel11021811433D
libRbt.so/2013.1/901 2013/11/27
 31 33  0  0  0  0  0  0  0  0999 V2000
   45.1601   21.0779    2.7728 C   0  0  0  0  0  0  0  0  0  0  0  0
   40.1408   24.4131    6.1922 N   0  0  0  0  0  0  0  0  0  0  0  0
   46.0165   19.9393    2.6002 O   0  0  0  0  0  0  0  0  0  0  0  0
   43.7570   20.4845    2.8705 C   0  0  1  0  0  0  0  0  0  0  0  0
   36.9459   24.4160    2.2525 N   0  0  0  0  0  0  0  0  0  0  0  0
   42.6467   21.5015    3.0630 O   0  0  0  0  0  0  0  0  0  0  0  0
   41.8783   21.6963    1.9388 C   0  0  1  0  0  0  0  0  0  0  0  0
   42.5026   22.3172   -1.7415 N   0  0  0  0  0  0  0  0  0  0  0  0
   41.6387   23.0138    1.5287 O   0  0  0  0  0  0  0  0  0  0  0  0
   40.7508   23.9624    2.2822 C   0  0  2  0  0  0  0  0  0  0  0  0
   37.4232   26.2164   -0.5441 N   0  0  0  0  0  0  0  0  0  0  0  0
   42.3288   23.9053    4.2052 O   0  0  0  0  0  0  0  0  0  0  0  0
   40.9252   23.6876    3.8052 C   0  0  1  0  0  0  0  0  0  0  0  0
   39.0830   24.0129    0.5366 O   0  0  0  0  0  0  0  0  0  0  0  0
   39.9805   24.6710    4.6614 C   0  0  1  0  0  0  0  0  0  0  0  0
   40.8221   24.6529   -0.9570 O   0  0  0  0  0  0  0  0  0  0  0  0
   38.4779   24.4128    4.2080 C   0  0  0  0  0  0  0  0  0  0  0  0
   39.2688   23.3602   -4.0855 O   0  0  0  0  0  0  0  0  0  0  0  0
   38.3698   24.6753    2.6485 C   0  0  1  0  0  0  0  0  0  0  0  0
   37.3702   25.3679   -3.3652 O   0  0  0  0  0  0  0  0  0  0  0  0
   39.2287   23.7279    1.8730 C   0  0  2  0  0  0  0  0  0  0  0  0
   41.5077   20.3805   -0.0159 O   0  0  0  0  0  0  0  0  0  0  0  0
   39.6197   25.1428   -0.1983 C   0  0  1  0  0  0  0  0  0  0  0  0
   42.2291   18.7035    2.0648 O   0  0  0  0  0  0  0  0  0  0  0  0
   40.5421   23.6292   -2.0490 C   0  0  2  0  0  0  0  0  0  0  0  0
   41.8507   23.2070   -2.7067 C   0  0  0  0  0  0  0  0  0  0  0  0
   39.5737   24.2745   -3.0670 C   0  0  2  0  0  0  0  0  0  0  0  0
   38.2941   24.7269   -2.3834 C   0  0  1  0  0  0  0  0  0  0  0  0
   38.6602   25.7240   -1.2684 C   0  0  1  0  0  0  0  0  0  0  0  0
   42.4821   20.8016    0.8686 C   0  0  2  0  0  0  0  0  0  0  0  0
   43.2284   19.6883    1.6717 C   0  0  1  0  0  0  0  0  0  0  0  0
  1  3  1  0  0  0  0
  4  1  1  6  0  0  0
  4  6  1  0  0  0  0
  4 31  1  0  0  0  0
  6  7  1  0  0  0  0
  7  9  1  6  0  0  0
  7 30  1  0  0  0  0
  8 26  1  0  0  0  0
 10  9  1  6  0  0  0
 10 13  1  0  0  0  0
 10 21  1  0  0  0  0
 13 12  1  1  0  0  0
 13 15  1  0  0  0  0
 15  2  1  1  0  0  0
 15 17  1  0  0  0  0
 16 25  1  0  0  0  0
 16 23  1  0  0  0  0
 17 19  1  0  0  0  0
 19  5  1  6  0  0  0
 19 21  1  0  0  0  0
 21 14  1  6  0  0  0
 23 14  1  6  0  0  0
 23 29  1  0  0  0  0
 25 26  1  6  0  0  0
 25 27  1  0  0  0  0
 27 18  1  6  0  0  0
 27 28  1  0  0  0  0
 28 20  1  6  0  0  0
 28 29  1  0  0  0  0
 29 11  1  1  0  0  0
 30 22  1  6  0  0  0
 30 31  1  0  0  0  0
 31 24  1  1  0  0  0
M  END
>  <CHROM.1>
179.86397508,-70.47485921,35.93256834,101.90289162,-44.26288839,74.94462149
40.76444556,23.11802222,0.93825127,-0.61337952,0.71924812,-1.64180880

>  <Name>
ligand

>  <RI>
0

>  <Rbt.Current_Directory>
/home/itssahil/PROJECTS/Mol_Feturizer/New_Systems/rnas/2ET5

>  <Rbt.Executable>
rbdock ($Id: //depot/dev/client3/rdock/2013.1/src/exe/rbdock.cxx#4 $)

>  <Rbt.Library>
libRbt.so (2013.1, Build901 2013/11/27)

>  <Rbt.Parameter_File>
/export/apps/rDock/src/rDock_2013.1_src/data/scripts/dock_solv.prm

>  <Rbt.Receptor>
prm/pocket_docking_2.prm

>  <SCORE>
-0.270623

>  <SCORE.INTER>
-3.44747

>  <SCORE.INTER.CONST>
1

>  <SCORE.INTER.POLAR>
0

>  <SCORE.INTER.ROT>
6

>  <SCORE.INTER.SOLV>
20.9138

>  <SCORE.INTER.VDW>
-16.8696

>  <SCORE.INTER.norm>
-0.111209

>  <SCORE.INTRA>
2.14763

>  <SCORE.INTRA.DIHEDRAL>
-0.512779

>  <SCORE.INTRA.DIHEDRAL.0>
11.2357

>  <SCORE.INTRA.POLAR>
0

>  <SCORE.INTRA.POLAR.0>
0

>  <SCORE.INTRA.REPUL>
0

>  <SCORE.INTRA.REPUL.0>
0

>  <SCORE.INTRA.SOLV>
1.74923

>  <SCORE.INTRA.SOLV.lig_0>
-83.3092

>  <SCORE.INTRA.VDW>
1.5294

>  <SCORE.INTRA.VDW.0>
-4.47057

>  <SCORE.INTRA.norm>
0.0692783

>  <SCORE.RESTR>
1.02922

>  <SCORE.RESTR.CAVITY>
1.02922

>  <SCORE.RESTR.norm>
0.0332006

>  <SCORE.SYSTEM>
0

>  <SCORE.SYSTEM.CONST>
0

>  <SCORE.SYSTEM.DIHEDRAL>
0

>  <SCORE.SYSTEM.SOLV>
0

>  <SCORE.SYSTEM.norm>
0

>  <SCORE.heavy>
31

>  <SCORE.norm>
-0.00872976

>  <RMSD>
6.616

$$$$
ligand
 OpenBabel11021811433D
libRbt.so/2013.1/901 2013/11/27
 31 33  0  0  0  0  0  0  0  0999 V2000
   42.0593   22.6990   -1.9384 C   0  0  0  0  0  0  0  0  0  0  0  0
   45.1977   19.8017    2.2352 N   0  0  0  0  0  0  0  0  0  0  0  0
   41.8830   23.3513   -3.2045 O   0  0  0  0  0  0  0  0  0  0  0  0
   40.6427   22.5480   -1.3902 C   0  0  1  0  0  0  0  0  0  0  0  0
   45.0927   24.3355    4.5072 N   0  0  0  0  0  0  0  0  0  0  0  0
   40.5544   21.8949   -0.0228 O   0  0  0  0  0  0  0  0  0  0  0  0
   40.2502   22.7758    0.9889 C   0  0  1  0  0  0  0  0  0  0  0  0
   40.2591   26.0601    7.5016 N   0  0  0  0  0  0  0  0  0  0  0  0
   41.0427   22.7476    2.1432 O   0  0  0  0  0  0  0  0  0  0  0  0
   42.5442   22.7695    2.1121 C   0  0  2  0  0  0  0  0  0  0  0  0
   41.4419   27.1188    1.7581 N   0  0  0  0  0  0  0  0  0  0  0  0
   42.5503   20.5294    1.0289 O   0  0  0  0  0  0  0  0  0  0  0  0
   43.0547   21.2998    2.1820 C   0  0  1  0  0  0  0  0  0  0  0  0
   42.6795   24.8875    3.2641 O   0  0  0  0  0  0  0  0  0  0  0  0
   44.6644   21.2668    2.1670 C   0  0  1  0  0  0  0  0  0  0  0  0
   41.1268   25.2769    5.0256 O   0  0  0  0  0  0  0  0  0  0  0  0
   45.1761   22.1040    3.4191 C   0  0  0  0  0  0  0  0  0  0  0  0
   42.6618   28.4069    6.3362 O   0  0  0  0  0  0  0  0  0  0  0  0
   44.5995   23.5766    3.3105 C   0  0  1  0  0  0  0  0  0  0  0  0
   41.9029   29.2672    3.7211 O   0  0  0  0  0  0  0  0  0  0  0  0
   43.1049   23.5845    3.3614 C   0  0  2  0  0  0  0  0  0  0  0  0
   39.2420   24.9375    1.0036 O   0  0  0  0  0  0  0  0  0  0  0  0
   41.3592   25.4183    3.5466 C   0  0  1  0  0  0  0  0  0  0  0  0
   38.3862   23.5693   -1.2453 O   0  0  0  0  0  0  0  0  0  0  0  0
   42.0351   26.1103    5.9195 C   0  0  2  0  0  0  0  0  0  0  0  0
   41.7037   25.8423    7.3830 C   0  0  0  0  0  0  0  0  0  0  0  0
   41.8289   27.5976    5.5505 C   0  0  2  0  0  0  0  0  0  0  0  0
   42.1228   27.8346    4.0785 C   0  0  1  0  0  0  0  0  0  0  0  0
   41.1989   26.9300    3.2422 C   0  0  1  0  0  0  0  0  0  0  0  0
   40.1459   24.1405    0.3276 C   0  0  2  0  0  0  0  0  0  0  0  0
   39.8190   23.8217   -1.1667 C   0  0  1  0  0  0  0  0  0  0  0  0
  1  3  1  0  0  0  0
  4  1  1  1  0  0  0
  4  6  1  0  0  0  0
  4 31  1  0  0  0  0
  6  7  1  0  0  0  0
  7  9  1  1  0  0  0
  7 30  1  0  0  0  0
  8 26  1  0  0  0  0
 10  9  1  1  0  0  0
 10 13  1  0  0  0  0
 10 21  1  0  0  0  0
 13 12  1  6  0  0  0
 13 15  1  0  0  0  0
 15  2  1  1  0  0  0
 15 17  1  0  0  0  0
 16 25  1  0  0  0  0
 16 23  1  0  0  0  0
 17 19  1  0  0  0  0
 19  5  1  1  0  0  0
 19 21  1  0  0  0  0
 21 14  1  6  0  0  0
 23 14  1  1  0  0  0
 23 29  1  0  0  0  0
 25 26  1  1  0  0  0
 25 27  1  0  0  0  0
 27 18  1  1  0  0  0
 27 28  1  0  0  0  0
 28 20  1  6  0  0  0
 28 29  1  0  0  0  0
 29 11  1  6  0  0  0
 30 22  1  1  0  0  0
 30 31  1  0  0  0  0
 31 24  1  1  0  0  0
M  END
>  <CHROM.1>
-179.00619852,49.11223635,-95.04829383,67.01339307,76.25156686,-52.77548580
41.91237016,24.28421859,2.45907146,1.66744557,0.78964444,-2.29578209

>  <Name>
ligand

>  <RI>
0

>  <Rbt.Current_Directory>
/home/itssahil/PROJECTS/Mol_Feturizer/New_Systems/rnas/2ET5

>  <Rbt.Executable>
rbdock ($Id: //depot/dev/client3/rdock/2013.1/src/exe/rbdock.cxx#4 $)

>  <Rbt.Library>
libRbt.so (2013.1, Build901 2013/11/27)

>  <Rbt.Parameter_File>
/export/apps/rDock/src/rDock_2013.1_src/data/scripts/dock_solv.prm

>  <Rbt.Receptor>
prm/pocket_docking_6.prm

>  <SCORE>
-9.01768

>  <SCORE.INTER>
-7.00821

>  <SCORE.INTER.CONST>
1

>  <SCORE.INTER.POLAR>
0

>  <SCORE.INTER.ROT>
6

>  <SCORE.INTER.SOLV>
18.7458

>  <SCORE.INTER.VDW>
-18.5207

>  <SCORE.INTER.norm>
-0.226071

>  <SCORE.INTRA>
-2.00947

>  <SCORE.INTRA.DIHEDRAL>
-4.34759

>  <SCORE.INTRA.DIHEDRAL.0>
11.2357

>  <SCORE.INTRA.POLAR>
0

>  <SCORE.INTRA.POLAR.0>
0

>  <SCORE.INTRA.REPUL>
0

>  <SCORE.INTRA.REPUL.0>
0

>  <SCORE.INTRA.SOLV>
-0.222587

>  <SCORE.INTRA.SOLV.lig_0>
-83.3092

>  <SCORE.INTRA.VDW>
0.275617

>  <SCORE.INTRA.VDW.0>
-4.47057

>  <SCORE.INTRA.norm>
-0.0648217

>  <SCORE.RESTR>
0

>  <SCORE.RESTR.CAVITY>
0

>  <SCORE.RESTR.norm>
0

>  <SCORE.SYSTEM>
0

>  <SCORE.SYSTEM.CONST>
0

>  <SCORE.SYSTEM.DIHEDRAL>
0

>  <SCORE.SYSTEM.SOLV>
0

>  <SCORE.SYSTEM.norm>
0

>  <SCORE.heavy>
31

>  <SCORE.norm>
-0.290893

>  <RMSD>
6.652

$$$$
ligand
 OpenBabel11021811433D
libRbt.so/2013.1/901 2013/11/27
 31 33  0  0  0  0  0  0  0  0999 V2000
   34.8742   27.2709    2.0302 C   0  0  0  0  0  0  0  0  0  0  0  0
   36.2552   28.6646    6.5169 N   0  0  0  0  0  0  0  0  0  0  0  0
   33.6747   28.0203    1.7866 O   0  0  0  0  0  0  0  0  0  0  0  0
   34.4317   25.8122    1.9505 C   0  0  1  0  0  0  0  0  0  0  0  0
   39.2887   27.8873    2.5266 N   0  0  0  0  0  0  0  0  0  0  0  0
   35.5301   24.7975    2.2115 O   0  0  0  0  0  0  0  0  0  0  0  0
   35.4268   24.1775    3.4350 C   0  0  1  0  0  0  0  0  0  0  0  0
   37.7768   26.3535   -1.3639 N   0  0  0  0  0  0  0  0  0  0  0  0
   36.5719   24.1191    4.2391 O   0  0  0  0  0  0  0  0  0  0  0  0
   37.3624   25.3330    4.6359 C   0  0  2  0  0  0  0  0  0  0  0  0
   40.1080   22.5327    3.2757 N   0  0  0  0  0  0  0  0  0  0  0  0
   35.8296   25.6964    6.5621 O   0  0  0  0  0  0  0  0  0  0  0  0
   36.4027   26.3255    5.3565 C   0  0  1  0  0  0  0  0  0  0  0  0
   38.8487   25.1606    2.7406 O   0  0  0  0  0  0  0  0  0  0  0  0
   37.1991   27.6557    5.7911 C   0  0  1  0  0  0  0  0  0  0  0  0
   38.1926   24.3575    0.5982 O   0  0  0  0  0  0  0  0  0  0  0  0
   37.8035   28.3090    4.4728 C   0  0  0  0  0  0  0  0  0  0  0  0
   41.5536   24.4584   -1.0030 O   0  0  0  0  0  0  0  0  0  0  0  0
   38.7424   27.2443    3.7674 C   0  0  1  0  0  0  0  0  0  0  0  0
   42.0158   22.5076    1.0304 O   0  0  0  0  0  0  0  0  0  0  0  0
   37.9744   26.0336    3.3421 C   0  0  2  0  0  0  0  0  0  0  0  0
   33.6099   23.8850    4.9525 O   0  0  0  0  0  0  0  0  0  0  0  0
   38.5358   23.9502    2.0045 C   0  0  1  0  0  0  0  0  0  0  0  0
   32.5952   24.2048    2.3972 O   0  0  0  0  0  0  0  0  0  0  0  0
   39.3296   24.9706   -0.2080 C   0  0  2  0  0  0  0  0  0  0  0  0
   38.8273   25.3578   -1.5941 C   0  0  0  0  0  0  0  0  0  0  0  0
   40.4713   23.9308   -0.2843 C   0  0  2  0  0  0  0  0  0  0  0  0
   40.9277   23.5266    1.1076 C   0  0  1  0  0  0  0  0  0  0  0  0
   39.7192   22.9572    1.8736 C   0  0  1  0  0  0  0  0  0  0  0  0
   34.2131   24.7974    4.1083 C   0  0  2  0  0  0  0  0  0  0  0  0
   33.3474   25.3359    2.9242 C   0  0  1  0  0  0  0  0  0  0  0  0
  1  3  1  0  0  0  0
  4  1  1  1  0  0  0
  4  6  1  0  0  0  0
  4 31  1  0  0  0  0
  6  7  1  0  0  0  0
  7  9  1  1  0  0  0
  7 30  1  0  0  0  0
  8 26  1  0  0  0  0
 10  9  1  6  0  0  0
 10 13  1  0  0  0  0
 10 21  1  0  0  0  0
 13 12  1  1  0  0  0
 13 15  1  0  0  0  0
 15  2  1  6  0  0  0
 15 17  1  0  0  0  0
 16 25  1  0  0  0  0
 16 23  1  0  0  0  0
 17 19  1  0  0  0  0
 19  5  1  6  0  0  0
 19 21  1  0  0  0  0
 21 14  1  1  0  0  0
 23 14  1  1  0  0  0
 23 29  1  0  0  0  0
 25 26  1  6  0  0  0
 25 27  1  0  0  0  0
 27 18  1  6  0  0  0
 27 28  1  0  0  0  0
 28 20  1  6  0  0  0
 28 29  1  0  0  0  0
 29 11  1  1  0  0  0
 30 22  1  6  0  0  0
 30 31  1  0  0  0  0
 31 24  1  6  0  0  0
M  END
>  <CHROM.1>
-178.53176838,54.84122170,56.66991992,83.06261635,71.68014837,61.37868329
37.31127713,25.32124986,2.60861329,2.47665809,-0.09235868,1.21911202

>  <Name>
ligand

>  <RI>
0

>  <Rbt.Current_Directory>
/home/itssahil/PROJECTS/Mol_Feturizer/New_Systems/rnas/2ET5

>  <Rbt.Executable>
rbdock ($Id: //depot/dev/client3/rdock/2013.1/src/exe/rbdock.cxx#4 $)

>  <Rbt.Library>
libRbt.so (2013.1, Build901 2013/11/27)

>  <Rbt.Parameter_File>
/export/apps/rDock/src/rDock_2013.1_src/data/scripts/dock_solv.prm

>  <Rbt.Receptor>
prm/pocket_docking_5.prm

>  <SCORE>
-9.82368

>  <SCORE.INTER>
-5.45667

>  <SCORE.INTER.CONST>
1

>  <SCORE.INTER.POLAR>
0

>  <SCORE.INTER.ROT>
6

>  <SCORE.INTER.SOLV>
11.8261

>  <SCORE.INTER.VDW>
-15.1798

>  <SCORE.INTER.norm>
-0.176022

>  <SCORE.INTRA>
-4.4228

>  <SCORE.INTRA.DIHEDRAL>
-7.94722

>  <SCORE.INTRA.DIHEDRAL.0>
11.2357

>  <SCORE.INTRA.POLAR>
0

>  <SCORE.INTRA.POLAR.0>
0

>  <SCORE.INTRA.REPUL>
0.15669

>  <SCORE.INTRA.REPUL.0>
0

>  <SCORE.INTRA.SOLV>
-2.38306

>  <SCORE.INTRA.SOLV.lig_0>
-83.3092

>  <SCORE.INTRA.VDW>
-0.0411102

>  <SCORE.INTRA.VDW.0>
-4.47057

>  <SCORE.INTRA.norm>
-0.142671

>  <SCORE.RESTR>
0.055793

>  <SCORE.RESTR.CAVITY>
0.055793

>  <SCORE.RESTR.norm>
0.00179978

>  <SCORE.SYSTEM>
0

>  <SCORE.SYSTEM.CONST>
0

>  <SCORE.SYSTEM.DIHEDRAL>
0

>  <SCORE.SYSTEM.SOLV>
0

>  <SCORE.SYSTEM.norm>
0

>  <SCORE.heavy>
31

>  <SCORE.norm>
-0.316893

>  <RMSD>
6.657

$$$$
ligand
 OpenBabel11021811433D
libRbt.so/2013.1/901 2013/11/27
 31 33  0  0  0  0  0  0  0  0999 V2000
   46.0193   20.0787    2.5894 C   0  0  0  0  0  0  0  0  0  0  0  0
   42.5446   24.7510    6.4461 N   0  0  0  0  0  0  0  0  0  0  0  0
   46.5948   18.8127    2.2347 O   0  0  0  0  0  0  0  0  0  0  0  0
   44.5315   19.7833    2.7603 C   0  0  1  0  0  0  0  0  0  0  0  0
   38.5038   24.3098    3.4120 N   0  0  0  0  0  0  0  0  0  0  0  0
   43.6775   20.9897    3.1057 O   0  0  0  0  0  0  0  0  0  0  0  0
   42.8973   21.4286    2.0612 C   0  0  1  0  0  0  0  0  0  0  0  0
   44.2598   25.2441    0.7414 N   0  0  0  0  0  0  0  0  0  0  0  0
   42.9175   22.7955    1.7571 O   0  0  0  0  0  0  0  0  0  0  0  0
   42.2149   23.8338    2.5843 C   0  0  2  0  0  0  0  0  0  0  0  0
   38.1031   24.1563   -0.7677 N   0  0  0  0  0  0  0  0  0  0  0  0
   44.2064   23.9938    4.0674 O   0  0  0  0  0  0  0  0  0  0  0  0
   42.7528   23.7407    4.0428 C   0  0  1  0  0  0  0  0  0  0  0  0
   40.1785   23.6891    1.2945 O   0  0  0  0  0  0  0  0  0  0  0  0
   42.0189   24.8263    4.9786 C   0  0  1  0  0  0  0  0  0  0  0  0
   41.5025   25.3870    0.2799 O   0  0  0  0  0  0  0  0  0  0  0  0
   40.4573   24.5275    4.9310 C   0  0  0  0  0  0  0  0  0  0  0  0
   42.5510   23.4491   -2.7227 O   0  0  0  0  0  0  0  0  0  0  0  0
   39.9752   24.6034    3.4229 C   0  0  1  0  0  0  0  0  0  0  0  0
   39.7306   23.5698   -3.1529 O   0  0  0  0  0  0  0  0  0  0  0  0
   40.6444   23.5640    2.5812 C   0  0  2  0  0  0  0  0  0  0  0  0
   42.1304   20.3782    0.0617 O   0  0  0  0  0  0  0  0  0  0  0  0
   40.0977   24.8924    0.4880 C   0  0  1  0  0  0  0  0  0  0  0  0
   42.6112   18.4278    1.9661 O   0  0  0  0  0  0  0  0  0  0  0  0
   42.4078   24.4786   -0.5408 C   0  0  2  0  0  0  0  0  0  0  0  0
   43.7990   25.0933   -0.6418 C   0  0  0  0  0  0  0  0  0  0  0  0
   41.7612   24.2975   -1.9336 C   0  0  2  0  0  0  0  0  0  0  0  0
   40.3596   23.7240   -1.8079 C   0  0  1  0  0  0  0  0  0  0  0  0
   39.5187   24.6723   -0.9332 C   0  0  1  0  0  0  0  0  0  0  0  0
   43.2270   20.5162    0.8909 C   0  0  2  0  0  0  0  0  0  0  0  0
   43.7696   19.2120    1.5587 C   0  0  1  0  0  0  0  0  0  0  0  0
  1  3  1  0  0  0  0
  4  1  1  6  0  0  0
  4  6  1  0  0  0  0
  4 31  1  0  0  0  0
  6  7  1  0  0  0  0
  7  9  1  6  0  0  0
  7 30  1  0  0  0  0
  8 26  1  0  0  0  0
 10  9  1  6  0  0  0
 10 13  1  0  0  0  0
 10 21  1  0  0  0  0
 13 12  1  6  0  0  0
 13 15  1  0  0  0  0
 15  2  1  1  0  0  0
 15 17  1  0  0  0  0
 16 25  1  0  0  0  0
 16 23  1  0  0  0  0
 17 19  1  0  0  0  0
 19  5  1  1  0  0  0
 19 21  1  0  0  0  0
 21 14  1  6  0  0  0
 23 14  1  1  0  0  0
 23 29  1  0  0  0  0
 25 26  1  6  0  0  0
 25 27  1  0  0  0  0
 27 18  1  6  0  0  0
 27 28  1  0  0  0  0
 28 20  1  6  0  0  0
 28 29  1  0  0  0  0
 29 11  1  1  0  0  0
 30 22  1  1  0  0  0
 30 31  1  0  0  0  0
 31 24  1  1  0  0  0
M  END
>  <CHROM.1>
-178.37377626,-75.17674680,57.36606801,63.13392955,-67.86226031,58.58778509
42.15797760,22.96520375,1.45067634,-0.35266748,0.84819648,-1.81928039

>  <Name>
ligand

>  <RI>
0

>  <Rbt.Current_Directory>
/home/itssahil/PROJECTS/Mol_Feturizer/New_Systems/rnas/2ET5

>  <Rbt.Executable>
rbdock ($Id: //depot/dev/client3/rdock/2013.1/src/exe/rbdock.cxx#4 $)

>  <Rbt.Library>
libRbt.so (2013.1, Build901 2013/11/27)

>  <Rbt.Parameter_File>
/export/apps/rDock/src/rDock_2013.1_src/data/scripts/dock_solv.prm

>  <Rbt.Receptor>
prm/pocket_docking_5.prm

>  <SCORE>
-10.378

>  <SCORE.INTER>
-6.24781

>  <SCORE.INTER.CONST>
1

>  <SCORE.INTER.POLAR>
0

>  <SCORE.INTER.ROT>
6

>  <SCORE.INTER.SOLV>
17.6403

>  <SCORE.INTER.VDW>
-17.6453

>  <SCORE.INTER.norm>
-0.201542

>  <SCORE.INTRA>
-4.13014

>  <SCORE.INTRA.DIHEDRAL>
-9.64392

>  <SCORE.INTRA.DIHEDRAL.0>
11.2357

>  <SCORE.INTRA.POLAR>
0

>  <SCORE.INTRA.POLAR.0>
0

>  <SCORE.INTRA.REPUL>
0

>  <SCORE.INTRA.REPUL.0>
0

>  <SCORE.INTRA.SOLV>
-0.0809587

>  <SCORE.INTRA.SOLV.lig_0>
-83.3092

>  <SCORE.INTRA.VDW>
0.732295

>  <SCORE.INTRA.VDW.0>
-4.47057

>  <SCORE.INTRA.norm>
-0.13323

>  <SCORE.RESTR>
0

>  <SCORE.RESTR.CAVITY>
0

>  <SCORE.RESTR.norm>
0

>  <SCORE.SYSTEM>
0

>  <SCORE.SYSTEM.CONST>
0

>  <SCORE.SYSTEM.DIHEDRAL>
0

>  <SCORE.SYSTEM.SOLV>
0

>  <SCORE.SYSTEM.norm>
0

>  <SCORE.heavy>
31

>  <SCORE.norm>
-0.334773

>  <RMSD>
6.671

$$$$
ligand
 OpenBabel11021811433D
libRbt.so/2013.1/901 2013/11/27
 31 33  0  0  0  0  0  0  0  0999 V2000
   42.0092   22.9011   -1.7352 C   0  0  0  0  0  0  0  0  0  0  0  0
   45.3874   20.1952    2.2612 N   0  0  0  0  0  0  0  0  0  0  0  0
   42.6216   23.7413   -0.7459 O   0  0  0  0  0  0  0  0  0  0  0  0
   40.6081   22.6352   -1.1909 C   0  0  1  0  0  0  0  0  0  0  0  0
   44.9108   24.5583    4.8037 N   0  0  0  0  0  0  0  0  0  0  0  0
   40.5694   21.9451    0.1605 O   0  0  0  0  0  0  0  0  0  0  0  0
   40.2039   22.7775    1.1929 C   0  0  1  0  0  0  0  0  0  0  0  0
   40.7889   28.7329    2.0164 N   0  0  0  0  0  0  0  0  0  0  0  0
   40.9982   22.7793    2.3463 O   0  0  0  0  0  0  0  0  0  0  0  0
   42.4923   22.9299    2.3172 C   0  0  2  0  0  0  0  0  0  0  0  0
   42.2429   24.3550    6.4843 N   0  0  0  0  0  0  0  0  0  0  0  0
   42.6824   20.7679    1.1002 O   0  0  0  0  0  0  0  0  0  0  0  0
   43.1253   21.5071    2.2981 C   0  0  1  0  0  0  0  0  0  0  0  0
   42.4537   24.9782    3.5954 O   0  0  0  0  0  0  0  0  0  0  0  0
   44.7320   21.6114    2.2817 C   0  0  1  0  0  0  0  0  0  0  0  0
   41.8831   27.2358    4.0885 O   0  0  0  0  0  0  0  0  0  0  0  0
   45.1771   22.4116    3.5824 C   0  0  0  0  0  0  0  0  0  0  0  0
   38.2665   26.6773    4.7810 O   0  0  0  0  0  0  0  0  0  0  0  0
   44.4778   23.8340    3.5631 C   0  0  1  0  0  0  0  0  0  0  0  0
   39.4322   25.1418    6.8876 O   0  0  0  0  0  0  0  0  0  0  0  0
   42.9881   23.7124    3.6137 C   0  0  2  0  0  0  0  0  0  0  0  0
   39.0421   24.8597    1.2587 O   0  0  0  0  0  0  0  0  0  0  0  0
   42.4982   25.9806    4.6433 C   0  0  1  0  0  0  0  0  0  0  0  0
   38.2839   23.4869   -1.0222 O   0  0  0  0  0  0  0  0  0  0  0  0
   40.4007   27.1514    3.7508 C   0  0  2  0  0  0  0  0  0  0  0  0
   39.9274   28.4812    3.1752 C   0  0  0  0  0  0  0  0  0  0  0  0
   39.6392   26.7865    5.0459 C   0  0  2  0  0  0  0  0  0  0  0  0
   40.1554   25.4805    5.6263 C   0  0  1  0  0  0  0  0  0  0  0  0
   41.6634   25.6284    5.9013 C   0  0  1  0  0  0  0  0  0  0  0  0
   40.0002   24.1463    0.5641 C   0  0  2  0  0  0  0  0  0  0  0  0
   39.6949   23.8403   -0.9374 C   0  0  1  0  0  0  0  0  0  0  0  0
  1  3  1  0  0  0  0
  4  1  1  1  0  0  0
  4  6  1  0  0  0  0
  4 31  1  0  0  0  0
  6  7  1  0  0  0  0
  7  9  1  1  0  0  0
  7 30  1  0  0  0  0
  8 26  1  0  0  0  0
 10  9  1  1  0  0  0
 10 13  1  0  0  0  0
 10 21  1  0  0  0  0
 13 12  1  6  0  0  0
 13 15  1  0  0  0  0
 15  2  1  1  0  0  0
 15 17  1  0  0  0  0
 16 25  1  0  0  0  0
 16 23  1  0  0  0  0
 17 19  1  0  0  0  0
 19  5  1  1  0  0  0
 19 21  1  0  0  0  0
 21 14  1  6  0  0  0
 23 14  1  6  0  0  0
 23 29  1  0  0  0  0
 25 26  1  1  0  0  0
 25 27  1  0  0  0  0
 27 18  1  6  0  0  0
 27 28  1  0  0  0  0
 28 20  1  1  0  0  0
 28 29  1  0  0  0  0
 29 11  1  6  0  0  0
 30 22  1  1  0  0  0
 30 31  1  0  0  0  0
 31 24  1  1  0  0  0
M  END
>  <CHROM.1>
-59.90337242,50.00708788,-93.44166262,174.83703346,171.84328920,56.85218070
41.54752399,24.23408769,2.61396612,1.23279687,0.63891388,-2.14875520

>  <Name>
ligand

>  <RI>
0

>  <Rbt.Current_Directory>
/home/itssahil/PROJECTS/Mol_Feturizer/New_Systems/rnas/2ET5

>  <Rbt.Executable>
rbdock ($Id: //depot/dev/client3/rdock/2013.1/src/exe/rbdock.cxx#4 $)

>  <Rbt.Library>
libRbt.so (2013.1, Build901 2013/11/27)

>  <Rbt.Parameter_File>
/export/apps/rDock/src/rDock_2013.1_src/data/scripts/dock_solv.prm

>  <Rbt.Receptor>
prm/pocket_docking_5.prm

>  <SCORE>
-6.90246

>  <SCORE.INTER>
-5.09603

>  <SCORE.INTER.CONST>
1

>  <SCORE.INTER.POLAR>
0

>  <SCORE.INTER.ROT>
6

>  <SCORE.INTER.SOLV>
19.2423

>  <SCORE.INTER.VDW>
-17.4114

>  <SCORE.INTER.norm>
-0.164388

>  <SCORE.INTRA>
-1.80643

>  <SCORE.INTRA.DIHEDRAL>
-5.89242

>  <SCORE.INTRA.DIHEDRAL.0>
11.2357

>  <SCORE.INTRA.POLAR>
0

>  <SCORE.INTRA.POLAR.0>
0

>  <SCORE.INTRA.REPUL>
0

>  <SCORE.INTRA.REPUL.0>
0

>  <SCORE.INTRA.SOLV>
1.33519

>  <SCORE.INTRA.SOLV.lig_0>
-83.3092

>  <SCORE.INTRA.VDW>
0.47218

>  <SCORE.INTRA.VDW.0>
-4.47057

>  <SCORE.INTRA.norm>
-0.0582721

>  <SCORE.RESTR>
0

>  <SCORE.RESTR.CAVITY>
0

>  <SCORE.RESTR.norm>
0

>  <SCORE.SYSTEM>
0

>  <SCORE.SYSTEM.CONST>
0

>  <SCORE.SYSTEM.DIHEDRAL>
0

>  <SCORE.SYSTEM.SOLV>
0

>  <SCORE.SYSTEM.norm>
0

>  <SCORE.heavy>
31

>  <SCORE.norm>
-0.22266

>  <RMSD>
6.687

$$$$
ligand
 OpenBabel11021811433D
libRbt.so/2013.1/901 2013/11/27
 31 33  0  0  0  0  0  0  0  0999 V2000
   46.0951   20.0930    2.5246 C   0  0  0  0  0  0  0  0  0  0  0  0
   42.8829   24.7942    6.5935 N   0  0  0  0  0  0  0  0  0  0  0  0
   46.6477   18.8066    2.2094 O   0  0  0  0  0  0  0  0  0  0  0  0
   44.6094   19.8224    2.7470 C   0  0  1  0  0  0  0  0  0  0  0  0
   38.6969   24.3992    3.7563 N   0  0  0  0  0  0  0  0  0  0  0  0
   43.7935   21.0369    3.1511 O   0  0  0  0  0  0  0  0  0  0  0  0
   42.9826   21.5135    2.1475 C   0  0  1  0  0  0  0  0  0  0  0  0
   44.3615   25.2075    0.7785 N   0  0  0  0  0  0  0  0  0  0  0  0
   43.0181   22.8862    1.8721 O   0  0  0  0  0  0  0  0  0  0  0  0
   42.3611   23.9184    2.7432 C   0  0  2  0  0  0  0  0  0  0  0  0
   38.0950   24.3273   -0.3941 N   0  0  0  0  0  0  0  0  0  0  0  0
   44.4234   24.0557    4.1287 O   0  0  0  0  0  0  0  0  0  0  0  0
   42.9693   23.8082    4.1727 C   0  0  1  0  0  0  0  0  0  0  0  0
   40.2636   23.7945    1.5532 O   0  0  0  0  0  0  0  0  0  0  0  0
   42.2865   24.8866    5.1543 C   0  0  1  0  0  0  0  0  0  0  0  0
   41.5820   25.4526    0.4678 O   0  0  0  0  0  0  0  0  0  0  0  0
   40.7231   24.5940    5.1801 C   0  0  0  0  0  0  0  0  0  0  0  0
   42.4072   23.4873   -2.5863 O   0  0  0  0  0  0  0  0  0  0  0  0
   40.1683   24.6874    3.6982 C   0  0  1  0  0  0  0  0  0  0  0  0
   39.5726   23.6944   -2.8635 O   0  0  0  0  0  0  0  0  0  0  0  0
   40.7913   23.6544    2.8142 C   0  0  2  0  0  0  0  0  0  0  0  0
   42.1183   20.5224    0.1575 O   0  0  0  0  0  0  0  0  0  0  0  0
   40.1761   25.0007    0.7518 C   0  0  1  0  0  0  0  0  0  0  0  0
   42.6333   18.5216    1.9995 O   0  0  0  0  0  0  0  0  0  0  0  0
   42.4135   24.5179   -0.4003 C   0  0  2  0  0  0  0  0  0  0  0  0
   43.8153   25.0901   -0.5766 C   0  0  0  0  0  0  0  0  0  0  0  0
   41.6874   24.3583   -1.7560 C   0  0  2  0  0  0  0  0  0  0  0  0
   40.2778   23.8277   -1.5545 C   0  0  1  0  0  0  0  0  0  0  0  0
   39.5146   24.8001   -0.6360 C   0  0  1  0  0  0  0  0  0  0  0  0
   43.2486   20.6212    0.9461 C   0  0  2  0  0  0  0  0  0  0  0  0
   43.7905   19.2924    1.5642 C   0  0  1  0  0  0  0  0  0  0  0  0
  1  3  1  0  0  0  0
  4  1  1  6  0  0  0
  4  6  1  0  0  0  0
  4 31  1  0  0  0  0
  6  7  1  0  0  0  0
  7  9  1  6  0  0  0
  7 30  1  0  0  0  0
  8 26  1  0  0  0  0
 10  9  1  6  0  0  0
 10 13  1  0  0  0  0
 10 21  1  0  0  0  0
 13 12  1  6  0  0  0
 13 15  1  0  0  0  0
 15  2  1  1  0  0  0
 15 17  1  0  0  0  0
 16 25  1  0  0  0  0
 16 23  1  0  0  0  0
 17 19  1  0  0  0  0
 19  5  1  1  0  0  0
 19 21  1  0  0  0  0
 21 14  1  6  0  0  0
 23 14  1  6  0  0  0
 23 29  1  0  0  0  0
 25 26  1  6  0  0  0
 25 27  1  0  0  0  0
 27 18  1  6  0  0  0
 27 28  1  0  0  0  0
 28 20  1  6  0  0  0
 28 29  1  0  0  0  0
 29 11  1  1  0  0  0
 30 22  1  1  0  0  0
 30 31  1  0  0  0  0
 31 24  1  1  0  0  0
M  END
>  <CHROM.1>
177.83725873,-75.59247179,58.79578677,63.31153649,-66.32298703,59.35265245
42.23484512,23.03757207,1.59704518,-0.28039709,0.84066920,-1.87165702

>  <Name>
ligand

>  <RI>
0

>  <Rbt.Current_Directory>
/home/itssahil/PROJECTS/Mol_Feturizer/New_Systems/rnas/2ET5

>  <Rbt.Executable>
rbdock ($Id: //depot/dev/client3/rdock/2013.1/src/exe/rbdock.cxx#4 $)

>  <Rbt.Library>
libRbt.so (2013.1, Build901 2013/11/27)

>  <Rbt.Parameter_File>
/export/apps/rDock/src/rDock_2013.1_src/data/scripts/dock_solv.prm

>  <Rbt.Receptor>
prm/pocket_docking_6.prm

>  <SCORE>
-10.5975

>  <SCORE.INTER>
-6.4563

>  <SCORE.INTER.CONST>
1

>  <SCORE.INTER.POLAR>
0

>  <SCORE.INTER.ROT>
6

>  <SCORE.INTER.SOLV>
17.6429

>  <SCORE.INTER.VDW>
-17.7852

>  <SCORE.INTER.norm>
-0.208268

>  <SCORE.INTRA>
-4.14123

>  <SCORE.INTRA.DIHEDRAL>
-9.71435

>  <SCORE.INTRA.DIHEDRAL.0>
11.2357

>  <SCORE.INTRA.POLAR>
0

>  <SCORE.INTRA.POLAR.0>
0

>  <SCORE.INTRA.REPUL>
0

>  <SCORE.INTRA.REPUL.0>
0

>  <SCORE.INTRA.SOLV>
0.0631428

>  <SCORE.INTRA.SOLV.lig_0>
-83.3092

>  <SCORE.INTRA.VDW>
0.684367

>  <SCORE.INTRA.VDW.0>
-4.47057

>  <SCORE.INTRA.norm>
-0.133588

>  <SCORE.RESTR>
0

>  <SCORE.RESTR.CAVITY>
0

>  <SCORE.RESTR.norm>
0

>  <SCORE.SYSTEM>
0

>  <SCORE.SYSTEM.CONST>
0

>  <SCORE.SYSTEM.DIHEDRAL>
0

>  <SCORE.SYSTEM.SOLV>
0

>  <SCORE.SYSTEM.norm>
0

>  <SCORE.heavy>
31

>  <SCORE.norm>
-0.341856

>  <RMSD>
6.720

$$$$
ligand
 OpenBabel11021811433D
libRbt.so/2013.1/901 2013/11/27
 31 33  0  0  0  0  0  0  0  0999 V2000
   35.1383   28.5083    1.8844 C   0  0  0  0  0  0  0  0  0  0  0  0
   36.3749   27.2446    8.0562 N   0  0  0  0  0  0  0  0  0  0  0  0
   34.5504   29.0464    3.0779 O   0  0  0  0  0  0  0  0  0  0  0  0
   36.6390   28.7104    2.0775 C   0  0  1  0  0  0  0  0  0  0  0  0
   41.0593   25.5293    7.1380 N   0  0  0  0  0  0  0  0  0  0  0  0
   37.2445   27.9293    3.2296 O   0  0  0  0  0  0  0  0  0  0  0  0
   38.0087   26.8589    2.8268 C   0  0  1  0  0  0  0  0  0  0  0  0
   42.5591   28.2945    4.0173 N   0  0  0  0  0  0  0  0  0  0  0  0
   37.7737   25.6196    3.4353 O   0  0  0  0  0  0  0  0  0  0  0  0
   37.9468   25.3791    4.9078 C   0  0  2  0  0  0  0  0  0  0  0  0
   40.8054   22.1616    3.1033 N   0  0  0  0  0  0  0  0  0  0  0  0
   35.6557   26.2595    5.3166 O   0  0  0  0  0  0  0  0  0  0  0  0
   37.0779   26.4180    5.6767 C   0  0  1  0  0  0  0  0  0  0  0  0
   40.2238   24.6143    4.6603 O   0  0  0  0  0  0  0  0  0  0  0  0
   37.2392   26.2133    7.2657 C   0  0  1  0  0  0  0  0  0  0  0  0
   41.4757   25.8653    3.0688 O   0  0  0  0  0  0  0  0  0  0  0  0
   38.7796   26.3897    7.6212 C   0  0  0  0  0  0  0  0  0  0  0  0
   44.8630   24.7311    4.1228 O   0  0  0  0  0  0  0  0  0  0  0  0
   39.6140   25.3315    6.7866 C   0  0  1  0  0  0  0  0  0  0  0  0
   43.7472   22.2546    3.2418 O   0  0  0  0  0  0  0  0  0  0  0  0
   39.4762   25.5630    5.3155 C   0  0  2  0  0  0  0  0  0  0  0  0
   39.0855   26.3234    0.7668 O   0  0  0  0  0  0  0  0  0  0  0  0
   40.6581   24.6204    3.2761 C   0  0  1  0  0  0  0  0  0  0  0  0
   38.8163   29.0726    0.9444 O   0  0  0  0  0  0  0  0  0  0  0  0
   42.7846   25.9325    3.8441 C   0  0  2  0  0  0  0  0  0  0  0  0
   43.4852   27.2556    3.5576 C   0  0  0  0  0  0  0  0  0  0  0  0
   43.6505   24.7243    3.4187 C   0  0  2  0  0  0  0  0  0  0  0  0
   42.9168   23.4180    3.6726 C   0  0  1  0  0  0  0  0  0  0  0  0
   41.5893   23.4416    2.8926 C   0  0  1  0  0  0  0  0  0  0  0  0
   37.9257   26.8431    1.3091 C   0  0  2  0  0  0  0  0  0  0  0  0
   37.5713   28.3159    0.9262 C   0  0  1  0  0  0  0  0  0  0  0  0
  1  3  1  0  0  0  0
  4  1  1  6  0  0  0
  4  6  1  0  0  0  0
  4 31  1  0  0  0  0
  6  7  1  0  0  0  0
  7  9  1  1  0  0  0
  7 30  1  0  0  0  0
  8 26  1  0  0  0  0
 10  9  1  6  0  0  0
 10 13  1  0  0  0  0
 10 21  1  0  0  0  0
 13 12  1  6  0  0  0
 13 15  1  0  0  0  0
 15  2  1  1  0  0  0
 15 17  1  0  0  0  0
 16 25  1  0  0  0  0
 16 23  1  0  0  0  0
 17 19  1  0  0  0  0
 19  5  1  1  0  0  0
 19 21  1  0  0  0  0
 21 14  1  6  0  0  0
 23 14  1  1  0  0  0
 23 29  1  0  0  0  0
 25 26  1  6  0  0  0
 25 27  1  0  0  0  0
 27 18  1  1  0  0  0
 27 28  1  0  0  0  0
 28 20  1  6  0  0  0
 28 29  1  0  0  0  0
 29 11  1  1  0  0  0
 30 22  1  6  0  0  0
 30 31  1  0  0  0  0
 31 24  1  1  0  0  0
M  END
>  <CHROM.1>
64.46995945,-61.27478793,55.16378860,58.52684974,78.14357017,60.85238936
39.50014676,26.10423624,3.88580081,-2.95250595,-0.44316252,1.91135485

>  <Name>
ligand

>  <RI>
0

>  <Rbt.Current_Directory>
/home/itssahil/PROJECTS/Mol_Feturizer/New_Systems/rnas/2ET5

>  <Rbt.Executable>
rbdock ($Id: //depot/dev/client3/rdock/2013.1/src/exe/rbdock.cxx#4 $)

>  <Rbt.Library>
libRbt.so (2013.1, Build901 2013/11/27)

>  <Rbt.Parameter_File>
/export/apps/rDock/src/rDock_2013.1_src/data/scripts/dock_solv.prm

>  <Rbt.Receptor>
prm/pocket_docking_5.prm

>  <SCORE>
-7.25863

>  <SCORE.INTER>
-1.58248

>  <SCORE.INTER.CONST>
1

>  <SCORE.INTER.POLAR>
0

>  <SCORE.INTER.ROT>
6

>  <SCORE.INTER.SOLV>
14.3858

>  <SCORE.INTER.VDW>
-13.4503

>  <SCORE.INTER.norm>
-0.0510477

>  <SCORE.INTRA>
-5.67615

>  <SCORE.INTRA.DIHEDRAL>
-9.38375

>  <SCORE.INTRA.DIHEDRAL.0>
11.2357

>  <SCORE.INTRA.POLAR>
0

>  <SCORE.INTRA.POLAR.0>
0

>  <SCORE.INTRA.REPUL>
0

>  <SCORE.INTRA.REPUL.0>
0

>  <SCORE.INTRA.SOLV>
-3.04862

>  <SCORE.INTRA.SOLV.lig_0>
-83.3092

>  <SCORE.INTRA.VDW>
0.540035

>  <SCORE.INTRA.VDW.0>
-4.47057

>  <SCORE.INTRA.norm>
-0.183102

>  <SCORE.RESTR>
0

>  <SCORE.RESTR.CAVITY>
0

>  <SCORE.RESTR.norm>
0

>  <SCORE.SYSTEM>
0

>  <SCORE.SYSTEM.CONST>
0

>  <SCORE.SYSTEM.DIHEDRAL>
0

>  <SCORE.SYSTEM.SOLV>
0

>  <SCORE.SYSTEM.norm>
0

>  <SCORE.heavy>
31

>  <SCORE.norm>
-0.234149

>  <RMSD>
6.729

$$$$
ligand
 OpenBabel11021811433D
libRbt.so/2013.1/901 2013/11/27
 31 33  0  0  0  0  0  0  0  0999 V2000
   36.9870   29.1364    0.5386 C   0  0  0  0  0  0  0  0  0  0  0  0
   34.0008   26.1881    5.1671 N   0  0  0  0  0  0  0  0  0  0  0  0
   37.1330   30.1972   -0.4168 O   0  0  0  0  0  0  0  0  0  0  0  0
   37.9567   29.5008    1.6597 C   0  0  1  0  0  0  0  0  0  0  0  0
   38.0889   26.7238    8.1217 N   0  0  0  0  0  0  0  0  0  0  0  0
   37.8921   28.5970    2.8775 O   0  0  0  0  0  0  0  0  0  0  0  0
   38.9655   27.7438    2.9869 C   0  0  1  0  0  0  0  0  0  0  0  0
   38.2387   23.0614    3.1930 N   0  0  0  0  0  0  0  0  0  0  0  0
   38.7041   26.3879    3.2206 O   0  0  0  0  0  0  0  0  0  0  0  0
   37.8953   25.8939    4.3857 C   0  0  2  0  0  0  0  0  0  0  0  0
   42.2666   25.8141    7.4127 N   0  0  0  0  0  0  0  0  0  0  0  0
   35.9054   25.6783    2.9074 O   0  0  0  0  0  0  0  0  0  0  0  0
   36.4083   26.2932    4.1510 C   0  0  1  0  0  0  0  0  0  0  0  0
   39.7151   26.1686    5.9489 O   0  0  0  0  0  0  0  0  0  0  0  0
   35.4967   25.7989    5.3827 C   0  0  1  0  0  0  0  0  0  0  0  0
   39.7033   23.8316    5.4978 O   0  0  0  0  0  0  0  0  0  0  0  0
   36.0631   26.4773    6.7053 C   0  0  0  0  0  0  0  0  0  0  0  0
   42.3970   23.8248    2.9259 O   0  0  0  0  0  0  0  0  0  0  0  0
   37.5838   26.0628    6.8729 C   0  0  1  0  0  0  0  0  0  0  0  0
   43.8732   24.7002    5.2082 O   0  0  0  0  0  0  0  0  0  0  0  0
   38.4161   26.5624    5.7352 C   0  0  2  0  0  0  0  0  0  0  0  0
   41.1640   27.7826    2.0626 O   0  0  0  0  0  0  0  0  0  0  0  0
   40.1896   24.8914    6.4474 C   0  0  1  0  0  0  0  0  0  0  0  0
   40.2119   30.3776    2.2086 O   0  0  0  0  0  0  0  0  0  0  0  0
   40.2800   23.8913    4.0898 C   0  0  2  0  0  0  0  0  0  0  0  0
   39.6764   22.7800    3.2388 C   0  0  0  0  0  0  0  0  0  0  0  0
   41.8162   23.7554    4.2003 C   0  0  2  0  0  0  0  0  0  0  0  0
   42.3925   24.8466    5.0872 C   0  0  1  0  0  0  0  0  0  0  0  0
   41.7332   24.7492    6.4754 C   0  0  1  0  0  0  0  0  0  0  0  0
   39.8344   28.0191    1.7705 C   0  0  2  0  0  0  0  0  0  0  0  0
   39.4576   29.4755    1.3482 C   0  0  1  0  0  0  0  0  0  0  0  0
  1  3  1  0  0  0  0
  4  1  1  6  0  0  0
  4  6  1  0  0  0  0
  4 31  1  0  0  0  0
  6  7  1  0  0  0  0
  7  9  1  6  0  0  0
  7 30  1  0  0  0  0
  8 26  1  0  0  0  0
 10  9  1  6  0  0  0
 10 13  1  0  0  0  0
 10 21  1  0  0  0  0
 13 12  1  6  0  0  0
 13 15  1  0  0  0  0
 15  2  1  6  0  0  0
 15 17  1  0  0  0  0
 16 25  1  0  0  0  0
 16 23  1  0  0  0  0
 17 19  1  0  0  0  0
 19  5  1  1  0  0  0
 19 21  1  0  0  0  0
 21 14  1  1  0  0  0
 23 14  1  6  0  0  0
 23 29  1  0  0  0  0
 25 26  1  6  0  0  0
 25 27  1  0  0  0  0
 27 18  1  6  0  0  0
 27 28  1  0  0  0  0
 28 20  1  1  0  0  0
 28 29  1  0  0  0  0
 29 11  1  1  0  0  0
 30 22  1  1  0  0  0
 30 31  1  0  0  0  0
 31 24  1  1  0  0  0
M  END
>  <CHROM.1>
174.06945381,-56.18286033,70.37300768,59.23657578,-76.96302324,62.08282658
39.07069305,26.31932594,4.06391378,-2.16469640,-0.22338279,2.28536532

>  <Name>
ligand

>  <RI>
0

>  <Rbt.Current_Directory>
/home/itssahil/PROJECTS/Mol_Feturizer/New_Systems/rnas/2ET5

>  <Rbt.Executable>
rbdock ($Id: //depot/dev/client3/rdock/2013.1/src/exe/rbdock.cxx#4 $)

>  <Rbt.Library>
libRbt.so (2013.1, Build901 2013/11/27)

>  <Rbt.Parameter_File>
/export/apps/rDock/src/rDock_2013.1_src/data/scripts/dock_solv.prm

>  <Rbt.Receptor>
prm/pocket_docking_7.prm

>  <SCORE>
-8.85925

>  <SCORE.INTER>
-4.76567

>  <SCORE.INTER.CONST>
1

>  <SCORE.INTER.POLAR>
0

>  <SCORE.INTER.ROT>
6

>  <SCORE.INTER.SOLV>
20.2799

>  <SCORE.INTER.VDW>
-17.5371

>  <SCORE.INTER.norm>
-0.153731

>  <SCORE.INTRA>
-4.09358

>  <SCORE.INTRA.DIHEDRAL>
-9.03757

>  <SCORE.INTRA.DIHEDRAL.0>
11.2357

>  <SCORE.INTRA.POLAR>
0

>  <SCORE.INTRA.POLAR.0>
0

>  <SCORE.INTRA.REPUL>
0

>  <SCORE.INTRA.REPUL.0>
0

>  <SCORE.INTRA.SOLV>
-0.614868

>  <SCORE.INTRA.SOLV.lig_0>
-83.3092

>  <SCORE.INTRA.VDW>
0.732641

>  <SCORE.INTRA.VDW.0>
-4.47057

>  <SCORE.INTRA.norm>
-0.132051

>  <SCORE.RESTR>
0

>  <SCORE.RESTR.CAVITY>
0

>  <SCORE.RESTR.norm>
0

>  <SCORE.SYSTEM>
0

>  <SCORE.SYSTEM.CONST>
0

>  <SCORE.SYSTEM.DIHEDRAL>
0

>  <SCORE.SYSTEM.SOLV>
0

>  <SCORE.SYSTEM.norm>
0

>  <SCORE.heavy>
31

>  <SCORE.norm>
-0.285782

>  <RMSD>
6.734

$$$$
ligand
 OpenBabel11021811433D
libRbt.so/2013.1/901 2013/11/27
 31 33  0  0  0  0  0  0  0  0999 V2000
   43.5461   24.8010    3.6054 C   0  0  0  0  0  0  0  0  0  0  0  0
   39.9578   25.6592   -3.9908 N   0  0  0  0  0  0  0  0  0  0  0  0
   44.2641   23.8164    4.3634 O   0  0  0  0  0  0  0  0  0  0  0  0
   42.0841   24.5769    3.9827 C   0  0  1  0  0  0  0  0  0  0  0  0
   35.8209   25.3450   -1.0726 N   0  0  0  0  0  0  0  0  0  0  0  0
   41.1018   25.5251    3.3193 O   0  0  0  0  0  0  0  0  0  0  0  0
   40.3530   24.9358    2.3273 C   0  0  1  0  0  0  0  0  0  0  0  0
   35.6262   28.9120    1.3153 N   0  0  0  0  0  0  0  0  0  0  0  0
   40.2660   25.5928    1.0936 O   0  0  0  0  0  0  0  0  0  0  0  0
   39.5101   25.0419   -0.0815 C   0  0  2  0  0  0  0  0  0  0  0  0
   37.3766   23.1603    3.5326 N   0  0  0  0  0  0  0  0  0  0  0  0
   41.5540   25.2446   -1.4861 O   0  0  0  0  0  0  0  0  0  0  0  0
   40.1336   25.6306   -1.3816 C   0  0  1  0  0  0  0  0  0  0  0  0
   37.4307   24.9050    1.1385 O   0  0  0  0  0  0  0  0  0  0  0  0
   39.3477   25.0819   -2.6754 C   0  0  1  0  0  0  0  0  0  0  0  0
   36.8207   26.7433    2.5219 O   0  0  0  0  0  0  0  0  0  0  0  0
   37.8232   25.5131   -2.5331 C   0  0  0  0  0  0  0  0  0  0  0  0
   33.2588   25.7895    3.0457 O   0  0  0  0  0  0  0  0  0  0  0  0
   37.2543   24.9146   -1.1801 C   0  0  1  0  0  0  0  0  0  0  0  0
   34.5673   23.5891    4.3109 O   0  0  0  0  0  0  0  0  0  0  0  0
   37.9763   25.4647    0.0084 C   0  0  2  0  0  0  0  0  0  0  0  0
   39.8161   22.6637    1.8386 O   0  0  0  0  0  0  0  0  0  0  0  0
   37.4970   25.4003    2.5005 C   0  0  1  0  0  0  0  0  0  0  0  0
   40.3523   22.8914    4.5446 O   0  0  0  0  0  0  0  0  0  0  0  0
   35.3268   26.7352    2.2272 C   0  0  2  0  0  0  0  0  0  0  0  0
   34.7889   28.1612    2.2552 C   0  0  0  0  0  0  0  0  0  0  0  0
   34.6389   25.8447    3.2875 C   0  0  2  0  0  0  0  0  0  0  0  0
   35.2193   24.4404    3.2722 C   0  0  1  0  0  0  0  0  0  0  0  0
   36.7339   24.5330    3.5345 C   0  0  1  0  0  0  0  0  0  0  0  0
   40.8399   23.4982    2.2444 C   0  0  2  0  0  0  0  0  0  0  0  0
   41.4569   23.2175    3.6522 C   0  0  1  0  0  0  0  0  0  0  0  0
  1  3  1  0  0  0  0
  4  1  1  6  0  0  0
  4  6  1  0  0  0  0
  4 31  1  0  0  0  0
  6  7  1  0  0  0  0
  7  9  1  6  0  0  0
  7 30  1  0  0  0  0
  8 26  1  0  0  0  0
 10  9  1  1  0  0  0
 10 13  1  0  0  0  0
 10 21  1  0  0  0  0
 13 12  1  6  0  0  0
 13 15  1  0  0  0  0
 15  2  1  6  0  0  0
 15 17  1  0  0  0  0
 16 25  1  0  0  0  0
 16 23  1  0  0  0  0
 17 19  1  0  0  0  0
 19  5  1  1  0  0  0
 19 21  1  0  0  0  0
 21 14  1  1  0  0  0
 23 14  1  6  0  0  0
 23 29  1  0  0  0  0
 25 26  1  1  0  0  0
 25 27  1  0  0  0  0
 27 18  1  6  0  0  0
 27 28  1  0  0  0  0
 28 20  1  1  0  0  0
 28 29  1  0  0  0  0
 29 11  1  6  0  0  0
 30 22  1  1  0  0  0
 30 31  1  0  0  0  0
 31 24  1  1  0  0  0
M  END
>  <CHROM.1>
179.05976633,178.45717570,-154.39830497,61.73162540,82.50050985,54.35164650
38.49743340,25.07064380,1.63825712,0.11331369,-0.23420359,1.80435792

>  <Name>
ligand

>  <RI>
0

>  <Rbt.Current_Directory>
/home/itssahil/PROJECTS/Mol_Feturizer/New_Systems/rnas/2ET5

>  <Rbt.Executable>
rbdock ($Id: //depot/dev/client3/rdock/2013.1/src/exe/rbdock.cxx#4 $)

>  <Rbt.Library>
libRbt.so (2013.1, Build901 2013/11/27)

>  <Rbt.Parameter_File>
/export/apps/rDock/src/rDock_2013.1_src/data/scripts/dock_solv.prm

>  <Rbt.Receptor>
prm/pocket_docking_5.prm

>  <SCORE>
-3.77692

>  <SCORE.INTER>
-1.53543

>  <SCORE.INTER.CONST>
1

>  <SCORE.INTER.POLAR>
0

>  <SCORE.INTER.ROT>
6

>  <SCORE.INTER.SOLV>
20.3512

>  <SCORE.INTER.VDW>
-15.4073

>  <SCORE.INTER.norm>
-0.04953

>  <SCORE.INTRA>
-2.24149

>  <SCORE.INTRA.DIHEDRAL>
-5.9584

>  <SCORE.INTRA.DIHEDRAL.0>
11.2357

>  <SCORE.INTRA.POLAR>
0

>  <SCORE.INTRA.POLAR.0>
0

>  <SCORE.INTRA.REPUL>
0

>  <SCORE.INTRA.REPUL.0>
0

>  <SCORE.INTRA.SOLV>
0.269147

>  <SCORE.INTRA.SOLV.lig_0>
-83.3092

>  <SCORE.INTRA.VDW>
0.603136

>  <SCORE.INTRA.VDW.0>
-4.47057

>  <SCORE.INTRA.norm>
-0.0723061

>  <SCORE.RESTR>
0

>  <SCORE.RESTR.CAVITY>
0

>  <SCORE.RESTR.norm>
0

>  <SCORE.SYSTEM>
0

>  <SCORE.SYSTEM.CONST>
0

>  <SCORE.SYSTEM.DIHEDRAL>
0

>  <SCORE.SYSTEM.SOLV>
0

>  <SCORE.SYSTEM.norm>
0

>  <SCORE.heavy>
31

>  <SCORE.norm>
-0.121836

>  <RMSD>
6.737

$$$$
ligand
 OpenBabel11021811433D
libRbt.so/2013.1/901 2013/11/27
 31 33  0  0  0  0  0  0  0  0999 V2000
   45.2306   20.8055    2.2227 C   0  0  0  0  0  0  0  0  0  0  0  0
   42.5337   24.8799    6.9310 N   0  0  0  0  0  0  0  0  0  0  0  0
   45.7615   21.5820    3.3065 O   0  0  0  0  0  0  0  0  0  0  0  0
   43.8319   20.4109    2.6895 C   0  0  1  0  0  0  0  0  0  0  0  0
   37.9643   24.9168    4.7293 N   0  0  0  0  0  0  0  0  0  0  0  0
   42.9966   21.5537    3.2377 O   0  0  0  0  0  0  0  0  0  0  0  0
   41.9907   21.9557    2.3899 C   0  0  1  0  0  0  0  0  0  0  0  0
   41.9189   22.9785   -1.8211 N   0  0  0  0  0  0  0  0  0  0  0  0
   41.8636   23.3253    2.1264 O   0  0  0  0  0  0  0  0  0  0  0  0
   41.4056   24.3224    3.1521 C   0  0  2  0  0  0  0  0  0  0  0  0
   36.8122   25.8172    1.1520 N   0  0  0  0  0  0  0  0  0  0  0  0
   43.6515   24.2481    4.2209 O   0  0  0  0  0  0  0  0  0  0  0  0
   42.2065   24.0743    4.4646 C   0  0  1  0  0  0  0  0  0  0  0  0
   39.1543   24.3974    2.2822 O   0  0  0  0  0  0  0  0  0  0  0  0
   41.7419   25.1105    5.6061 C   0  0  1  0  0  0  0  0  0  0  0  0
   40.5189   25.4271    0.6262 O   0  0  0  0  0  0  0  0  0  0  0  0
   40.1836   24.8987    5.8451 C   0  0  0  0  0  0  0  0  0  0  0  0
   39.3632   23.4006   -2.2771 O   0  0  0  0  0  0  0  0  0  0  0  0
   39.4269   25.1313    4.4718 C   0  0  1  0  0  0  0  0  0  0  0  0
   36.9334   24.7312   -1.5843 O   0  0  0  0  0  0  0  0  0  0  0  0
   39.8492   24.1361    3.4385 C   0  0  2  0  0  0  0  0  0  0  0  0
   40.8895   20.8866    0.5641 O   0  0  0  0  0  0  0  0  0  0  0  0
   39.2531   25.5646    1.4264 C   0  0  1  0  0  0  0  0  0  0  0  0
   41.8746   18.9443    2.2726 O   0  0  0  0  0  0  0  0  0  0  0  0
   40.5535   24.2683   -0.3610 C   0  0  2  0  0  0  0  0  0  0  0  0
   41.9008   24.2390   -1.0734 C   0  0  0  0  0  0  0  0  0  0  0  0
   39.3855   24.4579   -1.3562 C   0  0  2  0  0  0  0  0  0  0  0  0
   38.0566   24.5275   -0.6224 C   0  0  1  0  0  0  0  0  0  0  0  0
   38.1128   25.6919    0.3838 C   0  0  1  0  0  0  0  0  0  0  0  0
   42.1243   21.0840    1.1519 C   0  0  2  0  0  0  0  0  0  0  0  0
   42.8727   19.8086    1.6563 C   0  0  1  0  0  0  0  0  0  0  0  0
  1  3  1  0  0  0  0
  4  1  1  6  0  0  0
  4  6  1  0  0  0  0
  4 31  1  0  0  0  0
  6  7  1  0  0  0  0
  7  9  1  6  0  0  0
  7 30  1  0  0  0  0
  8 26  1  0  0  0  0
 10  9  1  6  0  0  0
 10 13  1  0  0  0  0
 10 21  1  0  0  0  0
 13 12  1  6  0  0  0
 13 15  1  0  0  0  0
 15  2  1  1  0  0  0
 15 17  1  0  0  0  0
 16 25  1  0  0  0  0
 16 23  1  0  0  0  0
 17 19  1  0  0  0  0
 19  5  1  1  0  0  0
 19 21  1  0  0  0  0
 21 14  1  6  0  0  0
 23 14  1  6  0  0  0
 23 29  1  0  0  0  0
 25 26  1  6  0  0  0
 25 27  1  0  0  0  0
 27 18  1  6  0  0  0
 27 28  1  0  0  0  0
 28 20  1  6  0  0  0
 28 29  1  0  0  0  0
 29 11  1  1  0  0  0
 30 22  1  1  0  0  0
 30 31  1  0  0  0  0
 31 24  1  1  0  0  0
M  END
>  <CHROM.1>
48.66540889,-69.35347169,47.88308272,76.29608221,-51.62465194,170.80764394
41.00067866,23.43768838,1.95150305,-0.33481384,0.69006621,-1.95904404

>  <Name>
ligand

>  <RI>
0

>  <Rbt.Current_Directory>
/home/itssahil/PROJECTS/Mol_Feturizer/New_Systems/rnas/2ET5

>  <Rbt.Executable>
rbdock ($Id: //depot/dev/client3/rdock/2013.1/src/exe/rbdock.cxx#4 $)

>  <Rbt.Library>
libRbt.so (2013.1, Build901 2013/11/27)

>  <Rbt.Parameter_File>
/export/apps/rDock/src/rDock_2013.1_src/data/scripts/dock_solv.prm

>  <Rbt.Receptor>
prm/pocket_docking_5.prm

>  <SCORE>
-9.34015

>  <SCORE.INTER>
-6.62455

>  <SCORE.INTER.CONST>
1

>  <SCORE.INTER.POLAR>
0

>  <SCORE.INTER.ROT>
6

>  <SCORE.INTER.SOLV>
20.8871

>  <SCORE.INTER.VDW>
-18.9787

>  <SCORE.INTER.norm>
-0.213695

>  <SCORE.INTRA>
-2.7156

>  <SCORE.INTRA.DIHEDRAL>
-7.67263

>  <SCORE.INTRA.DIHEDRAL.0>
11.2357

>  <SCORE.INTRA.POLAR>
0

>  <SCORE.INTRA.POLAR.0>
0

>  <SCORE.INTRA.REPUL>
0

>  <SCORE.INTRA.REPUL.0>
0

>  <SCORE.INTRA.SOLV>
0.642936

>  <SCORE.INTRA.SOLV.lig_0>
-83.3092

>  <SCORE.INTRA.VDW>
0.799243

>  <SCORE.INTRA.VDW.0>
-4.47057

>  <SCORE.INTRA.norm>
-0.0876001

>  <SCORE.RESTR>
0

>  <SCORE.RESTR.CAVITY>
0

>  <SCORE.RESTR.norm>
0

>  <SCORE.SYSTEM>
0

>  <SCORE.SYSTEM.CONST>
0

>  <SCORE.SYSTEM.DIHEDRAL>
0

>  <SCORE.SYSTEM.SOLV>
0

>  <SCORE.SYSTEM.norm>
0

>  <SCORE.heavy>
31

>  <SCORE.norm>
-0.301295

>  <RMSD>
6.740

$$$$
ligand
 OpenBabel11021811433D
libRbt.so/2013.1/901 2013/11/27
 31 33  0  0  0  0  0  0  0  0999 V2000
   45.4412   21.0058    2.9445 C   0  0  0  0  0  0  0  0  0  0  0  0
   46.1427   27.0458    3.2483 N   0  0  0  0  0  0  0  0  0  0  0  0
   45.8899   21.4795    1.6662 O   0  0  0  0  0  0  0  0  0  0  0  0
   43.9447   21.3065    2.9553 C   0  0  1  0  0  0  0  0  0  0  0  0
   41.2034   27.6859    2.2878 N   0  0  0  0  0  0  0  0  0  0  0  0
   43.5750   22.7183    2.5379 O   0  0  0  0  0  0  0  0  0  0  0  0
   43.0109   22.7917    1.2855 C   0  0  1  0  0  0  0  0  0  0  0  0
   39.2489   23.8717    3.8682 N   0  0  0  0  0  0  0  0  0  0  0  0
   43.5200   23.7424    0.3919 O   0  0  0  0  0  0  0  0  0  0  0  0
   43.6682   25.1974    0.7334 C   0  0  2  0  0  0  0  0  0  0  0  0
   40.2514   25.3824   -2.3479 N   0  0  0  0  0  0  0  0  0  0  0  0
   46.0795   24.8317    1.2266 O   0  0  0  0  0  0  0  0  0  0  0  0
   44.8100   25.3378    1.7832 C   0  0  1  0  0  0  0  0  0  0  0  0
   41.3219   25.6614    0.4007 O   0  0  0  0  0  0  0  0  0  0  0  0
   45.0011   26.8821    2.1968 C   0  0  1  0  0  0  0  0  0  0  0  0
   39.9599   23.8269    1.0673 O   0  0  0  0  0  0  0  0  0  0  0  0
   43.6187   27.3972    2.7916 C   0  0  0  0  0  0  0  0  0  0  0  0
   36.6926   25.6142    1.0267 O   0  0  0  0  0  0  0  0  0  0  0  0
   42.4925   27.1992    1.6939 C   0  0  1  0  0  0  0  0  0  0  0  0
   37.3958   25.7740   -1.7364 O   0  0  0  0  0  0  0  0  0  0  0  0
   42.3095   25.7549    1.3516 C   0  0  2  0  0  0  0  0  0  0  0  0
   41.9348   21.1770   -0.1016 O   0  0  0  0  0  0  0  0  0  0  0  0
   40.6711   24.4633   -0.0948 C   0  0  1  0  0  0  0  0  0  0  0  0
   41.6731   20.3984    2.5417 O   0  0  0  0  0  0  0  0  0  0  0  0
   38.8081   24.6298    1.6567 C   0  0  2  0  0  0  0  0  0  0  0  0
   38.2067   23.8766    2.8376 C   0  0  0  0  0  0  0  0  0  0  0  0
   37.7676   24.8591    0.5362 C   0  0  2  0  0  0  0  0  0  0  0  0
   38.3978   25.5725   -0.6483 C   0  0  1  0  0  0  0  0  0  0  0  0
   39.5763   24.7242   -1.1611 C   0  0  1  0  0  0  0  0  0  0  0  0
   43.0021   21.3673    0.7551 C   0  0  2  0  0  0  0  0  0  0  0  0
   43.0383   20.4769    2.0385 C   0  0  1  0  0  0  0  0  0  0  0  0
  1  3  1  0  0  0  0
  4  1  1  6  0  0  0
  4  6  1  0  0  0  0
  4 31  1  0  0  0  0
  6  7  1  0  0  0  0
  7  9  1  6  0  0  0
  7 30  1  0  0  0  0
  8 26  1  0  0  0  0
 10  9  1  1  0  0  0
 10 13  1  0  0  0  0
 10 21  1  0  0  0  0
 13 12  1  6  0  0  0
 13 15  1  0  0  0  0
 15  2  1  1  0  0  0
 15 17  1  0  0  0  0
 16 25  1  0  0  0  0
 16 23  1  0  0  0  0
 17 19  1  0  0  0  0
 19  5  1  1  0  0  0
 19 21  1  0  0  0  0
 21 14  1  6  0  0  0
 23 14  1  1  0  0  0
 23 29  1  0  0  0  0
 25 26  1  1  0  0  0
 25 27  1  0  0  0  0
 27 18  1  1  0  0  0
 27 28  1  0  0  0  0
 28 20  1  6  0  0  0
 28 29  1  0  0  0  0
 29 11  1  6  0  0  0
 30 22  1  1  0  0  0
 30 31  1  0  0  0  0
 31 24  1  1  0  0  0
M  END
>  <CHROM.1>
-48.73701117,-52.23867353,69.81546978,62.36293330,71.58276219,66.81240161
41.88813588,24.22426351,1.27116650,0.31870476,0.26833599,3.08496116

>  <Name>
ligand

>  <RI>
0

>  <Rbt.Current_Directory>
/home/itssahil/PROJECTS/Mol_Feturizer/New_Systems/rnas/2ET5

>  <Rbt.Executable>
rbdock ($Id: //depot/dev/client3/rdock/2013.1/src/exe/rbdock.cxx#4 $)

>  <Rbt.Library>
libRbt.so (2013.1, Build901 2013/11/27)

>  <Rbt.Parameter_File>
/export/apps/rDock/src/rDock_2013.1_src/data/scripts/dock_solv.prm

>  <Rbt.Receptor>
prm/pocket_docking_7.prm

>  <SCORE>
-8.82312

>  <SCORE.INTER>
-3.04208

>  <SCORE.INTER.CONST>
1

>  <SCORE.INTER.POLAR>
0

>  <SCORE.INTER.ROT>
6

>  <SCORE.INTER.SOLV>
12.2077

>  <SCORE.INTER.VDW>
-13.6973

>  <SCORE.INTER.norm>
-0.0981317

>  <SCORE.INTRA>
-5.78104

>  <SCORE.INTRA.DIHEDRAL>
-9.06013

>  <SCORE.INTRA.DIHEDRAL.0>
11.2357

>  <SCORE.INTRA.POLAR>
0

>  <SCORE.INTRA.POLAR.0>
0

>  <SCORE.INTRA.REPUL>
0

>  <SCORE.INTRA.REPUL.0>
0

>  <SCORE.INTRA.SOLV>
-2.7403

>  <SCORE.INTRA.SOLV.lig_0>
-83.3092

>  <SCORE.INTRA.VDW>
0.119176

>  <SCORE.INTRA.VDW.0>
-4.47057

>  <SCORE.INTRA.norm>
-0.186485

>  <SCORE.RESTR>
0

>  <SCORE.RESTR.CAVITY>
0

>  <SCORE.RESTR.norm>
0

>  <SCORE.SYSTEM>
0

>  <SCORE.SYSTEM.CONST>
0

>  <SCORE.SYSTEM.DIHEDRAL>
0

>  <SCORE.SYSTEM.SOLV>
0

>  <SCORE.SYSTEM.norm>
0

>  <SCORE.heavy>
31

>  <SCORE.norm>
-0.284617

>  <RMSD>
6.744

$$$$
ligand
 OpenBabel11021811433D
libRbt.so/2013.1/901 2013/11/27
 31 33  0  0  0  0  0  0  0  0999 V2000
   45.5109   20.5440    2.5884 C   0  0  0  0  0  0  0  0  0  0  0  0
   42.9002   24.7386    6.7891 N   0  0  0  0  0  0  0  0  0  0  0  0
   45.4590   21.6676    1.6972 O   0  0  0  0  0  0  0  0  0  0  0  0
   44.0478   20.1719    2.8137 C   0  0  1  0  0  0  0  0  0  0  0  0
   38.3388   24.7425    4.5705 N   0  0  0  0  0  0  0  0  0  0  0  0
   43.1557   21.3230    3.2417 O   0  0  0  0  0  0  0  0  0  0  0  0
   42.3089   21.7608    2.2501 C   0  0  1  0  0  0  0  0  0  0  0  0
   42.3129   24.8882   -2.0130 N   0  0  0  0  0  0  0  0  0  0  0  0
   42.2518   23.1370    1.9970 O   0  0  0  0  0  0  0  0  0  0  0  0
   41.7874   24.1425    3.0115 C   0  0  2  0  0  0  0  0  0  0  0  0
   37.2932   25.8122    1.0626 N   0  0  0  0  0  0  0  0  0  0  0  0
   44.0295   24.0843    4.0892 O   0  0  0  0  0  0  0  0  0  0  0  0
   42.5841   23.9089    4.3292 C   0  0  1  0  0  0  0  0  0  0  0  0
   39.5391   24.2032    2.1328 O   0  0  0  0  0  0  0  0  0  0  0  0
   42.1127   24.9545    5.4592 C   0  0  1  0  0  0  0  0  0  0  0  0
   40.9014   25.0075    0.3545 O   0  0  0  0  0  0  0  0  0  0  0  0
   40.5541   24.7409    5.6945 C   0  0  0  0  0  0  0  0  0  0  0  0
   39.3704   22.9883   -2.3749 O   0  0  0  0  0  0  0  0  0  0  0  0
   39.8017   24.9585    4.3164 C   0  0  1  0  0  0  0  0  0  0  0  0
   37.1372   24.5990   -1.6180 O   0  0  0  0  0  0  0  0  0  0  0  0
   40.2305   23.9547    3.2940 C   0  0  2  0  0  0  0  0  0  0  0  0
   41.5001   20.7465    0.2485 O   0  0  0  0  0  0  0  0  0  0  0  0
   39.7068   25.3142    1.2150 C   0  0  1  0  0  0  0  0  0  0  0  0
   42.1577   18.7550    2.0550 O   0  0  0  0  0  0  0  0  0  0  0  0
   40.7567   23.8088   -0.5733 C   0  0  2  0  0  0  0  0  0  0  0  0
   42.0486   23.6049   -1.3562 C   0  0  0  0  0  0  0  0  0  0  0  0
   39.5571   24.0770   -1.5112 C   0  0  2  0  0  0  0  0  0  0  0  0
   38.2889   24.3201   -0.7101 C   0  0  1  0  0  0  0  0  0  0  0  0
   38.5255   25.5155    0.2315 C   0  0  1  0  0  0  0  0  0  0  0  0
   42.6261   20.9073    1.0329 C   0  0  2  0  0  0  0  0  0  0  0  0
   43.2587   19.6077    1.6265 C   0  0  1  0  0  0  0  0  0  0  0  0
  1  3  1  0  0  0  0
  4  1  1  6  0  0  0
  4  6  1  0  0  0  0
  4 31  1  0  0  0  0
  6  7  1  0  0  0  0
  7  9  1  6  0  0  0
  7 30  1  0  0  0  0
  8 26  1  0  0  0  0
 10  9  1  6  0  0  0
 10 13  1  0  0  0  0
 10 21  1  0  0  0  0
 13 12  1  6  0  0  0
 13 15  1  0  0  0  0
 15  2  1  1  0  0  0
 15 17  1  0  0  0  0
 16 25  1  0  0  0  0
 16 23  1  0  0  0  0
 17 19  1  0  0  0  0
 19  5  1  1  0  0  0
 19 21  1  0  0  0  0
 21 14  1  6  0  0  0
 23 14  1  1  0  0  0
 23 29  1  0  0  0  0
 25 26  1  6  0  0  0
 25 27  1  0  0  0  0
 27 18  1  6  0  0  0
 27 28  1  0  0  0  0
 28 20  1  6  0  0  0
 28 29  1  0  0  0  0
 29 11  1  1  0  0  0
 30 22  1  1  0  0  0
 30 31  1  0  0  0  0
 31 24  1  1  0  0  0
M  END
>  <CHROM.1>
-51.76952671,-62.58081116,51.65244722,79.58757135,-46.68330881,-54.79442877
41.30952661,23.28968146,1.77314639,-0.37136604,0.70858900,-1.94780239

>  <Name>
ligand

>  <RI>
0

>  <Rbt.Current_Directory>
/home/itssahil/PROJECTS/Mol_Feturizer/New_Systems/rnas/2ET5

>  <Rbt.Executable>
rbdock ($Id: //depot/dev/client3/rdock/2013.1/src/exe/rbdock.cxx#4 $)

>  <Rbt.Library>
libRbt.so (2013.1, Build901 2013/11/27)

>  <Rbt.Parameter_File>
/export/apps/rDock/src/rDock_2013.1_src/data/scripts/dock_solv.prm

>  <Rbt.Receptor>
prm/pocket_docking_4.prm

>  <SCORE>
-10.1195

>  <SCORE.INTER>
-6.81706

>  <SCORE.INTER.CONST>
1

>  <SCORE.INTER.POLAR>
0

>  <SCORE.INTER.ROT>
6

>  <SCORE.INTER.SOLV>
19.8932

>  <SCORE.INTER.VDW>
-18.7758

>  <SCORE.INTER.norm>
-0.219905

>  <SCORE.INTRA>
-3.30244

>  <SCORE.INTRA.DIHEDRAL>
-7.82767

>  <SCORE.INTRA.DIHEDRAL.0>
11.2357

>  <SCORE.INTRA.POLAR>
0

>  <SCORE.INTRA.POLAR.0>
0

>  <SCORE.INTRA.REPUL>
0

>  <SCORE.INTRA.REPUL.0>
0

>  <SCORE.INTRA.SOLV>
0.0434254

>  <SCORE.INTRA.SOLV.lig_0>
-83.3092

>  <SCORE.INTRA.VDW>
0.589684

>  <SCORE.INTRA.VDW.0>
-4.47057

>  <SCORE.INTRA.norm>
-0.10653

>  <SCORE.RESTR>
0

>  <SCORE.RESTR.CAVITY>
0

>  <SCORE.RESTR.norm>
0

>  <SCORE.SYSTEM>
0

>  <SCORE.SYSTEM.CONST>
0

>  <SCORE.SYSTEM.DIHEDRAL>
0

>  <SCORE.SYSTEM.SOLV>
0

>  <SCORE.SYSTEM.norm>
0

>  <SCORE.heavy>
31

>  <SCORE.norm>
-0.326436

>  <RMSD>
6.769

$$$$
ligand
 OpenBabel11021811433D
libRbt.so/2013.1/901 2013/11/27
 31 33  0  0  0  0  0  0  0  0999 V2000
   35.5080   29.0379    3.7978 C   0  0  0  0  0  0  0  0  0  0  0  0
   39.4969   28.8986   -4.1919 N   0  0  0  0  0  0  0  0  0  0  0  0
   34.3941   28.8058    4.6725 O   0  0  0  0  0  0  0  0  0  0  0  0
   34.9433   28.8112    2.3978 C   0  0  1  0  0  0  0  0  0  0  0  0
   42.2741   29.7667   -0.0371 N   0  0  0  0  0  0  0  0  0  0  0  0
   35.9196   29.0753    1.2660 O   0  0  0  0  0  0  0  0  0  0  0  0
   36.3787   27.9305    0.6572 C   0  0  1  0  0  0  0  0  0  0  0  0
   43.4505   25.8640    3.3531 N   0  0  0  0  0  0  0  0  0  0  0  0
   37.7600   27.7970    0.4685 O   0  0  0  0  0  0  0  0  0  0  0  0
   38.5826   28.7777   -0.3172 C   0  0  2  0  0  0  0  0  0  0  0  0
   39.0832   30.7380    3.9063 N   0  0  0  0  0  0  0  0  0  0  0  0
   37.2160   28.2966   -2.3403 O   0  0  0  0  0  0  0  0  0  0  0  0
   38.5916   28.3231   -1.8068 C   0  0  1  0  0  0  0  0  0  0  0  0
   40.0554   29.2466    1.5380 O   0  0  0  0  0  0  0  0  0  0  0  0
   39.4753   29.3355   -2.6938 C   0  0  1  0  0  0  0  0  0  0  0  0
   40.0290   27.2543    2.8399 O   0  0  0  0  0  0  0  0  0  0  0  0
   40.9489   29.3418   -2.0948 C   0  0  0  0  0  0  0  0  0  0  0  0
   43.0296   27.9975    4.9171 O   0  0  0  0  0  0  0  0  0  0  0  0
   40.8726   29.7787   -0.5730 C   0  0  1  0  0  0  0  0  0  0  0  0
   41.2997   30.1135    5.7445 O   0  0  0  0  0  0  0  0  0  0  0  0
   40.0764   28.8056    0.2367 C   0  0  2  0  0  0  0  0  0  0  0  0
   35.5400   25.6995    0.5641 O   0  0  0  0  0  0  0  0  0  0  0  0
   39.4202   28.6203    2.6821 C   0  0  1  0  0  0  0  0  0  0  0  0
   33.4249   27.4300    1.0040 O   0  0  0  0  0  0  0  0  0  0  0  0
   41.5069   27.2280    3.2053 C   0  0  2  0  0  0  0  0  0  0  0  0
   41.9879   25.7848    3.3017 C   0  0  0  0  0  0  0  0  0  0  0  0
   41.6773   27.9773    4.5470 C   0  0  2  0  0  0  0  0  0  0  0  0
   41.1526   29.3996    4.4417 C   0  0  1  0  0  0  0  0  0  0  0  0
   39.6699   29.3459    4.0292 C   0  0  1  0  0  0  0  0  0  0  0  0
   35.7293   26.7783    1.4064 C   0  0  2  0  0  0  0  0  0  0  0  0
   34.4469   27.4049    2.0422 C   0  0  1  0  0  0  0  0  0  0  0  0
  1  3  1  0  0  0  0
  4  1  1  1  0  0  0
  4  6  1  0  0  0  0
  4 31  1  0  0  0  0
  6  7  1  0  0  0  0
  7  9  1  1  0  0  0
  7 30  1  0  0  0  0
  8 26  1  0  0  0  0
 10  9  1  1  0  0  0
 10 13  1  0  0  0  0
 10 21  1  0  0  0  0
 13 12  1  6  0  0  0
 13 15  1  0  0  0  0
 15  2  1  6  0  0  0
 15 17  1  0  0  0  0
 16 25  1  0  0  0  0
 16 23  1  0  0  0  0
 17 19  1  0  0  0  0
 19  5  1  1  0  0  0
 19 21  1  0  0  0  0
 21 14  1  1  0  0  0
 23 14  1  6  0  0  0
 23 29  1  0  0  0  0
 25 26  1  1  0  0  0
 25 27  1  0  0  0  0
 27 18  1  6  0  0  0
 27 28  1  0  0  0  0
 28 20  1  1  0  0  0
 28 29  1  0  0  0  0
 29 11  1  6  0  0  0
 30 22  1  6  0  0  0
 30 31  1  0  0  0  0
 31 24  1  6  0  0  0
M  END
>  <CHROM.1>
176.68923440,-58.52180494,-89.33528058,59.56378191,62.84372823,167.63368612
38.79568329,28.36416785,1.60574661,2.69178038,-0.06593865,-1.52750464

>  <Name>
ligand

>  <RI>
0

>  <Rbt.Current_Directory>
/home/itssahil/PROJECTS/Mol_Feturizer/New_Systems/rnas/2ET5

>  <Rbt.Executable>
rbdock ($Id: //depot/dev/client3/rdock/2013.1/src/exe/rbdock.cxx#4 $)

>  <Rbt.Library>
libRbt.so (2013.1, Build901 2013/11/27)

>  <Rbt.Parameter_File>
/export/apps/rDock/src/rDock_2013.1_src/data/scripts/dock_solv.prm

>  <Rbt.Receptor>
prm/pocket_docking_8.prm

>  <SCORE>
-7.52221

>  <SCORE.INTER>
-3.65455

>  <SCORE.INTER.CONST>
1

>  <SCORE.INTER.POLAR>
0

>  <SCORE.INTER.ROT>
6

>  <SCORE.INTER.SOLV>
11.3638

>  <SCORE.INTER.VDW>
-13.8243

>  <SCORE.INTER.norm>
-0.117889

>  <SCORE.INTRA>
-3.86766

>  <SCORE.INTRA.DIHEDRAL>
-6.99664

>  <SCORE.INTRA.DIHEDRAL.0>
11.2357

>  <SCORE.INTRA.POLAR>
0

>  <SCORE.INTRA.POLAR.0>
0

>  <SCORE.INTRA.REPUL>
0

>  <SCORE.INTRA.REPUL.0>
0

>  <SCORE.INTRA.SOLV>
-3.09359

>  <SCORE.INTRA.SOLV.lig_0>
-83.3092

>  <SCORE.INTRA.VDW>
1.17746

>  <SCORE.INTRA.VDW.0>
-4.47057

>  <SCORE.INTRA.norm>
-0.124763

>  <SCORE.RESTR>
0

>  <SCORE.RESTR.CAVITY>
0

>  <SCORE.RESTR.norm>
0

>  <SCORE.SYSTEM>
0

>  <SCORE.SYSTEM.CONST>
0

>  <SCORE.SYSTEM.DIHEDRAL>
0

>  <SCORE.SYSTEM.SOLV>
0

>  <SCORE.SYSTEM.norm>
0

>  <SCORE.heavy>
31

>  <SCORE.norm>
-0.242652

>  <RMSD>
6.770

$$$$
ligand
 OpenBabel11021811433D
libRbt.so/2013.1/901 2013/11/27
 31 33  0  0  0  0  0  0  0  0999 V2000
   40.6996   22.7096   -1.1412 C   0  0  0  0  0  0  0  0  0  0  0  0
   33.4063   27.3197    0.9056 N   0  0  0  0  0  0  0  0  0  0  0  0
   41.1101   23.6367   -0.1255 O   0  0  0  0  0  0  0  0  0  0  0  0
   39.5570   23.4199   -1.8624 C   0  0  1  0  0  0  0  0  0  0  0  0
   36.0969   26.1568    5.0452 N   0  0  0  0  0  0  0  0  0  0  0  0
   38.3986   23.8310   -0.9718 O   0  0  0  0  0  0  0  0  0  0  0  0
   38.3423   25.1843   -0.7321 C   0  0  1  0  0  0  0  0  0  0  0  0
   39.8337   28.8651    4.5624 N   0  0  0  0  0  0  0  0  0  0  0  0
   38.1947   25.6096    0.5941 O   0  0  0  0  0  0  0  0  0  0  0  0
   36.9102   25.4816    1.3619 C   0  0  2  0  0  0  0  0  0  0  0  0
   39.5692   22.4733    3.6864 N   0  0  0  0  0  0  0  0  0  0  0  0
   35.6314   26.0891   -0.6844 O   0  0  0  0  0  0  0  0  0  0  0  0
   35.8652   26.4469    0.7280 C   0  0  1  0  0  0  0  0  0  0  0  0
   38.0358   24.9967    3.4425 O   0  0  0  0  0  0  0  0  0  0  0  0
   34.4693   26.3600    1.5258 C   0  0  1  0  0  0  0  0  0  0  0  0
   40.0846   26.2003    3.5800 O   0  0  0  0  0  0  0  0  0  0  0  0
   34.7542   26.7503    3.0413 C   0  0  0  0  0  0  0  0  0  0  0  0
   40.6975   25.6918    7.2183 O   0  0  0  0  0  0  0  0  0  0  0  0
   35.8457   25.7576    3.6208 C   0  0  1  0  0  0  0  0  0  0  0  0
   40.8355   22.9929    6.2957 O   0  0  0  0  0  0  0  0  0  0  0  0
   37.1429   25.8811    2.8868 C   0  0  2  0  0  0  0  0  0  0  0  0
   39.2608   27.0687   -1.8700 O   0  0  0  0  0  0  0  0  0  0  0  0
   39.4602   24.8894    3.1889 C   0  0  1  0  0  0  0  0  0  0  0  0
   38.9524   24.9971   -3.6797 O   0  0  0  0  0  0  0  0  0  0  0  0
   40.0203   26.5465    5.0615 C   0  0  2  0  0  0  0  0  0  0  0  0
   40.6629   27.9080    5.3003 C   0  0  0  0  0  0  0  0  0  0  0  0
   40.7472   25.4273    5.8421 C   0  0  2  0  0  0  0  0  0  0  0  0
   40.1184   24.0736    5.5566 C   0  0  1  0  0  0  0  0  0  0  0  0
   40.1823   23.8135    4.0401 C   0  0  1  0  0  0  0  0  0  0  0  0
   39.5384   25.7797   -1.4569 C   0  0  2  0  0  0  0  0  0  0  0  0
   39.8685   24.7406   -2.5761 C   0  0  1  0  0  0  0  0  0  0  0  0
  1  3  1  0  0  0  0
  4  1  1  1  0  0  0
  4  6  1  0  0  0  0
  4 31  1  0  0  0  0
  6  7  1  0  0  0  0
  7  9  1  1  0  0  0
  7 30  1  0  0  0  0
  8 26  1  0  0  0  0
 10  9  1  6  0  0  0
 10 13  1  0  0  0  0
 10 21  1  0  0  0  0
 13 12  1  6  0  0  0
 13 15  1  0  0  0  0
 15  2  1  6  0  0  0
 15 17  1  0  0  0  0
 16 25  1  0  0  0  0
 16 23  1  0  0  0  0
 17 19  1  0  0  0  0
 19  5  1  1  0  0  0
 19 21  1  0  0  0  0
 21 14  1  1  0  0  0
 23 14  1  1  0  0  0
 23 29  1  0  0  0  0
 25 26  1  6  0  0  0
 25 27  1  0  0  0  0
 27 18  1  1  0  0  0
 27 28  1  0  0  0  0
 28 20  1  1  0  0  0
 28 29  1  0  0  0  0
 29 11  1  1  0  0  0
 30 22  1  6  0  0  0
 30 31  1  0  0  0  0
 31 24  1  6  0  0  0
M  END
>  <CHROM.1>
-57.22342433,-72.96754099,-67.95747998,60.63537885,71.29862104,63.33387844
38.55537423,25.38144449,1.98604224,-1.81180806,-0.44616950,1.41540913

>  <Name>
ligand

>  <RI>
0

>  <Rbt.Current_Directory>
/home/itssahil/PROJECTS/Mol_Feturizer/New_Systems/rnas/2ET5

>  <Rbt.Executable>
rbdock ($Id: //depot/dev/client3/rdock/2013.1/src/exe/rbdock.cxx#4 $)

>  <Rbt.Library>
libRbt.so (2013.1, Build901 2013/11/27)

>  <Rbt.Parameter_File>
/export/apps/rDock/src/rDock_2013.1_src/data/scripts/dock_solv.prm

>  <Rbt.Receptor>
prm/pocket_docking_5.prm

>  <SCORE>
-4.93091

>  <SCORE.INTER>
0.238518

>  <SCORE.INTER.CONST>
1

>  <SCORE.INTER.POLAR>
0

>  <SCORE.INTER.ROT>
6

>  <SCORE.INTER.SOLV>
19.3586

>  <SCORE.INTER.VDW>
-13.8939

>  <SCORE.INTER.norm>
0.00769413

>  <SCORE.INTRA>
-5.16943

>  <SCORE.INTRA.DIHEDRAL>
-9.32655

>  <SCORE.INTRA.DIHEDRAL.0>
11.2357

>  <SCORE.INTRA.POLAR>
0

>  <SCORE.INTRA.POLAR.0>
0

>  <SCORE.INTRA.REPUL>
0

>  <SCORE.INTRA.REPUL.0>
0

>  <SCORE.INTRA.SOLV>
-3.3903

>  <SCORE.INTRA.SOLV.lig_0>
-83.3092

>  <SCORE.INTRA.VDW>
1.189

>  <SCORE.INTRA.VDW.0>
-4.47057

>  <SCORE.INTRA.norm>
-0.166756

>  <SCORE.RESTR>
0

>  <SCORE.RESTR.CAVITY>
0

>  <SCORE.RESTR.norm>
0

>  <SCORE.SYSTEM>
0

>  <SCORE.SYSTEM.CONST>
0

>  <SCORE.SYSTEM.DIHEDRAL>
0

>  <SCORE.SYSTEM.SOLV>
0

>  <SCORE.SYSTEM.norm>
0

>  <SCORE.heavy>
31

>  <SCORE.norm>
-0.159062

>  <RMSD>
6.776

$$$$
ligand
 OpenBabel11021811433D
libRbt.so/2013.1/901 2013/11/27
 31 33  0  0  0  0  0  0  0  0999 V2000
   34.8804   29.2042    3.6501 C   0  0  0  0  0  0  0  0  0  0  0  0
   39.5378   29.1075   -3.8001 N   0  0  0  0  0  0  0  0  0  0  0  0
   36.0616   28.4467    3.9511 O   0  0  0  0  0  0  0  0  0  0  0  0
   34.5592   28.8446    2.2018 C   0  0  1  0  0  0  0  0  0  0  0  0
   42.2964   29.7421    0.4089 N   0  0  0  0  0  0  0  0  0  0  0  0
   35.6812   29.1107    1.2148 O   0  0  0  0  0  0  0  0  0  0  0  0
   36.3060   27.9684    0.7711 C   0  0  1  0  0  0  0  0  0  0  0  0
   41.4661   25.1024    2.3096 N   0  0  0  0  0  0  0  0  0  0  0  0
   37.7056   27.9312    0.8053 O   0  0  0  0  0  0  0  0  0  0  0  0
   38.5738   28.9034    0.0590 C   0  0  2  0  0  0  0  0  0  0  0  0
   39.1102   30.7653    4.3189 N   0  0  0  0  0  0  0  0  0  0  0  0
   37.2141   28.5366   -1.9924 O   0  0  0  0  0  0  0  0  0  0  0  0
   38.5833   28.4944   -1.4437 C   0  0  1  0  0  0  0  0  0  0  0  0
   40.0413   29.2590    1.9435 O   0  0  0  0  0  0  0  0  0  0  0  0
   39.5151   29.4989   -2.2895 C   0  0  1  0  0  0  0  0  0  0  0  0
   39.8129   27.2441    3.1896 O   0  0  0  0  0  0  0  0  0  0  0  0
   40.9806   29.4309   -1.6750 C   0  0  0  0  0  0  0  0  0  0  0  0
   42.7906   27.6939    5.3809 O   0  0  0  0  0  0  0  0  0  0  0  0
   40.9029   29.8237   -0.1412 C   0  0  1  0  0  0  0  0  0  0  0  0
   41.2066   29.9208    6.2094 O   0  0  0  0  0  0  0  0  0  0  0  0
   40.0610   28.8574    0.6295 C   0  0  2  0  0  0  0  0  0  0  0  0
   35.6439   25.6774    0.7206 O   0  0  0  0  0  0  0  0  0  0  0  0
   39.3199   28.6578    3.0493 C   0  0  1  0  0  0  0  0  0  0  0  0
   33.3747   27.2625    0.7019 O   0  0  0  0  0  0  0  0  0  0  0  0
   41.2709   27.0907    3.6012 C   0  0  2  0  0  0  0  0  0  0  0  0
   41.6325   25.6117    3.6738 C   0  0  0  0  0  0  0  0  0  0  0  0
   41.4543   27.7911    4.9674 C   0  0  2  0  0  0  0  0  0  0  0  0
   41.0478   29.2529    4.8838 C   0  0  1  0  0  0  0  0  0  0  0  0
   39.5804   29.3281    4.4229 C   0  0  1  0  0  0  0  0  0  0  0  0
   35.6257   26.8197    1.4979 C   0  0  2  0  0  0  0  0  0  0  0  0
   34.2203   27.3839    1.8823 C   0  0  1  0  0  0  0  0  0  0  0  0
  1  3  1  0  0  0  0
  4  1  1  1  0  0  0
  4  6  1  0  0  0  0
  4 31  1  0  0  0  0
  6  7  1  0  0  0  0
  7  9  1  1  0  0  0
  7 30  1  0  0  0  0
  8 26  1  0  0  0  0
 10  9  1  1  0  0  0
 10 13  1  0  0  0  0
 10 21  1  0  0  0  0
 13 12  1  6  0  0  0
 13 15  1  0  0  0  0
 15  2  1  6  0  0  0
 15 17  1  0  0  0  0
 16 25  1  0  0  0  0
 16 23  1  0  0  0  0
 17 19  1  0  0  0  0
 19  5  1  1  0  0  0
 19 21  1  0  0  0  0
 21 14  1  1  0  0  0
 23 14  1  6  0  0  0
 23 29  1  0  0  0  0
 25 26  1  1  0  0  0
 25 27  1  0  0  0  0
 27 18  1  6  0  0  0
 27 28  1  0  0  0  0
 28 20  1  1  0  0  0
 28 29  1  0  0  0  0
 29 11  1  6  0  0  0
 30 22  1  6  0  0  0
 30 31  1  0  0  0  0
 31 24  1  6  0  0  0
M  END
>  <CHROM.1>
-56.62924633,-59.82103593,-76.75125262,60.26993278,59.75283726,62.77701802
38.69209083,28.33215021,1.79899238,2.54830469,-0.10543773,-1.47847653

>  <Name>
ligand

>  <RI>
0

>  <Rbt.Current_Directory>
/home/itssahil/PROJECTS/Mol_Feturizer/New_Systems/rnas/2ET5

>  <Rbt.Executable>
rbdock ($Id: //depot/dev/client3/rdock/2013.1/src/exe/rbdock.cxx#4 $)

>  <Rbt.Library>
libRbt.so (2013.1, Build901 2013/11/27)

>  <Rbt.Parameter_File>
/export/apps/rDock/src/rDock_2013.1_src/data/scripts/dock_solv.prm

>  <Rbt.Receptor>
prm/pocket_docking_8.prm

>  <SCORE>
-9.81317

>  <SCORE.INTER>
-4.35815

>  <SCORE.INTER.CONST>
1

>  <SCORE.INTER.POLAR>
0

>  <SCORE.INTER.ROT>
6

>  <SCORE.INTER.SOLV>
10.7606

>  <SCORE.INTER.VDW>
-14.0923

>  <SCORE.INTER.norm>
-0.140585

>  <SCORE.INTRA>
-5.45502

>  <SCORE.INTRA.DIHEDRAL>
-9.72425

>  <SCORE.INTRA.DIHEDRAL.0>
11.2357

>  <SCORE.INTRA.POLAR>
0

>  <SCORE.INTRA.POLAR.0>
0

>  <SCORE.INTRA.REPUL>
0

>  <SCORE.INTRA.REPUL.0>
0

>  <SCORE.INTRA.SOLV>
-3.172

>  <SCORE.INTRA.SOLV.lig_0>
-83.3092

>  <SCORE.INTRA.VDW>
0.993101

>  <SCORE.INTRA.VDW.0>
-4.47057

>  <SCORE.INTRA.norm>
-0.175968

>  <SCORE.RESTR>
0

>  <SCORE.RESTR.CAVITY>
0

>  <SCORE.RESTR.norm>
0

>  <SCORE.SYSTEM>
0

>  <SCORE.SYSTEM.CONST>
0

>  <SCORE.SYSTEM.DIHEDRAL>
0

>  <SCORE.SYSTEM.SOLV>
0

>  <SCORE.SYSTEM.norm>
0

>  <SCORE.heavy>
31

>  <SCORE.norm>
-0.316554

>  <RMSD>
6.779

$$$$
ligand
 OpenBabel11021811433D
libRbt.so/2013.1/901 2013/11/27
 31 33  0  0  0  0  0  0  0  0999 V2000
   45.2359   20.5296    2.0915 C   0  0  0  0  0  0  0  0  0  0  0  0
   42.7580   24.7358    6.7783 N   0  0  0  0  0  0  0  0  0  0  0  0
   45.7585   21.4157    3.0922 O   0  0  0  0  0  0  0  0  0  0  0  0
   43.8400   20.1716    2.5949 C   0  0  1  0  0  0  0  0  0  0  0  0
   38.1310   24.8422    4.7028 N   0  0  0  0  0  0  0  0  0  0  0  0
   43.0397   21.3404    3.1404 O   0  0  0  0  0  0  0  0  0  0  0  0
   42.0239   21.7481    2.3073 C   0  0  1  0  0  0  0  0  0  0  0  0
   42.8712   24.0736   -0.2571 N   0  0  0  0  0  0  0  0  0  0  0  0
   41.9184   23.1152    2.0223 O   0  0  0  0  0  0  0  0  0  0  0  0
   41.5123   24.1402    3.0423 C   0  0  2  0  0  0  0  0  0  0  0  0
   36.8049   25.6383    1.2690 N   0  0  0  0  0  0  0  0  0  0  0  0
   43.7848   24.0316    4.0501 O   0  0  0  0  0  0  0  0  0  0  0  0
   42.3436   23.8959    4.3365 C   0  0  1  0  0  0  0  0  0  0  0  0
   39.2398   24.2531    2.2336 O   0  0  0  0  0  0  0  0  0  0  0  0
   41.9351   24.9621    5.4717 C   0  0  1  0  0  0  0  0  0  0  0  0
   40.4905   25.3789    0.5503 O   0  0  0  0  0  0  0  0  0  0  0  0
   40.3796   24.7912    5.7573 C   0  0  0  0  0  0  0  0  0  0  0  0
   39.2508   23.4170   -2.3626 O   0  0  0  0  0  0  0  0  0  0  0  0
   39.5903   25.0179    4.4014 C   0  0  1  0  0  0  0  0  0  0  0  0
   36.8212   24.6491   -1.5064 O   0  0  0  0  0  0  0  0  0  0  0  0
   39.9607   23.9954    3.3748 C   0  0  2  0  0  0  0  0  0  0  0  0
   40.8624   20.6702    0.5244 O   0  0  0  0  0  0  0  0  0  0  0  0
   39.2626   25.4509    1.4154 C   0  0  1  0  0  0  0  0  0  0  0  0
   41.8453   18.7381    2.2457 O   0  0  0  0  0  0  0  0  0  0  0  0
   40.5094   24.2555   -0.4774 C   0  0  2  0  0  0  0  0  0  0  0  0
   41.8200   24.2911   -1.2550 C   0  0  0  0  0  0  0  0  0  0  0  0
   39.2885   24.4429   -1.4074 C   0  0  2  0  0  0  0  0  0  0  0  0
   37.9962   24.4475   -0.6080 C   0  0  1  0  0  0  0  0  0  0  0  0
   38.0688   25.5785    0.4346 C   0  0  1  0  0  0  0  0  0  0  0  0
   42.1133   20.8526    1.0822 C   0  0  2  0  0  0  0  0  0  0  0  0
   42.8469   19.5711    1.5931 C   0  0  1  0  0  0  0  0  0  0  0  0
  1  3  1  0  0  0  0
  4  1  1  6  0  0  0
  4  6  1  0  0  0  0
  4 31  1  0  0  0  0
  6  7  1  0  0  0  0
  7  9  1  6  0  0  0
  7 30  1  0  0  0  0
  8 26  1  0  0  0  0
 10  9  1  6  0  0  0
 10 13  1  0  0  0  0
 10 21  1  0  0  0  0
 13 12  1  6  0  0  0
 13 15  1  0  0  0  0
 15  2  1  1  0  0  0
 15 17  1  0  0  0  0
 16 25  1  0  0  0  0
 16 23  1  0  0  0  0
 17 19  1  0  0  0  0
 19  5  1  1  0  0  0
 19 21  1  0  0  0  0
 21 14  1  6  0  0  0
 23 14  1  6  0  0  0
 23 29  1  0  0  0  0
 25 26  1  6  0  0  0
 25 27  1  0  0  0  0
 27 18  1  6  0  0  0
 27 28  1  0  0  0  0
 28 20  1  6  0  0  0
 28 29  1  0  0  0  0
 29 11  1  1  0  0  0
 30 22  1  1  0  0  0
 30 31  1  0  0  0  0
 31 24  1  1  0  0  0
M  END
>  <CHROM.1>
43.46514195,-68.89330010,47.75178753,79.08147816,-57.16422133,61.64193725
41.06136606,23.33574632,1.93049773,-0.23677322,0.69865933,-2.00265464

>  <Name>
ligand

>  <RI>
0

>  <Rbt.Current_Directory>
/home/itssahil/PROJECTS/Mol_Feturizer/New_Systems/rnas/2ET5

>  <Rbt.Executable>
rbdock ($Id: //depot/dev/client3/rdock/2013.1/src/exe/rbdock.cxx#4 $)

>  <Rbt.Library>
libRbt.so (2013.1, Build901 2013/11/27)

>  <Rbt.Parameter_File>
/export/apps/rDock/src/rDock_2013.1_src/data/scripts/dock_solv.prm

>  <Rbt.Receptor>
prm/pocket_docking_3.prm

>  <SCORE>
-8.86468

>  <SCORE.INTER>
-6.29407

>  <SCORE.INTER.CONST>
1

>  <SCORE.INTER.POLAR>
0

>  <SCORE.INTER.ROT>
6

>  <SCORE.INTER.SOLV>
21.3882

>  <SCORE.INTER.VDW>
-18.9254

>  <SCORE.INTER.norm>
-0.203035

>  <SCORE.INTRA>
-2.5706

>  <SCORE.INTRA.DIHEDRAL>
-7.39346

>  <SCORE.INTRA.DIHEDRAL.0>
11.2357

>  <SCORE.INTRA.POLAR>
0

>  <SCORE.INTRA.POLAR.0>
0

>  <SCORE.INTRA.REPUL>
0

>  <SCORE.INTRA.REPUL.0>
0

>  <SCORE.INTRA.SOLV>
1.17565

>  <SCORE.INTRA.SOLV.lig_0>
-83.3092

>  <SCORE.INTRA.VDW>
0.538298

>  <SCORE.INTRA.VDW.0>
-4.47057

>  <SCORE.INTRA.norm>
-0.0829227

>  <SCORE.RESTR>
0

>  <SCORE.RESTR.CAVITY>
0

>  <SCORE.RESTR.norm>
0

>  <SCORE.SYSTEM>
0

>  <SCORE.SYSTEM.CONST>
0

>  <SCORE.SYSTEM.DIHEDRAL>
0

>  <SCORE.SYSTEM.SOLV>
0

>  <SCORE.SYSTEM.norm>
0

>  <SCORE.heavy>
31

>  <SCORE.norm>
-0.285957

>  <RMSD>
6.785

$$$$
ligand
 OpenBabel11021811433D
libRbt.so/2013.1/901 2013/11/27
 31 33  0  0  0  0  0  0  0  0999 V2000
   45.4827   20.4192    2.3915 C   0  0  0  0  0  0  0  0  0  0  0  0
   42.8665   24.7454    6.7982 N   0  0  0  0  0  0  0  0  0  0  0  0
   46.0731   19.1455    2.0936 O   0  0  0  0  0  0  0  0  0  0  0  0
   44.0300   20.0932    2.7285 C   0  0  1  0  0  0  0  0  0  0  0  0
   38.3333   24.7621    4.5225 N   0  0  0  0  0  0  0  0  0  0  0  0
   43.2062   21.2745    3.2083 O   0  0  0  0  0  0  0  0  0  0  0  0
   42.3014   21.7285    2.2770 C   0  0  1  0  0  0  0  0  0  0  0  0
   42.2739   24.6615   -2.1451 N   0  0  0  0  0  0  0  0  0  0  0  0
   42.2660   23.1035    2.0134 O   0  0  0  0  0  0  0  0  0  0  0  0
   41.7966   24.1219    3.0126 C   0  0  2  0  0  0  0  0  0  0  0  0
   37.3715   25.8700    1.0233 N   0  0  0  0  0  0  0  0  0  0  0  0
   44.0245   24.0573    4.1188 O   0  0  0  0  0  0  0  0  0  0  0  0
   42.5750   23.8949    4.3423 C   0  0  1  0  0  0  0  0  0  0  0  0
   39.5599   24.1910    2.1052 O   0  0  0  0  0  0  0  0  0  0  0  0
   42.0973   24.9546    5.4565 C   0  0  1  0  0  0  0  0  0  0  0  0
   40.9387   24.9088    0.3027 O   0  0  0  0  0  0  0  0  0  0  0  0
   40.5343   24.7548    5.6742 C   0  0  0  0  0  0  0  0  0  0  0  0
   39.3059   22.9053   -2.3789 O   0  0  0  0  0  0  0  0  0  0  0  0
   39.8009   24.9649    4.2847 C   0  0  1  0  0  0  0  0  0  0  0  0
   37.1452   24.6174   -1.6341 O   0  0  0  0  0  0  0  0  0  0  0  0
   40.2349   23.9484    3.2773 C   0  0  2  0  0  0  0  0  0  0  0  0
   41.3170   20.7210    0.3521 O   0  0  0  0  0  0  0  0  0  0  0  0
   39.7645   25.2781    1.1665 C   0  0  1  0  0  0  0  0  0  0  0  0
   42.0481   18.7270    2.1273 O   0  0  0  0  0  0  0  0  0  0  0  0
   40.7386   23.7008   -0.6026 C   0  0  2  0  0  0  0  0  0  0  0  0
   42.0149   23.4316   -1.3913 C   0  0  0  0  0  0  0  0  0  0  0  0
   39.5431   24.0006   -1.5361 C   0  0  2  0  0  0  0  0  0  0  0  0
   38.2922   24.3083   -0.7300 C   0  0  1  0  0  0  0  0  0  0  0  0
   38.5841   25.5095    0.1884 C   0  0  1  0  0  0  0  0  0  0  0  0
   42.5023   20.8550    1.0494 C   0  0  2  0  0  0  0  0  0  0  0  0
   43.1388   19.5424    1.6092 C   0  0  1  0  0  0  0  0  0  0  0  0
  1  3  1  0  0  0  0
  4  1  1  6  0  0  0
  4  6  1  0  0  0  0
  4 31  1  0  0  0  0
  6  7  1  0  0  0  0
  7  9  1  6  0  0  0
  7 30  1  0  0  0  0
  8 26  1  0  0  0  0
 10  9  1  6  0  0  0
 10 13  1  0  0  0  0
 10 21  1  0  0  0  0
 13 12  1  6  0  0  0
 13 15  1  0  0  0  0
 15  2  1  1  0  0  0
 15 17  1  0  0  0  0
 16 25  1  0  0  0  0
 16 23  1  0  0  0  0
 17 19  1  0  0  0  0
 19  5  1  1  0  0  0
 19 21  1  0  0  0  0
 21 14  1  6  0  0  0
 23 14  1  1  0  0  0
 23 29  1  0  0  0  0
 25 26  1  6  0  0  0
 25 27  1  0  0  0  0
 27 18  1  6  0  0  0
 27 28  1  0  0  0  0
 28 20  1  6  0  0  0
 28 29  1  0  0  0  0
 29 11  1  1  0  0  0
 30 22  1  1  0  0  0
 30 31  1  0  0  0  0
 31 24  1  1  0  0  0
M  END
>  <CHROM.1>
174.69272445,-67.92963121,52.08341426,80.82795819,-45.41425641,-58.58444042
41.31511056,23.15736243,1.76831819,-0.22760533,0.74701573,-1.97983781

>  <Name>
ligand

>  <RI>
0

>  <Rbt.Current_Directory>
/home/itssahil/PROJECTS/Mol_Feturizer/New_Systems/rnas/2ET5

>  <Rbt.Executable>
rbdock ($Id: //depot/dev/client3/rdock/2013.1/src/exe/rbdock.cxx#4 $)

>  <Rbt.Library>
libRbt.so (2013.1, Build901 2013/11/27)

>  <Rbt.Parameter_File>
/export/apps/rDock/src/rDock_2013.1_src/data/scripts/dock_solv.prm

>  <Rbt.Receptor>
prm/pocket_docking_3.prm

>  <SCORE>
-10.1638

>  <SCORE.INTER>
-6.96032

>  <SCORE.INTER.CONST>
1

>  <SCORE.INTER.POLAR>
0

>  <SCORE.INTER.ROT>
6

>  <SCORE.INTER.SOLV>
19.1221

>  <SCORE.INTER.VDW>
-18.6142

>  <SCORE.INTER.norm>
-0.224526

>  <SCORE.INTRA>
-3.21313

>  <SCORE.INTRA.DIHEDRAL>
-7.4684

>  <SCORE.INTRA.DIHEDRAL.0>
11.2357

>  <SCORE.INTRA.POLAR>
0

>  <SCORE.INTRA.POLAR.0>
0

>  <SCORE.INTRA.REPUL>
0

>  <SCORE.INTRA.REPUL.0>
0

>  <SCORE.INTRA.SOLV>
-0.622125

>  <SCORE.INTRA.SOLV.lig_0>
-83.3092

>  <SCORE.INTRA.VDW>
0.83213

>  <SCORE.INTRA.VDW.0>
-4.47057

>  <SCORE.INTRA.norm>
-0.103649

>  <SCORE.RESTR>
0.00969857

>  <SCORE.RESTR.CAVITY>
0.00969857

>  <SCORE.RESTR.norm>
0.000312857

>  <SCORE.SYSTEM>
0

>  <SCORE.SYSTEM.CONST>
0

>  <SCORE.SYSTEM.DIHEDRAL>
0

>  <SCORE.SYSTEM.SOLV>
0

>  <SCORE.SYSTEM.norm>
0

>  <SCORE.heavy>
31

>  <SCORE.norm>
-0.327863

>  <RMSD>
6.799

$$$$
ligand
 OpenBabel11021811433D
libRbt.so/2013.1/901 2013/11/27
 31 33  0  0  0  0  0  0  0  0999 V2000
   34.8221   29.1904    3.7228 C   0  0  0  0  0  0  0  0  0  0  0  0
   39.5182   29.1704   -3.7061 N   0  0  0  0  0  0  0  0  0  0  0  0
   35.9585   28.3754    4.0451 O   0  0  0  0  0  0  0  0  0  0  0  0
   34.5193   28.8576    2.2642 C   0  0  1  0  0  0  0  0  0  0  0  0
   42.2951   29.7263    0.5020 N   0  0  0  0  0  0  0  0  0  0  0  0
   35.6540   29.1413    1.2967 O   0  0  0  0  0  0  0  0  0  0  0  0
   36.2841   28.0070    0.8401 C   0  0  1  0  0  0  0  0  0  0  0  0
   41.3037   25.0527    2.4307 N   0  0  0  0  0  0  0  0  0  0  0  0
   37.6831   27.9684    0.8914 O   0  0  0  0  0  0  0  0  0  0  0  0
   38.5614   28.9376    0.1532 C   0  0  2  0  0  0  0  0  0  0  0  0
   39.1132   30.7869    4.3989 N   0  0  0  0  0  0  0  0  0  0  0  0
   37.1922   28.6093   -1.8984 O   0  0  0  0  0  0  0  0  0  0  0  0
   38.5621   28.5443   -1.3538 C   0  0  1  0  0  0  0  0  0  0  0  0
   40.0380   29.2551    2.0373 O   0  0  0  0  0  0  0  0  0  0  0  0
   39.5041   29.5461   -2.1915 C   0  0  1  0  0  0  0  0  0  0  0  0
   39.7337   27.2473    3.2789 O   0  0  0  0  0  0  0  0  0  0  0  0
   40.9703   29.4534   -1.5815 C   0  0  0  0  0  0  0  0  0  0  0  0
   42.6887   27.6130    5.5161 O   0  0  0  0  0  0  0  0  0  0  0  0
   40.9012   29.8310   -0.0436 C   0  0  1  0  0  0  0  0  0  0  0  0
   41.1555   29.8836    6.3211 O   0  0  0  0  0  0  0  0  0  0  0  0
   40.0494   28.8671    0.7192 C   0  0  2  0  0  0  0  0  0  0  0  0
   35.6219   25.7177    0.7389 O   0  0  0  0  0  0  0  0  0  0  0  0
   39.2830   28.6744    3.1317 C   0  0  1  0  0  0  0  0  0  0  0  0
   33.3537   27.3041    0.7204 O   0  0  0  0  0  0  0  0  0  0  0  0
   41.1803   27.0529    3.7128 C   0  0  2  0  0  0  0  0  0  0  0  0
   41.4989   25.5643    3.7903 C   0  0  0  0  0  0  0  0  0  0  0  0
   41.3622   27.7478    5.0820 C   0  0  2  0  0  0  0  0  0  0  0  0
   40.9984   29.2205    4.9929 C   0  0  1  0  0  0  0  0  0  0  0  0
   39.5410   29.3370    4.5094 C   0  0  1  0  0  0  0  0  0  0  0  0
   35.5942   26.8454    1.5368 C   0  0  2  0  0  0  0  0  0  0  0  0
   34.1841   27.4033    1.9135 C   0  0  1  0  0  0  0  0  0  0  0  0
  1  3  1  0  0  0  0
  4  1  1  1  0  0  0
  4  6  1  0  0  0  0
  4 31  1  0  0  0  0
  6  7  1  0  0  0  0
  7  9  1  1  0  0  0
  7 30  1  0  0  0  0
  8 26  1  0  0  0  0
 10  9  1  1  0  0  0
 10 13  1  0  0  0  0
 10 21  1  0  0  0  0
 13 12  1  6  0  0  0
 13 15  1  0  0  0  0
 15  2  1  6  0  0  0
 15 17  1  0  0  0  0
 16 25  1  0  0  0  0
 16 23  1  0  0  0  0
 17 19  1  0  0  0  0
 19  5  1  1  0  0  0
 19 21  1  0  0  0  0
 21 14  1  1  0  0  0
 23 14  1  6  0  0  0
 23 29  1  0  0  0  0
 25 26  1  1  0  0  0
 25 27  1  0  0  0  0
 27 18  1  6  0  0  0
 27 28  1  0  0  0  0
 28 20  1  1  0  0  0
 28 29  1  0  0  0  0
 29 11  1  6  0  0  0
 30 22  1  6  0  0  0
 30 31  1  0  0  0  0
 31 24  1  6  0  0  0
M  END
>  <CHROM.1>
-59.45340298,-61.03805045,-75.43755892,61.46805793,57.86092071,61.27639727
38.64880064,28.33733989,1.88496764,2.53209286,-0.10793891,-1.46227495

>  <Name>
ligand

>  <RI>
0

>  <Rbt.Current_Directory>
/home/itssahil/PROJECTS/Mol_Feturizer/New_Systems/rnas/2ET5

>  <Rbt.Executable>
rbdock ($Id: //depot/dev/client3/rdock/2013.1/src/exe/rbdock.cxx#4 $)

>  <Rbt.Library>
libRbt.so (2013.1, Build901 2013/11/27)

>  <Rbt.Parameter_File>
/export/apps/rDock/src/rDock_2013.1_src/data/scripts/dock_solv.prm

>  <Rbt.Receptor>
prm/pocket_docking_7.prm

>  <SCORE>
-9.81308

>  <SCORE.INTER>
-4.29181

>  <SCORE.INTER.CONST>
1

>  <SCORE.INTER.POLAR>
0

>  <SCORE.INTER.ROT>
6

>  <SCORE.INTER.SOLV>
10.8047

>  <SCORE.INTER.VDW>
-14.0628

>  <SCORE.INTER.norm>
-0.138445

>  <SCORE.INTRA>
-5.52127

>  <SCORE.INTRA.DIHEDRAL>
-9.93441

>  <SCORE.INTRA.DIHEDRAL.0>
11.2357

>  <SCORE.INTRA.POLAR>
0

>  <SCORE.INTRA.POLAR.0>
0

>  <SCORE.INTRA.REPUL>
0

>  <SCORE.INTRA.REPUL.0>
0

>  <SCORE.INTRA.SOLV>
-3.35809

>  <SCORE.INTRA.SOLV.lig_0>
-83.3092

>  <SCORE.INTRA.VDW>
1.12498

>  <SCORE.INTRA.VDW.0>
-4.47057

>  <SCORE.INTRA.norm>
-0.178105

>  <SCORE.RESTR>
0

>  <SCORE.RESTR.CAVITY>
0

>  <SCORE.RESTR.norm>
0

>  <SCORE.SYSTEM>
0

>  <SCORE.SYSTEM.CONST>
0

>  <SCORE.SYSTEM.DIHEDRAL>
0

>  <SCORE.SYSTEM.SOLV>
0

>  <SCORE.SYSTEM.norm>
0

>  <SCORE.heavy>
31

>  <SCORE.norm>
-0.316551

>  <RMSD>
6.806

$$$$
ligand
 OpenBabel11021811433D
libRbt.so/2013.1/901 2013/11/27
 31 33  0  0  0  0  0  0  0  0999 V2000
   41.1629   22.4034   -1.5585 C   0  0  0  0  0  0  0  0  0  0  0  0
   38.3930   28.0727   -2.9888 N   0  0  0  0  0  0  0  0  0  0  0  0
   42.2634   21.4840   -1.5030 O   0  0  0  0  0  0  0  0  0  0  0  0
   41.2973   23.2318   -0.2834 C   0  0  1  0  0  0  0  0  0  0  0  0
   37.3551   28.9952    1.8897 N   0  0  0  0  0  0  0  0  0  0  0  0
   40.2865   24.3555   -0.1436 O   0  0  0  0  0  0  0  0  0  0  0  0
   39.3099   24.1036    0.7918 C   0  0  1  0  0  0  0  0  0  0  0  0
   40.6000   27.4079    5.7057 N   0  0  0  0  0  0  0  0  0  0  0  0
   37.9758   24.3088    0.4184 O   0  0  0  0  0  0  0  0  0  0  0  0
   37.4285   25.6501    0.0219 C   0  0  2  0  0  0  0  0  0  0  0  0
   34.7945   24.9572    3.8439 N   0  0  0  0  0  0  0  0  0  0  0  0
   37.9854   25.1700   -2.3553 O   0  0  0  0  0  0  0  0  0  0  0  0
   38.1865   26.1287   -1.2516 C   0  0  1  0  0  0  0  0  0  0  0  0
   36.9465   26.2864    2.3009 O   0  0  0  0  0  0  0  0  0  0  0  0
   37.6468   27.5742   -1.7120 C   0  0  1  0  0  0  0  0  0  0  0  0
   38.5482   25.1087    3.6096 O   0  0  0  0  0  0  0  0  0  0  0  0
   37.8770   28.5828   -0.5037 C   0  0  0  0  0  0  0  0  0  0  0  0
   38.1410   27.0715    6.7485 O   0  0  0  0  0  0  0  0  0  0  0  0
   37.1119   28.0278    0.7688 C   0  0  1  0  0  0  0  0  0  0  0  0
   35.5393   25.9152    6.5289 O   0  0  0  0  0  0  0  0  0  0  0  0
   37.6533   26.7015    1.1980 C   0  0  2  0  0  0  0  0  0  0  0  0
   39.1928   22.6080    2.6463 O   0  0  0  0  0  0  0  0  0  0  0  0
   37.1402   25.0795    3.0823 C   0  0  1  0  0  0  0  0  0  0  0  0
   41.8505   23.1884    2.1348 O   0  0  0  0  0  0  0  0  0  0  0  0
   38.8583   26.2199    4.6035 C   0  0  2  0  0  0  0  0  0  0  0  0
   40.3211   26.1403    5.0248 C   0  0  0  0  0  0  0  0  0  0  0  0
   37.9066   26.0555    5.8109 C   0  0  2  0  0  0  0  0  0  0  0  0
   36.4549   26.0947    5.3636 C   0  0  1  0  0  0  0  0  0  0  0  0
   36.2293   24.9736    4.3323 C   0  0  1  0  0  0  0  0  0  0  0  0
   39.6080   22.7147    1.3327 C   0  0  2  0  0  0  0  0  0  0  0  0
   41.1334   22.5134    1.0610 C   0  0  1  0  0  0  0  0  0  0  0  0
  1  3  1  0  0  0  0
  4  1  1  6  0  0  0
  4  6  1  0  0  0  0
  4 31  1  0  0  0  0
  6  7  1  0  0  0  0
  7  9  1  6  0  0  0
  7 30  1  0  0  0  0
  8 26  1  0  0  0  0
 10  9  1  1  0  0  0
 10 13  1  0  0  0  0
 10 21  1  0  0  0  0
 13 12  1  6  0  0  0
 13 15  1  0  0  0  0
 15  2  1  6  0  0  0
 15 17  1  0  0  0  0
 16 25  1  0  0  0  0
 16 23  1  0  0  0  0
 17 19  1  0  0  0  0
 19  5  1  1  0  0  0
 19 21  1  0  0  0  0
 21 14  1  1  0  0  0
 23 14  1  1  0  0  0
 23 29  1  0  0  0  0
 25 26  1  1  0  0  0
 25 27  1  0  0  0  0
 27 18  1  1  0  0  0
 27 28  1  0  0  0  0
 28 20  1  1  0  0  0
 28 29  1  0  0  0  0
 29 11  1  6  0  0  0
 30 22  1  1  0  0  0
 30 31  1  0  0  0  0
 31 24  1  1  0  0  0
M  END
>  <CHROM.1>
176.23145250,-62.51561077,62.05926788,58.87711740,63.81946878,166.77185240
38.57787161,25.35401002,1.84644155,-0.94019580,-0.86317767,1.71786013

>  <Name>
ligand

>  <RI>
0

>  <Rbt.Current_Directory>
/home/itssahil/PROJECTS/Mol_Feturizer/New_Systems/rnas/2ET5

>  <Rbt.Executable>
rbdock ($Id: //depot/dev/client3/rdock/2013.1/src/exe/rbdock.cxx#4 $)

>  <Rbt.Library>
libRbt.so (2013.1, Build901 2013/11/27)

>  <Rbt.Parameter_File>
/export/apps/rDock/src/rDock_2013.1_src/data/scripts/dock_solv.prm

>  <Rbt.Receptor>
prm/pocket_docking_4.prm

>  <SCORE>
-5.51764

>  <SCORE.INTER>
0.131426

>  <SCORE.INTER.CONST>
1

>  <SCORE.INTER.POLAR>
0

>  <SCORE.INTER.ROT>
6

>  <SCORE.INTER.SOLV>
12.3898

>  <SCORE.INTER.VDW>
-11.6423

>  <SCORE.INTER.norm>
0.00423956

>  <SCORE.INTRA>
-5.6589

>  <SCORE.INTRA.DIHEDRAL>
-10.3074

>  <SCORE.INTRA.DIHEDRAL.0>
11.2357

>  <SCORE.INTRA.POLAR>
0

>  <SCORE.INTRA.POLAR.0>
0

>  <SCORE.INTRA.REPUL>
0

>  <SCORE.INTRA.REPUL.0>
0

>  <SCORE.INTRA.SOLV>
-2.56112

>  <SCORE.INTRA.SOLV.lig_0>
-83.3092

>  <SCORE.INTRA.VDW>
0.77535

>  <SCORE.INTRA.VDW.0>
-4.47057

>  <SCORE.INTRA.norm>
-0.182545

>  <SCORE.RESTR>
0.00982997

>  <SCORE.RESTR.CAVITY>
0.00982997

>  <SCORE.RESTR.norm>
0.000317096

>  <SCORE.SYSTEM>
0

>  <SCORE.SYSTEM.CONST>
0

>  <SCORE.SYSTEM.DIHEDRAL>
0

>  <SCORE.SYSTEM.SOLV>
0

>  <SCORE.SYSTEM.norm>
0

>  <SCORE.heavy>
31

>  <SCORE.norm>
-0.177989

>  <RMSD>
6.817

$$$$
ligand
 OpenBabel11021811433D
libRbt.so/2013.1/901 2013/11/27
 31 33  0  0  0  0  0  0  0  0999 V2000
   44.9488   22.5290    2.6417 C   0  0  0  0  0  0  0  0  0  0  0  0
   40.8595   25.8136    5.8083 N   0  0  0  0  0  0  0  0  0  0  0  0
   44.9336   22.9689    4.0077 O   0  0  0  0  0  0  0  0  0  0  0  0
   44.1051   21.2569    2.6445 C   0  0  1  0  0  0  0  0  0  0  0  0
   39.5115   27.0913    1.0882 N   0  0  0  0  0  0  0  0  0  0  0  0
   42.6740   21.4420    3.1156 O   0  0  0  0  0  0  0  0  0  0  0  0
   41.7486   21.3832    2.0996 C   0  0  1  0  0  0  0  0  0  0  0  0
   36.0026   25.0283    0.1994 N   0  0  0  0  0  0  0  0  0  0  0  0
   40.7893   22.4010    2.0268 O   0  0  0  0  0  0  0  0  0  0  0  0
   41.0842   23.8360    2.3583 C   0  0  2  0  0  0  0  0  0  0  0  0
   41.8429   23.6583   -2.2158 N   0  0  0  0  0  0  0  0  0  0  0  0
   41.7042   23.1692    4.6741 O   0  0  0  0  0  0  0  0  0  0  0  0
   40.8248   24.0480    3.8793 C   0  0  1  0  0  0  0  0  0  0  0  0
   40.3990   24.6283    0.1827 O   0  0  0  0  0  0  0  0  0  0  0  0
   41.1124   25.5791    4.2863 C   0  0  1  0  0  0  0  0  0  0  0  0
   38.3905   23.7223   -0.7175 O   0  0  0  0  0  0  0  0  0  0  0  0
   40.1514   26.4991    3.4143 C   0  0  0  0  0  0  0  0  0  0  0  0
   37.8561   26.2806   -3.3709 O   0  0  0  0  0  0  0  0  0  0  0  0
   40.4372   26.2161    1.8811 C   0  0  1  0  0  0  0  0  0  0  0  0
   40.3136   25.1296   -4.2598 O   0  0  0  0  0  0  0  0  0  0  0  0
   40.1301   24.7978    1.5195 C   0  0  2  0  0  0  0  0  0  0  0  0
   41.8161   20.4613   -0.0993 O   0  0  0  0  0  0  0  0  0  0  0  0
   39.8894   23.6015   -0.7066 C   0  0  1  0  0  0  0  0  0  0  0  0
   43.6362   19.1113    1.4903 O   0  0  0  0  0  0  0  0  0  0  0  0
   37.8358   25.0076   -1.3166 C   0  0  2  0  0  0  0  0  0  0  0  0
   36.3139   24.9999   -1.2326 C   0  0  0  0  0  0  0  0  0  0  0  0
   38.3263   25.0991   -2.7801 C   0  0  2  0  0  0  0  0  0  0  0  0
   39.8441   25.0618   -2.8444 C   0  0  1  0  0  0  0  0  0  0  0  0
   40.3309   23.7584   -2.1844 C   0  0  1  0  0  0  0  0  0  0  0  0
   42.5509   21.1792    0.8247 C   0  0  2  0  0  0  0  0  0  0  0  0
   43.8892   20.5348    1.3095 C   0  0  1  0  0  0  0  0  0  0  0  0
  1  3  1  0  0  0  0
  4  1  1  6  0  0  0
  4  6  1  0  0  0  0
  4 31  1  0  0  0  0
  6  7  1  0  0  0  0
  7  9  1  6  0  0  0
  7 30  1  0  0  0  0
  8 26  1  0  0  0  0
 10  9  1  6  0  0  0
 10 13  1  0  0  0  0
 10 21  1  0  0  0  0
 13 12  1  1  0  0  0
 13 15  1  0  0  0  0
 15  2  1  1  0  0  0
 15 17  1  0  0  0  0
 16 25  1  0  0  0  0
 16 23  1  0  0  0  0
 17 19  1  0  0  0  0
 19  5  1  6  0  0  0
 19 21  1  0  0  0  0
 21 14  1  6  0  0  0
 23 14  1  1  0  0  0
 23 29  1  0  0  0  0
 25 26  1  6  0  0  0
 25 27  1  0  0  0  0
 27 18  1  1  0  0  0
 27 28  1  0  0  0  0
 28 20  1  6  0  0  0
 28 29  1  0  0  0  0
 29 11  1  1  0  0  0
 30 22  1  6  0  0  0
 30 31  1  0  0  0  0
 31 24  1  1  0  0  0
M  END
>  <CHROM.1>
59.45574134,36.68020218,-89.33241148,59.60553149,82.97464401,65.20732577
40.80091554,23.71702393,0.88932205,-0.47557758,0.79272467,-1.95022777

>  <Name>
ligand

>  <RI>
0

>  <Rbt.Current_Directory>
/home/itssahil/PROJECTS/Mol_Feturizer/New_Systems/rnas/2ET5

>  <Rbt.Executable>
rbdock ($Id: //depot/dev/client3/rdock/2013.1/src/exe/rbdock.cxx#4 $)

>  <Rbt.Library>
libRbt.so (2013.1, Build901 2013/11/27)

>  <Rbt.Parameter_File>
/export/apps/rDock/src/rDock_2013.1_src/data/scripts/dock_solv.prm

>  <Rbt.Receptor>
prm/pocket_docking_3.prm

>  <SCORE>
-6.78583

>  <SCORE.INTER>
-4.94224

>  <SCORE.INTER.CONST>
1

>  <SCORE.INTER.POLAR>
0

>  <SCORE.INTER.ROT>
6

>  <SCORE.INTER.SOLV>
16.0161

>  <SCORE.INTER.VDW>
-16.2335

>  <SCORE.INTER.norm>
-0.159427

>  <SCORE.INTRA>
-1.84358

>  <SCORE.INTRA.DIHEDRAL>
-2.91715

>  <SCORE.INTRA.DIHEDRAL.0>
11.2357

>  <SCORE.INTRA.POLAR>
0

>  <SCORE.INTRA.POLAR.0>
0

>  <SCORE.INTRA.REPUL>
0

>  <SCORE.INTRA.REPUL.0>
0

>  <SCORE.INTRA.SOLV>
-1.54979

>  <SCORE.INTRA.SOLV.lig_0>
-83.3092

>  <SCORE.INTRA.VDW>
0.38989

>  <SCORE.INTRA.VDW.0>
-4.47057

>  <SCORE.INTRA.norm>
-0.0594705

>  <SCORE.RESTR>
0

>  <SCORE.RESTR.CAVITY>
0

>  <SCORE.RESTR.norm>
0

>  <SCORE.SYSTEM>
0

>  <SCORE.SYSTEM.CONST>
0

>  <SCORE.SYSTEM.DIHEDRAL>
0

>  <SCORE.SYSTEM.SOLV>
0

>  <SCORE.SYSTEM.norm>
0

>  <SCORE.heavy>
31

>  <SCORE.norm>
-0.218898

>  <RMSD>
6.819

$$$$
ligand
 OpenBabel11021811433D
libRbt.so/2013.1/901 2013/11/27
 31 33  0  0  0  0  0  0  0  0999 V2000
   45.1831   20.8507    2.1993 C   0  0  0  0  0  0  0  0  0  0  0  0
   42.5422   24.8633    6.8366 N   0  0  0  0  0  0  0  0  0  0  0  0
   45.7015   21.6114    3.3002 O   0  0  0  0  0  0  0  0  0  0  0  0
   43.7883   20.4290    2.6542 C   0  0  1  0  0  0  0  0  0  0  0  0
   37.9289   24.9218    4.7288 N   0  0  0  0  0  0  0  0  0  0  0  0
   42.9231   21.5570    3.1864 O   0  0  0  0  0  0  0  0  0  0  0  0
   41.9177   21.9320    2.3258 C   0  0  1  0  0  0  0  0  0  0  0  0
   42.7628   24.5590   -0.1172 N   0  0  0  0  0  0  0  0  0  0  0  0
   41.7640   23.2968    2.0522 O   0  0  0  0  0  0  0  0  0  0  0  0
   41.3334   24.3002    3.0835 C   0  0  2  0  0  0  0  0  0  0  0  0
   36.6010   25.6937    1.2609 N   0  0  0  0  0  0  0  0  0  0  0  0
   43.6001   24.2153    4.1064 O   0  0  0  0  0  0  0  0  0  0  0  0
   42.1594   24.0514    4.3802 C   0  0  1  0  0  0  0  0  0  0  0  0
   39.0652   24.3866    2.2597 O   0  0  0  0  0  0  0  0  0  0  0  0
   41.7249   25.0944    5.5273 C   0  0  1  0  0  0  0  0  0  0  0  0
   40.3116   25.6008    0.6357 O   0  0  0  0  0  0  0  0  0  0  0  0
   40.1705   24.8934    5.7989 C   0  0  0  0  0  0  0  0  0  0  0  0
   39.2296   23.6580   -2.3519 O   0  0  0  0  0  0  0  0  0  0  0  0
   39.3872   25.1262    4.4406 C   0  0  1  0  0  0  0  0  0  0  0  0
   36.7299   24.7703   -1.5342 O   0  0  0  0  0  0  0  0  0  0  0  0
   39.7821   24.1248    3.4024 C   0  0  2  0  0  0  0  0  0  0  0  0
   40.8587   20.8280    0.4956 O   0  0  0  0  0  0  0  0  0  0  0  0
   39.0597   25.6029    1.4690 C   0  0  1  0  0  0  0  0  0  0  0  0
   41.8674   18.9181    2.2267 O   0  0  0  0  0  0  0  0  0  0  0  0
   40.4033   24.5031   -0.4156 C   0  0  2  0  0  0  0  0  0  0  0  0
   41.7309   24.6099   -1.1568 C   0  0  0  0  0  0  0  0  0  0  0  0
   39.2002   24.6622   -1.3737 C   0  0  2  0  0  0  0  0  0  0  0  0
   37.8885   24.5958   -0.6092 C   0  0  1  0  0  0  0  0  0  0  0  0
   37.8874   25.7045    0.4595 C   0  0  1  0  0  0  0  0  0  0  0  0
   42.0828   21.0557    1.0948 C   0  0  2  0  0  0  0  0  0  0  0  0
   42.8531   19.7998    1.6151 C   0  0  1  0  0  0  0  0  0  0  0  0
  1  3  1  0  0  0  0
  4  1  1  6  0  0  0
  4  6  1  0  0  0  0
  4 31  1  0  0  0  0
  6  7  1  0  0  0  0
  7  9  1  6  0  0  0
  7 30  1  0  0  0  0
  8 26  1  0  0  0  0
 10  9  1  6  0  0  0
 10 13  1  0  0  0  0
 10 21  1  0  0  0  0
 13 12  1  6  0  0  0
 13 15  1  0  0  0  0
 15  2  1  1  0  0  0
 15 17  1  0  0  0  0
 16 25  1  0  0  0  0
 16 23  1  0  0  0  0
 17 19  1  0  0  0  0
 19  5  1  1  0  0  0
 19 21  1  0  0  0  0
 21 14  1  6  0  0  0
 23 14  1  6  0  0  0
 23 29  1  0  0  0  0
 25 26  1  6  0  0  0
 25 27  1  0  0  0  0
 27 18  1  6  0  0  0
 27 28  1  0  0  0  0
 28 20  1  6  0  0  0
 28 29  1  0  0  0  0
 29 11  1  1  0  0  0
 30 22  1  1  0  0  0
 30 31  1  0  0  0  0
 31 24  1  1  0  0  0
M  END
>  <CHROM.1>
50.34851965,-66.50041736,46.35571934,77.97762108,-58.09295537,55.64186338
40.93815993,23.52226224,1.97386312,-0.26452001,0.68632670,-1.96679381

>  <Name>
ligand

>  <RI>
0

>  <Rbt.Current_Directory>
/home/itssahil/PROJECTS/Mol_Feturizer/New_Systems/rnas/2ET5

>  <Rbt.Executable>
rbdock ($Id: //depot/dev/client3/rdock/2013.1/src/exe/rbdock.cxx#4 $)

>  <Rbt.Library>
libRbt.so (2013.1, Build901 2013/11/27)

>  <Rbt.Parameter_File>
/export/apps/rDock/src/rDock_2013.1_src/data/scripts/dock_solv.prm

>  <Rbt.Receptor>
prm/pocket_docking_4.prm

>  <SCORE>
-9.22127

>  <SCORE.INTER>
-6.22997

>  <SCORE.INTER.CONST>
1

>  <SCORE.INTER.POLAR>
0

>  <SCORE.INTER.ROT>
6

>  <SCORE.INTER.SOLV>
20.0971

>  <SCORE.INTER.VDW>
-18.4523

>  <SCORE.INTER.norm>
-0.200967

>  <SCORE.INTRA>
-2.9913

>  <SCORE.INTRA.DIHEDRAL>
-8.13208

>  <SCORE.INTRA.DIHEDRAL.0>
11.2357

>  <SCORE.INTRA.POLAR>
0

>  <SCORE.INTRA.POLAR.0>
0

>  <SCORE.INTRA.REPUL>
0

>  <SCORE.INTRA.REPUL.0>
0

>  <SCORE.INTRA.SOLV>
0.817058

>  <SCORE.INTRA.SOLV.lig_0>
-83.3092

>  <SCORE.INTRA.VDW>
0.666206

>  <SCORE.INTRA.VDW.0>
-4.47057

>  <SCORE.INTRA.norm>
-0.0964937

>  <SCORE.RESTR>
0

>  <SCORE.RESTR.CAVITY>
0

>  <SCORE.RESTR.norm>
0

>  <SCORE.SYSTEM>
0

>  <SCORE.SYSTEM.CONST>
0

>  <SCORE.SYSTEM.DIHEDRAL>
0

>  <SCORE.SYSTEM.SOLV>
0

>  <SCORE.SYSTEM.norm>
0

>  <SCORE.heavy>
31

>  <SCORE.norm>
-0.29746

>  <RMSD>
6.823

$$$$
ligand
 OpenBabel11021811433D
libRbt.so/2013.1/901 2013/11/27
 31 33  0  0  0  0  0  0  0  0999 V2000
   42.3953   19.6872    1.6960 C   0  0  0  0  0  0  0  0  0  0  0  0
   45.6590   27.3678   -0.5043 N   0  0  0  0  0  0  0  0  0  0  0  0
   41.7935   20.6182    2.6073 O   0  0  0  0  0  0  0  0  0  0  0  0
   43.7788   20.2696    1.4188 C   0  0  1  0  0  0  0  0  0  0  0  0
   41.0691   27.9777    1.5668 N   0  0  0  0  0  0  0  0  0  0  0  0
   43.7847   21.7304    1.0064 O   0  0  0  0  0  0  0  0  0  0  0  0
   44.2414   22.5775    1.9892 C   0  0  1  0  0  0  0  0  0  0  0  0
   42.4264   26.3524    6.2593 N   0  0  0  0  0  0  0  0  0  0  0  0
   43.4734   23.7100    2.2875 O   0  0  0  0  0  0  0  0  0  0  0  0
   43.1991   24.8038    1.2954 C   0  0  2  0  0  0  0  0  0  0  0  0
   38.7575   23.4100    1.8171 N   0  0  0  0  0  0  0  0  0  0  0  0
   45.4721   24.4938    0.3315 O   0  0  0  0  0  0  0  0  0  0  0  0
   44.5530   25.4811    0.9300 C   0  0  1  0  0  0  0  0  0  0  0  0
   41.0177   25.2843    2.2128 O   0  0  0  0  0  0  0  0  0  0  0  0
   44.3133   26.6753   -0.1231 C   0  0  1  0  0  0  0  0  0  0  0  0
   41.2473   24.4648    4.4356 O   0  0  0  0  0  0  0  0  0  0  0  0
   43.3209   27.7205    0.5499 C   0  0  0  0  0  0  0  0  0  0  0  0
   38.2407   26.1270    5.8738 O   0  0  0  0  0  0  0  0  0  0  0  0
   41.9779   26.9685    0.9287 C   0  0  1  0  0  0  0  0  0  0  0  0
   37.0040   24.3938    3.9709 O   0  0  0  0  0  0  0  0  0  0  0  0
   42.2204   25.8875    1.9333 C   0  0  2  0  0  0  0  0  0  0  0  0
   45.5797   22.2288    3.9326 O   0  0  0  0  0  0  0  0  0  0  0  0
   40.7747   24.1241    3.0492 C   0  0  1  0  0  0  0  0  0  0  0  0
   46.1708   20.2612    2.0776 O   0  0  0  0  0  0  0  0  0  0  0  0
   40.4763   25.5710    5.1430 C   0  0  2  0  0  0  0  0  0  0  0  0
   41.0840   25.8239    6.5179 C   0  0  0  0  0  0  0  0  0  0  0  0
   38.9982   25.1287    5.2448 C   0  0  2  0  0  0  0  0  0  0  0  0
   38.4247   24.8403    3.8674 C   0  0  1  0  0  0  0  0  0  0  0  0
   39.2787   23.7463    3.2001 C   0  0  1  0  0  0  0  0  0  0  0  0
   44.5499   21.6908    3.1847 C   0  0  2  0  0  0  0  0  0  0  0  0
   44.7975   20.2783    2.5644 C   0  0  1  0  0  0  0  0  0  0  0  0
  1  3  1  0  0  0  0
  4  1  1  1  0  0  0
  4  6  1  0  0  0  0
  4 31  1  0  0  0  0
  6  7  1  0  0  0  0
  7  9  1  1  0  0  0
  7 30  1  0  0  0  0
  8 26  1  0  0  0  0
 10  9  1  1  0  0  0
 10 13  1  0  0  0  0
 10 21  1  0  0  0  0
 13 12  1  6  0  0  0
 13 15  1  0  0  0  0
 15  2  1  1  0  0  0
 15 17  1  0  0  0  0
 16 25  1  0  0  0  0
 16 23  1  0  0  0  0
 17 19  1  0  0  0  0
 19  5  1  1  0  0  0
 19 21  1  0  0  0  0
 21 14  1  6  0  0  0
 23 14  1  6  0  0  0
 23 29  1  0  0  0  0
 25 26  1  1  0  0  0
 25 27  1  0  0  0  0
 27 18  1  6  0  0  0
 27 28  1  0  0  0  0
 28 20  1  1  0  0  0
 28 29  1  0  0  0  0
 29 11  1  6  0  0  0
 30 22  1  6  0  0  0
 30 31  1  0  0  0  0
 31 24  1  6  0  0  0
M  END
>  <CHROM.1>
-50.91382285,-62.53444896,-64.12412559,60.56571187,56.96298021,65.68778469
42.26610802,24.14633068,2.63754773,0.36902050,-0.57070597,2.90009687

>  <Name>
ligand

>  <RI>
0

>  <Rbt.Current_Directory>
/home/itssahil/PROJECTS/Mol_Feturizer/New_Systems/rnas/2ET5

>  <Rbt.Executable>
rbdock ($Id: //depot/dev/client3/rdock/2013.1/src/exe/rbdock.cxx#4 $)

>  <Rbt.Library>
libRbt.so (2013.1, Build901 2013/11/27)

>  <Rbt.Parameter_File>
/export/apps/rDock/src/rDock_2013.1_src/data/scripts/dock_solv.prm

>  <Rbt.Receptor>
prm/pocket_docking_8.prm

>  <SCORE>
-10.9343

>  <SCORE.INTER>
-5.33017

>  <SCORE.INTER.CONST>
1

>  <SCORE.INTER.POLAR>
0

>  <SCORE.INTER.ROT>
6

>  <SCORE.INTER.SOLV>
13.5058

>  <SCORE.INTER.VDW>
-15.6554

>  <SCORE.INTER.norm>
-0.171941

>  <SCORE.INTRA>
-5.60411

>  <SCORE.INTRA.DIHEDRAL>
-10.5196

>  <SCORE.INTRA.DIHEDRAL.0>
11.2357

>  <SCORE.INTRA.POLAR>
0

>  <SCORE.INTRA.POLAR.0>
0

>  <SCORE.INTRA.REPUL>
0

>  <SCORE.INTRA.REPUL.0>
0

>  <SCORE.INTRA.SOLV>
-3.6482

>  <SCORE.INTRA.SOLV.lig_0>
-83.3092

>  <SCORE.INTRA.VDW>
1.4798

>  <SCORE.INTRA.VDW.0>
-4.47057

>  <SCORE.INTRA.norm>
-0.180778

>  <SCORE.RESTR>
0

>  <SCORE.RESTR.CAVITY>
0

>  <SCORE.RESTR.norm>
0

>  <SCORE.SYSTEM>
0

>  <SCORE.SYSTEM.CONST>
0

>  <SCORE.SYSTEM.DIHEDRAL>
0

>  <SCORE.SYSTEM.SOLV>
0

>  <SCORE.SYSTEM.norm>
0

>  <SCORE.heavy>
31

>  <SCORE.norm>
-0.352719

>  <RMSD>
6.830

$$$$
ligand
 OpenBabel11021811433D
libRbt.so/2013.1/901 2013/11/27
 31 33  0  0  0  0  0  0  0  0999 V2000
   42.6810   19.3618    1.9744 C   0  0  0  0  0  0  0  0  0  0  0  0
   47.1939   26.8513    2.2837 N   0  0  0  0  0  0  0  0  0  0  0  0
   41.8980   20.4650    2.4535 O   0  0  0  0  0  0  0  0  0  0  0  0
   44.0778   19.9457    1.7795 C   0  0  1  0  0  0  0  0  0  0  0  0
   43.2070   26.3407    5.3777 N   0  0  0  0  0  0  0  0  0  0  0  0
   44.1334   21.1899    0.9117 O   0  0  0  0  0  0  0  0  0  0  0  0
   44.3597   22.3460    1.6218 C   0  0  1  0  0  0  0  0  0  0  0  0
   42.3662   25.5025   -0.8070 N   0  0  0  0  0  0  0  0  0  0  0  0
   43.5205   23.4403    1.3774 O   0  0  0  0  0  0  0  0  0  0  0  0
   43.7890   24.8191    1.9092 C   0  0  2  0  0  0  0  0  0  0  0  0
   39.3180   24.8174    4.8027 N   0  0  0  0  0  0  0  0  0  0  0  0
   45.7569   25.0139    0.3990 O   0  0  0  0  0  0  0  0  0  0  0  0
   45.3188   25.0920    1.8059 C   0  0  1  0  0  0  0  0  0  0  0  0
   41.9789   24.7113    3.5040 O   0  0  0  0  0  0  0  0  0  0  0  0
   45.6643   26.5565    2.3790 C   0  0  1  0  0  0  0  0  0  0  0  0
   41.0519   25.8310    1.6192 O   0  0  0  0  0  0  0  0  0  0  0  0
   45.1810   26.6087    3.8935 C   0  0  0  0  0  0  0  0  0  0  0  0
   39.1064   22.9593    0.2630 O   0  0  0  0  0  0  0  0  0  0  0  0
   43.6285   26.2916    3.9384 C   0  0  1  0  0  0  0  0  0  0  0  0
   37.7905   23.3280    2.7704 O   0  0  0  0  0  0  0  0  0  0  0  0
   43.3362   24.9144    3.4341 C   0  0  2  0  0  0  0  0  0  0  0  0
   45.2808   22.7643    3.7819 O   0  0  0  0  0  0  0  0  0  0  0  0
   40.9195   25.6172    3.1019 C   0  0  1  0  0  0  0  0  0  0  0  0
   46.2844   20.3653    2.8334 O   0  0  0  0  0  0  0  0  0  0  0  0
   40.8086   24.6042    0.7507 C   0  0  2  0  0  0  0  0  0  0  0  0
   41.0055   24.9653   -0.7170 C   0  0  0  0  0  0  0  0  0  0  0  0
   39.3721   24.1041    1.0279 C   0  0  2  0  0  0  0  0  0  0  0  0
   39.1844   23.7909    2.5030 C   0  0  1  0  0  0  0  0  0  0  0  0
   39.4877   25.0626    3.3166 C   0  0  1  0  0  0  0  0  0  0  0  0
   44.4384   21.9237    3.0798 C   0  0  2  0  0  0  0  0  0  0  0  0
   44.8407   20.4149    3.0238 C   0  0  1  0  0  0  0  0  0  0  0  0
  1  3  1  0  0  0  0
  4  1  1  1  0  0  0
  4  6  1  0  0  0  0
  4 31  1  0  0  0  0
  6  7  1  0  0  0  0
  7  9  1  1  0  0  0
  7 30  1  0  0  0  0
  8 26  1  0  0  0  0
 10  9  1  1  0  0  0
 10 13  1  0  0  0  0
 10 21  1  0  0  0  0
 13 12  1  6  0  0  0
 13 15  1  0  0  0  0
 15  2  1  1  0  0  0
 15 17  1  0  0  0  0
 16 25  1  0  0  0  0
 16 23  1  0  0  0  0
 17 19  1  0  0  0  0
 19  5  1  1  0  0  0
 19 21  1  0  0  0  0
 21 14  1  6  0  0  0
 23 14  1  6  0  0  0
 23 29  1  0  0  0  0
 25 26  1  6  0  0  0
 25 27  1  0  0  0  0
 27 18  1  6  0  0  0
 27 28  1  0  0  0  0
 28 20  1  6  0  0  0
 28 29  1  0  0  0  0
 29 11  1  1  0  0  0
 30 22  1  1  0  0  0
 30 31  1  0  0  0  0
 31 24  1  6  0  0  0
M  END
>  <CHROM.1>
-53.46584898,-169.70691962,39.63048788,63.04900046,-73.07794861,56.68350248
42.80027265,23.82889219,2.25379098,0.15167756,0.08187461,-3.00125441

>  <Name>
ligand

>  <RI>
0

>  <Rbt.Current_Directory>
/home/itssahil/PROJECTS/Mol_Feturizer/New_Systems/rnas/2ET5

>  <Rbt.Executable>
rbdock ($Id: //depot/dev/client3/rdock/2013.1/src/exe/rbdock.cxx#4 $)

>  <Rbt.Library>
libRbt.so (2013.1, Build901 2013/11/27)

>  <Rbt.Parameter_File>
/export/apps/rDock/src/rDock_2013.1_src/data/scripts/dock_solv.prm

>  <Rbt.Receptor>
prm/pocket_docking_6.prm

>  <SCORE>
-8.47775

>  <SCORE.INTER>
-5.86629

>  <SCORE.INTER.CONST>
1

>  <SCORE.INTER.POLAR>
0

>  <SCORE.INTER.ROT>
6

>  <SCORE.INTER.SOLV>
15.5565

>  <SCORE.INTER.VDW>
-16.6964

>  <SCORE.INTER.norm>
-0.189235

>  <SCORE.INTRA>
-2.61146

>  <SCORE.INTRA.DIHEDRAL>
-7.68801

>  <SCORE.INTRA.DIHEDRAL.0>
11.2357

>  <SCORE.INTRA.POLAR>
0

>  <SCORE.INTRA.POLAR.0>
0

>  <SCORE.INTRA.REPUL>
0.0171293

>  <SCORE.INTRA.REPUL.0>
0

>  <SCORE.INTRA.SOLV>
0.668487

>  <SCORE.INTRA.SOLV.lig_0>
-83.3092

>  <SCORE.INTRA.VDW>
0.812657

>  <SCORE.INTRA.VDW.0>
-4.47057

>  <SCORE.INTRA.norm>
-0.0842406

>  <SCORE.RESTR>
0

>  <SCORE.RESTR.CAVITY>
0

>  <SCORE.RESTR.norm>
0

>  <SCORE.SYSTEM>
0

>  <SCORE.SYSTEM.CONST>
0

>  <SCORE.SYSTEM.DIHEDRAL>
0

>  <SCORE.SYSTEM.SOLV>
0

>  <SCORE.SYSTEM.norm>
0

>  <SCORE.heavy>
31

>  <SCORE.norm>
-0.273476

>  <RMSD>
6.831

$$$$
ligand
 OpenBabel11021811433D
libRbt.so/2013.1/901 2013/11/27
 31 33  0  0  0  0  0  0  0  0999 V2000
   40.9092   26.4805    6.0936 C   0  0  0  0  0  0  0  0  0  0  0  0
   41.2068   24.2867   -2.3496 N   0  0  0  0  0  0  0  0  0  0  0  0
   40.8483   25.9984    7.4440 O   0  0  0  0  0  0  0  0  0  0  0  0
   39.4499   26.5541    5.6519 C   0  0  1  0  0  0  0  0  0  0  0  0
   36.2765   25.0110   -1.4029 N   0  0  0  0  0  0  0  0  0  0  0  0
   39.2340   27.1025    4.2531 O   0  0  0  0  0  0  0  0  0  0  0  0
   38.8792   26.1420    3.3345 C   0  0  1  0  0  0  0  0  0  0  0  0
   32.7272   24.4933    3.9321 N   0  0  0  0  0  0  0  0  0  0  0  0
   39.5774   26.1058    2.1210 O   0  0  0  0  0  0  0  0  0  0  0  0
   39.2497   25.1490    1.0105 C   0  0  2  0  0  0  0  0  0  0  0  0
   36.0508   28.2310    0.6931 N   0  0  0  0  0  0  0  0  0  0  0  0
   41.6781   24.8490    0.5582 O   0  0  0  0  0  0  0  0  0  0  0  0
   40.3875   25.2255   -0.0502 C   0  0  1  0  0  0  0  0  0  0  0  0
   36.8668   25.4416    1.2692 O   0  0  0  0  0  0  0  0  0  0  0  0
   40.0772   24.2267   -1.2744 C   0  0  1  0  0  0  0  0  0  0  0  0
   34.6733   25.0190    2.0910 O   0  0  0  0  0  0  0  0  0  0  0  0
   38.6830   24.6575   -1.9075 C   0  0  0  0  0  0  0  0  0  0  0  0
   34.9922   26.8894    5.2959 O   0  0  0  0  0  0  0  0  0  0  0  0
   37.5742   24.5922   -0.7767 C   0  0  1  0  0  0  0  0  0  0  0  0
   35.2899   29.0270    3.4261 O   0  0  0  0  0  0  0  0  0  0  0  0
   37.8656   25.5527    0.3320 C   0  0  2  0  0  0  0  0  0  0  0  0
   37.9418   23.9598    3.5552 O   0  0  0  0  0  0  0  0  0  0  0  0
   35.4860   25.8723    1.1567 C   0  0  1  0  0  0  0  0  0  0  0  0
   37.2224   25.4671    5.7625 O   0  0  0  0  0  0  0  0  0  0  0  0
   34.9724   25.1938    3.5738 C   0  0  2  0  0  0  0  0  0  0  0  0
   34.0979   24.2491    4.3902 C   0  0  0  0  0  0  0  0  0  0  0  0
   34.7107   26.6732    3.9394 C   0  0  2  0  0  0  0  0  0  0  0  0
   35.5602   27.5991    3.0848 C   0  0  1  0  0  0  0  0  0  0  0  0
   35.2339   27.3355    1.6031 C   0  0  1  0  0  0  0  0  0  0  0  0
   38.8703   24.8274    4.0976 C   0  0  2  0  0  0  0  0  0  0  0  0
   38.6519   25.2467    5.5869 C   0  0  1  0  0  0  0  0  0  0  0  0
  1  3  1  0  0  0  0
  4  1  1  6  0  0  0
  4  6  1  0  0  0  0
  4 31  1  0  0  0  0
  6  7  1  0  0  0  0
  7  9  1  6  0  0  0
  7 30  1  0  0  0  0
  8 26  1  0  0  0  0
 10  9  1  1  0  0  0
 10 13  1  0  0  0  0
 10 21  1  0  0  0  0
 13 12  1  1  0  0  0
 13 15  1  0  0  0  0
 15  2  1  6  0  0  0
 15 17  1  0  0  0  0
 16 25  1  0  0  0  0
 16 23  1  0  0  0  0
 17 19  1  0  0  0  0
 19  5  1  6  0  0  0
 19 21  1  0  0  0  0
 21 14  1  1  0  0  0
 23 14  1  1  0  0  0
 23 29  1  0  0  0  0
 25 26  1  1  0  0  0
 25 27  1  0  0  0  0
 27 18  1  1  0  0  0
 27 28  1  0  0  0  0
 28 20  1  1  0  0  0
 28 29  1  0  0  0  0
 29 11  1  6  0  0  0
 30 22  1  6  0  0  0
 30 31  1  0  0  0  0
 31 24  1  6  0  0  0
M  END
>  <CHROM.1>
177.46225803,-177.19999967,-169.72152333,154.47296548,171.03321399,-51.99880831
37.59797196,25.73612989,2.52522959,-2.10438428,0.10910984,-1.73963521

>  <Name>
ligand

>  <RI>
0

>  <Rbt.Current_Directory>
/home/itssahil/PROJECTS/Mol_Feturizer/New_Systems/rnas/2ET5

>  <Rbt.Executable>
rbdock ($Id: //depot/dev/client3/rdock/2013.1/src/exe/rbdock.cxx#4 $)

>  <Rbt.Library>
libRbt.so (2013.1, Build901 2013/11/27)

>  <Rbt.Parameter_File>
/export/apps/rDock/src/rDock_2013.1_src/data/scripts/dock_solv.prm

>  <Rbt.Receptor>
prm/pocket_docking_7.prm

>  <SCORE>
-6.12499

>  <SCORE.INTER>
-2.99427

>  <SCORE.INTER.CONST>
1

>  <SCORE.INTER.POLAR>
0

>  <SCORE.INTER.ROT>
6

>  <SCORE.INTER.SOLV>
16.2537

>  <SCORE.INTER.VDW>
-15.0141

>  <SCORE.INTER.norm>
-0.0965892

>  <SCORE.INTRA>
-3.13072

>  <SCORE.INTRA.DIHEDRAL>
-7.16834

>  <SCORE.INTRA.DIHEDRAL.0>
11.2357

>  <SCORE.INTRA.POLAR>
0

>  <SCORE.INTRA.POLAR.0>
0

>  <SCORE.INTRA.REPUL>
0

>  <SCORE.INTRA.REPUL.0>
0

>  <SCORE.INTRA.SOLV>
1.6095

>  <SCORE.INTRA.SOLV.lig_0>
-83.3092

>  <SCORE.INTRA.VDW>
-0.351301

>  <SCORE.INTRA.VDW.0>
-4.47057

>  <SCORE.INTRA.norm>
-0.100991

>  <SCORE.RESTR>
0

>  <SCORE.RESTR.CAVITY>
0

>  <SCORE.RESTR.norm>
0

>  <SCORE.SYSTEM>
0

>  <SCORE.SYSTEM.CONST>
0

>  <SCORE.SYSTEM.DIHEDRAL>
0

>  <SCORE.SYSTEM.SOLV>
0

>  <SCORE.SYSTEM.norm>
0

>  <SCORE.heavy>
31

>  <SCORE.norm>
-0.19758

>  <RMSD>
6.859

$$$$
ligand
 OpenBabel11021811433D
libRbt.so/2013.1/901 2013/11/27
 31 33  0  0  0  0  0  0  0  0999 V2000
   42.4099   19.9252    1.7641 C   0  0  0  0  0  0  0  0  0  0  0  0
   45.2618   27.7032   -0.4325 N   0  0  0  0  0  0  0  0  0  0  0  0
   41.7268   20.8305    2.6436 O   0  0  0  0  0  0  0  0  0  0  0  0
   43.7579   20.5932    1.5060 C   0  0  1  0  0  0  0  0  0  0  0  0
   40.7350   28.2218    1.7963 N   0  0  0  0  0  0  0  0  0  0  0  0
   43.6792   22.0573    1.1132 O   0  0  0  0  0  0  0  0  0  0  0  0
   44.0769   22.9166    2.1110 C   0  0  1  0  0  0  0  0  0  0  0  0
   42.3734   26.6054    6.3968 N   0  0  0  0  0  0  0  0  0  0  0  0
   43.2402   23.9968    2.4180 O   0  0  0  0  0  0  0  0  0  0  0  0
   42.9122   25.0886    1.4401 C   0  0  2  0  0  0  0  0  0  0  0  0
   38.4838   23.6427    2.1626 N   0  0  0  0  0  0  0  0  0  0  0  0
   45.1562   24.8236    0.3981 O   0  0  0  0  0  0  0  0  0  0  0  0
   44.2403   25.7919    1.0313 C   0  0  1  0  0  0  0  0  0  0  0  0
   40.7550   25.5259    2.4333 O   0  0  0  0  0  0  0  0  0  0  0  0
   43.9429   26.9849   -0.0084 C   0  0  1  0  0  0  0  0  0  0  0  0
   41.1043   24.7139    4.6432 O   0  0  0  0  0  0  0  0  0  0  0  0
   42.9551   28.0094    0.7022 C   0  0  0  0  0  0  0  0  0  0  0  0
   38.1718   26.3704    6.2331 O   0  0  0  0  0  0  0  0  0  0  0  0
   41.6398   27.2316    1.1237 C   0  0  1  0  0  0  0  0  0  0  0  0
   36.8427   24.6272    4.4030 O   0  0  0  0  0  0  0  0  0  0  0  0
   41.9362   26.1520    2.1152 C   0  0  2  0  0  0  0  0  0  0  0  0
   45.4195   22.6219    4.0603 O   0  0  0  0  0  0  0  0  0  0  0  0
   40.5605   24.3674    3.2847 C   0  0  1  0  0  0  0  0  0  0  0  0
   46.1412   20.7190    2.1841 O   0  0  0  0  0  0  0  0  0  0  0  0
   40.3677   25.8197    5.3871 C   0  0  2  0  0  0  0  0  0  0  0  0
   41.0461   26.0789    6.7273 C   0  0  0  0  0  0  0  0  0  0  0  0
   38.8986   25.3727    5.5679 C   0  0  2  0  0  0  0  0  0  0  0  0
   38.2544   25.0781    4.2235 C   0  0  1  0  0  0  0  0  0  0  0  0
   39.0759   23.9850    3.5152 C   0  0  1  0  0  0  0  0  0  0  0  0
   44.4294   22.0336    3.2970 C   0  0  2  0  0  0  0  0  0  0  0  0
   44.7659   20.6471    2.6599 C   0  0  1  0  0  0  0  0  0  0  0  0
  1  3  1  0  0  0  0
  4  1  1  1  0  0  0
  4  6  1  0  0  0  0
  4 31  1  0  0  0  0
  6  7  1  0  0  0  0
  7  9  1  1  0  0  0
  7 30  1  0  0  0  0
  8 26  1  0  0  0  0
 10  9  1  1  0  0  0
 10 13  1  0  0  0  0
 10 21  1  0  0  0  0
 13 12  1  6  0  0  0
 13 15  1  0  0  0  0
 15  2  1  1  0  0  0
 15 17  1  0  0  0  0
 16 25  1  0  0  0  0
 16 23  1  0  0  0  0
 17 19  1  0  0  0  0
 19  5  1  1  0  0  0
 19 21  1  0  0  0  0
 21 14  1  6  0  0  0
 23 14  1  6  0  0  0
 23 29  1  0  0  0  0
 25 26  1  1  0  0  0
 25 27  1  0  0  0  0
 27 18  1  6  0  0  0
 27 28  1  0  0  0  0
 28 20  1  1  0  0  0
 28 29  1  0  0  0  0
 29 11  1  6  0  0  0
 30 22  1  6  0  0  0
 30 31  1  0  0  0  0
 31 24  1  6  0  0  0
M  END
>  <CHROM.1>
-48.83354124,-62.77490555,-60.56537873,58.82447781,57.69579376,65.44160974
42.08329682,24.43201600,2.81906504,0.33598247,-0.60191715,2.87036972

>  <Name>
ligand

>  <RI>
0

>  <Rbt.Current_Directory>
/home/itssahil/PROJECTS/Mol_Feturizer/New_Systems/rnas/2ET5

>  <Rbt.Executable>
rbdock ($Id: //depot/dev/client3/rdock/2013.1/src/exe/rbdock.cxx#4 $)

>  <Rbt.Library>
libRbt.so (2013.1, Build901 2013/11/27)

>  <Rbt.Parameter_File>
/export/apps/rDock/src/rDock_2013.1_src/data/scripts/dock_solv.prm

>  <Rbt.Receptor>
prm/pocket_docking_7.prm

>  <SCORE>
-10.7388

>  <SCORE.INTER>
-5.25477

>  <SCORE.INTER.CONST>
1

>  <SCORE.INTER.POLAR>
0

>  <SCORE.INTER.ROT>
6

>  <SCORE.INTER.SOLV>
12.7127

>  <SCORE.INTER.VDW>
-15.3407

>  <SCORE.INTER.norm>
-0.169509

>  <SCORE.INTRA>
-5.48404

>  <SCORE.INTRA.DIHEDRAL>
-10.4736

>  <SCORE.INTRA.DIHEDRAL.0>
11.2357

>  <SCORE.INTRA.POLAR>
0

>  <SCORE.INTRA.POLAR.0>
0

>  <SCORE.INTRA.REPUL>
0

>  <SCORE.INTRA.REPUL.0>
0

>  <SCORE.INTRA.SOLV>
-3.71019

>  <SCORE.INTRA.SOLV.lig_0>
-83.3092

>  <SCORE.INTRA.VDW>
1.60786

>  <SCORE.INTRA.VDW.0>
-4.47057

>  <SCORE.INTRA.norm>
-0.176904

>  <SCORE.RESTR>
0

>  <SCORE.RESTR.CAVITY>
0

>  <SCORE.RESTR.norm>
0

>  <SCORE.SYSTEM>
0

>  <SCORE.SYSTEM.CONST>
0

>  <SCORE.SYSTEM.DIHEDRAL>
0

>  <SCORE.SYSTEM.SOLV>
0

>  <SCORE.SYSTEM.norm>
0

>  <SCORE.heavy>
31

>  <SCORE.norm>
-0.346413

>  <RMSD>
6.880

$$$$
ligand
 OpenBabel11021811433D
libRbt.so/2013.1/901 2013/11/27
 31 33  0  0  0  0  0  0  0  0999 V2000
   37.4888   23.7297    3.3648 C   0  0  0  0  0  0  0  0  0  0  0  0
   40.5822   23.0078   -4.4366 N   0  0  0  0  0  0  0  0  0  0  0  0
   37.7249   25.1118    3.0587 O   0  0  0  0  0  0  0  0  0  0  0  0
   38.7129   23.0051    2.8113 C   0  0  1  0  0  0  0  0  0  0  0  0
   38.1646   27.4314   -3.8750 N   0  0  0  0  0  0  0  0  0  0  0  0
   38.9640   23.2179    1.3294 O   0  0  0  0  0  0  0  0  0  0  0  0
   40.0308   24.0451    1.0655 C   0  0  1  0  0  0  0  0  0  0  0  0
   34.6697   27.6906    1.5966 N   0  0  0  0  0  0  0  0  0  0  0  0
   39.8401   25.0901    0.1529 O   0  0  0  0  0  0  0  0  0  0  0  0
   39.2248   24.8969   -1.2036 C   0  0  2  0  0  0  0  0  0  0  0  0
   40.0742   29.1361   -1.6428 N   0  0  0  0  0  0  0  0  0  0  0  0
   40.4561   22.7489   -1.4516 O   0  0  0  0  0  0  0  0  0  0  0  0
   40.2134   24.0651   -2.0732 C   0  0  1  0  0  0  0  0  0  0  0  0
   38.0677   27.0154   -1.1380 O   0  0  0  0  0  0  0  0  0  0  0  0
   39.6069   23.8412   -3.5479 C   0  0  1  0  0  0  0  0  0  0  0  0
   36.5928   28.6784   -0.2869 O   0  0  0  0  0  0  0  0  0  0  0  0
   39.3569   25.2749   -4.1898 C   0  0  0  0  0  0  0  0  0  0  0  0
   38.3415   29.2611    2.9494 O   0  0  0  0  0  0  0  0  0  0  0  0
   38.3730   26.0847   -3.2470 C   0  0  1  0  0  0  0  0  0  0  0  0
   40.3557   30.1245    1.1187 O   0  0  0  0  0  0  0  0  0  0  0  0
   38.9718   26.3100   -1.8952 C   0  0  2  0  0  0  0  0  0  0  0  0
   41.9189   24.7140    2.3606 O   0  0  0  0  0  0  0  0  0  0  0  0
   37.7472   28.4281   -1.2176 C   0  0  1  0  0  0  0  0  0  0  0  0
   41.0322   22.2579    3.2789 O   0  0  0  0  0  0  0  0  0  0  0  0
   36.8810   28.4702    1.1937 C   0  0  2  0  0  0  0  0  0  0  0  0
   35.6176   28.7310    2.0056 C   0  0  0  0  0  0  0  0  0  0  0  0
   38.0251   29.4301    1.5938 C   0  0  2  0  0  0  0  0  0  0  0  0
   39.2601   29.1824    0.7437 C   0  0  1  0  0  0  0  0  0  0  0  0
   38.8815   29.3695   -0.7372 C   0  0  1  0  0  0  0  0  0  0  0  0
   40.5585   24.4804    2.4229 C   0  0  2  0  0  0  0  0  0  0  0  0
   40.0839   23.3574    3.4002 C   0  0  1  0  0  0  0  0  0  0  0  0
  1  3  1  0  0  0  0
  4  1  1  1  0  0  0
  4  6  1  0  0  0  0
  4 31  1  0  0  0  0
  6  7  1  0  0  0  0
  7  9  1  6  0  0  0
  7 30  1  0  0  0  0
  8 26  1  0  0  0  0
 10  9  1  1  0  0  0
 10 13  1  0  0  0  0
 10 21  1  0  0  0  0
 13 12  1  1  0  0  0
 13 15  1  0  0  0  0
 15  2  1  6  0  0  0
 15 17  1  0  0  0  0
 16 25  1  0  0  0  0
 16 23  1  0  0  0  0
 17 19  1  0  0  0  0
 19  5  1  6  0  0  0
 19 21  1  0  0  0  0
 21 14  1  1  0  0  0
 23 14  1  1  0  0  0
 23 29  1  0  0  0  0
 25 26  1  1  0  0  0
 25 27  1  0  0  0  0
 27 18  1  1  0  0  0
 27 28  1  0  0  0  0
 28 20  1  1  0  0  0
 28 29  1  0  0  0  0
 29 11  1  6  0  0  0
 30 22  1  6  0  0  0
 30 31  1  0  0  0  0
 31 24  1  6  0  0  0
M  END
>  <CHROM.1>
-57.33534558,-49.64513533,-68.37031434,173.82633468,166.17263073,64.78852207
38.91224118,26.05934425,0.16453035,0.23116474,-1.15191872,1.83782953

>  <Name>
ligand

>  <RI>
0

>  <Rbt.Current_Directory>
/home/itssahil/PROJECTS/Mol_Feturizer/New_Systems/rnas/2ET5

>  <Rbt.Executable>
rbdock ($Id: //depot/dev/client3/rdock/2013.1/src/exe/rbdock.cxx#4 $)

>  <Rbt.Library>
libRbt.so (2013.1, Build901 2013/11/27)

>  <Rbt.Parameter_File>
/export/apps/rDock/src/rDock_2013.1_src/data/scripts/dock_solv.prm

>  <Rbt.Receptor>
prm/pocket_docking_6.prm

>  <SCORE>
-4.30522

>  <SCORE.INTER>
-1.08977

>  <SCORE.INTER.CONST>
1

>  <SCORE.INTER.POLAR>
0

>  <SCORE.INTER.ROT>
6

>  <SCORE.INTER.SOLV>
14.7753

>  <SCORE.INTER.VDW>
-13.2516

>  <SCORE.INTER.norm>
-0.0351537

>  <SCORE.INTRA>
-3.21545

>  <SCORE.INTRA.DIHEDRAL>
-9.05597

>  <SCORE.INTRA.DIHEDRAL.0>
11.2357

>  <SCORE.INTRA.POLAR>
0

>  <SCORE.INTRA.POLAR.0>
0

>  <SCORE.INTRA.REPUL>
0

>  <SCORE.INTRA.REPUL.0>
0

>  <SCORE.INTRA.SOLV>
-0.326575

>  <SCORE.INTRA.SOLV.lig_0>
-83.3092

>  <SCORE.INTRA.VDW>
1.47582

>  <SCORE.INTRA.VDW.0>
-4.47057

>  <SCORE.INTRA.norm>
-0.103724

>  <SCORE.RESTR>
0

>  <SCORE.RESTR.CAVITY>
0

>  <SCORE.RESTR.norm>
0

>  <SCORE.SYSTEM>
0

>  <SCORE.SYSTEM.CONST>
0

>  <SCORE.SYSTEM.DIHEDRAL>
0

>  <SCORE.SYSTEM.SOLV>
0

>  <SCORE.SYSTEM.norm>
0

>  <SCORE.heavy>
31

>  <SCORE.norm>
-0.138878

>  <RMSD>
6.900

$$$$
ligand
 OpenBabel11021811433D
libRbt.so/2013.1/901 2013/11/27
 31 33  0  0  0  0  0  0  0  0999 V2000
   46.0864   19.8899    2.6474 C   0  0  0  0  0  0  0  0  0  0  0  0
   41.0740   24.7012    6.0936 N   0  0  0  0  0  0  0  0  0  0  0  0
   46.1749   21.1418    1.9513 O   0  0  0  0  0  0  0  0  0  0  0  0
   44.5880   19.6642    2.8311 C   0  0  1  0  0  0  0  0  0  0  0  0
   38.3541   24.1339    1.8500 N   0  0  0  0  0  0  0  0  0  0  0  0
   43.7947   20.9085    3.1871 O   0  0  0  0  0  0  0  0  0  0  0  0
   43.0267   21.3863    2.1508 C   0  0  1  0  0  0  0  0  0  0  0  0
   36.4658   24.9192   -1.9456 N   0  0  0  0  0  0  0  0  0  0  0  0
   43.1082   22.7516    1.8497 O   0  0  0  0  0  0  0  0  0  0  0  0
   42.1332   23.7692    2.3689 C   0  0  2  0  0  0  0  0  0  0  0  0
   41.6647   22.0079   -1.8678 N   0  0  0  0  0  0  0  0  0  0  0  0
   43.4796   23.9914    4.4497 O   0  0  0  0  0  0  0  0  0  0  0  0
   42.1329   23.6945    3.9245 C   0  0  1  0  0  0  0  0  0  0  0  0
   40.6772   23.5613    0.4538 O   0  0  0  0  0  0  0  0  0  0  0  0
   41.0894   24.7586    4.5341 C   0  0  1  0  0  0  0  0  0  0  0  0
   38.5529   23.7112   -0.6094 O   0  0  0  0  0  0  0  0  0  0  0  0
   39.6507   24.4126    3.9504 C   0  0  0  0  0  0  0  0  0  0  0  0
   39.4939   26.2006   -3.2148 O   0  0  0  0  0  0  0  0  0  0  0  0
   39.7212   24.4719    2.3680 C   0  0  1  0  0  0  0  0  0  0  0  0
   41.1722   24.0161   -3.9669 O   0  0  0  0  0  0  0  0  0  0  0  0
   40.6699   23.4521    1.8235 C   0  0  2  0  0  0  0  0  0  0  0  0
   42.1932   20.3786    0.1560 O   0  0  0  0  0  0  0  0  0  0  0  0
   39.8104   22.8938   -0.4990 C   0  0  1  0  0  0  0  0  0  0  0  0
   42.5990   18.4025    2.0514 O   0  0  0  0  0  0  0  0  0  0  0  0
   38.7196   25.1021   -1.2061 C   0  0  2  0  0  0  0  0  0  0  0  0
   37.3739   25.8178   -1.2272 C   0  0  0  0  0  0  0  0  0  0  0  0
   39.3029   24.9410   -2.6290 C   0  0  2  0  0  0  0  0  0  0  0  0
   40.6221   24.1878   -2.5898 C   0  0  1  0  0  0  0  0  0  0  0  0
   40.3828   22.8135   -1.9376 C   0  0  1  0  0  0  0  0  0  0  0  0
   43.3025   20.4627    0.9755 C   0  0  2  0  0  0  0  0  0  0  0  0
   43.7893   19.1326    1.6353 C   0  0  1  0  0  0  0  0  0  0  0  0
  1  3  1  0  0  0  0
  4  1  1  6  0  0  0
  4  6  1  0  0  0  0
  4 31  1  0  0  0  0
  6  7  1  0  0  0  0
  7  9  1  6  0  0  0
  7 30  1  0  0  0  0
  8 26  1  0  0  0  0
 10  9  1  6  0  0  0
 10 13  1  0  0  0  0
 10 21  1  0  0  0  0
 13 12  1  1  0  0  0
 13 15  1  0  0  0  0
 15  2  1  1  0  0  0
 15 17  1  0  0  0  0
 16 25  1  0  0  0  0
 16 23  1  0  0  0  0
 17 19  1  0  0  0  0
 19  5  1  6  0  0  0
 19 21  1  0  0  0  0
 21 14  1  6  0  0  0
 23 14  1  1  0  0  0
 23 29  1  0  0  0  0
 25 26  1  6  0  0  0
 25 27  1  0  0  0  0
 27 18  1  1  0  0  0
 27 28  1  0  0  0  0
 28 20  1  6  0  0  0
 28 29  1  0  0  0  0
 29 11  1  1  0  0  0
 30 22  1  1  0  0  0
 30 31  1  0  0  0  0
 31 24  1  1  0  0  0
M  END
>  <CHROM.1>
-40.02976780,-96.26884180,56.94953099,84.58021605,153.39873710,-54.60525295
41.36366547,22.93846439,0.93812557,-0.47037414,0.75455486,-1.81106295

>  <Name>
ligand

>  <RI>
0

>  <Rbt.Current_Directory>
/home/itssahil/PROJECTS/Mol_Feturizer/New_Systems/rnas/2ET5

>  <Rbt.Executable>
rbdock ($Id: //depot/dev/client3/rdock/2013.1/src/exe/rbdock.cxx#4 $)

>  <Rbt.Library>
libRbt.so (2013.1, Build901 2013/11/27)

>  <Rbt.Parameter_File>
/export/apps/rDock/src/rDock_2013.1_src/data/scripts/dock_solv.prm

>  <Rbt.Receptor>
prm/pocket_docking_2.prm

>  <SCORE>
-0.240505

>  <SCORE.INTER>
-4.30204

>  <SCORE.INTER.CONST>
1

>  <SCORE.INTER.POLAR>
0

>  <SCORE.INTER.ROT>
6

>  <SCORE.INTER.SOLV>
23.057

>  <SCORE.INTER.VDW>
-18.1537

>  <SCORE.INTER.norm>
-0.138776

>  <SCORE.INTRA>
3.19147

>  <SCORE.INTRA.DIHEDRAL>
0.535446

>  <SCORE.INTRA.DIHEDRAL.0>
11.2357

>  <SCORE.INTRA.POLAR>
0

>  <SCORE.INTRA.POLAR.0>
0

>  <SCORE.INTRA.REPUL>
0.0115558

>  <SCORE.INTRA.REPUL.0>
0

>  <SCORE.INTRA.SOLV>
3.28148

>  <SCORE.INTRA.SOLV.lig_0>
-83.3092

>  <SCORE.INTRA.VDW>
1.22522

>  <SCORE.INTRA.VDW.0>
-4.47057

>  <SCORE.INTRA.norm>
0.102951

>  <SCORE.RESTR>
0.870071

>  <SCORE.RESTR.CAVITY>
0.870071

>  <SCORE.RESTR.norm>
0.0280668

>  <SCORE.SYSTEM>
0

>  <SCORE.SYSTEM.CONST>
0

>  <SCORE.SYSTEM.DIHEDRAL>
0

>  <SCORE.SYSTEM.SOLV>
0

>  <SCORE.SYSTEM.norm>
0

>  <SCORE.heavy>
31

>  <SCORE.norm>
-0.00775824

>  <RMSD>
6.906

$$$$
ligand
 OpenBabel11021811433D
libRbt.so/2013.1/901 2013/11/27
 31 33  0  0  0  0  0  0  0  0999 V2000
   37.5232   29.5884    0.1198 C   0  0  0  0  0  0  0  0  0  0  0  0
   41.6593   21.9002    0.4245 N   0  0  0  0  0  0  0  0  0  0  0  0
   36.7924   28.8713    1.1254 O   0  0  0  0  0  0  0  0  0  0  0  0
   37.9932   28.5070   -0.8497 C   0  0  1  0  0  0  0  0  0  0  0  0
   40.0952   23.2122    5.0678 N   0  0  0  0  0  0  0  0  0  0  0  0
   38.8269   27.4055   -0.2207 O   0  0  0  0  0  0  0  0  0  0  0  0
   38.1555   26.2116   -0.0942 C   0  0  1  0  0  0  0  0  0  0  0  0
   42.2826   25.0910    6.6961 N   0  0  0  0  0  0  0  0  0  0  0  0
   38.1959   25.5651    1.1475 O   0  0  0  0  0  0  0  0  0  0  0  0
   39.4421   24.9472    1.7141 C   0  0  2  0  0  0  0  0  0  0  0  0
   36.3206   26.7687    4.8685 N   0  0  0  0  0  0  0  0  0  0  0  0
   40.1549   24.2927   -0.5783 O   0  0  0  0  0  0  0  0  0  0  0  0
   39.8771   23.7812    0.7777 C   0  0  1  0  0  0  0  0  0  0  0  0
   38.8103   25.4201    3.9963 O   0  0  0  0  0  0  0  0  0  0  0  0
   41.2048   23.0721    1.3495 C   0  0  1  0  0  0  0  0  0  0  0  0
   39.4659   25.2565    6.2785 O   0  0  0  0  0  0  0  0  0  0  0  0
   40.8738   22.5327    2.8088 C   0  0  0  0  0  0  0  0  0  0  0  0
   40.3366   28.8418    6.7869 O   0  0  0  0  0  0  0  0  0  0  0  0
   40.4066   23.7547    3.7039 C   0  0  1  0  0  0  0  0  0  0  0  0
   37.5408   29.0670    6.2509 O   0  0  0  0  0  0  0  0  0  0  0  0
   39.1536   24.3748    3.1730 C   0  0  2  0  0  0  0  0  0  0  0  0
   36.2271   25.3171   -1.1762 O   0  0  0  0  0  0  0  0  0  0  0  0
   38.2884   25.3565    5.3484 C   0  0  1  0  0  0  0  0  0  0  0  0
   37.4149   27.1682   -2.8569 O   0  0  0  0  0  0  0  0  0  0  0  0
   40.3827   26.4716    6.3165 C   0  0  2  0  0  0  0  0  0  0  0  0
   41.5395   26.2139    7.2750 C   0  0  0  0  0  0  0  0  0  0  0  0
   39.5378   27.6897    6.7558 C   0  0  2  0  0  0  0  0  0  0  0  0
   38.3660   27.9029    5.8121 C   0  0  1  0  0  0  0  0  0  0  0  0
   37.5115   26.6219    5.7945 C   0  0  1  0  0  0  0  0  0  0  0  0
   36.7553   26.4696   -0.6267 C   0  0  2  0  0  0  0  0  0  0  0  0
   36.9261   27.6900   -1.5873 C   0  0  1  0  0  0  0  0  0  0  0  0
  1  3  1  0  0  0  0
  4  1  1  1  0  0  0
  4  6  1  0  0  0  0
  4 31  1  0  0  0  0
  6  7  1  0  0  0  0
  7  9  1  1  0  0  0
  7 30  1  0  0  0  0
  8 26  1  0  0  0  0
 10  9  1  6  0  0  0
 10 13  1  0  0  0  0
 10 21  1  0  0  0  0
 13 12  1  6  0  0  0
 13 15  1  0  0  0  0
 15  2  1  6  0  0  0
 15 17  1  0  0  0  0
 16 25  1  0  0  0  0
 16 23  1  0  0  0  0
 17 19  1  0  0  0  0
 19  5  1  1  0  0  0
 19 21  1  0  0  0  0
 21 14  1  1  0  0  0
 23 14  1  6  0  0  0
 23 29  1  0  0  0  0
 25 26  1  1  0  0  0
 25 27  1  0  0  0  0
 27 18  1  6  0  0  0
 27 28  1  0  0  0  0
 28 20  1  1  0  0  0
 28 29  1  0  0  0  0
 29 11  1  6  0  0  0
 30 22  1  6  0  0  0
 30 31  1  0  0  0  0
 31 24  1  6  0  0  0
M  END
>  <CHROM.1>
-57.10845302,-68.57541675,-63.77162643,85.52791606,170.65968800,63.43462648
38.94651075,26.01495156,2.73279715,2.06613706,0.96227743,-1.94837220

>  <Name>
ligand

>  <RI>
0

>  <Rbt.Current_Directory>
/home/itssahil/PROJECTS/Mol_Feturizer/New_Systems/rnas/2ET5

>  <Rbt.Executable>
rbdock ($Id: //depot/dev/client3/rdock/2013.1/src/exe/rbdock.cxx#4 $)

>  <Rbt.Library>
libRbt.so (2013.1, Build901 2013/11/27)

>  <Rbt.Parameter_File>
/export/apps/rDock/src/rDock_2013.1_src/data/scripts/dock_solv.prm

>  <Rbt.Receptor>
prm/pocket_docking_5.prm

>  <SCORE>
-3.60934

>  <SCORE.INTER>
-2.71793

>  <SCORE.INTER.CONST>
1

>  <SCORE.INTER.POLAR>
0

>  <SCORE.INTER.ROT>
6

>  <SCORE.INTER.SOLV>
13.9528

>  <SCORE.INTER.VDW>
-14.0629

>  <SCORE.INTER.norm>
-0.0876751

>  <SCORE.INTRA>
-0.891415

>  <SCORE.INTRA.DIHEDRAL>
-7.44269

>  <SCORE.INTRA.DIHEDRAL.0>
11.2357

>  <SCORE.INTRA.POLAR>
0

>  <SCORE.INTRA.POLAR.0>
0

>  <SCORE.INTRA.REPUL>
0

>  <SCORE.INTRA.REPUL.0>
0

>  <SCORE.INTRA.SOLV>
0.727815

>  <SCORE.INTRA.SOLV.lig_0>
-83.3092

>  <SCORE.INTRA.VDW>
2.46602

>  <SCORE.INTRA.VDW.0>
-4.47057

>  <SCORE.INTRA.norm>
-0.0287553

>  <SCORE.RESTR>
0

>  <SCORE.RESTR.CAVITY>
0

>  <SCORE.RESTR.norm>
0

>  <SCORE.SYSTEM>
0

>  <SCORE.SYSTEM.CONST>
0

>  <SCORE.SYSTEM.DIHEDRAL>
0

>  <SCORE.SYSTEM.SOLV>
0

>  <SCORE.SYSTEM.norm>
0

>  <SCORE.heavy>
31

>  <SCORE.norm>
-0.11643

>  <RMSD>
6.943

$$$$
ligand
 OpenBabel11021811433D
libRbt.so/2013.1/901 2013/11/27
 31 33  0  0  0  0  0  0  0  0999 V2000
   48.0958   27.1092    2.8897 C   0  0  0  0  0  0  0  0  0  0  0  0
   44.5826   19.1246    2.0993 N   0  0  0  0  0  0  0  0  0  0  0  0
   48.5700   28.0999    3.8134 O   0  0  0  0  0  0  0  0  0  0  0  0
   46.5956   27.3726    2.7896 C   0  0  1  0  0  0  0  0  0  0  0  0
   40.6304   22.2880    2.4188 N   0  0  0  0  0  0  0  0  0  0  0  0
   45.8496   26.4566    1.8365 O   0  0  0  0  0  0  0  0  0  0  0  0
   45.0736   25.5155    2.4723 C   0  0  1  0  0  0  0  0  0  0  0  0
   38.4717   25.3920    5.8490 N   0  0  0  0  0  0  0  0  0  0  0  0
   45.1907   24.1822    2.0602 O   0  0  0  0  0  0  0  0  0  0  0  0
   44.3760   23.0645    2.6458 C   0  0  2  0  0  0  0  0  0  0  0  0
   41.9705   26.9198    1.2721 N   0  0  0  0  0  0  0  0  0  0  0  0
   46.3301   21.5379    2.4398 O   0  0  0  0  0  0  0  0  0  0  0  0
   44.9122   21.7189    2.0735 C   0  0  1  0  0  0  0  0  0  0  0  0
   42.3746   24.4078    2.7903 O   0  0  0  0  0  0  0  0  0  0  0  0
   44.0606   20.4844    2.6597 C   0  0  1  0  0  0  0  0  0  0  0  0
   40.2459   24.7330    3.8042 O   0  0  0  0  0  0  0  0  0  0  0  0
   42.5403   20.7086    2.2491 C   0  0  0  0  0  0  0  0  0  0  0  0
   41.2205   27.5086    6.0884 O   0  0  0  0  0  0  0  0  0  0  0  0
   42.0619   22.1039    2.8294 C   0  0  1  0  0  0  0  0  0  0  0  0
   41.6577   28.7545    3.5564 O   0  0  0  0  0  0  0  0  0  0  0  0
   42.8435   23.2370    2.2448 C   0  0  2  0  0  0  0  0  0  0  0  0
   44.1645   25.3876    4.6738 O   0  0  0  0  0  0  0  0  0  0  0  0
   41.0798   25.0303    2.5885 C   0  0  1  0  0  0  0  0  0  0  0  0
   44.5514   28.0497    4.0218 O   0  0  0  0  0  0  0  0  0  0  0  0
   40.7316   25.3551    5.1065 C   0  0  2  0  0  0  0  0  0  0  0  0
   39.8091   24.9447    6.2484 C   0  0  0  0  0  0  0  0  0  0  0  0
   40.7591   26.8895    4.9179 C   0  0  2  0  0  0  0  0  0  0  0  0
   41.6498   27.2741    3.7484 C   0  0  1  0  0  0  0  0  0  0  0  0
   41.1229   26.5762    2.4807 C   0  0  1  0  0  0  0  0  0  0  0  0
   45.2940   25.7386    3.9597 C   0  0  2  0  0  0  0  0  0  0  0  0
   45.7541   27.2282    4.0629 C   0  0  1  0  0  0  0  0  0  0  0  0
  1  3  1  0  0  0  0
  4  1  1  1  0  0  0
  4  6  1  0  0  0  0
  4 31  1  0  0  0  0
  6  7  1  0  0  0  0
  7  9  1  6  0  0  0
  7 30  1  0  0  0  0
  8 26  1  0  0  0  0
 10  9  1  6  0  0  0
 10 13  1  0  0  0  0
 10 21  1  0  0  0  0
 13 12  1  1  0  0  0
 13 15  1  0  0  0  0
 15  2  1  6  0  0  0
 15 17  1  0  0  0  0
 16 25  1  0  0  0  0
 16 23  1  0  0  0  0
 17 19  1  0  0  0  0
 19  5  1  6  0  0  0
 19 21  1  0  0  0  0
 21 14  1  1  0  0  0
 23 14  1  1  0  0  0
 23 29  1  0  0  0  0
 25 26  1  1  0  0  0
 25 27  1  0  0  0  0
 27 18  1  1  0  0  0
 27 28  1  0  0  0  0
 28 20  1  6  0  0  0
 28 29  1  0  0  0  0
 29 11  1  6  0  0  0
 30 22  1  1  0  0  0
 30 31  1  0  0  0  0
 31 24  1  6  0  0  0
M  END
>  <CHROM.1>
178.93974727,-178.33890248,-172.74617534,102.16703772,173.87536126,-57.37079666
43.34073920,24.98911768,3.32556973,-0.65304442,0.24432306,0.25473791

>  <Name>
ligand

>  <RI>
0

>  <Rbt.Current_Directory>
/home/itssahil/PROJECTS/Mol_Feturizer/New_Systems/rnas/2ET5

>  <Rbt.Executable>
rbdock ($Id: //depot/dev/client3/rdock/2013.1/src/exe/rbdock.cxx#4 $)

>  <Rbt.Library>
libRbt.so (2013.1, Build901 2013/11/27)

>  <Rbt.Parameter_File>
/export/apps/rDock/src/rDock_2013.1_src/data/scripts/dock_solv.prm

>  <Rbt.Receptor>
prm/pocket_docking_8.prm

>  <SCORE>
-6.59875

>  <SCORE.INTER>
-5.18436

>  <SCORE.INTER.CONST>
1

>  <SCORE.INTER.POLAR>
0

>  <SCORE.INTER.ROT>
6

>  <SCORE.INTER.SOLV>
13.3999

>  <SCORE.INTER.VDW>
-15.5229

>  <SCORE.INTER.norm>
-0.167237

>  <SCORE.INTRA>
-1.41439

>  <SCORE.INTRA.DIHEDRAL>
-4.92467

>  <SCORE.INTRA.DIHEDRAL.0>
11.2357

>  <SCORE.INTRA.POLAR>
0

>  <SCORE.INTRA.POLAR.0>
0

>  <SCORE.INTRA.REPUL>
0

>  <SCORE.INTRA.REPUL.0>
0

>  <SCORE.INTRA.SOLV>
2.01205

>  <SCORE.INTRA.SOLV.lig_0>
-83.3092

>  <SCORE.INTRA.VDW>
0.0419192

>  <SCORE.INTRA.VDW.0>
-4.47057

>  <SCORE.INTRA.norm>
-0.0456256

>  <SCORE.RESTR>
0

>  <SCORE.RESTR.CAVITY>
0

>  <SCORE.RESTR.norm>
0

>  <SCORE.SYSTEM>
0

>  <SCORE.SYSTEM.CONST>
0

>  <SCORE.SYSTEM.DIHEDRAL>
0

>  <SCORE.SYSTEM.SOLV>
0

>  <SCORE.SYSTEM.norm>
0

>  <SCORE.heavy>
31

>  <SCORE.norm>
-0.212863

>  <RMSD>
6.945

$$$$
ligand
 OpenBabel11021811433D
libRbt.so/2013.1/901 2013/11/27
 31 33  0  0  0  0  0  0  0  0999 V2000
   44.9897   20.8292    2.9948 C   0  0  0  0  0  0  0  0  0  0  0  0
   42.4925   25.0455    5.0422 N   0  0  0  0  0  0  0  0  0  0  0  0
   44.7997   21.9955    2.1804 O   0  0  0  0  0  0  0  0  0  0  0  0
   43.9784   19.8215    2.4544 C   0  0  1  0  0  0  0  0  0  0  0  0
   40.9592   26.7067    0.5015 N   0  0  0  0  0  0  0  0  0  0  0  0
   42.5277   20.2558    2.5584 O   0  0  0  0  0  0  0  0  0  0  0  0
   41.9728   20.6136    1.3517 C   0  0  1  0  0  0  0  0  0  0  0  0
   36.5974   26.2650   -1.0403 N   0  0  0  0  0  0  0  0  0  0  0  0
   41.2791   21.8283    1.2836 O   0  0  0  0  0  0  0  0  0  0  0  0
   41.9126   23.1566    1.5839 C   0  0  2  0  0  0  0  0  0  0  0  0
   42.0374   23.2476   -3.1979 N   0  0  0  0  0  0  0  0  0  0  0  0
   42.6161   22.3115    3.8161 O   0  0  0  0  0  0  0  0  0  0  0  0
   41.8692   23.3799    3.1246 C   0  0  1  0  0  0  0  0  0  0  0  0
   41.1880   24.1346   -0.5016 O   0  0  0  0  0  0  0  0  0  0  0  0
   42.5246   24.8017    3.5011 C   0  0  1  0  0  0  0  0  0  0  0  0
   38.9785   23.4108   -1.0106 O   0  0  0  0  0  0  0  0  0  0  0  0
   41.6993   25.9299    2.7420 C   0  0  0  0  0  0  0  0  0  0  0  0
   38.0955   26.1706   -3.3504 O   0  0  0  0  0  0  0  0  0  0  0  0
   41.7516   25.6319    1.1860 C   0  0  1  0  0  0  0  0  0  0  0  0
   40.2306   24.9414   -4.7942 O   0  0  0  0  0  0  0  0  0  0  0  0
   41.1066   24.3233    0.8571 C   0  0  2  0  0  0  0  0  0  0  0  0
   42.5642   20.1305   -0.9080 O   0  0  0  0  0  0  0  0  0  0  0  0
   40.4354   23.2023   -1.3194 C   0  0  1  0  0  0  0  0  0  0  0  0
   43.5269   18.1078    0.7180 O   0  0  0  0  0  0  0  0  0  0  0  0
   38.4058   24.7641   -1.4097 C   0  0  2  0  0  0  0  0  0  0  0  0
   36.9367   24.8394   -1.0102 C   0  0  0  0  0  0  0  0  0  0  0  0
   38.5915   24.9262   -2.9361 C   0  0  2  0  0  0  0  0  0  0  0  0
   40.0573   24.8049   -3.3178 C   0  0  1  0  0  0  0  0  0  0  0  0
   40.5749   23.4334   -2.8461 C   0  0  1  0  0  0  0  0  0  0  0  0
   43.0858   20.4636    0.3274 C   0  0  2  0  0  0  0  0  0  0  0  0
   44.0695   19.4357    0.9734 C   0  0  1  0  0  0  0  0  0  0  0  0
  1  3  1  0  0  0  0
  4  1  1  6  0  0  0
  4  6  1  0  0  0  0
  4 31  1  0  0  0  0
  6  7  1  0  0  0  0
  7  9  1  1  0  0  0
  7 30  1  0  0  0  0
  8 26  1  0  0  0  0
 10  9  1  1  0  0  0
 10 13  1  0  0  0  0
 10 21  1  0  0  0  0
 13 12  1  1  0  0  0
 13 15  1  0  0  0  0
 15  2  1  1  0  0  0
 15 17  1  0  0  0  0
 16 25  1  0  0  0  0
 16 23  1  0  0  0  0
 17 19  1  0  0  0  0
 19  5  1  6  0  0  0
 19 21  1  0  0  0  0
 21 14  1  6  0  0  0
 23 14  1  1  0  0  0
 23 29  1  0  0  0  0
 25 26  1  6  0  0  0
 25 27  1  0  0  0  0
 27 18  1  1  0  0  0
 27 28  1  0  0  0  0
 28 20  1  6  0  0  0
 28 29  1  0  0  0  0
 29 11  1  1  0  0  0
 30 22  1  6  0  0  0
 30 31  1  0  0  0  0
 31 24  1  1  0  0  0
M  END
>  <CHROM.1>
-61.14185006,59.75043417,-84.10774784,52.08853314,78.56315422,162.86181268
41.35734437,23.15596628,0.29615791,-0.16809381,0.92942603,-2.19727043

>  <Name>
ligand

>  <RI>
0

>  <Rbt.Current_Directory>
/home/itssahil/PROJECTS/Mol_Feturizer/New_Systems/rnas/2ET5

>  <Rbt.Executable>
rbdock ($Id: //depot/dev/client3/rdock/2013.1/src/exe/rbdock.cxx#4 $)

>  <Rbt.Library>
libRbt.so (2013.1, Build901 2013/11/27)

>  <Rbt.Parameter_File>
/export/apps/rDock/src/rDock_2013.1_src/data/scripts/dock_solv.prm

>  <Rbt.Receptor>
prm/pocket_docking_3.prm

>  <SCORE>
-6.54535

>  <SCORE.INTER>
-4.77106

>  <SCORE.INTER.CONST>
1

>  <SCORE.INTER.POLAR>
0

>  <SCORE.INTER.ROT>
6

>  <SCORE.INTER.SOLV>
16.4309

>  <SCORE.INTER.VDW>
-16.2577

>  <SCORE.INTER.norm>
-0.153905

>  <SCORE.INTRA>
-1.88204

>  <SCORE.INTRA.DIHEDRAL>
-5.72436

>  <SCORE.INTRA.DIHEDRAL.0>
11.2357

>  <SCORE.INTRA.POLAR>
0

>  <SCORE.INTRA.POLAR.0>
0

>  <SCORE.INTRA.REPUL>
0

>  <SCORE.INTRA.REPUL.0>
0

>  <SCORE.INTRA.SOLV>
-0.46163

>  <SCORE.INTRA.SOLV.lig_0>
-83.3092

>  <SCORE.INTRA.VDW>
1.21096

>  <SCORE.INTRA.VDW.0>
-4.47057

>  <SCORE.INTRA.norm>
-0.060711

>  <SCORE.RESTR>
0.107747

>  <SCORE.RESTR.CAVITY>
0.107747

>  <SCORE.RESTR.norm>
0.0034757

>  <SCORE.SYSTEM>
0

>  <SCORE.SYSTEM.CONST>
0

>  <SCORE.SYSTEM.DIHEDRAL>
0

>  <SCORE.SYSTEM.SOLV>
0

>  <SCORE.SYSTEM.norm>
0

>  <SCORE.heavy>
31

>  <SCORE.norm>
-0.21114

>  <RMSD>
6.976

$$$$
ligand
 OpenBabel11021811433D
libRbt.so/2013.1/901 2013/11/27
 31 33  0  0  0  0  0  0  0  0999 V2000
   33.9492   23.5471    4.8097 C   0  0  0  0  0  0  0  0  0  0  0  0
   37.6615   26.4133    9.2328 N   0  0  0  0  0  0  0  0  0  0  0  0
   33.1535   22.5578    4.1405 O   0  0  0  0  0  0  0  0  0  0  0  0
   33.5115   24.8698    4.1862 C   0  0  1  0  0  0  0  0  0  0  0  0
   40.8384   25.0168    5.5334 N   0  0  0  0  0  0  0  0  0  0  0  0
   34.2306   26.0953    4.7201 O   0  0  0  0  0  0  0  0  0  0  0  0
   35.1428   26.6257    3.8376 C   0  0  1  0  0  0  0  0  0  0  0  0
   37.7134   25.9821   -0.5481 N   0  0  0  0  0  0  0  0  0  0  0  0
   36.4285   26.9091    4.3150 O   0  0  0  0  0  0  0  0  0  0  0  0
   37.1520   26.0367    5.3005 C   0  0  2  0  0  0  0  0  0  0  0  0
   39.5194   22.6406    4.6916 N   0  0  0  0  0  0  0  0  0  0  0  0
   35.5918   26.7746    7.0929 O   0  0  0  0  0  0  0  0  0  0  0  0
   37.0144   26.6787    6.7128 C   0  0  1  0  0  0  0  0  0  0  0  0
   38.8010   25.3323    3.6832 O   0  0  0  0  0  0  0  0  0  0  0  0
   37.7879   25.7878    7.8086 C   0  0  1  0  0  0  0  0  0  0  0  0
   37.7857   24.3021    1.7930 O   0  0  0  0  0  0  0  0  0  0  0  0
   39.3150   25.7035    7.3714 C   0  0  0  0  0  0  0  0  0  0  0  0
   40.9209   23.3249    0.0362 O   0  0  0  0  0  0  0  0  0  0  0  0
   39.3893   25.0749    5.9181 C   0  0  1  0  0  0  0  0  0  0  0  0
   41.1525   21.7497    2.4067 O   0  0  0  0  0  0  0  0  0  0  0  0
   38.6944   25.9367    4.9127 C   0  0  2  0  0  0  0  0  0  0  0  0
   35.4059   26.4378    1.4744 O   0  0  0  0  0  0  0  0  0  0  0  0
   38.1688   24.1063    3.2340 C   0  0  1  0  0  0  0  0  0  0  0  0
   32.7485   26.0004    2.1136 O   0  0  0  0  0  0  0  0  0  0  0  0
   38.9436   24.4731    0.8191 C   0  0  2  0  0  0  0  0  0  0  0  0
   38.4037   24.6898   -0.5898 C   0  0  0  0  0  0  0  0  0  0  0  0
   39.8258   23.2062    0.9039 C   0  0  2  0  0  0  0  0  0  0  0  0
   40.3181   22.9848    2.3244 C   0  0  1  0  0  0  0  0  0  0  0  0
   39.0960   22.8639    3.2535 C   0  0  1  0  0  0  0  0  0  0  0  0
   35.1075   25.7205    2.6170 C   0  0  2  0  0  0  0  0  0  0  0  0
   33.6981   25.0485    2.6750 C   0  0  1  0  0  0  0  0  0  0  0  0
  1  3  1  0  0  0  0
  4  1  1  1  0  0  0
  4  6  1  0  0  0  0
  4 31  1  0  0  0  0
  6  7  1  0  0  0  0
  7  9  1  1  0  0  0
  7 30  1  0  0  0  0
  8 26  1  0  0  0  0
 10  9  1  6  0  0  0
 10 13  1  0  0  0  0
 10 21  1  0  0  0  0
 13 12  1  1  0  0  0
 13 15  1  0  0  0  0
 15  2  1  1  0  0  0
 15 17  1  0  0  0  0
 16 25  1  0  0  0  0
 16 23  1  0  0  0  0
 17 19  1  0  0  0  0
 19  5  1  6  0  0  0
 19 21  1  0  0  0  0
 21 14  1  6  0  0  0
 23 14  1  6  0  0  0
 23 29  1  0  0  0  0
 25 26  1  6  0  0  0
 25 27  1  0  0  0  0
 27 18  1  6  0  0  0
 27 28  1  0  0  0  0
 28 20  1  6  0  0  0
 28 29  1  0  0  0  0
 29 11  1  1  0  0  0
 30 22  1  6  0  0  0
 30 31  1  0  0  0  0
 31 24  1  1  0  0  0
M  END
>  <CHROM.1>
-179.25081618,38.00884229,-100.13602150,142.49579321,-48.95473569,66.13848410
37.30280142,24.93184350,3.73647073,2.41546383,-0.24950269,1.32551964

>  <Name>
ligand

>  <RI>
0

>  <Rbt.Current_Directory>
/home/itssahil/PROJECTS/Mol_Feturizer/New_Systems/rnas/2ET5

>  <Rbt.Executable>
rbdock ($Id: //depot/dev/client3/rdock/2013.1/src/exe/rbdock.cxx#4 $)

>  <Rbt.Library>
libRbt.so (2013.1, Build901 2013/11/27)

>  <Rbt.Parameter_File>
/export/apps/rDock/src/rDock_2013.1_src/data/scripts/dock_solv.prm

>  <Rbt.Receptor>
prm/pocket_docking_6.prm

>  <SCORE>
-6.73942

>  <SCORE.INTER>
-9.57658

>  <SCORE.INTER.CONST>
1

>  <SCORE.INTER.POLAR>
0

>  <SCORE.INTER.ROT>
6

>  <SCORE.INTER.SOLV>
19.3335

>  <SCORE.INTER.VDW>
-20.4289

>  <SCORE.INTER.norm>
-0.308922

>  <SCORE.INTRA>
2.83716

>  <SCORE.INTRA.DIHEDRAL>
2.05982

>  <SCORE.INTRA.DIHEDRAL.0>
11.2357

>  <SCORE.INTRA.POLAR>
0

>  <SCORE.INTRA.POLAR.0>
0

>  <SCORE.INTRA.REPUL>
0

>  <SCORE.INTRA.REPUL.0>
0

>  <SCORE.INTRA.SOLV>
2.63015

>  <SCORE.INTRA.SOLV.lig_0>
-83.3092

>  <SCORE.INTRA.VDW>
0.492181

>  <SCORE.INTRA.VDW.0>
-4.47057

>  <SCORE.INTRA.norm>
0.0915214

>  <SCORE.RESTR>
0

>  <SCORE.RESTR.CAVITY>
0

>  <SCORE.RESTR.norm>
0

>  <SCORE.SYSTEM>
0

>  <SCORE.SYSTEM.CONST>
0

>  <SCORE.SYSTEM.DIHEDRAL>
0

>  <SCORE.SYSTEM.SOLV>
0

>  <SCORE.SYSTEM.norm>
0

>  <SCORE.heavy>
31

>  <SCORE.norm>
-0.217401

>  <RMSD>
7.001

$$$$
ligand
 OpenBabel11021811433D
libRbt.so/2013.1/901 2013/11/27
 31 33  0  0  0  0  0  0  0  0999 V2000
   43.7697   24.7396    4.9168 C   0  0  0  0  0  0  0  0  0  0  0  0
   48.8088   26.8409   -0.9808 N   0  0  0  0  0  0  0  0  0  0  0  0
   44.7762   25.5542    4.2980 O   0  0  0  0  0  0  0  0  0  0  0  0
   43.5368   23.6052    3.9223 C   0  0  1  0  0  0  0  0  0  0  0  0
   44.9083   25.8897   -4.0807 N   0  0  0  0  0  0  0  0  0  0  0  0
   43.1201   24.0512    2.5325 O   0  0  0  0  0  0  0  0  0  0  0  0
   44.1149   23.9203    1.5915 C   0  0  1  0  0  0  0  0  0  0  0  0
   41.2171   28.2623   -2.5968 N   0  0  0  0  0  0  0  0  0  0  0  0
   44.3838   25.0182    0.7646 O   0  0  0  0  0  0  0  0  0  0  0  0
   45.3456   24.9653   -0.3878 C   0  0  2  0  0  0  0  0  0  0  0  0
   42.2957   21.9560   -1.6462 N   0  0  0  0  0  0  0  0  0  0  0  0
   47.2253   25.4670    1.1635 O   0  0  0  0  0  0  0  0  0  0  0  0
   46.5422   25.9092   -0.0675 C   0  0  1  0  0  0  0  0  0  0  0  0
   43.5995   24.5911   -2.0132 O   0  0  0  0  0  0  0  0  0  0  0  0
   47.5996   25.9014   -1.2819 C   0  0  1  0  0  0  0  0  0  0  0  0
   41.5326   25.6375   -1.4673 O   0  0  0  0  0  0  0  0  0  0  0  0
   46.8345   26.3815   -2.5912 C   0  0  0  0  0  0  0  0  0  0  0  0
   39.7586   24.8906   -4.6557 O   0  0  0  0  0  0  0  0  0  0  0  0
   45.6116   25.4059   -2.8468 C   0  0  1  0  0  0  0  0  0  0  0  0
   40.1745   22.2426   -3.6711 O   0  0  0  0  0  0  0  0  0  0  0  0
   44.6267   25.4562   -1.7225 C   0  0  2  0  0  0  0  0  0  0  0  0
   46.1028   22.6046    1.5108 O   0  0  0  0  0  0  0  0  0  0  0  0
   42.3622   24.3971   -1.2810 C   0  0  1  0  0  0  0  0  0  0  0  0
   44.2748   21.3578    3.1739 O   0  0  0  0  0  0  0  0  0  0  0  0
   41.0569   25.9067   -2.8885 C   0  0  2  0  0  0  0  0  0  0  0  0
   40.2580   27.2043   -2.9269 C   0  0  0  0  0  0  0  0  0  0  0  0
   40.2050   24.6981   -3.3404 C   0  0  2  0  0  0  0  0  0  0  0  0
   41.0062   23.4099   -3.2537 C   0  0  1  0  0  0  0  0  0  0  0  0
   41.4869   23.2284   -1.8020 C   0  0  1  0  0  0  0  0  0  0  0  0
   45.3228   23.3846    2.3429 C   0  0  2  0  0  0  0  0  0  0  0  0
   44.7156   22.6801    3.5984 C   0  0  1  0  0  0  0  0  0  0  0  0
  1  3  1  0  0  0  0
  4  1  1  1  0  0  0
  4  6  1  0  0  0  0
  4 31  1  0  0  0  0
  6  7  1  0  0  0  0
  7  9  1  1  0  0  0
  7 30  1  0  0  0  0
  8 26  1  0  0  0  0
 10  9  1  1  0  0  0
 10 13  1  0  0  0  0
 10 21  1  0  0  0  0
 13 12  1  1  0  0  0
 13 15  1  0  0  0  0
 15  2  1  1  0  0  0
 15 17  1  0  0  0  0
 16 25  1  0  0  0  0
 16 23  1  0  0  0  0
 17 19  1  0  0  0  0
 19  5  1  6  0  0  0
 19 21  1  0  0  0  0
 21 14  1  6  0  0  0
 23 14  1  6  0  0  0
 23 29  1  0  0  0  0
 25 26  1  1  0  0  0
 25 27  1  0  0  0  0
 27 18  1  6  0  0  0
 27 28  1  0  0  0  0
 28 20  1  1  0  0  0
 28 29  1  0  0  0  0
 29 11  1  6  0  0  0
 30 22  1  6  0  0  0
 30 31  1  0  0  0  0
 31 24  1  6  0  0  0
M  END
>  <CHROM.1>
-57.43194662,-173.78337002,-114.52153835,69.49193878,68.29067635,65.46303378
43.74639152,24.67695880,-0.47493523,0.91028046,0.36646015,1.98738355

>  <Name>
ligand

>  <RI>
0

>  <Rbt.Current_Directory>
/home/itssahil/PROJECTS/Mol_Feturizer/New_Systems/rnas/2ET5

>  <Rbt.Executable>
rbdock ($Id: //depot/dev/client3/rdock/2013.1/src/exe/rbdock.cxx#4 $)

>  <Rbt.Library>
libRbt.so (2013.1, Build901 2013/11/27)

>  <Rbt.Parameter_File>
/export/apps/rDock/src/rDock_2013.1_src/data/scripts/dock_solv.prm

>  <Rbt.Receptor>
prm/pocket_docking_8.prm

>  <SCORE>
-9.3119

>  <SCORE.INTER>
-7.11625

>  <SCORE.INTER.CONST>
1

>  <SCORE.INTER.POLAR>
0

>  <SCORE.INTER.ROT>
6

>  <SCORE.INTER.SOLV>
17.8489

>  <SCORE.INTER.VDW>
-18.2938

>  <SCORE.INTER.norm>
-0.229557

>  <SCORE.INTRA>
-2.19565

>  <SCORE.INTRA.DIHEDRAL>
-2.96099

>  <SCORE.INTRA.DIHEDRAL.0>
11.2357

>  <SCORE.INTRA.POLAR>
0

>  <SCORE.INTRA.POLAR.0>
0

>  <SCORE.INTRA.REPUL>
0

>  <SCORE.INTRA.REPUL.0>
0

>  <SCORE.INTRA.SOLV>
-2.92313

>  <SCORE.INTRA.SOLV.lig_0>
-83.3092

>  <SCORE.INTRA.VDW>
0.746412

>  <SCORE.INTRA.VDW.0>
-4.47057

>  <SCORE.INTRA.norm>
-0.0708274

>  <SCORE.RESTR>
0

>  <SCORE.RESTR.CAVITY>
0

>  <SCORE.RESTR.norm>
0

>  <SCORE.SYSTEM>
0

>  <SCORE.SYSTEM.CONST>
0

>  <SCORE.SYSTEM.DIHEDRAL>
0

>  <SCORE.SYSTEM.SOLV>
0

>  <SCORE.SYSTEM.norm>
0

>  <SCORE.heavy>
31

>  <SCORE.norm>
-0.300384

>  <RMSD>
7.014

$$$$
ligand
 OpenBabel11021811433D
libRbt.so/2013.1/901 2013/11/27
 31 33  0  0  0  0  0  0  0  0999 V2000
   46.1208   19.5551    2.3500 C   0  0  0  0  0  0  0  0  0  0  0  0
   42.7846   24.7952    5.7265 N   0  0  0  0  0  0  0  0  0  0  0  0
   46.4718   20.8884    2.7484 O   0  0  0  0  0  0  0  0  0  0  0  0
   44.6267   19.4529    2.6453 C   0  0  1  0  0  0  0  0  0  0  0  0
   39.1026   24.9370    2.2406 N   0  0  0  0  0  0  0  0  0  0  0  0
   43.9208   20.7840    2.8302 O   0  0  0  0  0  0  0  0  0  0  0  0
   43.1167   21.1321    1.7698 C   0  0  1  0  0  0  0  0  0  0  0  0
   36.3650   25.0005   -1.0718 N   0  0  0  0  0  0  0  0  0  0  0  0
   43.2493   22.4227    1.2426 O   0  0  0  0  0  0  0  0  0  0  0  0
   42.6962   23.6474    1.9135 C   0  0  2  0  0  0  0  0  0  0  0  0
   41.4728   21.9888   -1.8541 N   0  0  0  0  0  0  0  0  0  0  0  0
   44.5001   23.5204    3.6228 O   0  0  0  0  0  0  0  0  0  0  0  0
   43.0377   23.5679    3.4310 C   0  0  1  0  0  0  0  0  0  0  0  0
   40.8308   23.8145    0.3893 O   0  0  0  0  0  0  0  0  0  0  0  0
   42.4522   24.8541    4.2028 C   0  0  1  0  0  0  0  0  0  0  0  0
   38.5955   23.9450   -0.4180 O   0  0  0  0  0  0  0  0  0  0  0  0
   40.8778   24.8771    3.9773 C   0  0  0  0  0  0  0  0  0  0  0  0
   39.2767   26.1096   -3.3712 O   0  0  0  0  0  0  0  0  0  0  0  0
   40.5924   24.9243    2.4188 C   0  0  1  0  0  0  0  0  0  0  0  0
   40.7815   23.7891   -4.0819 O   0  0  0  0  0  0  0  0  0  0  0  0
   41.1144   23.7042    1.7293 C   0  0  2  0  0  0  0  0  0  0  0  0
   42.1139   19.8651    0.0153 O   0  0  0  0  0  0  0  0  0  0  0  0
   39.8319   23.0901   -0.3737 C   0  0  1  0  0  0  0  0  0  0  0  0
   42.5326   18.2031    2.1889 O   0  0  0  0  0  0  0  0  0  0  0  0
   38.7276   25.2585   -1.1769 C   0  0  2  0  0  0  0  0  0  0  0  0
   37.4120   26.0255   -1.1114 C   0  0  0  0  0  0  0  0  0  0  0  0
   39.1230   24.9266   -2.6343 C   0  0  2  0  0  0  0  0  0  0  0  0
   40.4137   24.1254   -2.6747 C   0  0  1  0  0  0  0  0  0  0  0  0
   40.2169   22.8373   -1.8541 C   0  0  1  0  0  0  0  0  0  0  0  0
   43.2736   20.0146    0.7514 C   0  0  2  0  0  0  0  0  0  0  0  0
   43.7311   18.7828    1.5969 C   0  0  1  0  0  0  0  0  0  0  0  0
  1  3  1  0  0  0  0
  4  1  1  6  0  0  0
  4  6  1  0  0  0  0
  4 31  1  0  0  0  0
  6  7  1  0  0  0  0
  7  9  1  6  0  0  0
  7 30  1  0  0  0  0
  8 26  1  0  0  0  0
 10  9  1  6  0  0  0
 10 13  1  0  0  0  0
 10 21  1  0  0  0  0
 13 12  1  6  0  0  0
 13 15  1  0  0  0  0
 15  2  1  1  0  0  0
 15 17  1  0  0  0  0
 16 25  1  0  0  0  0
 16 23  1  0  0  0  0
 17 19  1  0  0  0  0
 19  5  1  1  0  0  0
 19 21  1  0  0  0  0
 21 14  1  6  0  0  0
 23 14  1  1  0  0  0
 23 29  1  0  0  0  0
 25 26  1  6  0  0  0
 25 27  1  0  0  0  0
 27 18  1  6  0  0  0
 27 28  1  0  0  0  0
 28 20  1  6  0  0  0
 28 29  1  0  0  0  0
 29 11  1  1  0  0  0
 30 22  1  1  0  0  0
 30 31  1  0  0  0  0
 31 24  1  1  0  0  0
M  END
>  <CHROM.1>
17.42180592,-75.94325980,44.68666407,94.64685393,135.13015418,-32.12573470
41.61958547,22.90498304,0.86141720,-0.18061327,0.81960847,-2.15040126

>  <Name>
ligand

>  <RI>
0

>  <Rbt.Current_Directory>
/home/itssahil/PROJECTS/Mol_Feturizer/New_Systems/rnas/2ET5

>  <Rbt.Executable>
rbdock ($Id: //depot/dev/client3/rdock/2013.1/src/exe/rbdock.cxx#4 $)

>  <Rbt.Library>
libRbt.so (2013.1, Build901 2013/11/27)

>  <Rbt.Parameter_File>
/export/apps/rDock/src/rDock_2013.1_src/data/scripts/dock_solv.prm

>  <Rbt.Receptor>
prm/pocket_docking_2.prm

>  <SCORE>
1.58075

>  <SCORE.INTER>
-5.69629

>  <SCORE.INTER.CONST>
1

>  <SCORE.INTER.POLAR>
0

>  <SCORE.INTER.ROT>
6

>  <SCORE.INTER.SOLV>
22.0528

>  <SCORE.INTER.VDW>
-18.7485

>  <SCORE.INTER.norm>
-0.183751

>  <SCORE.INTRA>
6.82976

>  <SCORE.INTRA.DIHEDRAL>
8.28509

>  <SCORE.INTRA.DIHEDRAL.0>
11.2357

>  <SCORE.INTRA.POLAR>
0

>  <SCORE.INTRA.POLAR.0>
0

>  <SCORE.INTRA.REPUL>
0.0514713

>  <SCORE.INTRA.REPUL.0>
0

>  <SCORE.INTRA.SOLV>
2.42147

>  <SCORE.INTRA.SOLV.lig_0>
-83.3092

>  <SCORE.INTRA.VDW>
1.21913

>  <SCORE.INTRA.VDW.0>
-4.47057

>  <SCORE.INTRA.norm>
0.220315

>  <SCORE.RESTR>
0.447277

>  <SCORE.RESTR.CAVITY>
0.447277

>  <SCORE.RESTR.norm>
0.0144283

>  <SCORE.SYSTEM>
0

>  <SCORE.SYSTEM.CONST>
0

>  <SCORE.SYSTEM.DIHEDRAL>
0

>  <SCORE.SYSTEM.SOLV>
0

>  <SCORE.SYSTEM.norm>
0

>  <SCORE.heavy>
31

>  <SCORE.norm>
0.050992

>  <RMSD>
7.043

$$$$
ligand
 OpenBabel11021811433D
libRbt.so/2013.1/901 2013/11/27
 31 33  0  0  0  0  0  0  0  0999 V2000
   37.7246   25.9120    7.4728 C   0  0  0  0  0  0  0  0  0  0  0  0
   42.9287   22.1487    1.6637 N   0  0  0  0  0  0  0  0  0  0  0  0
   37.3784   26.5972    6.2602 O   0  0  0  0  0  0  0  0  0  0  0  0
   39.1921   25.5348    7.2884 C   0  0  1  0  0  0  0  0  0  0  0  0
   38.7513   23.6579   -0.7858 N   0  0  0  0  0  0  0  0  0  0  0  0
   39.4931   24.7400    6.0307 O   0  0  0  0  0  0  0  0  0  0  0  0
   40.1398   25.4698    5.0605 C   0  0  1  0  0  0  0  0  0  0  0  0
   33.4877   25.7099    4.0082 N   0  0  0  0  0  0  0  0  0  0  0  0
   39.6325   25.4209    3.7560 O   0  0  0  0  0  0  0  0  0  0  0  0
   39.7429   24.2100    2.8742 C   0  0  2  0  0  0  0  0  0  0  0  0
   38.3653   27.1617   -0.1884 N   0  0  0  0  0  0  0  0  0  0  0  0
   41.8081   23.5246    4.0812 O   0  0  0  0  0  0  0  0  0  0  0  0
   41.2489   23.8327    2.7508 C   0  0  1  0  0  0  0  0  0  0  0  0
   37.8204   24.8239    1.5483 O   0  0  0  0  0  0  0  0  0  0  0  0
   41.4255   22.5451    1.8002 C   0  0  1  0  0  0  0  0  0  0  0  0
   35.5143   25.0037    0.9876 O   0  0  0  0  0  0  0  0  0  0  0  0
   40.8144   22.9082    0.3772 C   0  0  0  0  0  0  0  0  0  0  0  0
   34.7578   28.0263    3.0278 O   0  0  0  0  0  0  0  0  0  0  0  0
   39.2944   23.3146    0.5702 C   0  0  1  0  0  0  0  0  0  0  0  0
   36.6349   29.1191    1.1739 O   0  0  0  0  0  0  0  0  0  0  0  0
   39.1578   24.5323    1.4275 C   0  0  2  0  0  0  0  0  0  0  0  0
   41.4218   27.4800    5.1329 O   0  0  0  0  0  0  0  0  0  0  0  0
   36.9132   25.2937    0.5183 C   0  0  1  0  0  0  0  0  0  0  0  0
   41.5447   26.2538    7.6115 O   0  0  0  0  0  0  0  0  0  0  0  0
   35.0610   25.7671    2.2246 C   0  0  2  0  0  0  0  0  0  0  0  0
   33.6426   25.3504    2.5958 C   0  0  0  0  0  0  0  0  0  0  0  0
   35.1477   27.2780    1.9079 C   0  0  2  0  0  0  0  0  0  0  0  0
   36.5594   27.6640    1.4988 C   0  0  1  0  0  0  0  0  0  0  0  0
   36.9615   26.8237    0.2726 C   0  0  1  0  0  0  0  0  0  0  0  0
   40.2849   26.8718    5.6296 C   0  0  2  0  0  0  0  0  0  0  0  0
   40.2173   26.6693    7.1775 C   0  0  1  0  0  0  0  0  0  0  0  0
  1  3  1  0  0  0  0
  4  1  1  6  0  0  0
  4  6  1  0  0  0  0
  4 31  1  0  0  0  0
  6  7  1  0  0  0  0
  7  9  1  6  0  0  0
  7 30  1  0  0  0  0
  8 26  1  0  0  0  0
 10  9  1  1  0  0  0
 10 13  1  0  0  0  0
 10 21  1  0  0  0  0
 13 12  1  1  0  0  0
 13 15  1  0  0  0  0
 15  2  1  6  0  0  0
 15 17  1  0  0  0  0
 16 25  1  0  0  0  0
 16 23  1  0  0  0  0
 17 19  1  0  0  0  0
 19  5  1  6  0  0  0
 19 21  1  0  0  0  0
 21 14  1  1  0  0  0
 23 14  1  1  0  0  0
 23 29  1  0  0  0  0
 25 26  1  6  0  0  0
 25 27  1  0  0  0  0
 27 18  1  1  0  0  0
 27 28  1  0  0  0  0
 28 20  1  6  0  0  0
 28 29  1  0  0  0  0
 29 11  1  1  0  0  0
 30 22  1  1  0  0  0
 30 31  1  0  0  0  0
 31 24  1  6  0  0  0
M  END
>  <CHROM.1>
-54.83318586,-71.39579389,-56.39242874,160.32245232,173.80550752,159.07945567
38.48537083,25.50249630,3.13342161,0.44271695,-0.45819124,1.21944041

>  <Name>
ligand

>  <RI>
0

>  <Rbt.Current_Directory>
/home/itssahil/PROJECTS/Mol_Feturizer/New_Systems/rnas/2ET5

>  <Rbt.Executable>
rbdock ($Id: //depot/dev/client3/rdock/2013.1/src/exe/rbdock.cxx#4 $)

>  <Rbt.Library>
libRbt.so (2013.1, Build901 2013/11/27)

>  <Rbt.Parameter_File>
/export/apps/rDock/src/rDock_2013.1_src/data/scripts/dock_solv.prm

>  <Rbt.Receptor>
prm/pocket_docking_5.prm

>  <SCORE>
-5.98983

>  <SCORE.INTER>
-4.89941

>  <SCORE.INTER.CONST>
1

>  <SCORE.INTER.POLAR>
0

>  <SCORE.INTER.ROT>
6

>  <SCORE.INTER.SOLV>
13.0868

>  <SCORE.INTER.VDW>
-15.2285

>  <SCORE.INTER.norm>
-0.158046

>  <SCORE.INTRA>
-1.09041

>  <SCORE.INTRA.DIHEDRAL>
-6.9788

>  <SCORE.INTRA.DIHEDRAL.0>
11.2357

>  <SCORE.INTRA.POLAR>
0

>  <SCORE.INTRA.POLAR.0>
0

>  <SCORE.INTRA.REPUL>
0

>  <SCORE.INTRA.REPUL.0>
0

>  <SCORE.INTRA.SOLV>
0.102379

>  <SCORE.INTRA.SOLV.lig_0>
-83.3092

>  <SCORE.INTRA.VDW>
2.3478

>  <SCORE.INTRA.VDW.0>
-4.47057

>  <SCORE.INTRA.norm>
-0.0351746

>  <SCORE.RESTR>
0

>  <SCORE.RESTR.CAVITY>
0

>  <SCORE.RESTR.norm>
0

>  <SCORE.SYSTEM>
0

>  <SCORE.SYSTEM.CONST>
0

>  <SCORE.SYSTEM.DIHEDRAL>
0

>  <SCORE.SYSTEM.SOLV>
0

>  <SCORE.SYSTEM.norm>
0

>  <SCORE.heavy>
31

>  <SCORE.norm>
-0.19322

>  <RMSD>
7.063

$$$$
ligand
 OpenBabel11021811433D
libRbt.so/2013.1/901 2013/11/27
 31 33  0  0  0  0  0  0  0  0999 V2000
   37.6365   26.0911    8.9922 C   0  0  0  0  0  0  0  0  0  0  0  0
   33.2315   24.6773    4.3879 N   0  0  0  0  0  0  0  0  0  0  0  0
   37.4165   27.4857    8.7344 O   0  0  0  0  0  0  0  0  0  0  0  0
   38.3867   25.5924    7.7599 C   0  0  1  0  0  0  0  0  0  0  0  0
   36.3574   25.9320    0.5954 N   0  0  0  0  0  0  0  0  0  0  0  0
   37.6452   25.7688    6.4472 O   0  0  0  0  0  0  0  0  0  0  0  0
   38.1546   26.7741    5.6585 C   0  0  1  0  0  0  0  0  0  0  0  0
   41.4019   24.7132    0.8474 N   0  0  0  0  0  0  0  0  0  0  0  0
   37.2575   27.7094    5.1279 O   0  0  0  0  0  0  0  0  0  0  0  0
   36.1750   27.3500    4.1507 C   0  0  2  0  0  0  0  0  0  0  0  0
   38.4630   30.5459    1.4952 N   0  0  0  0  0  0  0  0  0  0  0  0
   34.6864   26.7135    6.0403 O   0  0  0  0  0  0  0  0  0  0  0  0
   35.2965   26.2318    4.7860 C   0  0  1  0  0  0  0  0  0  0  0  0
   37.5570   27.8217    2.2276 O   0  0  0  0  0  0  0  0  0  0  0  0
   34.1255   25.7973    3.7699 C   0  0  1  0  0  0  0  0  0  0  0  0
   39.7713   27.3297    2.9487 O   0  0  0  0  0  0  0  0  0  0  0  0
   34.8139   25.2842    2.4309 C   0  0  0  0  0  0  0  0  0  0  0  0
   41.3242   27.0483   -0.4248 O   0  0  0  0  0  0  0  0  0  0  0  0
   35.7179   26.4496    1.8502 C   0  0  1  0  0  0  0  0  0  0  0  0
   40.5457   29.7957   -0.4493 O   0  0  0  0  0  0  0  0  0  0  0  0
   36.8184   26.8118    2.7959 C   0  0  2  0  0  0  0  0  0  0  0  0
   40.2717   27.8715    5.6026 O   0  0  0  0  0  0  0  0  0  0  0  0
   38.7716   28.4324    2.7342 C   0  0  1  0  0  0  0  0  0  0  0  0
   40.6057   25.3431    6.6784 O   0  0  0  0  0  0  0  0  0  0  0  0
   40.2419   26.6111    1.6914 C   0  0  2  0  0  0  0  0  0  0  0  0
   41.2240   25.5073    2.0664 C   0  0  0  0  0  0  0  0  0  0  0  0
   40.8911   27.6606    0.7599 C   0  0  2  0  0  0  0  0  0  0  0  0
   39.9094   28.7736    0.4334 C   0  0  1  0  0  0  0  0  0  0  0  0
   39.4478   29.4226    1.7514 C   0  0  1  0  0  0  0  0  0  0  0  0
   39.3008   27.3785    6.4532 C   0  0  2  0  0  0  0  0  0  0  0  0
   39.7368   26.2394    7.4297 C   0  0  1  0  0  0  0  0  0  0  0  0
  1  3  1  0  0  0  0
  4  1  1  1  0  0  0
  4  6  1  0  0  0  0
  4 31  1  0  0  0  0
  6  7  1  0  0  0  0
  7  9  1  1  0  0  0
  7 30  1  0  0  0  0
  8 26  1  0  0  0  0
 10  9  1  1  0  0  0
 10 13  1  0  0  0  0
 10 21  1  0  0  0  0
 13 12  1  1  0  0  0
 13 15  1  0  0  0  0
 15  2  1  1  0  0  0
 15 17  1  0  0  0  0
 16 25  1  0  0  0  0
 16 23  1  0  0  0  0
 17 19  1  0  0  0  0
 19  5  1  6  0  0  0
 19 21  1  0  0  0  0
 21 14  1  6  0  0  0
 23 14  1  6  0  0  0
 23 29  1  0  0  0  0
 25 26  1  1  0  0  0
 25 27  1  0  0  0  0
 27 18  1  6  0  0  0
 27 28  1  0  0  0  0
 28 20  1  6  0  0  0
 28 29  1  0  0  0  0
 29 11  1  6  0  0  0
 30 22  1  6  0  0  0
 30 31  1  0  0  0  0
 31 24  1  6  0  0  0
M  END
>  <CHROM.1>
-59.42066041,-63.86772643,55.98106514,55.76470070,66.47869068,168.81791602
38.19472045,26.95105013,3.76057390,-2.06960424,-0.18110952,-1.40872416

>  <Name>
ligand

>  <RI>
0

>  <Rbt.Current_Directory>
/home/itssahil/PROJECTS/Mol_Feturizer/New_Systems/rnas/2ET5

>  <Rbt.Executable>
rbdock ($Id: //depot/dev/client3/rdock/2013.1/src/exe/rbdock.cxx#4 $)

>  <Rbt.Library>
libRbt.so (2013.1, Build901 2013/11/27)

>  <Rbt.Parameter_File>
/export/apps/rDock/src/rDock_2013.1_src/data/scripts/dock_solv.prm

>  <Rbt.Receptor>
prm/pocket_docking_7.prm

>  <SCORE>
-8.29002

>  <SCORE.INTER>
-2.97124

>  <SCORE.INTER.CONST>
1

>  <SCORE.INTER.POLAR>
0

>  <SCORE.INTER.ROT>
6

>  <SCORE.INTER.SOLV>
11.2633

>  <SCORE.INTER.VDW>
-13.3353

>  <SCORE.INTER.norm>
-0.0958466

>  <SCORE.INTRA>
-5.31877

>  <SCORE.INTRA.DIHEDRAL>
-10.2108

>  <SCORE.INTRA.DIHEDRAL.0>
11.2357

>  <SCORE.INTRA.POLAR>
0

>  <SCORE.INTRA.POLAR.0>
0

>  <SCORE.INTRA.REPUL>
0

>  <SCORE.INTRA.REPUL.0>
0

>  <SCORE.INTRA.SOLV>
-1.79113

>  <SCORE.INTRA.SOLV.lig_0>
-83.3092

>  <SCORE.INTRA.VDW>
0.682195

>  <SCORE.INTRA.VDW.0>
-4.47057

>  <SCORE.INTRA.norm>
-0.171573

>  <SCORE.RESTR>
0

>  <SCORE.RESTR.CAVITY>
0

>  <SCORE.RESTR.norm>
0

>  <SCORE.SYSTEM>
0

>  <SCORE.SYSTEM.CONST>
0

>  <SCORE.SYSTEM.DIHEDRAL>
0

>  <SCORE.SYSTEM.SOLV>
0

>  <SCORE.SYSTEM.norm>
0

>  <SCORE.heavy>
31

>  <SCORE.norm>
-0.26742

>  <RMSD>
7.066

$$$$
ligand
 OpenBabel11021811433D
libRbt.so/2013.1/901 2013/11/27
 31 33  0  0  0  0  0  0  0  0999 V2000
   32.9914   24.6931    4.4851 C   0  0  0  0  0  0  0  0  0  0  0  0
   37.1882   27.9171    8.5519 N   0  0  0  0  0  0  0  0  0  0  0  0
   33.8629   23.5531    4.4621 O   0  0  0  0  0  0  0  0  0  0  0  0
   33.7639   25.7752    3.7352 C   0  0  1  0  0  0  0  0  0  0  0  0
   40.7214   28.4262    4.9484 N   0  0  0  0  0  0  0  0  0  0  0  0
   35.0976   26.1518    4.3545 O   0  0  0  0  0  0  0  0  0  0  0  0
   36.1826   25.6793    3.6535 C   0  0  1  0  0  0  0  0  0  0  0  0
   42.1400   22.7677    2.0122 N   0  0  0  0  0  0  0  0  0  0  0  0
   37.1844   25.0107    4.3683 O   0  0  0  0  0  0  0  0  0  0  0  0
   38.0731   25.6891    5.3712 C   0  0  2  0  0  0  0  0  0  0  0  0
   39.0897   28.4540    2.1335 N   0  0  0  0  0  0  0  0  0  0  0  0
   36.2991   25.4487    7.0995 O   0  0  0  0  0  0  0  0  0  0  0  0
   37.1691   26.4195    6.4080 C   0  0  1  0  0  0  0  0  0  0  0  0
   39.8264   26.0895    3.7598 O   0  0  0  0  0  0  0  0  0  0  0  0
   38.0751   27.1787    7.5014 C   0  0  1  0  0  0  0  0  0  0  0  0
   41.4559   25.5266    2.1187 O   0  0  0  0  0  0  0  0  0  0  0  0
   38.9994   28.2157    6.7263 C   0  0  0  0  0  0  0  0  0  0  0  0
   39.1020   24.3090   -0.4981 O   0  0  0  0  0  0  0  0  0  0  0  0
   39.8690   27.4210    5.6657 C   0  0  1  0  0  0  0  0  0  0  0  0
   38.3126   27.0486   -0.3369 O   0  0  0  0  0  0  0  0  0  0  0  0
   39.0078   26.7535    4.6414 C   0  0  2  0  0  0  0  0  0  0  0  0
   36.4591   24.9460    1.4007 O   0  0  0  0  0  0  0  0  0  0  0  0
   40.6755   26.6576    2.7298 C   0  0  1  0  0  0  0  0  0  0  0  0
   34.3308   26.7125    1.5090 O   0  0  0  0  0  0  0  0  0  0  0  0
   40.6353   24.4916    1.3611 C   0  0  2  0  0  0  0  0  0  0  0  0
   41.5530   23.3982    0.8264 C   0  0  0  0  0  0  0  0  0  0  0  0
   39.8901   25.2205    0.2192 C   0  0  2  0  0  0  0  0  0  0  0  0
   39.0146   26.3338    0.7698 C   0  0  1  0  0  0  0  0  0  0  0  0
   39.9049   27.3143    1.5557 C   0  0  1  0  0  0  0  0  0  0  0  0
   35.6070   24.8928    2.4871 C   0  0  2  0  0  0  0  0  0  0  0  0
   34.1771   25.4899    2.2866 C   0  0  1  0  0  0  0  0  0  0  0  0
  1  3  1  0  0  0  0
  4  1  1  1  0  0  0
  4  6  1  0  0  0  0
  4 31  1  0  0  0  0
  6  7  1  0  0  0  0
  7  9  1  1  0  0  0
  7 30  1  0  0  0  0
  8 26  1  0  0  0  0
 10  9  1  6  0  0  0
 10 13  1  0  0  0  0
 10 21  1  0  0  0  0
 13 12  1  1  0  0  0
 13 15  1  0  0  0  0
 15  2  1  1  0  0  0
 15 17  1  0  0  0  0
 16 25  1  0  0  0  0
 16 23  1  0  0  0  0
 17 19  1  0  0  0  0
 19  5  1  6  0  0  0
 19 21  1  0  0  0  0
 21 14  1  6  0  0  0
 23 14  1  1  0  0  0
 23 29  1  0  0  0  0
 25 26  1  6  0  0  0
 25 27  1  0  0  0  0
 27 18  1  1  0  0  0
 27 28  1  0  0  0  0
 28 20  1  6  0  0  0
 28 29  1  0  0  0  0
 29 11  1  1  0  0  0
 30 22  1  6  0  0  0
 30 31  1  0  0  0  0
 31 24  1  6  0  0  0
M  END
>  <CHROM.1>
-60.41775500,-67.27682135,53.64019599,175.20059392,168.88958712,62.72691290
37.92071116,25.90934077,3.40109736,2.47187177,0.16159027,1.21954337

>  <Name>
ligand

>  <RI>
0

>  <Rbt.Current_Directory>
/home/itssahil/PROJECTS/Mol_Feturizer/New_Systems/rnas/2ET5

>  <Rbt.Executable>
rbdock ($Id: //depot/dev/client3/rdock/2013.1/src/exe/rbdock.cxx#4 $)

>  <Rbt.Library>
libRbt.so (2013.1, Build901 2013/11/27)

>  <Rbt.Parameter_File>
/export/apps/rDock/src/rDock_2013.1_src/data/scripts/dock_solv.prm

>  <Rbt.Receptor>
prm/pocket_docking_8.prm

>  <SCORE>
-6.53755

>  <SCORE.INTER>
-2.7805

>  <SCORE.INTER.CONST>
1

>  <SCORE.INTER.POLAR>
0

>  <SCORE.INTER.ROT>
6

>  <SCORE.INTER.SOLV>
7.5305

>  <SCORE.INTER.VDW>
-11.9638

>  <SCORE.INTER.norm>
-0.0896937

>  <SCORE.INTRA>
-3.75705

>  <SCORE.INTRA.DIHEDRAL>
-9.91403

>  <SCORE.INTRA.DIHEDRAL.0>
11.2357

>  <SCORE.INTRA.POLAR>
0

>  <SCORE.INTRA.POLAR.0>
0

>  <SCORE.INTRA.REPUL>
0

>  <SCORE.INTRA.REPUL.0>
0

>  <SCORE.INTRA.SOLV>
1.11367

>  <SCORE.INTRA.SOLV.lig_0>
-83.3092

>  <SCORE.INTRA.VDW>
0.643136

>  <SCORE.INTRA.VDW.0>
-4.47057

>  <SCORE.INTRA.norm>
-0.121195

>  <SCORE.RESTR>
0

>  <SCORE.RESTR.CAVITY>
0

>  <SCORE.RESTR.norm>
0

>  <SCORE.SYSTEM>
0

>  <SCORE.SYSTEM.CONST>
0

>  <SCORE.SYSTEM.DIHEDRAL>
0

>  <SCORE.SYSTEM.SOLV>
0

>  <SCORE.SYSTEM.norm>
0

>  <SCORE.heavy>
31

>  <SCORE.norm>
-0.210889

>  <RMSD>
7.069

$$$$
ligand
 OpenBabel11021811433D
libRbt.so/2013.1/901 2013/11/27
 31 33  0  0  0  0  0  0  0  0999 V2000
   40.0499   24.2244    6.2508 C   0  0  0  0  0  0  0  0  0  0  0  0
   40.6795   24.2183   -2.2251 N   0  0  0  0  0  0  0  0  0  0  0  0
   39.0059   25.1638    5.9551 O   0  0  0  0  0  0  0  0  0  0  0  0
   41.1097   24.4884    5.1844 C   0  0  1  0  0  0  0  0  0  0  0  0
   35.8630   25.3950   -1.1547 N   0  0  0  0  0  0  0  0  0  0  0  0
   40.6244   24.3434    3.7535 O   0  0  0  0  0  0  0  0  0  0  0  0
   40.4722   25.5441    3.0999 C   0  0  1  0  0  0  0  0  0  0  0  0
   33.7374   23.1025    3.9849 N   0  0  0  0  0  0  0  0  0  0  0  0
   39.2705   25.7713    2.4174 O   0  0  0  0  0  0  0  0  0  0  0  0
   38.8360   24.9680    1.2250 C   0  0  2  0  0  0  0  0  0  0  0  0
   36.0798   28.4162    1.2391 N   0  0  0  0  0  0  0  0  0  0  0  0
   41.2147   24.4433    0.7170 O   0  0  0  0  0  0  0  0  0  0  0  0
   39.9738   25.0182    0.1627 C   0  0  1  0  0  0  0  0  0  0  0  0
   36.5014   25.4989    1.5389 O   0  0  0  0  0  0  0  0  0  0  0  0
   39.5516   24.1821   -1.1470 C   0  0  1  0  0  0  0  0  0  0  0  0
   34.2836   25.3124    2.3827 O   0  0  0  0  0  0  0  0  0  0  0  0
   38.2139   24.8248   -1.7195 C   0  0  0  0  0  0  0  0  0  0  0  0
   34.9156   26.8142    5.7318 O   0  0  0  0  0  0  0  0  0  0  0  0
   37.1062   24.7758   -0.5867 C   0  0  1  0  0  0  0  0  0  0  0  0
   35.4832   29.0536    4.0533 O   0  0  0  0  0  0  0  0  0  0  0  0
   37.5051   25.5870    0.6046 C   0  0  2  0  0  0  0  0  0  0  0  0
   41.3659   27.7215    3.4866 O   0  0  0  0  0  0  0  0  0  0  0  0
   35.1939   26.1268    1.5056 C   0  0  1  0  0  0  0  0  0  0  0  0
   43.0922   25.8446    4.5631 O   0  0  0  0  0  0  0  0  0  0  0  0
   34.6281   25.3052    3.8659 C   0  0  2  0  0  0  0  0  0  0  0  0
   33.6418   24.4203    4.6193 C   0  0  0  0  0  0  0  0  0  0  0  0
   34.5846   26.7663    4.3701 C   0  0  2  0  0  0  0  0  0  0  0  0
   35.5429   27.6398    3.5778 C   0  0  1  0  0  0  0  0  0  0  0  0
   35.1589   27.5630    2.0884 C   0  0  1  0  0  0  0  0  0  0  0  0
   40.8325   26.6141    4.1177 C   0  0  2  0  0  0  0  0  0  0  0  0
   41.7553   25.8783    5.1416 C   0  0  1  0  0  0  0  0  0  0  0  0
  1  3  1  0  0  0  0
  4  1  1  1  0  0  0
  4  6  1  0  0  0  0
  4 31  1  0  0  0  0
  6  7  1  0  0  0  0
  7  9  1  1  0  0  0
  7 30  1  0  0  0  0
  8 26  1  0  0  0  0
 10  9  1  1  0  0  0
 10 13  1  0  0  0  0
 10 21  1  0  0  0  0
 13 12  1  1  0  0  0
 13 15  1  0  0  0  0
 15  2  1  6  0  0  0
 15 17  1  0  0  0  0
 16 25  1  0  0  0  0
 16 23  1  0  0  0  0
 17 19  1  0  0  0  0
 19  5  1  6  0  0  0
 19 21  1  0  0  0  0
 21 14  1  1  0  0  0
 23 14  1  1  0  0  0
 23 29  1  0  0  0  0
 25 26  1  1  0  0  0
 25 27  1  0  0  0  0
 27 18  1  1  0  0  0
 27 28  1  0  0  0  0
 28 20  1  1  0  0  0
 28 29  1  0  0  0  0
 29 11  1  6  0  0  0
 30 22  1  6  0  0  0
 30 31  1  0  0  0  0
 31 24  1  6  0  0  0
M  END
>  <CHROM.1>
-57.80880420,-64.82500826,-54.53760128,156.50784996,168.76029487,57.13349631
37.97048929,25.65852427,2.58901934,-0.07249682,-0.12211250,1.41228341

>  <Name>
ligand

>  <RI>
0

>  <Rbt.Current_Directory>
/home/itssahil/PROJECTS/Mol_Feturizer/New_Systems/rnas/2ET5

>  <Rbt.Executable>
rbdock ($Id: //depot/dev/client3/rdock/2013.1/src/exe/rbdock.cxx#4 $)

>  <Rbt.Library>
libRbt.so (2013.1, Build901 2013/11/27)

>  <Rbt.Parameter_File>
/export/apps/rDock/src/rDock_2013.1_src/data/scripts/dock_solv.prm

>  <Rbt.Receptor>
prm/pocket_docking_8.prm

>  <SCORE>
-5.32505

>  <SCORE.INTER>
-3.12519

>  <SCORE.INTER.CONST>
1

>  <SCORE.INTER.POLAR>
0

>  <SCORE.INTER.ROT>
6

>  <SCORE.INTER.SOLV>
17.4844

>  <SCORE.INTER.VDW>
-15.5116

>  <SCORE.INTER.norm>
-0.100813

>  <SCORE.INTRA>
-2.19986

>  <SCORE.INTRA.DIHEDRAL>
-7.81095

>  <SCORE.INTRA.DIHEDRAL.0>
11.2357

>  <SCORE.INTRA.POLAR>
0

>  <SCORE.INTRA.POLAR.0>
0

>  <SCORE.INTRA.REPUL>
0

>  <SCORE.INTRA.REPUL.0>
0

>  <SCORE.INTRA.SOLV>
-1.23689

>  <SCORE.INTRA.SOLV.lig_0>
-83.3092

>  <SCORE.INTRA.VDW>
2.32406

>  <SCORE.INTRA.VDW.0>
-4.47057

>  <SCORE.INTRA.norm>
-0.0709633

>  <SCORE.RESTR>
0

>  <SCORE.RESTR.CAVITY>
0

>  <SCORE.RESTR.norm>
0

>  <SCORE.SYSTEM>
0

>  <SCORE.SYSTEM.CONST>
0

>  <SCORE.SYSTEM.DIHEDRAL>
0

>  <SCORE.SYSTEM.SOLV>
0

>  <SCORE.SYSTEM.norm>
0

>  <SCORE.heavy>
31

>  <SCORE.norm>
-0.171776

>  <RMSD>
7.070

$$$$
ligand
 OpenBabel11021811433D
libRbt.so/2013.1/901 2013/11/27
 31 33  0  0  0  0  0  0  0  0999 V2000
   41.6229   25.9583    7.3275 C   0  0  0  0  0  0  0  0  0  0  0  0
   41.6902   21.5906    2.5582 N   0  0  0  0  0  0  0  0  0  0  0  0
   42.5930   24.9541    6.9955 O   0  0  0  0  0  0  0  0  0  0  0  0
   41.4967   26.7967    6.0583 C   0  0  1  0  0  0  0  0  0  0  0  0
   39.2675   24.7680   -0.5664 N   0  0  0  0  0  0  0  0  0  0  0  0
   40.9535   26.0511    4.8529 O   0  0  0  0  0  0  0  0  0  0  0  0
   39.6591   26.3901    4.5337 C   0  0  1  0  0  0  0  0  0  0  0  0
   34.1600   24.1401    4.6844 N   0  0  0  0  0  0  0  0  0  0  0  0
   38.7428   25.3524    4.3219 O   0  0  0  0  0  0  0  0  0  0  0  0
   38.8854   24.3394    3.2223 C   0  0  2  0  0  0  0  0  0  0  0  0
   35.8608   26.9183   -0.3082 N   0  0  0  0  0  0  0  0  0  0  0  0
   40.0993   22.8256    4.7801 O   0  0  0  0  0  0  0  0  0  0  0  0
   40.1841   23.5194    3.4805 C   0  0  1  0  0  0  0  0  0  0  0  0
   37.8269   25.7602    1.5817 O   0  0  0  0  0  0  0  0  0  0  0  0
   40.3935   22.4251    2.3180 C   0  0  1  0  0  0  0  0  0  0  0  0
   36.0435   24.6094    2.6588 O   0  0  0  0  0  0  0  0  0  0  0  0
   40.4808   23.2027    0.9331 C   0  0  0  0  0  0  0  0  0  0  0  0
   34.5417   27.5520    4.3784 O   0  0  0  0  0  0  0  0  0  0  0  0
   39.1500   24.0424    0.7417 C   0  0  1  0  0  0  0  0  0  0  0  0
   34.1465   28.2988    1.6507 O   0  0  0  0  0  0  0  0  0  0  0  0
   38.9951   25.0745    1.8128 C   0  0  2  0  0  0  0  0  0  0  0  0
   38.3101   28.2889    5.0479 O   0  0  0  0  0  0  0  0  0  0  0  0
   36.5010   25.2145    1.3604 C   0  0  1  0  0  0  0  0  0  0  0  0
   40.9736   29.0380    5.1313 O   0  0  0  0  0  0  0  0  0  0  0  0
   35.8295   25.5889    3.8049 C   0  0  2  0  0  0  0  0  0  0  0  0
   35.3979   24.8318    5.0554 C   0  0  0  0  0  0  0  0  0  0  0  0
   34.7600   26.6131    3.3600 C   0  0  2  0  0  0  0  0  0  0  0  0
   35.1904   27.3256    2.0886 C   0  0  1  0  0  0  0  0  0  0  0  0
   35.4277   26.2709    0.9920 C   0  0  1  0  0  0  0  0  0  0  0  0
   39.2313   27.4069    5.5796 C   0  0  2  0  0  0  0  0  0  0  0  0
   40.5732   28.0201    6.0939 C   0  0  1  0  0  0  0  0  0  0  0  0
  1  3  1  0  0  0  0
  4  1  1  1  0  0  0
  4  6  1  0  0  0  0
  4 31  1  0  0  0  0
  6  7  1  0  0  0  0
  7  9  1  1  0  0  0
  7 30  1  0  0  0  0
  8 26  1  0  0  0  0
 10  9  1  1  0  0  0
 10 13  1  0  0  0  0
 10 21  1  0  0  0  0
 13 12  1  1  0  0  0
 13 15  1  0  0  0  0
 15  2  1  1  0  0  0
 15 17  1  0  0  0  0
 16 25  1  0  0  0  0
 16 23  1  0  0  0  0
 17 19  1  0  0  0  0
 19  5  1  6  0  0  0
 19 21  1  0  0  0  0
 21 14  1  6  0  0  0
 23 14  1  1  0  0  0
 23 29  1  0  0  0  0
 25 26  1  1  0  0  0
 25 27  1  0  0  0  0
 27 18  1  1  0  0  0
 27 28  1  0  0  0  0
 28 20  1  6  0  0  0
 28 29  1  0  0  0  0
 29 11  1  6  0  0  0
 30 22  1  6  0  0  0
 30 31  1  0  0  0  0
 31 24  1  6  0  0  0
M  END
>  <CHROM.1>
63.69329414,-62.38822568,63.67579587,68.94721133,-66.44185099,-59.15884015
38.35920426,25.61518642,3.47439645,0.23229520,-0.44107453,0.85516987

>  <Name>
ligand

>  <RI>
0

>  <Rbt.Current_Directory>
/home/itssahil/PROJECTS/Mol_Feturizer/New_Systems/rnas/2ET5

>  <Rbt.Executable>
rbdock ($Id: //depot/dev/client3/rdock/2013.1/src/exe/rbdock.cxx#4 $)

>  <Rbt.Library>
libRbt.so (2013.1, Build901 2013/11/27)

>  <Rbt.Parameter_File>
/export/apps/rDock/src/rDock_2013.1_src/data/scripts/dock_solv.prm

>  <Rbt.Receptor>
prm/pocket_docking_7.prm

>  <SCORE>
-8.35397

>  <SCORE.INTER>
-3.3618

>  <SCORE.INTER.CONST>
1

>  <SCORE.INTER.POLAR>
0

>  <SCORE.INTER.ROT>
6

>  <SCORE.INTER.SOLV>
18.5804

>  <SCORE.INTER.VDW>
-16.0347

>  <SCORE.INTER.norm>
-0.108445

>  <SCORE.INTRA>
-4.99216

>  <SCORE.INTRA.DIHEDRAL>
-10.3602

>  <SCORE.INTRA.DIHEDRAL.0>
11.2357

>  <SCORE.INTRA.POLAR>
0

>  <SCORE.INTRA.POLAR.0>
0

>  <SCORE.INTRA.REPUL>
0

>  <SCORE.INTRA.REPUL.0>
0

>  <SCORE.INTRA.SOLV>
-1.29709

>  <SCORE.INTRA.SOLV.lig_0>
-83.3092

>  <SCORE.INTRA.VDW>
0.83647

>  <SCORE.INTRA.VDW.0>
-4.47057

>  <SCORE.INTRA.norm>
-0.161037

>  <SCORE.RESTR>
0

>  <SCORE.RESTR.CAVITY>
0

>  <SCORE.RESTR.norm>
0

>  <SCORE.SYSTEM>
0

>  <SCORE.SYSTEM.CONST>
0

>  <SCORE.SYSTEM.DIHEDRAL>
0

>  <SCORE.SYSTEM.SOLV>
0

>  <SCORE.SYSTEM.norm>
0

>  <SCORE.heavy>
31

>  <SCORE.norm>
-0.269483

>  <RMSD>
7.093

$$$$
ligand
 OpenBabel11021811433D
libRbt.so/2013.1/901 2013/11/27
 31 33  0  0  0  0  0  0  0  0999 V2000
   38.4035   25.6197    7.6323 C   0  0  0  0  0  0  0  0  0  0  0  0
   42.6815   23.9548   -0.0747 N   0  0  0  0  0  0  0  0  0  0  0  0
   37.9053   26.5353    6.6459 O   0  0  0  0  0  0  0  0  0  0  0  0
   39.8205   25.2955    7.1662 C   0  0  1  0  0  0  0  0  0  0  0  0
   37.6770   24.5140   -0.6834 N   0  0  0  0  0  0  0  0  0  0  0  0
   39.9159   24.7311    5.7604 O   0  0  0  0  0  0  0  0  0  0  0  0
   40.4199   25.6231    4.8426 C   0  0  1  0  0  0  0  0  0  0  0  0
   32.6797   24.4913    3.6760 N   0  0  0  0  0  0  0  0  0  0  0  0
   39.7207   25.7927    3.6410 O   0  0  0  0  0  0  0  0  0  0  0  0
   39.7735   24.8047    2.5109 C   0  0  2  0  0  0  0  0  0  0  0  0
   36.8672   27.6988    0.9027 N   0  0  0  0  0  0  0  0  0  0  0  0
   42.2326   24.5863    2.8224 O   0  0  0  0  0  0  0  0  0  0  0  0
   41.1765   24.9040    1.8419 C   0  0  1  0  0  0  0  0  0  0  0  0
   37.4167   25.0140    2.0288 O   0  0  0  0  0  0  0  0  0  0  0  0
   41.2815   23.8725    0.6100 C   0  0  1  0  0  0  0  0  0  0  0  0
   35.0730   24.6993    2.2997 O   0  0  0  0  0  0  0  0  0  0  0  0
   40.1326   24.2403   -0.4268 C   0  0  0  0  0  0  0  0  0  0  0  0
   34.6141   26.9829    5.2058 O   0  0  0  0  0  0  0  0  0  0  0  0
   38.7356   24.1546    0.3173 C   0  0  1  0  0  0  0  0  0  0  0  0
   35.4528   28.8516    3.2162 O   0  0  0  0  0  0  0  0  0  0  0  0
   38.6488   25.1449    1.4346 C   0  0  2  0  0  0  0  0  0  0  0  0
   41.7287   27.6051    5.0624 O   0  0  0  0  0  0  0  0  0  0  0  0
   36.1263   25.4220    1.5061 C   0  0  1  0  0  0  0  0  0  0  0  0
   42.2055   25.9742    7.2476 O   0  0  0  0  0  0  0  0  0  0  0  0
   34.9848   25.0719    3.7735 C   0  0  2  0  0  0  0  0  0  0  0  0
   33.8993   24.2426    4.4500 C   0  0  0  0  0  0  0  0  0  0  0  0
   34.6853   26.5861    3.8628 C   0  0  2  0  0  0  0  0  0  0  0  0
   35.7559   27.3916    3.1457 C   0  0  1  0  0  0  0  0  0  0  0  0
   35.8148   26.9310    1.6774 C   0  0  1  0  0  0  0  0  0  0  0  0
   40.6706   26.9085    5.6142 C   0  0  2  0  0  0  0  0  0  0  0  0
   40.8344   26.4434    7.0969 C   0  0  1  0  0  0  0  0  0  0  0  0
  1  3  1  0  0  0  0
  4  1  1  6  0  0  0
  4  6  1  0  0  0  0
  4 31  1  0  0  0  0
  6  7  1  0  0  0  0
  7  9  1  6  0  0  0
  7 30  1  0  0  0  0
  8 26  1  0  0  0  0
 10  9  1  1  0  0  0
 10 13  1  0  0  0  0
 10 21  1  0  0  0  0
 13 12  1  1  0  0  0
 13 15  1  0  0  0  0
 15  2  1  6  0  0  0
 15 17  1  0  0  0  0
 16 25  1  0  0  0  0
 16 23  1  0  0  0  0
 17 19  1  0  0  0  0
 19  5  1  6  0  0  0
 19 21  1  0  0  0  0
 21 14  1  1  0  0  0
 23 14  1  1  0  0  0
 23 29  1  0  0  0  0
 25 26  1  6  0  0  0
 25 27  1  0  0  0  0
 27 18  1  1  0  0  0
 27 28  1  0  0  0  0
 28 20  1  6  0  0  0
 28 29  1  0  0  0  0
 29 11  1  6  0  0  0
 30 22  1  6  0  0  0
 30 31  1  0  0  0  0
 31 24  1  6  0  0  0
M  END
>  <CHROM.1>
-56.78410183,-76.83087994,-72.03032991,162.73703672,169.34572684,-55.71582804
38.31009240,25.63664690,3.43105214,0.12439064,-0.11960469,1.31888588

>  <Name>
ligand

>  <RI>
0

>  <Rbt.Current_Directory>
/home/itssahil/PROJECTS/Mol_Feturizer/New_Systems/rnas/2ET5

>  <Rbt.Executable>
rbdock ($Id: //depot/dev/client3/rdock/2013.1/src/exe/rbdock.cxx#4 $)

>  <Rbt.Library>
libRbt.so (2013.1, Build901 2013/11/27)

>  <Rbt.Parameter_File>
/export/apps/rDock/src/rDock_2013.1_src/data/scripts/dock_solv.prm

>  <Rbt.Receptor>
prm/pocket_docking_5.prm

>  <SCORE>
-5.11695

>  <SCORE.INTER>
-3.66411

>  <SCORE.INTER.CONST>
1

>  <SCORE.INTER.POLAR>
0

>  <SCORE.INTER.ROT>
6

>  <SCORE.INTER.SOLV>
13.4394

>  <SCORE.INTER.VDW>
-14.5225

>  <SCORE.INTER.norm>
-0.118197

>  <SCORE.INTRA>
-1.45284

>  <SCORE.INTRA.DIHEDRAL>
-7.11743

>  <SCORE.INTRA.DIHEDRAL.0>
11.2357

>  <SCORE.INTRA.POLAR>
0

>  <SCORE.INTRA.POLAR.0>
0

>  <SCORE.INTRA.REPUL>
0

>  <SCORE.INTRA.REPUL.0>
0

>  <SCORE.INTRA.SOLV>
0.965769

>  <SCORE.INTRA.SOLV.lig_0>
-83.3092

>  <SCORE.INTRA.VDW>
1.62299

>  <SCORE.INTRA.VDW.0>
-4.47057

>  <SCORE.INTRA.norm>
-0.0468657

>  <SCORE.RESTR>
0

>  <SCORE.RESTR.CAVITY>
0

>  <SCORE.RESTR.norm>
0

>  <SCORE.SYSTEM>
0

>  <SCORE.SYSTEM.CONST>
0

>  <SCORE.SYSTEM.DIHEDRAL>
0

>  <SCORE.SYSTEM.SOLV>
0

>  <SCORE.SYSTEM.norm>
0

>  <SCORE.heavy>
31

>  <SCORE.norm>
-0.165063

>  <RMSD>
7.098

$$$$
ligand
 OpenBabel11021811433D
libRbt.so/2013.1/901 2013/11/27
 31 33  0  0  0  0  0  0  0  0999 V2000
   33.3598   27.4401    1.3810 C   0  0  0  0  0  0  0  0  0  0  0  0
   35.1806   28.3839    7.5818 N   0  0  0  0  0  0  0  0  0  0  0  0
   33.2124   26.1537    1.9999 O   0  0  0  0  0  0  0  0  0  0  0  0
   34.8694   27.6546    1.3091 C   0  0  1  0  0  0  0  0  0  0  0  0
   39.9140   26.9150    6.5024 N   0  0  0  0  0  0  0  0  0  0  0  0
   35.6156   27.3735    2.6007 O   0  0  0  0  0  0  0  0  0  0  0  0
   36.3448   26.2075    2.5721 C   0  0  1  0  0  0  0  0  0  0  0  0
   40.8564   28.1901    2.2421 N   0  0  0  0  0  0  0  0  0  0  0  0
   36.2006   25.3176    3.6438 O   0  0  0  0  0  0  0  0  0  0  0  0
   36.5989   25.6535    5.0525 C   0  0  2  0  0  0  0  0  0  0  0  0
   39.3341   22.2015    4.1060 N   0  0  0  0  0  0  0  0  0  0  0  0
   34.2721   26.3955    5.5289 O   0  0  0  0  0  0  0  0  0  0  0  0
   35.6873   26.8126    5.5535 C   0  0  1  0  0  0  0  0  0  0  0  0
   38.9150   25.0765    4.6870 O   0  0  0  0  0  0  0  0  0  0  0  0
   36.0837   27.2234    7.0591 C   0  0  1  0  0  0  0  0  0  0  0  0
   39.7391   25.5879    2.5135 O   0  0  0  0  0  0  0  0  0  0  0  0
   37.6112   27.6670    7.0522 C   0  0  0  0  0  0  0  0  0  0  0  0
   43.3357   24.8940    3.1875 O   0  0  0  0  0  0  0  0  0  0  0  0
   38.4834   26.4624    6.5036 C   0  0  1  0  0  0  0  0  0  0  0  0
   42.2317   22.2897    3.5790 O   0  0  0  0  0  0  0  0  0  0  0  0
   38.1213   26.1221    5.0931 C   0  0  2  0  0  0  0  0  0  0  0  0
   37.1853   24.8681    0.7863 O   0  0  0  0  0  0  0  0  0  0  0  0
   39.0629   24.5361    3.3488 C   0  0  1  0  0  0  0  0  0  0  0  0
   36.8959   27.4708   -0.1105 O   0  0  0  0  0  0  0  0  0  0  0  0
   41.1691   25.9285    2.9109 C   0  0  2  0  0  0  0  0  0  0  0  0
   41.7099   27.0236    1.9989 C   0  0  0  0  0  0  0  0  0  0  0  0
   42.0101   24.6350    2.8107 C   0  0  2  0  0  0  0  0  0  0  0  0
   41.4293   23.5433    3.6940 C   0  0  1  0  0  0  0  0  0  0  0  0
   39.9742   23.2849    3.2612 C   0  0  1  0  0  0  0  0  0  0  0  0
   36.0878   25.5960    1.2044 C   0  0  2  0  0  0  0  0  0  0  0  0
   35.6689   26.8081    0.3118 C   0  0  1  0  0  0  0  0  0  0  0  0
  1  3  1  0  0  0  0
  4  1  1  1  0  0  0
  4  6  1  0  0  0  0
  4 31  1  0  0  0  0
  6  7  1  0  0  0  0
  7  9  1  1  0  0  0
  7 30  1  0  0  0  0
  8 26  1  0  0  0  0
 10  9  1  6  0  0  0
 10 13  1  0  0  0  0
 10 21  1  0  0  0  0
 13 12  1  1  0  0  0
 13 15  1  0  0  0  0
 15  2  1  6  0  0  0
 15 17  1  0  0  0  0
 16 25  1  0  0  0  0
 16 23  1  0  0  0  0
 17 19  1  0  0  0  0
 19  5  1  6  0  0  0
 19 21  1  0  0  0  0
 21 14  1  1  0  0  0
 23 14  1  1  0  0  0
 23 29  1  0  0  0  0
 25 26  1  6  0  0  0
 25 27  1  0  0  0  0
 27 18  1  1  0  0  0
 27 28  1  0  0  0  0
 28 20  1  6  0  0  0
 28 29  1  0  0  0  0
 29 11  1  1  0  0  0
 30 22  1  6  0  0  0
 30 31  1  0  0  0  0
 31 24  1  1  0  0  0
M  END
>  <CHROM.1>
-48.14756239,-63.88884672,64.80426178,67.22332260,71.85092522,62.76052201
37.96330869,25.91479024,3.51302094,3.11252395,-0.35145375,1.45696261

>  <Name>
ligand

>  <RI>
0

>  <Rbt.Current_Directory>
/home/itssahil/PROJECTS/Mol_Feturizer/New_Systems/rnas/2ET5

>  <Rbt.Executable>
rbdock ($Id: //depot/dev/client3/rdock/2013.1/src/exe/rbdock.cxx#4 $)

>  <Rbt.Library>
libRbt.so (2013.1, Build901 2013/11/27)

>  <Rbt.Parameter_File>
/export/apps/rDock/src/rDock_2013.1_src/data/scripts/dock_solv.prm

>  <Rbt.Receptor>
prm/pocket_docking_8.prm

>  <SCORE>
-9.19447

>  <SCORE.INTER>
-3.3273

>  <SCORE.INTER.CONST>
1

>  <SCORE.INTER.POLAR>
0

>  <SCORE.INTER.ROT>
6

>  <SCORE.INTER.SOLV>
15.7876

>  <SCORE.INTER.VDW>
-15.0807

>  <SCORE.INTER.norm>
-0.107332

>  <SCORE.INTRA>
-5.86717

>  <SCORE.INTRA.DIHEDRAL>
-9.46404

>  <SCORE.INTRA.DIHEDRAL.0>
11.2357

>  <SCORE.INTRA.POLAR>
0

>  <SCORE.INTRA.POLAR.0>
0

>  <SCORE.INTRA.REPUL>
0

>  <SCORE.INTRA.REPUL.0>
0

>  <SCORE.INTRA.SOLV>
-2.76375

>  <SCORE.INTRA.SOLV.lig_0>
-83.3092

>  <SCORE.INTRA.VDW>
0.246724

>  <SCORE.INTRA.VDW.0>
-4.47057

>  <SCORE.INTRA.norm>
-0.189264

>  <SCORE.RESTR>
0

>  <SCORE.RESTR.CAVITY>
0

>  <SCORE.RESTR.norm>
0

>  <SCORE.SYSTEM>
0

>  <SCORE.SYSTEM.CONST>
0

>  <SCORE.SYSTEM.DIHEDRAL>
0

>  <SCORE.SYSTEM.SOLV>
0

>  <SCORE.SYSTEM.norm>
0

>  <SCORE.heavy>
31

>  <SCORE.norm>
-0.296596

>  <RMSD>
7.104

$$$$
ligand
 OpenBabel11021811433D
libRbt.so/2013.1/901 2013/11/27
 31 33  0  0  0  0  0  0  0  0999 V2000
   40.5878   24.0942    6.0638 C   0  0  0  0  0  0  0  0  0  0  0  0
   41.4676   24.1995   -2.5317 N   0  0  0  0  0  0  0  0  0  0  0  0
   40.1906   22.7320    5.8487 O   0  0  0  0  0  0  0  0  0  0  0  0
   41.6765   24.3398    5.0224 C   0  0  1  0  0  0  0  0  0  0  0  0
   36.5524   24.8103   -1.4377 N   0  0  0  0  0  0  0  0  0  0  0  0
   41.2425   24.1265    3.5836 O   0  0  0  0  0  0  0  0  0  0  0  0
   41.0860   25.2963    2.8771 C   0  0  1  0  0  0  0  0  0  0  0  0
   37.2083   29.2440    0.4307 N   0  0  0  0  0  0  0  0  0  0  0  0
   39.9031   25.4682    2.1473 O   0  0  0  0  0  0  0  0  0  0  0  0
   39.5580   24.6528    0.9341 C   0  0  2  0  0  0  0  0  0  0  0  0
   35.5785   23.8056    3.4912 N   0  0  0  0  0  0  0  0  0  0  0  0
   41.9792   24.4066    0.4160 O   0  0  0  0  0  0  0  0  0  0  0  0
   40.6817   24.8552   -0.1250 C   0  0  1  0  0  0  0  0  0  0  0  0
   37.1795   24.9149    1.2585 O   0  0  0  0  0  0  0  0  0  0  0  0
   40.3522   24.0116   -1.4563 C   0  0  1  0  0  0  0  0  0  0  0  0
   36.9658   27.0730    2.2393 O   0  0  0  0  0  0  0  0  0  0  0  0
   38.9510   24.5174   -2.0139 C   0  0  0  0  0  0  0  0  0  0  0  0
   33.3936   27.6501    1.3577 O   0  0  0  0  0  0  0  0  0  0  0  0
   37.8571   24.3175   -0.8842 C   0  0  1  0  0  0  0  0  0  0  0  0
   33.1326   25.4006    3.0973 O   0  0  0  0  0  0  0  0  0  0  0  0
   38.1660   25.1369    0.3281 C   0  0  2  0  0  0  0  0  0  0  0  0
   41.9187   27.5075    3.2036 O   0  0  0  0  0  0  0  0  0  0  0  0
   36.9761   25.5962    2.5231 C   0  0  1  0  0  0  0  0  0  0  0  0
   43.6487   25.7155    4.4110 O   0  0  0  0  0  0  0  0  0  0  0  0
   35.8090   27.5733    1.3848 C   0  0  2  0  0  0  0  0  0  0  0  0
   35.9476   29.0743    1.1587 C   0  0  0  0  0  0  0  0  0  0  0  0
   34.4928   27.2255    2.1177 C   0  0  2  0  0  0  0  0  0  0  0  0
   34.3947   25.7304    2.3714 C   0  0  1  0  0  0  0  0  0  0  0  0
   35.6156   25.2929    3.2017 C   0  0  1  0  0  0  0  0  0  0  0  0
   41.3888   26.4142    3.8616 C   0  0  2  0  0  0  0  0  0  0  0  0
   42.2928   25.7414    4.9440 C   0  0  1  0  0  0  0  0  0  0  0  0
  1  3  1  0  0  0  0
  4  1  1  1  0  0  0
  4  6  1  0  0  0  0
  4 31  1  0  0  0  0
  6  7  1  0  0  0  0
  7  9  1  1  0  0  0
  7 30  1  0  0  0  0
  8 26  1  0  0  0  0
 10  9  1  1  0  0  0
 10 13  1  0  0  0  0
 10 21  1  0  0  0  0
 13 12  1  1  0  0  0
 13 15  1  0  0  0  0
 15  2  1  6  0  0  0
 15 17  1  0  0  0  0
 16 25  1  0  0  0  0
 16 23  1  0  0  0  0
 17 19  1  0  0  0  0
 19  5  1  6  0  0  0
 19 21  1  0  0  0  0
 21 14  1  1  0  0  0
 23 14  1  6  0  0  0
 23 29  1  0  0  0  0
 25 26  1  1  0  0  0
 25 27  1  0  0  0  0
 27 18  1  6  0  0  0
 27 28  1  0  0  0  0
 28 20  1  1  0  0  0
 28 29  1  0  0  0  0
 29 11  1  6  0  0  0
 30 22  1  6  0  0  0
 30 31  1  0  0  0  0
 31 24  1  6  0  0  0
M  END
>  <CHROM.1>
58.54854416,-67.94868137,-58.86476599,51.89049951,69.35129330,61.96418138
38.60330529,25.51534155,1.96701939,0.25807342,-0.24546416,1.54553172

>  <Name>
ligand

>  <RI>
0

>  <Rbt.Current_Directory>
/home/itssahil/PROJECTS/Mol_Feturizer/New_Systems/rnas/2ET5

>  <Rbt.Executable>
rbdock ($Id: //depot/dev/client3/rdock/2013.1/src/exe/rbdock.cxx#4 $)

>  <Rbt.Library>
libRbt.so (2013.1, Build901 2013/11/27)

>  <Rbt.Parameter_File>
/export/apps/rDock/src/rDock_2013.1_src/data/scripts/dock_solv.prm

>  <Rbt.Receptor>
prm/pocket_docking_8.prm

>  <SCORE>
-7.78595

>  <SCORE.INTER>
-2.46991

>  <SCORE.INTER.CONST>
1

>  <SCORE.INTER.POLAR>
0

>  <SCORE.INTER.ROT>
6

>  <SCORE.INTER.SOLV>
18.9756

>  <SCORE.INTER.VDW>
-15.5718

>  <SCORE.INTER.norm>
-0.0796745

>  <SCORE.INTRA>
-5.31604

>  <SCORE.INTRA.DIHEDRAL>
-10.0277

>  <SCORE.INTRA.DIHEDRAL.0>
11.2357

>  <SCORE.INTRA.POLAR>
0

>  <SCORE.INTRA.POLAR.0>
0

>  <SCORE.INTRA.REPUL>
0

>  <SCORE.INTRA.REPUL.0>
0

>  <SCORE.INTRA.SOLV>
-4.05158

>  <SCORE.INTRA.SOLV.lig_0>
-83.3092

>  <SCORE.INTRA.VDW>
1.72361

>  <SCORE.INTRA.VDW.0>
-4.47057

>  <SCORE.INTRA.norm>
-0.171485

>  <SCORE.RESTR>
0

>  <SCORE.RESTR.CAVITY>
0

>  <SCORE.RESTR.norm>
0

>  <SCORE.SYSTEM>
0

>  <SCORE.SYSTEM.CONST>
0

>  <SCORE.SYSTEM.DIHEDRAL>
0

>  <SCORE.SYSTEM.SOLV>
0

>  <SCORE.SYSTEM.norm>
0

>  <SCORE.heavy>
31

>  <SCORE.norm>
-0.25116

>  <RMSD>
7.113

$$$$
ligand
 OpenBabel11021811433D
libRbt.so/2013.1/901 2013/11/27
 31 33  0  0  0  0  0  0  0  0999 V2000
   43.4182   19.1995    2.3047 C   0  0  0  0  0  0  0  0  0  0  0  0
   40.9194   26.2472    6.3460 N   0  0  0  0  0  0  0  0  0  0  0  0
   42.6440   18.6752    1.2159 O   0  0  0  0  0  0  0  0  0  0  0  0
   44.1218   20.4193    1.7158 C   0  0  1  0  0  0  0  0  0  0  0  0
   39.0453   27.0864    1.7079 N   0  0  0  0  0  0  0  0  0  0  0  0
   43.1939   21.5198    1.2339 O   0  0  0  0  0  0  0  0  0  0  0  0
   43.1779   22.6240    2.0540 C   0  0  1  0  0  0  0  0  0  0  0  0
   35.9674   26.0114   -0.5675 N   0  0  0  0  0  0  0  0  0  0  0  0
   41.9328   23.1326    2.4444 O   0  0  0  0  0  0  0  0  0  0  0  0
   41.7115   24.5695    2.8216 C   0  0  2  0  0  0  0  0  0  0  0  0
   42.3253   24.5944   -1.7381 N   0  0  0  0  0  0  0  0  0  0  0  0
   42.6065   24.1058    5.0966 O   0  0  0  0  0  0  0  0  0  0  0  0
   41.4461   24.6357    4.3548 C   0  0  1  0  0  0  0  0  0  0  0  0
   40.7159   25.1237    0.6926 O   0  0  0  0  0  0  0  0  0  0  0  0
   41.1866   26.1579    4.8110 C   0  0  1  0  0  0  0  0  0  0  0  0
   38.9353   23.8719   -0.2705 O   0  0  0  0  0  0  0  0  0  0  0  0
   39.9328   26.6992    3.9955 C   0  0  0  0  0  0  0  0  0  0  0  0
   37.8833   26.3980   -2.7969 O   0  0  0  0  0  0  0  0  0  0  0  0
   40.2476   26.5765    2.4468 C   0  0  1  0  0  0  0  0  0  0  0  0
   40.5237   25.8228   -3.7197 O   0  0  0  0  0  0  0  0  0  0  0  0
   40.4505   25.1516    2.0405 C   0  0  2  0  0  0  0  0  0  0  0  0
   44.7042   23.4446    3.6930 O   0  0  0  0  0  0  0  0  0  0  0  0
   40.4271   24.0609   -0.2517 C   0  0  1  0  0  0  0  0  0  0  0  0
   46.1013   21.9078    1.8632 O   0  0  0  0  0  0  0  0  0  0  0  0
   38.1276   25.0448   -0.8094 C   0  0  2  0  0  0  0  0  0  0  0  0
   36.6399   24.7206   -0.7399 C   0  0  0  0  0  0  0  0  0  0  0  0
   38.5870   25.3096   -2.2618 C   0  0  2  0  0  0  0  0  0  0  0  0
   40.0800   25.5880   -2.3139 C   0  0  1  0  0  0  0  0  0  0  0  0
   40.8250   24.3803   -1.7157 C   0  0  1  0  0  0  0  0  0  0  0  0
   44.1145   22.2943    3.2049 C   0  0  2  0  0  0  0  0  0  0  0  0
   45.0741   21.2072    2.6228 C   0  0  1  0  0  0  0  0  0  0  0  0
  1  3  1  0  0  0  0
  4  1  1  1  0  0  0
  4  6  1  0  0  0  0
  4 31  1  0  0  0  0
  6  7  1  0  0  0  0
  7  9  1  1  0  0  0
  7 30  1  0  0  0  0
  8 26  1  0  0  0  0
 10  9  1  6  0  0  0
 10 13  1  0  0  0  0
 10 21  1  0  0  0  0
 13 12  1  1  0  0  0
 13 15  1  0  0  0  0
 15  2  1  1  0  0  0
 15 17  1  0  0  0  0
 16 25  1  0  0  0  0
 16 23  1  0  0  0  0
 17 19  1  0  0  0  0
 19  5  1  6  0  0  0
 19 21  1  0  0  0  0
 21 14  1  6  0  0  0
 23 14  1  1  0  0  0
 23 29  1  0  0  0  0
 25 26  1  6  0  0  0
 25 27  1  0  0  0  0
 27 18  1  1  0  0  0
 27 28  1  0  0  0  0
 28 20  1  6  0  0  0
 28 29  1  0  0  0  0
 29 11  1  1  0  0  0
 30 22  1  6  0  0  0
 30 31  1  0  0  0  0
 31 24  1  6  0  0  0
M  END
>  <CHROM.1>
62.21459565,-153.74289460,-109.85683448,61.43808835,90.91475516,150.58105439
41.22213201,24.05034670,1.25680000,-0.29400087,0.77034020,-1.98771152

>  <Name>
ligand

>  <RI>
0

>  <Rbt.Current_Directory>
/home/itssahil/PROJECTS/Mol_Feturizer/New_Systems/rnas/2ET5

>  <Rbt.Executable>
rbdock ($Id: //depot/dev/client3/rdock/2013.1/src/exe/rbdock.cxx#4 $)

>  <Rbt.Library>
libRbt.so (2013.1, Build901 2013/11/27)

>  <Rbt.Parameter_File>
/export/apps/rDock/src/rDock_2013.1_src/data/scripts/dock_solv.prm

>  <Rbt.Receptor>
prm/pocket_docking_3.prm

>  <SCORE>
-1.55232

>  <SCORE.INTER>
-4.07536

>  <SCORE.INTER.CONST>
1

>  <SCORE.INTER.POLAR>
0

>  <SCORE.INTER.ROT>
6

>  <SCORE.INTER.SOLV>
14.216

>  <SCORE.INTER.VDW>
-15.0556

>  <SCORE.INTER.norm>
-0.131463

>  <SCORE.INTRA>
2.51463

>  <SCORE.INTRA.DIHEDRAL>
4.77739

>  <SCORE.INTRA.DIHEDRAL.0>
11.2357

>  <SCORE.INTRA.POLAR>
0

>  <SCORE.INTRA.POLAR.0>
0

>  <SCORE.INTRA.REPUL>
0

>  <SCORE.INTRA.REPUL.0>
0

>  <SCORE.INTRA.SOLV>
-1.26967

>  <SCORE.INTRA.SOLV.lig_0>
-83.3092

>  <SCORE.INTRA.VDW>
0.760773

>  <SCORE.INTRA.VDW.0>
-4.47057

>  <SCORE.INTRA.norm>
0.0811172

>  <SCORE.RESTR>
0.00840771

>  <SCORE.RESTR.CAVITY>
0.00840771

>  <SCORE.RESTR.norm>
0.000271216

>  <SCORE.SYSTEM>
0

>  <SCORE.SYSTEM.CONST>
0

>  <SCORE.SYSTEM.DIHEDRAL>
0

>  <SCORE.SYSTEM.SOLV>
0

>  <SCORE.SYSTEM.norm>
0

>  <SCORE.heavy>
31

>  <SCORE.norm>
-0.0500747

>  <RMSD>
7.114

$$$$
ligand
 OpenBabel11021811433D
libRbt.so/2013.1/901 2013/11/27
 31 33  0  0  0  0  0  0  0  0999 V2000
   45.6122   20.5383    2.6721 C   0  0  0  0  0  0  0  0  0  0  0  0
   42.8200   24.7468    6.9182 N   0  0  0  0  0  0  0  0  0  0  0  0
   46.1573   19.2467    2.3652 O   0  0  0  0  0  0  0  0  0  0  0  0
   44.1071   20.3013    2.7658 C   0  0  1  0  0  0  0  0  0  0  0  0
   38.6167   25.3280    4.1392 N   0  0  0  0  0  0  0  0  0  0  0  0
   43.2963   21.5117    3.1918 O   0  0  0  0  0  0  0  0  0  0  0  0
   42.5764   22.0800    2.1667 C   0  0  1  0  0  0  0  0  0  0  0  0
   35.8851   25.9383   -0.8428 N   0  0  0  0  0  0  0  0  0  0  0  0
   42.6698   23.4662    1.9900 O   0  0  0  0  0  0  0  0  0  0  0  0
   42.1708   24.4606    2.9990 C   0  0  2  0  0  0  0  0  0  0  0  0
   42.3675   25.2579    0.0259 N   0  0  0  0  0  0  0  0  0  0  0  0
   44.2333   24.1197    4.3486 O   0  0  0  0  0  0  0  0  0  0  0  0
   42.7587   24.0802    4.3901 C   0  0  1  0  0  0  0  0  0  0  0  0
   40.0758   24.7945    1.8456 O   0  0  0  0  0  0  0  0  0  0  0  0
   42.2411   25.1094    5.5150 C   0  0  1  0  0  0  0  0  0  0  0  0
   38.8660   23.8770    0.0126 O   0  0  0  0  0  0  0  0  0  0  0  0
   40.6519   25.0437    5.5349 C   0  0  0  0  0  0  0  0  0  0  0  0
   38.1711   27.0799   -1.7563 O   0  0  0  0  0  0  0  0  0  0  0  0
   40.1143   25.4067    4.0886 C   0  0  1  0  0  0  0  0  0  0  0  0
   41.0214   27.0159   -1.9181 O   0  0  0  0  0  0  0  0  0  0  0  0
   40.5794   24.4180    3.0674 C   0  0  2  0  0  0  0  0  0  0  0  0
   41.8380   21.2522    0.0551 O   0  0  0  0  0  0  0  0  0  0  0  0
   40.2409   24.1265    0.5684 C   0  0  1  0  0  0  0  0  0  0  0  0
   42.1585   19.1174    1.7875 O   0  0  0  0  0  0  0  0  0  0  0  0
   38.0631   25.1200   -0.3464 C   0  0  2  0  0  0  0  0  0  0  0  0
   36.6891   24.7131   -0.8661 C   0  0  0  0  0  0  0  0  0  0  0  0
   38.8631   25.9115   -1.4067 C   0  0  2  0  0  0  0  0  0  0  0  0
   40.2445   26.2698   -0.8846 C   0  0  1  0  0  0  0  0  0  0  0  0
   40.9771   24.9698   -0.5042 C   0  0  1  0  0  0  0  0  0  0  0  0
   42.9080   21.2618    0.9293 C   0  0  2  0  0  0  0  0  0  0  0  0
   43.3657   19.8780    1.4924 C   0  0  1  0  0  0  0  0  0  0  0  0
  1  3  1  0  0  0  0
  4  1  1  6  0  0  0
  4  6  1  0  0  0  0
  4 31  1  0  0  0  0
  6  7  1  0  0  0  0
  7  9  1  6  0  0  0
  7 30  1  0  0  0  0
  8 26  1  0  0  0  0
 10  9  1  6  0  0  0
 10 13  1  0  0  0  0
 10 21  1  0  0  0  0
 13 12  1  6  0  0  0
 13 15  1  0  0  0  0
 15  2  1  1  0  0  0
 15 17  1  0  0  0  0
 16 25  1  0  0  0  0
 16 23  1  0  0  0  0
 17 19  1  0  0  0  0
 19  5  1  1  0  0  0
 19 21  1  0  0  0  0
 21 14  1  6  0  0  0
 23 14  1  1  0  0  0
 23 29  1  0  0  0  0
 25 26  1  6  0  0  0
 25 27  1  0  0  0  0
 27 18  1  1  0  0  0
 27 28  1  0  0  0  0
 28 20  1  6  0  0  0
 28 29  1  0  0  0  0
 29 11  1  1  0  0  0
 30 22  1  6  0  0  0
 30 31  1  0  0  0  0
 31 24  1  1  0  0  0
M  END
>  <CHROM.1>
175.50936565,-65.20139052,50.90002782,125.31137483,63.24539154,165.41690655
41.32380483,23.72678070,1.72707935,-0.16143134,0.80330656,-2.03864674

>  <Name>
ligand

>  <RI>
0

>  <Rbt.Current_Directory>
/home/itssahil/PROJECTS/Mol_Feturizer/New_Systems/rnas/2ET5

>  <Rbt.Executable>
rbdock ($Id: //depot/dev/client3/rdock/2013.1/src/exe/rbdock.cxx#4 $)

>  <Rbt.Library>
libRbt.so (2013.1, Build901 2013/11/27)

>  <Rbt.Parameter_File>
/export/apps/rDock/src/rDock_2013.1_src/data/scripts/dock_solv.prm

>  <Rbt.Receptor>
prm/pocket_docking_4.prm

>  <SCORE>
-5.37169

>  <SCORE.INTER>
-5.26241

>  <SCORE.INTER.CONST>
1

>  <SCORE.INTER.POLAR>
0

>  <SCORE.INTER.ROT>
6

>  <SCORE.INTER.SOLV>
19.9766

>  <SCORE.INTER.VDW>
-17.7671

>  <SCORE.INTER.norm>
-0.169755

>  <SCORE.INTRA>
-0.109278

>  <SCORE.INTRA.DIHEDRAL>
-2.71456

>  <SCORE.INTRA.DIHEDRAL.0>
11.2357

>  <SCORE.INTRA.POLAR>
0

>  <SCORE.INTRA.POLAR.0>
0

>  <SCORE.INTRA.REPUL>
0

>  <SCORE.INTRA.REPUL.0>
0

>  <SCORE.INTRA.SOLV>
-0.12789

>  <SCORE.INTRA.SOLV.lig_0>
-83.3092

>  <SCORE.INTRA.VDW>
1.31195

>  <SCORE.INTRA.VDW.0>
-4.47057

>  <SCORE.INTRA.norm>
-0.00352509

>  <SCORE.RESTR>
0

>  <SCORE.RESTR.CAVITY>
0

>  <SCORE.RESTR.norm>
0

>  <SCORE.SYSTEM>
0

>  <SCORE.SYSTEM.CONST>
0

>  <SCORE.SYSTEM.DIHEDRAL>
0

>  <SCORE.SYSTEM.SOLV>
0

>  <SCORE.SYSTEM.norm>
0

>  <SCORE.heavy>
31

>  <SCORE.norm>
-0.17328

>  <RMSD>
7.114

$$$$
ligand
 OpenBabel11021811433D
libRbt.so/2013.1/901 2013/11/27
 31 33  0  0  0  0  0  0  0  0999 V2000
   35.5409   28.6617    2.5074 C   0  0  0  0  0  0  0  0  0  0  0  0
   33.6108   23.8977    4.1276 N   0  0  0  0  0  0  0  0  0  0  0  0
   34.9536   27.3692    2.7171 O   0  0  0  0  0  0  0  0  0  0  0  0
   36.7355   28.3913    1.5963 C   0  0  1  0  0  0  0  0  0  0  0  0
   35.6667   27.8778    6.5068 N   0  0  0  0  0  0  0  0  0  0  0  0
   37.9337   27.7638    2.2853 O   0  0  0  0  0  0  0  0  0  0  0  0
   38.1117   26.4350    1.9772 C   0  0  1  0  0  0  0  0  0  0  0  0
   41.1907   23.2739    4.3797 N   0  0  0  0  0  0  0  0  0  0  0  0
   38.3082   25.5376    3.0343 O   0  0  0  0  0  0  0  0  0  0  0  0
   37.3198   25.3493    4.1494 C   0  0  2  0  0  0  0  0  0  0  0  0
   39.7710   29.1227    6.9941 N   0  0  0  0  0  0  0  0  0  0  0  0
   36.3198   23.4232    2.9320 O   0  0  0  0  0  0  0  0  0  0  0  0
   36.0224   24.7293    3.5511 C   0  0  1  0  0  0  0  0  0  0  0  0
   38.1210   27.2691    5.3755 O   0  0  0  0  0  0  0  0  0  0  0  0
   34.9201   24.5198    4.7059 C   0  0  1  0  0  0  0  0  0  0  0  0
   39.0856   25.4466    6.5644 O   0  0  0  0  0  0  0  0  0  0  0  0
   34.6218   25.9423    5.3523 C   0  0  0  0  0  0  0  0  0  0  0  0
   42.4419   25.5441    4.9530 O   0  0  0  0  0  0  0  0  0  0  0  0
   35.9805   26.5362    5.9127 C   0  0  1  0  0  0  0  0  0  0  0  0
   42.4282   28.0846    6.2569 O   0  0  0  0  0  0  0  0  0  0  0  0
   36.9755   26.7543    4.8177 C   0  0  2  0  0  0  0  0  0  0  0  0
   37.3536   25.0777    0.1683 O   0  0  0  0  0  0  0  0  0  0  0  0
   38.7388   26.9081    6.6375 C   0  0  1  0  0  0  0  0  0  0  0  0
   37.4612   27.7114   -0.6767 O   0  0  0  0  0  0  0  0  0  0  0  0
   40.1454   25.0699    5.5380 C   0  0  2  0  0  0  0  0  0  0  0  0
   40.3692   23.5622    5.5588 C   0  0  0  0  0  0  0  0  0  0  0  0
   41.4382   25.8437    5.8852 C   0  0  2  0  0  0  0  0  0  0  0  0
   41.1832   27.3417    5.9013 C   0  0  1  0  0  0  0  0  0  0  0  0
   40.0747   27.6392    6.9280 C   0  0  1  0  0  0  0  0  0  0  0  0
   36.9667   26.0725    1.0456 C   0  0  2  0  0  0  0  0  0  0  0  0
   36.5359   27.4354    0.4144 C   0  0  1  0  0  0  0  0  0  0  0  0
  1  3  1  0  0  0  0
  4  1  1  1  0  0  0
  4  6  1  0  0  0  0
  4 31  1  0  0  0  0
  6  7  1  0  0  0  0
  7  9  1  1  0  0  0
  7 30  1  0  0  0  0
  8 26  1  0  0  0  0
 10  9  1  6  0  0  0
 10 13  1  0  0  0  0
 10 21  1  0  0  0  0
 13 12  1  1  0  0  0
 13 15  1  0  0  0  0
 15  2  1  6  0  0  0
 15 17  1  0  0  0  0
 16 25  1  0  0  0  0
 16 23  1  0  0  0  0
 17 19  1  0  0  0  0
 19  5  1  6  0  0  0
 19 21  1  0  0  0  0
 21 14  1  1  0  0  0
 23 14  1  6  0  0  0
 23 29  1  0  0  0  0
 25 26  1  1  0  0  0
 25 27  1  0  0  0  0
 27 18  1  6  0  0  0
 27 28  1  0  0  0  0
 28 20  1  1  0  0  0
 28 29  1  0  0  0  0
 29 11  1  6  0  0  0
 30 22  1  6  0  0  0
 30 31  1  0  0  0  0
 31 24  1  6  0  0  0
M  END
>  <CHROM.1>
-75.52923360,58.41956830,65.97100900,60.15026473,-78.91166370,169.17752753
37.96847249,26.27661145,4.09458939,-2.47554123,0.08392804,1.65344054

>  <Name>
ligand

>  <RI>
0

>  <Rbt.Current_Directory>
/home/itssahil/PROJECTS/Mol_Feturizer/New_Systems/rnas/2ET5

>  <Rbt.Executable>
rbdock ($Id: //depot/dev/client3/rdock/2013.1/src/exe/rbdock.cxx#4 $)

>  <Rbt.Library>
libRbt.so (2013.1, Build901 2013/11/27)

>  <Rbt.Parameter_File>
/export/apps/rDock/src/rDock_2013.1_src/data/scripts/dock_solv.prm

>  <Rbt.Receptor>
prm/pocket_docking_5.prm

>  <SCORE>
-7.45038

>  <SCORE.INTER>
-4.87962

>  <SCORE.INTER.CONST>
1

>  <SCORE.INTER.POLAR>
0

>  <SCORE.INTER.ROT>
6

>  <SCORE.INTER.SOLV>
13.4598

>  <SCORE.INTER.VDW>
-15.3397

>  <SCORE.INTER.norm>
-0.157407

>  <SCORE.INTRA>
-2.57076

>  <SCORE.INTRA.DIHEDRAL>
-8.05419

>  <SCORE.INTRA.DIHEDRAL.0>
11.2357

>  <SCORE.INTRA.POLAR>
0

>  <SCORE.INTRA.POLAR.0>
0

>  <SCORE.INTRA.REPUL>
0.0671197

>  <SCORE.INTRA.REPUL.0>
0

>  <SCORE.INTRA.SOLV>
1.1729

>  <SCORE.INTRA.SOLV.lig_0>
-83.3092

>  <SCORE.INTRA.VDW>
0.534282

>  <SCORE.INTRA.VDW.0>
-4.47057

>  <SCORE.INTRA.norm>
-0.0829279

>  <SCORE.RESTR>
0

>  <SCORE.RESTR.CAVITY>
0

>  <SCORE.RESTR.norm>
0

>  <SCORE.SYSTEM>
0

>  <SCORE.SYSTEM.CONST>
0

>  <SCORE.SYSTEM.DIHEDRAL>
0

>  <SCORE.SYSTEM.SOLV>
0

>  <SCORE.SYSTEM.norm>
0

>  <SCORE.heavy>
31

>  <SCORE.norm>
-0.240335

>  <RMSD>
7.118

$$$$
ligand
 OpenBabel11021811433D
libRbt.so/2013.1/901 2013/11/27
 31 33  0  0  0  0  0  0  0  0999 V2000
   36.9865   25.9823    7.3212 C   0  0  0  0  0  0  0  0  0  0  0  0
   41.8398   21.7546    1.4444 N   0  0  0  0  0  0  0  0  0  0  0  0
   37.8666   27.0271    7.7611 O   0  0  0  0  0  0  0  0  0  0  0  0
   36.4428   26.4830    5.9856 C   0  0  1  0  0  0  0  0  0  0  0  0
   38.7320   24.6235   -1.3555 N   0  0  0  0  0  0  0  0  0  0  0  0
   37.4931   26.7038    4.9121 O   0  0  0  0  0  0  0  0  0  0  0  0
   37.4770   25.7487    3.9222 C   0  0  1  0  0  0  0  0  0  0  0  0
   33.1190   25.8689    2.0982 N   0  0  0  0  0  0  0  0  0  0  0  0
   38.6932   25.1521    3.5671 O   0  0  0  0  0  0  0  0  0  0  0  0
   38.8281   24.1604    2.4472 C   0  0  2  0  0  0  0  0  0  0  0  0
   38.9692   27.6899   -0.2287 N   0  0  0  0  0  0  0  0  0  0  0  0
   40.3754   22.8007    3.8432 O   0  0  0  0  0  0  0  0  0  0  0  0
   40.2336   23.4973    2.5500 C   0  0  1  0  0  0  0  0  0  0  0  0
   37.4357   25.4457    0.9505 O   0  0  0  0  0  0  0  0  0  0  0  0
   40.4367   22.4325    1.3594 C   0  0  1  0  0  0  0  0  0  0  0  0
   35.4350   26.4482    0.1397 O   0  0  0  0  0  0  0  0  0  0  0  0
   40.2781   23.2124   -0.0179 C   0  0  0  0  0  0  0  0  0  0  0  0
   35.2663   29.2411    2.5978 O   0  0  0  0  0  0  0  0  0  0  0  0
   38.8462   23.8916   -0.0506 C   0  0  1  0  0  0  0  0  0  0  0  0
   37.6918   29.9003    1.2425 O   0  0  0  0  0  0  0  0  0  0  0  0
   38.6938   24.9007    1.0425 C   0  0  2  0  0  0  0  0  0  0  0  0
   35.8126   24.2050    3.1901 O   0  0  0  0  0  0  0  0  0  0  0  0
   36.9173   26.3242   -0.0812 C   0  0  1  0  0  0  0  0  0  0  0  0
   34.5608   26.3720    4.3728 O   0  0  0  0  0  0  0  0  0  0  0  0
   35.0150   27.1406    1.4292 C   0  0  2  0  0  0  0  0  0  0  0  0
   33.4941   27.1660    1.5281 C   0  0  0  0  0  0  0  0  0  0  0  0
   35.6103   28.5675    1.4170 C   0  0  2  0  0  0  0  0  0  0  0  0
   37.1224   28.5207    1.2746 C   0  0  1  0  0  0  0  0  0  0  0  0
   37.4694   27.7718   -0.0255 C   0  0  1  0  0  0  0  0  0  0  0  0
   36.3836   24.7686    4.3150 C   0  0  2  0  0  0  0  0  0  0  0  0
   35.4368   25.5971    5.2417 C   0  0  1  0  0  0  0  0  0  0  0  0
  1  3  1  0  0  0  0
  4  1  1  1  0  0  0
  4  6  1  0  0  0  0
  4 31  1  0  0  0  0
  6  7  1  0  0  0  0
  7  9  1  1  0  0  0
  7 30  1  0  0  0  0
  8 26  1  0  0  0  0
 10  9  1  1  0  0  0
 10 13  1  0  0  0  0
 10 21  1  0  0  0  0
 13 12  1  1  0  0  0
 13 15  1  0  0  0  0
 15  2  1  6  0  0  0
 15 17  1  0  0  0  0
 16 25  1  0  0  0  0
 16 23  1  0  0  0  0
 17 19  1  0  0  0  0
 19  5  1  6  0  0  0
 19 21  1  0  0  0  0
 21 14  1  1  0  0  0
 23 14  1  1  0  0  0
 23 29  1  0  0  0  0
 25 26  1  6  0  0  0
 25 27  1  0  0  0  0
 27 18  1  1  0  0  0
 27 28  1  0  0  0  0
 28 20  1  6  0  0  0
 28 29  1  0  0  0  0
 29 11  1  1  0  0  0
 30 22  1  6  0  0  0
 30 31  1  0  0  0  0
 31 24  1  6  0  0  0
M  END
>  <CHROM.1>
61.65063096,-176.08789800,-167.95107581,170.38524259,172.86553793,84.17105513
37.36781679,25.81427109,2.43854892,-2.89903627,0.75396437,-1.39499588

>  <Name>
ligand

>  <RI>
0

>  <Rbt.Current_Directory>
/home/itssahil/PROJECTS/Mol_Feturizer/New_Systems/rnas/2ET5

>  <Rbt.Executable>
rbdock ($Id: //depot/dev/client3/rdock/2013.1/src/exe/rbdock.cxx#4 $)

>  <Rbt.Library>
libRbt.so (2013.1, Build901 2013/11/27)

>  <Rbt.Parameter_File>
/export/apps/rDock/src/rDock_2013.1_src/data/scripts/dock_solv.prm

>  <Rbt.Receptor>
prm/pocket_docking_6.prm

>  <SCORE>
-10.2835

>  <SCORE.INTER>
-7.41351

>  <SCORE.INTER.CONST>
1

>  <SCORE.INTER.POLAR>
0

>  <SCORE.INTER.ROT>
6

>  <SCORE.INTER.SOLV>
14.8848

>  <SCORE.INTER.VDW>
-17.504

>  <SCORE.INTER.norm>
-0.239146

>  <SCORE.INTRA>
-2.86994

>  <SCORE.INTRA.DIHEDRAL>
-7.77788

>  <SCORE.INTRA.DIHEDRAL.0>
11.2357

>  <SCORE.INTRA.POLAR>
0

>  <SCORE.INTRA.POLAR.0>
0

>  <SCORE.INTRA.REPUL>
0

>  <SCORE.INTRA.REPUL.0>
0

>  <SCORE.INTRA.SOLV>
3.11229

>  <SCORE.INTRA.SOLV.lig_0>
-83.3092

>  <SCORE.INTRA.VDW>
-0.537144

>  <SCORE.INTRA.VDW.0>
-4.47057

>  <SCORE.INTRA.norm>
-0.0925787

>  <SCORE.RESTR>
0

>  <SCORE.RESTR.CAVITY>
0

>  <SCORE.RESTR.norm>
0

>  <SCORE.SYSTEM>
0

>  <SCORE.SYSTEM.CONST>
0

>  <SCORE.SYSTEM.DIHEDRAL>
0

>  <SCORE.SYSTEM.SOLV>
0

>  <SCORE.SYSTEM.norm>
0

>  <SCORE.heavy>
31

>  <SCORE.norm>
-0.331724

>  <RMSD>
7.128

$$$$
ligand
 OpenBabel11021811433D
libRbt.so/2013.1/901 2013/11/27
 31 33  0  0  0  0  0  0  0  0999 V2000
   40.4579   23.6381    5.8265 C   0  0  0  0  0  0  0  0  0  0  0  0
   41.4152   24.9659   -2.6882 N   0  0  0  0  0  0  0  0  0  0  0  0
   39.3926   24.5671    5.5786 O   0  0  0  0  0  0  0  0  0  0  0  0
   41.5716   24.0781    4.8797 C   0  0  1  0  0  0  0  0  0  0  0  0
   36.4924   24.9929   -1.4662 N   0  0  0  0  0  0  0  0  0  0  0  0
   41.2007   24.0618    3.4079 O   0  0  0  0  0  0  0  0  0  0  0  0
   41.0164   25.3157    2.8732 C   0  0  1  0  0  0  0  0  0  0  0  0
   35.2741   29.1874    2.9860 N   0  0  0  0  0  0  0  0  0  0  0  0
   39.8543   25.5455    2.1261 O   0  0  0  0  0  0  0  0  0  0  0  0
   39.5553   24.8448    0.8317 C   0  0  2  0  0  0  0  0  0  0  0  0
   35.9175   23.2759    3.3915 N   0  0  0  0  0  0  0  0  0  0  0  0
   41.9760   24.8832    0.2566 O   0  0  0  0  0  0  0  0  0  0  0  0
   40.6308   25.2689   -0.2118 C   0  0  1  0  0  0  0  0  0  0  0  0
   37.1713   24.8480    1.2156 O   0  0  0  0  0  0  0  0  0  0  0  0
   40.3472   24.5552   -1.6270 C   0  0  1  0  0  0  0  0  0  0  0  0
   36.6594   26.8360    2.4203 O   0  0  0  0  0  0  0  0  0  0  0  0
   38.8932   24.9897   -2.1040 C   0  0  0  0  0  0  0  0  0  0  0  0
   32.9941   26.8674    1.7605 O   0  0  0  0  0  0  0  0  0  0  0  0
   37.8489   24.5629   -0.9905 C   0  0  1  0  0  0  0  0  0  0  0  0
   33.2197   24.4545    3.2709 O   0  0  0  0  0  0  0  0  0  0  0  0
   38.1115   25.2643    0.3040 C   0  0  2  0  0  0  0  0  0  0  0  0
   41.7338   27.4864    3.5537 O   0  0  0  0  0  0  0  0  0  0  0  0
   36.9340   25.3632    2.5509 C   0  0  1  0  0  0  0  0  0  0  0  0
   43.4992   25.6071    4.5604 O   0  0  0  0  0  0  0  0  0  0  0  0
   35.3854   27.2065    1.6732 C   0  0  2  0  0  0  0  0  0  0  0  0
   35.2567   28.7234    1.5958 C   0  0  0  0  0  0  0  0  0  0  0  0
   34.1930   26.5700    2.4240 C   0  0  2  0  0  0  0  0  0  0  0  0
   34.3622   25.0634    2.5276 C   0  0  1  0  0  0  0  0  0  0  0  0
   35.6873   24.7677    3.2542 C   0  0  1  0  0  0  0  0  0  0  0  0
   41.2312   26.2876    4.0221 C   0  0  2  0  0  0  0  0  0  0  0  0
   42.1250   25.4996    5.0328 C   0  0  1  0  0  0  0  0  0  0  0  0
  1  3  1  0  0  0  0
  4  1  1  1  0  0  0
  4  6  1  0  0  0  0
  4 31  1  0  0  0  0
  6  7  1  0  0  0  0
  7  9  1  1  0  0  0
  7 30  1  0  0  0  0
  8 26  1  0  0  0  0
 10  9  1  1  0  0  0
 10 13  1  0  0  0  0
 10 21  1  0  0  0  0
 13 12  1  1  0  0  0
 13 15  1  0  0  0  0
 15  2  1  6  0  0  0
 15 17  1  0  0  0  0
 16 25  1  0  0  0  0
 16 23  1  0  0  0  0
 17 19  1  0  0  0  0
 19  5  1  6  0  0  0
 19 21  1  0  0  0  0
 21 14  1  1  0  0  0
 23 14  1  6  0  0  0
 23 29  1  0  0  0  0
 25 26  1  1  0  0  0
 25 27  1  0  0  0  0
 27 18  1  6  0  0  0
 27 28  1  0  0  0  0
 28 20  1  1  0  0  0
 28 29  1  0  0  0  0
 29 11  1  6  0  0  0
 30 22  1  6  0  0  0
 30 31  1  0  0  0  0
 31 24  1  6  0  0  0
M  END
>  <CHROM.1>
-59.51360079,-64.30993503,-64.45790019,56.78267927,69.61416622,-57.46049490
38.41383628,25.47670576,2.07719464,0.13796967,-0.15668010,1.53723177

>  <Name>
ligand

>  <RI>
0

>  <Rbt.Current_Directory>
/home/itssahil/PROJECTS/Mol_Feturizer/New_Systems/rnas/2ET5

>  <Rbt.Executable>
rbdock ($Id: //depot/dev/client3/rdock/2013.1/src/exe/rbdock.cxx#4 $)

>  <Rbt.Library>
libRbt.so (2013.1, Build901 2013/11/27)

>  <Rbt.Parameter_File>
/export/apps/rDock/src/rDock_2013.1_src/data/scripts/dock_solv.prm

>  <Rbt.Receptor>
prm/pocket_docking_7.prm

>  <SCORE>
-6.09247

>  <SCORE.INTER>
-1.38965

>  <SCORE.INTER.CONST>
1

>  <SCORE.INTER.POLAR>
0

>  <SCORE.INTER.ROT>
6

>  <SCORE.INTER.SOLV>
20.0105

>  <SCORE.INTER.VDW>
-15.1966

>  <SCORE.INTER.norm>
-0.0448276

>  <SCORE.INTRA>
-4.70282

>  <SCORE.INTRA.DIHEDRAL>
-10.3865

>  <SCORE.INTRA.DIHEDRAL.0>
11.2357

>  <SCORE.INTRA.POLAR>
0

>  <SCORE.INTRA.POLAR.0>
0

>  <SCORE.INTRA.REPUL>
0

>  <SCORE.INTRA.REPUL.0>
0

>  <SCORE.INTRA.SOLV>
-2.05767

>  <SCORE.INTRA.SOLV.lig_0>
-83.3092

>  <SCORE.INTRA.VDW>
1.51924

>  <SCORE.INTRA.VDW.0>
-4.47057

>  <SCORE.INTRA.norm>
-0.151704

>  <SCORE.RESTR>
0

>  <SCORE.RESTR.CAVITY>
0

>  <SCORE.RESTR.norm>
0

>  <SCORE.SYSTEM>
0

>  <SCORE.SYSTEM.CONST>
0

>  <SCORE.SYSTEM.DIHEDRAL>
0

>  <SCORE.SYSTEM.SOLV>
0

>  <SCORE.SYSTEM.norm>
0

>  <SCORE.heavy>
31

>  <SCORE.norm>
-0.196531

>  <RMSD>
7.133

$$$$
ligand
 OpenBabel11021811433D
libRbt.so/2013.1/901 2013/11/27
 31 33  0  0  0  0  0  0  0  0999 V2000
   38.8892   26.2717    7.3736 C   0  0  0  0  0  0  0  0  0  0  0  0
   42.0378   21.4476    0.9479 N   0  0  0  0  0  0  0  0  0  0  0  0
   38.8726   27.2008    6.2799 O   0  0  0  0  0  0  0  0  0  0  0  0
   40.1417   25.4317    7.1375 C   0  0  1  0  0  0  0  0  0  0  0  0
   38.6145   24.7381   -0.8360 N   0  0  0  0  0  0  0  0  0  0  0  0
   40.1907   24.7230    5.7961 O   0  0  0  0  0  0  0  0  0  0  0  0
   41.0806   25.2839    4.9098 C   0  0  1  0  0  0  0  0  0  0  0  0
   39.6424   29.9471   -1.3470 N   0  0  0  0  0  0  0  0  0  0  0  0
   40.6301   25.5552    3.6117 O   0  0  0  0  0  0  0  0  0  0  0  0
   40.1357   24.4926    2.6725 C   0  0  2  0  0  0  0  0  0  0  0  0
   36.1351   26.7875    3.2207 N   0  0  0  0  0  0  0  0  0  0  0  0
   41.8527   22.9215    3.5531 O   0  0  0  0  0  0  0  0  0  0  0  0
   41.3294   23.5539    2.3268 C   0  0  1  0  0  0  0  0  0  0  0  0
   38.5055   25.9523    1.6515 O   0  0  0  0  0  0  0  0  0  0  0  0
   40.8559   22.4013    1.3071 C   0  0  1  0  0  0  0  0  0  0  0  0
   39.3904   28.1469    1.9079 O   0  0  0  0  0  0  0  0  0  0  0  0
   40.2983   23.1136   -0.0014 C   0  0  0  0  0  0  0  0  0  0  0  0
   37.1056   29.8682   -0.4771 O   0  0  0  0  0  0  0  0  0  0  0  0
   39.1114   24.0776    0.4164 C   0  0  1  0  0  0  0  0  0  0  0  0
   35.2262   28.9876    1.4842 O   0  0  0  0  0  0  0  0  0  0  0  0
   39.5823   25.1595    1.3353 C   0  0  2  0  0  0  0  0  0  0  0  0
   42.9742   26.7051    5.1992 O   0  0  0  0  0  0  0  0  0  0  0  0
   38.4786   27.1171    2.5159 C   0  0  1  0  0  0  0  0  0  0  0  0
   42.5861   25.2517    7.5228 O   0  0  0  0  0  0  0  0  0  0  0  0
   38.9521   28.7038    0.5602 C   0  0  2  0  0  0  0  0  0  0  0  0
   39.9829   29.7084    0.0585 C   0  0  0  0  0  0  0  0  0  0  0  0
   37.5626   29.3561    0.7457 C   0  0  2  0  0  0  0  0  0  0  0  0
   36.5612   28.3493    1.2869 C   0  0  1  0  0  0  0  0  0  0  0  0
   37.0915   27.8011    2.6247 C   0  0  1  0  0  0  0  0  0  0  0  0
   41.6818   26.4785    5.6323 C   0  0  2  0  0  0  0  0  0  0  0  0
   41.4984   26.1458    7.1479 C   0  0  1  0  0  0  0  0  0  0  0  0
  1  3  1  0  0  0  0
  4  1  1  6  0  0  0
  4  6  1  0  0  0  0
  4 31  1  0  0  0  0
  6  7  1  0  0  0  0
  7  9  1  6  0  0  0
  7 30  1  0  0  0  0
  8 26  1  0  0  0  0
 10  9  1  1  0  0  0
 10 13  1  0  0  0  0
 10 21  1  0  0  0  0
 13 12  1  1  0  0  0
 13 15  1  0  0  0  0
 15  2  1  6  0  0  0
 15 17  1  0  0  0  0
 16 25  1  0  0  0  0
 16 23  1  0  0  0  0
 17 19  1  0  0  0  0
 19  5  1  6  0  0  0
 19 21  1  0  0  0  0
 21 14  1  1  0  0  0
 23 14  1  6  0  0  0
 23 29  1  0  0  0  0
 25 26  1  1  0  0  0
 25 27  1  0  0  0  0
 27 18  1  6  0  0  0
 27 28  1  0  0  0  0
 28 20  1  1  0  0  0
 28 29  1  0  0  0  0
 29 11  1  6  0  0  0
 30 22  1  1  0  0  0
 30 31  1  0  0  0  0
 31 24  1  6  0  0  0
M  END
>  <CHROM.1>
-57.30266569,-61.26386042,-65.51748918,61.76391373,61.66112321,167.35620725
39.58765498,26.20391574,2.82789782,0.47672511,-0.97222476,1.19480852

>  <Name>
ligand

>  <RI>
0

>  <Rbt.Current_Directory>
/home/itssahil/PROJECTS/Mol_Feturizer/New_Systems/rnas/2ET5

>  <Rbt.Executable>
rbdock ($Id: //depot/dev/client3/rdock/2013.1/src/exe/rbdock.cxx#4 $)

>  <Rbt.Library>
libRbt.so (2013.1, Build901 2013/11/27)

>  <Rbt.Parameter_File>
/export/apps/rDock/src/rDock_2013.1_src/data/scripts/dock_solv.prm

>  <Rbt.Receptor>
prm/pocket_docking_7.prm

>  <SCORE>
-7.69356

>  <SCORE.INTER>
-2.84899

>  <SCORE.INTER.CONST>
1

>  <SCORE.INTER.POLAR>
0

>  <SCORE.INTER.ROT>
6

>  <SCORE.INTER.SOLV>
10.9343

>  <SCORE.INTER.VDW>
-13.1441

>  <SCORE.INTER.norm>
-0.091903

>  <SCORE.INTRA>
-4.84457

>  <SCORE.INTRA.DIHEDRAL>
-10.3246

>  <SCORE.INTRA.DIHEDRAL.0>
11.2357

>  <SCORE.INTRA.POLAR>
0

>  <SCORE.INTRA.POLAR.0>
0

>  <SCORE.INTRA.REPUL>
0

>  <SCORE.INTRA.REPUL.0>
0

>  <SCORE.INTRA.SOLV>
-2.66

>  <SCORE.INTRA.SOLV.lig_0>
-83.3092

>  <SCORE.INTRA.VDW>
1.64775

>  <SCORE.INTRA.VDW.0>
-4.47057

>  <SCORE.INTRA.norm>
-0.156276

>  <SCORE.RESTR>
0

>  <SCORE.RESTR.CAVITY>
0

>  <SCORE.RESTR.norm>
0

>  <SCORE.SYSTEM>
0

>  <SCORE.SYSTEM.CONST>
0

>  <SCORE.SYSTEM.DIHEDRAL>
0

>  <SCORE.SYSTEM.SOLV>
0

>  <SCORE.SYSTEM.norm>
0

>  <SCORE.heavy>
31

>  <SCORE.norm>
-0.248179

>  <RMSD>
7.144

$$$$
ligand
 OpenBabel11021811433D
libRbt.so/2013.1/901 2013/11/27
 31 33  0  0  0  0  0  0  0  0999 V2000
   43.5770   23.6402    3.7812 C   0  0  0  0  0  0  0  0  0  0  0  0
   40.8151   23.5692   -1.2525 N   0  0  0  0  0  0  0  0  0  0  0  0
   44.7884   23.9207    4.4978 O   0  0  0  0  0  0  0  0  0  0  0  0
   42.6030   24.7190    4.2477 C   0  0  1  0  0  0  0  0  0  0  0  0
   36.8825   26.2429    0.5123 N   0  0  0  0  0  0  0  0  0  0  0  0
   41.2822   24.7517    3.5005 O   0  0  0  0  0  0  0  0  0  0  0  0
   40.2233   24.2690    4.2338 C   0  0  1  0  0  0  0  0  0  0  0  0
   37.9791   28.4465    6.2421 N   0  0  0  0  0  0  0  0  0  0  0  0
   39.3851   23.3230    3.6305 O   0  0  0  0  0  0  0  0  0  0  0  0
   38.8748   23.4528    2.2239 C   0  0  2  0  0  0  0  0  0  0  0  0
   34.7944   23.7065    4.5366 N   0  0  0  0  0  0  0  0  0  0  0  0
   40.8377   22.1659    1.3976 O   0  0  0  0  0  0  0  0  0  0  0  0
   40.0968   23.4345    1.2585 C   0  0  1  0  0  0  0  0  0  0  0  0
   36.9895   24.8109    2.8812 O   0  0  0  0  0  0  0  0  0  0  0  0
   39.6050   23.5864   -0.2671 C   0  0  1  0  0  0  0  0  0  0  0  0
   37.6682   26.1286    4.7435 O   0  0  0  0  0  0  0  0  0  0  0  0
   38.8116   24.9601   -0.3841 C   0  0  0  0  0  0  0  0  0  0  0  0
   34.8983   28.6147    4.6082 O   0  0  0  0  0  0  0  0  0  0  0  0
   37.6035   24.9334    0.6418 C   0  0  1  0  0  0  0  0  0  0  0  0
   33.4215   26.2358    5.1688 O   0  0  0  0  0  0  0  0  0  0  0  0
   38.0861   24.8268    2.0533 C   0  0  2  0  0  0  0  0  0  0  0  0
   39.8777   23.9733    6.5753 O   0  0  0  0  0  0  0  0  0  0  0  0
   36.9653   24.8648    4.3308 C   0  0  1  0  0  0  0  0  0  0  0  0
   41.7369   25.9885    6.1955 O   0  0  0  0  0  0  0  0  0  0  0  0
   36.9856   27.4273    4.3358 C   0  0  2  0  0  0  0  0  0  0  0  0
   37.8234   28.6152    4.7945 C   0  0  0  0  0  0  0  0  0  0  0  0
   35.5766   27.4427    4.9723 C   0  0  2  0  0  0  0  0  0  0  0  0
   34.7737   26.2284    4.5364 C   0  0  1  0  0  0  0  0  0  0  0  0
   35.5444   24.9590    4.9438 C   0  0  1  0  0  0  0  0  0  0  0  0
   40.8112   23.8335    5.5662 C   0  0  2  0  0  0  0  0  0  0  0  0
   42.1222   24.6726    5.7027 C   0  0  1  0  0  0  0  0  0  0  0  0
  1  3  1  0  0  0  0
  4  1  1  6  0  0  0
  4  6  1  0  0  0  0
  4 31  1  0  0  0  0
  6  7  1  0  0  0  0
  7  9  1  6  0  0  0
  7 30  1  0  0  0  0
  8 26  1  0  0  0  0
 10  9  1  1  0  0  0
 10 13  1  0  0  0  0
 10 21  1  0  0  0  0
 13 12  1  6  0  0  0
 13 15  1  0  0  0  0
 15  2  1  6  0  0  0
 15 17  1  0  0  0  0
 16 25  1  0  0  0  0
 16 23  1  0  0  0  0
 17 19  1  0  0  0  0
 19  5  1  1  0  0  0
 19 21  1  0  0  0  0
 21 14  1  1  0  0  0
 23 14  1  6  0  0  0
 23 29  1  0  0  0  0
 25 26  1  1  0  0  0
 25 27  1  0  0  0  0
 27 18  1  6  0  0  0
 27 28  1  0  0  0  0
 28 20  1  1  0  0  0
 28 29  1  0  0  0  0
 29 11  1  6  0  0  0
 30 22  1  1  0  0  0
 30 31  1  0  0  0  0
 31 24  1  6  0  0  0
M  END
>  <CHROM.1>
172.65536287,-44.75026679,62.54022926,57.87141472,69.32384692,-56.56345902
38.77744237,25.09000816,3.59184663,-0.34029563,-0.31234949,1.17920411

>  <Name>
ligand

>  <RI>
0

>  <Rbt.Current_Directory>
/home/itssahil/PROJECTS/Mol_Feturizer/New_Systems/rnas/2ET5

>  <Rbt.Executable>
rbdock ($Id: //depot/dev/client3/rdock/2013.1/src/exe/rbdock.cxx#4 $)

>  <Rbt.Library>
libRbt.so (2013.1, Build901 2013/11/27)

>  <Rbt.Parameter_File>
/export/apps/rDock/src/rDock_2013.1_src/data/scripts/dock_solv.prm

>  <Rbt.Receptor>
prm/pocket_docking_7.prm

>  <SCORE>
-8.86819

>  <SCORE.INTER>
-4.06367

>  <SCORE.INTER.CONST>
1

>  <SCORE.INTER.POLAR>
0

>  <SCORE.INTER.ROT>
6

>  <SCORE.INTER.SOLV>
14.8824

>  <SCORE.INTER.VDW>
-15.2699

>  <SCORE.INTER.norm>
-0.131086

>  <SCORE.INTRA>
-4.80451

>  <SCORE.INTRA.DIHEDRAL>
-9.32602

>  <SCORE.INTRA.DIHEDRAL.0>
11.2357

>  <SCORE.INTRA.POLAR>
0

>  <SCORE.INTRA.POLAR.0>
0

>  <SCORE.INTRA.REPUL>
0

>  <SCORE.INTRA.REPUL.0>
0

>  <SCORE.INTRA.SOLV>
-2.14931

>  <SCORE.INTRA.SOLV.lig_0>
-83.3092

>  <SCORE.INTRA.VDW>
0.933152

>  <SCORE.INTRA.VDW.0>
-4.47057

>  <SCORE.INTRA.norm>
-0.154984

>  <SCORE.RESTR>
0

>  <SCORE.RESTR.CAVITY>
0

>  <SCORE.RESTR.norm>
0

>  <SCORE.SYSTEM>
0

>  <SCORE.SYSTEM.CONST>
0

>  <SCORE.SYSTEM.DIHEDRAL>
0

>  <SCORE.SYSTEM.SOLV>
0

>  <SCORE.SYSTEM.norm>
0

>  <SCORE.heavy>
31

>  <SCORE.norm>
-0.286071

>  <RMSD>
7.164

$$$$
ligand
 OpenBabel11021811433D
libRbt.so/2013.1/901 2013/11/27
 31 33  0  0  0  0  0  0  0  0999 V2000
   45.6140   20.6186    2.4917 C   0  0  0  0  0  0  0  0  0  0  0  0
   43.0142   24.7607    6.8578 N   0  0  0  0  0  0  0  0  0  0  0  0
   46.2553   19.3749    2.1732 O   0  0  0  0  0  0  0  0  0  0  0  0
   44.1509   20.2440    2.7133 C   0  0  1  0  0  0  0  0  0  0  0  0
   38.4246   24.6267    4.7024 N   0  0  0  0  0  0  0  0  0  0  0  0
   43.2680   21.3802    3.1968 O   0  0  0  0  0  0  0  0  0  0  0  0
   42.4153   21.8631    2.2315 C   0  0  1  0  0  0  0  0  0  0  0  0
   39.5714   24.9779   -2.7571 N   0  0  0  0  0  0  0  0  0  0  0  0
   42.3629   23.2491    2.0370 O   0  0  0  0  0  0  0  0  0  0  0  0
   41.8720   24.2095    3.0822 C   0  0  2  0  0  0  0  0  0  0  0  0
   37.9207   26.5777    2.7418 N   0  0  0  0  0  0  0  0  0  0  0  0
   44.1301   24.2195    4.1274 O   0  0  0  0  0  0  0  0  0  0  0  0
   42.6969   23.9779    4.3827 C   0  0  1  0  0  0  0  0  0  0  0  0
   39.6104   24.1970    2.2360 O   0  0  0  0  0  0  0  0  0  0  0  0
   42.1990   24.9754    5.5445 C   0  0  1  0  0  0  0  0  0  0  0  0
   39.9321   24.9575    0.0036 O   0  0  0  0  0  0  0  0  0  0  0  0
   40.6542   24.6910    5.7957 C   0  0  0  0  0  0  0  0  0  0  0  0
   36.5364   24.1270   -1.2811 O   0  0  0  0  0  0  0  0  0  0  0  0
   39.8734   24.9099    4.4337 C   0  0  1  0  0  0  0  0  0  0  0  0
   35.8729   26.0947    0.6791 O   0  0  0  0  0  0  0  0  0  0  0  0
   40.3285   23.9499    3.3812 C   0  0  2  0  0  0  0  0  0  0  0  0
   41.5854   20.9376    0.1958 O   0  0  0  0  0  0  0  0  0  0  0  0
   39.6290   25.3906    1.4115 C   0  0  1  0  0  0  0  0  0  0  0  0
   42.2478   18.8689    1.9114 O   0  0  0  0  0  0  0  0  0  0  0  0
   38.8726   24.0907   -0.6633 C   0  0  2  0  0  0  0  0  0  0  0  0
   39.3290   23.7081   -2.0664 C   0  0  0  0  0  0  0  0  0  0  0  0
   37.5517   24.8938   -0.6917 C   0  0  2  0  0  0  0  0  0  0  0  0
   37.1374   25.3020    0.7122 C   0  0  1  0  0  0  0  0  0  0  0  0
   38.2720   26.1364    1.3350 C   0  0  1  0  0  0  0  0  0  0  0  0
   42.7185   21.0603    0.9769 C   0  0  2  0  0  0  0  0  0  0  0  0
   43.3494   19.7340    1.5100 C   0  0  1  0  0  0  0  0  0  0  0  0
  1  3  1  0  0  0  0
  4  1  1  6  0  0  0
  4  6  1  0  0  0  0
  4 31  1  0  0  0  0
  6  7  1  0  0  0  0
  7  9  1  6  0  0  0
  7 30  1  0  0  0  0
  8 26  1  0  0  0  0
 10  9  1  6  0  0  0
 10 13  1  0  0  0  0
 10 21  1  0  0  0  0
 13 12  1  6  0  0  0
 13 15  1  0  0  0  0
 15  2  1  1  0  0  0
 15 17  1  0  0  0  0
 16 25  1  0  0  0  0
 16 23  1  0  0  0  0
 17 19  1  0  0  0  0
 19  5  1  1  0  0  0
 19 21  1  0  0  0  0
 21 14  1  6  0  0  0
 23 14  1  1  0  0  0
 23 29  1  0  0  0  0
 25 26  1  6  0  0  0
 25 27  1  0  0  0  0
 27 18  1  1  0  0  0
 27 28  1  0  0  0  0
 28 20  1  6  0  0  0
 28 29  1  0  0  0  0
 29 11  1  1  0  0  0
 30 22  1  1  0  0  0
 30 31  1  0  0  0  0
 31 24  1  1  0  0  0
M  END
>  <CHROM.1>
174.52149416,-64.51412758,55.08541995,125.76901829,-52.94164084,-57.19127675
40.90020669,23.44908547,2.01803136,-0.03942117,0.66328127,-2.08201797

>  <Name>
ligand

>  <RI>
0

>  <Rbt.Current_Directory>
/home/itssahil/PROJECTS/Mol_Feturizer/New_Systems/rnas/2ET5

>  <Rbt.Executable>
rbdock ($Id: //depot/dev/client3/rdock/2013.1/src/exe/rbdock.cxx#4 $)

>  <Rbt.Library>
libRbt.so (2013.1, Build901 2013/11/27)

>  <Rbt.Parameter_File>
/export/apps/rDock/src/rDock_2013.1_src/data/scripts/dock_solv.prm

>  <Rbt.Receptor>
prm/pocket_docking_3.prm

>  <SCORE>
-6.85409

>  <SCORE.INTER>
-7.40814

>  <SCORE.INTER.CONST>
1

>  <SCORE.INTER.POLAR>
0

>  <SCORE.INTER.ROT>
6

>  <SCORE.INTER.SOLV>
19.2147

>  <SCORE.INTER.VDW>
-18.9437

>  <SCORE.INTER.norm>
-0.238972

>  <SCORE.INTRA>
0.554049

>  <SCORE.INTRA.DIHEDRAL>
-3.52962

>  <SCORE.INTRA.DIHEDRAL.0>
11.2357

>  <SCORE.INTRA.POLAR>
0

>  <SCORE.INTRA.POLAR.0>
0

>  <SCORE.INTRA.REPUL>
0

>  <SCORE.INTRA.REPUL.0>
0

>  <SCORE.INTRA.SOLV>
1.40243

>  <SCORE.INTRA.SOLV.lig_0>
-83.3092

>  <SCORE.INTRA.VDW>
1.61764

>  <SCORE.INTRA.VDW.0>
-4.47057

>  <SCORE.INTRA.norm>
0.0178726

>  <SCORE.RESTR>
0

>  <SCORE.RESTR.CAVITY>
0

>  <SCORE.RESTR.norm>
0

>  <SCORE.SYSTEM>
0

>  <SCORE.SYSTEM.CONST>
0

>  <SCORE.SYSTEM.DIHEDRAL>
0

>  <SCORE.SYSTEM.SOLV>
0

>  <SCORE.SYSTEM.norm>
0

>  <SCORE.heavy>
31

>  <SCORE.norm>
-0.2211

>  <RMSD>
7.184

$$$$
ligand
 OpenBabel11021811433D
libRbt.so/2013.1/901 2013/11/27
 31 33  0  0  0  0  0  0  0  0999 V2000
   38.6048   25.6441    7.3010 C   0  0  0  0  0  0  0  0  0  0  0  0
   42.1048   21.9888    0.1475 N   0  0  0  0  0  0  0  0  0  0  0  0
   38.7894   25.9184    8.6975 O   0  0  0  0  0  0  0  0  0  0  0  0
   39.8657   24.8859    6.8944 C   0  0  1  0  0  0  0  0  0  0  0  0
   38.1702   24.9077   -1.1665 N   0  0  0  0  0  0  0  0  0  0  0  0
   39.8410   24.3152    5.4880 O   0  0  0  0  0  0  0  0  0  0  0  0
   40.6425   24.9983    4.6031 C   0  0  1  0  0  0  0  0  0  0  0  0
   38.9639   30.5927    2.2321 N   0  0  0  0  0  0  0  0  0  0  0  0
   40.0882   25.3762    3.3737 O   0  0  0  0  0  0  0  0  0  0  0  0
   39.7593   24.3976    2.2829 C   0  0  2  0  0  0  0  0  0  0  0  0
   35.3457   25.9123    2.9582 N   0  0  0  0  0  0  0  0  0  0  0  0
   41.7197   23.0130    2.9396 O   0  0  0  0  0  0  0  0  0  0  0  0
   41.0842   23.7261    1.8148 C   0  0  1  0  0  0  0  0  0  0  0  0
   37.9005   25.7083    1.4717 O   0  0  0  0  0  0  0  0  0  0  0  0
   40.7893   22.6749    0.6312 C   0  0  1  0  0  0  0  0  0  0  0  0
   38.5143   27.8433    2.3262 O   0  0  0  0  0  0  0  0  0  0  0  0
   40.1059   23.4724   -0.5635 C   0  0  0  0  0  0  0  0  0  0  0  0
   36.2280   29.8837    0.2095 O   0  0  0  0  0  0  0  0  0  0  0  0
   38.7846   24.1593   -0.0203 C   0  0  1  0  0  0  0  0  0  0  0  0
   34.3233   28.3802    1.7148 O   0  0  0  0  0  0  0  0  0  0  0  0
   39.0870   25.1557    1.0531 C   0  0  2  0  0  0  0  0  0  0  0  0
   42.5003   26.4641    4.9020 O   0  0  0  0  0  0  0  0  0  0  0  0
   37.6820   26.6170    2.5813 C   0  0  1  0  0  0  0  0  0  0  0  0
   42.3367   24.7741    7.0881 O   0  0  0  0  0  0  0  0  0  0  0  0
   38.1140   28.6727    1.1136 C   0  0  2  0  0  0  0  0  0  0  0  0
   39.0595   29.8593    0.9667 C   0  0  0  0  0  0  0  0  0  0  0  0
   36.6507   29.1301    1.3139 C   0  0  2  0  0  0  0  0  0  0  0  0
   35.7319   27.9343    1.5012 C   0  0  1  0  0  0  0  0  0  0  0  0
   36.2231   27.1241    2.7152 C   0  0  1  0  0  0  0  0  0  0  0  0
   41.2523   26.1407    5.3990 C   0  0  2  0  0  0  0  0  0  0  0  0
   41.1930   25.6531    6.8823 C   0  0  1  0  0  0  0  0  0  0  0  0
  1  3  1  0  0  0  0
  4  1  1  6  0  0  0
  4  6  1  0  0  0  0
  4 31  1  0  0  0  0
  6  7  1  0  0  0  0
  7  9  1  6  0  0  0
  7 30  1  0  0  0  0
  8 26  1  0  0  0  0
 10  9  1  1  0  0  0
 10 13  1  0  0  0  0
 10 21  1  0  0  0  0
 13 12  1  1  0  0  0
 13 15  1  0  0  0  0
 15  2  1  6  0  0  0
 15 17  1  0  0  0  0
 16 25  1  0  0  0  0
 16 23  1  0  0  0  0
 17 19  1  0  0  0  0
 19  5  1  6  0  0  0
 19 21  1  0  0  0  0
 21 14  1  1  0  0  0
 23 14  1  6  0  0  0
 23 29  1  0  0  0  0
 25 26  1  1  0  0  0
 25 27  1  0  0  0  0
 27 18  1  6  0  0  0
 27 28  1  0  0  0  0
 28 20  1  1  0  0  0
 28 29  1  0  0  0  0
 29 11  1  6  0  0  0
 30 22  1  6  0  0  0
 30 31  1  0  0  0  0
 31 24  1  6  0  0  0
M  END
>  <CHROM.1>
172.37527980,-70.99948655,-62.97887792,59.27340720,55.24646108,-57.48995260
39.08636553,25.99225060,2.91243692,0.46849188,-0.83541404,1.27173342

>  <Name>
ligand

>  <RI>
0

>  <Rbt.Current_Directory>
/home/itssahil/PROJECTS/Mol_Feturizer/New_Systems/rnas/2ET5

>  <Rbt.Executable>
rbdock ($Id: //depot/dev/client3/rdock/2013.1/src/exe/rbdock.cxx#4 $)

>  <Rbt.Library>
libRbt.so (2013.1, Build901 2013/11/27)

>  <Rbt.Parameter_File>
/export/apps/rDock/src/rDock_2013.1_src/data/scripts/dock_solv.prm

>  <Rbt.Receptor>
prm/pocket_docking_6.prm

>  <SCORE>
-7.60446

>  <SCORE.INTER>
-3.12606

>  <SCORE.INTER.CONST>
1

>  <SCORE.INTER.POLAR>
0

>  <SCORE.INTER.ROT>
6

>  <SCORE.INTER.SOLV>
12.8391

>  <SCORE.INTER.VDW>
-13.9637

>  <SCORE.INTER.norm>
-0.100841

>  <SCORE.INTRA>
-4.47839

>  <SCORE.INTRA.DIHEDRAL>
-10.1416

>  <SCORE.INTRA.DIHEDRAL.0>
11.2357

>  <SCORE.INTRA.POLAR>
0

>  <SCORE.INTRA.POLAR.0>
0

>  <SCORE.INTRA.REPUL>
0

>  <SCORE.INTRA.REPUL.0>
0

>  <SCORE.INTRA.SOLV>
-2.99436

>  <SCORE.INTRA.SOLV.lig_0>
-83.3092

>  <SCORE.INTRA.VDW>
2.08958

>  <SCORE.INTRA.VDW.0>
-4.47057

>  <SCORE.INTRA.norm>
-0.144464

>  <SCORE.RESTR>
0

>  <SCORE.RESTR.CAVITY>
0

>  <SCORE.RESTR.norm>
0

>  <SCORE.SYSTEM>
0

>  <SCORE.SYSTEM.CONST>
0

>  <SCORE.SYSTEM.DIHEDRAL>
0

>  <SCORE.SYSTEM.SOLV>
0

>  <SCORE.SYSTEM.norm>
0

>  <SCORE.heavy>
31

>  <SCORE.norm>
-0.245305

>  <RMSD>
7.236

$$$$
ligand
 OpenBabel11021811433D
libRbt.so/2013.1/901 2013/11/27
 31 33  0  0  0  0  0  0  0  0999 V2000
   42.2942   15.7943   -1.5691 C   0  0  0  0  0  0  0  0  0  0  0  0
   40.8288   22.9467   -1.5889 N   0  0  0  0  0  0  0  0  0  0  0  0
   41.2541   15.2259   -2.3784 O   0  0  0  0  0  0  0  0  0  0  0  0
   43.2488   16.4337   -2.5740 C   0  0  1  0  0  0  0  0  0  0  0  0
   42.1464   21.3043    3.0258 N   0  0  0  0  0  0  0  0  0  0  0  0
   43.3286   17.9478   -2.5033 O   0  0  0  0  0  0  0  0  0  0  0  0
   44.4977   18.4116   -1.9462 C   0  0  1  0  0  0  0  0  0  0  0  0
   44.8770   15.0791    2.4641 N   0  0  0  0  0  0  0  0  0  0  0  0
   44.4047   19.3777   -0.9366 O   0  0  0  0  0  0  0  0  0  0  0  0
   43.0968   19.8931   -0.4077 C   0  0  2  0  0  0  0  0  0  0  0  0
   45.3084   21.4964    2.7701 N   0  0  0  0  0  0  0  0  0  0  0  0
   42.5053   20.7130   -2.6813 O   0  0  0  0  0  0  0  0  0  0  0  0
   42.6699   21.1166   -1.2715 C   0  0  1  0  0  0  0  0  0  0  0  0
   43.5998   19.2514    1.8653 O   0  0  0  0  0  0  0  0  0  0  0  0
   41.2762   21.7190   -0.7355 C   0  0  1  0  0  0  0  0  0  0  0  0
   44.8808   17.7858    3.2349 O   0  0  0  0  0  0  0  0  0  0  0  0
   41.4859   22.1436    0.7830 C   0  0  0  0  0  0  0  0  0  0  0  0
   47.9409   17.6973    1.1138 O   0  0  0  0  0  0  0  0  0  0  0  0
   41.9501   20.8692    1.6033 C   0  0  1  0  0  0  0  0  0  0  0  0
   47.9054   20.4580    1.8429 O   0  0  0  0  0  0  0  0  0  0  0  0
   43.2626   20.3488    1.1102 C   0  0  2  0  0  0  0  0  0  0  0  0
   46.6466   17.4235   -1.6379 O   0  0  0  0  0  0  0  0  0  0  0  0
   44.4262   19.2081    3.0569 C   0  0  1  0  0  0  0  0  0  0  0  0
   45.4014   16.1986   -3.7852 O   0  0  0  0  0  0  0  0  0  0  0  0
   45.8050   17.2472    2.1512 C   0  0  2  0  0  0  0  0  0  0  0  0
   46.1563   15.7942    2.4495 C   0  0  0  0  0  0  0  0  0  0  0  0
   47.0646   18.1429    2.1137 C   0  0  2  0  0  0  0  0  0  0  0  0
   46.6888   19.5930    1.8580 C   0  0  1  0  0  0  0  0  0  0  0  0
   45.7236   20.0520    2.9666 C   0  0  1  0  0  0  0  0  0  0  0  0
   45.2900   17.1722   -1.5633 C   0  0  2  0  0  0  0  0  0  0  0  0
   44.7319   16.0524   -2.4994 C   0  0  1  0  0  0  0  0  0  0  0  0
  1  3  1  0  0  0  0
  4  1  1  1  0  0  0
  4  6  1  0  0  0  0
  4 31  1  0  0  0  0
  6  7  1  0  0  0  0
  7  9  1  1  0  0  0
  7 30  1  0  0  0  0
  8 26  1  0  0  0  0
 10  9  1  6  0  0  0
 10 13  1  0  0  0  0
 10 21  1  0  0  0  0
 13 12  1  6  0  0  0
 13 15  1  0  0  0  0
 15  2  1  6  0  0  0
 15 17  1  0  0  0  0
 16 25  1  0  0  0  0
 16 23  1  0  0  0  0
 17 19  1  0  0  0  0
 19  5  1  1  0  0  0
 19 21  1  0  0  0  0
 21 14  1  1  0  0  0
 23 14  1  6  0  0  0
 23 29  1  0  0  0  0
 25 26  1  1  0  0  0
 25 27  1  0  0  0  0
 27 18  1  6  0  0  0
 27 28  1  0  0  0  0
 28 20  1  1  0  0  0
 28 29  1  0  0  0  0
 29 11  1  6  0  0  0
 30 22  1  6  0  0  0
 30 31  1  0  0  0  0
 31 24  1  6  0  0  0
M  END
>  <CHROM.1>
113.83755948,2.06013568,-89.18706152,-160.94450648,148.37419921,59.97828582
44.24014296,18.76931939,0.16623499,-2.16445115,-0.74833343,0.77623076

>  <Name>
ligand

>  <RI>
0

>  <Rbt.Current_Directory>
/home/itssahil/PROJECTS/Mol_Feturizer/New_Systems/rnas/2ET5

>  <Rbt.Executable>
rbdock ($Id: //depot/dev/client3/rdock/2013.1/src/exe/rbdock.cxx#4 $)

>  <Rbt.Library>
libRbt.so (2013.1, Build901 2013/11/27)

>  <Rbt.Parameter_File>
/export/apps/rDock/src/rDock_2013.1_src/data/scripts/dock_solv.prm

>  <Rbt.Receptor>
prm/blind_docking_60.prm

>  <SCORE>
48.37

>  <SCORE.INTER>
25.9121

>  <SCORE.INTER.CONST>
1

>  <SCORE.INTER.POLAR>
0

>  <SCORE.INTER.ROT>
6

>  <SCORE.INTER.SOLV>
28.0053

>  <SCORE.INTER.VDW>
0.339648

>  <SCORE.INTER.norm>
0.835875

>  <SCORE.INTRA>
5.08259

>  <SCORE.INTRA.DIHEDRAL>
10.0145

>  <SCORE.INTRA.DIHEDRAL.0>
11.2357

>  <SCORE.INTRA.POLAR>
0

>  <SCORE.INTRA.POLAR.0>
0

>  <SCORE.INTRA.REPUL>
0

>  <SCORE.INTRA.REPUL.0>
0

>  <SCORE.INTRA.SOLV>
0.224221

>  <SCORE.INTRA.SOLV.lig_0>
-83.3092

>  <SCORE.INTRA.VDW>
-0.0367846

>  <SCORE.INTRA.VDW.0>
-4.47057

>  <SCORE.INTRA.norm>
0.163955

>  <SCORE.RESTR>
17.3753

>  <SCORE.RESTR.CAVITY>
17.3753

>  <SCORE.RESTR.norm>
0.560494

>  <SCORE.SYSTEM>
0

>  <SCORE.SYSTEM.CONST>
0

>  <SCORE.SYSTEM.DIHEDRAL>
0

>  <SCORE.SYSTEM.SOLV>
0

>  <SCORE.SYSTEM.norm>
0

>  <SCORE.heavy>
31

>  <SCORE.norm>
1.56032

>  <RMSD>
7.277

$$$$
ligand
 OpenBabel11021811433D
libRbt.so/2013.1/901 2013/11/27
 31 33  0  0  0  0  0  0  0  0999 V2000
   41.6404   22.6635    2.7867 C   0  0  0  0  0  0  0  0  0  0  0  0
   38.6763   25.7824   -1.8694 N   0  0  0  0  0  0  0  0  0  0  0  0
   42.8160   22.0410    3.3253 O   0  0  0  0  0  0  0  0  0  0  0  0
   41.7296   24.1125    3.2584 C   0  0  1  0  0  0  0  0  0  0  0  0
   37.6443   29.7233    1.1527 N   0  0  0  0  0  0  0  0  0  0  0  0
   40.6735   25.0372    2.6809 O   0  0  0  0  0  0  0  0  0  0  0  0
   39.6989   25.3915    3.5848 C   0  0  1  0  0  0  0  0  0  0  0  0
   35.7491   23.8602    3.1896 N   0  0  0  0  0  0  0  0  0  0  0  0
   38.3613   25.2676    3.1889 O   0  0  0  0  0  0  0  0  0  0  0  0
   37.7821   25.9901    2.0063 C   0  0  2  0  0  0  0  0  0  0  0  0
   35.9359   30.0766    4.8746 N   0  0  0  0  0  0  0  0  0  0  0  0
   38.3368   24.0478    0.5533 O   0  0  0  0  0  0  0  0  0  0  0  0
   38.5224   25.5015    0.7262 C   0  0  1  0  0  0  0  0  0  0  0  0
   37.2983   27.9835    3.2805 O   0  0  0  0  0  0  0  0  0  0  0  0
   37.9482   26.2586   -0.5737 C   0  0  1  0  0  0  0  0  0  0  0  0
   35.3411   26.6406    3.4574 O   0  0  0  0  0  0  0  0  0  0  0  0
   38.1624   27.8198   -0.3570 C   0  0  0  0  0  0  0  0  0  0  0  0
   35.7458   25.6693    7.0300 O   0  0  0  0  0  0  0  0  0  0  0  0
   37.4166   28.2510    0.9736 C   0  0  1  0  0  0  0  0  0  0  0  0
   35.4139   28.4923    7.3035 O   0  0  0  0  0  0  0  0  0  0  0  0
   37.9897   27.5615    2.1705 C   0  0  2  0  0  0  0  0  0  0  0  0
   39.6241   25.3858    5.9689 O   0  0  0  0  0  0  0  0  0  0  0  0
   35.8607   28.0518    3.4633 C   0  0  1  0  0  0  0  0  0  0  0  0
   42.2613   25.6152    5.1597 O   0  0  0  0  0  0  0  0  0  0  0  0
   35.7976   25.7638    4.6156 C   0  0  2  0  0  0  0  0  0  0  0  0
   35.2182   24.3626    4.4600 C   0  0  0  0  0  0  0  0  0  0  0  0
   35.3303   26.4321    5.9293 C   0  0  2  0  0  0  0  0  0  0  0  0
   35.8836   27.8428    6.0442 C   0  0  1  0  0  0  0  0  0  0  0  0
   35.4164   28.6537    4.8212 C   0  0  1  0  0  0  0  0  0  0  0  0
   40.0471   24.6607    4.8714 C   0  0  2  0  0  0  0  0  0  0  0  0
   41.5818   24.3902    4.7589 C   0  0  1  0  0  0  0  0  0  0  0  0
  1  3  1  0  0  0  0
  4  1  1  1  0  0  0
  4  6  1  0  0  0  0
  4 31  1  0  0  0  0
  6  7  1  0  0  0  0
  7  9  1  6  0  0  0
  7 30  1  0  0  0  0
  8 26  1  0  0  0  0
 10  9  1  1  0  0  0
 10 13  1  0  0  0  0
 10 21  1  0  0  0  0
 13 12  1  6  0  0  0
 13 15  1  0  0  0  0
 15  2  1  6  0  0  0
 15 17  1  0  0  0  0
 16 25  1  0  0  0  0
 16 23  1  0  0  0  0
 17 19  1  0  0  0  0
 19  5  1  1  0  0  0
 19 21  1  0  0  0  0
 21 14  1  1  0  0  0
 23 14  1  1  0  0  0
 23 29  1  0  0  0  0
 25 26  1  6  0  0  0
 25 27  1  0  0  0  0
 27 18  1  1  0  0  0
 27 28  1  0  0  0  0
 28 20  1  1  0  0  0
 28 29  1  0  0  0  0
 29 11  1  1  0  0  0
 30 22  1  1  0  0  0
 30 31  1  0  0  0  0
 31 24  1  6  0  0  0
M  END
>  <CHROM.1>
173.12975910,-59.32731286,62.60073452,66.47122739,-69.07645189,60.76554997
38.08940528,26.07759915,3.35638724,-0.21963113,-0.65127710,1.76056174

>  <Name>
ligand

>  <RI>
0

>  <Rbt.Current_Directory>
/home/itssahil/PROJECTS/Mol_Feturizer/New_Systems/rnas/2ET5

>  <Rbt.Executable>
rbdock ($Id: //depot/dev/client3/rdock/2013.1/src/exe/rbdock.cxx#4 $)

>  <Rbt.Library>
libRbt.so (2013.1, Build901 2013/11/27)

>  <Rbt.Parameter_File>
/export/apps/rDock/src/rDock_2013.1_src/data/scripts/dock_solv.prm

>  <Rbt.Receptor>
prm/pocket_docking_5.prm

>  <SCORE>
-5.06111

>  <SCORE.INTER>
-0.387606

>  <SCORE.INTER.CONST>
1

>  <SCORE.INTER.POLAR>
0

>  <SCORE.INTER.ROT>
6

>  <SCORE.INTER.SOLV>
13.3971

>  <SCORE.INTER.VDW>
-12.3241

>  <SCORE.INTER.norm>
-0.0125034

>  <SCORE.INTRA>
-4.68644

>  <SCORE.INTRA.DIHEDRAL>
-10.2879

>  <SCORE.INTRA.DIHEDRAL.0>
11.2357

>  <SCORE.INTRA.POLAR>
0

>  <SCORE.INTRA.POLAR.0>
0

>  <SCORE.INTRA.REPUL>
0

>  <SCORE.INTRA.REPUL.0>
0

>  <SCORE.INTRA.SOLV>
-0.234397

>  <SCORE.INTRA.SOLV.lig_0>
-83.3092

>  <SCORE.INTRA.VDW>
0.574687

>  <SCORE.INTRA.VDW.0>
-4.47057

>  <SCORE.INTRA.norm>
-0.151176

>  <SCORE.RESTR>
0.0129391

>  <SCORE.RESTR.CAVITY>
0.0129391

>  <SCORE.RESTR.norm>
0.000417389

>  <SCORE.SYSTEM>
0

>  <SCORE.SYSTEM.CONST>
0

>  <SCORE.SYSTEM.DIHEDRAL>
0

>  <SCORE.SYSTEM.SOLV>
0

>  <SCORE.SYSTEM.norm>
0

>  <SCORE.heavy>
31

>  <SCORE.norm>
-0.163262

>  <RMSD>
7.286

$$$$
ligand
 OpenBabel11021811433D
libRbt.so/2013.1/901 2013/11/27
 31 33  0  0  0  0  0  0  0  0999 V2000
   37.9487   29.9238   -0.0191 C   0  0  0  0  0  0  0  0  0  0  0  0
   40.3740   23.7988    0.4076 N   0  0  0  0  0  0  0  0  0  0  0  0
   39.2346   30.1636   -0.6095 O   0  0  0  0  0  0  0  0  0  0  0  0
   38.2534   29.6428    1.4500 C   0  0  1  0  0  0  0  0  0  0  0  0
   43.1614   24.9858    4.4757 N   0  0  0  0  0  0  0  0  0  0  0  0
   39.2965   28.5665    1.6903 O   0  0  0  0  0  0  0  0  0  0  0  0
   40.5086   29.0600    2.1137 C   0  0  1  0  0  0  0  0  0  0  0  0
   40.4619   28.2883    6.6618 N   0  0  0  0  0  0  0  0  0  0  0  0
   41.6631   28.6138    1.4583 O   0  0  0  0  0  0  0  0  0  0  0  0
   42.1435   27.1918    1.5124 C   0  0  2  0  0  0  0  0  0  0  0  0
   45.8416   29.3012    3.2141 N   0  0  0  0  0  0  0  0  0  0  0  0
   40.7350   26.6452   -0.4647 O   0  0  0  0  0  0  0  0  0  0  0  0
   41.0234   26.2767    0.9348 C   0  0  1  0  0  0  0  0  0  0  0  0
   43.4603   27.5621    3.5024 O   0  0  0  0  0  0  0  0  0  0  0  0
   41.4826   24.7342    0.9836 C   0  0  1  0  0  0  0  0  0  0  0  0
   42.4304   29.2674    4.8049 O   0  0  0  0  0  0  0  0  0  0  0  0
   41.7855   24.3685    2.5018 C   0  0  0  0  0  0  0  0  0  0  0  0
   44.4534   28.7985    7.8966 O   0  0  0  0  0  0  0  0  0  0  0  0
   42.9054   25.3511    3.0431 C   0  0  1  0  0  0  0  0  0  0  0  0
   46.4932   29.6111    6.0709 O   0  0  0  0  0  0  0  0  0  0  0  0
   42.4435   26.7733    3.0204 C   0  0  2  0  0  0  0  0  0  0  0  0
   41.1512   31.1200    3.1299 O   0  0  0  0  0  0  0  0  0  0  0  0
   43.4465   28.9948    3.7303 C   0  0  1  0  0  0  0  0  0  0  0  0
   38.4906   30.6288    3.7144 O   0  0  0  0  0  0  0  0  0  0  0  0
   42.7550   28.6997    6.1801 C   0  0  2  0  0  0  0  0  0  0  0  0
   41.6279   29.0288    7.1520 C   0  0  0  0  0  0  0  0  0  0  0  0
   44.1004   29.3080    6.6389 C   0  0  2  0  0  0  0  0  0  0  0  0
   45.2004   29.0050    5.6352 C   0  0  1  0  0  0  0  0  0  0  0  0
   44.7830   29.5704    4.2649 C   0  0  1  0  0  0  0  0  0  0  0  0
   40.3468   30.5709    2.1498 C   0  0  2  0  0  0  0  0  0  0  0  0
   38.8074   30.7911    2.3015 C   0  0  1  0  0  0  0  0  0  0  0  0
  1  3  1  0  0  0  0
  4  1  1  6  0  0  0
  4  6  1  0  0  0  0
  4 31  1  0  0  0  0
  6  7  1  0  0  0  0
  7  9  1  6  0  0  0
  7 30  1  0  0  0  0
  8 26  1  0  0  0  0
 10  9  1  1  0  0  0
 10 13  1  0  0  0  0
 10 21  1  0  0  0  0
 13 12  1  6  0  0  0
 13 15  1  0  0  0  0
 15  2  1  1  0  0  0
 15 17  1  0  0  0  0
 16 25  1  0  0  0  0
 16 23  1  0  0  0  0
 17 19  1  0  0  0  0
 19  5  1  1  0  0  0
 19 21  1  0  0  0  0
 21 14  1  6  0  0  0
 23 14  1  1  0  0  0
 23 29  1  0  0  0  0
 25 26  1  1  0  0  0
 25 27  1  0  0  0  0
 27 18  1  1  0  0  0
 27 28  1  0  0  0  0
 28 20  1  1  0  0  0
 28 29  1  0  0  0  0
 29 11  1  6  0  0  0
 30 22  1  1  0  0  0
 30 31  1  0  0  0  0
 31 24  1  1  0  0  0
M  END
>  <CHROM.1>
-52.41694202,-65.75433261,59.45044125,64.14613319,65.51941491,65.72334458
41.82251725,28.31561274,3.20925401,2.64705147,0.70208743,-2.56239173

>  <Name>
ligand

>  <RI>
0

>  <Rbt.Current_Directory>
/home/itssahil/PROJECTS/Mol_Feturizer/New_Systems/rnas/2ET5

>  <Rbt.Executable>
rbdock ($Id: //depot/dev/client3/rdock/2013.1/src/exe/rbdock.cxx#4 $)

>  <Rbt.Library>
libRbt.so (2013.1, Build901 2013/11/27)

>  <Rbt.Parameter_File>
/export/apps/rDock/src/rDock_2013.1_src/data/scripts/dock_solv.prm

>  <Rbt.Receptor>
prm/pocket_docking_8.prm

>  <SCORE>
-5.16502

>  <SCORE.INTER>
1.17002

>  <SCORE.INTER.CONST>
1

>  <SCORE.INTER.POLAR>
0

>  <SCORE.INTER.ROT>
6

>  <SCORE.INTER.SOLV>
8.13794

>  <SCORE.INTER.VDW>
-9.53263

>  <SCORE.INTER.norm>
0.0377426

>  <SCORE.INTRA>
-6.33504

>  <SCORE.INTRA.DIHEDRAL>
-10.3756

>  <SCORE.INTRA.DIHEDRAL.0>
11.2357

>  <SCORE.INTRA.POLAR>
0

>  <SCORE.INTRA.POLAR.0>
0

>  <SCORE.INTRA.REPUL>
0

>  <SCORE.INTRA.REPUL.0>
0

>  <SCORE.INTRA.SOLV>
-2.8266

>  <SCORE.INTRA.SOLV.lig_0>
-83.3092

>  <SCORE.INTRA.VDW>
0.26605

>  <SCORE.INTRA.VDW.0>
-4.47057

>  <SCORE.INTRA.norm>
-0.204356

>  <SCORE.RESTR>
0

>  <SCORE.RESTR.CAVITY>
0

>  <SCORE.RESTR.norm>
0

>  <SCORE.SYSTEM>
0

>  <SCORE.SYSTEM.CONST>
0

>  <SCORE.SYSTEM.DIHEDRAL>
0

>  <SCORE.SYSTEM.SOLV>
0

>  <SCORE.SYSTEM.norm>
0

>  <SCORE.heavy>
31

>  <SCORE.norm>
-0.166614

>  <RMSD>
7.312

$$$$
ligand
 OpenBabel11021811433D
libRbt.so/2013.1/901 2013/11/27
 31 33  0  0  0  0  0  0  0  0999 V2000
   40.0088   30.3544   -1.7508 C   0  0  0  0  0  0  0  0  0  0  0  0
   40.9967   23.8742   -1.5319 N   0  0  0  0  0  0  0  0  0  0  0  0
   40.4057   29.4549   -2.7962 O   0  0  0  0  0  0  0  0  0  0  0  0
   38.7873   29.6888   -1.1224 C   0  0  1  0  0  0  0  0  0  0  0  0
   38.3920   23.3156    2.7846 N   0  0  0  0  0  0  0  0  0  0  0  0
   39.0582   28.3453   -0.4699 O   0  0  0  0  0  0  0  0  0  0  0  0
   39.0438   28.3887    0.9049 C   0  0  1  0  0  0  0  0  0  0  0  0
   34.9862   26.6263    2.2889 N   0  0  0  0  0  0  0  0  0  0  0  0
   40.1143   27.8012    1.5907 O   0  0  0  0  0  0  0  0  0  0  0  0
   40.4106   26.3293    1.5491 C   0  0  2  0  0  0  0  0  0  0  0  0
   40.1557   26.9576    6.1112 N   0  0  0  0  0  0  0  0  0  0  0  0
   41.6508   26.6435   -0.5851 O   0  0  0  0  0  0  0  0  0  0  0  0
   40.5489   25.9019    0.0579 C   0  0  1  0  0  0  0  0  0  0  0  0
   39.1378   25.8715    3.5495 O   0  0  0  0  0  0  0  0  0  0  0  0
   40.8530   24.3240   -0.0444 C   0  0  1  0  0  0  0  0  0  0  0  0
   37.3023   27.3800    3.6929 O   0  0  0  0  0  0  0  0  0  0  0  0
   39.6501   23.5541    0.6560 C   0  0  0  0  0  0  0  0  0  0  0  0
   35.4410   25.6169    6.3944 O   0  0  0  0  0  0  0  0  0  0  0  0
   39.5377   24.0531    2.1563 C   0  0  1  0  0  0  0  0  0  0  0  0
   37.8228   26.3311    7.7985 O   0  0  0  0  0  0  0  0  0  0  0  0
   39.2209   25.5130    2.2255 C   0  0  2  0  0  0  0  0  0  0  0  0
   38.1003   29.9262    2.4655 O   0  0  0  0  0  0  0  0  0  0  0  0
   38.7302   27.1486    4.1040 C   0  0  1  0  0  0  0  0  0  0  0  0
   36.6621   30.0567    0.1041 O   0  0  0  0  0  0  0  0  0  0  0  0
   36.2827   26.4084    4.2717 C   0  0  2  0  0  0  0  0  0  0  0  0
   34.8925   26.7478    3.7465 C   0  0  0  0  0  0  0  0  0  0  0  0
   36.3515   26.5109    5.8129 C   0  0  2  0  0  0  0  0  0  0  0  0
   37.7551   26.2112    6.3120 C   0  0  1  0  0  0  0  0  0  0  0  0
   38.7318   27.2030    5.6534 C   0  0  1  0  0  0  0  0  0  0  0  0
   38.7829   29.8417    1.2672 C   0  0  2  0  0  0  0  0  0  0  0  0
   38.0671   30.4309    0.0095 C   0  0  1  0  0  0  0  0  0  0  0  0
  1  3  1  0  0  0  0
  4  1  1  1  0  0  0
  4  6  1  0  0  0  0
  4 31  1  0  0  0  0
  6  7  1  0  0  0  0
  7  9  1  1  0  0  0
  7 30  1  0  0  0  0
  8 26  1  0  0  0  0
 10  9  1  6  0  0  0
 10 13  1  0  0  0  0
 10 21  1  0  0  0  0
 13 12  1  1  0  0  0
 13 15  1  0  0  0  0
 15  2  1  6  0  0  0
 15 17  1  0  0  0  0
 16 25  1  0  0  0  0
 16 23  1  0  0  0  0
 17 19  1  0  0  0  0
 19  5  1  6  0  0  0
 19 21  1  0  0  0  0
 21 14  1  1  0  0  0
 23 14  1  1  0  0  0
 23 29  1  0  0  0  0
 25 26  1  6  0  0  0
 25 27  1  0  0  0  0
 27 18  1  1  0  0  0
 27 28  1  0  0  0  0
 28 20  1  1  0  0  0
 28 29  1  0  0  0  0
 29 11  1  1  0  0  0
 30 22  1  1  0  0  0
 30 31  1  0  0  0  0
 31 24  1  1  0  0  0
M  END
>  <CHROM.1>
63.29604604,-64.57047008,54.83557913,62.39324765,68.31162764,59.70940014
38.63323973,27.02769069,2.16177138,0.90562032,0.92910546,-0.71868380

>  <Name>
ligand

>  <RI>
0

>  <Rbt.Current_Directory>
/home/itssahil/PROJECTS/Mol_Feturizer/New_Systems/rnas/2ET5

>  <Rbt.Executable>
rbdock ($Id: //depot/dev/client3/rdock/2013.1/src/exe/rbdock.cxx#4 $)

>  <Rbt.Library>
libRbt.so (2013.1, Build901 2013/11/27)

>  <Rbt.Parameter_File>
/export/apps/rDock/src/rDock_2013.1_src/data/scripts/dock_solv.prm

>  <Rbt.Receptor>
prm/pocket_docking_7.prm

>  <SCORE>
-7.60945

>  <SCORE.INTER>
-1.20402

>  <SCORE.INTER.CONST>
1

>  <SCORE.INTER.POLAR>
0

>  <SCORE.INTER.ROT>
6

>  <SCORE.INTER.SOLV>
8.74346

>  <SCORE.INTER.VDW>
-11.3172

>  <SCORE.INTER.norm>
-0.0388393

>  <SCORE.INTRA>
-6.40543

>  <SCORE.INTRA.DIHEDRAL>
-10.4598

>  <SCORE.INTRA.DIHEDRAL.0>
11.2357

>  <SCORE.INTRA.POLAR>
0

>  <SCORE.INTRA.POLAR.0>
0

>  <SCORE.INTRA.REPUL>
0

>  <SCORE.INTRA.REPUL.0>
0

>  <SCORE.INTRA.SOLV>
-3.4006

>  <SCORE.INTRA.SOLV.lig_0>
-83.3092

>  <SCORE.INTRA.VDW>
0.524739

>  <SCORE.INTRA.VDW.0>
-4.47057

>  <SCORE.INTRA.norm>
-0.206627

>  <SCORE.RESTR>
0

>  <SCORE.RESTR.CAVITY>
0

>  <SCORE.RESTR.norm>
0

>  <SCORE.SYSTEM>
0

>  <SCORE.SYSTEM.CONST>
0

>  <SCORE.SYSTEM.DIHEDRAL>
0

>  <SCORE.SYSTEM.SOLV>
0

>  <SCORE.SYSTEM.norm>
0

>  <SCORE.heavy>
31

>  <SCORE.norm>
-0.245466

>  <RMSD>
7.313

$$$$
ligand
 OpenBabel11021811433D
libRbt.so/2013.1/901 2013/11/27
 31 33  0  0  0  0  0  0  0  0999 V2000
   42.3879   24.9582    6.8019 C   0  0  0  0  0  0  0  0  0  0  0  0
   42.4230   22.8869    1.0601 N   0  0  0  0  0  0  0  0  0  0  0  0
   43.3497   24.6753    5.7750 O   0  0  0  0  0  0  0  0  0  0  0  0
   41.4446   25.9763    6.1667 C   0  0  1  0  0  0  0  0  0  0  0  0
   38.0287   25.1231   -0.1305 N   0  0  0  0  0  0  0  0  0  0  0  0
   40.7483   25.4999    4.9048 O   0  0  0  0  0  0  0  0  0  0  0  0
   39.4148   25.2152    5.0864 C   0  0  1  0  0  0  0  0  0  0  0  0
   37.1994   28.9350    1.5528 N   0  0  0  0  0  0  0  0  0  0  0  0
   38.9341   23.9916    4.6037 O   0  0  0  0  0  0  0  0  0  0  0  0
   39.1168   23.5372    3.1838 C   0  0  2  0  0  0  0  0  0  0  0  0
   34.8374   23.4280    3.9357 N   0  0  0  0  0  0  0  0  0  0  0  0
   41.2836   22.4830    3.8046 O   0  0  0  0  0  0  0  0  0  0  0  0
   40.6443   23.4510    2.8925 C   0  0  1  0  0  0  0  0  0  0  0  0
   37.0936   24.6167    2.4274 O   0  0  0  0  0  0  0  0  0  0  0  0
   40.8970   22.9811    1.3733 C   0  0  1  0  0  0  0  0  0  0  0  0
   36.4155   26.7645    3.1971 O   0  0  0  0  0  0  0  0  0  0  0  0
   40.1973   24.0424    0.4170 C   0  0  0  0  0  0  0  0  0  0  0  0
   33.4037   27.1210    1.0353 O   0  0  0  0  0  0  0  0  0  0  0  0
   38.6562   24.1102    0.7815 C   0  0  1  0  0  0  0  0  0  0  0  0
   32.6333   24.8712    2.6162 O   0  0  0  0  0  0  0  0  0  0  0  0
   38.4457   24.5818    2.1850 C   0  0  2  0  0  0  0  0  0  0  0  0
   37.8312   25.8724    6.7446 O   0  0  0  0  0  0  0  0  0  0  0  0
   36.3978   25.2928    3.5060 C   0  0  1  0  0  0  0  0  0  0  0  0
   39.8143   27.7975    6.5924 O   0  0  0  0  0  0  0  0  0  0  0  0
   35.6356   27.1891    1.9601 C   0  0  2  0  0  0  0  0  0  0  0  0
   35.7684   28.6942    1.7594 C   0  0  0  0  0  0  0  0  0  0  0  0
   34.1615   26.7678    2.1610 C   0  0  2  0  0  0  0  0  0  0  0  0
   34.0555   25.2712    2.4022 C   0  0  1  0  0  0  0  0  0  0  0  0
   34.9005   24.9130    3.6388 C   0  0  1  0  0  0  0  0  0  0  0  0
   39.1386   25.4653    6.5601 C   0  0  2  0  0  0  0  0  0  0  0  0
   40.2537   26.4687    6.9973 C   0  0  1  0  0  0  0  0  0  0  0  0
  1  3  1  0  0  0  0
  4  1  1  1  0  0  0
  4  6  1  0  0  0  0
  4 31  1  0  0  0  0
  6  7  1  0  0  0  0
  7  9  1  1  0  0  0
  7 30  1  0  0  0  0
  8 26  1  0  0  0  0
 10  9  1  1  0  0  0
 10 13  1  0  0  0  0
 10 21  1  0  0  0  0
 13 12  1  1  0  0  0
 13 15  1  0  0  0  0
 15  2  1  6  0  0  0
 15 17  1  0  0  0  0
 16 25  1  0  0  0  0
 16 23  1  0  0  0  0
 17 19  1  0  0  0  0
 19  5  1  6  0  0  0
 19 21  1  0  0  0  0
 21 14  1  1  0  0  0
 23 14  1  6  0  0  0
 23 29  1  0  0  0  0
 25 26  1  1  0  0  0
 25 27  1  0  0  0  0
 27 18  1  6  0  0  0
 27 28  1  0  0  0  0
 28 20  1  1  0  0  0
 28 29  1  0  0  0  0
 29 11  1  6  0  0  0
 30 22  1  6  0  0  0
 30 31  1  0  0  0  0
 31 24  1  6  0  0  0
M  END
>  <CHROM.1>
58.95357046,-53.75768066,60.13676259,74.11528716,77.97962859,61.74461317
38.24334171,25.26796888,3.45072896,0.24765716,-0.37868025,1.11303699

>  <Name>
ligand

>  <RI>
0

>  <Rbt.Current_Directory>
/home/itssahil/PROJECTS/Mol_Feturizer/New_Systems/rnas/2ET5

>  <Rbt.Executable>
rbdock ($Id: //depot/dev/client3/rdock/2013.1/src/exe/rbdock.cxx#4 $)

>  <Rbt.Library>
libRbt.so (2013.1, Build901 2013/11/27)

>  <Rbt.Parameter_File>
/export/apps/rDock/src/rDock_2013.1_src/data/scripts/dock_solv.prm

>  <Rbt.Receptor>
prm/pocket_docking_7.prm

>  <SCORE>
-12.5948

>  <SCORE.INTER>
-7.55915

>  <SCORE.INTER.CONST>
1

>  <SCORE.INTER.POLAR>
0

>  <SCORE.INTER.ROT>
6

>  <SCORE.INTER.SOLV>
16.2202

>  <SCORE.INTER.VDW>
-18.0462

>  <SCORE.INTER.norm>
-0.243844

>  <SCORE.INTRA>
-5.03566

>  <SCORE.INTRA.DIHEDRAL>
-8.48662

>  <SCORE.INTRA.DIHEDRAL.0>
11.2357

>  <SCORE.INTRA.POLAR>
0

>  <SCORE.INTRA.POLAR.0>
0

>  <SCORE.INTRA.REPUL>
0

>  <SCORE.INTRA.REPUL.0>
0

>  <SCORE.INTRA.SOLV>
-2.9115

>  <SCORE.INTRA.SOLV.lig_0>
-83.3092

>  <SCORE.INTRA.VDW>
0.663397

>  <SCORE.INTRA.VDW.0>
-4.47057

>  <SCORE.INTRA.norm>
-0.162441

>  <SCORE.RESTR>
0

>  <SCORE.RESTR.CAVITY>
0

>  <SCORE.RESTR.norm>
0

>  <SCORE.SYSTEM>
0

>  <SCORE.SYSTEM.CONST>
0

>  <SCORE.SYSTEM.DIHEDRAL>
0

>  <SCORE.SYSTEM.SOLV>
0

>  <SCORE.SYSTEM.norm>
0

>  <SCORE.heavy>
31

>  <SCORE.norm>
-0.406284

>  <RMSD>
7.326

$$$$
ligand
 OpenBabel11021811433D
libRbt.so/2013.1/901 2013/11/27
 31 33  0  0  0  0  0  0  0  0999 V2000
   46.1530   20.1627    2.5095 C   0  0  0  0  0  0  0  0  0  0  0  0
   42.8381   24.8050    6.6126 N   0  0  0  0  0  0  0  0  0  0  0  0
   46.6731   18.8648    2.1863 O   0  0  0  0  0  0  0  0  0  0  0  0
   44.6773   19.9147    2.8108 C   0  0  1  0  0  0  0  0  0  0  0  0
   38.7960   24.8112    3.5483 N   0  0  0  0  0  0  0  0  0  0  0  0
   43.8885   21.1527    3.1971 O   0  0  0  0  0  0  0  0  0  0  0  0
   43.0357   21.5915    2.2111 C   0  0  1  0  0  0  0  0  0  0  0  0
   35.6263   25.6052    0.8053 N   0  0  0  0  0  0  0  0  0  0  0  0
   43.0675   22.9504    1.8737 O   0  0  0  0  0  0  0  0  0  0  0  0
   42.4552   24.0251    2.7256 C   0  0  2  0  0  0  0  0  0  0  0  0
   40.4937   22.8577   -1.2666 N   0  0  0  0  0  0  0  0  0  0  0  0
   44.4422   23.9652    4.2221 O   0  0  0  0  0  0  0  0  0  0  0  0
   42.9720   23.8449    4.1837 C   0  0  1  0  0  0  0  0  0  0  0  0
   40.4235   24.0992    1.4226 O   0  0  0  0  0  0  0  0  0  0  0  0
   42.3319   24.9666    5.1452 C   0  0  1  0  0  0  0  0  0  0  0  0
   38.0586   24.2820    1.2252 O   0  0  0  0  0  0  0  0  0  0  0  0
   40.7501   24.8112    5.0820 C   0  0  0  0  0  0  0  0  0  0  0  0
   37.9960   27.0845   -1.2269 O   0  0  0  0  0  0  0  0  0  0  0  0
   40.2878   24.9707    3.5742 C   0  0  1  0  0  0  0  0  0  0  0  0
   39.2784   25.0678   -2.7898 O   0  0  0  0  0  0  0  0  0  0  0  0
   40.8668   23.8981    2.7076 C   0  0  2  0  0  0  0  0  0  0  0  0
   42.0751   20.5210    0.3083 O   0  0  0  0  0  0  0  0  0  0  0  0
   39.2673   23.5087    0.7752 C   0  0  1  0  0  0  0  0  0  0  0  0
   42.6608   18.5990    2.2121 O   0  0  0  0  0  0  0  0  0  0  0  0
   38.0015   25.7368    0.7793 C   0  0  2  0  0  0  0  0  0  0  0  0
   36.7428   26.3955    1.3316 C   0  0  0  0  0  0  0  0  0  0  0  0
   38.0269   25.7604   -0.7665 C   0  0  2  0  0  0  0  0  0  0  0  0
   39.2674   25.0613   -1.2971 C   0  0  1  0  0  0  0  0  0  0  0  0
   39.2770   23.6138   -0.7716 C   0  0  1  0  0  0  0  0  0  0  0  0
   43.2408   20.6448    1.0397 C   0  0  2  0  0  0  0  0  0  0  0  0
   43.8019   19.3401    1.6910 C   0  0  1  0  0  0  0  0  0  0  0  0
  1  3  1  0  0  0  0
  4  1  1  6  0  0  0
  4  6  1  0  0  0  0
  4 31  1  0  0  0  0
  6  7  1  0  0  0  0
  7  9  1  6  0  0  0
  7 30  1  0  0  0  0
  8 26  1  0  0  0  0
 10  9  1  6  0  0  0
 10 13  1  0  0  0  0
 10 21  1  0  0  0  0
 13 12  1  6  0  0  0
 13 15  1  0  0  0  0
 15  2  1  1  0  0  0
 15 17  1  0  0  0  0
 16 25  1  0  0  0  0
 16 23  1  0  0  0  0
 17 19  1  0  0  0  0
 19  5  1  1  0  0  0
 19 21  1  0  0  0  0
 21 14  1  6  0  0  0
 23 14  1  1  0  0  0
 23 29  1  0  0  0  0
 25 26  1  6  0  0  0
 25 27  1  0  0  0  0
 27 18  1  1  0  0  0
 27 28  1  0  0  0  0
 28 20  1  6  0  0  0
 28 29  1  0  0  0  0
 29 11  1  1  0  0  0
 30 22  1  1  0  0  0
 30 31  1  0  0  0  0
 31 24  1  1  0  0  0
M  END
>  <CHROM.1>
179.57592691,-75.71835991,50.80662117,80.18471840,148.18530309,-58.70829926
41.23680418,23.28900010,1.78506337,0.02492846,0.70878996,-2.10580274

>  <Name>
ligand

>  <RI>
0

>  <Rbt.Current_Directory>
/home/itssahil/PROJECTS/Mol_Feturizer/New_Systems/rnas/2ET5

>  <Rbt.Executable>
rbdock ($Id: //depot/dev/client3/rdock/2013.1/src/exe/rbdock.cxx#4 $)

>  <Rbt.Library>
libRbt.so (2013.1, Build901 2013/11/27)

>  <Rbt.Parameter_File>
/export/apps/rDock/src/rDock_2013.1_src/data/scripts/dock_solv.prm

>  <Rbt.Receptor>
prm/pocket_docking_3.prm

>  <SCORE>
-5.34055

>  <SCORE.INTER>
-6.31302

>  <SCORE.INTER.CONST>
1

>  <SCORE.INTER.POLAR>
0

>  <SCORE.INTER.ROT>
6

>  <SCORE.INTER.SOLV>
19.4551

>  <SCORE.INTER.VDW>
-18.2937

>  <SCORE.INTER.norm>
-0.203646

>  <SCORE.INTRA>
0.972471

>  <SCORE.INTRA.DIHEDRAL>
-3.8152

>  <SCORE.INTRA.DIHEDRAL.0>
11.2357

>  <SCORE.INTRA.POLAR>
0

>  <SCORE.INTRA.POLAR.0>
0

>  <SCORE.INTRA.REPUL>
0.0525233

>  <SCORE.INTRA.REPUL.0>
0

>  <SCORE.INTRA.SOLV>
1.95608

>  <SCORE.INTRA.SOLV.lig_0>
-83.3092

>  <SCORE.INTRA.VDW>
1.63942

>  <SCORE.INTRA.VDW.0>
-4.47057

>  <SCORE.INTRA.norm>
0.03137

>  <SCORE.RESTR>
0

>  <SCORE.RESTR.CAVITY>
0

>  <SCORE.RESTR.norm>
0

>  <SCORE.SYSTEM>
0

>  <SCORE.SYSTEM.CONST>
0

>  <SCORE.SYSTEM.DIHEDRAL>
0

>  <SCORE.SYSTEM.SOLV>
0

>  <SCORE.SYSTEM.norm>
0

>  <SCORE.heavy>
31

>  <SCORE.norm>
-0.172276

>  <RMSD>
7.331

$$$$
ligand
 OpenBabel11021811433D
libRbt.so/2013.1/901 2013/11/27
 31 33  0  0  0  0  0  0  0  0999 V2000
   41.0781   21.5429   -0.7193 C   0  0  0  0  0  0  0  0  0  0  0  0
   47.6617   16.8667   -4.6648 N   0  0  0  0  0  0  0  0  0  0  0  0
   42.1059   21.6395   -1.7163 O   0  0  0  0  0  0  0  0  0  0  0  0
   41.5549   20.4288    0.2089 C   0  0  1  0  0  0  0  0  0  0  0  0
   43.2213   14.7405   -3.4437 N   0  0  0  0  0  0  0  0  0  0  0  0
   42.2468   19.2711   -0.4875 O   0  0  0  0  0  0  0  0  0  0  0  0
   43.6087   19.2484   -0.2956 C   0  0  1  0  0  0  0  0  0  0  0  0
   47.1588   16.4768   -0.2976 N   0  0  0  0  0  0  0  0  0  0  0  0
   44.4270   19.0961   -1.4219 O   0  0  0  0  0  0  0  0  0  0  0  0
   44.9667   17.7695   -1.8745 C   0  0  2  0  0  0  0  0  0  0  0  0
   40.7621   16.0836    0.5592 N   0  0  0  0  0  0  0  0  0  0  0  0
   47.1169   18.8595   -2.4910 O   0  0  0  0  0  0  0  0  0  0  0  0
   46.0106   18.0269   -3.0013 C   0  0  1  0  0  0  0  0  0  0  0  0
   42.8942   16.6132   -1.4288 O   0  0  0  0  0  0  0  0  0  0  0  0
   46.6114   16.6315   -3.5347 C   0  0  1  0  0  0  0  0  0  0  0  0
   44.4551   15.5753    0.0381 O   0  0  0  0  0  0  0  0  0  0  0  0
   45.3970   15.7587   -4.0766 C   0  0  0  0  0  0  0  0  0  0  0  0
   44.6545   18.3198    2.5478 O   0  0  0  0  0  0  0  0  0  0  0  0
   44.3550   15.5586   -2.8989 C   0  0  1  0  0  0  0  0  0  0  0  0
   41.9129   17.5715    2.8272 O   0  0  0  0  0  0  0  0  0  0  0  0
   43.7853   16.8645   -2.4441 C   0  0  2  0  0  0  0  0  0  0  0  0
   45.0273   20.2312    1.3509 O   0  0  0  0  0  0  0  0  0  0  0  0
   43.0074   15.6336   -0.3646 C   0  0  1  0  0  0  0  0  0  0  0  0
   42.5043   19.8892    2.4367 O   0  0  0  0  0  0  0  0  0  0  0  0
   45.0164   16.8417    0.6702 C   0  0  2  0  0  0  0  0  0  0  0  0
   46.4920   16.6436    0.9969 C   0  0  0  0  0  0  0  0  0  0  0  0
   44.1867   17.1466    1.9388 C   0  0  2  0  0  0  0  0  0  0  0  0
   42.7137   17.2977    1.5974 C   0  0  1  0  0  0  0  0  0  0  0  0
   42.2302   15.9987    0.9263 C   0  0  1  0  0  0  0  0  0  0  0  0
   43.9240   20.4689    0.5539 C   0  0  2  0  0  0  0  0  0  0  0  0
   42.5823   20.7845    1.2898 C   0  0  1  0  0  0  0  0  0  0  0  0
  1  3  1  0  0  0  0
  4  1  1  6  0  0  0
  4  6  1  0  0  0  0
  4 31  1  0  0  0  0
  6  7  1  0  0  0  0
  7  9  1  6  0  0  0
  7 30  1  0  0  0  0
  8 26  1  0  0  0  0
 10  9  1  6  0  0  0
 10 13  1  0  0  0  0
 10 21  1  0  0  0  0
 13 12  1  1  0  0  0
 13 15  1  0  0  0  0
 15  2  1  6  0  0  0
 15 17  1  0  0  0  0
 16 25  1  0  0  0  0
 16 23  1  0  0  0  0
 17 19  1  0  0  0  0
 19  5  1  6  0  0  0
 19 21  1  0  0  0  0
 21 14  1  1  0  0  0
 23 14  1  6  0  0  0
 23 29  1  0  0  0  0
 25 26  1  1  0  0  0
 25 27  1  0  0  0  0
 27 18  1  6  0  0  0
 27 28  1  0  0  0  0
 28 20  1  1  0  0  0
 28 29  1  0  0  0  0
 29 11  1  6  0  0  0
 30 22  1  1  0  0  0
 30 31  1  0  0  0  0
 31 24  1  1  0  0  0
M  END
>  <CHROM.1>
-37.45169320,-95.55977007,-170.74985174,36.85227590,-79.69531729,65.00372466
43.98074802,17.90831046,-0.52414923,-2.85594391,-0.95739287,2.85375371

>  <Name>
ligand

>  <RI>
0

>  <Rbt.Current_Directory>
/home/itssahil/PROJECTS/Mol_Feturizer/New_Systems/rnas/2ET5

>  <Rbt.Executable>
rbdock ($Id: //depot/dev/client3/rdock/2013.1/src/exe/rbdock.cxx#4 $)

>  <Rbt.Library>
libRbt.so (2013.1, Build901 2013/11/27)

>  <Rbt.Parameter_File>
/export/apps/rDock/src/rDock_2013.1_src/data/scripts/dock_solv.prm

>  <Rbt.Receptor>
prm/blind_docking_60.prm

>  <SCORE>
65.4051

>  <SCORE.INTER>
43.5475

>  <SCORE.INTER.CONST>
1

>  <SCORE.INTER.POLAR>
0

>  <SCORE.INTER.ROT>
6

>  <SCORE.INTER.SOLV>
30.541

>  <SCORE.INTER.VDW>
11.2513

>  <SCORE.INTER.norm>
1.40476

>  <SCORE.INTRA>
9.19238

>  <SCORE.INTRA.DIHEDRAL>
-0.376876

>  <SCORE.INTRA.DIHEDRAL.0>
11.2357

>  <SCORE.INTRA.POLAR>
0

>  <SCORE.INTRA.POLAR.0>
0

>  <SCORE.INTRA.REPUL>
0.300721

>  <SCORE.INTRA.REPUL.0>
0

>  <SCORE.INTRA.SOLV>
6.50687

>  <SCORE.INTRA.SOLV.lig_0>
-83.3092

>  <SCORE.INTRA.VDW>
4.62378

>  <SCORE.INTRA.VDW.0>
-4.47057

>  <SCORE.INTRA.norm>
0.296528

>  <SCORE.RESTR>
12.6652

>  <SCORE.RESTR.CAVITY>
12.6652

>  <SCORE.RESTR.norm>
0.408556

>  <SCORE.SYSTEM>
0

>  <SCORE.SYSTEM.CONST>
0

>  <SCORE.SYSTEM.DIHEDRAL>
0

>  <SCORE.SYSTEM.SOLV>
0

>  <SCORE.SYSTEM.norm>
0

>  <SCORE.heavy>
31

>  <SCORE.norm>
2.10984

>  <RMSD>
7.355

$$$$
ligand
 OpenBabel11021811433D
libRbt.so/2013.1/901 2013/11/27
 31 33  0  0  0  0  0  0  0  0999 V2000
   42.2486   26.3108    7.4283 C   0  0  0  0  0  0  0  0  0  0  0  0
   41.8206   31.5185    3.8484 N   0  0  0  0  0  0  0  0  0  0  0  0
   42.6261   27.6889    7.5619 O   0  0  0  0  0  0  0  0  0  0  0  0
   40.7749   26.3589    7.0331 C   0  0  1  0  0  0  0  0  0  0  0  0
   37.8116   29.7859    1.2688 N   0  0  0  0  0  0  0  0  0  0  0  0
   40.4821   27.1242    5.7554 O   0  0  0  0  0  0  0  0  0  0  0  0
   40.1627   26.3146    4.6902 C   0  0  1  0  0  0  0  0  0  0  0  0
   34.4761   26.3712    4.1033 N   0  0  0  0  0  0  0  0  0  0  0  0
   40.8251   26.5365    3.4763 O   0  0  0  0  0  0  0  0  0  0  0  0
   40.7704   27.8415    2.7348 C   0  0  2  0  0  0  0  0  0  0  0  0
   38.7991   25.1944   -0.6932 N   0  0  0  0  0  0  0  0  0  0  0  0
   42.7180   28.6639    4.0469 O   0  0  0  0  0  0  0  0  0  0  0  0
   41.3216   28.9574    3.6709 C   0  0  1  0  0  0  0  0  0  0  0  0
   38.8071   27.2093    1.4790 O   0  0  0  0  0  0  0  0  0  0  0  0
   41.2710   30.3848    2.9275 C   0  0  1  0  0  0  0  0  0  0  0  0
   37.9301   25.5574    2.9511 O   0  0  0  0  0  0  0  0  0  0  0  0
   39.7562   30.6716    2.5357 C   0  0  0  0  0  0  0  0  0  0  0  0
   34.4634   25.4933    1.5912 O   0  0  0  0  0  0  0  0  0  0  0  0
   39.2417   29.4897    1.6131 C   0  0  1  0  0  0  0  0  0  0  0  0
   35.9205   24.5656   -0.6827 O   0  0  0  0  0  0  0  0  0  0  0  0
   39.2653   28.1808    2.3360 C   0  0  2  0  0  0  0  0  0  0  0  0
   39.3755   24.0677    4.5444 O   0  0  0  0  0  0  0  0  0  0  0  0
   38.7433   25.7777    1.7055 C   0  0  1  0  0  0  0  0  0  0  0  0
   38.6267   25.1182    6.9934 O   0  0  0  0  0  0  0  0  0  0  0  0
   36.4645   25.9612    2.8632 C   0  0  2  0  0  0  0  0  0  0  0  0
   35.7797   25.7084    4.2013 C   0  0  0  0  0  0  0  0  0  0  0  0
   35.8141   25.1412    1.7250 C   0  0  2  0  0  0  0  0  0  0  0  0
   36.5381   25.3744    0.4095 C   0  0  1  0  0  0  0  0  0  0  0  0
   38.0173   24.9850    0.5883 C   0  0  1  0  0  0  0  0  0  0  0  0
   40.2618   24.8906    5.2126 C   0  0  2  0  0  0  0  0  0  0  0  0
   40.0616   25.0304    6.7559 C   0  0  1  0  0  0  0  0  0  0  0  0
  1  3  1  0  0  0  0
  4  1  1  6  0  0  0
  4  6  1  0  0  0  0
  4 31  1  0  0  0  0
  6  7  1  0  0  0  0
  7  9  1  6  0  0  0
  7 30  1  0  0  0  0
  8 26  1  0  0  0  0
 10  9  1  1  0  0  0
 10 13  1  0  0  0  0
 10 21  1  0  0  0  0
 13 12  1  6  0  0  0
 13 15  1  0  0  0  0
 15  2  1  1  0  0  0
 15 17  1  0  0  0  0
 16 25  1  0  0  0  0
 16 23  1  0  0  0  0
 17 19  1  0  0  0  0
 19  5  1  1  0  0  0
 19 21  1  0  0  0  0
 21 14  1  6  0  0  0
 23 14  1  6  0  0  0
 23 29  1  0  0  0  0
 25 26  1  1  0  0  0
 25 27  1  0  0  0  0
 27 18  1  6  0  0  0
 27 28  1  0  0  0  0
 28 20  1  6  0  0  0
 28 29  1  0  0  0  0
 29 11  1  6  0  0  0
 30 22  1  6  0  0  0
 30 31  1  0  0  0  0
 31 24  1  6  0  0  0
M  END
>  <CHROM.1>
58.51505342,-59.29543088,58.78425226,56.47928155,57.19604918,168.77118118
39.07115979,26.82109273,3.40143699,0.26837133,0.71429353,2.25373250

>  <Name>
ligand

>  <RI>
0

>  <Rbt.Current_Directory>
/home/itssahil/PROJECTS/Mol_Feturizer/New_Systems/rnas/2ET5

>  <Rbt.Executable>
rbdock ($Id: //depot/dev/client3/rdock/2013.1/src/exe/rbdock.cxx#4 $)

>  <Rbt.Library>
libRbt.so (2013.1, Build901 2013/11/27)

>  <Rbt.Parameter_File>
/export/apps/rDock/src/rDock_2013.1_src/data/scripts/dock_solv.prm

>  <Rbt.Receptor>
prm/pocket_docking_7.prm

>  <SCORE>
-7.90533

>  <SCORE.INTER>
-2.48811

>  <SCORE.INTER.CONST>
1

>  <SCORE.INTER.POLAR>
0

>  <SCORE.INTER.ROT>
6

>  <SCORE.INTER.SOLV>
10.5032

>  <SCORE.INTER.VDW>
-12.7598

>  <SCORE.INTER.norm>
-0.0802617

>  <SCORE.INTRA>
-5.41721

>  <SCORE.INTRA.DIHEDRAL>
-10.5351

>  <SCORE.INTRA.DIHEDRAL.0>
11.2357

>  <SCORE.INTRA.POLAR>
0

>  <SCORE.INTRA.POLAR.0>
0

>  <SCORE.INTRA.REPUL>
0

>  <SCORE.INTRA.REPUL.0>
0

>  <SCORE.INTRA.SOLV>
-2.19127

>  <SCORE.INTRA.SOLV.lig_0>
-83.3092

>  <SCORE.INTRA.VDW>
0.945964

>  <SCORE.INTRA.VDW.0>
-4.47057

>  <SCORE.INTRA.norm>
-0.174749

>  <SCORE.RESTR>
0

>  <SCORE.RESTR.CAVITY>
0

>  <SCORE.RESTR.norm>
0

>  <SCORE.SYSTEM>
0

>  <SCORE.SYSTEM.CONST>
0

>  <SCORE.SYSTEM.DIHEDRAL>
0

>  <SCORE.SYSTEM.SOLV>
0

>  <SCORE.SYSTEM.norm>
0

>  <SCORE.heavy>
31

>  <SCORE.norm>
-0.255011

>  <RMSD>
7.385

$$$$
ligand
 OpenBabel11021811433D
libRbt.so/2013.1/901 2013/11/27
 31 33  0  0  0  0  0  0  0  0999 V2000
   40.3477   22.2912    0.6383 C   0  0  0  0  0  0  0  0  0  0  0  0
   37.7328   26.7794   -3.0385 N   0  0  0  0  0  0  0  0  0  0  0  0
   41.3240   21.3462    1.1003 O   0  0  0  0  0  0  0  0  0  0  0  0
   40.5182   23.4939    1.5627 C   0  0  1  0  0  0  0  0  0  0  0  0
   37.4783   29.8582    0.9846 N   0  0  0  0  0  0  0  0  0  0  0  0
   39.5959   24.6623    1.2655 O   0  0  0  0  0  0  0  0  0  0  0  0
   38.5819   24.8098    2.1832 C   0  0  1  0  0  0  0  0  0  0  0  0
   33.4189   24.1782    3.9524 N   0  0  0  0  0  0  0  0  0  0  0  0
   37.2767   24.9631    1.6990 O   0  0  0  0  0  0  0  0  0  0  0  0
   36.8633   26.0812    0.7852 C   0  0  2  0  0  0  0  0  0  0  0  0
   35.4980   29.7541    4.2869 N   0  0  0  0  0  0  0  0  0  0  0  0
   37.0336   24.5448   -1.1647 O   0  0  0  0  0  0  0  0  0  0  0  0
   37.5030   25.8302   -0.6124 C   0  0  1  0  0  0  0  0  0  0  0  0
   36.7742   27.7011    2.5737 O   0  0  0  0  0  0  0  0  0  0  0  0
   37.1025   27.0121   -1.6299 C   0  0  1  0  0  0  0  0  0  0  0  0
   34.8675   26.3136    2.8965 O   0  0  0  0  0  0  0  0  0  0  0  0
   37.6209   28.3811   -1.0076 C   0  0  0  0  0  0  0  0  0  0  0  0
   35.5782   25.3317    6.4182 O   0  0  0  0  0  0  0  0  0  0  0  0
   36.9640   28.5652    0.4232 C   0  0  1  0  0  0  0  0  0  0  0  0
   35.2071   28.1450    6.7380 O   0  0  0  0  0  0  0  0  0  0  0  0
   37.3778   27.4754    1.3600 C   0  0  2  0  0  0  0  0  0  0  0  0
   38.3061   24.0474    4.4264 O   0  0  0  0  0  0  0  0  0  0  0  0
   35.3547   27.7360    2.8713 C   0  0  1  0  0  0  0  0  0  0  0  0
   41.0120   24.2412    3.8764 O   0  0  0  0  0  0  0  0  0  0  0  0
   35.4344   25.4408    4.0081 C   0  0  2  0  0  0  0  0  0  0  0  0
   34.8754   24.0278    3.8890 C   0  0  0  0  0  0  0  0  0  0  0  0
   35.0592   26.0911    5.3598 C   0  0  2  0  0  0  0  0  0  0  0  0
   35.5888   27.5132    5.4404 C   0  0  1  0  0  0  0  0  0  0  0  0
   35.0074   28.3202    4.2647 C   0  0  1  0  0  0  0  0  0  0  0  0
   38.7577   23.6720    3.1757 C   0  0  2  0  0  0  0  0  0  0  0  0
   40.2683   23.2896    3.0614 C   0  0  1  0  0  0  0  0  0  0  0  0
  1  3  1  0  0  0  0
  4  1  1  6  0  0  0
  4  6  1  0  0  0  0
  4 31  1  0  0  0  0
  6  7  1  0  0  0  0
  7  9  1  6  0  0  0
  7 30  1  0  0  0  0
  8 26  1  0  0  0  0
 10  9  1  1  0  0  0
 10 13  1  0  0  0  0
 10 21  1  0  0  0  0
 13 12  1  6  0  0  0
 13 15  1  0  0  0  0
 15  2  1  6  0  0  0
 15 17  1  0  0  0  0
 16 25  1  0  0  0  0
 16 23  1  0  0  0  0
 17 19  1  0  0  0  0
 19  5  1  1  0  0  0
 19 21  1  0  0  0  0
 21 14  1  1  0  0  0
 23 14  1  1  0  0  0
 23 29  1  0  0  0  0
 25 26  1  1  0  0  0
 25 27  1  0  0  0  0
 27 18  1  1  0  0  0
 27 28  1  0  0  0  0
 28 20  1  1  0  0  0
 28 29  1  0  0  0  0
 29 11  1  6  0  0  0
 30 22  1  1  0  0  0
 30 31  1  0  0  0  0
 31 24  1  1  0  0  0
M  END
>  <CHROM.1>
179.19707798,-59.06582228,70.75472264,76.06685808,-55.97722416,-57.53913821
37.25941314,25.82698518,2.34614604,-0.27299444,-0.84060551,2.07949831

>  <Name>
ligand

>  <RI>
0

>  <Rbt.Current_Directory>
/home/itssahil/PROJECTS/Mol_Feturizer/New_Systems/rnas/2ET5

>  <Rbt.Executable>
rbdock ($Id: //depot/dev/client3/rdock/2013.1/src/exe/rbdock.cxx#4 $)

>  <Rbt.Library>
libRbt.so (2013.1, Build901 2013/11/27)

>  <Rbt.Parameter_File>
/export/apps/rDock/src/rDock_2013.1_src/data/scripts/dock_solv.prm

>  <Rbt.Receptor>
prm/pocket_docking_6.prm

>  <SCORE>
-9.44967

>  <SCORE.INTER>
-4.99664

>  <SCORE.INTER.CONST>
1

>  <SCORE.INTER.POLAR>
0

>  <SCORE.INTER.ROT>
6

>  <SCORE.INTER.SOLV>
18.0086

>  <SCORE.INTER.VDW>
-16.934

>  <SCORE.INTER.norm>
-0.161182

>  <SCORE.INTRA>
-4.45303

>  <SCORE.INTRA.DIHEDRAL>
-9.24042

>  <SCORE.INTRA.DIHEDRAL.0>
11.2357

>  <SCORE.INTRA.POLAR>
0

>  <SCORE.INTRA.POLAR.0>
0

>  <SCORE.INTRA.REPUL>
0

>  <SCORE.INTRA.REPUL.0>
0

>  <SCORE.INTRA.SOLV>
-0.752648

>  <SCORE.INTRA.SOLV.lig_0>
-83.3092

>  <SCORE.INTRA.VDW>
0.543507

>  <SCORE.INTRA.VDW.0>
-4.47057

>  <SCORE.INTRA.norm>
-0.143646

>  <SCORE.RESTR>
0

>  <SCORE.RESTR.CAVITY>
0

>  <SCORE.RESTR.norm>
0

>  <SCORE.SYSTEM>
0

>  <SCORE.SYSTEM.CONST>
0

>  <SCORE.SYSTEM.DIHEDRAL>
0

>  <SCORE.SYSTEM.SOLV>
0

>  <SCORE.SYSTEM.norm>
0

>  <SCORE.heavy>
31

>  <SCORE.norm>
-0.304828

>  <RMSD>
7.413

$$$$
ligand
 OpenBabel11021811433D
libRbt.so/2013.1/901 2013/11/27
 31 33  0  0  0  0  0  0  0  0999 V2000
   41.2961   30.3692   -2.0289 C   0  0  0  0  0  0  0  0  0  0  0  0
   46.3800   26.0969   -1.0803 N   0  0  0  0  0  0  0  0  0  0  0  0
   40.0710   30.8807   -2.5738 O   0  0  0  0  0  0  0  0  0  0  0  0
   40.8534   29.2601   -1.0782 C   0  0  1  0  0  0  0  0  0  0  0  0
   44.7814   25.0377    3.6156 N   0  0  0  0  0  0  0  0  0  0  0  0
   41.9834   28.5584   -0.3468 O   0  0  0  0  0  0  0  0  0  0  0  0
   42.0703   28.8956    0.9839 C   0  0  1  0  0  0  0  0  0  0  0  0
   40.5287   24.7054    4.3238 N   0  0  0  0  0  0  0  0  0  0  0  0
   43.3247   29.2635    1.4864 O   0  0  0  0  0  0  0  0  0  0  0  0
   44.4685   28.3009    1.6313 C   0  0  2  0  0  0  0  0  0  0  0  0
   43.9021   30.0607    5.5215 N   0  0  0  0  0  0  0  0  0  0  0  0
   45.1980   28.8251   -0.6892 O   0  0  0  0  0  0  0  0  0  0  0  0
   44.8080   27.7318    0.2219 C   0  0  1  0  0  0  0  0  0  0  0  0
   43.7995   27.6175    3.8485 O   0  0  0  0  0  0  0  0  0  0  0  0
   46.0223   26.6792    0.3228 C   0  0  1  0  0  0  0  0  0  0  0  0
   41.5203   27.3400    4.4759 O   0  0  0  0  0  0  0  0  0  0  0  0
   45.5719   25.5158    1.3096 C   0  0  0  0  0  0  0  0  0  0  0  0
   42.1192   26.1960    7.9693 O   0  0  0  0  0  0  0  0  0  0  0  0
   45.2086   26.1575    2.7128 C   0  0  1  0  0  0  0  0  0  0  0  0
   43.1924   28.8387    8.1070 O   0  0  0  0  0  0  0  0  0  0  0  0
   44.0567   27.1046    2.6000 C   0  0  2  0  0  0  0  0  0  0  0  0
   40.5069   29.8361    2.5203 O   0  0  0  0  0  0  0  0  0  0  0  0
   42.6239   28.3444    4.2895 C   0  0  1  0  0  0  0  0  0  0  0  0
   39.1137   28.5152    0.5263 O   0  0  0  0  0  0  0  0  0  0  0  0
   41.7356   26.3206    5.5864 C   0  0  2  0  0  0  0  0  0  0  0  0
   40.5557   25.3569    5.6364 C   0  0  0  0  0  0  0  0  0  0  0  0
   41.8979   27.0940    6.9153 C   0  0  2  0  0  0  0  0  0  0  0  0
   43.0516   28.0792    6.8295 C   0  0  1  0  0  0  0  0  0  0  0  0
   42.7839   29.0472    5.6621 C   0  0  1  0  0  0  0  0  0  0  0  0
   40.9704   29.9175    1.2212 C   0  0  2  0  0  0  0  0  0  0  0  0
   39.9321   29.6380    0.0875 C   0  0  1  0  0  0  0  0  0  0  0  0
  1  3  1  0  0  0  0
  4  1  1  1  0  0  0
  4  6  1  0  0  0  0
  4 31  1  0  0  0  0
  6  7  1  0  0  0  0
  7  9  1  6  0  0  0
  7 30  1  0  0  0  0
  8 26  1  0  0  0  0
 10  9  1  6  0  0  0
 10 13  1  0  0  0  0
 10 21  1  0  0  0  0
 13 12  1  6  0  0  0
 13 15  1  0  0  0  0
 15  2  1  6  0  0  0
 15 17  1  0  0  0  0
 16 25  1  0  0  0  0
 16 23  1  0  0  0  0
 17 19  1  0  0  0  0
 19  5  1  1  0  0  0
 19 21  1  0  0  0  0
 21 14  1  1  0  0  0
 23 14  1  1  0  0  0
 23 29  1  0  0  0  0
 25 26  1  1  0  0  0
 25 27  1  0  0  0  0
 27 18  1  1  0  0  0
 27 28  1  0  0  0  0
 28 20  1  1  0  0  0
 28 29  1  0  0  0  0
 29 11  1  6  0  0  0
 30 22  1  1  0  0  0
 30 31  1  0  0  0  0
 31 24  1  1  0  0  0
M  END
>  <CHROM.1>
-179.22644136,-68.37019419,60.00575895,75.98205688,76.13302604,60.41894798
42.68601142,27.94832326,2.59348857,1.62320044,0.48626094,-1.31726294

>  <Name>
ligand

>  <RI>
0

>  <Rbt.Current_Directory>
/home/itssahil/PROJECTS/Mol_Feturizer/New_Systems/rnas/2ET5

>  <Rbt.Executable>
rbdock ($Id: //depot/dev/client3/rdock/2013.1/src/exe/rbdock.cxx#4 $)

>  <Rbt.Library>
libRbt.so (2013.1, Build901 2013/11/27)

>  <Rbt.Parameter_File>
/export/apps/rDock/src/rDock_2013.1_src/data/scripts/dock_solv.prm

>  <Rbt.Receptor>
prm/pocket_docking_8.prm

>  <SCORE>
-6.63502

>  <SCORE.INTER>
-1.6183

>  <SCORE.INTER.CONST>
1

>  <SCORE.INTER.POLAR>
0

>  <SCORE.INTER.ROT>
6

>  <SCORE.INTER.SOLV>
9.05334

>  <SCORE.INTER.VDW>
-11.6966

>  <SCORE.INTER.norm>
-0.0522031

>  <SCORE.INTRA>
-5.01672

>  <SCORE.INTRA.DIHEDRAL>
-8.37588

>  <SCORE.INTRA.DIHEDRAL.0>
11.2357

>  <SCORE.INTRA.POLAR>
0

>  <SCORE.INTRA.POLAR.0>
0

>  <SCORE.INTRA.REPUL>
0

>  <SCORE.INTRA.REPUL.0>
0

>  <SCORE.INTRA.SOLV>
-3.12038

>  <SCORE.INTRA.SOLV.lig_0>
-83.3092

>  <SCORE.INTRA.VDW>
0.731409

>  <SCORE.INTRA.VDW.0>
-4.47057

>  <SCORE.INTRA.norm>
-0.16183

>  <SCORE.RESTR>
0

>  <SCORE.RESTR.CAVITY>
0

>  <SCORE.RESTR.norm>
0

>  <SCORE.SYSTEM>
0

>  <SCORE.SYSTEM.CONST>
0

>  <SCORE.SYSTEM.DIHEDRAL>
0

>  <SCORE.SYSTEM.SOLV>
0

>  <SCORE.SYSTEM.norm>
0

>  <SCORE.heavy>
31

>  <SCORE.norm>
-0.214033

>  <RMSD>
7.422

$$$$
ligand
 OpenBabel11021811433D
libRbt.so/2013.1/901 2013/11/27
 31 33  0  0  0  0  0  0  0  0999 V2000
   46.2233   21.0497    2.5052 C   0  0  0  0  0  0  0  0  0  0  0  0
   41.0171   26.3858    6.5882 N   0  0  0  0  0  0  0  0  0  0  0  0
   46.4303   19.6974    2.0715 O   0  0  0  0  0  0  0  0  0  0  0  0
   44.7758   21.0745    2.9890 C   0  0  1  0  0  0  0  0  0  0  0  0
   44.3712   29.2537    4.0875 N   0  0  0  0  0  0  0  0  0  0  0  0
   44.3556   22.3602    3.6778 O   0  0  0  0  0  0  0  0  0  0  0  0
   43.5249   23.1471    2.9144 C   0  0  1  0  0  0  0  0  0  0  0  0
   49.7763   26.8390    2.7749 N   0  0  0  0  0  0  0  0  0  0  0  0
   43.8416   24.5055    2.7887 O   0  0  0  0  0  0  0  0  0  0  0  0
   43.8523   25.4595    3.9486 C   0  0  2  0  0  0  0  0  0  0  0  0
   43.9226   27.8731    0.4472 N   0  0  0  0  0  0  0  0  0  0  0  0
   42.1809   24.0407    5.1256 O   0  0  0  0  0  0  0  0  0  0  0  0
   42.4563   25.4056    4.6369 C   0  0  1  0  0  0  0  0  0  0  0  0
   45.3826   26.9821    2.8665 O   0  0  0  0  0  0  0  0  0  0  0  0
   42.4085   26.4248    5.8825 C   0  0  1  0  0  0  0  0  0  0  0  0
   47.3972   27.7933    1.8925 O   0  0  0  0  0  0  0  0  0  0  0  0
   42.7086   27.8838    5.3244 C   0  0  0  0  0  0  0  0  0  0  0  0
   47.8241   25.0991   -0.6432 O   0  0  0  0  0  0  0  0  0  0  0  0
   44.1226   27.8686    4.6083 C   0  0  1  0  0  0  0  0  0  0  0  0
   45.3808   26.2681   -1.5477 O   0  0  0  0  0  0  0  0  0  0  0  0
   44.1321   26.9417    3.4347 C   0  0  2  0  0  0  0  0  0  0  0  0
   42.1242   22.6795    1.0412 O   0  0  0  0  0  0  0  0  0  0  0  0
   45.9021   27.9522    1.9211 C   0  0  1  0  0  0  0  0  0  0  0  0
   42.4482   20.3585    2.5142 O   0  0  0  0  0  0  0  0  0  0  0  0
   47.9101   26.4673    1.3471 C   0  0  2  0  0  0  0  0  0  0  0  0
   49.4330   26.4407    1.4068 C   0  0  0  0  0  0  0  0  0  0  0  0
   47.3929   26.3188   -0.1024 C   0  0  2  0  0  0  0  0  0  0  0  0
   45.8756   26.3912   -0.1446 C   0  0  1  0  0  0  0  0  0  0  0  0
   45.4320   27.7364    0.4596 C   0  0  1  0  0  0  0  0  0  0  0  0
   43.3618   22.4117    1.5941 C   0  0  2  0  0  0  0  0  0  0  0  0
   43.6657   20.9193    1.9431 C   0  0  1  0  0  0  0  0  0  0  0  0
  1  3  1  0  0  0  0
  4  1  1  6  0  0  0
  4  6  1  0  0  0  0
  4 31  1  0  0  0  0
  6  7  1  0  0  0  0
  7  9  1  6  0  0  0
  7 30  1  0  0  0  0
  8 26  1  0  0  0  0
 10  9  1  6  0  0  0
 10 13  1  0  0  0  0
 10 21  1  0  0  0  0
 13 12  1  1  0  0  0
 13 15  1  0  0  0  0
 15  2  1  6  0  0  0
 15 17  1  0  0  0  0
 16 25  1  0  0  0  0
 16 23  1  0  0  0  0
 17 19  1  0  0  0  0
 19  5  1  6  0  0  0
 19 21  1  0  0  0  0
 21 14  1  1  0  0  0
 23 14  1  1  0  0  0
 23 29  1  0  0  0  0
 25 26  1  6  0  0  0
 25 27  1  0  0  0  0
 27 18  1  1  0  0  0
 27 28  1  0  0  0  0
 28 20  1  6  0  0  0
 28 29  1  0  0  0  0
 29 11  1  1  0  0  0
 30 22  1  1  0  0  0
 30 31  1  0  0  0  0
 31 24  1  1  0  0  0
M  END
>  <CHROM.1>
172.21728570,-63.79792654,-55.70109803,164.79517829,159.12754928,50.11179533
44.82907498,25.10360221,2.50266721,-2.33186090,0.69413281,0.21938050

>  <Name>
ligand

>  <RI>
0

>  <Rbt.Current_Directory>
/home/itssahil/PROJECTS/Mol_Feturizer/New_Systems/rnas/2ET5

>  <Rbt.Executable>
rbdock ($Id: //depot/dev/client3/rdock/2013.1/src/exe/rbdock.cxx#4 $)

>  <Rbt.Library>
libRbt.so (2013.1, Build901 2013/11/27)

>  <Rbt.Parameter_File>
/export/apps/rDock/src/rDock_2013.1_src/data/scripts/dock_solv.prm

>  <Rbt.Receptor>
prm/pocket_docking_8.prm

>  <SCORE>
-10.4887

>  <SCORE.INTER>
-8.14439

>  <SCORE.INTER.CONST>
1

>  <SCORE.INTER.POLAR>
0

>  <SCORE.INTER.ROT>
6

>  <SCORE.INTER.SOLV>
12.8692

>  <SCORE.INTER.VDW>
-17.3193

>  <SCORE.INTER.norm>
-0.262722

>  <SCORE.INTRA>
-2.3443

>  <SCORE.INTRA.DIHEDRAL>
-7.36577

>  <SCORE.INTRA.DIHEDRAL.0>
11.2357

>  <SCORE.INTRA.POLAR>
0

>  <SCORE.INTRA.POLAR.0>
0

>  <SCORE.INTRA.REPUL>
0

>  <SCORE.INTRA.REPUL.0>
0

>  <SCORE.INTRA.SOLV>
-1.76027

>  <SCORE.INTRA.SOLV.lig_0>
-83.3092

>  <SCORE.INTRA.VDW>
2.21872

>  <SCORE.INTRA.VDW.0>
-4.47057

>  <SCORE.INTRA.norm>
-0.0756227

>  <SCORE.RESTR>
0

>  <SCORE.RESTR.CAVITY>
0

>  <SCORE.RESTR.norm>
0

>  <SCORE.SYSTEM>
0

>  <SCORE.SYSTEM.CONST>
0

>  <SCORE.SYSTEM.DIHEDRAL>
0

>  <SCORE.SYSTEM.SOLV>
0

>  <SCORE.SYSTEM.norm>
0

>  <SCORE.heavy>
31

>  <SCORE.norm>
-0.338345

>  <RMSD>
7.428

$$$$
ligand
 OpenBabel11021811433D
libRbt.so/2013.1/901 2013/11/27
 31 33  0  0  0  0  0  0  0  0999 V2000
   40.3062   22.2550    0.7733 C   0  0  0  0  0  0  0  0  0  0  0  0
   37.7047   26.7655   -2.9675 N   0  0  0  0  0  0  0  0  0  0  0  0
   41.3111   21.3346    1.2234 O   0  0  0  0  0  0  0  0  0  0  0  0
   40.5093   23.4924    1.6438 C   0  0  1  0  0  0  0  0  0  0  0  0
   37.4270   29.8883    1.0200 N   0  0  0  0  0  0  0  0  0  0  0  0
   39.5917   24.6574    1.3199 O   0  0  0  0  0  0  0  0  0  0  0  0
   38.6003   24.8526    2.2532 C   0  0  1  0  0  0  0  0  0  0  0  0
   33.4209   24.1837    3.9755 N   0  0  0  0  0  0  0  0  0  0  0  0
   37.2860   24.9999    1.7925 O   0  0  0  0  0  0  0  0  0  0  0  0
   36.8563   26.1021    0.8671 C   0  0  2  0  0  0  0  0  0  0  0  0
   35.4714   29.7654    4.3800 N   0  0  0  0  0  0  0  0  0  0  0  0
   37.0383   24.5450   -1.0652 O   0  0  0  0  0  0  0  0  0  0  0  0
   37.4943   25.8422   -0.5296 C   0  0  1  0  0  0  0  0  0  0  0  0
   36.7539   27.7419    2.6368 O   0  0  0  0  0  0  0  0  0  0  0  0
   37.0763   27.0073   -1.5595 C   0  0  1  0  0  0  0  0  0  0  0  0
   34.8554   26.3401    2.9463 O   0  0  0  0  0  0  0  0  0  0  0  0
   37.5805   28.3896   -0.9552 C   0  0  0  0  0  0  0  0  0  0  0  0
   35.5807   25.3160    6.4529 O   0  0  0  0  0  0  0  0  0  0  0  0
   36.9262   28.5828    0.4756 C   0  0  1  0  0  0  0  0  0  0  0  0
   35.1956   28.1228    6.8106 O   0  0  0  0  0  0  0  0  0  0  0  0
   37.3561   27.5091    1.4238 C   0  0  2  0  0  0  0  0  0  0  0  0
   38.3684   24.1849    4.5314 O   0  0  0  0  0  0  0  0  0  0  0  0
   35.3351   27.7653    2.9385 C   0  0  1  0  0  0  0  0  0  0  0  0
   41.0628   24.3277    3.9135 O   0  0  0  0  0  0  0  0  0  0  0  0
   35.4299   25.4559    4.0449 C   0  0  2  0  0  0  0  0  0  0  0  0
   34.8781   24.0416    3.9087 C   0  0  0  0  0  0  0  0  0  0  0  0
   35.0549   26.0864    5.4059 C   0  0  2  0  0  0  0  0  0  0  0  0
   35.5771   27.5101    5.5038 C   0  0  1  0  0  0  0  0  0  0  0  0
   34.9883   28.3293    4.3403 C   0  0  1  0  0  0  0  0  0  0  0  0
   38.7877   23.7543    3.2872 C   0  0  2  0  0  0  0  0  0  0  0  0
   40.2916   23.3516    3.1548 C   0  0  1  0  0  0  0  0  0  0  0  0
  1  3  1  0  0  0  0
  4  1  1  6  0  0  0
  4  6  1  0  0  0  0
  4 31  1  0  0  0  0
  6  7  1  0  0  0  0
  7  9  1  6  0  0  0
  7 30  1  0  0  0  0
  8 26  1  0  0  0  0
 10  9  1  1  0  0  0
 10 13  1  0  0  0  0
 10 21  1  0  0  0  0
 13 12  1  6  0  0  0
 13 15  1  0  0  0  0
 15  2  1  6  0  0  0
 15 17  1  0  0  0  0
 16 25  1  0  0  0  0
 16 23  1  0  0  0  0
 17 19  1  0  0  0  0
 19  5  1  1  0  0  0
 19 21  1  0  0  0  0
 21 14  1  1  0  0  0
 23 14  1  1  0  0  0
 23 29  1  0  0  0  0
 25 26  1  1  0  0  0
 25 27  1  0  0  0  0
 27 18  1  1  0  0  0
 27 28  1  0  0  0  0
 28 20  1  1  0  0  0
 28 29  1  0  0  0  0
 29 11  1  6  0  0  0
 30 22  1  1  0  0  0
 30 31  1  0  0  0  0
 31 24  1  1  0  0  0
M  END
>  <CHROM.1>
177.45937211,-60.45197389,69.46627398,74.65093249,-56.07007865,-57.44257219
37.25317713,25.84672081,2.41590912,-0.26874935,-0.83553016,2.06560643

>  <Name>
ligand

>  <RI>
0

>  <Rbt.Current_Directory>
/home/itssahil/PROJECTS/Mol_Feturizer/New_Systems/rnas/2ET5

>  <Rbt.Executable>
rbdock ($Id: //depot/dev/client3/rdock/2013.1/src/exe/rbdock.cxx#4 $)

>  <Rbt.Library>
libRbt.so (2013.1, Build901 2013/11/27)

>  <Rbt.Parameter_File>
/export/apps/rDock/src/rDock_2013.1_src/data/scripts/dock_solv.prm

>  <Rbt.Receptor>
prm/pocket_docking_7.prm

>  <SCORE>
-9.47662

>  <SCORE.INTER>
-4.84889

>  <SCORE.INTER.CONST>
1

>  <SCORE.INTER.POLAR>
0

>  <SCORE.INTER.ROT>
6

>  <SCORE.INTER.SOLV>
18.021

>  <SCORE.INTER.VDW>
-16.8396

>  <SCORE.INTER.norm>
-0.156416

>  <SCORE.INTRA>
-4.62773

>  <SCORE.INTRA.DIHEDRAL>
-9.53787

>  <SCORE.INTRA.DIHEDRAL.0>
11.2357

>  <SCORE.INTRA.POLAR>
0

>  <SCORE.INTRA.POLAR.0>
0

>  <SCORE.INTRA.REPUL>
0

>  <SCORE.INTRA.REPUL.0>
0

>  <SCORE.INTRA.SOLV>
-0.818229

>  <SCORE.INTRA.SOLV.lig_0>
-83.3092

>  <SCORE.INTRA.VDW>
0.55032

>  <SCORE.INTRA.VDW.0>
-4.47057

>  <SCORE.INTRA.norm>
-0.149282

>  <SCORE.RESTR>
0

>  <SCORE.RESTR.CAVITY>
0

>  <SCORE.RESTR.norm>
0

>  <SCORE.SYSTEM>
0

>  <SCORE.SYSTEM.CONST>
0

>  <SCORE.SYSTEM.DIHEDRAL>
0

>  <SCORE.SYSTEM.SOLV>
0

>  <SCORE.SYSTEM.norm>
0

>  <SCORE.heavy>
31

>  <SCORE.norm>
-0.305698

>  <RMSD>
7.429

$$$$
ligand
 OpenBabel11021811433D
libRbt.so/2013.1/901 2013/11/27
 31 33  0  0  0  0  0  0  0  0999 V2000
   44.1176   24.4933    4.6849 C   0  0  0  0  0  0  0  0  0  0  0  0
   42.1578   27.5639   -0.1414 N   0  0  0  0  0  0  0  0  0  0  0  0
   44.7034   25.3527    3.6960 O   0  0  0  0  0  0  0  0  0  0  0  0
   43.0476   25.3556    5.3496 C   0  0  1  0  0  0  0  0  0  0  0  0
   37.5964   28.6002    1.8203 N   0  0  0  0  0  0  0  0  0  0  0  0
   41.9419   25.8268    4.4226 O   0  0  0  0  0  0  0  0  0  0  0  0
   40.7450   25.1783    4.6201 C   0  0  1  0  0  0  0  0  0  0  0  0
   38.9376   28.2269    6.7630 N   0  0  0  0  0  0  0  0  0  0  0  0
   40.0857   24.6627    3.4972 O   0  0  0  0  0  0  0  0  0  0  0  0
   39.7749   25.4810    2.2766 C   0  0  2  0  0  0  0  0  0  0  0  0
   35.4078   24.1532    3.1624 N   0  0  0  0  0  0  0  0  0  0  0  0
   42.0350   24.9749    1.3671 O   0  0  0  0  0  0  0  0  0  0  0  0
   41.1103   26.0663    1.7293 C   0  0  1  0  0  0  0  0  0  0  0  0
   37.6026   26.1424    3.0981 O   0  0  0  0  0  0  0  0  0  0  0  0
   40.8312   26.9677    0.4246 C   0  0  1  0  0  0  0  0  0  0  0  0
   37.8537   25.8721    5.4495 O   0  0  0  0  0  0  0  0  0  0  0  0
   39.8335   28.1324    0.8469 C   0  0  0  0  0  0  0  0  0  0  0  0
   34.7891   27.7229    6.4760 O   0  0  0  0  0  0  0  0  0  0  0  0
   38.5106   27.4780    1.4251 C   0  0  1  0  0  0  0  0  0  0  0  0
   33.6164   25.5534    5.0365 O   0  0  0  0  0  0  0  0  0  0  0  0
   38.7896   26.6747    2.6553 C   0  0  2  0  0  0  0  0  0  0  0  0
   39.8565   23.9456    6.4587 O   0  0  0  0  0  0  0  0  0  0  0  0
   37.3965   25.2019    4.1833 C   0  0  1  0  0  0  0  0  0  0  0  0
   41.7282   25.7474    7.4139 O   0  0  0  0  0  0  0  0  0  0  0  0
   37.0440   27.0865    5.8834 C   0  0  2  0  0  0  0  0  0  0  0  0
   37.6392   27.6733    7.1581 C   0  0  0  0  0  0  0  0  0  0  0  0
   35.5814   26.6312    6.0933 C   0  0  2  0  0  0  0  0  0  0  0  0
   35.0216   26.0105    4.8242 C   0  0  1  0  0  0  0  0  0  0  0  0
   35.9136   24.8200    4.4260 C   0  0  1  0  0  0  0  0  0  0  0  0
   41.0047   24.1634    5.7214 C   0  0  2  0  0  0  0  0  0  0  0  0
   42.2354   24.7379    6.4938 C   0  0  1  0  0  0  0  0  0  0  0  0
  1  3  1  0  0  0  0
  4  1  1  6  0  0  0
  4  6  1  0  0  0  0
  4 31  1  0  0  0  0
  6  7  1  0  0  0  0
  7  9  1  6  0  0  0
  7 30  1  0  0  0  0
  8 26  1  0  0  0  0
 10  9  1  1  0  0  0
 10 13  1  0  0  0  0
 10 21  1  0  0  0  0
 13 12  1  6  0  0  0
 13 15  1  0  0  0  0
 15  2  1  1  0  0  0
 15 17  1  0  0  0  0
 16 25  1  0  0  0  0
 16 23  1  0  0  0  0
 17 19  1  0  0  0  0
 19  5  1  1  0  0  0
 19 21  1  0  0  0  0
 21 14  1  6  0  0  0
 23 14  1  6  0  0  0
 23 29  1  0  0  0  0
 25 26  1  1  0  0  0
 25 27  1  0  0  0  0
 27 18  1  6  0  0  0
 27 28  1  0  0  0  0
 28 20  1  1  0  0  0
 28 29  1  0  0  0  0
 29 11  1  6  0  0  0
 30 22  1  1  0  0  0
 30 31  1  0  0  0  0
 31 24  1  1  0  0  0
M  END
>  <CHROM.1>
61.94633585,-52.47252862,57.06018465,62.55794698,56.05494979,68.23928217
39.26856570,26.00172991,4.13656147,-0.21488862,-0.16930423,1.81700771

>  <Name>
ligand

>  <RI>
0

>  <Rbt.Current_Directory>
/home/itssahil/PROJECTS/Mol_Feturizer/New_Systems/rnas/2ET5

>  <Rbt.Executable>
rbdock ($Id: //depot/dev/client3/rdock/2013.1/src/exe/rbdock.cxx#4 $)

>  <Rbt.Library>
libRbt.so (2013.1, Build901 2013/11/27)

>  <Rbt.Parameter_File>
/export/apps/rDock/src/rDock_2013.1_src/data/scripts/dock_solv.prm

>  <Rbt.Receptor>
prm/pocket_docking_5.prm

>  <SCORE>
-9.08117

>  <SCORE.INTER>
-3.04031

>  <SCORE.INTER.CONST>
1

>  <SCORE.INTER.POLAR>
0

>  <SCORE.INTER.ROT>
6

>  <SCORE.INTER.SOLV>
10.7116

>  <SCORE.INTER.VDW>
-13.1974

>  <SCORE.INTER.norm>
-0.0980747

>  <SCORE.INTRA>
-6.04085

>  <SCORE.INTRA.DIHEDRAL>
-10.4162

>  <SCORE.INTRA.DIHEDRAL.0>
11.2357

>  <SCORE.INTRA.POLAR>
0

>  <SCORE.INTRA.POLAR.0>
0

>  <SCORE.INTRA.REPUL>
0

>  <SCORE.INTRA.REPUL.0>
0

>  <SCORE.INTRA.SOLV>
-2.76562

>  <SCORE.INTRA.SOLV.lig_0>
-83.3092

>  <SCORE.INTRA.VDW>
0.550055

>  <SCORE.INTRA.VDW.0>
-4.47057

>  <SCORE.INTRA.norm>
-0.194866

>  <SCORE.RESTR>
0

>  <SCORE.RESTR.CAVITY>
0

>  <SCORE.RESTR.norm>
0

>  <SCORE.SYSTEM>
0

>  <SCORE.SYSTEM.CONST>
0

>  <SCORE.SYSTEM.DIHEDRAL>
0

>  <SCORE.SYSTEM.SOLV>
0

>  <SCORE.SYSTEM.norm>
0

>  <SCORE.heavy>
31

>  <SCORE.norm>
-0.292941

>  <RMSD>
7.433

$$$$
ligand
 OpenBabel11021811433D
libRbt.so/2013.1/901 2013/11/27
 31 33  0  0  0  0  0  0  0  0999 V2000
   40.3224   22.2176    0.8210 C   0  0  0  0  0  0  0  0  0  0  0  0
   37.7343   26.6613   -2.9851 N   0  0  0  0  0  0  0  0  0  0  0  0
   40.6450   22.6332   -0.5142 O   0  0  0  0  0  0  0  0  0  0  0  0
   40.5292   23.4708    1.6677 C   0  0  1  0  0  0  0  0  0  0  0  0
   37.4149   29.8543    0.9431 N   0  0  0  0  0  0  0  0  0  0  0  0
   39.6097   24.6294    1.3271 O   0  0  0  0  0  0  0  0  0  0  0  0
   38.6227   24.8414    2.2615 C   0  0  1  0  0  0  0  0  0  0  0  0
   33.4389   24.1575    3.9140 N   0  0  0  0  0  0  0  0  0  0  0  0
   37.3062   24.9800    1.8045 O   0  0  0  0  0  0  0  0  0  0  0  0
   36.8727   26.0619    0.8571 C   0  0  2  0  0  0  0  0  0  0  0  0
   35.4445   29.7546    4.3242 N   0  0  0  0  0  0  0  0  0  0  0  0
   37.0753   24.4711   -1.0455 O   0  0  0  0  0  0  0  0  0  0  0  0
   37.5192   25.7812   -0.5318 C   0  0  1  0  0  0  0  0  0  0  0  0
   36.7500   27.7329    2.5959 O   0  0  0  0  0  0  0  0  0  0  0  0
   37.0976   26.9241   -1.5847 C   0  0  1  0  0  0  0  0  0  0  0  0
   34.8613   26.3177    2.9044 O   0  0  0  0  0  0  0  0  0  0  0  0
   37.5887   28.3210   -1.0035 C   0  0  0  0  0  0  0  0  0  0  0  0
   35.5800   25.3161    6.4188 O   0  0  0  0  0  0  0  0  0  0  0  0
   36.9263   28.5354    0.4205 C   0  0  1  0  0  0  0  0  0  0  0  0
   35.1715   28.1215    6.7614 O   0  0  0  0  0  0  0  0  0  0  0  0
   37.3596   27.4824    1.3901 C   0  0  2  0  0  0  0  0  0  0  0  0
   38.4020   24.2154    4.5525 O   0  0  0  0  0  0  0  0  0  0  0  0
   35.3298   27.7466    2.8917 C   0  0  1  0  0  0  0  0  0  0  0  0
   41.0934   24.3476    3.9191 O   0  0  0  0  0  0  0  0  0  0  0  0
   35.4381   25.4433    4.0095 C   0  0  2  0  0  0  0  0  0  0  0  0
   34.8980   24.0241    3.8778 C   0  0  0  0  0  0  0  0  0  0  0  0
   35.0526   26.0774    5.3660 C   0  0  2  0  0  0  0  0  0  0  0  0
   35.5632   27.5056    5.4592 C   0  0  1  0  0  0  0  0  0  0  0  0
   34.9728   28.3146    4.2894 C   0  0  1  0  0  0  0  0  0  0  0  0
   38.8155   23.7623    3.3144 C   0  0  2  0  0  0  0  0  0  0  0  0
   40.3189   23.3576    3.1822 C   0  0  1  0  0  0  0  0  0  0  0  0
  1  3  1  0  0  0  0
  4  1  1  6  0  0  0
  4  6  1  0  0  0  0
  4 31  1  0  0  0  0
  6  7  1  0  0  0  0
  7  9  1  6  0  0  0
  7 30  1  0  0  0  0
  8 26  1  0  0  0  0
 10  9  1  1  0  0  0
 10 13  1  0  0  0  0
 10 21  1  0  0  0  0
 13 12  1  6  0  0  0
 13 15  1  0  0  0  0
 15  2  1  6  0  0  0
 15 17  1  0  0  0  0
 16 25  1  0  0  0  0
 16 23  1  0  0  0  0
 17 19  1  0  0  0  0
 19  5  1  1  0  0  0
 19 21  1  0  0  0  0
 21 14  1  1  0  0  0
 23 14  1  1  0  0  0
 23 29  1  0  0  0  0
 25 26  1  1  0  0  0
 25 27  1  0  0  0  0
 27 18  1  1  0  0  0
 27 28  1  0  0  0  0
 28 20  1  1  0  0  0
 28 29  1  0  0  0  0
 29 11  1  6  0  0  0
 30 22  1  1  0  0  0
 30 31  1  0  0  0  0
 31 24  1  1  0  0  0
M  END
>  <CHROM.1>
63.09764876,-60.21225512,68.68759084,73.75158741,-55.83079258,-56.46433998
37.23888060,25.87066041,2.33378218,-0.42389548,-0.83784685,2.05098766

>  <Name>
ligand

>  <RI>
0

>  <Rbt.Current_Directory>
/home/itssahil/PROJECTS/Mol_Feturizer/New_Systems/rnas/2ET5

>  <Rbt.Executable>
rbdock ($Id: //depot/dev/client3/rdock/2013.1/src/exe/rbdock.cxx#4 $)

>  <Rbt.Library>
libRbt.so (2013.1, Build901 2013/11/27)

>  <Rbt.Parameter_File>
/export/apps/rDock/src/rDock_2013.1_src/data/scripts/dock_solv.prm

>  <Rbt.Receptor>
prm/pocket_docking_8.prm

>  <SCORE>
-9.55505

>  <SCORE.INTER>
-4.73385

>  <SCORE.INTER.CONST>
1

>  <SCORE.INTER.POLAR>
0

>  <SCORE.INTER.ROT>
6

>  <SCORE.INTER.SOLV>
17.7653

>  <SCORE.INTER.VDW>
-16.6777

>  <SCORE.INTER.norm>
-0.152705

>  <SCORE.INTRA>
-4.82119

>  <SCORE.INTRA.DIHEDRAL>
-9.67567

>  <SCORE.INTRA.DIHEDRAL.0>
11.2357

>  <SCORE.INTRA.POLAR>
0

>  <SCORE.INTRA.POLAR.0>
0

>  <SCORE.INTRA.REPUL>
0

>  <SCORE.INTRA.REPUL.0>
0

>  <SCORE.INTRA.SOLV>
-0.825115

>  <SCORE.INTRA.SOLV.lig_0>
-83.3092

>  <SCORE.INTRA.VDW>
0.429199

>  <SCORE.INTRA.VDW.0>
-4.47057

>  <SCORE.INTRA.norm>
-0.155522

>  <SCORE.RESTR>
0

>  <SCORE.RESTR.CAVITY>
0

>  <SCORE.RESTR.norm>
0

>  <SCORE.SYSTEM>
0

>  <SCORE.SYSTEM.CONST>
0

>  <SCORE.SYSTEM.DIHEDRAL>
0

>  <SCORE.SYSTEM.SOLV>
0

>  <SCORE.SYSTEM.norm>
0

>  <SCORE.heavy>
31

>  <SCORE.norm>
-0.308227

>  <RMSD>
7.440

$$$$
ligand
 OpenBabel11021811433D
libRbt.so/2013.1/901 2013/11/27
 31 33  0  0  0  0  0  0  0  0999 V2000
   36.1888   29.2021    3.7863 C   0  0  0  0  0  0  0  0  0  0  0  0
   33.0089   25.3941    4.6660 N   0  0  0  0  0  0  0  0  0  0  0  0
   35.2024   28.1598    3.7692 O   0  0  0  0  0  0  0  0  0  0  0  0
   36.9887   28.9870    2.5042 C   0  0  1  0  0  0  0  0  0  0  0  0
   37.2080   26.6823    7.2031 N   0  0  0  0  0  0  0  0  0  0  0  0
   37.9584   27.8200    2.5459 O   0  0  0  0  0  0  0  0  0  0  0  0
   37.5468   26.7360    1.8058 C   0  0  1  0  0  0  0  0  0  0  0  0
   41.8763   29.7107    5.8781 N   0  0  0  0  0  0  0  0  0  0  0  0
   37.5783   25.4757    2.4157 O   0  0  0  0  0  0  0  0  0  0  0  0
   36.8664   25.1647    3.7011 C   0  0  2  0  0  0  0  0  0  0  0  0
   40.9286   24.1461    3.9642 N   0  0  0  0  0  0  0  0  0  0  0  0
   34.8173   24.5745    2.4186 O   0  0  0  0  0  0  0  0  0  0  0  0
   35.3466   25.4350    3.4943 C   0  0  1  0  0  0  0  0  0  0  0  0
   38.7467   25.8197    5.0672 O   0  0  0  0  0  0  0  0  0  0  0  0
   34.5359   25.1306    4.8517 C   0  0  1  0  0  0  0  0  0  0  0  0
   40.1839   27.7109    4.9156 O   0  0  0  0  0  0  0  0  0  0  0  0
   35.1285   26.0714    5.9892 C   0  0  0  0  0  0  0  0  0  0  0  0
   42.4044   26.8582    7.7815 O   0  0  0  0  0  0  0  0  0  0  0  0
   36.6793   25.7755    6.1308 C   0  0  1  0  0  0  0  0  0  0  0  0
   42.9557   24.6643    6.0389 O   0  0  0  0  0  0  0  0  0  0  0  0
   37.4157   26.0983    4.8698 C   0  0  2  0  0  0  0  0  0  0  0  0
   35.9937   26.4978    0.0112 O   0  0  0  0  0  0  0  0  0  0  0  0
   39.8864   26.3520    4.3443 C   0  0  1  0  0  0  0  0  0  0  0  0
   36.9483   29.0959    0.0258 O   0  0  0  0  0  0  0  0  0  0  0  0
   40.6513   27.7303    6.3647 C   0  0  2  0  0  0  0  0  0  0  0  0
   40.8844   29.1689    6.8112 C   0  0  0  0  0  0  0  0  0  0  0  0
   41.9441   26.8872    6.4573 C   0  0  2  0  0  0  0  0  0  0  0  0
   41.7007   25.4695    5.9674 C   0  0  1  0  0  0  0  0  0  0  0  0
   41.1917   25.5332    4.5154 C   0  0  1  0  0  0  0  0  0  0  0  0
   36.1960   27.1237    1.2263 C   0  0  2  0  0  0  0  0  0  0  0  0
   36.2142   28.6860    1.2158 C   0  0  1  0  0  0  0  0  0  0  0  0
  1  3  1  0  0  0  0
  4  1  1  1  0  0  0
  4  6  1  0  0  0  0
  4 31  1  0  0  0  0
  6  7  1  0  0  0  0
  7  9  1  1  0  0  0
  7 30  1  0  0  0  0
  8 26  1  0  0  0  0
 10  9  1  6  0  0  0
 10 13  1  0  0  0  0
 10 21  1  0  0  0  0
 13 12  1  6  0  0  0
 13 15  1  0  0  0  0
 15  2  1  6  0  0  0
 15 17  1  0  0  0  0
 16 25  1  0  0  0  0
 16 23  1  0  0  0  0
 17 19  1  0  0  0  0
 19  5  1  1  0  0  0
 19 21  1  0  0  0  0
 21 14  1  1  0  0  0
 23 14  1  1  0  0  0
 23 29  1  0  0  0  0
 25 26  1  6  0  0  0
 25 27  1  0  0  0  0
 27 18  1  1  0  0  0
 27 28  1  0  0  0  0
 28 20  1  6  0  0  0
 28 29  1  0  0  0  0
 29 11  1  1  0  0  0
 30 22  1  6  0  0  0
 30 31  1  0  0  0  0
 31 24  1  6  0  0  0
M  END
>  <CHROM.1>
-75.29982017,56.10231093,59.12399338,80.82264356,84.10442797,-57.82586264
38.11095479,26.71945205,4.18855826,-2.69866901,0.33597996,2.18156615

>  <Name>
ligand

>  <RI>
0

>  <Rbt.Current_Directory>
/home/itssahil/PROJECTS/Mol_Feturizer/New_Systems/rnas/2ET5

>  <Rbt.Executable>
rbdock ($Id: //depot/dev/client3/rdock/2013.1/src/exe/rbdock.cxx#4 $)

>  <Rbt.Library>
libRbt.so (2013.1, Build901 2013/11/27)

>  <Rbt.Parameter_File>
/export/apps/rDock/src/rDock_2013.1_src/data/scripts/dock_solv.prm

>  <Rbt.Receptor>
prm/pocket_docking_7.prm

>  <SCORE>
-5.46415

>  <SCORE.INTER>
-3.49348

>  <SCORE.INTER.CONST>
1

>  <SCORE.INTER.POLAR>
0

>  <SCORE.INTER.ROT>
6

>  <SCORE.INTER.SOLV>
14.4595

>  <SCORE.INTER.VDW>
-14.7488

>  <SCORE.INTER.norm>
-0.112693

>  <SCORE.INTRA>
-1.97067

>  <SCORE.INTRA.DIHEDRAL>
-5.78564

>  <SCORE.INTRA.DIHEDRAL.0>
11.2357

>  <SCORE.INTRA.POLAR>
0

>  <SCORE.INTRA.POLAR.0>
0

>  <SCORE.INTRA.REPUL>
0

>  <SCORE.INTRA.REPUL.0>
0

>  <SCORE.INTRA.SOLV>
1.89353

>  <SCORE.INTRA.SOLV.lig_0>
-83.3092

>  <SCORE.INTRA.VDW>
-0.0246236

>  <SCORE.INTRA.VDW.0>
-4.47057

>  <SCORE.INTRA.norm>
-0.0635702

>  <SCORE.RESTR>
0

>  <SCORE.RESTR.CAVITY>
0

>  <SCORE.RESTR.norm>
0

>  <SCORE.SYSTEM>
0

>  <SCORE.SYSTEM.CONST>
0

>  <SCORE.SYSTEM.DIHEDRAL>
0

>  <SCORE.SYSTEM.SOLV>
0

>  <SCORE.SYSTEM.norm>
0

>  <SCORE.heavy>
31

>  <SCORE.norm>
-0.176263

>  <RMSD>
7.441

$$$$
ligand
 OpenBabel11021811433D
libRbt.so/2013.1/901 2013/11/27
 31 33  0  0  0  0  0  0  0  0999 V2000
   44.2869   24.4855    4.5129 C   0  0  0  0  0  0  0  0  0  0  0  0
   42.1707   28.5376    0.1166 N   0  0  0  0  0  0  0  0  0  0  0  0
   43.5285   23.4841    3.8189 O   0  0  0  0  0  0  0  0  0  0  0  0
   43.2358   25.3188    5.2416 C   0  0  1  0  0  0  0  0  0  0  0  0
   37.6041   29.0099    2.2733 N   0  0  0  0  0  0  0  0  0  0  0  0
   42.1817   25.9417    4.3444 O   0  0  0  0  0  0  0  0  0  0  0  0
   40.9516   25.3330    4.4364 C   0  0  1  0  0  0  0  0  0  0  0  0
   38.9976   28.0338    7.0270 N   0  0  0  0  0  0  0  0  0  0  0  0
   40.3058   24.9766    3.2458 O   0  0  0  0  0  0  0  0  0  0  0  0
   39.9340   25.9690    2.1815 C   0  0  2  0  0  0  0  0  0  0  0  0
   35.6682   24.2775    2.9368 N   0  0  0  0  0  0  0  0  0  0  0  0
   42.1977   25.7321    1.1758 O   0  0  0  0  0  0  0  0  0  0  0  0
   41.2300   26.7018    1.7243 C   0  0  1  0  0  0  0  0  0  0  0  0
   37.7493   26.3780    3.1252 O   0  0  0  0  0  0  0  0  0  0  0  0
   40.8844   27.7916    0.5905 C   0  0  1  0  0  0  0  0  0  0  0  0
   38.0239   25.8338    5.4260 O   0  0  0  0  0  0  0  0  0  0  0  0
   39.8416   28.8199    1.2112 C   0  0  0  0  0  0  0  0  0  0  0  0
   34.8655   27.3711    6.6639 O   0  0  0  0  0  0  0  0  0  0  0  0
   38.5619   28.0147    1.6872 C   0  0  1  0  0  0  0  0  0  0  0  0
   33.8092   25.3342    4.9640 O   0  0  0  0  0  0  0  0  0  0  0  0
   38.9015   27.0338    2.7639 C   0  0  2  0  0  0  0  0  0  0  0  0
   39.9520   23.9481    6.1014 O   0  0  0  0  0  0  0  0  0  0  0  0
   37.5997   25.3007    4.0854 C   0  0  1  0  0  0  0  0  0  0  0  0
   41.8706   25.5422    7.3012 O   0  0  0  0  0  0  0  0  0  0  0  0
   37.1499   26.9387    6.0041 C   0  0  2  0  0  0  0  0  0  0  0  0
   37.7166   27.3957    7.3433 C   0  0  0  0  0  0  0  0  0  0  0  0
   35.7156   26.3805    6.1517 C   0  0  2  0  0  0  0  0  0  0  0  0
   35.1861   25.8912    4.8140 C   0  0  1  0  0  0  0  0  0  0  0  0
   36.1412   24.8103    4.2746 C   0  0  1  0  0  0  0  0  0  0  0  0
   41.1313   24.1913    5.4237 C   0  0  2  0  0  0  0  0  0  0  0  0
   42.3614   24.6177    6.2876 C   0  0  1  0  0  0  0  0  0  0  0  0
  1  3  1  0  0  0  0
  4  1  1  6  0  0  0
  4  6  1  0  0  0  0
  4 31  1  0  0  0  0
  6  7  1  0  0  0  0
  7  9  1  6  0  0  0
  7 30  1  0  0  0  0
  8 26  1  0  0  0  0
 10  9  1  1  0  0  0
 10 13  1  0  0  0  0
 10 21  1  0  0  0  0
 13 12  1  6  0  0  0
 13 15  1  0  0  0  0
 15  2  1  1  0  0  0
 15 17  1  0  0  0  0
 16 25  1  0  0  0  0
 16 23  1  0  0  0  0
 17 19  1  0  0  0  0
 19  5  1  1  0  0  0
 19 21  1  0  0  0  0
 21 14  1  6  0  0  0
 23 14  1  6  0  0  0
 23 29  1  0  0  0  0
 25 26  1  1  0  0  0
 25 27  1  0  0  0  0
 27 18  1  6  0  0  0
 27 28  1  0  0  0  0
 28 20  1  1  0  0  0
 28 29  1  0  0  0  0
 29 11  1  6  0  0  0
 30 22  1  1  0  0  0
 30 31  1  0  0  0  0
 31 24  1  1  0  0  0
M  END
>  <CHROM.1>
-57.63667505,-59.49164278,57.60751064,61.92218487,59.01463718,66.79835237
39.35588906,26.08275588,4.13221059,-0.19753888,-0.20788961,2.01235762

>  <Name>
ligand

>  <RI>
0

>  <Rbt.Current_Directory>
/home/itssahil/PROJECTS/Mol_Feturizer/New_Systems/rnas/2ET5

>  <Rbt.Executable>
rbdock ($Id: //depot/dev/client3/rdock/2013.1/src/exe/rbdock.cxx#4 $)

>  <Rbt.Library>
libRbt.so (2013.1, Build901 2013/11/27)

>  <Rbt.Parameter_File>
/export/apps/rDock/src/rDock_2013.1_src/data/scripts/dock_solv.prm

>  <Rbt.Receptor>
prm/pocket_docking_7.prm

>  <SCORE>
-8.95953

>  <SCORE.INTER>
-2.80408

>  <SCORE.INTER.CONST>
1

>  <SCORE.INTER.POLAR>
0

>  <SCORE.INTER.ROT>
6

>  <SCORE.INTER.SOLV>
10.8289

>  <SCORE.INTER.VDW>
-13.079

>  <SCORE.INTER.norm>
-0.0904543

>  <SCORE.INTRA>
-6.15545

>  <SCORE.INTRA.DIHEDRAL>
-10.8536

>  <SCORE.INTRA.DIHEDRAL.0>
11.2357

>  <SCORE.INTRA.POLAR>
0

>  <SCORE.INTRA.POLAR.0>
0

>  <SCORE.INTRA.REPUL>
0

>  <SCORE.INTRA.REPUL.0>
0

>  <SCORE.INTRA.SOLV>
-2.19318

>  <SCORE.INTRA.SOLV.lig_0>
-83.3092

>  <SCORE.INTRA.VDW>
0.367935

>  <SCORE.INTRA.VDW.0>
-4.47057

>  <SCORE.INTRA.norm>
-0.198563

>  <SCORE.RESTR>
0

>  <SCORE.RESTR.CAVITY>
0

>  <SCORE.RESTR.norm>
0

>  <SCORE.SYSTEM>
0

>  <SCORE.SYSTEM.CONST>
0

>  <SCORE.SYSTEM.DIHEDRAL>
0

>  <SCORE.SYSTEM.SOLV>
0

>  <SCORE.SYSTEM.norm>
0

>  <SCORE.heavy>
31

>  <SCORE.norm>
-0.289017

>  <RMSD>
7.449

$$$$
ligand
 OpenBabel11021811433D
libRbt.so/2013.1/901 2013/11/27
 31 33  0  0  0  0  0  0  0  0999 V2000
   44.1640   24.5054    4.7066 C   0  0  0  0  0  0  0  0  0  0  0  0
   42.1415   27.5636   -0.2100 N   0  0  0  0  0  0  0  0  0  0  0  0
   44.7687   25.3694    3.7332 O   0  0  0  0  0  0  0  0  0  0  0  0
   43.0796   25.3638    5.3527 C   0  0  1  0  0  0  0  0  0  0  0  0
   37.6217   28.5887    1.8513 N   0  0  0  0  0  0  0  0  0  0  0  0
   41.9846   25.8253    4.4082 O   0  0  0  0  0  0  0  0  0  0  0  0
   40.7888   25.1705    4.5908 C   0  0  1  0  0  0  0  0  0  0  0  0
   37.6890   26.9182    8.0825 N   0  0  0  0  0  0  0  0  0  0  0  0
   40.1487   24.6470    3.4604 O   0  0  0  0  0  0  0  0  0  0  0  0
   39.8117   25.4696    2.2498 C   0  0  2  0  0  0  0  0  0  0  0  0
   35.5146   24.0881    3.3107 N   0  0  0  0  0  0  0  0  0  0  0  0
   42.0525   24.9689    1.2910 O   0  0  0  0  0  0  0  0  0  0  0  0
   41.1348   26.0581    1.6767 C   0  0  1  0  0  0  0  0  0  0  0  0
   37.6567   26.1260    3.1194 O   0  0  0  0  0  0  0  0  0  0  0  0
   40.8276   26.9642    0.3816 C   0  0  1  0  0  0  0  0  0  0  0  0
   37.8858   26.0398    5.4869 O   0  0  0  0  0  0  0  0  0  0  0  0
   39.8381   28.1264    0.8292 C   0  0  0  0  0  0  0  0  0  0  0  0
   34.7610   27.8780    6.3395 O   0  0  0  0  0  0  0  0  0  0  0  0
   38.5282   27.4687    1.4326 C   0  0  1  0  0  0  0  0  0  0  0  0
   33.6639   25.5754    5.0555 O   0  0  0  0  0  0  0  0  0  0  0  0
   38.8336   26.6610    2.6536 C   0  0  2  0  0  0  0  0  0  0  0  0
   39.8811   23.9392    6.4210 O   0  0  0  0  0  0  0  0  0  0  0  0
   37.4622   25.2643    4.2701 C   0  0  1  0  0  0  0  0  0  0  0  0
   41.7283   25.7554    7.3963 O   0  0  0  0  0  0  0  0  0  0  0  0
   37.0391   27.2608    5.8198 C   0  0  2  0  0  0  0  0  0  0  0  0
   37.6028   27.9576    7.0527 C   0  0  0  0  0  0  0  0  0  0  0  0
   35.5865   26.7827    6.0483 C   0  0  2  0  0  0  0  0  0  0  0  0
   35.0590   26.0535    4.8239 C   0  0  1  0  0  0  0  0  0  0  0  0
   35.9870   24.8614    4.5256 C   0  0  1  0  0  0  0  0  0  0  0  0
   41.0384   24.1611    5.6995 C   0  0  2  0  0  0  0  0  0  0  0  0
   42.2546   24.7455    6.4874 C   0  0  1  0  0  0  0  0  0  0  0  0
  1  3  1  0  0  0  0
  4  1  1  6  0  0  0
  4  6  1  0  0  0  0
  4 31  1  0  0  0  0
  6  7  1  0  0  0  0
  7  9  1  6  0  0  0
  7 30  1  0  0  0  0
  8 26  1  0  0  0  0
 10  9  1  1  0  0  0
 10 13  1  0  0  0  0
 10 21  1  0  0  0  0
 13 12  1  6  0  0  0
 13 15  1  0  0  0  0
 15  2  1  1  0  0  0
 15 17  1  0  0  0  0
 16 25  1  0  0  0  0
 16 23  1  0  0  0  0
 17 19  1  0  0  0  0
 19  5  1  1  0  0  0
 19 21  1  0  0  0  0
 21 14  1  6  0  0  0
 23 14  1  6  0  0  0
 23 29  1  0  0  0  0
 25 26  1  1  0  0  0
 25 27  1  0  0  0  0
 27 18  1  6  0  0  0
 27 28  1  0  0  0  0
 28 20  1  1  0  0  0
 28 29  1  0  0  0  0
 29 11  1  6  0  0  0
 30 22  1  1  0  0  0
 30 31  1  0  0  0  0
 31 24  1  1  0  0  0
M  END
>  <CHROM.1>
62.55565898,-54.48362048,59.41324504,62.21792920,61.37230128,-53.67143022
39.25714954,25.99143935,4.16863438,-0.25646583,-0.18863776,1.81476113

>  <Name>
ligand

>  <RI>
0

>  <Rbt.Current_Directory>
/home/itssahil/PROJECTS/Mol_Feturizer/New_Systems/rnas/2ET5

>  <Rbt.Executable>
rbdock ($Id: //depot/dev/client3/rdock/2013.1/src/exe/rbdock.cxx#4 $)

>  <Rbt.Library>
libRbt.so (2013.1, Build901 2013/11/27)

>  <Rbt.Parameter_File>
/export/apps/rDock/src/rDock_2013.1_src/data/scripts/dock_solv.prm

>  <Rbt.Receptor>
prm/pocket_docking_5.prm

>  <SCORE>
-8.3327

>  <SCORE.INTER>
-2.70498

>  <SCORE.INTER.CONST>
1

>  <SCORE.INTER.POLAR>
0

>  <SCORE.INTER.ROT>
6

>  <SCORE.INTER.SOLV>
11.4188

>  <SCORE.INTER.VDW>
-13.2096

>  <SCORE.INTER.norm>
-0.0872573

>  <SCORE.INTRA>
-5.62773

>  <SCORE.INTRA.DIHEDRAL>
-10.7441

>  <SCORE.INTRA.DIHEDRAL.0>
11.2357

>  <SCORE.INTRA.POLAR>
0

>  <SCORE.INTRA.POLAR.0>
0

>  <SCORE.INTRA.REPUL>
0

>  <SCORE.INTRA.REPUL.0>
0

>  <SCORE.INTRA.SOLV>
-1.82846

>  <SCORE.INTRA.SOLV.lig_0>
-83.3092

>  <SCORE.INTRA.VDW>
0.658533

>  <SCORE.INTRA.VDW.0>
-4.47057

>  <SCORE.INTRA.norm>
-0.18154

>  <SCORE.RESTR>
0

>  <SCORE.RESTR.CAVITY>
0

>  <SCORE.RESTR.norm>
0

>  <SCORE.SYSTEM>
0

>  <SCORE.SYSTEM.CONST>
0

>  <SCORE.SYSTEM.DIHEDRAL>
0

>  <SCORE.SYSTEM.SOLV>
0

>  <SCORE.SYSTEM.norm>
0

>  <SCORE.heavy>
31

>  <SCORE.norm>
-0.268797

>  <RMSD>
7.455

$$$$
ligand
 OpenBabel11021811433D
libRbt.so/2013.1/901 2013/11/27
 31 33  0  0  0  0  0  0  0  0999 V2000
   37.2479   29.6452   -0.2285 C   0  0  0  0  0  0  0  0  0  0  0  0
   41.9219   22.1528    0.5527 N   0  0  0  0  0  0  0  0  0  0  0  0
   38.3339   30.3270    0.4160 O   0  0  0  0  0  0  0  0  0  0  0  0
   37.9283   28.6620   -1.1774 C   0  0  1  0  0  0  0  0  0  0  0  0
   40.0466   23.8257    4.9587 N   0  0  0  0  0  0  0  0  0  0  0  0
   38.8082   27.6272   -0.5000 O   0  0  0  0  0  0  0  0  0  0  0  0
   38.2606   26.3654   -0.4838 C   0  0  1  0  0  0  0  0  0  0  0  0
   33.7520   25.2245    3.8075 N   0  0  0  0  0  0  0  0  0  0  0  0
   38.2445   25.6733    0.7336 O   0  0  0  0  0  0  0  0  0  0  0  0
   39.4880   25.1840    1.4194 C   0  0  2  0  0  0  0  0  0  0  0  0
   38.5583   28.7009    4.3753 N   0  0  0  0  0  0  0  0  0  0  0  0
   40.3549   24.3481   -0.7581 O   0  0  0  0  0  0  0  0  0  0  0  0
   40.0308   23.9577    0.6276 C   0  0  1  0  0  0  0  0  0  0  0  0
   38.7115   25.8430    3.6089 O   0  0  0  0  0  0  0  0  0  0  0  0
   41.3600   23.3828    1.3316 C   0  0  1  0  0  0  0  0  0  0  0  0
   36.3501   25.8445    3.3112 O   0  0  0  0  0  0  0  0  0  0  0  0
   40.9786   22.9719    2.8202 C   0  0  0  0  0  0  0  0  0  0  0  0
   35.4114   25.9162    6.9146 O   0  0  0  0  0  0  0  0  0  0  0  0
   40.4031   24.2481    3.5637 C   0  0  1  0  0  0  0  0  0  0  0  0
   36.7514   28.4275    6.6866 O   0  0  0  0  0  0  0  0  0  0  0  0
   39.1507   24.7426    2.9129 C   0  0  2  0  0  0  0  0  0  0  0  0
   36.5603   25.3225   -1.7918 O   0  0  0  0  0  0  0  0  0  0  0  0
   37.5847   26.7029    3.2996 C   0  0  1  0  0  0  0  0  0  0  0  0
   37.7051   27.3587   -3.2768 O   0  0  0  0  0  0  0  0  0  0  0  0
   35.9726   25.2486    4.6607 C   0  0  2  0  0  0  0  0  0  0  0  0
   34.7255   24.3849    4.5113 C   0  0  0  0  0  0  0  0  0  0  0  0
   35.7433   26.4166    5.6475 C   0  0  2  0  0  0  0  0  0  0  0  0
   36.9832   27.2893    5.7489 C   0  0  1  0  0  0  0  0  0  0  0  0
   37.3260   27.8190    4.3441 C   0  0  1  0  0  0  0  0  0  0  0  0
   36.9021   26.4988   -1.1525 C   0  0  2  0  0  0  0  0  0  0  0  0
   37.0363   27.7710   -2.0497 C   0  0  1  0  0  0  0  0  0  0  0  0
  1  3  1  0  0  0  0
  4  1  1  1  0  0  0
  4  6  1  0  0  0  0
  4 31  1  0  0  0  0
  6  7  1  0  0  0  0
  7  9  1  1  0  0  0
  7 30  1  0  0  0  0
  8 26  1  0  0  0  0
 10  9  1  6  0  0  0
 10 13  1  0  0  0  0
 10 21  1  0  0  0  0
 13 12  1  6  0  0  0
 13 15  1  0  0  0  0
 15  2  1  6  0  0  0
 15 17  1  0  0  0  0
 16 25  1  0  0  0  0
 16 23  1  0  0  0  0
 17 19  1  0  0  0  0
 19  5  1  1  0  0  0
 19 21  1  0  0  0  0
 21 14  1  1  0  0  0
 23 14  1  1  0  0  0
 23 29  1  0  0  0  0
 25 26  1  6  0  0  0
 25 27  1  0  0  0  0
 27 18  1  1  0  0  0
 27 28  1  0  0  0  0
 28 20  1  1  0  0  0
 28 29  1  0  0  0  0
 29 11  1  1  0  0  0
 30 22  1  6  0  0  0
 30 31  1  0  0  0  0
 31 24  1  6  0  0  0
M  END
>  <CHROM.1>
61.51360319,-67.55454100,-73.28912791,60.22113822,57.92326801,-50.68414150
38.00264737,26.08945073,2.06756163,1.08936581,0.81945750,-1.19300568

>  <Name>
ligand

>  <RI>
0

>  <Rbt.Current_Directory>
/home/itssahil/PROJECTS/Mol_Feturizer/New_Systems/rnas/2ET5

>  <Rbt.Executable>
rbdock ($Id: //depot/dev/client3/rdock/2013.1/src/exe/rbdock.cxx#4 $)

>  <Rbt.Library>
libRbt.so (2013.1, Build901 2013/11/27)

>  <Rbt.Parameter_File>
/export/apps/rDock/src/rDock_2013.1_src/data/scripts/dock_solv.prm

>  <Rbt.Receptor>
prm/pocket_docking_6.prm

>  <SCORE>
-8.44938

>  <SCORE.INTER>
-3.65433

>  <SCORE.INTER.CONST>
1

>  <SCORE.INTER.POLAR>
0

>  <SCORE.INTER.ROT>
6

>  <SCORE.INTER.SOLV>
11.2812

>  <SCORE.INTER.VDW>
-13.7966

>  <SCORE.INTER.norm>
-0.117881

>  <SCORE.INTRA>
-4.79505

>  <SCORE.INTRA.DIHEDRAL>
-9.64627

>  <SCORE.INTRA.DIHEDRAL.0>
11.2357

>  <SCORE.INTRA.POLAR>
0

>  <SCORE.INTRA.POLAR.0>
0

>  <SCORE.INTRA.REPUL>
0

>  <SCORE.INTRA.REPUL.0>
0

>  <SCORE.INTRA.SOLV>
-3.07137

>  <SCORE.INTRA.SOLV.lig_0>
-83.3092

>  <SCORE.INTRA.VDW>
1.56377

>  <SCORE.INTRA.VDW.0>
-4.47057

>  <SCORE.INTRA.norm>
-0.154679

>  <SCORE.RESTR>
0

>  <SCORE.RESTR.CAVITY>
0

>  <SCORE.RESTR.norm>
0

>  <SCORE.SYSTEM>
0

>  <SCORE.SYSTEM.CONST>
0

>  <SCORE.SYSTEM.DIHEDRAL>
0

>  <SCORE.SYSTEM.SOLV>
0

>  <SCORE.SYSTEM.norm>
0

>  <SCORE.heavy>
31

>  <SCORE.norm>
-0.272561

>  <RMSD>
7.461

$$$$
ligand
 OpenBabel11021811433D
libRbt.so/2013.1/901 2013/11/27
 31 33  0  0  0  0  0  0  0  0999 V2000
   46.3637   17.7563   -3.5520 C   0  0  0  0  0  0  0  0  0  0  0  0
   40.0301   22.0523    1.4144 N   0  0  0  0  0  0  0  0  0  0  0  0
   46.5067   16.7013   -4.5142 O   0  0  0  0  0  0  0  0  0  0  0  0
   45.8355   17.0587   -2.3012 C   0  0  1  0  0  0  0  0  0  0  0  0
   44.7193   22.6483    3.2540 N   0  0  0  0  0  0  0  0  0  0  0  0
   45.6710   17.9590   -1.0903 O   0  0  0  0  0  0  0  0  0  0  0  0
   44.3595   18.2537   -0.7981 C   0  0  1  0  0  0  0  0  0  0  0  0
   42.2141   17.7087    2.0935 N   0  0  0  0  0  0  0  0  0  0  0  0
   44.0217   19.5953   -0.5806 O   0  0  0  0  0  0  0  0  0  0  0  0
   43.4266   20.0970    0.7038 C   0  0  2  0  0  0  0  0  0  0  0  0
   48.3091   19.7491    2.5709 N   0  0  0  0  0  0  0  0  0  0  0  0
   41.1451   19.8210   -0.2503 O   0  0  0  0  0  0  0  0  0  0  0  0
   42.0692   20.7864    0.3755 C   0  0  1  0  0  0  0  0  0  0  0  0
   45.5832   20.5213    1.7037 O   0  0  0  0  0  0  0  0  0  0  0  0
   41.3936   21.3577    1.7208 C   0  0  1  0  0  0  0  0  0  0  0  0
   44.7166   18.6957    2.9612 O   0  0  0  0  0  0  0  0  0  0  0  0
   42.4118   22.3929    2.3703 C   0  0  0  0  0  0  0  0  0  0  0  0
   45.8142   15.9710    0.6717 O   0  0  0  0  0  0  0  0  0  0  0  0
   43.7810   21.6449    2.6507 C   0  0  1  0  0  0  0  0  0  0  0  0
   48.3482   17.0147    1.4739 O   0  0  0  0  0  0  0  0  0  0  0  0
   44.4061   21.1540    1.3838 C   0  0  2  0  0  0  0  0  0  0  0  0
   42.2980   17.1988   -1.3698 O   0  0  0  0  0  0  0  0  0  0  0  0
   45.8565   19.6698    2.8460 C   0  0  1  0  0  0  0  0  0  0  0  0
   44.3152   15.3042   -1.4261 O   0  0  0  0  0  0  0  0  0  0  0  0
   44.5766   17.7043    1.8140 C   0  0  2  0  0  0  0  0  0  0  0  0
   43.3684   16.8064    2.0541 C   0  0  0  0  0  0  0  0  0  0  0  0
   45.8869   16.8878    1.7301 C   0  0  2  0  0  0  0  0  0  0  0  0
   47.0829   17.8045    1.5339 C   0  0  1  0  0  0  0  0  0  0  0  0
   47.1336   18.8019    2.7061 C   0  0  1  0  0  0  0  0  0  0  0  0
   43.5343   17.5603   -1.8699 C   0  0  2  0  0  0  0  0  0  0  0  0
   44.4525   16.4013   -2.3750 C   0  0  1  0  0  0  0  0  0  0  0  0
  1  3  1  0  0  0  0
  4  1  1  6  0  0  0
  4  6  1  0  0  0  0
  4 31  1  0  0  0  0
  6  7  1  0  0  0  0
  7  9  1  6  0  0  0
  7 30  1  0  0  0  0
  8 26  1  0  0  0  0
 10  9  1  6  0  0  0
 10 13  1  0  0  0  0
 10 21  1  0  0  0  0
 13 12  1  1  0  0  0
 13 15  1  0  0  0  0
 15  2  1  6  0  0  0
 15 17  1  0  0  0  0
 16 25  1  0  0  0  0
 16 23  1  0  0  0  0
 17 19  1  0  0  0  0
 19  5  1  6  0  0  0
 19 21  1  0  0  0  0
 21 14  1  1  0  0  0
 23 14  1  6  0  0  0
 23 29  1  0  0  0  0
 25 26  1  1  0  0  0
 25 27  1  0  0  0  0
 27 18  1  6  0  0  0
 27 28  1  0  0  0  0
 28 20  1  1  0  0  0
 28 29  1  0  0  0  0
 29 11  1  6  0  0  0
 30 22  1  1  0  0  0
 30 31  1  0  0  0  0
 31 24  1  1  0  0  0
M  END
>  <CHROM.1>
176.63777265,-120.43511884,-122.77069149,46.69593891,-79.61607616,61.10034163
44.51780468,18.76272988,0.53587714,1.06824822,0.42854602,-2.22070346

>  <Name>
ligand

>  <RI>
0

>  <Rbt.Current_Directory>
/home/itssahil/PROJECTS/Mol_Feturizer/New_Systems/rnas/2ET5

>  <Rbt.Executable>
rbdock ($Id: //depot/dev/client3/rdock/2013.1/src/exe/rbdock.cxx#4 $)

>  <Rbt.Library>
libRbt.so (2013.1, Build901 2013/11/27)

>  <Rbt.Parameter_File>
/export/apps/rDock/src/rDock_2013.1_src/data/scripts/dock_solv.prm

>  <Rbt.Receptor>
prm/blind_docking_60.prm

>  <SCORE>
21.9511

>  <SCORE.INTER>
0.608964

>  <SCORE.INTER.CONST>
1

>  <SCORE.INTER.POLAR>
0

>  <SCORE.INTER.ROT>
6

>  <SCORE.INTER.SOLV>
30.5563

>  <SCORE.INTER.VDW>
-17.3794

>  <SCORE.INTER.norm>
0.019644

>  <SCORE.INTRA>
6.46671

>  <SCORE.INTRA.DIHEDRAL>
5.68849

>  <SCORE.INTRA.DIHEDRAL.0>
11.2357

>  <SCORE.INTRA.POLAR>
0

>  <SCORE.INTRA.POLAR.0>
0

>  <SCORE.INTRA.REPUL>
0

>  <SCORE.INTRA.REPUL.0>
0

>  <SCORE.INTRA.SOLV>
4.22763

>  <SCORE.INTRA.SOLV.lig_0>
-83.3092

>  <SCORE.INTRA.VDW>
1.50865

>  <SCORE.INTRA.VDW.0>
-4.47057

>  <SCORE.INTRA.norm>
0.208604

>  <SCORE.RESTR>
14.8754

>  <SCORE.RESTR.CAVITY>
14.8754

>  <SCORE.RESTR.norm>
0.479852

>  <SCORE.SYSTEM>
0

>  <SCORE.SYSTEM.CONST>
0

>  <SCORE.SYSTEM.DIHEDRAL>
0

>  <SCORE.SYSTEM.SOLV>
0

>  <SCORE.SYSTEM.norm>
0

>  <SCORE.heavy>
31

>  <SCORE.norm>
0.708099

>  <RMSD>
7.468

$$$$
ligand
 OpenBabel11021811433D
libRbt.so/2013.1/901 2013/11/27
 31 33  0  0  0  0  0  0  0  0999 V2000
   45.1221   21.4455    3.4304 C   0  0  0  0  0  0  0  0  0  0  0  0
   41.3802   14.7468    1.4490 N   0  0  0  0  0  0  0  0  0  0  0  0
   46.4808   21.3634    2.9758 O   0  0  0  0  0  0  0  0  0  0  0  0
   44.3282   21.8259    2.1834 C   0  0  1  0  0  0  0  0  0  0  0  0
   44.0100   15.0106   -2.8803 N   0  0  0  0  0  0  0  0  0  0  0  0
   44.6996   21.0533    0.9307 O   0  0  0  0  0  0  0  0  0  0  0  0
   43.7591   20.1201    0.5610 C   0  0  1  0  0  0  0  0  0  0  0  0
   48.8323   17.4974    0.0154 N   0  0  0  0  0  0  0  0  0  0  0  0
   44.2009   18.8225    0.2733 O   0  0  0  0  0  0  0  0  0  0  0  0
   43.3111   17.7582   -0.3023 C   0  0  2  0  0  0  0  0  0  0  0  0
   45.7490   17.5649   -5.0861 N   0  0  0  0  0  0  0  0  0  0  0  0
   42.0696   17.6376    1.8508 O   0  0  0  0  0  0  0  0  0  0  0  0
   42.8269   16.8452    0.8628 C   0  0  1  0  0  0  0  0  0  0  0  0
   44.5054   17.6935   -2.4000 O   0  0  0  0  0  0  0  0  0  0  0  0
   41.8782   15.6738    0.2966 C   0  0  1  0  0  0  0  0  0  0  0  0
   46.6716   18.0016   -1.4632 O   0  0  0  0  0  0  0  0  0  0  0  0
   42.7214   14.8398   -0.7634 C   0  0  0  0  0  0  0  0  0  0  0  0
   47.8829   14.5060   -1.8931 O   0  0  0  0  0  0  0  0  0  0  0  0
   43.2134   15.8249   -1.9036 C   0  0  1  0  0  0  0  0  0  0  0  0
   47.5285   15.2624   -4.6237 O   0  0  0  0  0  0  0  0  0  0  0  0
   44.1200   16.8826   -1.3597 C   0  0  2  0  0  0  0  0  0  0  0  0
   41.4423   19.8685    1.0692 O   0  0  0  0  0  0  0  0  0  0  0  0
   45.8355   18.1897   -2.6988 C   0  0  1  0  0  0  0  0  0  0  0  0
   42.1217   22.5416    1.3030 O   0  0  0  0  0  0  0  0  0  0  0  0
   46.9239   16.5579   -1.0499 C   0  0  2  0  0  0  0  0  0  0  0  0
   47.7556   16.5258    0.2271 C   0  0  0  0  0  0  0  0  0  0  0  0
   47.6455   15.8490   -2.2192 C   0  0  2  0  0  0  0  0  0  0  0  0
   46.8196   15.9298   -3.4921 C   0  0  1  0  0  0  0  0  0  0  0  0
   46.5706   17.4134   -3.8216 C   0  0  1  0  0  0  0  0  0  0  0  0
   42.6680   20.1964    1.6164 C   0  0  2  0  0  0  0  0  0  0  0  0
   42.8075   21.6336    2.2132 C   0  0  1  0  0  0  0  0  0  0  0  0
  1  3  1  0  0  0  0
  4  1  1  1  0  0  0
  4  6  1  0  0  0  0
  4 31  1  0  0  0  0
  6  7  1  0  0  0  0
  7  9  1  1  0  0  0
  7 30  1  0  0  0  0
  8 26  1  0  0  0  0
 10  9  1  1  0  0  0
 10 13  1  0  0  0  0
 10 21  1  0  0  0  0
 13 12  1  1  0  0  0
 13 15  1  0  0  0  0
 15  2  1  1  0  0  0
 15 17  1  0  0  0  0
 16 25  1  0  0  0  0
 16 23  1  0  0  0  0
 17 19  1  0  0  0  0
 19  5  1  6  0  0  0
 19 21  1  0  0  0  0
 21 14  1  6  0  0  0
 23 14  1  1  0  0  0
 23 29  1  0  0  0  0
 25 26  1  1  0  0  0
 25 27  1  0  0  0  0
 27 18  1  1  0  0  0
 27 28  1  0  0  0  0
 28 20  1  6  0  0  0
 28 29  1  0  0  0  0
 29 11  1  6  0  0  0
 30 22  1  6  0  0  0
 30 31  1  0  0  0  0
 31 24  1  6  0  0  0
M  END
>  <CHROM.1>
44.56819643,-172.20735293,-98.67913724,-16.17650647,106.89539043,-45.51876863
44.71549968,17.94058709,-0.45589376,-2.03915209,-0.35927519,-2.53618388

>  <Name>
ligand

>  <RI>
0

>  <Rbt.Current_Directory>
/home/itssahil/PROJECTS/Mol_Feturizer/New_Systems/rnas/2ET5

>  <Rbt.Executable>
rbdock ($Id: //depot/dev/client3/rdock/2013.1/src/exe/rbdock.cxx#4 $)

>  <Rbt.Library>
libRbt.so (2013.1, Build901 2013/11/27)

>  <Rbt.Parameter_File>
/export/apps/rDock/src/rDock_2013.1_src/data/scripts/dock_solv.prm

>  <Rbt.Receptor>
prm/blind_docking_60.prm

>  <SCORE>
26.567

>  <SCORE.INTER>
-1.06498

>  <SCORE.INTER.CONST>
1

>  <SCORE.INTER.POLAR>
0

>  <SCORE.INTER.ROT>
6

>  <SCORE.INTER.SOLV>
20.2679

>  <SCORE.INTER.VDW>
-15.066

>  <SCORE.INTER.norm>
-0.0343541

>  <SCORE.INTRA>
7.84277

>  <SCORE.INTRA.DIHEDRAL>
8.19963

>  <SCORE.INTRA.DIHEDRAL.0>
11.2357

>  <SCORE.INTRA.POLAR>
0

>  <SCORE.INTRA.POLAR.0>
0

>  <SCORE.INTRA.REPUL>
0.00554181

>  <SCORE.INTRA.REPUL.0>
0

>  <SCORE.INTRA.SOLV>
1.94616

>  <SCORE.INTRA.SOLV.lig_0>
-83.3092

>  <SCORE.INTRA.VDW>
2.74217

>  <SCORE.INTRA.VDW.0>
-4.47057

>  <SCORE.INTRA.norm>
0.252993

>  <SCORE.RESTR>
19.7892

>  <SCORE.RESTR.CAVITY>
19.7892

>  <SCORE.RESTR.norm>
0.638362

>  <SCORE.SYSTEM>
0

>  <SCORE.SYSTEM.CONST>
0

>  <SCORE.SYSTEM.DIHEDRAL>
0

>  <SCORE.SYSTEM.SOLV>
0

>  <SCORE.SYSTEM.norm>
0

>  <SCORE.heavy>
31

>  <SCORE.norm>
0.857001

>  <RMSD>
7.475

$$$$
ligand
 OpenBabel11021811433D
libRbt.so/2013.1/901 2013/11/27
 31 33  0  0  0  0  0  0  0  0999 V2000
   43.1820   24.1215    4.2622 C   0  0  0  0  0  0  0  0  0  0  0  0
   40.3400   32.0838    4.5485 N   0  0  0  0  0  0  0  0  0  0  0  0
   44.0439   24.7383    3.2945 O   0  0  0  0  0  0  0  0  0  0  0  0
   43.0271   25.1744    5.3565 C   0  0  1  0  0  0  0  0  0  0  0  0
   37.8771   29.6187    0.8626 N   0  0  0  0  0  0  0  0  0  0  0  0
   42.3828   26.4728    4.9056 O   0  0  0  0  0  0  0  0  0  0  0  0
   41.0909   26.6295    5.3512 C   0  0  1  0  0  0  0  0  0  0  0  0
   34.6907   27.0994    2.7397 N   0  0  0  0  0  0  0  0  0  0  0  0
   40.1149   26.9964    4.4162 O   0  0  0  0  0  0  0  0  0  0  0  0
   40.2148   28.2272    3.5612 C   0  0  2  0  0  0  0  0  0  0  0  0
   40.3297   24.9076    0.4924 N   0  0  0  0  0  0  0  0  0  0  0  0
   41.3903   29.4097    5.4082 O   0  0  0  0  0  0  0  0  0  0  0  0
   40.2306   29.4714    4.4979 C   0  0  1  0  0  0  0  0  0  0  0  0
   38.9824   27.2341    1.7376 O   0  0  0  0  0  0  0  0  0  0  0  0
   40.3217   30.8235    3.6283 C   0  0  1  0  0  0  0  0  0  0  0  0
   37.1939   25.7983    2.3742 O   0  0  0  0  0  0  0  0  0  0  0  0
   39.0607   30.8602    2.6594 C   0  0  0  0  0  0  0  0  0  0  0  0
   35.6785   25.3915   -1.0036 O   0  0  0  0  0  0  0  0  0  0  0  0
   39.0804   29.5573    1.7569 C   0  0  1  0  0  0  0  0  0  0  0  0
   38.2268   24.1785   -1.4384 O   0  0  0  0  0  0  0  0  0  0  0  0
   38.9598   28.3168    2.5834 C   0  0  2  0  0  0  0  0  0  0  0  0
   39.8663   25.6407    7.1434 O   0  0  0  0  0  0  0  0  0  0  0  0
   38.6606   25.8536    2.0467 C   0  0  1  0  0  0  0  0  0  0  0  0
   42.5636   25.5718    7.7613 O   0  0  0  0  0  0  0  0  0  0  0  0
   36.2482   26.1272    1.2269 C   0  0  2  0  0  0  0  0  0  0  0  0
   34.8053   26.0592    1.7136 C   0  0  0  0  0  0  0  0  0  0  0  0
   36.5148   25.1163    0.0878 C   0  0  2  0  0  0  0  0  0  0  0  0
   37.9681   25.1701   -0.3529 C   0  0  1  0  0  0  0  0  0  0  0  0
   38.8611   24.8700    0.8653 C   0  0  1  0  0  0  0  0  0  0  0  0
   40.7713   25.3674    6.1357 C   0  0  2  0  0  0  0  0  0  0  0  0
   42.1677   24.8222    6.5762 C   0  0  1  0  0  0  0  0  0  0  0  0
  1  3  1  0  0  0  0
  4  1  1  6  0  0  0
  4  6  1  0  0  0  0
  4 31  1  0  0  0  0
  6  7  1  0  0  0  0
  7  9  1  6  0  0  0
  7 30  1  0  0  0  0
  8 26  1  0  0  0  0
 10  9  1  1  0  0  0
 10 13  1  0  0  0  0
 10 21  1  0  0  0  0
 13 12  1  1  0  0  0
 13 15  1  0  0  0  0
 15  2  1  1  0  0  0
 15 17  1  0  0  0  0
 16 25  1  0  0  0  0
 16 23  1  0  0  0  0
 17 19  1  0  0  0  0
 19  5  1  6  0  0  0
 19 21  1  0  0  0  0
 21 14  1  6  0  0  0
 23 14  1  6  0  0  0
 23 29  1  0  0  0  0
 25 26  1  1  0  0  0
 25 27  1  0  0  0  0
 27 18  1  6  0  0  0
 27 28  1  0  0  0  0
 28 20  1  6  0  0  0
 28 29  1  0  0  0  0
 29 11  1  6  0  0  0
 30 22  1  1  0  0  0
 30 31  1  0  0  0  0
 31 24  1  1  0  0  0
M  END
>  <CHROM.1>
61.68144289,-56.27857181,-62.16530978,66.17237934,73.94221210,62.75510022
39.53307554,26.79850063,3.08776112,-0.27643725,0.74884817,-2.83123953

>  <Name>
ligand

>  <RI>
0

>  <Rbt.Current_Directory>
/home/itssahil/PROJECTS/Mol_Feturizer/New_Systems/rnas/2ET5

>  <Rbt.Executable>
rbdock ($Id: //depot/dev/client3/rdock/2013.1/src/exe/rbdock.cxx#4 $)

>  <Rbt.Library>
libRbt.so (2013.1, Build901 2013/11/27)

>  <Rbt.Parameter_File>
/export/apps/rDock/src/rDock_2013.1_src/data/scripts/dock_solv.prm

>  <Rbt.Receptor>
prm/pocket_docking_7.prm

>  <SCORE>
-10.1022

>  <SCORE.INTER>
-4.69432

>  <SCORE.INTER.CONST>
1

>  <SCORE.INTER.POLAR>
0

>  <SCORE.INTER.ROT>
6

>  <SCORE.INTER.SOLV>
9.94796

>  <SCORE.INTER.VDW>
-14.0455

>  <SCORE.INTER.norm>
-0.15143

>  <SCORE.INTRA>
-5.40789

>  <SCORE.INTRA.DIHEDRAL>
-9.86652

>  <SCORE.INTRA.DIHEDRAL.0>
11.2357

>  <SCORE.INTRA.POLAR>
0

>  <SCORE.INTRA.POLAR.0>
0

>  <SCORE.INTRA.REPUL>
0

>  <SCORE.INTRA.REPUL.0>
0

>  <SCORE.INTRA.SOLV>
-4.11313

>  <SCORE.INTRA.SOLV.lig_0>
-83.3092

>  <SCORE.INTRA.VDW>
1.58194

>  <SCORE.INTRA.VDW.0>
-4.47057

>  <SCORE.INTRA.norm>
-0.174448

>  <SCORE.RESTR>
0

>  <SCORE.RESTR.CAVITY>
0

>  <SCORE.RESTR.norm>
0

>  <SCORE.SYSTEM>
0

>  <SCORE.SYSTEM.CONST>
0

>  <SCORE.SYSTEM.DIHEDRAL>
0

>  <SCORE.SYSTEM.SOLV>
0

>  <SCORE.SYSTEM.norm>
0

>  <SCORE.heavy>
31

>  <SCORE.norm>
-0.325878

>  <RMSD>
7.477

$$$$
ligand
 OpenBabel11021811433D
libRbt.so/2013.1/901 2013/11/27
 31 33  0  0  0  0  0  0  0  0999 V2000
   33.5312   24.4946    3.5368 C   0  0  0  0  0  0  0  0  0  0  0  0
   40.0381   23.7407    5.2445 N   0  0  0  0  0  0  0  0  0  0  0  0
   34.0929   23.9868    4.7559 O   0  0  0  0  0  0  0  0  0  0  0  0
   34.3055   25.7830    3.2712 C   0  0  1  0  0  0  0  0  0  0  0  0
   41.4824   26.9365    1.5799 N   0  0  0  0  0  0  0  0  0  0  0  0
   35.8011   25.6014    3.0858 O   0  0  0  0  0  0  0  0  0  0  0  0
   36.2152   25.7455    1.7821 C   0  0  1  0  0  0  0  0  0  0  0  0
   37.8888   30.0359    1.4715 N   0  0  0  0  0  0  0  0  0  0  0  0
   37.0496   24.7567    1.2461 O   0  0  0  0  0  0  0  0  0  0  0  0
   38.4762   24.5621    1.6738 C   0  0  2  0  0  0  0  0  0  0  0  0
   39.0992   25.3662   -2.8159 N   0  0  0  0  0  0  0  0  0  0  0  0
   37.7208   23.0264    3.4801 O   0  0  0  0  0  0  0  0  0  0  0  0
   38.4896   24.2545    3.2005 C   0  0  1  0  0  0  0  0  0  0  0  0
   39.3287   26.1221    0.0397 O   0  0  0  0  0  0  0  0  0  0  0  0
   40.0016   24.0515    3.7155 C   0  0  1  0  0  0  0  0  0  0  0  0
   37.7305   27.8453   -0.3363 O   0  0  0  0  0  0  0  0  0  0  0  0
   40.8027   25.3891    3.4005 C   0  0  0  0  0  0  0  0  0  0  0  0
   39.9566   30.1635   -2.2182 O   0  0  0  0  0  0  0  0  0  0  0  0
   40.7261   25.6673    1.8418 C   0  0  1  0  0  0  0  0  0  0  0  0
   39.9113   27.9367   -4.0054 O   0  0  0  0  0  0  0  0  0  0  0  0
   39.3163   25.8867    1.3934 C   0  0  2  0  0  0  0  0  0  0  0  0
   35.2369   26.8031   -0.1190 O   0  0  0  0  0  0  0  0  0  0  0  0
   38.2161   26.5031   -0.8098 C   0  0  1  0  0  0  0  0  0  0  0  0
   34.2592   28.0075    2.1735 O   0  0  0  0  0  0  0  0  0  0  0  0
   38.7090   28.9995   -0.5066 C   0  0  2  0  0  0  0  0  0  0  0  0
   38.0931   30.2817    0.0411 C   0  0  0  0  0  0  0  0  0  0  0  0
   39.0399   29.1226   -2.0119 C   0  0  2  0  0  0  0  0  0  0  0  0
   39.6123   27.8208   -2.5474 C   0  0  1  0  0  0  0  0  0  0  0  0
   38.5879   26.6974   -2.3023 C   0  0  1  0  0  0  0  0  0  0  0  0
   34.9533   26.0114    0.9774 C   0  0  2  0  0  0  0  0  0  0  0  0
   33.9455   26.5929    2.0203 C   0  0  1  0  0  0  0  0  0  0  0  0
  1  3  1  0  0  0  0
  4  1  1  6  0  0  0
  4  6  1  0  0  0  0
  4 31  1  0  0  0  0
  6  7  1  0  0  0  0
  7  9  1  6  0  0  0
  7 30  1  0  0  0  0
  8 26  1  0  0  0  0
 10  9  1  1  0  0  0
 10 13  1  0  0  0  0
 10 21  1  0  0  0  0
 13 12  1  6  0  0  0
 13 15  1  0  0  0  0
 15  2  1  1  0  0  0
 15 17  1  0  0  0  0
 16 25  1  0  0  0  0
 16 23  1  0  0  0  0
 17 19  1  0  0  0  0
 19  5  1  1  0  0  0
 19 21  1  0  0  0  0
 21 14  1  6  0  0  0
 23 14  1  1  0  0  0
 23 29  1  0  0  0  0
 25 26  1  6  0  0  0
 25 27  1  0  0  0  0
 27 18  1  1  0  0  0
 27 28  1  0  0  0  0
 28 20  1  6  0  0  0
 28 29  1  0  0  0  0
 29 11  1  1  0  0  0
 30 22  1  6  0  0  0
 30 31  1  0  0  0  0
 31 24  1  1  0  0  0
M  END
>  <CHROM.1>
60.84144345,-69.87829777,59.57932836,62.87072282,67.97914227,62.73940915
37.79154902,26.39883779,1.03679219,2.05684427,-0.17729803,2.26081954

>  <Name>
ligand

>  <RI>
0

>  <Rbt.Current_Directory>
/home/itssahil/PROJECTS/Mol_Feturizer/New_Systems/rnas/2ET5

>  <Rbt.Executable>
rbdock ($Id: //depot/dev/client3/rdock/2013.1/src/exe/rbdock.cxx#4 $)

>  <Rbt.Library>
libRbt.so (2013.1, Build901 2013/11/27)

>  <Rbt.Parameter_File>
/export/apps/rDock/src/rDock_2013.1_src/data/scripts/dock_solv.prm

>  <Rbt.Receptor>
prm/pocket_docking_8.prm

>  <SCORE>
-12.4439

>  <SCORE.INTER>
-6.05591

>  <SCORE.INTER.CONST>
1

>  <SCORE.INTER.POLAR>
0

>  <SCORE.INTER.ROT>
6

>  <SCORE.INTER.SOLV>
12.9569

>  <SCORE.INTER.VDW>
-15.9562

>  <SCORE.INTER.norm>
-0.195352

>  <SCORE.INTRA>
-6.38798

>  <SCORE.INTRA.DIHEDRAL>
-10.2544

>  <SCORE.INTRA.DIHEDRAL.0>
11.2357

>  <SCORE.INTRA.POLAR>
0

>  <SCORE.INTRA.POLAR.0>
0

>  <SCORE.INTRA.REPUL>
0

>  <SCORE.INTRA.REPUL.0>
0

>  <SCORE.INTRA.SOLV>
-3.30058

>  <SCORE.INTRA.SOLV.lig_0>
-83.3092

>  <SCORE.INTRA.VDW>
0.389499

>  <SCORE.INTRA.VDW.0>
-4.47057

>  <SCORE.INTRA.norm>
-0.206064

>  <SCORE.RESTR>
0

>  <SCORE.RESTR.CAVITY>
0

>  <SCORE.RESTR.norm>
0

>  <SCORE.SYSTEM>
0

>  <SCORE.SYSTEM.CONST>
0

>  <SCORE.SYSTEM.DIHEDRAL>
0

>  <SCORE.SYSTEM.SOLV>
0

>  <SCORE.SYSTEM.norm>
0

>  <SCORE.heavy>
31

>  <SCORE.norm>
-0.401416

>  <RMSD>
7.479

$$$$
ligand
 OpenBabel11021811433D
libRbt.so/2013.1/901 2013/11/27
 31 33  0  0  0  0  0  0  0  0999 V2000
   34.8677   28.1678    2.2585 C   0  0  0  0  0  0  0  0  0  0  0  0
   32.8835   25.6542    4.6125 N   0  0  0  0  0  0  0  0  0  0  0  0
   35.3162   29.0887    3.2637 O   0  0  0  0  0  0  0  0  0  0  0  0
   36.0979   27.9314    1.3861 C   0  0  1  0  0  0  0  0  0  0  0  0
   37.0215   27.2103    7.0993 N   0  0  0  0  0  0  0  0  0  0  0  0
   37.2545   27.2432    2.0880 O   0  0  0  0  0  0  0  0  0  0  0  0
   37.4266   25.9323    1.7086 C   0  0  1  0  0  0  0  0  0  0  0  0
   42.1574   29.3213    4.6654 N   0  0  0  0  0  0  0  0  0  0  0  0
   37.5622   24.9702    2.7173 O   0  0  0  0  0  0  0  0  0  0  0  0
   36.7606   24.9897    3.9872 C   0  0  2  0  0  0  0  0  0  0  0  0
   40.5421   23.5938    4.9779 N   0  0  0  0  0  0  0  0  0  0  0  0
   34.7466   24.2581    2.7222 O   0  0  0  0  0  0  0  0  0  0  0  0
   35.2782   25.2989    3.6231 C   0  0  1  0  0  0  0  0  0  0  0  0
   38.6068   25.8128    5.3082 O   0  0  0  0  0  0  0  0  0  0  0  0
   34.3747   25.3466    4.9550 C   0  0  1  0  0  0  0  0  0  0  0  0
   40.2694   27.3192    4.5135 O   0  0  0  0  0  0  0  0  0  0  0  0
   34.9720   26.4753    5.9034 C   0  0  0  0  0  0  0  0  0  0  0  0
   42.4073   27.3280    7.5631 O   0  0  0  0  0  0  0  0  0  0  0  0
   36.4869   26.1251    6.2116 C   0  0  1  0  0  0  0  0  0  0  0  0
   42.6497   24.5931    6.7782 O   0  0  0  0  0  0  0  0  0  0  0  0
   37.3125   26.1209    4.9645 C   0  0  2  0  0  0  0  0  0  0  0  0
   36.7307   24.6985   -0.2105 O   0  0  0  0  0  0  0  0  0  0  0  0
   39.7935   25.8931    4.4777 C   0  0  1  0  0  0  0  0  0  0  0  0
   36.9150   27.3756   -0.8897 O   0  0  0  0  0  0  0  0  0  0  0  0
   40.7576   27.8188    5.8665 C   0  0  2  0  0  0  0  0  0  0  0  0
   41.1777   29.2797    5.7548 C   0  0  0  0  0  0  0  0  0  0  0  0
   41.9344   26.9184    6.3082 C   0  0  2  0  0  0  0  0  0  0  0  0
   41.5059   25.4619    6.3715 C   0  0  1  0  0  0  0  0  0  0  0  0
   40.9871   25.0427    4.9835 C   0  0  1  0  0  0  0  0  0  0  0  0
   36.3194   25.6459    0.7073 C   0  0  2  0  0  0  0  0  0  0  0  0
   35.9376   27.0512    0.1411 C   0  0  1  0  0  0  0  0  0  0  0  0
  1  3  1  0  0  0  0
  4  1  1  1  0  0  0
  4  6  1  0  0  0  0
  4 31  1  0  0  0  0
  6  7  1  0  0  0  0
  7  9  1  1  0  0  0
  7 30  1  0  0  0  0
  8 26  1  0  0  0  0
 10  9  1  6  0  0  0
 10 13  1  0  0  0  0
 10 21  1  0  0  0  0
 13 12  1  6  0  0  0
 13 15  1  0  0  0  0
 15  2  1  6  0  0  0
 15 17  1  0  0  0  0
 16 25  1  0  0  0  0
 16 23  1  0  0  0  0
 17 19  1  0  0  0  0
 19  5  1  1  0  0  0
 19 21  1  0  0  0  0
 21 14  1  1  0  0  0
 23 14  1  1  0  0  0
 23 29  1  0  0  0  0
 25 26  1  6  0  0  0
 25 27  1  0  0  0  0
 27 18  1  1  0  0  0
 27 28  1  0  0  0  0
 28 20  1  6  0  0  0
 28 29  1  0  0  0  0
 29 11  1  1  0  0  0
 30 22  1  6  0  0  0
 30 31  1  0  0  0  0
 31 24  1  6  0  0  0
M  END
>  <CHROM.1>
64.73727428,39.62998389,44.29199928,83.00985378,72.41956202,-54.51763830
37.98318160,26.38951538,3.99897574,-2.56709375,0.18219791,1.75666538

>  <Name>
ligand

>  <RI>
0

>  <Rbt.Current_Directory>
/home/itssahil/PROJECTS/Mol_Feturizer/New_Systems/rnas/2ET5

>  <Rbt.Executable>
rbdock ($Id: //depot/dev/client3/rdock/2013.1/src/exe/rbdock.cxx#4 $)

>  <Rbt.Library>
libRbt.so (2013.1, Build901 2013/11/27)

>  <Rbt.Parameter_File>
/export/apps/rDock/src/rDock_2013.1_src/data/scripts/dock_solv.prm

>  <Rbt.Receptor>
prm/pocket_docking_6.prm

>  <SCORE>
-7.50732

>  <SCORE.INTER>
-5.31756

>  <SCORE.INTER.CONST>
1

>  <SCORE.INTER.POLAR>
0

>  <SCORE.INTER.ROT>
6

>  <SCORE.INTER.SOLV>
17.8851

>  <SCORE.INTER.VDW>
-17.1068

>  <SCORE.INTER.norm>
-0.171534

>  <SCORE.INTRA>
-2.19088

>  <SCORE.INTRA.DIHEDRAL>
-4.91753

>  <SCORE.INTRA.DIHEDRAL.0>
11.2357

>  <SCORE.INTRA.POLAR>
0

>  <SCORE.INTRA.POLAR.0>
0

>  <SCORE.INTRA.REPUL>
0.00997012

>  <SCORE.INTRA.REPUL.0>
0

>  <SCORE.INTRA.SOLV>
-0.172638

>  <SCORE.INTRA.SOLV.lig_0>
-83.3092

>  <SCORE.INTRA.VDW>
0.304353

>  <SCORE.INTRA.VDW.0>
-4.47057

>  <SCORE.INTRA.norm>
-0.0706736

>  <SCORE.RESTR>
0.00112255

>  <SCORE.RESTR.CAVITY>
0.00112255

>  <SCORE.RESTR.norm>
3.62112e-05

>  <SCORE.SYSTEM>
0

>  <SCORE.SYSTEM.CONST>
0

>  <SCORE.SYSTEM.DIHEDRAL>
0

>  <SCORE.SYSTEM.SOLV>
0

>  <SCORE.SYSTEM.norm>
0

>  <SCORE.heavy>
31

>  <SCORE.norm>
-0.242172

>  <RMSD>
7.481

$$$$
ligand
 OpenBabel11021811433D
libRbt.so/2013.1/901 2013/11/27
 31 33  0  0  0  0  0  0  0  0999 V2000
   33.9169   24.3432    3.9354 C   0  0  0  0  0  0  0  0  0  0  0  0
   40.4627   23.5175    5.0245 N   0  0  0  0  0  0  0  0  0  0  0  0
   32.5826   24.7560    4.2654 O   0  0  0  0  0  0  0  0  0  0  0  0
   34.6344   25.6398    3.5691 C   0  0  1  0  0  0  0  0  0  0  0  0
   41.5973   26.8521    1.3746 N   0  0  0  0  0  0  0  0  0  0  0  0
   36.1065   25.4814    3.2346 O   0  0  0  0  0  0  0  0  0  0  0  0
   36.3824   25.6073    1.8929 C   0  0  1  0  0  0  0  0  0  0  0  0
   36.7888   30.2665   -0.1250 N   0  0  0  0  0  0  0  0  0  0  0  0
   37.1772   24.6232    1.2919 O   0  0  0  0  0  0  0  0  0  0  0  0
   38.6334   24.4344    1.6074 C   0  0  2  0  0  0  0  0  0  0  0  0
   38.8697   25.4020   -2.8804 N   0  0  0  0  0  0  0  0  0  0  0  0
   38.0303   22.8297    3.4110 O   0  0  0  0  0  0  0  0  0  0  0  0
   38.7625   24.0769    3.1177 C   0  0  1  0  0  0  0  0  0  0  0  0
   39.3457   26.0591   -0.0309 O   0  0  0  0  0  0  0  0  0  0  0  0
   40.3105   23.8780    3.5138 C   0  0  1  0  0  0  0  0  0  0  0  0
   37.7660   27.8290   -0.2235 O   0  0  0  0  0  0  0  0  0  0  0  0
   41.0709   25.2363    3.1865 C   0  0  0  0  0  0  0  0  0  0  0  0
   39.8915   30.1568   -2.2070 O   0  0  0  0  0  0  0  0  0  0  0  0
   40.8768   25.5646    1.6479 C   0  0  1  0  0  0  0  0  0  0  0  0
   39.6480   27.9910   -4.0521 O   0  0  0  0  0  0  0  0  0  0  0  0
   39.4355   25.7791    1.3114 C   0  0  2  0  0  0  0  0  0  0  0  0
   35.1942   26.6095    0.0837 O   0  0  0  0  0  0  0  0  0  0  0  0
   38.1785   26.4924   -0.7756 C   0  0  1  0  0  0  0  0  0  0  0  0
   34.4321   27.8411    2.4425 O   0  0  0  0  0  0  0  0  0  0  0  0
   38.7562   28.9659   -0.4368 C   0  0  2  0  0  0  0  0  0  0  0  0
   38.2182   30.2431    0.1979 C   0  0  0  0  0  0  0  0  0  0  0  0
   38.9686   29.1306   -1.9594 C   0  0  2  0  0  0  0  0  0  0  0  0
   39.4637   27.8344   -2.5790 C   0  0  1  0  0  0  0  0  0  0  0  0
   38.4345   26.7268   -2.2866 C   0  0  1  0  0  0  0  0  0  0  0  0
   35.0399   25.8346    1.2173 C   0  0  2  0  0  0  0  0  0  0  0  0
   34.1325   26.4184    2.3474 C   0  0  1  0  0  0  0  0  0  0  0  0
  1  3  1  0  0  0  0
  4  1  1  6  0  0  0
  4  6  1  0  0  0  0
  4 31  1  0  0  0  0
  6  7  1  0  0  0  0
  7  9  1  6  0  0  0
  7 30  1  0  0  0  0
  8 26  1  0  0  0  0
 10  9  1  1  0  0  0
 10 13  1  0  0  0  0
 10 21  1  0  0  0  0
 13 12  1  6  0  0  0
 13 15  1  0  0  0  0
 15  2  1  1  0  0  0
 15 17  1  0  0  0  0
 16 25  1  0  0  0  0
 16 23  1  0  0  0  0
 17 19  1  0  0  0  0
 19  5  1  1  0  0  0
 19 21  1  0  0  0  0
 21 14  1  6  0  0  0
 23 14  1  1  0  0  0
 23 29  1  0  0  0  0
 25 26  1  6  0  0  0
 25 27  1  0  0  0  0
 27 18  1  1  0  0  0
 27 28  1  0  0  0  0
 28 20  1  6  0  0  0
 28 29  1  0  0  0  0
 29 11  1  1  0  0  0
 30 22  1  6  0  0  0
 30 31  1  0  0  0  0
 31 24  1  1  0  0  0
M  END
>  <CHROM.1>
177.35119097,-67.84883845,61.46252898,62.92518067,70.06976865,-41.33678276
37.79987759,26.34508794,0.99989906,2.06557018,-0.22051914,2.28714473

>  <Name>
ligand

>  <RI>
0

>  <Rbt.Current_Directory>
/home/itssahil/PROJECTS/Mol_Feturizer/New_Systems/rnas/2ET5

>  <Rbt.Executable>
rbdock ($Id: //depot/dev/client3/rdock/2013.1/src/exe/rbdock.cxx#4 $)

>  <Rbt.Library>
libRbt.so (2013.1, Build901 2013/11/27)

>  <Rbt.Parameter_File>
/export/apps/rDock/src/rDock_2013.1_src/data/scripts/dock_solv.prm

>  <Rbt.Receptor>
prm/pocket_docking_6.prm

>  <SCORE>
-9.7717

>  <SCORE.INTER>
-4.94507

>  <SCORE.INTER.CONST>
1

>  <SCORE.INTER.POLAR>
0

>  <SCORE.INTER.ROT>
6

>  <SCORE.INTER.SOLV>
16.6754

>  <SCORE.INTER.VDW>
-16.4552

>  <SCORE.INTER.norm>
-0.159518

>  <SCORE.INTRA>
-4.8326

>  <SCORE.INTRA.DIHEDRAL>
-9.07147

>  <SCORE.INTRA.DIHEDRAL.0>
11.2357

>  <SCORE.INTRA.POLAR>
0

>  <SCORE.INTRA.POLAR.0>
0

>  <SCORE.INTRA.REPUL>
0

>  <SCORE.INTRA.REPUL.0>
0

>  <SCORE.INTRA.SOLV>
-1.90422

>  <SCORE.INTRA.SOLV.lig_0>
-83.3092

>  <SCORE.INTRA.VDW>
0.655246

>  <SCORE.INTRA.VDW.0>
-4.47057

>  <SCORE.INTRA.norm>
-0.15589

>  <SCORE.RESTR>
0.00596198

>  <SCORE.RESTR.CAVITY>
0.00596198

>  <SCORE.RESTR.norm>
0.000192322

>  <SCORE.SYSTEM>
0

>  <SCORE.SYSTEM.CONST>
0

>  <SCORE.SYSTEM.DIHEDRAL>
0

>  <SCORE.SYSTEM.SOLV>
0

>  <SCORE.SYSTEM.norm>
0

>  <SCORE.heavy>
31

>  <SCORE.norm>
-0.315216

>  <RMSD>
7.494

$$$$
ligand
 OpenBabel11021811433D
libRbt.so/2013.1/901 2013/11/27
 31 33  0  0  0  0  0  0  0  0999 V2000
   42.8852   23.7141    3.5149 C   0  0  0  0  0  0  0  0  0  0  0  0
   43.1746   29.9101    2.0997 N   0  0  0  0  0  0  0  0  0  0  0  0
   44.0190   24.5828    3.6545 O   0  0  0  0  0  0  0  0  0  0  0  0
   41.8227   24.3300    4.4214 C   0  0  1  0  0  0  0  0  0  0  0  0
   38.4001   30.7180    3.6096 N   0  0  0  0  0  0  0  0  0  0  0  0
   41.2665   25.6581    3.9408 O   0  0  0  0  0  0  0  0  0  0  0  0
   39.9876   25.5706    3.4419 C   0  0  1  0  0  0  0  0  0  0  0  0
   39.2753   26.2894   -0.9533 N   0  0  0  0  0  0  0  0  0  0  0  0
   39.7269   26.1614    2.1992 O   0  0  0  0  0  0  0  0  0  0  0  0
   39.9159   27.6265    1.9278 C   0  0  2  0  0  0  0  0  0  0  0  0
   34.8203   28.8590    2.9388 N   0  0  0  0  0  0  0  0  0  0  0  0
   42.2633   27.1895    1.2274 O   0  0  0  0  0  0  0  0  0  0  0  0
   41.4181   27.9732    2.1488 C   0  0  1  0  0  0  0  0  0  0  0  0
   37.6984   28.2001    2.6923 O   0  0  0  0  0  0  0  0  0  0  0  0
   41.6736   29.5409    1.8847 C   0  0  1  0  0  0  0  0  0  0  0  0
   37.3974   27.9739    0.3421 O   0  0  0  0  0  0  0  0  0  0  0  0
   40.7503   30.3567    2.8908 C   0  0  0  0  0  0  0  0  0  0  0  0
   35.5777   24.7249    0.4008 O   0  0  0  0  0  0  0  0  0  0  0  0
   39.2416   29.9388    2.6421 C   0  0  1  0  0  0  0  0  0  0  0  0
   33.7142   26.3785    1.7964 O   0  0  0  0  0  0  0  0  0  0  0  0
   39.0215   28.4872    2.9269 C   0  0  2  0  0  0  0  0  0  0  0  0
   38.2485   23.9621    3.7206 O   0  0  0  0  0  0  0  0  0  0  0  0
   36.8729   28.6408    1.5837 C   0  0  1  0  0  0  0  0  0  0  0  0
   39.9093   23.8727    5.9332 O   0  0  0  0  0  0  0  0  0  0  0  0
   37.2588   26.4582    0.2976 C   0  0  2  0  0  0  0  0  0  0  0  0
   37.8565   25.9244   -0.9990 C   0  0  0  0  0  0  0  0  0  0  0  0
   35.7558   26.1157    0.4169 C   0  0  2  0  0  0  0  0  0  0  0  0
   35.1699   26.6934    1.6945 C   0  0  1  0  0  0  0  0  0  0  0  0
   35.3848   28.2183    1.6866 C   0  0  1  0  0  0  0  0  0  0  0  0
   39.6105   24.1010    3.5342 C   0  0  2  0  0  0  0  0  0  0  0  0
   40.5337   23.5353    4.6607 C   0  0  1  0  0  0  0  0  0  0  0  0
  1  3  1  0  0  0  0
  4  1  1  6  0  0  0
  4  6  1  0  0  0  0
  4 31  1  0  0  0  0
  6  7  1  0  0  0  0
  7  9  1  6  0  0  0
  7 30  1  0  0  0  0
  8 26  1  0  0  0  0
 10  9  1  1  0  0  0
 10 13  1  0  0  0  0
 10 21  1  0  0  0  0
 13 12  1  6  0  0  0
 13 15  1  0  0  0  0
 15  2  1  1  0  0  0
 15 17  1  0  0  0  0
 16 25  1  0  0  0  0
 16 23  1  0  0  0  0
 17 19  1  0  0  0  0
 19  5  1  1  0  0  0
 19 21  1  0  0  0  0
 21 14  1  6  0  0  0
 23 14  1  1  0  0  0
 23 29  1  0  0  0  0
 25 26  1  6  0  0  0
 25 27  1  0  0  0  0
 27 18  1  1  0  0  0
 27 28  1  0  0  0  0
 28 20  1  6  0  0  0
 28 29  1  0  0  0  0
 29 11  1  1  0  0  0
 30 22  1  1  0  0  0
 30 31  1  0  0  0  0
 31 24  1  1  0  0  0
M  END
>  <CHROM.1>
69.11260454,-59.93338523,61.15346970,67.73401618,-75.04869871,61.94693081
39.05714186,26.78216211,2.34175344,0.33807843,0.26886324,2.88099708

>  <Name>
ligand

>  <RI>
0

>  <Rbt.Current_Directory>
/home/itssahil/PROJECTS/Mol_Feturizer/New_Systems/rnas/2ET5

>  <Rbt.Executable>
rbdock ($Id: //depot/dev/client3/rdock/2013.1/src/exe/rbdock.cxx#4 $)

>  <Rbt.Library>
libRbt.so (2013.1, Build901 2013/11/27)

>  <Rbt.Parameter_File>
/export/apps/rDock/src/rDock_2013.1_src/data/scripts/dock_solv.prm

>  <Rbt.Receptor>
prm/pocket_docking_7.prm

>  <SCORE>
-7.14769

>  <SCORE.INTER>
-2.69161

>  <SCORE.INTER.CONST>
1

>  <SCORE.INTER.POLAR>
0

>  <SCORE.INTER.ROT>
6

>  <SCORE.INTER.SOLV>
10.5283

>  <SCORE.INTER.VDW>
-12.9038

>  <SCORE.INTER.norm>
-0.0868261

>  <SCORE.INTRA>
-4.45608

>  <SCORE.INTRA.DIHEDRAL>
-9.43028

>  <SCORE.INTRA.DIHEDRAL.0>
11.2357

>  <SCORE.INTRA.POLAR>
0

>  <SCORE.INTRA.POLAR.0>
0

>  <SCORE.INTRA.REPUL>
0

>  <SCORE.INTRA.REPUL.0>
0

>  <SCORE.INTRA.SOLV>
-0.723158

>  <SCORE.INTRA.SOLV.lig_0>
-83.3092

>  <SCORE.INTRA.VDW>
0.620636

>  <SCORE.INTRA.VDW.0>
-4.47057

>  <SCORE.INTRA.norm>
-0.143745

>  <SCORE.RESTR>
0

>  <SCORE.RESTR.CAVITY>
0

>  <SCORE.RESTR.norm>
0

>  <SCORE.SYSTEM>
0

>  <SCORE.SYSTEM.CONST>
0

>  <SCORE.SYSTEM.DIHEDRAL>
0

>  <SCORE.SYSTEM.SOLV>
0

>  <SCORE.SYSTEM.norm>
0

>  <SCORE.heavy>
31

>  <SCORE.norm>
-0.230571

>  <RMSD>
7.539

$$$$
ligand
 OpenBabel11021811433D
libRbt.so/2013.1/901 2013/11/27
 31 33  0  0  0  0  0  0  0  0999 V2000
   40.4461   29.9634   -1.4216 C   0  0  0  0  0  0  0  0  0  0  0  0
   43.2068   24.4492    0.4716 N   0  0  0  0  0  0  0  0  0  0  0  0
   41.3701   29.0877   -2.0841 O   0  0  0  0  0  0  0  0  0  0  0  0
   39.2638   29.0661   -1.0650 C   0  0  1  0  0  0  0  0  0  0  0  0
   39.1329   23.1757    3.2122 N   0  0  0  0  0  0  0  0  0  0  0  0
   39.5869   27.9385   -0.1016 O   0  0  0  0  0  0  0  0  0  0  0  0
   39.0948   28.1408    1.1669 C   0  0  1  0  0  0  0  0  0  0  0  0
   34.0845   26.7356    2.0931 N   0  0  0  0  0  0  0  0  0  0  0  0
   39.9690   27.9590    2.2459 O   0  0  0  0  0  0  0  0  0  0  0  0
   40.6244   26.6453    2.5627 C   0  0  2  0  0  0  0  0  0  0  0  0
   38.1879   27.2514    6.3839 N   0  0  0  0  0  0  0  0  0  0  0  0
   42.5885   27.2967    1.1808 O   0  0  0  0  0  0  0  0  0  0  0  0
   41.5521   26.2636    1.3713 C   0  0  1  0  0  0  0  0  0  0  0  0
   38.7332   25.8456    3.8335 O   0  0  0  0  0  0  0  0  0  0  0  0
   42.2704   24.8505    1.6539 C   0  0  1  0  0  0  0  0  0  0  0  0
   36.7163   26.7544    2.9553 O   0  0  0  0  0  0  0  0  0  0  0  0
   41.1293   23.7606    1.8546 C   0  0  0  0  0  0  0  0  0  0  0  0
   34.3492   24.5981    4.8574 O   0  0  0  0  0  0  0  0  0  0  0  0
   40.2004   24.2184    3.0547 C   0  0  1  0  0  0  0  0  0  0  0  0
   35.5862   26.0158    7.0055 O   0  0  0  0  0  0  0  0  0  0  0  0
   39.5179   25.5148    2.7550 C   0  0  2  0  0  0  0  0  0  0  0  0
   37.3590   29.5328    2.0262 O   0  0  0  0  0  0  0  0  0  0  0  0
   37.8157   26.9622    3.9601 C   0  0  1  0  0  0  0  0  0  0  0  0
   36.8225   28.9760   -0.6316 O   0  0  0  0  0  0  0  0  0  0  0  0
   35.8247   25.5431    3.1929 C   0  0  2  0  0  0  0  0  0  0  0  0
   34.7818   25.4464    2.0854 C   0  0  0  0  0  0  0  0  0  0  0  0
   35.1677   25.7031    4.5833 C   0  0  2  0  0  0  0  0  0  0  0  0
   36.2239   25.8409    5.6671 C   0  0  1  0  0  0  0  0  0  0  0  0
   37.1093   27.0569    5.3370 C   0  0  1  0  0  0  0  0  0  0  0  0
   38.4102   29.4974    1.1302 C   0  0  2  0  0  0  0  0  0  0  0  0
   38.0549   29.7102   -0.3764 C   0  0  1  0  0  0  0  0  0  0  0  0
  1  3  1  0  0  0  0
  4  1  1  1  0  0  0
  4  6  1  0  0  0  0
  4 31  1  0  0  0  0
  6  7  1  0  0  0  0
  7  9  1  1  0  0  0
  7 30  1  0  0  0  0
  8 26  1  0  0  0  0
 10  9  1  6  0  0  0
 10 13  1  0  0  0  0
 10 21  1  0  0  0  0
 13 12  1  1  0  0  0
 13 15  1  0  0  0  0
 15  2  1  6  0  0  0
 15 17  1  0  0  0  0
 16 25  1  0  0  0  0
 16 23  1  0  0  0  0
 17 19  1  0  0  0  0
 19  5  1  6  0  0  0
 19 21  1  0  0  0  0
 21 14  1  1  0  0  0
 23 14  1  1  0  0  0
 23 29  1  0  0  0  0
 25 26  1  6  0  0  0
 25 27  1  0  0  0  0
 27 18  1  1  0  0  0
 27 28  1  0  0  0  0
 28 20  1  1  0  0  0
 28 29  1  0  0  0  0
 29 11  1  1  0  0  0
 30 22  1  1  0  0  0
 30 31  1  0  0  0  0
 31 24  1  6  0  0  0
M  END
>  <CHROM.1>
62.82647321,-61.99973019,63.26193166,64.57165962,66.87418053,-55.79206293
38.54001524,26.79574602,2.27497146,0.73823749,0.37413030,-0.79374274

>  <Name>
ligand

>  <RI>
0

>  <Rbt.Current_Directory>
/home/itssahil/PROJECTS/Mol_Feturizer/New_Systems/rnas/2ET5

>  <Rbt.Executable>
rbdock ($Id: //depot/dev/client3/rdock/2013.1/src/exe/rbdock.cxx#4 $)

>  <Rbt.Library>
libRbt.so (2013.1, Build901 2013/11/27)

>  <Rbt.Parameter_File>
/export/apps/rDock/src/rDock_2013.1_src/data/scripts/dock_solv.prm

>  <Rbt.Receptor>
prm/pocket_docking_6.prm

>  <SCORE>
-5.88396

>  <SCORE.INTER>
-0.0879626

>  <SCORE.INTER.CONST>
1

>  <SCORE.INTER.POLAR>
0

>  <SCORE.INTER.ROT>
6

>  <SCORE.INTER.SOLV>
9.79698

>  <SCORE.INTER.VDW>
-10.9243

>  <SCORE.INTER.norm>
-0.0028375

>  <SCORE.INTRA>
-5.796

>  <SCORE.INTRA.DIHEDRAL>
-10.596

>  <SCORE.INTRA.DIHEDRAL.0>
11.2357

>  <SCORE.INTRA.POLAR>
0

>  <SCORE.INTRA.POLAR.0>
0

>  <SCORE.INTRA.REPUL>
0

>  <SCORE.INTRA.REPUL.0>
0

>  <SCORE.INTRA.SOLV>
-2.02999

>  <SCORE.INTRA.SOLV.lig_0>
-83.3092

>  <SCORE.INTRA.VDW>
0.517008

>  <SCORE.INTRA.VDW.0>
-4.47057

>  <SCORE.INTRA.norm>
-0.186968

>  <SCORE.RESTR>
0

>  <SCORE.RESTR.CAVITY>
0

>  <SCORE.RESTR.norm>
0

>  <SCORE.SYSTEM>
0

>  <SCORE.SYSTEM.CONST>
0

>  <SCORE.SYSTEM.DIHEDRAL>
0

>  <SCORE.SYSTEM.SOLV>
0

>  <SCORE.SYSTEM.norm>
0

>  <SCORE.heavy>
31

>  <SCORE.norm>
-0.189805

>  <RMSD>
7.546

$$$$
ligand
 OpenBabel11021811433D
libRbt.so/2013.1/901 2013/11/27
 31 33  0  0  0  0  0  0  0  0999 V2000
   42.5566   23.3176    3.3447 C   0  0  0  0  0  0  0  0  0  0  0  0
   43.2039   29.7049    2.1387 N   0  0  0  0  0  0  0  0  0  0  0  0
   43.7395   24.1271    3.2725 O   0  0  0  0  0  0  0  0  0  0  0  0
   41.6512   24.0575    4.3259 C   0  0  1  0  0  0  0  0  0  0  0  0
   38.4688   30.7202    3.6472 N   0  0  0  0  0  0  0  0  0  0  0  0
   41.2127   25.4381    3.8722 O   0  0  0  0  0  0  0  0  0  0  0  0
   39.8951   25.4961    3.4817 C   0  0  1  0  0  0  0  0  0  0  0  0
   37.3423   26.6416   -2.0053 N   0  0  0  0  0  0  0  0  0  0  0  0
   39.6009   26.1057    2.2556 O   0  0  0  0  0  0  0  0  0  0  0  0
   39.8515   27.5603    1.9779 C   0  0  2  0  0  0  0  0  0  0  0  0
   34.7730   28.8779    2.8839 N   0  0  0  0  0  0  0  0  0  0  0  0
   42.1779   27.0216    1.2783 O   0  0  0  0  0  0  0  0  0  0  0  0
   41.3671   27.8442    2.1968 C   0  0  1  0  0  0  0  0  0  0  0  0
   37.6607   28.2303    2.7409 O   0  0  0  0  0  0  0  0  0  0  0  0
   41.6885   29.3985    1.9259 C   0  0  1  0  0  0  0  0  0  0  0  0
   37.4359   27.9608    0.3868 O   0  0  0  0  0  0  0  0  0  0  0  0
   40.8012   30.2569    2.9289 C   0  0  0  0  0  0  0  0  0  0  0  0
   35.6312   24.7035    0.4460 O   0  0  0  0  0  0  0  0  0  0  0  0
   39.2760   29.9020    2.6827 C   0  0  1  0  0  0  0  0  0  0  0  0
   33.7161   26.3714    1.7516 O   0  0  0  0  0  0  0  0  0  0  0  0
   38.9949   28.4623    2.9738 C   0  0  2  0  0  0  0  0  0  0  0  0
   38.0124   24.1009    3.9274 O   0  0  0  0  0  0  0  0  0  0  0  0
   36.8688   28.6468    1.5989 C   0  0  1  0  0  0  0  0  0  0  0  0
   39.8310   23.8333    5.9970 O   0  0  0  0  0  0  0  0  0  0  0  0
   37.3062   26.4438    0.3652 C   0  0  2  0  0  0  0  0  0  0  0  0
   37.9476   25.8902   -0.9019 C   0  0  0  0  0  0  0  0  0  0  0  0
   35.8018   26.0952    0.4428 C   0  0  2  0  0  0  0  0  0  0  0  0
   35.1727   26.6924    1.6905 C   0  0  1  0  0  0  0  0  0  0  0  0
   35.3803   28.2180    1.6620 C   0  0  1  0  0  0  0  0  0  0  0  0
   39.3610   24.0804    3.6274 C   0  0  2  0  0  0  0  0  0  0  0  0
   40.3041   23.4184    4.6828 C   0  0  1  0  0  0  0  0  0  0  0  0
  1  3  1  0  0  0  0
  4  1  1  6  0  0  0
  4  6  1  0  0  0  0
  4 31  1  0  0  0  0
  6  7  1  0  0  0  0
  7  9  1  6  0  0  0
  7 30  1  0  0  0  0
  8 26  1  0  0  0  0
 10  9  1  1  0  0  0
 10 13  1  0  0  0  0
 10 21  1  0  0  0  0
 13 12  1  6  0  0  0
 13 15  1  0  0  0  0
 15  2  1  1  0  0  0
 15 17  1  0  0  0  0
 16 25  1  0  0  0  0
 16 23  1  0  0  0  0
 17 19  1  0  0  0  0
 19  5  1  1  0  0  0
 19 21  1  0  0  0  0
 21 14  1  6  0  0  0
 23 14  1  1  0  0  0
 23 29  1  0  0  0  0
 25 26  1  6  0  0  0
 25 27  1  0  0  0  0
 27 18  1  1  0  0  0
 27 28  1  0  0  0  0
 28 20  1  6  0  0  0
 28 29  1  0  0  0  0
 29 11  1  1  0  0  0
 30 22  1  1  0  0  0
 30 31  1  0  0  0  0
 31 24  1  1  0  0  0
M  END
>  <CHROM.1>
63.37028887,-64.05835492,58.10016325,63.52260386,-71.81361015,-52.31840527
38.94003211,26.71410485,2.31946476,0.39138980,0.29472495,2.88229729

>  <Name>
ligand

>  <RI>
0

>  <Rbt.Current_Directory>
/home/itssahil/PROJECTS/Mol_Feturizer/New_Systems/rnas/2ET5

>  <Rbt.Executable>
rbdock ($Id: //depot/dev/client3/rdock/2013.1/src/exe/rbdock.cxx#4 $)

>  <Rbt.Library>
libRbt.so (2013.1, Build901 2013/11/27)

>  <Rbt.Parameter_File>
/export/apps/rDock/src/rDock_2013.1_src/data/scripts/dock_solv.prm

>  <Rbt.Receptor>
prm/pocket_docking_7.prm

>  <SCORE>
-6.65199

>  <SCORE.INTER>
-1.88628

>  <SCORE.INTER.CONST>
1

>  <SCORE.INTER.POLAR>
0

>  <SCORE.INTER.ROT>
6

>  <SCORE.INTER.SOLV>
12.8085

>  <SCORE.INTER.VDW>
-13.127

>  <SCORE.INTER.norm>
-0.0608479

>  <SCORE.INTRA>
-4.76571

>  <SCORE.INTRA.DIHEDRAL>
-10.0178

>  <SCORE.INTRA.DIHEDRAL.0>
11.2357

>  <SCORE.INTRA.POLAR>
0

>  <SCORE.INTRA.POLAR.0>
0

>  <SCORE.INTRA.REPUL>
0

>  <SCORE.INTRA.REPUL.0>
0

>  <SCORE.INTRA.SOLV>
-1.7735

>  <SCORE.INTRA.SOLV.lig_0>
-83.3092

>  <SCORE.INTRA.VDW>
1.12994

>  <SCORE.INTRA.VDW.0>
-4.47057

>  <SCORE.INTRA.norm>
-0.153733

>  <SCORE.RESTR>
0

>  <SCORE.RESTR.CAVITY>
0

>  <SCORE.RESTR.norm>
0

>  <SCORE.SYSTEM>
0

>  <SCORE.SYSTEM.CONST>
0

>  <SCORE.SYSTEM.DIHEDRAL>
0

>  <SCORE.SYSTEM.SOLV>
0

>  <SCORE.SYSTEM.norm>
0

>  <SCORE.heavy>
31

>  <SCORE.norm>
-0.21458

>  <RMSD>
7.565

$$$$
ligand
 OpenBabel11021811433D
libRbt.so/2013.1/901 2013/11/27
 31 33  0  0  0  0  0  0  0  0999 V2000
   45.1444   24.4851    0.6213 C   0  0  0  0  0  0  0  0  0  0  0  0
   41.6632   26.0249    7.5892 N   0  0  0  0  0  0  0  0  0  0  0  0
   43.7487   24.2727    0.3638 O   0  0  0  0  0  0  0  0  0  0  0  0
   45.4046   23.7449    1.9306 C   0  0  1  0  0  0  0  0  0  0  0  0
   38.0377   25.9147    4.0435 N   0  0  0  0  0  0  0  0  0  0  0  0
   44.4003   24.0272    3.0332 O   0  0  0  0  0  0  0  0  0  0  0  0
   43.5333   22.9853    3.2676 C   0  0  1  0  0  0  0  0  0  0  0  0
   36.7832   28.4749    0.7497 N   0  0  0  0  0  0  0  0  0  0  0  0
   42.1642   23.2733    3.3315 O   0  0  0  0  0  0  0  0  0  0  0  0
   41.6178   24.5574    3.8867 C   0  0  2  0  0  0  0  0  0  0  0  0
   40.0704   22.8474   -0.0351 N   0  0  0  0  0  0  0  0  0  0  0  0
   43.3932   24.5543    5.6302 O   0  0  0  0  0  0  0  0  0  0  0  0
   41.9347   24.6034    5.4109 C   0  0  1  0  0  0  0  0  0  0  0  0
   39.7786   24.6171    2.3232 O   0  0  0  0  0  0  0  0  0  0  0  0
   41.3552   25.9578    6.0607 C   0  0  1  0  0  0  0  0  0  0  0  0
   37.4963   24.9480    1.7340 O   0  0  0  0  0  0  0  0  0  0  0  0
   39.7849   25.9810    5.8081 C   0  0  0  0  0  0  0  0  0  0  0  0
   38.0736   27.1816   -1.1898 O   0  0  0  0  0  0  0  0  0  0  0  0
   39.5243   25.8988    4.2467 C   0  0  1  0  0  0  0  0  0  0  0  0
   39.3224   24.7887   -2.1217 O   0  0  0  0  0  0  0  0  0  0  0  0
   40.0400   24.6179    3.6722 C   0  0  2  0  0  0  0  0  0  0  0  0
   43.6357   20.6534    2.7764 O   0  0  0  0  0  0  0  0  0  0  0  0
   38.6612   24.0025    1.6314 C   0  0  1  0  0  0  0  0  0  0  0  0
   46.2153   21.6397    2.9636 O   0  0  0  0  0  0  0  0  0  0  0  0
   37.6610   26.2796    1.0141 C   0  0  2  0  0  0  0  0  0  0  0  0
   36.4205   27.1386    1.2302 C   0  0  0  0  0  0  0  0  0  0  0  0
   37.8957   25.9825   -0.4850 C   0  0  2  0  0  0  0  0  0  0  0  0
   39.1110   25.0903   -0.6750 C   0  0  1  0  0  0  0  0  0  0  0  0
   38.8896   23.7860    0.1133 C   0  0  1  0  0  0  0  0  0  0  0  0
   43.9057   21.9073    2.2627 C   0  0  2  0  0  0  0  0  0  0  0  0
   45.3956   22.2120    1.9036 C   0  0  1  0  0  0  0  0  0  0  0  0
  1  3  1  0  0  0  0
  4  1  1  6  0  0  0
  4  6  1  0  0  0  0
  4 31  1  0  0  0  0
  6  7  1  0  0  0  0
  7  9  1  6  0  0  0
  7 30  1  0  0  0  0
  8 26  1  0  0  0  0
 10  9  1  1  0  0  0
 10 13  1  0  0  0  0
 10 21  1  0  0  0  0
 13 12  1  6  0  0  0
 13 15  1  0  0  0  0
 15  2  1  1  0  0  0
 15 17  1  0  0  0  0
 16 25  1  0  0  0  0
 16 23  1  0  0  0  0
 17 19  1  0  0  0  0
 19  5  1  1  0  0  0
 19 21  1  0  0  0  0
 21 14  1  6  0  0  0
 23 14  1  6  0  0  0
 23 29  1  0  0  0  0
 25 26  1  6  0  0  0
 25 27  1  0  0  0  0
 27 18  1  6  0  0  0
 27 28  1  0  0  0  0
 28 20  1  6  0  0  0
 28 29  1  0  0  0  0
 29 11  1  1  0  0  0
 30 22  1  1  0  0  0
 30 31  1  0  0  0  0
 31 24  1  1  0  0  0
M  END
>  <CHROM.1>
-47.86986513,-34.08168536,-66.25678533,82.12994216,145.22951121,168.54858745
41.03705529,24.57422584,2.33364835,-0.23509080,0.49896434,-1.77728591

>  <Name>
ligand

>  <RI>
0

>  <Rbt.Current_Directory>
/home/itssahil/PROJECTS/Mol_Feturizer/New_Systems/rnas/2ET5

>  <Rbt.Executable>
rbdock ($Id: //depot/dev/client3/rdock/2013.1/src/exe/rbdock.cxx#4 $)

>  <Rbt.Library>
libRbt.so (2013.1, Build901 2013/11/27)

>  <Rbt.Parameter_File>
/export/apps/rDock/src/rDock_2013.1_src/data/scripts/dock_solv.prm

>  <Rbt.Receptor>
prm/pocket_docking_4.prm

>  <SCORE>
-2.0147

>  <SCORE.INTER>
-3.85723

>  <SCORE.INTER.CONST>
1

>  <SCORE.INTER.POLAR>
0

>  <SCORE.INTER.ROT>
6

>  <SCORE.INTER.SOLV>
18.8835

>  <SCORE.INTER.VDW>
-16.466

>  <SCORE.INTER.norm>
-0.124427

>  <SCORE.INTRA>
1.83353

>  <SCORE.INTRA.DIHEDRAL>
-0.55096

>  <SCORE.INTRA.DIHEDRAL.0>
11.2357

>  <SCORE.INTRA.POLAR>
0

>  <SCORE.INTRA.POLAR.0>
0

>  <SCORE.INTRA.REPUL>
0

>  <SCORE.INTRA.REPUL.0>
0

>  <SCORE.INTRA.SOLV>
0.886416

>  <SCORE.INTRA.SOLV.lig_0>
-83.3092

>  <SCORE.INTRA.VDW>
1.6658

>  <SCORE.INTRA.VDW.0>
-4.47057

>  <SCORE.INTRA.norm>
0.059146

>  <SCORE.RESTR>
0.00900139

>  <SCORE.RESTR.CAVITY>
0.00900139

>  <SCORE.RESTR.norm>
0.000290367

>  <SCORE.SYSTEM>
0

>  <SCORE.SYSTEM.CONST>
0

>  <SCORE.SYSTEM.DIHEDRAL>
0

>  <SCORE.SYSTEM.SOLV>
0

>  <SCORE.SYSTEM.norm>
0

>  <SCORE.heavy>
31

>  <SCORE.norm>
-0.0649903

>  <RMSD>
7.585

$$$$
ligand
 OpenBabel11021811433D
libRbt.so/2013.1/901 2013/11/27
 31 33  0  0  0  0  0  0  0  0999 V2000
   46.5876   27.9978    4.2850 C   0  0  0  0  0  0  0  0  0  0  0  0
   44.5102   22.0409    2.4122 N   0  0  0  0  0  0  0  0  0  0  0  0
   47.2912   27.0296    3.4931 O   0  0  0  0  0  0  0  0  0  0  0  0
   45.2360   28.1440    3.5909 C   0  0  1  0  0  0  0  0  0  0  0  0
   39.6268   23.2377    3.0814 N   0  0  0  0  0  0  0  0  0  0  0  0
   44.3672   26.8996    3.6183 O   0  0  0  0  0  0  0  0  0  0  0  0
   43.3019   26.9914    4.4836 C   0  0  1  0  0  0  0  0  0  0  0  0
   36.5936   26.4356    3.3192 N   0  0  0  0  0  0  0  0  0  0  0  0
   43.0887   25.9329    5.3755 O   0  0  0  0  0  0  0  0  0  0  0  0
   42.7149   24.5467    4.9344 C   0  0  2  0  0  0  0  0  0  0  0  0
   41.1913   25.8623    7.8140 N   0  0  0  0  0  0  0  0  0  0  0  0
   45.1204   24.0131    4.5874 O   0  0  0  0  0  0  0  0  0  0  0  0
   43.7978   24.0451    3.9338 C   0  0  1  0  0  0  0  0  0  0  0  0
   40.3452   24.9734    5.1173 O   0  0  0  0  0  0  0  0  0  0  0  0
   43.4360   22.5639    3.4163 C   0  0  1  0  0  0  0  0  0  0  0  0
   38.8333   26.8100    5.0373 O   0  0  0  0  0  0  0  0  0  0  0  0
   42.0083   22.6316    2.7183 C   0  0  0  0  0  0  0  0  0  0  0  0
   36.3133   25.4625    7.4258 O   0  0  0  0  0  0  0  0  0  0  0  0
   40.9576   23.1785    3.7718 C   0  0  1  0  0  0  0  0  0  0  0  0
   38.5719   25.7131    9.1550 O   0  0  0  0  0  0  0  0  0  0  0  0
   41.2951   24.5676    4.2112 C   0  0  2  0  0  0  0  0  0  0  0  0
   42.1746   28.8471    5.4710 O   0  0  0  0  0  0  0  0  0  0  0  0
   40.1194   26.3097    5.6351 C   0  0  1  0  0  0  0  0  0  0  0  0
   43.3432   29.6714    3.1010 O   0  0  0  0  0  0  0  0  0  0  0  0
   37.5756   26.0590    5.4531 C   0  0  2  0  0  0  0  0  0  0  0  0
   36.3628   26.6569    4.7496 C   0  0  0  0  0  0  0  0  0  0  0  0
   37.4502   26.1585    6.9909 C   0  0  2  0  0  0  0  0  0  0  0  0
   38.6874   25.5966    7.6712 C   0  0  1  0  0  0  0  0  0  0  0  0
   39.9183   26.3752    7.1709 C   0  0  1  0  0  0  0  0  0  0  0  0
   43.4234   28.3566    5.1410 C   0  0  2  0  0  0  0  0  0  0  0  0
   44.2627   29.1998    4.1281 C   0  0  1  0  0  0  0  0  0  0  0  0
  1  3  1  0  0  0  0
  4  1  1  1  0  0  0
  4  6  1  0  0  0  0
  4 31  1  0  0  0  0
  6  7  1  0  0  0  0
  7  9  1  1  0  0  0
  7 30  1  0  0  0  0
  8 26  1  0  0  0  0
 10  9  1  6  0  0  0
 10 13  1  0  0  0  0
 10 21  1  0  0  0  0
 13 12  1  1  0  0  0
 13 15  1  0  0  0  0
 15  2  1  6  0  0  0
 15 17  1  0  0  0  0
 16 25  1  0  0  0  0
 16 23  1  0  0  0  0
 17 19  1  0  0  0  0
 19  5  1  6  0  0  0
 19 21  1  0  0  0  0
 21 14  1  1  0  0  0
 23 14  1  6  0  0  0
 23 29  1  0  0  0  0
 25 26  1  6  0  0  0
 25 27  1  0  0  0  0
 27 18  1  1  0  0  0
 27 28  1  0  0  0  0
 28 20  1  1  0  0  0
 28 29  1  0  0  0  0
 29 11  1  1  0  0  0
 30 22  1  6  0  0  0
 30 31  1  0  0  0  0
 31 24  1  6  0  0  0
M  END
>  <CHROM.1>
65.35335668,-65.16527445,56.07914124,108.93374763,73.80539879,63.00851268
41.58131720,25.91104332,4.89154721,-0.02818718,0.33781355,0.32247189

>  <Name>
ligand

>  <RI>
0

>  <Rbt.Current_Directory>
/home/itssahil/PROJECTS/Mol_Feturizer/New_Systems/rnas/2ET5

>  <Rbt.Executable>
rbdock ($Id: //depot/dev/client3/rdock/2013.1/src/exe/rbdock.cxx#4 $)

>  <Rbt.Library>
libRbt.so (2013.1, Build901 2013/11/27)

>  <Rbt.Parameter_File>
/export/apps/rDock/src/rDock_2013.1_src/data/scripts/dock_solv.prm

>  <Rbt.Receptor>
prm/pocket_docking_7.prm

>  <SCORE>
-6.65289

>  <SCORE.INTER>
-4.77563

>  <SCORE.INTER.CONST>
1

>  <SCORE.INTER.POLAR>
0

>  <SCORE.INTER.ROT>
6

>  <SCORE.INTER.SOLV>
15.0782

>  <SCORE.INTER.VDW>
-15.8098

>  <SCORE.INTER.norm>
-0.154053

>  <SCORE.INTRA>
-1.87726

>  <SCORE.INTRA.DIHEDRAL>
-3.30638

>  <SCORE.INTRA.DIHEDRAL.0>
11.2357

>  <SCORE.INTRA.POLAR>
0

>  <SCORE.INTRA.POLAR.0>
0

>  <SCORE.INTRA.REPUL>
0

>  <SCORE.INTRA.REPUL.0>
0

>  <SCORE.INTRA.SOLV>
-1.54622

>  <SCORE.INTRA.SOLV.lig_0>
-83.3092

>  <SCORE.INTRA.VDW>
0.549034

>  <SCORE.INTRA.VDW.0>
-4.47057

>  <SCORE.INTRA.norm>
-0.0605569

>  <SCORE.RESTR>
0

>  <SCORE.RESTR.CAVITY>
0

>  <SCORE.RESTR.norm>
0

>  <SCORE.SYSTEM>
0

>  <SCORE.SYSTEM.CONST>
0

>  <SCORE.SYSTEM.DIHEDRAL>
0

>  <SCORE.SYSTEM.SOLV>
0

>  <SCORE.SYSTEM.norm>
0

>  <SCORE.heavy>
31

>  <SCORE.norm>
-0.214609

>  <RMSD>
7.609

$$$$
ligand
 OpenBabel11021811433D
libRbt.so/2013.1/901 2013/11/27
 31 33  0  0  0  0  0  0  0  0999 V2000
   41.8582   22.8932    3.5303 C   0  0  0  0  0  0  0  0  0  0  0  0
   43.6866   27.0373    1.7677 N   0  0  0  0  0  0  0  0  0  0  0  0
   40.9147   23.0792    4.5956 O   0  0  0  0  0  0  0  0  0  0  0  0
   41.1132   22.0360    2.5104 C   0  0  1  0  0  0  0  0  0  0  0  0
   39.6252   26.5952    4.7739 N   0  0  0  0  0  0  0  0  0  0  0  0
   39.8548   22.6682    1.9440 O   0  0  0  0  0  0  0  0  0  0  0  0
   39.9926   23.0992    0.6450 C   0  0  1  0  0  0  0  0  0  0  0  0
   37.5577   29.6785    3.9189 N   0  0  0  0  0  0  0  0  0  0  0  0
   39.5707   24.3986    0.3372 O   0  0  0  0  0  0  0  0  0  0  0  0
   40.0287   25.6138    1.0918 C   0  0  2  0  0  0  0  0  0  0  0  0
   36.1366   23.4333    3.1558 N   0  0  0  0  0  0  0  0  0  0  0  0
   42.0249   25.7734   -0.3851 O   0  0  0  0  0  0  0  0  0  0  0  0
   41.5832   25.6752    1.0195 C   0  0  1  0  0  0  0  0  0  0  0  0
   38.2001   25.5019    2.6650 O   0  0  0  0  0  0  0  0  0  0  0  0
   42.1293   26.9558    1.8284 C   0  0  1  0  0  0  0  0  0  0  0  0
   37.1136   26.8972    4.2580 O   0  0  0  0  0  0  0  0  0  0  0  0
   41.6376   26.8208    3.3351 C   0  0  0  0  0  0  0  0  0  0  0  0
   34.1780   27.8244    2.1619 O   0  0  0  0  0  0  0  0  0  0  0  0
   40.0551   26.7295    3.3427 C   0  0  1  0  0  0  0  0  0  0  0  0
   33.7635   25.0094    2.4033 O   0  0  0  0  0  0  0  0  0  0  0  0
   39.5733   25.5146    2.6156 C   0  0  2  0  0  0  0  0  0  0  0  0
   41.5276   22.5373   -1.0921 O   0  0  0  0  0  0  0  0  0  0  0  0
   37.3499   25.4721    3.8401 C   0  0  1  0  0  0  0  0  0  0  0  0
   41.3400   20.4010    0.6581 O   0  0  0  0  0  0  0  0  0  0  0  0
   36.3209   27.7504    3.2770 C   0  0  2  0  0  0  0  0  0  0  0  0
   36.1872   29.1686    3.8194 C   0  0  0  0  0  0  0  0  0  0  0  0
   34.9405   27.0835    3.0762 C   0  0  2  0  0  0  0  0  0  0  0  0
   35.0974   25.6570    2.5765 C   0  0  1  0  0  0  0  0  0  0  0  0
   35.9420   24.8705    3.5960 C   0  0  1  0  0  0  0  0  0  0  0  0
   41.4318   22.7951    0.2620 C   0  0  2  0  0  0  0  0  0  0  0  0
   41.8527   21.6405    1.2270 C   0  0  1  0  0  0  0  0  0  0  0  0
  1  3  1  0  0  0  0
  4  1  1  6  0  0  0
  4  6  1  0  0  0  0
  4 31  1  0  0  0  0
  6  7  1  0  0  0  0
  7  9  1  1  0  0  0
  7 30  1  0  0  0  0
  8 26  1  0  0  0  0
 10  9  1  6  0  0  0
 10 13  1  0  0  0  0
 10 21  1  0  0  0  0
 13 12  1  6  0  0  0
 13 15  1  0  0  0  0
 15  2  1  1  0  0  0
 15 17  1  0  0  0  0
 16 25  1  0  0  0  0
 16 23  1  0  0  0  0
 17 19  1  0  0  0  0
 19  5  1  1  0  0  0
 19 21  1  0  0  0  0
 21 14  1  6  0  0  0
 23 14  1  6  0  0  0
 23 29  1  0  0  0  0
 25 26  1  1  0  0  0
 25 27  1  0  0  0  0
 27 18  1  6  0  0  0
 27 28  1  0  0  0  0
 28 20  1  1  0  0  0
 28 29  1  0  0  0  0
 29 11  1  6  0  0  0
 30 22  1  6  0  0  0
 30 31  1  0  0  0  0
 31 24  1  6  0  0  0
M  END
>  <CHROM.1>
61.00943464,52.76699752,57.60125320,88.11178051,-177.49454906,62.04358657
39.10422543,25.14988462,2.32468246,0.62705546,-0.15736743,-2.84855193

>  <Name>
ligand

>  <RI>
0

>  <Rbt.Current_Directory>
/home/itssahil/PROJECTS/Mol_Feturizer/New_Systems/rnas/2ET5

>  <Rbt.Executable>
rbdock ($Id: //depot/dev/client3/rdock/2013.1/src/exe/rbdock.cxx#4 $)

>  <Rbt.Library>
libRbt.so (2013.1, Build901 2013/11/27)

>  <Rbt.Parameter_File>
/export/apps/rDock/src/rDock_2013.1_src/data/scripts/dock_solv.prm

>  <Rbt.Receptor>
prm/pocket_docking_5.prm

>  <SCORE>
-1.75051

>  <SCORE.INTER>
0.629547

>  <SCORE.INTER.CONST>
1

>  <SCORE.INTER.POLAR>
0

>  <SCORE.INTER.ROT>
6

>  <SCORE.INTER.SOLV>
13.2792

>  <SCORE.INTER.VDW>
-11.6067

>  <SCORE.INTER.norm>
0.020308

>  <SCORE.INTRA>
-2.38006

>  <SCORE.INTRA.DIHEDRAL>
-7.55231

>  <SCORE.INTRA.DIHEDRAL.0>
11.2357

>  <SCORE.INTRA.POLAR>
0

>  <SCORE.INTRA.POLAR.0>
0

>  <SCORE.INTRA.REPUL>
0

>  <SCORE.INTRA.REPUL.0>
0

>  <SCORE.INTRA.SOLV>
1.08398

>  <SCORE.INTRA.SOLV.lig_0>
-83.3092

>  <SCORE.INTRA.VDW>
0.854104

>  <SCORE.INTRA.VDW.0>
-4.47057

>  <SCORE.INTRA.norm>
-0.0767761

>  <SCORE.RESTR>
0

>  <SCORE.RESTR.CAVITY>
0

>  <SCORE.RESTR.norm>
0

>  <SCORE.SYSTEM>
0

>  <SCORE.SYSTEM.CONST>
0

>  <SCORE.SYSTEM.DIHEDRAL>
0

>  <SCORE.SYSTEM.SOLV>
0

>  <SCORE.SYSTEM.norm>
0

>  <SCORE.heavy>
31

>  <SCORE.norm>
-0.0564681

>  <RMSD>
7.616

$$$$
ligand
 OpenBabel11021811433D
libRbt.so/2013.1/901 2013/11/27
 31 33  0  0  0  0  0  0  0  0999 V2000
   40.6069   22.3004    1.1290 C   0  0  0  0  0  0  0  0  0  0  0  0
   41.0698   27.2368   -2.3673 N   0  0  0  0  0  0  0  0  0  0  0  0
   41.2337   21.1942    1.7946 O   0  0  0  0  0  0  0  0  0  0  0  0
   40.4283   23.3489    2.2239 C   0  0  1  0  0  0  0  0  0  0  0  0
   38.8482   30.2328    1.0704 N   0  0  0  0  0  0  0  0  0  0  0  0
   39.9303   24.6984    1.7394 O   0  0  0  0  0  0  0  0  0  0  0  0
   38.6173   24.9491    2.0639 C   0  0  1  0  0  0  0  0  0  0  0  0
   39.8778   27.9503    5.1941 N   0  0  0  0  0  0  0  0  0  0  0  0
   37.7658   25.4016    1.0482 O   0  0  0  0  0  0  0  0  0  0  0  0
   38.0772   26.5865    0.1793 C   0  0  2  0  0  0  0  0  0  0  0  0
   34.1974   28.0853    2.1247 N   0  0  0  0  0  0  0  0  0  0  0  0
   39.1874   25.0841   -1.4644 O   0  0  0  0  0  0  0  0  0  0  0  0
   39.3789   26.2775   -0.6179 C   0  0  1  0  0  0  0  0  0  0  0  0
   37.1350   28.1636    1.7465 O   0  0  0  0  0  0  0  0  0  0  0  0
   39.7675   27.5261   -1.5575 C   0  0  1  0  0  0  0  0  0  0  0  0
   37.3947   27.2988    3.9487 O   0  0  0  0  0  0  0  0  0  0  0  0
   39.9666   28.7939   -0.6177 C   0  0  0  0  0  0  0  0  0  0  0  0
   36.4907   30.4048    5.7945 O   0  0  0  0  0  0  0  0  0  0  0  0
   38.6249   29.0383    0.1901 C   0  0  1  0  0  0  0  0  0  0  0  0
   34.0206   29.8623    4.4684 O   0  0  0  0  0  0  0  0  0  0  0  0
   38.3034   27.8808    1.0808 C   0  0  2  0  0  0  0  0  0  0  0  0
   37.1554   24.0363    3.7129 O   0  0  0  0  0  0  0  0  0  0  0  0
   36.4724   27.3683    2.7629 C   0  0  1  0  0  0  0  0  0  0  0  0
   39.7682   23.7519    4.5814 O   0  0  0  0  0  0  0  0  0  0  0  0
   37.6588   28.6200    4.6583 C   0  0  2  0  0  0  0  0  0  0  0  0
   38.6277   28.3988    5.8140 C   0  0  0  0  0  0  0  0  0  0  0  0
   36.3015   29.1743    5.1493 C   0  0  2  0  0  0  0  0  0  0  0  0
   35.3365   29.3466    3.9881 C   0  0  1  0  0  0  0  0  0  0  0  0
   35.1530   27.9828    3.2968 C   0  0  1  0  0  0  0  0  0  0  0  0
   38.1293   23.7061    2.7901 C   0  0  2  0  0  0  0  0  0  0  0  0
   39.4319   23.0494    3.3500 C   0  0  1  0  0  0  0  0  0  0  0  0
  1  3  1  0  0  0  0
  4  1  1  6  0  0  0
  4  6  1  0  0  0  0
  4 31  1  0  0  0  0
  6  7  1  0  0  0  0
  7  9  1  6  0  0  0
  7 30  1  0  0  0  0
  8 26  1  0  0  0  0
 10  9  1  1  0  0  0
 10 13  1  0  0  0  0
 10 21  1  0  0  0  0
 13 12  1  6  0  0  0
 13 15  1  0  0  0  0
 15  2  1  1  0  0  0
 15 17  1  0  0  0  0
 16 25  1  0  0  0  0
 16 23  1  0  0  0  0
 17 19  1  0  0  0  0
 19  5  1  1  0  0  0
 19 21  1  0  0  0  0
 21 14  1  6  0  0  0
 23 14  1  6  0  0  0
 23 29  1  0  0  0  0
 25 26  1  1  0  0  0
 25 27  1  0  0  0  0
 27 18  1  6  0  0  0
 27 28  1  0  0  0  0
 28 20  1  1  0  0  0
 28 29  1  0  0  0  0
 29 11  1  6  0  0  0
 30 22  1  1  0  0  0
 30 31  1  0  0  0  0
 31 24  1  1  0  0  0
M  END
>  <CHROM.1>
172.95662135,-52.74565326,62.02309879,63.82409060,65.41293209,63.52663247
38.22261042,26.66701591,2.26128573,0.15040750,-0.99589767,2.30097812

>  <Name>
ligand

>  <RI>
0

>  <Rbt.Current_Directory>
/home/itssahil/PROJECTS/Mol_Feturizer/New_Systems/rnas/2ET5

>  <Rbt.Executable>
rbdock ($Id: //depot/dev/client3/rdock/2013.1/src/exe/rbdock.cxx#4 $)

>  <Rbt.Library>
libRbt.so (2013.1, Build901 2013/11/27)

>  <Rbt.Parameter_File>
/export/apps/rDock/src/rDock_2013.1_src/data/scripts/dock_solv.prm

>  <Rbt.Receptor>
prm/pocket_docking_7.prm

>  <SCORE>
-5.10471

>  <SCORE.INTER>
1.22139

>  <SCORE.INTER.CONST>
1

>  <SCORE.INTER.POLAR>
0

>  <SCORE.INTER.ROT>
6

>  <SCORE.INTER.SOLV>
12.9975

>  <SCORE.INTER.VDW>
-11.1182

>  <SCORE.INTER.norm>
0.0393998

>  <SCORE.INTRA>
-6.32611

>  <SCORE.INTRA.DIHEDRAL>
-10.3874

>  <SCORE.INTRA.DIHEDRAL.0>
11.2357

>  <SCORE.INTRA.POLAR>
0

>  <SCORE.INTRA.POLAR.0>
0

>  <SCORE.INTRA.REPUL>
0

>  <SCORE.INTRA.REPUL.0>
0

>  <SCORE.INTRA.SOLV>
-3.62227

>  <SCORE.INTRA.SOLV.lig_0>
-83.3092

>  <SCORE.INTRA.VDW>
0.678727

>  <SCORE.INTRA.VDW.0>
-4.47057

>  <SCORE.INTRA.norm>
-0.204068

>  <SCORE.RESTR>
0

>  <SCORE.RESTR.CAVITY>
0

>  <SCORE.RESTR.norm>
0

>  <SCORE.SYSTEM>
0

>  <SCORE.SYSTEM.CONST>
0

>  <SCORE.SYSTEM.DIHEDRAL>
0

>  <SCORE.SYSTEM.SOLV>
0

>  <SCORE.SYSTEM.norm>
0

>  <SCORE.heavy>
31

>  <SCORE.norm>
-0.164668

>  <RMSD>
7.639

$$$$
ligand
 OpenBabel11021811433D
libRbt.so/2013.1/901 2013/11/27
 31 33  0  0  0  0  0  0  0  0999 V2000
   47.7013   25.3434    0.6571 C   0  0  0  0  0  0  0  0  0  0  0  0
   43.7499   20.0664    1.4273 N   0  0  0  0  0  0  0  0  0  0  0  0
   48.4962   26.3333   -0.0121 O   0  0  0  0  0  0  0  0  0  0  0  0
   46.3311   25.9984    0.8100 C   0  0  1  0  0  0  0  0  0  0  0  0
   40.1791   23.2868    3.0418 N   0  0  0  0  0  0  0  0  0  0  0  0
   45.2705   25.1175    1.4449 O   0  0  0  0  0  0  0  0  0  0  0  0
   44.9622   25.4725    2.7376 C   0  0  1  0  0  0  0  0  0  0  0  0
   42.0814   29.3531    6.5785 N   0  0  0  0  0  0  0  0  0  0  0  0
   44.9421   24.4627    3.7078 O   0  0  0  0  0  0  0  0  0  0  0  0
   43.9541   23.3316    3.6990 C   0  0  2  0  0  0  0  0  0  0  0  0
   40.0174   23.1638    5.7542 N   0  0  0  0  0  0  0  0  0  0  0  0
   45.7282   21.7938    2.8749 O   0  0  0  0  0  0  0  0  0  0  0  0
   44.3794   22.3215    2.5925 C   0  0  1  0  0  0  0  0  0  0  0  0
   42.1173   24.7418    4.3836 O   0  0  0  0  0  0  0  0  0  0  0  0
   43.3413   21.0923    2.5300 C   0  0  1  0  0  0  0  0  0  0  0  0
   42.7147   25.6852    6.4855 O   0  0  0  0  0  0  0  0  0  0  0  0
   41.9002   21.6926    2.2249 C   0  0  0  0  0  0  0  0  0  0  0  0
   39.7756   27.9432    6.8517 O   0  0  0  0  0  0  0  0  0  0  0  0
   41.5370   22.7348    3.3627 C   0  0  1  0  0  0  0  0  0  0  0  0
   38.4742   25.4017    6.8909 O   0  0  0  0  0  0  0  0  0  0  0  0
   42.4941   23.8838    3.3785 C   0  0  2  0  0  0  0  0  0  0  0  0
   45.2552   27.4905    3.9750 O   0  0  0  0  0  0  0  0  0  0  0  0
   42.0998   24.4895    5.8121 C   0  0  1  0  0  0  0  0  0  0  0  0
   45.1143   28.1088    1.2806 O   0  0  0  0  0  0  0  0  0  0  0  0
   41.9394   26.9891    6.3532 C   0  0  2  0  0  0  0  0  0  0  0  0
   42.6946   28.1108    7.0567 C   0  0  0  0  0  0  0  0  0  0  0  0
   40.5374   26.7717    6.9679 C   0  0  2  0  0  0  0  0  0  0  0  0
   39.8190   25.6220    6.2814 C   0  0  1  0  0  0  0  0  0  0  0  0
   40.6802   24.3530    6.4203 C   0  0  1  0  0  0  0  0  0  0  0  0
   45.8681   26.6477    3.0677 C   0  0  2  0  0  0  0  0  0  0  0  0
   46.2300   27.2593    1.6763 C   0  0  1  0  0  0  0  0  0  0  0  0
  1  3  1  0  0  0  0
  4  1  1  1  0  0  0
  4  6  1  0  0  0  0
  4 31  1  0  0  0  0
  6  7  1  0  0  0  0
  7  9  1  1  0  0  0
  7 30  1  0  0  0  0
  8 26  1  0  0  0  0
 10  9  1  6  0  0  0
 10 13  1  0  0  0  0
 10 21  1  0  0  0  0
 13 12  1  1  0  0  0
 13 15  1  0  0  0  0
 15  2  1  6  0  0  0
 15 17  1  0  0  0  0
 16 25  1  0  0  0  0
 16 23  1  0  0  0  0
 17 19  1  0  0  0  0
 19  5  1  6  0  0  0
 19 21  1  0  0  0  0
 21 14  1  1  0  0  0
 23 14  1  6  0  0  0
 23 29  1  0  0  0  0
 25 26  1  1  0  0  0
 25 27  1  0  0  0  0
 27 18  1  6  0  0  0
 27 28  1  0  0  0  0
 28 20  1  1  0  0  0
 28 29  1  0  0  0  0
 29 11  1  6  0  0  0
 30 22  1  1  0  0  0
 30 31  1  0  0  0  0
 31 24  1  6  0  0  0
M  END
>  <CHROM.1>
177.36611083,-65.26527652,75.41126469,134.62574491,-53.50422968,165.23288121
43.26587763,25.04083422,3.87372724,-0.39305106,0.63588045,0.39453808

>  <Name>
ligand

>  <RI>
0

>  <Rbt.Current_Directory>
/home/itssahil/PROJECTS/Mol_Feturizer/New_Systems/rnas/2ET5

>  <Rbt.Executable>
rbdock ($Id: //depot/dev/client3/rdock/2013.1/src/exe/rbdock.cxx#4 $)

>  <Rbt.Library>
libRbt.so (2013.1, Build901 2013/11/27)

>  <Rbt.Parameter_File>
/export/apps/rDock/src/rDock_2013.1_src/data/scripts/dock_solv.prm

>  <Rbt.Receptor>
prm/pocket_docking_7.prm

>  <SCORE>
-11.0386

>  <SCORE.INTER>
-12.0098

>  <SCORE.INTER.CONST>
1

>  <SCORE.INTER.POLAR>
0

>  <SCORE.INTER.ROT>
6

>  <SCORE.INTER.SOLV>
16.0419

>  <SCORE.INTER.VDW>
-20.9538

>  <SCORE.INTER.norm>
-0.387414

>  <SCORE.INTRA>
0.970691

>  <SCORE.INTRA.DIHEDRAL>
-2.73678

>  <SCORE.INTRA.DIHEDRAL.0>
11.2357

>  <SCORE.INTRA.POLAR>
0

>  <SCORE.INTRA.POLAR.0>
0

>  <SCORE.INTRA.REPUL>
0

>  <SCORE.INTRA.REPUL.0>
0

>  <SCORE.INTRA.SOLV>
1.36734

>  <SCORE.INTRA.SOLV.lig_0>
-83.3092

>  <SCORE.INTRA.VDW>
1.65541

>  <SCORE.INTRA.VDW.0>
-4.47057

>  <SCORE.INTRA.norm>
0.0313126

>  <SCORE.RESTR>
0.000548114

>  <SCORE.RESTR.CAVITY>
0.000548114

>  <SCORE.RESTR.norm>
1.76811e-05

>  <SCORE.SYSTEM>
0

>  <SCORE.SYSTEM.CONST>
0

>  <SCORE.SYSTEM.DIHEDRAL>
0

>  <SCORE.SYSTEM.SOLV>
0

>  <SCORE.SYSTEM.norm>
0

>  <SCORE.heavy>
31

>  <SCORE.norm>
-0.356084

>  <RMSD>
7.646

$$$$
ligand
 OpenBabel11021811433D
libRbt.so/2013.1/901 2013/11/27
 31 33  0  0  0  0  0  0  0  0999 V2000
   33.8817   23.9654    4.5827 C   0  0  0  0  0  0  0  0  0  0  0  0
   37.1804   26.4303    9.2622 N   0  0  0  0  0  0  0  0  0  0  0  0
   35.2993   23.8435    4.3951 O   0  0  0  0  0  0  0  0  0  0  0  0
   33.5323   25.3144    3.9595 C   0  0  1  0  0  0  0  0  0  0  0  0
   40.8228   25.3868    5.8899 N   0  0  0  0  0  0  0  0  0  0  0  0
   34.2721   26.5007    4.5506 O   0  0  0  0  0  0  0  0  0  0  0  0
   35.2506   27.0052    3.7259 C   0  0  1  0  0  0  0  0  0  0  0  0
   39.8778   30.0477    1.2970 N   0  0  0  0  0  0  0  0  0  0  0  0
   36.5199   27.2273    4.2743 O   0  0  0  0  0  0  0  0  0  0  0  0
   37.1541   26.3108    5.2811 C   0  0  2  0  0  0  0  0  0  0  0  0
   38.9987   24.1534    1.3483 N   0  0  0  0  0  0  0  0  0  0  0  0
   35.3662   26.8769    6.9164 O   0  0  0  0  0  0  0  0  0  0  0  0
   36.8263   26.8495    6.7051 C   0  0  1  0  0  0  0  0  0  0  0  0
   39.0081   25.7687    3.8320 O   0  0  0  0  0  0  0  0  0  0  0  0
   37.4977   25.9085    7.8260 C   0  0  1  0  0  0  0  0  0  0  0  0
   38.9110   27.7368    2.4969 O   0  0  0  0  0  0  0  0  0  0  0  0
   39.0679   25.8997    7.5715 C   0  0  0  0  0  0  0  0  0  0  0  0
   42.4295   27.6648    1.2780 O   0  0  0  0  0  0  0  0  0  0  0  0
   39.3372   25.3753    6.1001 C   0  0  1  0  0  0  0  0  0  0  0  0
   41.4368   25.2541    0.1130 O   0  0  0  0  0  0  0  0  0  0  0  0
   38.7341   26.2835    5.0763 C   0  0  2  0  0  0  0  0  0  0  0  0
   35.6300   26.8409    1.3768 O   0  0  0  0  0  0  0  0  0  0  0  0
   38.5732   26.2721    2.5428 C   0  0  1  0  0  0  0  0  0  0  0  0
   32.9268   26.5062    1.8693 O   0  0  0  0  0  0  0  0  0  0  0  0
   40.3959   28.0731    2.5185 C   0  0  2  0  0  0  0  0  0  0  0  0
   40.5815   29.5859    2.4969 C   0  0  0  0  0  0  0  0  0  0  0  0
   41.0527   27.3997    1.2913 C   0  0  2  0  0  0  0  0  0  0  0  0
   40.8192   25.8983    1.3097 C   0  0  1  0  0  0  0  0  0  0  0  0
   39.3015   25.6384    1.3297 C   0  0  1  0  0  0  0  0  0  0  0  0
   35.2425   26.1202    2.4901 C   0  0  2  0  0  0  0  0  0  0  0  0
   33.8055   25.5072    2.4633 C   0  0  1  0  0  0  0  0  0  0  0  0
  1  3  1  0  0  0  0
  4  1  1  1  0  0  0
  4  6  1  0  0  0  0
  4 31  1  0  0  0  0
  6  7  1  0  0  0  0
  7  9  1  1  0  0  0
  7 30  1  0  0  0  0
  8 26  1  0  0  0  0
 10  9  1  6  0  0  0
 10 13  1  0  0  0  0
 10 21  1  0  0  0  0
 13 12  1  1  0  0  0
 13 15  1  0  0  0  0
 15  2  1  1  0  0  0
 15 17  1  0  0  0  0
 16 25  1  0  0  0  0
 16 23  1  0  0  0  0
 17 19  1  0  0  0  0
 19  5  1  6  0  0  0
 19 21  1  0  0  0  0
 21 14  1  6  0  0  0
 23 14  1  1  0  0  0
 23 29  1  0  0  0  0
 25 26  1  6  0  0  0
 25 27  1  0  0  0  0
 27 18  1  1  0  0  0
 27 28  1  0  0  0  0
 28 20  1  6  0  0  0
 28 29  1  0  0  0  0
 29 11  1  1  0  0  0
 30 22  1  6  0  0  0
 30 31  1  0  0  0  0
 31 24  1  1  0  0  0
M  END
>  <CHROM.1>
-57.81883695,38.02477232,-93.65066458,50.82886552,58.87968551,-56.56010055
37.70997396,26.38067892,3.71840342,2.60471193,0.17665115,1.65367992

>  <Name>
ligand

>  <RI>
0

>  <Rbt.Current_Directory>
/home/itssahil/PROJECTS/Mol_Feturizer/New_Systems/rnas/2ET5

>  <Rbt.Executable>
rbdock ($Id: //depot/dev/client3/rdock/2013.1/src/exe/rbdock.cxx#4 $)

>  <Rbt.Library>
libRbt.so (2013.1, Build901 2013/11/27)

>  <Rbt.Parameter_File>
/export/apps/rDock/src/rDock_2013.1_src/data/scripts/dock_solv.prm

>  <Rbt.Receptor>
prm/pocket_docking_7.prm

>  <SCORE>
-7.56141

>  <SCORE.INTER>
-5.21086

>  <SCORE.INTER.CONST>
1

>  <SCORE.INTER.POLAR>
0

>  <SCORE.INTER.ROT>
6

>  <SCORE.INTER.SOLV>
13.645

>  <SCORE.INTER.VDW>
-15.6222

>  <SCORE.INTER.norm>
-0.168092

>  <SCORE.INTRA>
-2.35055

>  <SCORE.INTRA.DIHEDRAL>
-4.26285

>  <SCORE.INTRA.DIHEDRAL.0>
11.2357

>  <SCORE.INTRA.POLAR>
0

>  <SCORE.INTRA.POLAR.0>
0

>  <SCORE.INTRA.REPUL>
0

>  <SCORE.INTRA.REPUL.0>
0

>  <SCORE.INTRA.SOLV>
-1.03778

>  <SCORE.INTRA.SOLV.lig_0>
-83.3092

>  <SCORE.INTRA.VDW>
0.299767

>  <SCORE.INTRA.VDW.0>
-4.47057

>  <SCORE.INTRA.norm>
-0.0758242

>  <SCORE.RESTR>
0

>  <SCORE.RESTR.CAVITY>
0

>  <SCORE.RESTR.norm>
0

>  <SCORE.SYSTEM>
0

>  <SCORE.SYSTEM.CONST>
0

>  <SCORE.SYSTEM.DIHEDRAL>
0

>  <SCORE.SYSTEM.SOLV>
0

>  <SCORE.SYSTEM.norm>
0

>  <SCORE.heavy>
31

>  <SCORE.norm>
-0.243916

>  <RMSD>
7.679

$$$$
ligand
 OpenBabel11021811433D
libRbt.so/2013.1/901 2013/11/27
 31 33  0  0  0  0  0  0  0  0999 V2000
   46.4588   17.8965   -3.6008 C   0  0  0  0  0  0  0  0  0  0  0  0
   40.3588   22.0008    1.8837 N   0  0  0  0  0  0  0  0  0  0  0  0
   46.7404   16.9088   -4.6031 O   0  0  0  0  0  0  0  0  0  0  0  0
   45.9414   17.0918   -2.4113 C   0  0  1  0  0  0  0  0  0  0  0  0
   45.1344   21.9847    3.5931 N   0  0  0  0  0  0  0  0  0  0  0  0
   45.7469   17.8921   -1.1363 O   0  0  0  0  0  0  0  0  0  0  0  0
   44.4266   18.1304   -0.8325 C   0  0  1  0  0  0  0  0  0  0  0  0
   42.3462   17.1616    1.7121 N   0  0  0  0  0  0  0  0  0  0  0  0
   44.0533   19.4424   -0.5155 O   0  0  0  0  0  0  0  0  0  0  0  0
   43.5435   19.8497    0.8373 C   0  0  2  0  0  0  0  0  0  0  0  0
   48.4641   19.0991    2.6223 N   0  0  0  0  0  0  0  0  0  0  0  0
   41.2196   19.8778   -0.0516 O   0  0  0  0  0  0  0  0  0  0  0  0
   42.2446   20.6854    0.6373 C   0  0  1  0  0  0  0  0  0  0  0  0
   45.7578   19.9741    1.7924 O   0  0  0  0  0  0  0  0  0  0  0  0
   41.6627   21.1617    2.0611 C   0  0  1  0  0  0  0  0  0  0  0  0
   44.8570   18.0522    2.8695 O   0  0  0  0  0  0  0  0  0  0  0  0
   42.7885   22.0277    2.7774 C   0  0  0  0  0  0  0  0  0  0  0  0
   45.9615   15.5323    0.3593 O   0  0  0  0  0  0  0  0  0  0  0  0
   44.0924   21.1382    2.9230 C   0  0  1  0  0  0  0  0  0  0  0  0
   48.4935   16.4737    1.2851 O   0  0  0  0  0  0  0  0  0  0  0  0
   44.6336   20.7372    1.5877 C   0  0  2  0  0  0  0  0  0  0  0  0
   42.3961   17.0712   -1.4993 O   0  0  0  0  0  0  0  0  0  0  0  0
   46.0073   19.0208    2.8571 C   0  0  1  0  0  0  0  0  0  0  0  0
   44.4615   15.2376   -1.6850 O   0  0  0  0  0  0  0  0  0  0  0  0
   44.7240   17.1691    1.6362 C   0  0  2  0  0  0  0  0  0  0  0  0
   43.5044   16.2659    1.7790 C   0  0  0  0  0  0  0  0  0  0  0  0
   46.0278   16.3499    1.4966 C   0  0  2  0  0  0  0  0  0  0  0  0
   47.2348   17.2680    1.3990 C   0  0  1  0  0  0  0  0  0  0  0  0
   47.2782   18.1558    2.6566 C   0  0  1  0  0  0  0  0  0  0  0  0
   43.6257   17.5009   -1.9607 C   0  0  2  0  0  0  0  0  0  0  0  0
   44.5761   16.4075   -2.5459 C   0  0  1  0  0  0  0  0  0  0  0  0
  1  3  1  0  0  0  0
  4  1  1  6  0  0  0
  4  6  1  0  0  0  0
  4 31  1  0  0  0  0
  6  7  1  0  0  0  0
  7  9  1  6  0  0  0
  7 30  1  0  0  0  0
  8 26  1  0  0  0  0
 10  9  1  6  0  0  0
 10 13  1  0  0  0  0
 10 21  1  0  0  0  0
 13 12  1  1  0  0  0
 13 15  1  0  0  0  0
 15  2  1  6  0  0  0
 15 17  1  0  0  0  0
 16 25  1  0  0  0  0
 16 23  1  0  0  0  0
 17 19  1  0  0  0  0
 19  5  1  6  0  0  0
 19 21  1  0  0  0  0
 21 14  1  1  0  0  0
 23 14  1  6  0  0  0
 23 29  1  0  0  0  0
 25 26  1  1  0  0  0
 25 27  1  0  0  0  0
 27 18  1  6  0  0  0
 27 28  1  0  0  0  0
 28 20  1  1  0  0  0
 28 29  1  0  0  0  0
 29 11  1  6  0  0  0
 30 22  1  1  0  0  0
 30 31  1  0  0  0  0
 31 24  1  1  0  0  0
M  END
>  <CHROM.1>
171.97804794,-115.23050455,-131.31591333,53.29423034,-82.32241481,68.11100768
44.68176349,18.45971747,0.53252829,1.04759462,0.46989449,-2.14497369

>  <Name>
ligand

>  <RI>
0

>  <Rbt.Current_Directory>
/home/itssahil/PROJECTS/Mol_Feturizer/New_Systems/rnas/2ET5

>  <Rbt.Executable>
rbdock ($Id: //depot/dev/client3/rdock/2013.1/src/exe/rbdock.cxx#4 $)

>  <Rbt.Library>
libRbt.so (2013.1, Build901 2013/11/27)

>  <Rbt.Parameter_File>
/export/apps/rDock/src/rDock_2013.1_src/data/scripts/dock_solv.prm

>  <Rbt.Receptor>
prm/blind_docking_60.prm

>  <SCORE>
18.7755

>  <SCORE.INTER>
-2.87849

>  <SCORE.INTER.CONST>
1

>  <SCORE.INTER.POLAR>
0

>  <SCORE.INTER.ROT>
6

>  <SCORE.INTER.SOLV>
28.7515

>  <SCORE.INTER.VDW>
-19.1028

>  <SCORE.INTER.norm>
-0.0928546

>  <SCORE.INTRA>
5.69917

>  <SCORE.INTRA.DIHEDRAL>
5.26242

>  <SCORE.INTRA.DIHEDRAL.0>
11.2357

>  <SCORE.INTRA.POLAR>
0

>  <SCORE.INTRA.POLAR.0>
0

>  <SCORE.INTRA.REPUL>
0

>  <SCORE.INTRA.REPUL.0>
0

>  <SCORE.INTRA.SOLV>
4.05249

>  <SCORE.INTRA.SOLV.lig_0>
-83.3092

>  <SCORE.INTRA.VDW>
1.04171

>  <SCORE.INTRA.VDW.0>
-4.47057

>  <SCORE.INTRA.norm>
0.183844

>  <SCORE.RESTR>
15.9548

>  <SCORE.RESTR.CAVITY>
15.9548

>  <SCORE.RESTR.norm>
0.514672

>  <SCORE.SYSTEM>
0

>  <SCORE.SYSTEM.CONST>
0

>  <SCORE.SYSTEM.DIHEDRAL>
0

>  <SCORE.SYSTEM.SOLV>
0

>  <SCORE.SYSTEM.norm>
0

>  <SCORE.heavy>
31

>  <SCORE.norm>
0.605661

>  <RMSD>
7.716

$$$$
ligand
 OpenBabel11021811433D
libRbt.so/2013.1/901 2013/11/27
 31 33  0  0  0  0  0  0  0  0999 V2000
   35.7242   28.5113    2.8651 C   0  0  0  0  0  0  0  0  0  0  0  0
   33.4254   25.0573    4.3854 N   0  0  0  0  0  0  0  0  0  0  0  0
   34.8157   29.2028    1.9956 O   0  0  0  0  0  0  0  0  0  0  0  0
   36.9924   28.3447    2.0320 C   0  0  1  0  0  0  0  0  0  0  0  0
   36.8831   27.1744    7.4334 N   0  0  0  0  0  0  0  0  0  0  0  0
   38.1057   27.5700    2.7135 O   0  0  0  0  0  0  0  0  0  0  0  0
   38.2811   26.3018    2.2104 C   0  0  1  0  0  0  0  0  0  0  0  0
   39.7693   30.3048    4.7075 N   0  0  0  0  0  0  0  0  0  0  0  0
   38.3566   25.2401    3.1206 O   0  0  0  0  0  0  0  0  0  0  0  0
   37.4067   25.0732    4.2720 C   0  0  2  0  0  0  0  0  0  0  0  0
   41.0944   24.2097    6.3484 N   0  0  0  0  0  0  0  0  0  0  0  0
   35.7265   24.0704    2.7348 O   0  0  0  0  0  0  0  0  0  0  0  0
   35.9527   25.1466    3.7188 C   0  0  1  0  0  0  0  0  0  0  0  0
   38.9003   26.1358    5.8439 O   0  0  0  0  0  0  0  0  0  0  0  0
   34.8905   24.9878    4.9184 C   0  0  1  0  0  0  0  0  0  0  0  0
   40.4620   27.5551    4.7432 O   0  0  0  0  0  0  0  0  0  0  0  0
   35.1598   26.1595    5.9599 C   0  0  0  0  0  0  0  0  0  0  0  0
   42.2406   28.7627    7.7844 O   0  0  0  0  0  0  0  0  0  0  0  0
   36.6599   26.0535    6.4612 C   0  0  1  0  0  0  0  0  0  0  0  0
   42.8693   25.9795    7.8974 O   0  0  0  0  0  0  0  0  0  0  0  0
   37.6276   26.2385    5.3361 C   0  0  2  0  0  0  0  0  0  0  0  0
   37.6651   25.2811    0.1445 O   0  0  0  0  0  0  0  0  0  0  0  0
   40.1542   26.1306    5.1143 C   0  0  1  0  0  0  0  0  0  0  0  0
   37.9125   28.0100   -0.2477 O   0  0  0  0  0  0  0  0  0  0  0  0
   40.7413   28.4954    5.9078 C   0  0  2  0  0  0  0  0  0  0  0  0
   41.0063   29.9014    5.3821 C   0  0  0  0  0  0  0  0  0  0  0  0
   41.9557   27.9386    6.6863 C   0  0  2  0  0  0  0  0  0  0  0  0
   41.6872   26.5213    7.1641 C   0  0  1  0  0  0  0  0  0  0  0  0
   41.3725   25.6424    5.9394 C   0  0  1  0  0  0  0  0  0  0  0  0
   37.2205   26.1368    1.1341 C   0  0  2  0  0  0  0  0  0  0  0  0
   36.8826   27.5985    0.6973 C   0  0  1  0  0  0  0  0  0  0  0  0
  1  3  1  0  0  0  0
  4  1  1  1  0  0  0
  4  6  1  0  0  0  0
  4 31  1  0  0  0  0
  6  7  1  0  0  0  0
  7  9  1  1  0  0  0
  7 30  1  0  0  0  0
  8 26  1  0  0  0  0
 10  9  1  6  0  0  0
 10 13  1  0  0  0  0
 10 21  1  0  0  0  0
 13 12  1  6  0  0  0
 13 15  1  0  0  0  0
 15  2  1  6  0  0  0
 15 17  1  0  0  0  0
 16 25  1  0  0  0  0
 16 23  1  0  0  0  0
 17 19  1  0  0  0  0
 19  5  1  1  0  0  0
 19 21  1  0  0  0  0
 21 14  1  1  0  0  0
 23 14  1  1  0  0  0
 23 29  1  0  0  0  0
 25 26  1  6  0  0  0
 25 27  1  0  0  0  0
 27 18  1  1  0  0  0
 27 28  1  0  0  0  0
 28 20  1  6  0  0  0
 28 29  1  0  0  0  0
 29 11  1  1  0  0  0
 30 22  1  6  0  0  0
 30 31  1  0  0  0  0
 31 24  1  6  0  0  0
M  END
>  <CHROM.1>
-177.18574765,45.79875351,52.03918519,78.08316903,56.18181438,61.94955628
38.33498441,26.77576091,4.33548729,-2.63657947,0.50400671,2.11829696

>  <Name>
ligand

>  <RI>
0

>  <Rbt.Current_Directory>
/home/itssahil/PROJECTS/Mol_Feturizer/New_Systems/rnas/2ET5

>  <Rbt.Executable>
rbdock ($Id: //depot/dev/client3/rdock/2013.1/src/exe/rbdock.cxx#4 $)

>  <Rbt.Library>
libRbt.so (2013.1, Build901 2013/11/27)

>  <Rbt.Parameter_File>
/export/apps/rDock/src/rDock_2013.1_src/data/scripts/dock_solv.prm

>  <Rbt.Receptor>
prm/pocket_docking_8.prm

>  <SCORE>
-7.34346

>  <SCORE.INTER>
-3.40851

>  <SCORE.INTER.CONST>
1

>  <SCORE.INTER.POLAR>
0

>  <SCORE.INTER.ROT>
6

>  <SCORE.INTER.SOLV>
16.9171

>  <SCORE.INTER.VDW>
-15.5114

>  <SCORE.INTER.norm>
-0.109952

>  <SCORE.INTRA>
-3.93495

>  <SCORE.INTRA.DIHEDRAL>
-8.2619

>  <SCORE.INTRA.DIHEDRAL.0>
11.2357

>  <SCORE.INTRA.POLAR>
0

>  <SCORE.INTRA.POLAR.0>
0

>  <SCORE.INTRA.REPUL>
0.253877

>  <SCORE.INTRA.REPUL.0>
0

>  <SCORE.INTRA.SOLV>
-2.53909

>  <SCORE.INTRA.SOLV.lig_0>
-83.3092

>  <SCORE.INTRA.VDW>
0.196161

>  <SCORE.INTRA.VDW.0>
-4.47057

>  <SCORE.INTRA.norm>
-0.126934

>  <SCORE.RESTR>
0

>  <SCORE.RESTR.CAVITY>
0

>  <SCORE.RESTR.norm>
0

>  <SCORE.SYSTEM>
0

>  <SCORE.SYSTEM.CONST>
0

>  <SCORE.SYSTEM.DIHEDRAL>
0

>  <SCORE.SYSTEM.SOLV>
0

>  <SCORE.SYSTEM.norm>
0

>  <SCORE.heavy>
31

>  <SCORE.norm>
-0.236886

>  <RMSD>
7.724

$$$$
ligand
 OpenBabel11021811433D
libRbt.so/2013.1/901 2013/11/27
 31 33  0  0  0  0  0  0  0  0999 V2000
   41.8760   26.5383    3.6276 C   0  0  0  0  0  0  0  0  0  0  0  0
   41.9778   22.2978    3.1864 N   0  0  0  0  0  0  0  0  0  0  0  0
   41.4505   26.9993    2.3368 O   0  0  0  0  0  0  0  0  0  0  0  0
   41.0028   27.3116    4.6123 C   0  0  1  0  0  0  0  0  0  0  0  0
   38.4770   24.6562    0.3739 N   0  0  0  0  0  0  0  0  0  0  0  0
   39.5205   26.9942    4.5356 O   0  0  0  0  0  0  0  0  0  0  0  0
   39.0645   26.2384    5.5906 C   0  0  1  0  0  0  0  0  0  0  0  0
   38.2649   30.0871    1.7438 N   0  0  0  0  0  0  0  0  0  0  0  0
   38.2917   25.1069    5.3008 O   0  0  0  0  0  0  0  0  0  0  0  0
   38.6009   24.1654    4.1722 C   0  0  2  0  0  0  0  0  0  0  0  0
   34.0766   25.1209    2.7869 N   0  0  0  0  0  0  0  0  0  0  0  0
   40.3326   23.0589    5.5753 O   0  0  0  0  0  0  0  0  0  0  0  0
   40.0945   23.7397    4.2879 C   0  0  1  0  0  0  0  0  0  0  0  0
   37.0353   25.2251    2.6699 O   0  0  0  0  0  0  0  0  0  0  0  0
   40.4838   22.7382    3.0887 C   0  0  1  0  0  0  0  0  0  0  0  0
   36.9618   27.2992    3.8353 O   0  0  0  0  0  0  0  0  0  0  0  0
   40.2166   23.4995    1.7179 C   0  0  0  0  0  0  0  0  0  0  0  0
   35.7251   29.3923    1.0138 O   0  0  0  0  0  0  0  0  0  0  0  0
   38.6934   23.9358    1.6722 C   0  0  1  0  0  0  0  0  0  0  0  0
   33.5033   27.6310    1.3543 O   0  0  0  0  0  0  0  0  0  0  0  0
   38.3644   24.8920    2.7739 C   0  0  2  0  0  0  0  0  0  0  0  0
   39.9149   25.8413    7.7834 O   0  0  0  0  0  0  0  0  0  0  0  0
   36.2357   26.0041    3.5965 C   0  0  1  0  0  0  0  0  0  0  0  0
   40.8584   28.2853    6.8898 O   0  0  0  0  0  0  0  0  0  0  0  0
   37.0881   28.2179    2.6275 C   0  0  2  0  0  0  0  0  0  0  0  0
   37.8676   29.4700    3.0125 C   0  0  0  0  0  0  0  0  0  0  0  0
   35.6610   28.5609    2.1411 C   0  0  2  0  0  0  0  0  0  0  0  0
   34.8872   27.2973    1.8038 C   0  0  1  0  0  0  0  0  0  0  0  0
   34.8383   26.4032    3.0567 C   0  0  1  0  0  0  0  0  0  0  0  0
   40.2830   25.9660    6.4575 C   0  0  2  0  0  0  0  0  0  0  0  0
   41.2711   27.1255    6.1103 C   0  0  1  0  0  0  0  0  0  0  0  0
  1  3  1  0  0  0  0
  4  1  1  6  0  0  0
  4  6  1  0  0  0  0
  4 31  1  0  0  0  0
  6  7  1  0  0  0  0
  7  9  1  6  0  0  0
  7 30  1  0  0  0  0
  8 26  1  0  0  0  0
 10  9  1  1  0  0  0
 10 13  1  0  0  0  0
 10 21  1  0  0  0  0
 13 12  1  1  0  0  0
 13 15  1  0  0  0  0
 15  2  1  1  0  0  0
 15 17  1  0  0  0  0
 16 25  1  0  0  0  0
 16 23  1  0  0  0  0
 17 19  1  0  0  0  0
 19  5  1  6  0  0  0
 19 21  1  0  0  0  0
 21 14  1  6  0  0  0
 23 14  1  6  0  0  0
 23 29  1  0  0  0  0
 25 26  1  1  0  0  0
 25 27  1  0  0  0  0
 27 18  1  6  0  0  0
 27 28  1  0  0  0  0
 28 20  1  1  0  0  0
 28 29  1  0  0  0  0
 29 11  1  6  0  0  0
 30 22  1  1  0  0  0
 30 31  1  0  0  0  0
 31 24  1  1  0  0  0
M  END
>  <CHROM.1>
64.97135025,41.09860819,51.41638985,52.97949895,54.77188197,164.23984794
38.48082210,26.16000276,3.56097469,-0.22972043,-0.61197082,0.37068137

>  <Name>
ligand

>  <RI>
0

>  <Rbt.Current_Directory>
/home/itssahil/PROJECTS/Mol_Feturizer/New_Systems/rnas/2ET5

>  <Rbt.Executable>
rbdock ($Id: //depot/dev/client3/rdock/2013.1/src/exe/rbdock.cxx#4 $)

>  <Rbt.Library>
libRbt.so (2013.1, Build901 2013/11/27)

>  <Rbt.Parameter_File>
/export/apps/rDock/src/rDock_2013.1_src/data/scripts/dock_solv.prm

>  <Rbt.Receptor>
prm/pocket_docking_6.prm

>  <SCORE>
-5.86567

>  <SCORE.INTER>
-1.37128

>  <SCORE.INTER.CONST>
1

>  <SCORE.INTER.POLAR>
0

>  <SCORE.INTER.ROT>
6

>  <SCORE.INTER.SOLV>
16.2948

>  <SCORE.INTER.VDW>
-13.9458

>  <SCORE.INTER.norm>
-0.0442348

>  <SCORE.INTRA>
-4.4944

>  <SCORE.INTRA.DIHEDRAL>
-7.84488

>  <SCORE.INTRA.DIHEDRAL.0>
11.2357

>  <SCORE.INTRA.POLAR>
0

>  <SCORE.INTRA.POLAR.0>
0

>  <SCORE.INTRA.REPUL>
0.13267

>  <SCORE.INTRA.REPUL.0>
0

>  <SCORE.INTRA.SOLV>
-1.54223

>  <SCORE.INTRA.SOLV.lig_0>
-83.3092

>  <SCORE.INTRA.VDW>
-0.464189

>  <SCORE.INTRA.VDW.0>
-4.47057

>  <SCORE.INTRA.norm>
-0.144981

>  <SCORE.RESTR>
0

>  <SCORE.RESTR.CAVITY>
0

>  <SCORE.RESTR.norm>
0

>  <SCORE.SYSTEM>
0

>  <SCORE.SYSTEM.CONST>
0

>  <SCORE.SYSTEM.DIHEDRAL>
0

>  <SCORE.SYSTEM.SOLV>
0

>  <SCORE.SYSTEM.norm>
0

>  <SCORE.heavy>
31

>  <SCORE.norm>
-0.189215

>  <RMSD>
7.736

$$$$
ligand
 OpenBabel11021811433D
libRbt.so/2013.1/901 2013/11/27
 31 33  0  0  0  0  0  0  0  0999 V2000
   40.3729   26.1254    1.2578 C   0  0  0  0  0  0  0  0  0  0  0  0
   39.1857   30.2474   -1.4780 N   0  0  0  0  0  0  0  0  0  0  0  0
   41.7889   25.9275    1.1346 O   0  0  0  0  0  0  0  0  0  0  0  0
   39.7603   24.8726    0.6372 C   0  0  1  0  0  0  0  0  0  0  0  0
   37.7075   28.9525    3.1982 N   0  0  0  0  0  0  0  0  0  0  0  0
   38.2446   24.8099    0.6914 O   0  0  0  0  0  0  0  0  0  0  0  0
   37.6413   25.0272   -0.5255 C   0  0  1  0  0  0  0  0  0  0  0  0
   39.1412   26.2708    5.2920 N   0  0  0  0  0  0  0  0  0  0  0  0
   36.5935   25.9548   -0.5814 O   0  0  0  0  0  0  0  0  0  0  0  0
   36.7412   27.3902   -0.1648 C   0  0  2  0  0  0  0  0  0  0  0  0
   33.5556   25.4840    2.1433 N   0  0  0  0  0  0  0  0  0  0  0  0
   37.4942   27.9755   -2.4631 O   0  0  0  0  0  0  0  0  0  0  0  0
   37.8592   28.0376   -1.0346 C   0  0  1  0  0  0  0  0  0  0  0  0
   36.1386   26.9353    2.1289 O   0  0  0  0  0  0  0  0  0  0  0  0
   38.0693   29.5784   -0.6168 C   0  0  1  0  0  0  0  0  0  0  0  0
   36.9991   25.3240    3.6547 O   0  0  0  0  0  0  0  0  0  0  0  0
   38.4607   29.6116    0.9246 C   0  0  0  0  0  0  0  0  0  0  0  0
   35.1568   26.4895    6.6744 O   0  0  0  0  0  0  0  0  0  0  0  0
   37.3048   28.9117    1.7533 C   0  0  1  0  0  0  0  0  0  0  0  0
   32.9713   25.6795    5.0247 O   0  0  0  0  0  0  0  0  0  0  0  0
   37.1518   27.4736    1.3726 C   0  0  2  0  0  0  0  0  0  0  0  0
   38.4270   24.8702   -2.7722 O   0  0  0  0  0  0  0  0  0  0  0  0
   35.9868   25.5611    2.5683 C   0  0  1  0  0  0  0  0  0  0  0  0
   39.9429   23.1906   -1.1776 O   0  0  0  0  0  0  0  0  0  0  0  0
   36.7938   26.1230    4.9346 C   0  0  2  0  0  0  0  0  0  0  0  0
   37.9060   25.8015    5.9262 C   0  0  0  0  0  0  0  0  0  0  0  0
   35.4015   25.7613    5.5014 C   0  0  2  0  0  0  0  0  0  0  0  0
   34.3120   26.0490    4.4819 C   0  0  1  0  0  0  0  0  0  0  0  0
   34.6098   25.2414    3.2050 C   0  0  1  0  0  0  0  0  0  0  0  0
   38.7739   25.2939   -1.5036 C   0  0  2  0  0  0  0  0  0  0  0  0
   40.0172   24.6086   -0.8510 C   0  0  1  0  0  0  0  0  0  0  0  0
  1  3  1  0  0  0  0
  4  1  1  6  0  0  0
  4  6  1  0  0  0  0
  4 31  1  0  0  0  0
  6  7  1  0  0  0  0
  7  9  1  1  0  0  0
  7 30  1  0  0  0  0
  8 26  1  0  0  0  0
 10  9  1  6  0  0  0
 10 13  1  0  0  0  0
 10 21  1  0  0  0  0
 13 12  1  6  0  0  0
 13 15  1  0  0  0  0
 15  2  1  6  0  0  0
 15 17  1  0  0  0  0
 16 25  1  0  0  0  0
 16 23  1  0  0  0  0
 17 19  1  0  0  0  0
 19  5  1  1  0  0  0
 19 21  1  0  0  0  0
 21 14  1  1  0  0  0
 23 14  1  1  0  0  0
 23 29  1  0  0  0  0
 25 26  1  1  0  0  0
 25 27  1  0  0  0  0
 27 18  1  1  0  0  0
 27 28  1  0  0  0  0
 28 20  1  1  0  0  0
 28 29  1  0  0  0  0
 29 11  1  6  0  0  0
 30 22  1  6  0  0  0
 30 31  1  0  0  0  0
 31 24  1  1  0  0  0
M  END
>  <CHROM.1>
177.75014447,57.75243035,58.83679865,72.99966559,91.43172180,63.90423775
37.44152182,26.40591180,1.58101680,-0.73402675,-0.80563305,2.31064377

>  <Name>
ligand

>  <RI>
0

>  <Rbt.Current_Directory>
/home/itssahil/PROJECTS/Mol_Feturizer/New_Systems/rnas/2ET5

>  <Rbt.Executable>
rbdock ($Id: //depot/dev/client3/rdock/2013.1/src/exe/rbdock.cxx#4 $)

>  <Rbt.Library>
libRbt.so (2013.1, Build901 2013/11/27)

>  <Rbt.Parameter_File>
/export/apps/rDock/src/rDock_2013.1_src/data/scripts/dock_solv.prm

>  <Rbt.Receptor>
prm/pocket_docking_6.prm

>  <SCORE>
-5.69548

>  <SCORE.INTER>
-1.90905

>  <SCORE.INTER.CONST>
1

>  <SCORE.INTER.POLAR>
0

>  <SCORE.INTER.ROT>
6

>  <SCORE.INTER.SOLV>
15.918

>  <SCORE.INTER.VDW>
-14.1787

>  <SCORE.INTER.norm>
-0.0615821

>  <SCORE.INTRA>
-3.78644

>  <SCORE.INTRA.DIHEDRAL>
-6.33902

>  <SCORE.INTRA.DIHEDRAL.0>
11.2357

>  <SCORE.INTRA.POLAR>
0

>  <SCORE.INTRA.POLAR.0>
0

>  <SCORE.INTRA.REPUL>
0.000529854

>  <SCORE.INTRA.REPUL.0>
0

>  <SCORE.INTRA.SOLV>
-0.380233

>  <SCORE.INTRA.SOLV.lig_0>
-83.3092

>  <SCORE.INTRA.VDW>
-0.429457

>  <SCORE.INTRA.VDW.0>
-4.47057

>  <SCORE.INTRA.norm>
-0.122143

>  <SCORE.RESTR>
0

>  <SCORE.RESTR.CAVITY>
0

>  <SCORE.RESTR.norm>
0

>  <SCORE.SYSTEM>
0

>  <SCORE.SYSTEM.CONST>
0

>  <SCORE.SYSTEM.DIHEDRAL>
0

>  <SCORE.SYSTEM.SOLV>
0

>  <SCORE.SYSTEM.norm>
0

>  <SCORE.heavy>
31

>  <SCORE.norm>
-0.183725

>  <RMSD>
7.739

$$$$
ligand
 OpenBabel11021811433D
libRbt.so/2013.1/901 2013/11/27
 31 33  0  0  0  0  0  0  0  0999 V2000
   43.7581   20.5606    2.6821 C   0  0  0  0  0  0  0  0  0  0  0  0
   41.8777   26.0251    7.8102 N   0  0  0  0  0  0  0  0  0  0  0  0
   42.8237   19.9219    1.7998 O   0  0  0  0  0  0  0  0  0  0  0  0
   44.2265   21.7915    1.9104 C   0  0  1  0  0  0  0  0  0  0  0  0
   39.3646   28.4027    4.1008 N   0  0  0  0  0  0  0  0  0  0  0  0
   43.1368   22.8009    1.5977 O   0  0  0  0  0  0  0  0  0  0  0  0
   43.2103   23.9435    2.3600 C   0  0  1  0  0  0  0  0  0  0  0  0
   36.4803   25.5992    2.2618 N   0  0  0  0  0  0  0  0  0  0  0  0
   42.0407   24.3884    2.9890 O   0  0  0  0  0  0  0  0  0  0  0  0
   41.9850   25.6180    3.8496 C   0  0  2  0  0  0  0  0  0  0  0  0
   42.1513   27.3512   -0.3181 N   0  0  0  0  0  0  0  0  0  0  0  0
   43.1901   24.4032    5.6561 O   0  0  0  0  0  0  0  0  0  0  0  0
   41.9687   25.1689    5.3408 C   0  0  1  0  0  0  0  0  0  0  0  0
   40.7102   26.8706    2.2257 O   0  0  0  0  0  0  0  0  0  0  0  0
   41.8938   26.4529    6.3095 C   0  0  1  0  0  0  0  0  0  0  0  0
   39.0789   25.6320    1.0133 O   0  0  0  0  0  0  0  0  0  0  0  0
   40.5697   27.2557    5.9455 C   0  0  0  0  0  0  0  0  0  0  0  0
   37.3933   28.5249   -0.6178 O   0  0  0  0  0  0  0  0  0  0  0  0
   40.6282   27.6560    4.4128 C   0  0  1  0  0  0  0  0  0  0  0  0
   39.9948   28.7304   -1.7772 O   0  0  0  0  0  0  0  0  0  0  0  0
   40.6621   26.4477    3.5323 C   0  0  2  0  0  0  0  0  0  0  0  0
   44.9814   24.9494    3.6013 O   0  0  0  0  0  0  0  0  0  0  0  0
   40.5141   26.0808    1.0246 C   0  0  1  0  0  0  0  0  0  0  0  0
   46.0733   23.4138    1.5737 O   0  0  0  0  0  0  0  0  0  0  0  0
   38.0419   26.7384    0.8751 C   0  0  2  0  0  0  0  0  0  0  0  0
   36.6412   26.1382    0.9083 C   0  0  0  0  0  0  0  0  0  0  0  0
   38.3139   27.4799   -0.4542 C   0  0  2  0  0  0  0  0  0  0  0  0
   39.7289   28.0330   -0.4844 C   0  0  1  0  0  0  0  0  0  0  0  0
   40.7157   26.8657   -0.2971 C   0  0  1  0  0  0  0  0  0  0  0  0
   44.3913   23.7382    3.2948 C   0  0  2  0  0  0  0  0  0  0  0  0
   45.2861   22.6878    2.5618 C   0  0  1  0  0  0  0  0  0  0  0  0
  1  3  1  0  0  0  0
  4  1  1  1  0  0  0
  4  6  1  0  0  0  0
  4 31  1  0  0  0  0
  6  7  1  0  0  0  0
  7  9  1  1  0  0  0
  7 30  1  0  0  0  0
  8 26  1  0  0  0  0
 10  9  1  6  0  0  0
 10 13  1  0  0  0  0
 10 21  1  0  0  0  0
 13 12  1  1  0  0  0
 13 15  1  0  0  0  0
 15  2  1  1  0  0  0
 15 17  1  0  0  0  0
 16 25  1  0  0  0  0
 16 23  1  0  0  0  0
 17 19  1  0  0  0  0
 19  5  1  6  0  0  0
 19 21  1  0  0  0  0
 21 14  1  6  0  0  0
 23 14  1  1  0  0  0
 23 29  1  0  0  0  0
 25 26  1  6  0  0  0
 25 27  1  0  0  0  0
 27 18  1  1  0  0  0
 27 28  1  0  0  0  0
 28 20  1  6  0  0  0
 28 29  1  0  0  0  0
 29 11  1  1  0  0  0
 30 22  1  6  0  0  0
 30 31  1  0  0  0  0
 31 24  1  6  0  0  0
M  END
>  <CHROM.1>
62.77028709,179.89303193,-102.76904786,66.41717132,74.19653280,66.20463458
41.37013693,25.44540121,2.41277425,-0.20032678,0.74845529,-1.81988150

>  <Name>
ligand

>  <RI>
0

>  <Rbt.Current_Directory>
/home/itssahil/PROJECTS/Mol_Feturizer/New_Systems/rnas/2ET5

>  <Rbt.Executable>
rbdock ($Id: //depot/dev/client3/rdock/2013.1/src/exe/rbdock.cxx#4 $)

>  <Rbt.Library>
libRbt.so (2013.1, Build901 2013/11/27)

>  <Rbt.Parameter_File>
/export/apps/rDock/src/rDock_2013.1_src/data/scripts/dock_solv.prm

>  <Rbt.Receptor>
prm/pocket_docking_6.prm

>  <SCORE>
-4.98823

>  <SCORE.INTER>
-2.67525

>  <SCORE.INTER.CONST>
1

>  <SCORE.INTER.POLAR>
0

>  <SCORE.INTER.ROT>
6

>  <SCORE.INTER.SOLV>
13.437

>  <SCORE.INTER.VDW>
-13.8625

>  <SCORE.INTER.norm>
-0.0862985

>  <SCORE.INTRA>
-2.31298

>  <SCORE.INTRA.DIHEDRAL>
-3.9499

>  <SCORE.INTRA.DIHEDRAL.0>
11.2357

>  <SCORE.INTRA.POLAR>
0

>  <SCORE.INTRA.POLAR.0>
0

>  <SCORE.INTRA.REPUL>
0

>  <SCORE.INTRA.REPUL.0>
0

>  <SCORE.INTRA.SOLV>
-3.39174

>  <SCORE.INTRA.SOLV.lig_0>
-83.3092

>  <SCORE.INTRA.VDW>
1.35784

>  <SCORE.INTRA.VDW.0>
-4.47057

>  <SCORE.INTRA.norm>
-0.0746122

>  <SCORE.RESTR>
0

>  <SCORE.RESTR.CAVITY>
0

>  <SCORE.RESTR.norm>
0

>  <SCORE.SYSTEM>
0

>  <SCORE.SYSTEM.CONST>
0

>  <SCORE.SYSTEM.DIHEDRAL>
0

>  <SCORE.SYSTEM.SOLV>
0

>  <SCORE.SYSTEM.norm>
0

>  <SCORE.heavy>
31

>  <SCORE.norm>
-0.160911

>  <RMSD>
7.741

$$$$
ligand
 OpenBabel11021811433D
libRbt.so/2013.1/901 2013/11/27
 31 33  0  0  0  0  0  0  0  0999 V2000
   40.0019   29.0565    5.9021 C   0  0  0  0  0  0  0  0  0  0  0  0
   32.8532   24.1652    4.7124 N   0  0  0  0  0  0  0  0  0  0  0  0
   41.2064   29.3626    6.6198 O   0  0  0  0  0  0  0  0  0  0  0  0
   39.3698   27.9145    6.6934 C   0  0  1  0  0  0  0  0  0  0  0  0
   34.2540   26.8875    0.6682 N   0  0  0  0  0  0  0  0  0  0  0  0
   38.0469   27.4133    6.1432 O   0  0  0  0  0  0  0  0  0  0  0  0
   38.1372   26.1880    5.5246 C   0  0  1  0  0  0  0  0  0  0  0  0
   37.7559   24.5679   -1.0241 N   0  0  0  0  0  0  0  0  0  0  0  0
   37.5632   26.0509    4.2545 O   0  0  0  0  0  0  0  0  0  0  0  0
   36.1145   26.3281    3.9712 C   0  0  2  0  0  0  0  0  0  0  0  0
   38.1265   30.1110    2.2199 N   0  0  0  0  0  0  0  0  0  0  0  0
   35.4704   24.9561    5.9445 O   0  0  0  0  0  0  0  0  0  0  0  0
   35.2769   25.1225    4.4911 C   0  0  1  0  0  0  0  0  0  0  0  0
   36.5995   27.5846    1.9669 O   0  0  0  0  0  0  0  0  0  0  0  0
   33.7119   25.3624    4.1977 C   0  0  1  0  0  0  0  0  0  0  0  0
   38.4021   26.6758    0.7061 O   0  0  0  0  0  0  0  0  0  0  0  0
   33.5367   25.5378    2.6265 C   0  0  0  0  0  0  0  0  0  0  0  0
   37.8020   28.5844   -2.4352 O   0  0  0  0  0  0  0  0  0  0  0  0
   34.4353   26.7543    2.1517 C   0  0  1  0  0  0  0  0  0  0  0  0
   38.4158   30.7248   -0.6474 O   0  0  0  0  0  0  0  0  0  0  0  0
   35.8864   26.4939    2.4028 C   0  0  2  0  0  0  0  0  0  0  0  0
   39.7360   24.4228    5.6564 O   0  0  0  0  0  0  0  0  0  0  0  0
   38.0309   27.6879    1.7546 C   0  0  1  0  0  0  0  0  0  0  0  0
   39.7996   25.8622    8.0198 O   0  0  0  0  0  0  0  0  0  0  0  0
   37.8262   26.9212   -0.6819 C   0  0  2  0  0  0  0  0  0  0  0  0
   38.2619   25.8055   -1.6247 C   0  0  0  0  0  0  0  0  0  0  0  0
   38.3238   28.3032   -1.1645 C   0  0  2  0  0  0  0  0  0  0  0  0
   37.9161   29.3948   -0.1891 C   0  0  1  0  0  0  0  0  0  0  0  0
   38.4977   29.0567    1.1962 C   0  0  1  0  0  0  0  0  0  0  0  0
   39.6042   25.7971    5.6003 C   0  0  2  0  0  0  0  0  0  0  0  0
   40.1570   26.6048    6.8182 C   0  0  1  0  0  0  0  0  0  0  0  0
  1  3  1  0  0  0  0
  4  1  1  6  0  0  0
  4  6  1  0  0  0  0
  4 31  1  0  0  0  0
  6  7  1  0  0  0  0
  7  9  1  6  0  0  0
  7 30  1  0  0  0  0
  8 26  1  0  0  0  0
 10  9  1  6  0  0  0
 10 13  1  0  0  0  0
 10 21  1  0  0  0  0
 13 12  1  1  0  0  0
 13 15  1  0  0  0  0
 15  2  1  6  0  0  0
 15 17  1  0  0  0  0
 16 25  1  0  0  0  0
 16 23  1  0  0  0  0
 17 19  1  0  0  0  0
 19  5  1  6  0  0  0
 19 21  1  0  0  0  0
 21 14  1  1  0  0  0
 23 14  1  6  0  0  0
 23 29  1  0  0  0  0
 25 26  1  6  0  0  0
 25 27  1  0  0  0  0
 27 18  1  6  0  0  0
 27 28  1  0  0  0  0
 28 20  1  6  0  0  0
 28 29  1  0  0  0  0
 29 11  1  1  0  0  0
 30 22  1  1  0  0  0
 30 31  1  0  0  0  0
 31 24  1  1  0  0  0
M  END
>  <CHROM.1>
179.03430232,-57.26375530,-77.03736561,60.73569871,75.51153286,58.88836219
37.49630341,26.96613789,3.00969356,-1.36213020,-0.55747107,-1.27274790

>  <Name>
ligand

>  <RI>
0

>  <Rbt.Current_Directory>
/home/itssahil/PROJECTS/Mol_Feturizer/New_Systems/rnas/2ET5

>  <Rbt.Executable>
rbdock ($Id: //depot/dev/client3/rdock/2013.1/src/exe/rbdock.cxx#4 $)

>  <Rbt.Library>
libRbt.so (2013.1, Build901 2013/11/27)

>  <Rbt.Parameter_File>
/export/apps/rDock/src/rDock_2013.1_src/data/scripts/dock_solv.prm

>  <Rbt.Receptor>
prm/pocket_docking_6.prm

>  <SCORE>
-6.86745

>  <SCORE.INTER>
-1.92166

>  <SCORE.INTER.CONST>
1

>  <SCORE.INTER.POLAR>
0

>  <SCORE.INTER.ROT>
6

>  <SCORE.INTER.SOLV>
21.2031

>  <SCORE.INTER.VDW>
-15.9488

>  <SCORE.INTER.norm>
-0.061989

>  <SCORE.INTRA>
-4.94674

>  <SCORE.INTRA.DIHEDRAL>
-8.58805

>  <SCORE.INTRA.DIHEDRAL.0>
11.2357

>  <SCORE.INTRA.POLAR>
0

>  <SCORE.INTRA.POLAR.0>
0

>  <SCORE.INTRA.REPUL>
0

>  <SCORE.INTRA.REPUL.0>
0

>  <SCORE.INTRA.SOLV>
-3.77255

>  <SCORE.INTRA.SOLV.lig_0>
-83.3092

>  <SCORE.INTRA.VDW>
1.23356

>  <SCORE.INTRA.VDW.0>
-4.47057

>  <SCORE.INTRA.norm>
-0.159572

>  <SCORE.RESTR>
0.000945691

>  <SCORE.RESTR.CAVITY>
0.000945691

>  <SCORE.RESTR.norm>
3.05062e-05

>  <SCORE.SYSTEM>
0

>  <SCORE.SYSTEM.CONST>
0

>  <SCORE.SYSTEM.DIHEDRAL>
0

>  <SCORE.SYSTEM.SOLV>
0

>  <SCORE.SYSTEM.norm>
0

>  <SCORE.heavy>
31

>  <SCORE.norm>
-0.221531

>  <RMSD>
7.746

$$$$
ligand
 OpenBabel11021811433D
libRbt.so/2013.1/901 2013/11/27
 31 33  0  0  0  0  0  0  0  0999 V2000
   40.3184   23.9887    5.7952 C   0  0  0  0  0  0  0  0  0  0  0  0
   46.9376   27.6607    2.0469 N   0  0  0  0  0  0  0  0  0  0  0  0
   40.7237   23.0009    4.8363 O   0  0  0  0  0  0  0  0  0  0  0  0
   41.6259   24.6280    6.2555 C   0  0  1  0  0  0  0  0  0  0  0  0
   42.8583   28.5668   -0.8282 N   0  0  0  0  0  0  0  0  0  0  0  0
   42.4710   25.2226    5.1436 O   0  0  0  0  0  0  0  0  0  0  0  0
   42.4593   26.5979    5.1193 C   0  0  1  0  0  0  0  0  0  0  0  0
   40.7433   31.2546    3.4168 N   0  0  0  0  0  0  0  0  0  0  0  0
   42.2100   27.2299    3.8946 O   0  0  0  0  0  0  0  0  0  0  0  0
   43.0566   27.0197    2.6719 C   0  0  2  0  0  0  0  0  0  0  0  0
   38.9049   25.7873    0.5569 N   0  0  0  0  0  0  0  0  0  0  0  0
   45.0394   26.6148    4.1197 O   0  0  0  0  0  0  0  0  0  0  0  0
   44.5173   27.4390    3.0126 C   0  0  1  0  0  0  0  0  0  0  0  0
   41.2413   27.5079    1.1562 O   0  0  0  0  0  0  0  0  0  0  0  0
   45.4673   27.2470    1.7268 C   0  0  1  0  0  0  0  0  0  0  0  0
   39.9324   28.6347    2.7941 O   0  0  0  0  0  0  0  0  0  0  0  0
   44.8792   28.1459    0.5536 C   0  0  0  0  0  0  0  0  0  0  0  0
   37.7814   30.5655    0.4454 O   0  0  0  0  0  0  0  0  0  0  0  0
   43.3849   27.6966    0.2749 C   0  0  1  0  0  0  0  0  0  0  0  0
   37.0076   27.9005   -0.2281 O   0  0  0  0  0  0  0  0  0  0  0  0
   42.5149   27.9165    1.4713 C   0  0  2  0  0  0  0  0  0  0  0  0
   41.9258   28.2409    6.7641 O   0  0  0  0  0  0  0  0  0  0  0  0
   40.1115   27.3398    2.0506 C   0  0  1  0  0  0  0  0  0  0  0  0
   42.7471   25.9291    8.0460 O   0  0  0  0  0  0  0  0  0  0  0  0
   39.5289   29.8330    1.9457 C   0  0  2  0  0  0  0  0  0  0  0  0
   39.4143   31.0719    2.8262 C   0  0  0  0  0  0  0  0  0  0  0  0
   38.1863   29.4960    1.2569 C   0  0  2  0  0  0  0  0  0  0  0  0
   38.3109   28.2344    0.4190 C   0  0  1  0  0  0  0  0  0  0  0  0
   38.7613   27.0806    1.3340 C   0  0  1  0  0  0  0  0  0  0  0  0
   41.5333   27.0206    6.2482 C   0  0  2  0  0  0  0  0  0  0  0  0
   41.5447   25.8070    7.2322 C   0  0  1  0  0  0  0  0  0  0  0  0
  1  3  1  0  0  0  0
  4  1  1  6  0  0  0
  4  6  1  0  0  0  0
  4 31  1  0  0  0  0
  6  7  1  0  0  0  0
  7  9  1  6  0  0  0
  7 30  1  0  0  0  0
  8 26  1  0  0  0  0
 10  9  1  1  0  0  0
 10 13  1  0  0  0  0
 10 21  1  0  0  0  0
 13 12  1  1  0  0  0
 13 15  1  0  0  0  0
 15  2  1  1  0  0  0
 15 17  1  0  0  0  0
 16 25  1  0  0  0  0
 16 23  1  0  0  0  0
 17 19  1  0  0  0  0
 19  5  1  6  0  0  0
 19 21  1  0  0  0  0
 21 14  1  6  0  0  0
 23 14  1  6  0  0  0
 23 29  1  0  0  0  0
 25 26  1  1  0  0  0
 25 27  1  0  0  0  0
 27 18  1  6  0  0  0
 27 28  1  0  0  0  0
 28 20  1  1  0  0  0
 28 29  1  0  0  0  0
 29 11  1  6  0  0  0
 30 22  1  1  0  0  0
 30 31  1  0  0  0  0
 31 24  1  1  0  0  0
M  END
>  <CHROM.1>
56.81941379,-58.41436642,-59.05921059,54.04110522,51.78877498,59.79422697
41.47076800,27.42699869,3.01333886,0.98895981,-0.07072895,2.10041339

>  <Name>
ligand

>  <RI>
0

>  <Rbt.Current_Directory>
/home/itssahil/PROJECTS/Mol_Feturizer/New_Systems/rnas/2ET5

>  <Rbt.Executable>
rbdock ($Id: //depot/dev/client3/rdock/2013.1/src/exe/rbdock.cxx#4 $)

>  <Rbt.Library>
libRbt.so (2013.1, Build901 2013/11/27)

>  <Rbt.Parameter_File>
/export/apps/rDock/src/rDock_2013.1_src/data/scripts/dock_solv.prm

>  <Rbt.Receptor>
prm/pocket_docking_6.prm

>  <SCORE>
-8.17126

>  <SCORE.INTER>
-2.74993

>  <SCORE.INTER.CONST>
1

>  <SCORE.INTER.POLAR>
0

>  <SCORE.INTER.ROT>
6

>  <SCORE.INTER.SOLV>
9.05514

>  <SCORE.INTER.VDW>
-12.4517

>  <SCORE.INTER.norm>
-0.0887073

>  <SCORE.INTRA>
-5.42133

>  <SCORE.INTRA.DIHEDRAL>
-10.5422

>  <SCORE.INTRA.DIHEDRAL.0>
11.2357

>  <SCORE.INTRA.POLAR>
0

>  <SCORE.INTRA.POLAR.0>
0

>  <SCORE.INTRA.REPUL>
0

>  <SCORE.INTRA.REPUL.0>
0

>  <SCORE.INTRA.SOLV>
-4.33525

>  <SCORE.INTRA.SOLV.lig_0>
-83.3092

>  <SCORE.INTRA.VDW>
2.01737

>  <SCORE.INTRA.VDW.0>
-4.47057

>  <SCORE.INTRA.norm>
-0.174882

>  <SCORE.RESTR>
0

>  <SCORE.RESTR.CAVITY>
0

>  <SCORE.RESTR.norm>
0

>  <SCORE.SYSTEM>
0

>  <SCORE.SYSTEM.CONST>
0

>  <SCORE.SYSTEM.DIHEDRAL>
0

>  <SCORE.SYSTEM.SOLV>
0

>  <SCORE.SYSTEM.norm>
0

>  <SCORE.heavy>
31

>  <SCORE.norm>
-0.263589

>  <RMSD>
7.796

$$$$
ligand
 OpenBabel11021811433D
libRbt.so/2013.1/901 2013/11/27
 31 33  0  0  0  0  0  0  0  0999 V2000
   39.8459   22.7979    0.9939 C   0  0  0  0  0  0  0  0  0  0  0  0
   37.7051   27.0118   -3.1509 N   0  0  0  0  0  0  0  0  0  0  0  0
   40.2456   23.1263   -0.3447 O   0  0  0  0  0  0  0  0  0  0  0  0
   40.1317   24.0650    1.7958 C   0  0  1  0  0  0  0  0  0  0  0  0
   37.7008   30.5720    0.4620 N   0  0  0  0  0  0  0  0  0  0  0  0
   39.3235   25.2800    1.3777 O   0  0  0  0  0  0  0  0  0  0  0  0
   38.3301   25.6130    2.2688 C   0  0  1  0  0  0  0  0  0  0  0  0
   41.0443   29.4150    3.2078 N   0  0  0  0  0  0  0  0  0  0  0  0
   37.0442   25.8402    1.7624 O   0  0  0  0  0  0  0  0  0  0  0  0
   36.7430   26.8701    0.7115 C   0  0  2  0  0  0  0  0  0  0  0  0
   34.7321   28.7389    4.4205 N   0  0  0  0  0  0  0  0  0  0  0  0
   36.7878   25.0967   -1.0333 O   0  0  0  0  0  0  0  0  0  0  0  0
   37.3687   26.3925   -0.6324 C   0  0  1  0  0  0  0  0  0  0  0  0
   36.7882   28.6990    2.2876 O   0  0  0  0  0  0  0  0  0  0  0  0
   37.0870   27.4717   -1.7937 C   0  0  1  0  0  0  0  0  0  0  0  0
   38.4572   28.4479    3.9658 O   0  0  0  0  0  0  0  0  0  0  0  0
   37.7238   28.8545   -1.3325 C   0  0  0  0  0  0  0  0  0  0  0  0
   38.3606   31.9367    5.2658 O   0  0  0  0  0  0  0  0  0  0  0  0
   37.0746   29.2716    0.0521 C   0  0  1  0  0  0  0  0  0  0  0  0
   35.7184   31.0747    5.9216 O   0  0  0  0  0  0  0  0  0  0  0  0
   37.3787   28.2723    1.1225 C   0  0  2  0  0  0  0  0  0  0  0  0
   37.9883   25.1068    4.5746 O   0  0  0  0  0  0  0  0  0  0  0  0
   37.0108   28.2051    3.6334 C   0  0  1  0  0  0  0  0  0  0  0  0
   40.6991   24.9884    4.0276 O   0  0  0  0  0  0  0  0  0  0  0  0
   38.8777   29.9085    4.0575 C   0  0  2  0  0  0  0  0  0  0  0  0
   40.3670   29.9968    4.3701 C   0  0  0  0  0  0  0  0  0  0  0  0
   38.0228   30.5801    5.1569 C   0  0  2  0  0  0  0  0  0  0  0  0
   36.5412   30.4433    4.8480 C   0  0  1  0  0  0  0  0  0  0  0  0
   36.2016   28.9460    4.7288 C   0  0  1  0  0  0  0  0  0  0  0  0
   38.3995   24.5680    3.3705 C   0  0  2  0  0  0  0  0  0  0  0  0
   39.8668   24.0350    3.3055 C   0  0  1  0  0  0  0  0  0  0  0  0
  1  3  1  0  0  0  0
  4  1  1  6  0  0  0
  4  6  1  0  0  0  0
  4 31  1  0  0  0  0
  6  7  1  0  0  0  0
  7  9  1  6  0  0  0
  7 30  1  0  0  0  0
  8 26  1  0  0  0  0
 10  9  1  1  0  0  0
 10 13  1  0  0  0  0
 10 21  1  0  0  0  0
 13 12  1  6  0  0  0
 13 15  1  0  0  0  0
 15  2  1  6  0  0  0
 15 17  1  0  0  0  0
 16 25  1  0  0  0  0
 16 23  1  0  0  0  0
 17 19  1  0  0  0  0
 19  5  1  1  0  0  0
 19 21  1  0  0  0  0
 21 14  1  1  0  0  0
 23 14  1  6  0  0  0
 23 29  1  0  0  0  0
 25 26  1  1  0  0  0
 25 27  1  0  0  0  0
 27 18  1  6  0  0  0
 27 28  1  0  0  0  0
 28 20  1  1  0  0  0
 28 29  1  0  0  0  0
 29 11  1  6  0  0  0
 30 22  1  1  0  0  0
 30 31  1  0  0  0  0
 31 24  1  1  0  0  0
M  END
>  <CHROM.1>
63.23458622,-57.30673166,69.49887951,61.53390486,74.77329491,64.49603439
38.06304401,27.44850362,2.26027014,-1.15113026,-1.08131349,1.03863019

>  <Name>
ligand

>  <RI>
0

>  <Rbt.Current_Directory>
/home/itssahil/PROJECTS/Mol_Feturizer/New_Systems/rnas/2ET5

>  <Rbt.Executable>
rbdock ($Id: //depot/dev/client3/rdock/2013.1/src/exe/rbdock.cxx#4 $)

>  <Rbt.Library>
libRbt.so (2013.1, Build901 2013/11/27)

>  <Rbt.Parameter_File>
/export/apps/rDock/src/rDock_2013.1_src/data/scripts/dock_solv.prm

>  <Rbt.Receptor>
prm/pocket_docking_7.prm

>  <SCORE>
-6.36481

>  <SCORE.INTER>
-0.215213

>  <SCORE.INTER.CONST>
1

>  <SCORE.INTER.POLAR>
0

>  <SCORE.INTER.ROT>
6

>  <SCORE.INTER.SOLV>
14.3347

>  <SCORE.INTER.VDW>
-12.5217

>  <SCORE.INTER.norm>
-0.00694237

>  <SCORE.INTRA>
-6.14959

>  <SCORE.INTRA.DIHEDRAL>
-9.4781

>  <SCORE.INTRA.DIHEDRAL.0>
11.2357

>  <SCORE.INTRA.POLAR>
0

>  <SCORE.INTRA.POLAR.0>
0

>  <SCORE.INTRA.REPUL>
0

>  <SCORE.INTRA.REPUL.0>
0

>  <SCORE.INTRA.SOLV>
-3.40241

>  <SCORE.INTRA.SOLV.lig_0>
-83.3092

>  <SCORE.INTRA.VDW>
0.290663

>  <SCORE.INTRA.VDW.0>
-4.47057

>  <SCORE.INTRA.norm>
-0.198374

>  <SCORE.RESTR>
0

>  <SCORE.RESTR.CAVITY>
0

>  <SCORE.RESTR.norm>
0

>  <SCORE.SYSTEM>
0

>  <SCORE.SYSTEM.CONST>
0

>  <SCORE.SYSTEM.DIHEDRAL>
0

>  <SCORE.SYSTEM.SOLV>
0

>  <SCORE.SYSTEM.norm>
0

>  <SCORE.heavy>
31

>  <SCORE.norm>
-0.205316

>  <RMSD>
7.893

$$$$
ligand
 OpenBabel11021811433D
libRbt.so/2013.1/901 2013/11/27
 31 33  0  0  0  0  0  0  0  0999 V2000
   36.6120   26.5906    6.7961 C   0  0  0  0  0  0  0  0  0  0  0  0
   34.8565   30.5096    6.9158 N   0  0  0  0  0  0  0  0  0  0  0  0
   36.5301   26.0088    8.1055 O   0  0  0  0  0  0  0  0  0  0  0  0
   38.0192   26.2451    6.3159 C   0  0  1  0  0  0  0  0  0  0  0  0
   34.4553   28.0968    2.4721 N   0  0  0  0  0  0  0  0  0  0  0  0
   38.3859   26.8114    4.9562 O   0  0  0  0  0  0  0  0  0  0  0  0
   39.2712   27.8624    5.0187 C   0  0  1  0  0  0  0  0  0  0  0  0
   39.7994   24.1148    2.2049 N   0  0  0  0  0  0  0  0  0  0  0  0
   38.9642   29.0220    4.2959 O   0  0  0  0  0  0  0  0  0  0  0  0
   37.5693   29.5614    4.1580 C   0  0  2  0  0  0  0  0  0  0  0  0
   38.4558   29.2727   -0.4601 N   0  0  0  0  0  0  0  0  0  0  0  0
   37.7968   30.7010    6.3582 O   0  0  0  0  0  0  0  0  0  0  0  0
   36.9758   29.7489    5.5856 C   0  0  1  0  0  0  0  0  0  0  0  0
   37.1780   28.4120    2.0707 O   0  0  0  0  0  0  0  0  0  0  0  0
   35.4705   30.3130    5.4945 C   0  0  1  0  0  0  0  0  0  0  0  0
   38.8117   26.6909    2.2557 O   0  0  0  0  0  0  0  0  0  0  0  0
   34.6127   29.2669    4.6578 C   0  0  0  0  0  0  0  0  0  0  0  0
   37.4675   24.4637   -0.4095 O   0  0  0  0  0  0  0  0  0  0  0  0
   35.2816   29.0930    3.2312 C   0  0  1  0  0  0  0  0  0  0  0  0
   38.1648   26.7555   -1.9638 O   0  0  0  0  0  0  0  0  0  0  0  0
   36.6652   28.5358    3.3395 C   0  0  2  0  0  0  0  0  0  0  0  0
   40.8086   28.5857    6.6928 O   0  0  0  0  0  0  0  0  0  0  0  0
   38.5303   28.0539    1.6861 C   0  0  1  0  0  0  0  0  0  0  0  0
   40.3761   25.8682    6.9931 O   0  0  0  0  0  0  0  0  0  0  0  0
   37.9756   25.5521    1.6876 C   0  0  2  0  0  0  0  0  0  0  0  0
   38.3497   24.2452    2.3771 C   0  0  0  0  0  0  0  0  0  0  0  0
   38.2336   25.4883    0.1645 C   0  0  2  0  0  0  0  0  0  0  0  0
   37.8952   26.8141   -0.4967 C   0  0  1  0  0  0  0  0  0  0  0  0
   38.7459   27.9190    0.1567 C   0  0  1  0  0  0  0  0  0  0  0  0
   39.5332   28.0911    6.4984 C   0  0  2  0  0  0  0  0  0  0  0  0
   39.2046   26.7171    7.1659 C   0  0  1  0  0  0  0  0  0  0  0  0
  1  3  1  0  0  0  0
  4  1  1  1  0  0  0
  4  6  1  0  0  0  0
  4 31  1  0  0  0  0
  6  7  1  0  0  0  0
  7  9  1  1  0  0  0
  7 30  1  0  0  0  0
  8 26  1  0  0  0  0
 10  9  1  1  0  0  0
 10 13  1  0  0  0  0
 10 21  1  0  0  0  0
 13 12  1  1  0  0  0
 13 15  1  0  0  0  0
 15  2  1  1  0  0  0
 15 17  1  0  0  0  0
 16 25  1  0  0  0  0
 16 23  1  0  0  0  0
 17 19  1  0  0  0  0
 19  5  1  6  0  0  0
 19 21  1  0  0  0  0
 21 14  1  6  0  0  0
 23 14  1  6  0  0  0
 23 29  1  0  0  0  0
 25 26  1  1  0  0  0
 25 27  1  0  0  0  0
 27 18  1  6  0  0  0
 27 28  1  0  0  0  0
 28 20  1  6  0  0  0
 28 29  1  0  0  0  0
 29 11  1  6  0  0  0
 30 22  1  6  0  0  0
 30 31  1  0  0  0  0
 31 24  1  6  0  0  0
M  END
>  <CHROM.1>
-177.29523372,37.75878785,54.47783987,59.56791304,54.77212721,-54.83471286
37.80322310,27.57366772,3.70284962,-1.69297436,0.86518445,-1.77650526

>  <Name>
ligand

>  <RI>
0

>  <Rbt.Current_Directory>
/home/itssahil/PROJECTS/Mol_Feturizer/New_Systems/rnas/2ET5

>  <Rbt.Executable>
rbdock ($Id: //depot/dev/client3/rdock/2013.1/src/exe/rbdock.cxx#4 $)

>  <Rbt.Library>
libRbt.so (2013.1, Build901 2013/11/27)

>  <Rbt.Parameter_File>
/export/apps/rDock/src/rDock_2013.1_src/data/scripts/dock_solv.prm

>  <Rbt.Receptor>
prm/pocket_docking_7.prm

>  <SCORE>
-4.26125

>  <SCORE.INTER>
-0.227554

>  <SCORE.INTER.CONST>
1

>  <SCORE.INTER.POLAR>
0

>  <SCORE.INTER.ROT>
6

>  <SCORE.INTER.SOLV>
10.9385

>  <SCORE.INTER.VDW>
-11.3979

>  <SCORE.INTER.norm>
-0.00734044

>  <SCORE.INTRA>
-4.0337

>  <SCORE.INTRA.DIHEDRAL>
-8.56385

>  <SCORE.INTRA.DIHEDRAL.0>
11.2357

>  <SCORE.INTRA.POLAR>
0

>  <SCORE.INTRA.POLAR.0>
0

>  <SCORE.INTRA.REPUL>
0.174693

>  <SCORE.INTRA.REPUL.0>
0

>  <SCORE.INTRA.SOLV>
-1.35661

>  <SCORE.INTRA.SOLV.lig_0>
-83.3092

>  <SCORE.INTRA.VDW>
0.0530727

>  <SCORE.INTRA.VDW.0>
-4.47057

>  <SCORE.INTRA.norm>
-0.130119

>  <SCORE.RESTR>
0

>  <SCORE.RESTR.CAVITY>
0

>  <SCORE.RESTR.norm>
0

>  <SCORE.SYSTEM>
0

>  <SCORE.SYSTEM.CONST>
0

>  <SCORE.SYSTEM.DIHEDRAL>
0

>  <SCORE.SYSTEM.SOLV>
0

>  <SCORE.SYSTEM.norm>
0

>  <SCORE.heavy>
31

>  <SCORE.norm>
-0.13746

>  <RMSD>
7.941

$$$$
ligand
 OpenBabel11021811433D
libRbt.so/2013.1/901 2013/11/27
 31 33  0  0  0  0  0  0  0  0999 V2000
   41.0340   22.0751    2.8156 C   0  0  0  0  0  0  0  0  0  0  0  0
   47.1395   28.0042    0.9469 N   0  0  0  0  0  0  0  0  0  0  0  0
   40.1600   23.0152    2.1738 O   0  0  0  0  0  0  0  0  0  0  0  0
   42.2967   22.0860    1.9579 C   0  0  1  0  0  0  0  0  0  0  0  0
   44.3219   29.2774    4.9680 N   0  0  0  0  0  0  0  0  0  0  0  0
   43.0052   23.4263    1.8832 O   0  0  0  0  0  0  0  0  0  0  0  0
   44.1729   23.4724    2.6087 C   0  0  1  0  0  0  0  0  0  0  0  0
   40.7368   30.3141    3.7747 N   0  0  0  0  0  0  0  0  0  0  0  0
   44.3657   24.5579    3.4724 O   0  0  0  0  0  0  0  0  0  0  0  0
   44.3929   25.9857    3.0074 C   0  0  2  0  0  0  0  0  0  0  0  0
   42.5261   25.2340    7.3622 N   0  0  0  0  0  0  0  0  0  0  0  0
   45.8026   25.3225    1.0672 O   0  0  0  0  0  0  0  0  0  0  0  0
   45.7245   26.2214    2.2349 C   0  0  1  0  0  0  0  0  0  0  0  0
   43.1291   26.7779    4.9063 O   0  0  0  0  0  0  0  0  0  0  0  0
   45.8118   27.7464    1.7256 C   0  0  1  0  0  0  0  0  0  0  0  0
   41.8630   28.5892    5.7903 O   0  0  0  0  0  0  0  0  0  0  0  0
   45.7250   28.6882    3.0045 C   0  0  0  0  0  0  0  0  0  0  0  0
   38.4847   27.1024    5.2929 O   0  0  0  0  0  0  0  0  0  0  0  0
   44.3690   28.3807    3.7658 C   0  0  1  0  0  0  0  0  0  0  0  0
   39.5862   25.2503    7.1666 O   0  0  0  0  0  0  0  0  0  0  0  0
   44.3260   26.9695    4.2591 C   0  0  2  0  0  0  0  0  0  0  0  0
   45.6302   21.7763    3.4388 O   0  0  0  0  0  0  0  0  0  0  0  0
   42.6803   27.3787    6.1483 C   0  0  1  0  0  0  0  0  0  0  0  0
   44.2847   20.7931    1.2286 O   0  0  0  0  0  0  0  0  0  0  0  0
   40.5625   28.3123    5.0483 C   0  0  2  0  0  0  0  0  0  0  0  0
   39.8616   29.6278    4.7293 C   0  0  0  0  0  0  0  0  0  0  0  0
   39.6898   27.4029    5.9438 C   0  0  2  0  0  0  0  0  0  0  0  0
   40.4234   26.1167    6.2852 C   0  0  1  0  0  0  0  0  0  0  0  0
   41.7427   26.4778    6.9926 C   0  0  1  0  0  0  0  0  0  0  0  0
   44.3000   22.1093    3.2693 C   0  0  2  0  0  0  0  0  0  0  0  0
   43.4495   21.1608    2.3645 C   0  0  1  0  0  0  0  0  0  0  0  0
  1  3  1  0  0  0  0
  4  1  1  1  0  0  0
  4  6  1  0  0  0  0
  4 31  1  0  0  0  0
  6  7  1  0  0  0  0
  7  9  1  1  0  0  0
  7 30  1  0  0  0  0
  8 26  1  0  0  0  0
 10  9  1  1  0  0  0
 10 13  1  0  0  0  0
 10 21  1  0  0  0  0
 13 12  1  6  0  0  0
 13 15  1  0  0  0  0
 15  2  1  1  0  0  0
 15 17  1  0  0  0  0
 16 25  1  0  0  0  0
 16 23  1  0  0  0  0
 17 19  1  0  0  0  0
 19  5  1  1  0  0  0
 19 21  1  0  0  0  0
 21 14  1  6  0  0  0
 23 14  1  6  0  0  0
 23 29  1  0  0  0  0
 25 26  1  1  0  0  0
 25 27  1  0  0  0  0
 27 18  1  6  0  0  0
 27 28  1  0  0  0  0
 28 20  1  1  0  0  0
 28 29  1  0  0  0  0
 29 11  1  6  0  0  0
 30 22  1  6  0  0  0
 30 31  1  0  0  0  0
 31 24  1  6  0  0  0
M  END
>  <CHROM.1>
61.44110272,-59.70455312,-72.21870812,95.02764950,174.90111219,66.10818924
42.93425848,25.74699933,3.84568571,1.00151244,-0.54144393,-2.88169345

>  <Name>
ligand

>  <RI>
0

>  <Rbt.Current_Directory>
/home/itssahil/PROJECTS/Mol_Feturizer/New_Systems/rnas/2ET5

>  <Rbt.Executable>
rbdock ($Id: //depot/dev/client3/rdock/2013.1/src/exe/rbdock.cxx#4 $)

>  <Rbt.Library>
libRbt.so (2013.1, Build901 2013/11/27)

>  <Rbt.Parameter_File>
/export/apps/rDock/src/rDock_2013.1_src/data/scripts/dock_solv.prm

>  <Rbt.Receptor>
prm/pocket_docking_8.prm

>  <SCORE>
-5.90675

>  <SCORE.INTER>
-4.43328

>  <SCORE.INTER.CONST>
1

>  <SCORE.INTER.POLAR>
0

>  <SCORE.INTER.ROT>
6

>  <SCORE.INTER.SOLV>
12.4034

>  <SCORE.INTER.VDW>
-14.69

>  <SCORE.INTER.norm>
-0.143009

>  <SCORE.INTRA>
-1.47347

>  <SCORE.INTRA.DIHEDRAL>
-5.6177

>  <SCORE.INTRA.DIHEDRAL.0>
11.2357

>  <SCORE.INTRA.POLAR>
0

>  <SCORE.INTRA.POLAR.0>
0

>  <SCORE.INTRA.REPUL>
0

>  <SCORE.INTRA.REPUL.0>
0

>  <SCORE.INTRA.SOLV>
-1.45908

>  <SCORE.INTRA.SOLV.lig_0>
-83.3092

>  <SCORE.INTRA.VDW>
2.06492

>  <SCORE.INTRA.VDW.0>
-4.47057

>  <SCORE.INTRA.norm>
-0.0475312

>  <SCORE.RESTR>
0

>  <SCORE.RESTR.CAVITY>
0

>  <SCORE.RESTR.norm>
0

>  <SCORE.SYSTEM>
0

>  <SCORE.SYSTEM.CONST>
0

>  <SCORE.SYSTEM.DIHEDRAL>
0

>  <SCORE.SYSTEM.SOLV>
0

>  <SCORE.SYSTEM.norm>
0

>  <SCORE.heavy>
31

>  <SCORE.norm>
-0.19054

>  <RMSD>
7.953

$$$$
ligand
 OpenBabel11021811433D
libRbt.so/2013.1/901 2013/11/27
 31 33  0  0  0  0  0  0  0  0999 V2000
   42.6295   20.4858    2.1373 C   0  0  0  0  0  0  0  0  0  0  0  0
   41.6475   25.9804    7.7364 N   0  0  0  0  0  0  0  0  0  0  0  0
   41.7482   19.3605    2.2663 O   0  0  0  0  0  0  0  0  0  0  0  0
   41.8605   21.4701    1.2600 C   0  0  1  0  0  0  0  0  0  0  0  0
   37.3587   27.2457    5.3420 N   0  0  0  0  0  0  0  0  0  0  0  0
   40.5396   21.9433    1.8392 O   0  0  0  0  0  0  0  0  0  0  0  0
   40.5721   23.2409    2.2946 C   0  0  1  0  0  0  0  0  0  0  0  0
   34.5188   23.8621    5.2119 N   0  0  0  0  0  0  0  0  0  0  0  0
   40.0707   23.4985    3.5766 O   0  0  0  0  0  0  0  0  0  0  0  0
   40.1345   24.8494    4.2299 C   0  0  2  0  0  0  0  0  0  0  0  0
   38.2411   25.6856    0.2826 N   0  0  0  0  0  0  0  0  0  0  0  0
   42.2184   24.1752    5.4107 O   0  0  0  0  0  0  0  0  0  0  0  0
   40.8502   24.6928    5.6043 C   0  0  1  0  0  0  0  0  0  0  0  0
   38.0594   25.5853    3.2382 O   0  0  0  0  0  0  0  0  0  0  0  0
   40.9321   26.1144    6.3559 C   0  0  1  0  0  0  0  0  0  0  0  0
   36.2940   24.0026    3.0293 O   0  0  0  0  0  0  0  0  0  0  0  0
   39.4449   26.6447    6.5492 C   0  0  0  0  0  0  0  0  0  0  0  0
   33.6549   26.3732    1.8951 O   0  0  0  0  0  0  0  0  0  0  0  0
   38.7588   26.7518    5.1243 C   0  0  1  0  0  0  0  0  0  0  0  0
   35.4884   26.5699   -0.2853 O   0  0  0  0  0  0  0  0  0  0  0  0
   38.6628   25.4149    4.4609 C   0  0  2  0  0  0  0  0  0  0  0  0
   42.0151   25.0827    1.8312 O   0  0  0  0  0  0  0  0  0  0  0  0
   37.5180   24.5648    2.3606 C   0  0  1  0  0  0  0  0  0  0  0  0
   42.0422   23.3610   -0.3360 O   0  0  0  0  0  0  0  0  0  0  0  0
   35.1301   24.9699    3.1973 C   0  0  2  0  0  0  0  0  0  0  0  0
   33.9792   24.2714    3.9121 C   0  0  0  0  0  0  0  0  0  0  0  0
   34.7148   25.4611    1.7912 C   0  0  2  0  0  0  0  0  0  0  0  0
   35.8873   26.1154    1.0796 C   0  0  1  0  0  0  0  0  0  0  0  0
   37.0357   25.0938    0.9854 C   0  0  1  0  0  0  0  0  0  0  0  0
   41.9959   23.7211    2.0650 C   0  0  2  0  0  0  0  0  0  0  0  0
   42.5324   22.8051    0.9184 C   0  0  1  0  0  0  0  0  0  0  0  0
  1  3  1  0  0  0  0
  4  1  1  1  0  0  0
  4  6  1  0  0  0  0
  4 31  1  0  0  0  0
  6  7  1  0  0  0  0
  7  9  1  1  0  0  0
  7 30  1  0  0  0  0
  8 26  1  0  0  0  0
 10  9  1  1  0  0  0
 10 13  1  0  0  0  0
 10 21  1  0  0  0  0
 13 12  1  6  0  0  0
 13 15  1  0  0  0  0
 15  2  1  1  0  0  0
 15 17  1  0  0  0  0
 16 25  1  0  0  0  0
 16 23  1  0  0  0  0
 17 19  1  0  0  0  0
 19  5  1  1  0  0  0
 19 21  1  0  0  0  0
 21 14  1  6  0  0  0
 23 14  1  1  0  0  0
 23 29  1  0  0  0  0
 25 26  1  6  0  0  0
 25 27  1  0  0  0  0
 27 18  1  1  0  0  0
 27 28  1  0  0  0  0
 28 20  1  6  0  0  0
 28 29  1  0  0  0  0
 29 11  1  1  0  0  0
 30 22  1  6  0  0  0
 30 31  1  0  0  0  0
 31 24  1  6  0  0  0
M  END
>  <CHROM.1>
60.84252228,175.58613925,-124.79182227,69.16698775,75.28612908,60.20942862
38.92990798,24.46859436,3.04187028,0.20532627,0.37464664,-2.05693244

>  <Name>
ligand

>  <RI>
0

>  <Rbt.Current_Directory>
/home/itssahil/PROJECTS/Mol_Feturizer/New_Systems/rnas/2ET5

>  <Rbt.Executable>
rbdock ($Id: //depot/dev/client3/rdock/2013.1/src/exe/rbdock.cxx#4 $)

>  <Rbt.Library>
libRbt.so (2013.1, Build901 2013/11/27)

>  <Rbt.Parameter_File>
/export/apps/rDock/src/rDock_2013.1_src/data/scripts/dock_solv.prm

>  <Rbt.Receptor>
prm/pocket_docking_6.prm

>  <SCORE>
-7.26469

>  <SCORE.INTER>
-5.16329

>  <SCORE.INTER.CONST>
1

>  <SCORE.INTER.POLAR>
0

>  <SCORE.INTER.ROT>
6

>  <SCORE.INTER.SOLV>
20.624

>  <SCORE.INTER.VDW>
-17.9169

>  <SCORE.INTER.norm>
-0.166558

>  <SCORE.INTRA>
-2.1014

>  <SCORE.INTRA.DIHEDRAL>
-2.41942

>  <SCORE.INTRA.DIHEDRAL.0>
11.2357

>  <SCORE.INTRA.POLAR>
0

>  <SCORE.INTRA.POLAR.0>
0

>  <SCORE.INTRA.REPUL>
0

>  <SCORE.INTRA.REPUL.0>
0

>  <SCORE.INTRA.SOLV>
-3.16956

>  <SCORE.INTRA.SOLV.lig_0>
-83.3092

>  <SCORE.INTRA.VDW>
0.693087

>  <SCORE.INTRA.VDW.0>
-4.47057

>  <SCORE.INTRA.norm>
-0.0677872

>  <SCORE.RESTR>
0

>  <SCORE.RESTR.CAVITY>
0

>  <SCORE.RESTR.norm>
0

>  <SCORE.SYSTEM>
0

>  <SCORE.SYSTEM.CONST>
0

>  <SCORE.SYSTEM.DIHEDRAL>
0

>  <SCORE.SYSTEM.SOLV>
0

>  <SCORE.SYSTEM.norm>
0

>  <SCORE.heavy>
31

>  <SCORE.norm>
-0.234345

>  <RMSD>
7.967

$$$$
ligand
 OpenBabel11021811433D
libRbt.so/2013.1/901 2013/11/27
 31 33  0  0  0  0  0  0  0  0999 V2000
   43.2686   24.4647    4.5551 C   0  0  0  0  0  0  0  0  0  0  0  0
   41.5442   28.6503    0.1709 N   0  0  0  0  0  0  0  0  0  0  0  0
   44.1544   25.1078    3.6269 O   0  0  0  0  0  0  0  0  0  0  0  0
   42.8151   25.5871    5.4850 C   0  0  1  0  0  0  0  0  0  0  0  0
   39.1076   31.3345    3.7188 N   0  0  0  0  0  0  0  0  0  0  0  0
   41.8730   26.5963    4.8541 O   0  0  0  0  0  0  0  0  0  0  0  0
   40.5712   26.4757    5.2819 C   0  0  1  0  0  0  0  0  0  0  0  0
   35.1828   25.2128    3.6368 N   0  0  0  0  0  0  0  0  0  0  0  0
   39.5627   26.4401    4.3108 O   0  0  0  0  0  0  0  0  0  0  0  0
   39.3513   27.5330    3.3025 C   0  0  2  0  0  0  0  0  0  0  0  0
   36.1212   30.4270    6.3641 N   0  0  0  0  0  0  0  0  0  0  0  0
   40.5826   26.1969    1.6024 O   0  0  0  0  0  0  0  0  0  0  0  0
   40.5365   27.5003    2.2926 C   0  0  1  0  0  0  0  0  0  0  0  0
   38.2422   28.9772    4.8884 O   0  0  0  0  0  0  0  0  0  0  0  0
   40.3664   28.6658    1.1947 C   0  0  1  0  0  0  0  0  0  0  0  0
   36.5725   27.5294    4.0044 O   0  0  0  0  0  0  0  0  0  0  0  0
   40.3200   30.0548    1.9685 C   0  0  0  0  0  0  0  0  0  0  0  0
   35.9340   25.5781    7.1118 O   0  0  0  0  0  0  0  0  0  0  0  0
   39.1187   30.0164    3.0019 C   0  0  1  0  0  0  0  0  0  0  0  0
   35.0900   28.1722    7.9560 O   0  0  0  0  0  0  0  0  0  0  0  0
   39.3158   28.9496    4.0313 C   0  0  2  0  0  0  0  0  0  0  0  0
   39.5876   25.4707    7.2085 O   0  0  0  0  0  0  0  0  0  0  0  0
   36.8322   28.9046    4.5547 C   0  0  1  0  0  0  0  0  0  0  0  0
   42.1919   26.1909    7.8094 O   0  0  0  0  0  0  0  0  0  0  0  0
   36.7572   26.3797    4.9855 C   0  0  2  0  0  0  0  0  0  0  0  0
   36.4893   25.0544    4.2819 C   0  0  0  0  0  0  0  0  0  0  0  0
   35.7867   26.6047    6.1680 C   0  0  2  0  0  0  0  0  0  0  0  0
   36.0421   27.9494    6.8281 C   0  0  1  0  0  0  0  0  0  0  0  0
   35.8790   29.0546    5.7682 C   0  0  1  0  0  0  0  0  0  0  0  0
   40.5627   25.2995    6.2447 C   0  0  2  0  0  0  0  0  0  0  0  0
   42.0382   25.2028    6.7496 C   0  0  1  0  0  0  0  0  0  0  0  0
  1  3  1  0  0  0  0
  4  1  1  6  0  0  0
  4  6  1  0  0  0  0
  4 31  1  0  0  0  0
  6  7  1  0  0  0  0
  7  9  1  6  0  0  0
  7 30  1  0  0  0  0
  8 26  1  0  0  0  0
 10  9  1  1  0  0  0
 10 13  1  0  0  0  0
 10 21  1  0  0  0  0
 13 12  1  6  0  0  0
 13 15  1  0  0  0  0
 15  2  1  6  0  0  0
 15 17  1  0  0  0  0
 16 25  1  0  0  0  0
 16 23  1  0  0  0  0
 17 19  1  0  0  0  0
 19  5  1  1  0  0  0
 19 21  1  0  0  0  0
 21 14  1  1  0  0  0
 23 14  1  1  0  0  0
 23 29  1  0  0  0  0
 25 26  1  6  0  0  0
 25 27  1  0  0  0  0
 27 18  1  1  0  0  0
 27 28  1  0  0  0  0
 28 20  1  1  0  0  0
 28 29  1  0  0  0  0
 29 11  1  1  0  0  0
 30 22  1  1  0  0  0
 30 31  1  0  0  0  0
 31 24  1  1  0  0  0
M  END
>  <CHROM.1>
70.89661661,-57.58983475,70.16599596,66.94947266,-64.19908850,-51.63964846
39.10633237,27.24221154,4.67305722,-0.08722443,-0.37610999,2.27517158

>  <Name>
ligand

>  <RI>
0

>  <Rbt.Current_Directory>
/home/itssahil/PROJECTS/Mol_Feturizer/New_Systems/rnas/2ET5

>  <Rbt.Executable>
rbdock ($Id: //depot/dev/client3/rdock/2013.1/src/exe/rbdock.cxx#4 $)

>  <Rbt.Library>
libRbt.so (2013.1, Build901 2013/11/27)

>  <Rbt.Parameter_File>
/export/apps/rDock/src/rDock_2013.1_src/data/scripts/dock_solv.prm

>  <Rbt.Receptor>
prm/pocket_docking_6.prm

>  <SCORE>
-8.00257

>  <SCORE.INTER>
-3.21353

>  <SCORE.INTER.CONST>
1

>  <SCORE.INTER.POLAR>
0

>  <SCORE.INTER.ROT>
6

>  <SCORE.INTER.SOLV>
8.60195

>  <SCORE.INTER.VDW>
-12.6097

>  <SCORE.INTER.norm>
-0.103662

>  <SCORE.INTRA>
-4.78904

>  <SCORE.INTRA.DIHEDRAL>
-9.57687

>  <SCORE.INTRA.DIHEDRAL.0>
11.2357

>  <SCORE.INTRA.POLAR>
0

>  <SCORE.INTRA.POLAR.0>
0

>  <SCORE.INTRA.REPUL>
0

>  <SCORE.INTRA.REPUL.0>
0

>  <SCORE.INTRA.SOLV>
-1.49994

>  <SCORE.INTRA.SOLV.lig_0>
-83.3092

>  <SCORE.INTRA.VDW>
0.749365

>  <SCORE.INTRA.VDW.0>
-4.47057

>  <SCORE.INTRA.norm>
-0.154485

>  <SCORE.RESTR>
0

>  <SCORE.RESTR.CAVITY>
0

>  <SCORE.RESTR.norm>
0

>  <SCORE.SYSTEM>
0

>  <SCORE.SYSTEM.CONST>
0

>  <SCORE.SYSTEM.DIHEDRAL>
0

>  <SCORE.SYSTEM.SOLV>
0

>  <SCORE.SYSTEM.norm>
0

>  <SCORE.heavy>
31

>  <SCORE.norm>
-0.258147

>  <RMSD>
8.016

$$$$
ligand
 OpenBabel11021811433D
libRbt.so/2013.1/901 2013/11/27
 31 33  0  0  0  0  0  0  0  0999 V2000
   45.9485   28.4405    4.9032 C   0  0  0  0  0  0  0  0  0  0  0  0
   44.0253   22.8627    2.5470 N   0  0  0  0  0  0  0  0  0  0  0  0
   46.4006   27.5711    3.8546 O   0  0  0  0  0  0  0  0  0  0  0  0
   44.4821   28.7035    4.5707 C   0  0  1  0  0  0  0  0  0  0  0  0
   39.1714   23.8230    3.6630 N   0  0  0  0  0  0  0  0  0  0  0  0
   43.6088   27.4633    4.5141 O   0  0  0  0  0  0  0  0  0  0  0  0
   42.7609   27.3382    5.5900 C   0  0  1  0  0  0  0  0  0  0  0  0
   39.6853   28.5967    3.2017 N   0  0  0  0  0  0  0  0  0  0  0  0
   42.7205   26.1052    6.2530 O   0  0  0  0  0  0  0  0  0  0  0  0
   42.3375   24.8193    5.5780 C   0  0  2  0  0  0  0  0  0  0  0  0
   38.5889   25.1777    8.5695 N   0  0  0  0  0  0  0  0  0  0  0  0
   44.7270   24.4043    5.0218 O   0  0  0  0  0  0  0  0  0  0  0  0
   43.3727   24.5336    4.4501 C   0  0  1  0  0  0  0  0  0  0  0  0
   39.9763   25.1604    5.9516 O   0  0  0  0  0  0  0  0  0  0  0  0
   42.9987   23.1689    3.6819 C   0  0  1  0  0  0  0  0  0  0  0  0
   39.7047   27.5226    5.8446 O   0  0  0  0  0  0  0  0  0  0  0  0
   41.5368   23.3396    3.0786 C   0  0  0  0  0  0  0  0  0  0  0  0
   36.0559   27.5537    5.0989 O   0  0  0  0  0  0  0  0  0  0  0  0
   40.5360   23.6604    4.2652 C   0  0  1  0  0  0  0  0  0  0  0  0
   36.0362   26.3595    7.6927 O   0  0  0  0  0  0  0  0  0  0  0  0
   40.8827   24.9488    4.9407 C   0  0  2  0  0  0  0  0  0  0  0  0
   41.9242   28.9053    7.1818 O   0  0  0  0  0  0  0  0  0  0  0  0
   39.8171   26.3452    6.7735 C   0  0  1  0  0  0  0  0  0  0  0  0
   42.5678   30.2563    4.8532 O   0  0  0  0  0  0  0  0  0  0  0  0
   38.4685   27.5472    4.9560 C   0  0  2  0  0  0  0  0  0  0  0  0
   38.5068   28.7757    4.0545 C   0  0  0  0  0  0  0  0  0  0  0  0
   37.2244   27.5513    5.8740 C   0  0  2  0  0  0  0  0  0  0  0  0
   37.2278   26.3416    6.7937 C   0  0  1  0  0  0  0  0  0  0  0  0
   38.5228   26.3627    7.6268 C   0  0  1  0  0  0  0  0  0  0  0  0
   43.0579   28.5284    6.4875 C   0  0  2  0  0  0  0  0  0  0  0  0
   43.6771   29.5927    5.5255 C   0  0  1  0  0  0  0  0  0  0  0  0
  1  3  1  0  0  0  0
  4  1  1  1  0  0  0
  4  6  1  0  0  0  0
  4 31  1  0  0  0  0
  6  7  1  0  0  0  0
  7  9  1  1  0  0  0
  7 30  1  0  0  0  0
  8 26  1  0  0  0  0
 10  9  1  6  0  0  0
 10 13  1  0  0  0  0
 10 21  1  0  0  0  0
 13 12  1  1  0  0  0
 13 15  1  0  0  0  0
 15  2  1  6  0  0  0
 15 17  1  0  0  0  0
 16 25  1  0  0  0  0
 16 23  1  0  0  0  0
 17 19  1  0  0  0  0
 19  5  1  6  0  0  0
 19 21  1  0  0  0  0
 21 14  1  1  0  0  0
 23 14  1  6  0  0  0
 23 29  1  0  0  0  0
 25 26  1  1  0  0  0
 25 27  1  0  0  0  0
 27 18  1  6  0  0  0
 27 28  1  0  0  0  0
 28 20  1  1  0  0  0
 28 29  1  0  0  0  0
 29 11  1  1  0  0  0
 30 22  1  6  0  0  0
 30 31  1  0  0  0  0
 31 24  1  6  0  0  0
M  END
>  <CHROM.1>
59.59183037,-59.67771700,62.06295803,51.60354350,69.87156378,63.49271200
41.19047897,26.54030449,5.27936510,-0.06782935,0.24102824,0.24910008

>  <Name>
ligand

>  <RI>
0

>  <Rbt.Current_Directory>
/home/itssahil/PROJECTS/Mol_Feturizer/New_Systems/rnas/2ET5

>  <Rbt.Executable>
rbdock ($Id: //depot/dev/client3/rdock/2013.1/src/exe/rbdock.cxx#4 $)

>  <Rbt.Library>
libRbt.so (2013.1, Build901 2013/11/27)

>  <Rbt.Parameter_File>
/export/apps/rDock/src/rDock_2013.1_src/data/scripts/dock_solv.prm

>  <Rbt.Receptor>
prm/pocket_docking_8.prm

>  <SCORE>
-9.71899

>  <SCORE.INTER>
-3.43809

>  <SCORE.INTER.CONST>
1

>  <SCORE.INTER.POLAR>
0

>  <SCORE.INTER.ROT>
6

>  <SCORE.INTER.SOLV>
13.0822

>  <SCORE.INTER.VDW>
-14.2528

>  <SCORE.INTER.norm>
-0.110906

>  <SCORE.INTRA>
-6.2809

>  <SCORE.INTRA.DIHEDRAL>
-10.2189

>  <SCORE.INTRA.DIHEDRAL.0>
11.2357

>  <SCORE.INTRA.POLAR>
0

>  <SCORE.INTRA.POLAR.0>
0

>  <SCORE.INTRA.REPUL>
0

>  <SCORE.INTRA.REPUL.0>
0

>  <SCORE.INTRA.SOLV>
-2.23662

>  <SCORE.INTRA.SOLV.lig_0>
-83.3092

>  <SCORE.INTRA.VDW>
-0.0531231

>  <SCORE.INTRA.VDW.0>
-4.47057

>  <SCORE.INTRA.norm>
-0.20261

>  <SCORE.RESTR>
0

>  <SCORE.RESTR.CAVITY>
0

>  <SCORE.RESTR.norm>
0

>  <SCORE.SYSTEM>
0

>  <SCORE.SYSTEM.CONST>
0

>  <SCORE.SYSTEM.DIHEDRAL>
0

>  <SCORE.SYSTEM.SOLV>
0

>  <SCORE.SYSTEM.norm>
0

>  <SCORE.heavy>
31

>  <SCORE.norm>
-0.313516

>  <RMSD>
8.025

$$$$
ligand
 OpenBabel11021811433D
libRbt.so/2013.1/901 2013/11/27
 31 33  0  0  0  0  0  0  0  0999 V2000
   39.0143   23.3664    3.7410 C   0  0  0  0  0  0  0  0  0  0  0  0
   42.3312   25.5218    6.9060 N   0  0  0  0  0  0  0  0  0  0  0  0
   38.9572   22.0070    4.1975 O   0  0  0  0  0  0  0  0  0  0  0  0
   39.5579   23.2652    2.3182 C   0  0  1  0  0  0  0  0  0  0  0  0
   37.9285   27.3094    5.1314 N   0  0  0  0  0  0  0  0  0  0  0  0
   39.8012   24.5973    1.6323 O   0  0  0  0  0  0  0  0  0  0  0  0
   41.1329   24.9223    1.5187 C   0  0  1  0  0  0  0  0  0  0  0  0
   35.3010   25.3811    3.1018 N   0  0  0  0  0  0  0  0  0  0  0  0
   41.5319   26.2030    1.9213 O   0  0  0  0  0  0  0  0  0  0  0  0
   41.2409   26.7662    3.2830 C   0  0  2  0  0  0  0  0  0  0  0  0
   39.5573   29.3028    0.2440 N   0  0  0  0  0  0  0  0  0  0  0  0
   43.3945   25.8428    4.1204 O   0  0  0  0  0  0  0  0  0  0  0  0
   41.9358   25.8616    4.3432 C   0  0  1  0  0  0  0  0  0  0  0  0
   39.0756   27.6108    2.6279 O   0  0  0  0  0  0  0  0  0  0  0  0
   41.6422   26.4141    5.8268 C   0  0  1  0  0  0  0  0  0  0  0  0
   37.3113   26.5329    1.4487 O   0  0  0  0  0  0  0  0  0  0  0  0
   40.0654   26.4223    6.0357 C   0  0  0  0  0  0  0  0  0  0  0  0
   34.8450   29.3182    1.6225 O   0  0  0  0  0  0  0  0  0  0  0  0
   39.4126   27.3293    4.9114 C   0  0  1  0  0  0  0  0  0  0  0  0
   36.8930   30.5474    0.0576 O   0  0  0  0  0  0  0  0  0  0  0  0
   39.6693   26.7776    3.5453 C   0  0  2  0  0  0  0  0  0  0  0  0
   43.1289   23.6185    1.5940 O   0  0  0  0  0  0  0  0  0  0  0  0
   38.6069   27.2807    1.2952 C   0  0  1  0  0  0  0  0  0  0  0  0
   41.0364   22.0001    0.7790 O   0  0  0  0  0  0  0  0  0  0  0  0
   36.1545   27.3296    2.0366 C   0  0  2  0  0  0  0  0  0  0  0  0
   34.9244   26.4377    2.1583 C   0  0  0  0  0  0  0  0  0  0  0  0
   35.8929   28.5398    1.1105 C   0  0  2  0  0  0  0  0  0  0  0  0
   37.1432   29.3916    0.9686 C   0  0  1  0  0  0  0  0  0  0  0  0
   38.2761   28.5102    0.4106 C   0  0  1  0  0  0  0  0  0  0  0  0
   41.8912   23.7859    2.1851 C   0  0  2  0  0  0  0  0  0  0  0  0
   40.9099   22.5721    2.1130 C   0  0  1  0  0  0  0  0  0  0  0  0
  1  3  1  0  0  0  0
  4  1  1  1  0  0  0
  4  6  1  0  0  0  0
  4 31  1  0  0  0  0
  6  7  1  0  0  0  0
  7  9  1  1  0  0  0
  7 30  1  0  0  0  0
  8 26  1  0  0  0  0
 10  9  1  6  0  0  0
 10 13  1  0  0  0  0
 10 21  1  0  0  0  0
 13 12  1  6  0  0  0
 13 15  1  0  0  0  0
 15  2  1  1  0  0  0
 15 17  1  0  0  0  0
 16 25  1  0  0  0  0
 16 23  1  0  0  0  0
 17 19  1  0  0  0  0
 19  5  1  1  0  0  0
 19 21  1  0  0  0  0
 21 14  1  6  0  0  0
 23 14  1  1  0  0  0
 23 29  1  0  0  0  0
 25 26  1  6  0  0  0
 25 27  1  0  0  0  0
 27 18  1  1  0  0  0
 27 28  1  0  0  0  0
 28 20  1  6  0  0  0
 28 29  1  0  0  0  0
 29 11  1  1  0  0  0
 30 22  1  6  0  0  0
 30 31  1  0  0  0  0
 31 24  1  6  0  0  0
M  END
>  <CHROM.1>
-176.20845900,54.36799847,61.41855387,76.12756054,87.59686054,62.88224383
39.31433227,26.13307421,2.65647584,0.47582097,0.61120498,-2.74281338

>  <Name>
ligand

>  <RI>
0

>  <Rbt.Current_Directory>
/home/itssahil/PROJECTS/Mol_Feturizer/New_Systems/rnas/2ET5

>  <Rbt.Executable>
rbdock ($Id: //depot/dev/client3/rdock/2013.1/src/exe/rbdock.cxx#4 $)

>  <Rbt.Library>
libRbt.so (2013.1, Build901 2013/11/27)

>  <Rbt.Parameter_File>
/export/apps/rDock/src/rDock_2013.1_src/data/scripts/dock_solv.prm

>  <Rbt.Receptor>
prm/pocket_docking_7.prm

>  <SCORE>
-4.03537

>  <SCORE.INTER>
-0.0204076

>  <SCORE.INTER.CONST>
1

>  <SCORE.INTER.POLAR>
0

>  <SCORE.INTER.ROT>
6

>  <SCORE.INTER.SOLV>
12.0762

>  <SCORE.INTER.VDW>
-11.639

>  <SCORE.INTER.norm>
-0.000658309

>  <SCORE.INTRA>
-4.01496

>  <SCORE.INTRA.DIHEDRAL>
-6.51452

>  <SCORE.INTRA.DIHEDRAL.0>
11.2357

>  <SCORE.INTRA.POLAR>
0

>  <SCORE.INTRA.POLAR.0>
0

>  <SCORE.INTRA.REPUL>
0.00881861

>  <SCORE.INTRA.REPUL.0>
0

>  <SCORE.INTRA.SOLV>
-0.740721

>  <SCORE.INTRA.SOLV.lig_0>
-83.3092

>  <SCORE.INTRA.VDW>
-0.431436

>  <SCORE.INTRA.VDW.0>
-4.47057

>  <SCORE.INTRA.norm>
-0.129515

>  <SCORE.RESTR>
0

>  <SCORE.RESTR.CAVITY>
0

>  <SCORE.RESTR.norm>
0

>  <SCORE.SYSTEM>
0

>  <SCORE.SYSTEM.CONST>
0

>  <SCORE.SYSTEM.DIHEDRAL>
0

>  <SCORE.SYSTEM.SOLV>
0

>  <SCORE.SYSTEM.norm>
0

>  <SCORE.heavy>
31

>  <SCORE.norm>
-0.130173

>  <RMSD>
8.028

$$$$
ligand
 OpenBabel11021811433D
libRbt.so/2013.1/901 2013/11/27
 31 33  0  0  0  0  0  0  0  0999 V2000
   42.2670   16.8869    1.1255 C   0  0  0  0  0  0  0  0  0  0  0  0
   47.2651   14.9840   -5.3673 N   0  0  0  0  0  0  0  0  0  0  0  0
   43.1522   15.8114    1.4710 O   0  0  0  0  0  0  0  0  0  0  0  0
   43.1741   18.1119    1.0432 C   0  0  1  0  0  0  0  0  0  0  0  0
   48.9153   16.1429   -0.7130 N   0  0  0  0  0  0  0  0  0  0  0  0
   44.3832   17.9503    0.1398 O   0  0  0  0  0  0  0  0  0  0  0  0
   44.2812   18.6423   -1.0446 C   0  0  1  0  0  0  0  0  0  0  0  0
   44.9643   21.6791    2.6316 N   0  0  0  0  0  0  0  0  0  0  0  0
   44.5655   17.9555   -2.2316 O   0  0  0  0  0  0  0  0  0  0  0  0
   45.9595   17.6036   -2.6659 C   0  0  2  0  0  0  0  0  0  0  0  0
   47.1457   15.6633    1.2819 N   0  0  0  0  0  0  0  0  0  0  0  0
   45.1020   17.0136   -4.9260 O   0  0  0  0  0  0  0  0  0  0  0  0
   45.8645   16.5077   -3.7684 C   0  0  1  0  0  0  0  0  0  0  0  0
   46.9005   18.0302   -0.4834 O   0  0  0  0  0  0  0  0  0  0  0  0
   47.3373   16.0817   -4.2603 C   0  0  1  0  0  0  0  0  0  0  0  0
   47.6228   19.3967    1.3266 O   0  0  0  0  0  0  0  0  0  0  0  0
   48.1323   15.5420   -2.9926 C   0  0  0  0  0  0  0  0  0  0  0  0
   44.4831   19.2473    3.3244 O   0  0  0  0  0  0  0  0  0  0  0  0
   48.1675   16.6854   -1.8953 C   0  0  1  0  0  0  0  0  0  0  0  0
   45.2558   16.4988    3.3824 O   0  0  0  0  0  0  0  0  0  0  0  0
   46.7912   17.0394   -1.4293 C   0  0  2  0  0  0  0  0  0  0  0  0
   42.9417   20.4943   -1.7266 O   0  0  0  0  0  0  0  0  0  0  0  0
   47.6788   18.0128    0.7409 C   0  0  1  0  0  0  0  0  0  0  0  0
   43.2654   20.5912    1.0207 O   0  0  0  0  0  0  0  0  0  0  0  0
   46.2500   19.8611    1.7939 C   0  0  2  0  0  0  0  0  0  0  0  0
   46.3438   21.2836    2.3333 C   0  0  0  0  0  0  0  0  0  0  0  0
   45.7573   18.8718    2.8752 C   0  0  2  0  0  0  0  0  0  0  0  0
   45.7122   17.4541    2.3299 C   0  0  1  0  0  0  0  0  0  0  0  0
   47.1213   17.0722    1.8400 C   0  0  1  0  0  0  0  0  0  0  0  0
   42.9167   19.3112   -1.0132 C   0  0  2  0  0  0  0  0  0  0  0  0
   42.5729   19.4165    0.5073 C   0  0  1  0  0  0  0  0  0  0  0  0
  1  3  1  0  0  0  0
  4  1  1  6  0  0  0
  4  6  1  0  0  0  0
  4 31  1  0  0  0  0
  6  7  1  0  0  0  0
  7  9  1  6  0  0  0
  7 30  1  0  0  0  0
  8 26  1  0  0  0  0
 10  9  1  1  0  0  0
 10 13  1  0  0  0  0
 10 21  1  0  0  0  0
 13 12  1  6  0  0  0
 13 15  1  0  0  0  0
 15  2  1  6  0  0  0
 15 17  1  0  0  0  0
 16 25  1  0  0  0  0
 16 23  1  0  0  0  0
 17 19  1  0  0  0  0
 19  5  1  1  0  0  0
 19 21  1  0  0  0  0
 21 14  1  1  0  0  0
 23 14  1  6  0  0  0
 23 29  1  0  0  0  0
 25 26  1  1  0  0  0
 25 27  1  0  0  0  0
 27 18  1  6  0  0  0
 27 28  1  0  0  0  0
 28 20  1  1  0  0  0
 28 29  1  0  0  0  0
 29 11  1  6  0  0  0
 30 22  1  1  0  0  0
 30 31  1  0  0  0  0
 31 24  1  1  0  0  0
M  END
>  <CHROM.1>
52.76580043,-74.75055693,163.37837889,172.05272420,-173.38738011,174.68069979
45.51798378,17.94787554,-0.15317339,1.96863316,-0.49922176,1.26908145

>  <Name>
ligand

>  <RI>
0

>  <Rbt.Current_Directory>
/home/itssahil/PROJECTS/Mol_Feturizer/New_Systems/rnas/2ET5

>  <Rbt.Executable>
rbdock ($Id: //depot/dev/client3/rdock/2013.1/src/exe/rbdock.cxx#4 $)

>  <Rbt.Library>
libRbt.so (2013.1, Build901 2013/11/27)

>  <Rbt.Parameter_File>
/export/apps/rDock/src/rDock_2013.1_src/data/scripts/dock_solv.prm

>  <Rbt.Receptor>
prm/blind_docking_60.prm

>  <SCORE>
20.1783

>  <SCORE.INTER>
3.18877

>  <SCORE.INTER.CONST>
1

>  <SCORE.INTER.POLAR>
0

>  <SCORE.INTER.ROT>
6

>  <SCORE.INTER.SOLV>
20.3119

>  <SCORE.INTER.VDW>
-12.2448

>  <SCORE.INTER.norm>
0.102863

>  <SCORE.INTRA>
1.64864

>  <SCORE.INTRA.DIHEDRAL>
-8.01527

>  <SCORE.INTRA.DIHEDRAL.0>
11.2357

>  <SCORE.INTRA.POLAR>
0

>  <SCORE.INTRA.POLAR.0>
0

>  <SCORE.INTRA.REPUL>
0

>  <SCORE.INTRA.REPUL.0>
0

>  <SCORE.INTRA.SOLV>
7.14006

>  <SCORE.INTRA.SOLV.lig_0>
-83.3092

>  <SCORE.INTRA.VDW>
2.08624

>  <SCORE.INTRA.VDW.0>
-4.47057

>  <SCORE.INTRA.norm>
0.0531818

>  <SCORE.RESTR>
15.3409

>  <SCORE.RESTR.CAVITY>
15.3409

>  <SCORE.RESTR.norm>
0.494867

>  <SCORE.SYSTEM>
0

>  <SCORE.SYSTEM.CONST>
0

>  <SCORE.SYSTEM.DIHEDRAL>
0

>  <SCORE.SYSTEM.SOLV>
0

>  <SCORE.SYSTEM.norm>
0

>  <SCORE.heavy>
31

>  <SCORE.norm>
0.650913

>  <RMSD>
8.129

$$$$
ligand
 OpenBabel11021811433D
libRbt.so/2013.1/901 2013/11/27
 31 33  0  0  0  0  0  0  0  0999 V2000
   42.4585   27.9868    6.7658 C   0  0  0  0  0  0  0  0  0  0  0  0
   39.8565   30.0331   -1.2621 N   0  0  0  0  0  0  0  0  0  0  0  0
   42.9314   29.2183    7.3312 O   0  0  0  0  0  0  0  0  0  0  0  0
   40.9408   28.0622    6.9105 C   0  0  1  0  0  0  0  0  0  0  0  0
   35.5342   29.4018    1.3162 N   0  0  0  0  0  0  0  0  0  0  0  0
   40.2787   29.1720    6.1142 O   0  0  0  0  0  0  0  0  0  0  0  0
   39.5895   28.7223    5.0120 C   0  0  1  0  0  0  0  0  0  0  0  0
   34.6642   25.6160    1.4063 N   0  0  0  0  0  0  0  0  0  0  0  0
   39.8243   29.3593    3.7871 O   0  0  0  0  0  0  0  0  0  0  0  0
   39.1492   28.9575    2.5070 C   0  0  2  0  0  0  0  0  0  0  0  0
   36.2531   29.5458    6.2995 N   0  0  0  0  0  0  0  0  0  0  0  0
   41.2822   29.3121    1.2757 O   0  0  0  0  0  0  0  0  0  0  0  0
   39.8576   29.6926    1.3309 C   0  0  1  0  0  0  0  0  0  0  0  0
   36.9931   28.6905    3.5610 O   0  0  0  0  0  0  0  0  0  0  0  0
   39.1606   29.3074   -0.0686 C   0  0  1  0  0  0  0  0  0  0  0  0
   34.8052   27.7901    3.3013 O   0  0  0  0  0  0  0  0  0  0  0  0
   37.6295   29.7290    0.0225 C   0  0  0  0  0  0  0  0  0  0  0  0
   35.2495   24.8086    5.4885 O   0  0  0  0  0  0  0  0  0  0  0  0
   36.9720   28.9774    1.2536 C   0  0  1  0  0  0  0  0  0  0  0  0
   35.5749   26.9002    7.4052 O   0  0  0  0  0  0  0  0  0  0  0  0
   37.6124   29.3771    2.5446 C   0  0  2  0  0  0  0  0  0  0  0  0
   38.6961   26.5911    4.4208 O   0  0  0  0  0  0  0  0  0  0  0  0
   35.6245   28.8240    4.0234 C   0  0  1  0  0  0  0  0  0  0  0  0
   38.8450   26.7618    7.1796 O   0  0  0  0  0  0  0  0  0  0  0  0
   35.1405   26.3398    3.6219 C   0  0  2  0  0  0  0  0  0  0  0  0
   34.2541   25.4124    2.7986 C   0  0  0  0  0  0  0  0  0  0  0  0
   34.9330   26.1293    5.1395 C   0  0  2  0  0  0  0  0  0  0  0  0
   35.7930   27.0922    5.9410 C   0  0  1  0  0  0  0  0  0  0  0  0
   35.4278   28.5315    5.5331 C   0  0  1  0  0  0  0  0  0  0  0  0
   39.7898   27.2157    4.9891 C   0  0  2  0  0  0  0  0  0  0  0  0
   40.1159   26.8466    6.4719 C   0  0  1  0  0  0  0  0  0  0  0  0
  1  3  1  0  0  0  0
  4  1  1  6  0  0  0
  4  6  1  0  0  0  0
  4 31  1  0  0  0  0
  6  7  1  0  0  0  0
  7  9  1  6  0  0  0
  7 30  1  0  0  0  0
  8 26  1  0  0  0  0
 10  9  1  1  0  0  0
 10 13  1  0  0  0  0
 10 21  1  0  0  0  0
 13 12  1  6  0  0  0
 13 15  1  0  0  0  0
 15  2  1  6  0  0  0
 15 17  1  0  0  0  0
 16 25  1  0  0  0  0
 16 23  1  0  0  0  0
 17 19  1  0  0  0  0
 19  5  1  1  0  0  0
 19 21  1  0  0  0  0
 21 14  1  1  0  0  0
 23 14  1  6  0  0  0
 23 29  1  0  0  0  0
 25 26  1  6  0  0  0
 25 27  1  0  0  0  0
 27 18  1  1  0  0  0
 27 28  1  0  0  0  0
 28 20  1  1  0  0  0
 28 29  1  0  0  0  0
 29 11  1  1  0  0  0
 30 22  1  1  0  0  0
 30 31  1  0  0  0  0
 31 24  1  1  0  0  0
M  END
>  <CHROM.1>
64.31051707,179.35144185,-169.09508885,93.87321850,175.29976914,66.59471880
37.93666796,28.06545522,3.99609468,0.29644035,0.34676738,1.89041884

>  <Name>
ligand

>  <RI>
0

>  <Rbt.Current_Directory>
/home/itssahil/PROJECTS/Mol_Feturizer/New_Systems/rnas/2ET5

>  <Rbt.Executable>
rbdock ($Id: //depot/dev/client3/rdock/2013.1/src/exe/rbdock.cxx#4 $)

>  <Rbt.Library>
libRbt.so (2013.1, Build901 2013/11/27)

>  <Rbt.Parameter_File>
/export/apps/rDock/src/rDock_2013.1_src/data/scripts/dock_solv.prm

>  <Rbt.Receptor>
prm/pocket_docking_8.prm

>  <SCORE>
-6.86146

>  <SCORE.INTER>
-4.5921

>  <SCORE.INTER.CONST>
1

>  <SCORE.INTER.POLAR>
0

>  <SCORE.INTER.ROT>
6

>  <SCORE.INTER.SOLV>
13.689

>  <SCORE.INTER.VDW>
-15.2244

>  <SCORE.INTER.norm>
-0.148132

>  <SCORE.INTRA>
-2.26935

>  <SCORE.INTRA.DIHEDRAL>
-5.90351

>  <SCORE.INTRA.DIHEDRAL.0>
11.2357

>  <SCORE.INTRA.POLAR>
0

>  <SCORE.INTRA.POLAR.0>
0

>  <SCORE.INTRA.REPUL>
0

>  <SCORE.INTRA.REPUL.0>
0

>  <SCORE.INTRA.SOLV>
1.19475

>  <SCORE.INTRA.SOLV.lig_0>
-83.3092

>  <SCORE.INTRA.VDW>
0.0850283

>  <SCORE.INTRA.VDW.0>
-4.47057

>  <SCORE.INTRA.norm>
-0.0732049

>  <SCORE.RESTR>
0

>  <SCORE.RESTR.CAVITY>
0

>  <SCORE.RESTR.norm>
0

>  <SCORE.SYSTEM>
0

>  <SCORE.SYSTEM.CONST>
0

>  <SCORE.SYSTEM.DIHEDRAL>
0

>  <SCORE.SYSTEM.SOLV>
0

>  <SCORE.SYSTEM.norm>
0

>  <SCORE.heavy>
31

>  <SCORE.norm>
-0.221337

>  <RMSD>
8.147

$$$$
ligand
 OpenBabel11021811433D
libRbt.so/2013.1/901 2013/11/27
 31 33  0  0  0  0  0  0  0  0999 V2000
   33.2861   23.7448    4.5410 C   0  0  0  0  0  0  0  0  0  0  0  0
   35.1438   31.0616    7.7098 N   0  0  0  0  0  0  0  0  0  0  0  0
   34.6859   23.5470    4.7879 O   0  0  0  0  0  0  0  0  0  0  0  0
   33.1987   25.1572    3.9686 C   0  0  1  0  0  0  0  0  0  0  0  0
   38.2218   31.0138    3.6784 N   0  0  0  0  0  0  0  0  0  0  0  0
   33.8521   26.2314    4.8190 O   0  0  0  0  0  0  0  0  0  0  0  0
   35.0375   26.6982    4.3003 C   0  0  1  0  0  0  0  0  0  0  0  0
   40.4993   25.7456    7.4309 N   0  0  0  0  0  0  0  0  0  0  0  0
   36.1444   26.7694    5.1553 O   0  0  0  0  0  0  0  0  0  0  0  0
   36.7394   28.0656    5.6262 C   0  0  2  0  0  0  0  0  0  0  0  0
   40.4274   27.7426    1.8171 N   0  0  0  0  0  0  0  0  0  0  0  0
   35.1878   28.0663    7.5715 O   0  0  0  0  0  0  0  0  0  0  0  0
   35.6435   28.8497    6.4070 C   0  0  1  0  0  0  0  0  0  0  0  0
   38.2155   28.2440    3.7235 O   0  0  0  0  0  0  0  0  0  0  0  0
   36.2266   30.2592    6.9228 C   0  0  1  0  0  0  0  0  0  0  0  0
   39.6129   27.4536    5.4806 O   0  0  0  0  0  0  0  0  0  0  0  0
   36.7084   31.0783    5.6472 C   0  0  0  0  0  0  0  0  0  0  0  0
   39.4601   23.8322    4.6242 O   0  0  0  0  0  0  0  0  0  0  0  0
   37.7951   30.2187    4.8772 C   0  0  1  0  0  0  0  0  0  0  0  0
   40.7555   24.8533    2.2932 O   0  0  0  0  0  0  0  0  0  0  0  0
   37.2215   28.9309    4.3781 C   0  0  2  0  0  0  0  0  0  0  0  0
   35.9732   26.6527    2.1067 O   0  0  0  0  0  0  0  0  0  0  0  0
   39.6030   28.0907    4.1185 C   0  0  1  0  0  0  0  0  0  0  0  0
   33.2154   26.5312    1.9028 O   0  0  0  0  0  0  0  0  0  0  0  0
   39.0729   26.0315    5.5485 C   0  0  2  0  0  0  0  0  0  0  0  0
   39.1187   25.5316    6.9878 C   0  0  0  0  0  0  0  0  0  0  0  0
   39.9327   25.1524    4.6112 C   0  0  2  0  0  0  0  0  0  0  0  0
   39.9080   25.6924    3.1911 C   0  0  1  0  0  0  0  0  0  0  0  0
   40.4260   27.1425    3.2090 C   0  0  1  0  0  0  0  0  0  0  0  0
   35.2721   25.8992    3.0286 C   0  0  2  0  0  0  0  0  0  0  0  0
   33.8464   25.4209    2.6043 C   0  0  1  0  0  0  0  0  0  0  0  0
  1  3  1  0  0  0  0
  4  1  1  1  0  0  0
  4  6  1  0  0  0  0
  4 31  1  0  0  0  0
  6  7  1  0  0  0  0
  7  9  1  1  0  0  0
  7 30  1  0  0  0  0
  8 26  1  0  0  0  0
 10  9  1  6  0  0  0
 10 13  1  0  0  0  0
 10 21  1  0  0  0  0
 13 12  1  1  0  0  0
 13 15  1  0  0  0  0
 15  2  1  6  0  0  0
 15 17  1  0  0  0  0
 16 25  1  0  0  0  0
 16 23  1  0  0  0  0
 17 19  1  0  0  0  0
 19  5  1  6  0  0  0
 19 21  1  0  0  0  0
 21 14  1  1  0  0  0
 23 14  1  6  0  0  0
 23 29  1  0  0  0  0
 25 26  1  1  0  0  0
 25 27  1  0  0  0  0
 27 18  1  6  0  0  0
 27 28  1  0  0  0  0
 28 20  1  6  0  0  0
 28 29  1  0  0  0  0
 29 11  1  6  0  0  0
 30 22  1  6  0  0  0
 30 31  1  0  0  0  0
 31 24  1  1  0  0  0
M  END
>  <CHROM.1>
-53.51126225,-110.54627907,60.08623714,58.08483353,-76.18373227,-52.95151726
37.09165236,27.04264495,4.60265596,-3.07101700,0.04598987,0.43992681

>  <Name>
ligand

>  <RI>
0

>  <Rbt.Current_Directory>
/home/itssahil/PROJECTS/Mol_Feturizer/New_Systems/rnas/2ET5

>  <Rbt.Executable>
rbdock ($Id: //depot/dev/client3/rdock/2013.1/src/exe/rbdock.cxx#4 $)

>  <Rbt.Library>
libRbt.so (2013.1, Build901 2013/11/27)

>  <Rbt.Parameter_File>
/export/apps/rDock/src/rDock_2013.1_src/data/scripts/dock_solv.prm

>  <Rbt.Receptor>
prm/pocket_docking_8.prm

>  <SCORE>
-5.56379

>  <SCORE.INTER>
-4.48487

>  <SCORE.INTER.CONST>
1

>  <SCORE.INTER.POLAR>
0

>  <SCORE.INTER.ROT>
6

>  <SCORE.INTER.SOLV>
11.6003

>  <SCORE.INTER.VDW>
-14.4567

>  <SCORE.INTER.norm>
-0.144673

>  <SCORE.INTRA>
-1.07892

>  <SCORE.INTRA.DIHEDRAL>
-2.93716

>  <SCORE.INTRA.DIHEDRAL.0>
11.2357

>  <SCORE.INTRA.POLAR>
0

>  <SCORE.INTRA.POLAR.0>
0

>  <SCORE.INTRA.REPUL>
0

>  <SCORE.INTRA.REPUL.0>
0

>  <SCORE.INTRA.SOLV>
-1.16721

>  <SCORE.INTRA.SOLV.lig_0>
-83.3092

>  <SCORE.INTRA.VDW>
0.973265

>  <SCORE.INTRA.VDW.0>
-4.47057

>  <SCORE.INTRA.norm>
-0.0348038

>  <SCORE.RESTR>
0

>  <SCORE.RESTR.CAVITY>
0

>  <SCORE.RESTR.norm>
0

>  <SCORE.SYSTEM>
0

>  <SCORE.SYSTEM.CONST>
0

>  <SCORE.SYSTEM.DIHEDRAL>
0

>  <SCORE.SYSTEM.SOLV>
0

>  <SCORE.SYSTEM.norm>
0

>  <SCORE.heavy>
31

>  <SCORE.norm>
-0.179477

>  <RMSD>
8.150

$$$$
ligand
 OpenBabel11021811433D
libRbt.so/2013.1/901 2013/11/27
 31 33  0  0  0  0  0  0  0  0999 V2000
   38.4587   30.1798    0.0342 C   0  0  0  0  0  0  0  0  0  0  0  0
   35.6902   25.4090   -0.4199 N   0  0  0  0  0  0  0  0  0  0  0  0
   37.1779   29.8059   -0.4943 O   0  0  0  0  0  0  0  0  0  0  0  0
   38.2292   30.2913    1.5391 C   0  0  1  0  0  0  0  0  0  0  0  0
   35.0828   25.0956    4.6062 N   0  0  0  0  0  0  0  0  0  0  0  0
   37.8765   28.9859    2.2288 O   0  0  0  0  0  0  0  0  0  0  0  0
   38.9005   28.4715    2.9896 C   0  0  1  0  0  0  0  0  0  0  0  0
   35.8127   29.7043    5.8605 N   0  0  0  0  0  0  0  0  0  0  0  0
   39.2311   27.1215    2.8173 O   0  0  0  0  0  0  0  0  0  0  0  0
   38.2073   26.0441    2.6008 C   0  0  2  0  0  0  0  0  0  0  0  0
   39.8115   24.6762    6.7302 N   0  0  0  0  0  0  0  0  0  0  0  0
   38.5123   26.2546    0.1403 O   0  0  0  0  0  0  0  0  0  0  0  0
   37.5163   26.2971    1.2282 C   0  0  1  0  0  0  0  0  0  0  0  0
   37.7324   25.8232    4.9581 O   0  0  0  0  0  0  0  0  0  0  0  0
   36.3951   25.1748    0.9526 C   0  0  1  0  0  0  0  0  0  0  0  0
   38.1314   27.9518    5.9456 O   0  0  0  0  0  0  0  0  0  0  0  0
   35.3389   25.2458    2.1399 C   0  0  0  0  0  0  0  0  0  0  0  0
   36.4740   27.2841    9.2133 O   0  0  0  0  0  0  0  0  0  0  0  0
   36.1033   25.0147    3.5092 C   0  0  1  0  0  0  0  0  0  0  0  0
   38.6010   25.3819    9.3222 O   0  0  0  0  0  0  0  0  0  0  0  0
   37.1144   26.0878    3.7596 C   0  0  2  0  0  0  0  0  0  0  0  0
   40.8510   29.4509    3.9519 O   0  0  0  0  0  0  0  0  0  0  0  0
   38.7436   26.6140    5.6341 C   0  0  1  0  0  0  0  0  0  0  0  0
   38.9284   31.4171    3.6366 O   0  0  0  0  0  0  0  0  0  0  0  0
   36.9797   27.9353    6.9415 C   0  0  2  0  0  0  0  0  0  0  0  0
   36.4455   29.3499    7.1342 C   0  0  0  0  0  0  0  0  0  0  0  0
   37.5072   27.3388    8.2668 C   0  0  2  0  0  0  0  0  0  0  0  0
   38.0740   25.9465    8.0446 C   0  0  1  0  0  0  0  0  0  0  0  0
   39.2005   26.0370    6.9986 C   0  0  1  0  0  0  0  0  0  0  0  0
   40.0643   29.4339    2.8161 C   0  0  2  0  0  0  0  0  0  0  0  0
   39.3917   30.7841    2.4088 C   0  0  1  0  0  0  0  0  0  0  0  0
  1  3  1  0  0  0  0
  4  1  1  6  0  0  0
  4  6  1  0  0  0  0
  4 31  1  0  0  0  0
  6  7  1  0  0  0  0
  7  9  1  6  0  0  0
  7 30  1  0  0  0  0
  8 26  1  0  0  0  0
 10  9  1  1  0  0  0
 10 13  1  0  0  0  0
 10 21  1  0  0  0  0
 13 12  1  6  0  0  0
 13 15  1  0  0  0  0
 15  2  1  6  0  0  0
 15 17  1  0  0  0  0
 16 25  1  0  0  0  0
 16 23  1  0  0  0  0
 17 19  1  0  0  0  0
 19  5  1  1  0  0  0
 19 21  1  0  0  0  0
 21 14  1  1  0  0  0
 23 14  1  1  0  0  0
 23 29  1  0  0  0  0
 25 26  1  1  0  0  0
 25 27  1  0  0  0  0
 27 18  1  1  0  0  0
 27 28  1  0  0  0  0
 28 20  1  1  0  0  0
 28 29  1  0  0  0  0
 29 11  1  6  0  0  0
 30 22  1  1  0  0  0
 30 31  1  0  0  0  0
 31 24  1  1  0  0  0
M  END
>  <CHROM.1>
65.23693357,-38.83381308,65.88215881,61.71483077,64.52324550,68.38901658
37.84249431,27.46811738,4.05140861,-1.52575179,1.14958984,1.77279021

>  <Name>
ligand

>  <RI>
0

>  <Rbt.Current_Directory>
/home/itssahil/PROJECTS/Mol_Feturizer/New_Systems/rnas/2ET5

>  <Rbt.Executable>
rbdock ($Id: //depot/dev/client3/rdock/2013.1/src/exe/rbdock.cxx#4 $)

>  <Rbt.Library>
libRbt.so (2013.1, Build901 2013/11/27)

>  <Rbt.Parameter_File>
/export/apps/rDock/src/rDock_2013.1_src/data/scripts/dock_solv.prm

>  <Rbt.Receptor>
prm/pocket_docking_8.prm

>  <SCORE>
-8.45449

>  <SCORE.INTER>
-3.04208

>  <SCORE.INTER.CONST>
1

>  <SCORE.INTER.POLAR>
0

>  <SCORE.INTER.ROT>
6

>  <SCORE.INTER.SOLV>
17.8349

>  <SCORE.INTER.VDW>
-15.573

>  <SCORE.INTER.norm>
-0.0981318

>  <SCORE.INTRA>
-5.41241

>  <SCORE.INTRA.DIHEDRAL>
-8.51512

>  <SCORE.INTRA.DIHEDRAL.0>
11.2357

>  <SCORE.INTRA.POLAR>
0

>  <SCORE.INTRA.POLAR.0>
0

>  <SCORE.INTRA.REPUL>
0

>  <SCORE.INTRA.REPUL.0>
0

>  <SCORE.INTRA.SOLV>
-3.32959

>  <SCORE.INTRA.SOLV.lig_0>
-83.3092

>  <SCORE.INTRA.VDW>
0.509947

>  <SCORE.INTRA.VDW.0>
-4.47057

>  <SCORE.INTRA.norm>
-0.174594

>  <SCORE.RESTR>
0

>  <SCORE.RESTR.CAVITY>
0

>  <SCORE.RESTR.norm>
0

>  <SCORE.SYSTEM>
0

>  <SCORE.SYSTEM.CONST>
0

>  <SCORE.SYSTEM.DIHEDRAL>
0

>  <SCORE.SYSTEM.SOLV>
0

>  <SCORE.SYSTEM.norm>
0

>  <SCORE.heavy>
31

>  <SCORE.norm>
-0.272726

>  <RMSD>
8.157

$$$$
ligand
 OpenBabel11021811433D
libRbt.so/2013.1/901 2013/11/27
 31 33  0  0  0  0  0  0  0  0999 V2000
   34.5881   27.7481    2.0826 C   0  0  0  0  0  0  0  0  0  0  0  0
   34.7500   28.9956    8.4492 N   0  0  0  0  0  0  0  0  0  0  0  0
   35.1587   26.4951    2.4874 O   0  0  0  0  0  0  0  0  0  0  0  0
   35.7368   28.7454    2.2094 C   0  0  1  0  0  0  0  0  0  0  0  0
   39.5429   30.6084    8.0545 N   0  0  0  0  0  0  0  0  0  0  0  0
   36.3547   28.8339    3.5930 O   0  0  0  0  0  0  0  0  0  0  0  0
   37.5962   28.2480    3.6795 C   0  0  1  0  0  0  0  0  0  0  0  0
   39.6414   23.9218    4.1975 N   0  0  0  0  0  0  0  0  0  0  0  0
   37.8291   27.3585    4.7359 O   0  0  0  0  0  0  0  0  0  0  0  0
   37.7842   27.7659    6.1808 C   0  0  2  0  0  0  0  0  0  0  0  0
   42.9373   29.1338    6.4380 N   0  0  0  0  0  0  0  0  0  0  0  0
   35.4231   26.9930    6.3209 O   0  0  0  0  0  0  0  0  0  0  0  0
   36.3163   28.1482    6.5339 C   0  0  1  0  0  0  0  0  0  0  0  0
   40.0273   28.6593    6.1466 O   0  0  0  0  0  0  0  0  0  0  0  0
   36.2145   28.6088    8.0734 C   0  0  1  0  0  0  0  0  0  0  0  0
   40.3671   26.4188    6.8745 O   0  0  0  0  0  0  0  0  0  0  0  0
   37.1865   29.8525    8.2705 C   0  0  0  0  0  0  0  0  0  0  0  0
   41.9569   25.1373    3.7597 O   0  0  0  0  0  0  0  0  0  0  0  0
   38.6548   29.4138    7.8654 C   0  0  1  0  0  0  0  0  0  0  0  0
   43.8965   27.0730    4.5632 O   0  0  0  0  0  0  0  0  0  0  0  0
   38.7317   29.0238    6.4237 C   0  0  2  0  0  0  0  0  0  0  0  0
   39.2354   27.6808    2.0422 O   0  0  0  0  0  0  0  0  0  0  0  0
   40.9070   27.8208    6.9390 C   0  0  1  0  0  0  0  0  0  0  0  0
   37.6933   29.7663    1.0755 O   0  0  0  0  0  0  0  0  0  0  0  0
   40.4020   25.7600    5.5021 C   0  0  2  0  0  0  0  0  0  0  0  0
   39.7996   24.3624    5.5864 C   0  0  0  0  0  0  0  0  0  0  0  0
   41.8747   25.7196    5.0327 C   0  0  2  0  0  0  0  0  0  0  0  0
   42.4688   27.1178    4.9969 C   0  0  1  0  0  0  0  0  0  0  0  0
   42.3597   27.7329    6.4045 C   0  0  1  0  0  0  0  0  0  0  0  0
   37.8778   27.6770    2.2992 C   0  0  2  0  0  0  0  0  0  0  0  0
   36.9803   28.5236    1.3405 C   0  0  1  0  0  0  0  0  0  0  0  0
  1  3  1  0  0  0  0
  4  1  1  1  0  0  0
  4  6  1  0  0  0  0
  4 31  1  0  0  0  0
  6  7  1  0  0  0  0
  7  9  1  1  0  0  0
  7 30  1  0  0  0  0
  8 26  1  0  0  0  0
 10  9  1  6  0  0  0
 10 13  1  0  0  0  0
 10 21  1  0  0  0  0
 13 12  1  1  0  0  0
 13 15  1  0  0  0  0
 15  2  1  6  0  0  0
 15 17  1  0  0  0  0
 16 25  1  0  0  0  0
 16 23  1  0  0  0  0
 17 19  1  0  0  0  0
 19  5  1  6  0  0  0
 19 21  1  0  0  0  0
 21 14  1  1  0  0  0
 23 14  1  6  0  0  0
 23 29  1  0  0  0  0
 25 26  1  1  0  0  0
 25 27  1  0  0  0  0
 27 18  1  6  0  0  0
 27 28  1  0  0  0  0
 28 20  1  1  0  0  0
 28 29  1  0  0  0  0
 29 11  1  6  0  0  0
 30 22  1  6  0  0  0
 30 31  1  0  0  0  0
 31 24  1  1  0  0  0
M  END
>  <CHROM.1>
-57.51927546,-62.71223430,66.76903634,69.34265694,-73.71375948,169.39332410
38.71817699,27.70313109,5.05467833,-2.93955061,-0.29077903,1.25410398

>  <Name>
ligand

>  <RI>
0

>  <Rbt.Current_Directory>
/home/itssahil/PROJECTS/Mol_Feturizer/New_Systems/rnas/2ET5

>  <Rbt.Executable>
rbdock ($Id: //depot/dev/client3/rdock/2013.1/src/exe/rbdock.cxx#4 $)

>  <Rbt.Library>
libRbt.so (2013.1, Build901 2013/11/27)

>  <Rbt.Parameter_File>
/export/apps/rDock/src/rDock_2013.1_src/data/scripts/dock_solv.prm

>  <Rbt.Receptor>
prm/pocket_docking_8.prm

>  <SCORE>
-6.3084

>  <SCORE.INTER>
-2.0677

>  <SCORE.INTER.CONST>
1

>  <SCORE.INTER.POLAR>
0

>  <SCORE.INTER.ROT>
6

>  <SCORE.INTER.SOLV>
8.83894

>  <SCORE.INTER.VDW>
-11.9248

>  <SCORE.INTER.norm>
-0.0666999

>  <SCORE.INTRA>
-4.2407

>  <SCORE.INTRA.DIHEDRAL>
-9.11221

>  <SCORE.INTRA.DIHEDRAL.0>
11.2357

>  <SCORE.INTRA.POLAR>
0

>  <SCORE.INTRA.POLAR.0>
0

>  <SCORE.INTRA.REPUL>
0

>  <SCORE.INTRA.REPUL.0>
0

>  <SCORE.INTRA.SOLV>
-1.10535

>  <SCORE.INTRA.SOLV.lig_0>
-83.3092

>  <SCORE.INTRA.VDW>
0.868077

>  <SCORE.INTRA.VDW.0>
-4.47057

>  <SCORE.INTRA.norm>
-0.136797

>  <SCORE.RESTR>
0

>  <SCORE.RESTR.CAVITY>
0

>  <SCORE.RESTR.norm>
0

>  <SCORE.SYSTEM>
0

>  <SCORE.SYSTEM.CONST>
0

>  <SCORE.SYSTEM.DIHEDRAL>
0

>  <SCORE.SYSTEM.SOLV>
0

>  <SCORE.SYSTEM.norm>
0

>  <SCORE.heavy>
31

>  <SCORE.norm>
-0.203497

>  <RMSD>
8.165

$$$$
ligand
 OpenBabel11021811433D
libRbt.so/2013.1/901 2013/11/27
 31 33  0  0  0  0  0  0  0  0999 V2000
   42.0560   21.3528   -1.0245 C   0  0  0  0  0  0  0  0  0  0  0  0
   48.3993   17.4370    4.4954 N   0  0  0  0  0  0  0  0  0  0  0  0
   42.9802   20.4666   -1.6727 O   0  0  0  0  0  0  0  0  0  0  0  0
   41.7433   20.6681    0.3034 C   0  0  1  0  0  0  0  0  0  0  0  0
   47.2901   15.1453    0.1083 N   0  0  0  0  0  0  0  0  0  0  0  0
   42.5982   19.4521    0.6107 O   0  0  0  0  0  0  0  0  0  0  0  0
   43.5393   19.6743    1.5891 C   0  0  1  0  0  0  0  0  0  0  0  0
   47.0932   16.3438   -4.8554 N   0  0  0  0  0  0  0  0  0  0  0  0
   44.8584   19.2810    1.3313 O   0  0  0  0  0  0  0  0  0  0  0  0
   45.4606   18.0148    1.8698 C   0  0  2  0  0  0  0  0  0  0  0  0
   42.1537   16.5111   -0.5186 N   0  0  0  0  0  0  0  0  0  0  0  0
   46.0166   19.1872    3.9930 O   0  0  0  0  0  0  0  0  0  0  0  0
   46.5815   18.3995    2.8804 C   0  0  1  0  0  0  0  0  0  0  0  0
   45.0834   16.7950   -0.1798 O   0  0  0  0  0  0  0  0  0  0  0  0
   47.2727   17.0739    3.4784 C   0  0  1  0  0  0  0  0  0  0  0  0
   45.1455   18.0676   -2.1902 O   0  0  0  0  0  0  0  0  0  0  0  0
   47.8704   16.2483    2.2572 C   0  0  0  0  0  0  0  0  0  0  0  0
   44.6319   15.2432   -4.5630 O   0  0  0  0  0  0  0  0  0  0  0  0
   46.6930   15.9153    1.2494 C   0  0  1  0  0  0  0  0  0  0  0  0
   42.1545   15.1746   -3.1446 O   0  0  0  0  0  0  0  0  0  0  0  0
   46.0901   17.1604    0.6812 C   0  0  2  0  0  0  0  0  0  0  0  0
   43.7253   21.3122    3.3131 O   0  0  0  0  0  0  0  0  0  0  0  0
   44.2817   17.6540   -1.0308 C   0  0  1  0  0  0  0  0  0  0  0  0
   41.0527   21.0008    2.6632 O   0  0  0  0  0  0  0  0  0  0  0  0
   45.5712   16.9472   -3.1294 C   0  0  2  0  0  0  0  0  0  0  0  0
   46.4606   17.5098   -4.2321 C   0  0  0  0  0  0  0  0  0  0  0  0
   44.2911   16.2978   -3.7040 C   0  0  2  0  0  0  0  0  0  0  0  0
   43.3989   15.7823   -2.5872 C   0  0  1  0  0  0  0  0  0  0  0  0
   43.0462   16.9592   -1.6587 C   0  0  1  0  0  0  0  0  0  0  0  0
   43.3813   21.1328    1.9869 C   0  0  2  0  0  0  0  0  0  0  0  0
   41.9115   21.4845    1.5901 C   0  0  1  0  0  0  0  0  0  0  0  0
  1  3  1  0  0  0  0
  4  1  1  6  0  0  0
  4  6  1  0  0  0  0
  4 31  1  0  0  0  0
  6  7  1  0  0  0  0
  7  9  1  6  0  0  0
  7 30  1  0  0  0  0
  8 26  1  0  0  0  0
 10  9  1  6  0  0  0
 10 13  1  0  0  0  0
 10 21  1  0  0  0  0
 13 12  1  1  0  0  0
 13 15  1  0  0  0  0
 15  2  1  1  0  0  0
 15 17  1  0  0  0  0
 16 25  1  0  0  0  0
 16 23  1  0  0  0  0
 17 19  1  0  0  0  0
 19  5  1  6  0  0  0
 19 21  1  0  0  0  0
 21 14  1  6  0  0  0
 23 14  1  1  0  0  0
 23 29  1  0  0  0  0
 25 26  1  6  0  0  0
 25 27  1  0  0  0  0
 27 18  1  6  0  0  0
 27 28  1  0  0  0  0
 28 20  1  6  0  0  0
 28 29  1  0  0  0  0
 29 11  1  1  0  0  0
 30 22  1  1  0  0  0
 30 31  1  0  0  0  0
 31 24  1  1  0  0  0
M  END
>  <CHROM.1>
8.24649137,-100.63332519,-113.56380097,75.06901938,66.71555493,165.51668072
44.57497934,18.07833996,-0.01016414,1.68694128,-0.63697776,1.08581560

>  <Name>
ligand

>  <RI>
0

>  <Rbt.Current_Directory>
/home/itssahil/PROJECTS/Mol_Feturizer/New_Systems/rnas/2ET5

>  <Rbt.Executable>
rbdock ($Id: //depot/dev/client3/rdock/2013.1/src/exe/rbdock.cxx#4 $)

>  <Rbt.Library>
libRbt.so (2013.1, Build901 2013/11/27)

>  <Rbt.Parameter_File>
/export/apps/rDock/src/rDock_2013.1_src/data/scripts/dock_solv.prm

>  <Rbt.Receptor>
prm/blind_docking_60.prm

>  <SCORE>
22.728

>  <SCORE.INTER>
-2.63785

>  <SCORE.INTER.CONST>
1

>  <SCORE.INTER.POLAR>
0

>  <SCORE.INTER.ROT>
6

>  <SCORE.INTER.SOLV>
22.1174

>  <SCORE.INTER.VDW>
-16.731

>  <SCORE.INTER.norm>
-0.085092

>  <SCORE.INTRA>
4.32571

>  <SCORE.INTRA.DIHEDRAL>
8.29171

>  <SCORE.INTRA.DIHEDRAL.0>
11.2357

>  <SCORE.INTRA.POLAR>
0

>  <SCORE.INTRA.POLAR.0>
0

>  <SCORE.INTRA.REPUL>
0

>  <SCORE.INTRA.REPUL.0>
0

>  <SCORE.INTRA.SOLV>
-0.615097

>  <SCORE.INTRA.SOLV.lig_0>
-83.3092

>  <SCORE.INTRA.VDW>
0.487405

>  <SCORE.INTRA.VDW.0>
-4.47057

>  <SCORE.INTRA.norm>
0.139539

>  <SCORE.RESTR>
21.0401

>  <SCORE.RESTR.CAVITY>
21.0401

>  <SCORE.RESTR.norm>
0.678714

>  <SCORE.SYSTEM>
0

>  <SCORE.SYSTEM.CONST>
0

>  <SCORE.SYSTEM.DIHEDRAL>
0

>  <SCORE.SYSTEM.SOLV>
0

>  <SCORE.SYSTEM.norm>
0

>  <SCORE.heavy>
31

>  <SCORE.norm>
0.733161

>  <RMSD>
8.192

$$$$
ligand
 OpenBabel11021811433D
libRbt.so/2013.1/901 2013/11/27
 31 33  0  0  0  0  0  0  0  0999 V2000
   44.9172   20.7255    1.6841 C   0  0  0  0  0  0  0  0  0  0  0  0
   48.1186   15.2165   -4.5783 N   0  0  0  0  0  0  0  0  0  0  0  0
   45.0220   21.6765    2.7538 O   0  0  0  0  0  0  0  0  0  0  0  0
   45.4762   19.4322    2.2714 C   0  0  1  0  0  0  0  0  0  0  0  0
   43.7623   17.6798   -3.7514 N   0  0  0  0  0  0  0  0  0  0  0  0
   45.6912   18.3159    1.2656 O   0  0  0  0  0  0  0  0  0  0  0  0
   47.0151   18.0928    0.9661 C   0  0  1  0  0  0  0  0  0  0  0  0
   42.8083   14.7410    2.0600 N   0  0  0  0  0  0  0  0  0  0  0  0
   47.3770   18.0114   -0.3844 O   0  0  0  0  0  0  0  0  0  0  0  0
   46.7022   17.0947   -1.3642 C   0  0  2  0  0  0  0  0  0  0  0  0
   42.9919   20.6898   -0.7975 N   0  0  0  0  0  0  0  0  0  0  0  0
   48.8675   15.9360   -1.7649 O   0  0  0  0  0  0  0  0  0  0  0  0
   47.7559   16.6507   -2.4216 C   0  0  1  0  0  0  0  0  0  0  0  0
   44.5694   18.2073   -1.1544 O   0  0  0  0  0  0  0  0  0  0  0  0
   47.0787   15.6748   -3.5086 C   0  0  1  0  0  0  0  0  0  0  0  0
   42.5643   16.9514   -0.8949 O   0  0  0  0  0  0  0  0  0  0  0  0
   45.8870   16.4724   -4.1972 C   0  0  0  0  0  0  0  0  0  0  0  0
   42.1712   17.4266    2.7781 O   0  0  0  0  0  0  0  0  0  0  0  0
   44.8670   16.9255   -3.0716 C   0  0  1  0  0  0  0  0  0  0  0  0
   41.9074   20.1256    1.8835 O   0  0  0  0  0  0  0  0  0  0  0  0
   45.5090   17.8578   -2.0942 C   0  0  2  0  0  0  0  0  0  0  0  0
   49.0433   18.6271    2.1019 O   0  0  0  0  0  0  0  0  0  0  0  0
   43.1295   18.2796   -1.3164 C   0  0  1  0  0  0  0  0  0  0  0  0
   47.0010   18.4450    3.9614 O   0  0  0  0  0  0  0  0  0  0  0  0
   42.7312   16.5998    0.5772 C   0  0  2  0  0  0  0  0  0  0  0  0
   42.1393   15.2213    0.8476 C   0  0  0  0  0  0  0  0  0  0  0  0
   42.0276   17.6965    1.4096 C   0  0  2  0  0  0  0  0  0  0  0  0
   42.6029   19.0670    1.0935 C   0  0  1  0  0  0  0  0  0  0  0  0
   42.4362   19.3327   -0.4142 C   0  0  1  0  0  0  0  0  0  0  0  0
   47.7964   19.1204    1.7686 C   0  0  2  0  0  0  0  0  0  0  0  0
   46.8476   19.4871    2.9546 C   0  0  1  0  0  0  0  0  0  0  0  0
  1  3  1  0  0  0  0
  4  1  1  6  0  0  0
  4  6  1  0  0  0  0
  4 31  1  0  0  0  0
  6  7  1  0  0  0  0
  7  9  1  6  0  0  0
  7 30  1  0  0  0  0
  8 26  1  0  0  0  0
 10  9  1  1  0  0  0
 10 13  1  0  0  0  0
 10 21  1  0  0  0  0
 13 12  1  1  0  0  0
 13 15  1  0  0  0  0
 15  2  1  6  0  0  0
 15 17  1  0  0  0  0
 16 25  1  0  0  0  0
 16 23  1  0  0  0  0
 17 19  1  0  0  0  0
 19  5  1  6  0  0  0
 19 21  1  0  0  0  0
 21 14  1  1  0  0  0
 23 14  1  1  0  0  0
 23 29  1  0  0  0  0
 25 26  1  6  0  0  0
 25 27  1  0  0  0  0
 27 18  1  1  0  0  0
 27 28  1  0  0  0  0
 28 20  1  1  0  0  0
 28 29  1  0  0  0  0
 29 11  1  1  0  0  0
 30 22  1  1  0  0  0
 30 31  1  0  0  0  0
 31 24  1  1  0  0  0
M  END
>  <CHROM.1>
-170.36020013,-52.67217653,-148.13067694,93.12566142,-146.26015869,157.06760072
45.07226029,17.94772246,0.01220197,-2.06706931,-0.02082281,-2.07534939

>  <Name>
ligand

>  <RI>
0

>  <Rbt.Current_Directory>
/home/itssahil/PROJECTS/Mol_Feturizer/New_Systems/rnas/2ET5

>  <Rbt.Executable>
rbdock ($Id: //depot/dev/client3/rdock/2013.1/src/exe/rbdock.cxx#4 $)

>  <Rbt.Library>
libRbt.so (2013.1, Build901 2013/11/27)

>  <Rbt.Parameter_File>
/export/apps/rDock/src/rDock_2013.1_src/data/scripts/dock_solv.prm

>  <Rbt.Receptor>
prm/blind_docking_60.prm

>  <SCORE>
53.0383

>  <SCORE.INTER>
30.308

>  <SCORE.INTER.CONST>
1

>  <SCORE.INTER.POLAR>
0

>  <SCORE.INTER.ROT>
6

>  <SCORE.INTER.SOLV>
28.7556

>  <SCORE.INTER.VDW>
3.02011

>  <SCORE.INTER.norm>
0.977677

>  <SCORE.INTRA>
7.83241

>  <SCORE.INTRA.DIHEDRAL>
3.55753

>  <SCORE.INTRA.DIHEDRAL.0>
11.2357

>  <SCORE.INTRA.POLAR>
0

>  <SCORE.INTRA.POLAR.0>
0

>  <SCORE.INTRA.REPUL>
0.531917

>  <SCORE.INTRA.REPUL.0>
0

>  <SCORE.INTRA.SOLV>
1.05335

>  <SCORE.INTRA.SOLV.lig_0>
-83.3092

>  <SCORE.INTRA.VDW>
2.86739

>  <SCORE.INTRA.VDW.0>
-4.47057

>  <SCORE.INTRA.norm>
0.252659

>  <SCORE.RESTR>
14.8979

>  <SCORE.RESTR.CAVITY>
14.8979

>  <SCORE.RESTR.norm>
0.480579

>  <SCORE.SYSTEM>
0

>  <SCORE.SYSTEM.CONST>
0

>  <SCORE.SYSTEM.DIHEDRAL>
0

>  <SCORE.SYSTEM.SOLV>
0

>  <SCORE.SYSTEM.norm>
0

>  <SCORE.heavy>
31

>  <SCORE.norm>
1.71091

>  <RMSD>
8.244

$$$$
ligand
 OpenBabel11021811433D
libRbt.so/2013.1/901 2013/11/27
 31 33  0  0  0  0  0  0  0  0999 V2000
   37.0658   29.9861   -0.3980 C   0  0  0  0  0  0  0  0  0  0  0  0
   41.1358   22.3719    2.0793 N   0  0  0  0  0  0  0  0  0  0  0  0
   38.1052   30.7804    0.1920 O   0  0  0  0  0  0  0  0  0  0  0  0
   37.8101   28.8734   -1.1315 C   0  0  1  0  0  0  0  0  0  0  0  0
   39.3000   25.2427    5.8365 N   0  0  0  0  0  0  0  0  0  0  0  0
   38.5935   27.9318   -0.2351 O   0  0  0  0  0  0  0  0  0  0  0  0
   38.0153   26.6908   -0.1019 C   0  0  1  0  0  0  0  0  0  0  0  0
   34.4454   24.7944    4.3790 N   0  0  0  0  0  0  0  0  0  0  0  0
   37.8635   26.1736    1.1907 O   0  0  0  0  0  0  0  0  0  0  0  0
   39.0205   25.7466    2.0481 C   0  0  2  0  0  0  0  0  0  0  0  0
   38.3026   29.9525    4.0553 N   0  0  0  0  0  0  0  0  0  0  0  0
   39.8673   24.3249    0.1898 O   0  0  0  0  0  0  0  0  0  0  0  0
   39.4531   24.3172    1.6061 C   0  0  1  0  0  0  0  0  0  0  0  0
   38.2437   26.9916    3.9657 O   0  0  0  0  0  0  0  0  0  0  0  0
   40.6850   23.8036    2.5067 C   0  0  1  0  0  0  0  0  0  0  0  0
   35.8964   27.0964    3.5859 O   0  0  0  0  0  0  0  0  0  0  0  0
   40.2080   23.8068    4.0242 C   0  0  0  0  0  0  0  0  0  0  0  0
   34.8931   28.0625    7.0400 O   0  0  0  0  0  0  0  0  0  0  0  0
   39.7502   25.2757    4.4055 C   0  0  1  0  0  0  0  0  0  0  0  0
   36.4329   30.3498    6.2976 O   0  0  0  0  0  0  0  0  0  0  0  0
   38.5837   25.7172    3.5802 C   0  0  2  0  0  0  0  0  0  0  0  0
   36.4243   25.4972   -1.4185 O   0  0  0  0  0  0  0  0  0  0  0  0
   37.1954   27.8370    3.4262 C   0  0  1  0  0  0  0  0  0  0  0  0
   37.7591   27.2954   -3.0455 O   0  0  0  0  0  0  0  0  0  0  0  0
   35.4453   26.8557    5.0202 C   0  0  2  0  0  0  0  0  0  0  0  0
   34.1368   26.0738    5.0239 C   0  0  0  0  0  0  0  0  0  0  0  0
   35.2895   28.2327    5.7058 C   0  0  2  0  0  0  0  0  0  0  0  0
   36.5925   29.0128    5.6531 C   0  0  1  0  0  0  0  0  0  0  0  0
   37.0050   29.1791    4.1787 C   0  0  1  0  0  0  0  0  0  0  0  0
   36.7320   26.7464   -0.9146 C   0  0  2  0  0  0  0  0  0  0  0  0
   36.9849   27.8809   -1.9588 C   0  0  1  0  0  0  0  0  0  0  0  0
  1  3  1  0  0  0  0
  4  1  1  1  0  0  0
  4  6  1  0  0  0  0
  4 31  1  0  0  0  0
  6  7  1  0  0  0  0
  7  9  1  1  0  0  0
  7 30  1  0  0  0  0
  8 26  1  0  0  0  0
 10  9  1  6  0  0  0
 10 13  1  0  0  0  0
 10 21  1  0  0  0  0
 13 12  1  6  0  0  0
 13 15  1  0  0  0  0
 15  2  1  6  0  0  0
 15 17  1  0  0  0  0
 16 25  1  0  0  0  0
 16 23  1  0  0  0  0
 17 19  1  0  0  0  0
 19  5  1  1  0  0  0
 19 21  1  0  0  0  0
 21 14  1  1  0  0  0
 23 14  1  1  0  0  0
 23 29  1  0  0  0  0
 25 26  1  6  0  0  0
 25 27  1  0  0  0  0
 27 18  1  1  0  0  0
 27 28  1  0  0  0  0
 28 20  1  6  0  0  0
 28 29  1  0  0  0  0
 29 11  1  1  0  0  0
 30 22  1  6  0  0  0
 30 31  1  0  0  0  0
 31 24  1  6  0  0  0
M  END
>  <CHROM.1>
64.57919354,-68.67501602,-80.96680338,58.24025988,60.54450393,61.80605732
37.63842212,26.89405936,2.44678774,0.97541924,0.97732461,-1.25225544

>  <Name>
ligand

>  <RI>
0

>  <Rbt.Current_Directory>
/home/itssahil/PROJECTS/Mol_Feturizer/New_Systems/rnas/2ET5

>  <Rbt.Executable>
rbdock ($Id: //depot/dev/client3/rdock/2013.1/src/exe/rbdock.cxx#4 $)

>  <Rbt.Library>
libRbt.so (2013.1, Build901 2013/11/27)

>  <Rbt.Parameter_File>
/export/apps/rDock/src/rDock_2013.1_src/data/scripts/dock_solv.prm

>  <Rbt.Receptor>
prm/pocket_docking_8.prm

>  <SCORE>
-8.14805

>  <SCORE.INTER>
-2.85835

>  <SCORE.INTER.CONST>
1

>  <SCORE.INTER.POLAR>
0

>  <SCORE.INTER.ROT>
6

>  <SCORE.INTER.SOLV>
12.5751

>  <SCORE.INTER.VDW>
-13.6973

>  <SCORE.INTER.norm>
-0.0922047

>  <SCORE.INTRA>
-5.28971

>  <SCORE.INTRA.DIHEDRAL>
-8.67251

>  <SCORE.INTRA.DIHEDRAL.0>
11.2357

>  <SCORE.INTRA.POLAR>
0

>  <SCORE.INTRA.POLAR.0>
0

>  <SCORE.INTRA.REPUL>
0

>  <SCORE.INTRA.REPUL.0>
0

>  <SCORE.INTRA.SOLV>
-4.08875

>  <SCORE.INTRA.SOLV.lig_0>
-83.3092

>  <SCORE.INTRA.VDW>
1.09092

>  <SCORE.INTRA.VDW.0>
-4.47057

>  <SCORE.INTRA.norm>
-0.170636

>  <SCORE.RESTR>
0

>  <SCORE.RESTR.CAVITY>
0

>  <SCORE.RESTR.norm>
0

>  <SCORE.SYSTEM>
0

>  <SCORE.SYSTEM.CONST>
0

>  <SCORE.SYSTEM.DIHEDRAL>
0

>  <SCORE.SYSTEM.SOLV>
0

>  <SCORE.SYSTEM.norm>
0

>  <SCORE.heavy>
31

>  <SCORE.norm>
-0.26284

>  <RMSD>
8.248

$$$$
ligand
 OpenBabel11021811433D
libRbt.so/2013.1/901 2013/11/27
 31 33  0  0  0  0  0  0  0  0999 V2000
   45.2184   22.0462    2.7840 C   0  0  0  0  0  0  0  0  0  0  0  0
   41.4779   14.7481    1.1709 N   0  0  0  0  0  0  0  0  0  0  0  0
   45.8293   21.9965    1.4863 O   0  0  0  0  0  0  0  0  0  0  0  0
   45.0542   20.5815    3.1812 C   0  0  1  0  0  0  0  0  0  0  0  0
   44.4125   15.0827   -2.9528 N   0  0  0  0  0  0  0  0  0  0  0  0
   44.0456   19.8056    2.3537 O   0  0  0  0  0  0  0  0  0  0  0  0
   44.6217   18.9200    1.4729 C   0  0  1  0  0  0  0  0  0  0  0  0
   49.2005   16.8462   -0.3887 N   0  0  0  0  0  0  0  0  0  0  0  0
   44.1839   18.9398    0.1427 O   0  0  0  0  0  0  0  0  0  0  0  0
   43.3915   17.8264   -0.4803 C   0  0  2  0  0  0  0  0  0  0  0  0
   45.8465   17.7489   -5.2305 N   0  0  0  0  0  0  0  0  0  0  0  0
   41.9977   17.6738    1.5753 O   0  0  0  0  0  0  0  0  0  0  0  0
   42.8641   16.9061    0.6601 C   0  0  1  0  0  0  0  0  0  0  0  0
   44.7428   17.7923   -2.4812 O   0  0  0  0  0  0  0  0  0  0  0  0
   42.0174   15.6831    0.0438 C   0  0  1  0  0  0  0  0  0  0  0  0
   46.9686   17.8073   -1.6380 O   0  0  0  0  0  0  0  0  0  0  0  0
   42.9768   14.8771   -0.9361 C   0  0  0  0  0  0  0  0  0  0  0  0
   47.7891   14.2518   -2.3839 O   0  0  0  0  0  0  0  0  0  0  0  0
   43.5067   15.8700   -2.0523 C   0  0  1  0  0  0  0  0  0  0  0  0
   47.3952   15.2503   -5.0301 O   0  0  0  0  0  0  0  0  0  0  0  0
   44.3186   16.9773   -1.4595 C   0  0  2  0  0  0  0  0  0  0  0  0
   46.7744   17.8966    1.3829 O   0  0  0  0  0  0  0  0  0  0  0  0
   46.1029   18.1741   -2.8117 C   0  0  1  0  0  0  0  0  0  0  0  0
   46.2048   18.5466    4.0126 O   0  0  0  0  0  0  0  0  0  0  0  0
   47.0871   16.3178   -1.3448 C   0  0  2  0  0  0  0  0  0  0  0  0
   47.9665   16.1030   -0.1184 C   0  0  0  0  0  0  0  0  0  0  0  0
   47.6787   15.6331   -2.5985 C   0  0  2  0  0  0  0  0  0  0  0  0
   46.8103   15.8954   -3.8176 C   0  0  1  0  0  0  0  0  0  0  0  0
   46.7029   17.4176   -4.0246 C   0  0  1  0  0  0  0  0  0  0  0  0
   46.1226   19.0861    1.6464 C   0  0  2  0  0  0  0  0  0  0  0  0
   46.2828   19.6693    3.0871 C   0  0  1  0  0  0  0  0  0  0  0  0
  1  3  1  0  0  0  0
  4  1  1  6  0  0  0
  4  6  1  0  0  0  0
  4 31  1  0  0  0  0
  6  7  1  0  0  0  0
  7  9  1  6  0  0  0
  7 30  1  0  0  0  0
  8 26  1  0  0  0  0
 10  9  1  1  0  0  0
 10 13  1  0  0  0  0
 10 21  1  0  0  0  0
 13 12  1  1  0  0  0
 13 15  1  0  0  0  0
 15  2  1  1  0  0  0
 15 17  1  0  0  0  0
 16 25  1  0  0  0  0
 16 23  1  0  0  0  0
 17 19  1  0  0  0  0
 19  5  1  6  0  0  0
 19 21  1  0  0  0  0
 21 14  1  6  0  0  0
 23 14  1  1  0  0  0
 23 29  1  0  0  0  0
 25 26  1  1  0  0  0
 25 27  1  0  0  0  0
 27 18  1  1  0  0  0
 27 28  1  0  0  0  0
 28 20  1  6  0  0  0
 28 29  1  0  0  0  0
 29 11  1  6  0  0  0
 30 22  1  1  0  0  0
 30 31  1  0  0  0  0
 31 24  1  1  0  0  0
M  END
>  <CHROM.1>
-67.82048762,-111.03552784,14.29713296,-14.05200421,117.77423652,-52.22523475
45.35804738,17.51844747,-0.45260530,-1.81378790,-0.37441478,-2.24923787

>  <Name>
ligand

>  <RI>
0

>  <Rbt.Current_Directory>
/home/itssahil/PROJECTS/Mol_Feturizer/New_Systems/rnas/2ET5

>  <Rbt.Executable>
rbdock ($Id: //depot/dev/client3/rdock/2013.1/src/exe/rbdock.cxx#4 $)

>  <Rbt.Library>
libRbt.so (2013.1, Build901 2013/11/27)

>  <Rbt.Parameter_File>
/export/apps/rDock/src/rDock_2013.1_src/data/scripts/dock_solv.prm

>  <Rbt.Receptor>
prm/blind_docking_60.prm

>  <SCORE>
28.0761

>  <SCORE.INTER>
-4.06879

>  <SCORE.INTER.CONST>
1

>  <SCORE.INTER.POLAR>
0

>  <SCORE.INTER.ROT>
6

>  <SCORE.INTER.SOLV>
20.2267

>  <SCORE.INTER.VDW>
-17.0548

>  <SCORE.INTER.norm>
-0.131251

>  <SCORE.INTRA>
14.1321

>  <SCORE.INTRA.DIHEDRAL>
15.5701

>  <SCORE.INTRA.DIHEDRAL.0>
11.2357

>  <SCORE.INTRA.POLAR>
0

>  <SCORE.INTRA.POLAR.0>
0

>  <SCORE.INTRA.REPUL>
0

>  <SCORE.INTRA.REPUL.0>
0

>  <SCORE.INTRA.SOLV>
5.10182

>  <SCORE.INTRA.SOLV.lig_0>
-83.3092

>  <SCORE.INTRA.VDW>
3.79618

>  <SCORE.INTRA.VDW.0>
-4.47057

>  <SCORE.INTRA.norm>
0.455875

>  <SCORE.RESTR>
18.0128

>  <SCORE.RESTR.CAVITY>
18.0128

>  <SCORE.RESTR.norm>
0.581058

>  <SCORE.SYSTEM>
0

>  <SCORE.SYSTEM.CONST>
0

>  <SCORE.SYSTEM.DIHEDRAL>
0

>  <SCORE.SYSTEM.SOLV>
0

>  <SCORE.SYSTEM.norm>
0

>  <SCORE.heavy>
31

>  <SCORE.norm>
0.905682

>  <RMSD>
8.250

$$$$
ligand
 OpenBabel11021811433D
libRbt.so/2013.1/901 2013/11/27
 31 33  0  0  0  0  0  0  0  0999 V2000
   43.3867   19.9387    0.2687 C   0  0  0  0  0  0  0  0  0  0  0  0
   46.2358   14.3938   -4.7141 N   0  0  0  0  0  0  0  0  0  0  0  0
   43.2584   20.3114   -1.1112 O   0  0  0  0  0  0  0  0  0  0  0  0
   42.6023   18.6342    0.3828 C   0  0  1  0  0  0  0  0  0  0  0  0
   49.2538   17.6067   -2.2047 N   0  0  0  0  0  0  0  0  0  0  0  0
   43.1622   17.4804   -0.4292 O   0  0  0  0  0  0  0  0  0  0  0  0
   43.7833   16.5202    0.3352 C   0  0  1  0  0  0  0  0  0  0  0  0
   44.9051   21.6506    2.4480 N   0  0  0  0  0  0  0  0  0  0  0  0
   45.0574   16.0919   -0.0581 O   0  0  0  0  0  0  0  0  0  0  0  0
   45.6893   16.4786   -1.3646 C   0  0  2  0  0  0  0  0  0  0  0  0
   47.8225   15.8432    1.6405 N   0  0  0  0  0  0  0  0  0  0  0  0
   44.2123   14.8658   -2.5516 O   0  0  0  0  0  0  0  0  0  0  0  0
   45.6178   15.2526   -2.3224 C   0  0  1  0  0  0  0  0  0  0  0  0
   47.2580   17.9897   -0.3222 O   0  0  0  0  0  0  0  0  0  0  0  0
   46.2977   15.6096   -3.7376 C   0  0  1  0  0  0  0  0  0  0  0  0
   47.8229   19.5953    1.3416 O   0  0  0  0  0  0  0  0  0  0  0  0
   47.8083   16.0217   -3.4573 C   0  0  0  0  0  0  0  0  0  0  0  0
   44.7518   19.2370    3.4179 O   0  0  0  0  0  0  0  0  0  0  0  0
   47.8181   17.2489   -2.4540 C   0  0  1  0  0  0  0  0  0  0  0  0
   45.8674   16.6237    3.7021 O   0  0  0  0  0  0  0  0  0  0  0  0
   47.2135   16.8833   -1.1359 C   0  0  2  0  0  0  0  0  0  0  0  0
   43.6456   15.9546    2.6484 O   0  0  0  0  0  0  0  0  0  0  0  0
   48.0469   18.1817    0.8802 C   0  0  1  0  0  0  0  0  0  0  0  0
   41.2782   17.1686    1.8844 O   0  0  0  0  0  0  0  0  0  0  0  0
   46.4080   19.9249    1.7978 C   0  0  2  0  0  0  0  0  0  0  0  0
   46.3272   21.3912    2.2061 C   0  0  0  0  0  0  0  0  0  0  0  0
   46.0578   18.9845    2.9741 C   0  0  2  0  0  0  0  0  0  0  0  0
   46.1862   17.5286    2.5584 C   0  0  1  0  0  0  0  0  0  0  0  0
   47.6264   17.2830    2.0715 C   0  0  1  0  0  0  0  0  0  0  0  0
   43.6992   17.0188    1.7687 C   0  0  2  0  0  0  0  0  0  0  0  0
   42.4757   17.9906    1.7685 C   0  0  1  0  0  0  0  0  0  0  0  0
  1  3  1  0  0  0  0
  4  1  1  1  0  0  0
  4  6  1  0  0  0  0
  4 31  1  0  0  0  0
  6  7  1  0  0  0  0
  7  9  1  6  0  0  0
  7 30  1  0  0  0  0
  8 26  1  0  0  0  0
 10  9  1  1  0  0  0
 10 13  1  0  0  0  0
 10 21  1  0  0  0  0
 13 12  1  6  0  0  0
 13 15  1  0  0  0  0
 15  2  1  6  0  0  0
 15 17  1  0  0  0  0
 16 25  1  0  0  0  0
 16 23  1  0  0  0  0
 17 19  1  0  0  0  0
 19  5  1  1  0  0  0
 19 21  1  0  0  0  0
 21 14  1  1  0  0  0
 23 14  1  6  0  0  0
 23 29  1  0  0  0  0
 25 26  1  1  0  0  0
 25 27  1  0  0  0  0
 27 18  1  6  0  0  0
 27 28  1  0  0  0  0
 28 20  1  1  0  0  0
 28 29  1  0  0  0  0
 29 11  1  6  0  0  0
 30 22  1  1  0  0  0
 30 31  1  0  0  0  0
 31 24  1  6  0  0  0
M  END
>  <CHROM.1>
63.80414901,-8.99382905,-104.58994812,175.67956063,129.54435785,172.46415579
45.48929711,17.60684261,0.29245372,1.90886319,0.18432112,0.94448157

>  <Name>
ligand

>  <RI>
0

>  <Rbt.Current_Directory>
/home/itssahil/PROJECTS/Mol_Feturizer/New_Systems/rnas/2ET5

>  <Rbt.Executable>
rbdock ($Id: //depot/dev/client3/rdock/2013.1/src/exe/rbdock.cxx#4 $)

>  <Rbt.Library>
libRbt.so (2013.1, Build901 2013/11/27)

>  <Rbt.Parameter_File>
/export/apps/rDock/src/rDock_2013.1_src/data/scripts/dock_solv.prm

>  <Rbt.Receptor>
prm/blind_docking_60.prm

>  <SCORE>
48.8052

>  <SCORE.INTER>
21.8839

>  <SCORE.INTER.CONST>
1

>  <SCORE.INTER.POLAR>
0

>  <SCORE.INTER.ROT>
6

>  <SCORE.INTER.SOLV>
17.9347

>  <SCORE.INTER.VDW>
1.01103

>  <SCORE.INTER.norm>
0.705932

>  <SCORE.INTRA>
7.43321

>  <SCORE.INTRA.DIHEDRAL>
8.70986

>  <SCORE.INTRA.DIHEDRAL.0>
11.2357

>  <SCORE.INTRA.POLAR>
0

>  <SCORE.INTRA.POLAR.0>
0

>  <SCORE.INTRA.REPUL>
0

>  <SCORE.INTRA.REPUL.0>
0

>  <SCORE.INTRA.SOLV>
3.04683

>  <SCORE.INTRA.SOLV.lig_0>
-83.3092

>  <SCORE.INTRA.VDW>
1.55486

>  <SCORE.INTRA.VDW.0>
-4.47057

>  <SCORE.INTRA.norm>
0.239781

>  <SCORE.RESTR>
19.4881

>  <SCORE.RESTR.CAVITY>
19.4881

>  <SCORE.RESTR.norm>
0.628649

>  <SCORE.SYSTEM>
0

>  <SCORE.SYSTEM.CONST>
0

>  <SCORE.SYSTEM.DIHEDRAL>
0

>  <SCORE.SYSTEM.SOLV>
0

>  <SCORE.SYSTEM.norm>
0

>  <SCORE.heavy>
31

>  <SCORE.norm>
1.57436

>  <RMSD>
8.314

$$$$
ligand
 OpenBabel11021811433D
libRbt.so/2013.1/901 2013/11/27
 31 33  0  0  0  0  0  0  0  0999 V2000
   36.2086   26.0636   -0.2277 C   0  0  0  0  0  0  0  0  0  0  0  0
   36.9082   25.9594    8.4823 N   0  0  0  0  0  0  0  0  0  0  0  0
   36.8901   24.8060   -0.1120 O   0  0  0  0  0  0  0  0  0  0  0  0
   35.1899   26.0478    0.9091 C   0  0  1  0  0  0  0  0  0  0  0  0
   41.2087   27.0971    6.0451 N   0  0  0  0  0  0  0  0  0  0  0  0
   35.7881   25.9395    2.2999 O   0  0  0  0  0  0  0  0  0  0  0  0
   35.7318   27.1127    3.0158 C   0  0  1  0  0  0  0  0  0  0  0  0
   38.8636   31.4907    4.3492 N   0  0  0  0  0  0  0  0  0  0  0  0
   36.9029   27.5541    3.6443 O   0  0  0  0  0  0  0  0  0  0  0  0
   37.6593   26.7316    4.6478 C   0  0  2  0  0  0  0  0  0  0  0  0
   40.9147   26.3349    1.0689 N   0  0  0  0  0  0  0  0  0  0  0  0
   35.5302   26.2262    5.8323 O   0  0  0  0  0  0  0  0  0  0  0  0
   36.8873   26.7809    5.9996 C   0  0  1  0  0  0  0  0  0  0  0  0
   39.8039   27.2410    3.6619 O   0  0  0  0  0  0  0  0  0  0  0  0
   37.6662   25.9243    7.1186 C   0  0  1  0  0  0  0  0  0  0  0  0
   39.1433   29.2741    2.6153 O   0  0  0  0  0  0  0  0  0  0  0  0
   39.1222   26.5454    7.2752 C   0  0  0  0  0  0  0  0  0  0  0  0
   42.5319   30.7942    2.3359 O   0  0  0  0  0  0  0  0  0  0  0  0
   39.8447   26.4984    5.8651 C   0  0  1  0  0  0  0  0  0  0  0  0
   42.8566   28.5113    0.6515 O   0  0  0  0  0  0  0  0  0  0  0  0
   39.1226   27.3284    4.8520 C   0  0  2  0  0  0  0  0  0  0  0  0
   34.3838   29.0699    2.8114 O   0  0  0  0  0  0  0  0  0  0  0  0
   39.4408   27.8186    2.3815 C   0  0  1  0  0  0  0  0  0  0  0  0
   33.0154   26.9261    1.7189 O   0  0  0  0  0  0  0  0  0  0  0  0
   40.3244   30.1267    3.0588 C   0  0  2  0  0  0  0  0  0  0  0  0
   39.8669   31.5633    3.2832 C   0  0  0  0  0  0  0  0  0  0  0  0
   41.4114   30.0383    1.9627 C   0  0  2  0  0  0  0  0  0  0  0  0
   41.8221   28.5948    1.7246 C   0  0  1  0  0  0  0  0  0  0  0  0
   40.5726   27.7895    1.3224 C   0  0  1  0  0  0  0  0  0  0  0  0
   35.0917   28.1307    2.0861 C   0  0  2  0  0  0  0  0  0  0  0  0
   34.2752   27.2674    1.0714 C   0  0  1  0  0  0  0  0  0  0  0  0
  1  3  1  0  0  0  0
  4  1  1  6  0  0  0
  4  6  1  0  0  0  0
  4 31  1  0  0  0  0
  6  7  1  0  0  0  0
  7  9  1  6  0  0  0
  7 30  1  0  0  0  0
  8 26  1  0  0  0  0
 10  9  1  6  0  0  0
 10 13  1  0  0  0  0
 10 21  1  0  0  0  0
 13 12  1  6  0  0  0
 13 15  1  0  0  0  0
 15  2  1  1  0  0  0
 15 17  1  0  0  0  0
 16 25  1  0  0  0  0
 16 23  1  0  0  0  0
 17 19  1  0  0  0  0
 19  5  1  1  0  0  0
 19 21  1  0  0  0  0
 21 14  1  6  0  0  0
 23 14  1  1  0  0  0
 23 29  1  0  0  0  0
 25 26  1  6  0  0  0
 25 27  1  0  0  0  0
 27 18  1  1  0  0  0
 27 28  1  0  0  0  0
 28 20  1  6  0  0  0
 28 29  1  0  0  0  0
 29 11  1  1  0  0  0
 30 22  1  1  0  0  0
 30 31  1  0  0  0  0
 31 24  1  1  0  0  0
M  END
>  <CHROM.1>
60.89235156,-57.53559908,-76.40612239,50.65650573,58.44650963,61.23702509
38.20094627,27.66527366,3.24884430,3.03948543,0.38440918,1.73914771

>  <Name>
ligand

>  <RI>
0

>  <Rbt.Current_Directory>
/home/itssahil/PROJECTS/Mol_Feturizer/New_Systems/rnas/2ET5

>  <Rbt.Executable>
rbdock ($Id: //depot/dev/client3/rdock/2013.1/src/exe/rbdock.cxx#4 $)

>  <Rbt.Library>
libRbt.so (2013.1, Build901 2013/11/27)

>  <Rbt.Parameter_File>
/export/apps/rDock/src/rDock_2013.1_src/data/scripts/dock_solv.prm

>  <Rbt.Receptor>
prm/pocket_docking_7.prm

>  <SCORE>
-8.80094

>  <SCORE.INTER>
-3.20315

>  <SCORE.INTER.CONST>
1

>  <SCORE.INTER.POLAR>
0

>  <SCORE.INTER.ROT>
6

>  <SCORE.INTER.SOLV>
13.9427

>  <SCORE.INTER.VDW>
-14.383

>  <SCORE.INTER.norm>
-0.103328

>  <SCORE.INTRA>
-5.59778

>  <SCORE.INTRA.DIHEDRAL>
-9.37666

>  <SCORE.INTRA.DIHEDRAL.0>
11.2357

>  <SCORE.INTRA.POLAR>
0

>  <SCORE.INTRA.POLAR.0>
0

>  <SCORE.INTRA.REPUL>
0

>  <SCORE.INTRA.REPUL.0>
0

>  <SCORE.INTRA.SOLV>
-4.35196

>  <SCORE.INTRA.SOLV.lig_0>
-83.3092

>  <SCORE.INTRA.VDW>
1.26653

>  <SCORE.INTRA.VDW.0>
-4.47057

>  <SCORE.INTRA.norm>
-0.180574

>  <SCORE.RESTR>
0

>  <SCORE.RESTR.CAVITY>
0

>  <SCORE.RESTR.norm>
0

>  <SCORE.SYSTEM>
0

>  <SCORE.SYSTEM.CONST>
0

>  <SCORE.SYSTEM.DIHEDRAL>
0

>  <SCORE.SYSTEM.SOLV>
0

>  <SCORE.SYSTEM.norm>
0

>  <SCORE.heavy>
31

>  <SCORE.norm>
-0.283901

>  <RMSD>
8.317

$$$$
ligand
 OpenBabel11021811433D
libRbt.so/2013.1/901 2013/11/27
 31 33  0  0  0  0  0  0  0  0999 V2000
   39.3807   26.9156   -4.0982 C   0  0  0  0  0  0  0  0  0  0  0  0
   41.6850   21.5594    2.7147 N   0  0  0  0  0  0  0  0  0  0  0  0
   39.4626   27.1447   -5.5126 O   0  0  0  0  0  0  0  0  0  0  0  0
   40.4607   25.8733   -3.8205 C   0  0  1  0  0  0  0  0  0  0  0  0
   37.7815   24.6382    3.7207 N   0  0  0  0  0  0  0  0  0  0  0  0
   40.6101   25.4831   -2.3612 O   0  0  0  0  0  0  0  0  0  0  0  0
   40.1176   24.2315   -2.0733 C   0  0  1  0  0  0  0  0  0  0  0  0
   34.0313   24.6040    3.1069 N   0  0  0  0  0  0  0  0  0  0  0  0
   39.2598   24.1014   -0.9739 O   0  0  0  0  0  0  0  0  0  0  0  0
   39.7277   24.1875    0.4507 C   0  0  2  0  0  0  0  0  0  0  0  0
   38.0943   27.7607   -0.8862 N   0  0  0  0  0  0  0  0  0  0  0  0
   41.6091   22.6475   -0.0788 O   0  0  0  0  0  0  0  0  0  0  0  0
   40.4481   22.8539    0.8084 C   0  0  1  0  0  0  0  0  0  0  0  0
   37.8822   25.5926    1.1220 O   0  0  0  0  0  0  0  0  0  0  0  0
   40.9583   22.8873    2.3352 C   0  0  1  0  0  0  0  0  0  0  0  0
   35.5421   25.4933    0.6991 O   0  0  0  0  0  0  0  0  0  0  0  0
   39.6866   23.1108    3.2643 C   0  0  0  0  0  0  0  0  0  0  0  0
   34.6028   28.6428    2.4512 O   0  0  0  0  0  0  0  0  0  0  0  0
   38.9782   24.4615    2.8328 C   0  0  1  0  0  0  0  0  0  0  0  0
   36.2559   29.6896    0.3713 O   0  0  0  0  0  0  0  0  0  0  0  0
   38.4826   24.3939    1.4234 C   0  0  2  0  0  0  0  0  0  0  0  0
   39.6529   22.3243   -3.4284 O   0  0  0  0  0  0  0  0  0  0  0  0
   36.8770   25.8573    0.1101 C   0  0  1  0  0  0  0  0  0  0  0  0
   41.6087   23.8427   -4.6658 O   0  0  0  0  0  0  0  0  0  0  0  0
   35.0845   26.3456    1.8751 C   0  0  2  0  0  0  0  0  0  0  0  0
   33.7374   25.8432    2.3816 C   0  0  0  0  0  0  0  0  0  0  0  0
   35.0025   27.8127    1.3941 C   0  0  2  0  0  0  0  0  0  0  0  0
   36.3439   28.2797    0.8537 C   0  0  1  0  0  0  0  0  0  0  0  0
   36.7589   27.3478   -0.2999 C   0  0  1  0  0  0  0  0  0  0  0  0
   39.5528   23.7016   -3.3813 C   0  0  2  0  0  0  0  0  0  0  0  0
   40.3203   24.4986   -4.4845 C   0  0  1  0  0  0  0  0  0  0  0  0
  1  3  1  0  0  0  0
  4  1  1  1  0  0  0
  4  6  1  0  0  0  0
  4 31  1  0  0  0  0
  6  7  1  0  0  0  0
  7  9  1  1  0  0  0
  7 30  1  0  0  0  0
  8 26  1  0  0  0  0
 10  9  1  6  0  0  0
 10 13  1  0  0  0  0
 10 21  1  0  0  0  0
 13 12  1  6  0  0  0
 13 15  1  0  0  0  0
 15  2  1  1  0  0  0
 15 17  1  0  0  0  0
 16 25  1  0  0  0  0
 16 23  1  0  0  0  0
 17 19  1  0  0  0  0
 19  5  1  1  0  0  0
 19 21  1  0  0  0  0
 21 14  1  6  0  0  0
 23 14  1  1  0  0  0
 23 29  1  0  0  0  0
 25 26  1  6  0  0  0
 25 27  1  0  0  0  0
 27 18  1  1  0  0  0
 27 28  1  0  0  0  0
 28 20  1  6  0  0  0
 28 29  1  0  0  0  0
 29 11  1  1  0  0  0
 30 22  1  6  0  0  0
 30 31  1  0  0  0  0
 31 24  1  1  0  0  0
M  END
>  <CHROM.1>
178.20499922,-72.52688979,-75.77944247,82.95597883,85.56115117,74.58748447
38.39490701,25.24302780,-0.18348525,0.46836794,0.72695928,-1.09949559

>  <Name>
ligand

>  <RI>
0

>  <Rbt.Current_Directory>
/home/itssahil/PROJECTS/Mol_Feturizer/New_Systems/rnas/2ET5

>  <Rbt.Executable>
rbdock ($Id: //depot/dev/client3/rdock/2013.1/src/exe/rbdock.cxx#4 $)

>  <Rbt.Library>
libRbt.so (2013.1, Build901 2013/11/27)

>  <Rbt.Parameter_File>
/export/apps/rDock/src/rDock_2013.1_src/data/scripts/dock_solv.prm

>  <Rbt.Receptor>
prm/pocket_docking_6.prm

>  <SCORE>
-5.80597

>  <SCORE.INTER>
-4.38339

>  <SCORE.INTER.CONST>
1

>  <SCORE.INTER.POLAR>
0

>  <SCORE.INTER.ROT>
6

>  <SCORE.INTER.SOLV>
16.4612

>  <SCORE.INTER.VDW>
-16.0093

>  <SCORE.INTER.norm>
-0.1414

>  <SCORE.INTRA>
-1.42258

>  <SCORE.INTRA.DIHEDRAL>
-3.41801

>  <SCORE.INTRA.DIHEDRAL.0>
11.2357

>  <SCORE.INTRA.POLAR>
0

>  <SCORE.INTRA.POLAR.0>
0

>  <SCORE.INTRA.REPUL>
0

>  <SCORE.INTRA.REPUL.0>
0

>  <SCORE.INTRA.SOLV>
-0.9668

>  <SCORE.INTRA.SOLV.lig_0>
-83.3092

>  <SCORE.INTRA.VDW>
0.769825

>  <SCORE.INTRA.VDW.0>
-4.47057

>  <SCORE.INTRA.norm>
-0.0458897

>  <SCORE.RESTR>
0

>  <SCORE.RESTR.CAVITY>
0

>  <SCORE.RESTR.norm>
0

>  <SCORE.SYSTEM>
0

>  <SCORE.SYSTEM.CONST>
0

>  <SCORE.SYSTEM.DIHEDRAL>
0

>  <SCORE.SYSTEM.SOLV>
0

>  <SCORE.SYSTEM.norm>
0

>  <SCORE.heavy>
31

>  <SCORE.norm>
-0.187289

>  <RMSD>
8.328

$$$$
ligand
 OpenBabel11021811433D
libRbt.so/2013.1/901 2013/11/27
 31 33  0  0  0  0  0  0  0  0999 V2000
   37.1962   27.4883   -1.0421 C   0  0  0  0  0  0  0  0  0  0  0  0
   33.9202   25.0941    3.7296 N   0  0  0  0  0  0  0  0  0  0  0  0
   37.3512   28.0022   -2.3731 O   0  0  0  0  0  0  0  0  0  0  0  0
   36.9232   28.7241   -0.1888 C   0  0  1  0  0  0  0  0  0  0  0  0
   35.1963   28.8551    6.8848 N   0  0  0  0  0  0  0  0  0  0  0  0
   36.6613   28.4401    1.2792 O   0  0  0  0  0  0  0  0  0  0  0  0
   37.7055   28.7923    2.1024 C   0  0  1  0  0  0  0  0  0  0  0  0
   41.2884   25.4926    5.9132 N   0  0  0  0  0  0  0  0  0  0  0  0
   38.1483   27.8502    3.0393 O   0  0  0  0  0  0  0  0  0  0  0  0
   37.2546   27.2437    4.0829 C   0  0  2  0  0  0  0  0  0  0  0  0
   39.0011   30.6855    7.7336 N   0  0  0  0  0  0  0  0  0  0  0  0
   36.6300   25.4359    2.4913 O   0  0  0  0  0  0  0  0  0  0  0  0
   36.0925   26.5022    3.3582 C   0  0  1  0  0  0  0  0  0  0  0  0
   37.6862   29.0029    5.6797 O   0  0  0  0  0  0  0  0  0  0  0  0
   35.0928   25.8441    4.4353 C   0  0  1  0  0  0  0  0  0  0  0  0
   39.1729   27.2324    6.2455 O   0  0  0  0  0  0  0  0  0  0  0  0
   34.5317   27.0163    5.3525 C   0  0  0  0  0  0  0  0  0  0  0  0
   42.2285   28.6417    4.6492 O   0  0  0  0  0  0  0  0  0  0  0  0
   35.7579   27.7530    6.0354 C   0  0  1  0  0  0  0  0  0  0  0  0
   41.7408   30.6188    6.6512 O   0  0  0  0  0  0  0  0  0  0  0  0
   36.6526   28.3854    5.0175 C   0  0  2  0  0  0  0  0  0  0  0  0
   39.5471   30.2840    1.8319 O   0  0  0  0  0  0  0  0  0  0  0  0
   38.4966   28.4731    6.7601 C   0  0  1  0  0  0  0  0  0  0  0  0
   37.4794   31.1124    0.1887 O   0  0  0  0  0  0  0  0  0  0  0  0
   40.1827   27.4465    5.1261 C   0  0  2  0  0  0  0  0  0  0  0  0
   40.7607   26.1050    4.6906 C   0  0  0  0  0  0  0  0  0  0  0  0
   41.2818   28.3972    5.6543 C   0  0  2  0  0  0  0  0  0  0  0  0
   40.6796   29.7114    6.1229 C   0  0  1  0  0  0  0  0  0  0  0  0
   39.6418   29.4113    7.2204 C   0  0  1  0  0  0  0  0  0  0  0  0
   38.7912   29.3268    1.1825 C   0  0  2  0  0  0  0  0  0  0  0  0
   38.0211   29.7900   -0.0957 C   0  0  1  0  0  0  0  0  0  0  0  0
  1  3  1  0  0  0  0
  4  1  1  6  0  0  0
  4  6  1  0  0  0  0
  4 31  1  0  0  0  0
  6  7  1  0  0  0  0
  7  9  1  6  0  0  0
  7 30  1  0  0  0  0
  8 26  1  0  0  0  0
 10  9  1  6  0  0  0
 10 13  1  0  0  0  0
 10 21  1  0  0  0  0
 13 12  1  6  0  0  0
 13 15  1  0  0  0  0
 15  2  1  6  0  0  0
 15 17  1  0  0  0  0
 16 25  1  0  0  0  0
 16 23  1  0  0  0  0
 17 19  1  0  0  0  0
 19  5  1  1  0  0  0
 19 21  1  0  0  0  0
 21 14  1  1  0  0  0
 23 14  1  6  0  0  0
 23 29  1  0  0  0  0
 25 26  1  1  0  0  0
 25 27  1  0  0  0  0
 27 18  1  6  0  0  0
 27 28  1  0  0  0  0
 28 20  1  1  0  0  0
 28 29  1  0  0  0  0
 29 11  1  6  0  0  0
 30 22  1  1  0  0  0
 30 31  1  0  0  0  0
 31 24  1  1  0  0  0
M  END
>  <CHROM.1>
177.56879816,-57.59708381,59.87888298,59.63902505,-71.82171080,-54.80494753
38.12776987,28.18535639,3.81644877,-2.09291295,0.47045539,1.74255708

>  <Name>
ligand

>  <RI>
0

>  <Rbt.Current_Directory>
/home/itssahil/PROJECTS/Mol_Feturizer/New_Systems/rnas/2ET5

>  <Rbt.Executable>
rbdock ($Id: //depot/dev/client3/rdock/2013.1/src/exe/rbdock.cxx#4 $)

>  <Rbt.Library>
libRbt.so (2013.1, Build901 2013/11/27)

>  <Rbt.Parameter_File>
/export/apps/rDock/src/rDock_2013.1_src/data/scripts/dock_solv.prm

>  <Rbt.Receptor>
prm/pocket_docking_7.prm

>  <SCORE>
-6.50454

>  <SCORE.INTER>
-1.76708

>  <SCORE.INTER.CONST>
1

>  <SCORE.INTER.POLAR>
0

>  <SCORE.INTER.ROT>
6

>  <SCORE.INTER.SOLV>
9.01257

>  <SCORE.INTER.VDW>
-11.7822

>  <SCORE.INTER.norm>
-0.0570027

>  <SCORE.INTRA>
-4.74983

>  <SCORE.INTRA.DIHEDRAL>
-10.2806

>  <SCORE.INTRA.DIHEDRAL.0>
11.2357

>  <SCORE.INTRA.POLAR>
0

>  <SCORE.INTRA.POLAR.0>
0

>  <SCORE.INTRA.REPUL>
0

>  <SCORE.INTRA.REPUL.0>
0

>  <SCORE.INTRA.SOLV>
-1.92212

>  <SCORE.INTRA.SOLV.lig_0>
-83.3092

>  <SCORE.INTRA.VDW>
1.35153

>  <SCORE.INTRA.VDW.0>
-4.47057

>  <SCORE.INTRA.norm>
-0.15322

>  <SCORE.RESTR>
0.0123716

>  <SCORE.RESTR.CAVITY>
0.0123716

>  <SCORE.RESTR.norm>
0.000399083

>  <SCORE.SYSTEM>
0

>  <SCORE.SYSTEM.CONST>
0

>  <SCORE.SYSTEM.DIHEDRAL>
0

>  <SCORE.SYSTEM.SOLV>
0

>  <SCORE.SYSTEM.norm>
0

>  <SCORE.heavy>
31

>  <SCORE.norm>
-0.209824

>  <RMSD>
8.411

$$$$
ligand
 OpenBabel11021811433D
libRbt.so/2013.1/901 2013/11/27
 31 33  0  0  0  0  0  0  0  0999 V2000
   38.0483   26.1599    8.9796 C   0  0  0  0  0  0  0  0  0  0  0  0
   42.6492   29.6980    6.3905 N   0  0  0  0  0  0  0  0  0  0  0  0
   38.7079   25.2030    8.1377 O   0  0  0  0  0  0  0  0  0  0  0  0
   37.1779   26.9697    8.0221 C   0  0  1  0  0  0  0  0  0  0  0  0
   39.3401   31.1661    2.8377 N   0  0  0  0  0  0  0  0  0  0  0  0
   37.9276   27.6183    6.8726 O   0  0  0  0  0  0  0  0  0  0  0  0
   37.7119   27.0057    5.6600 C   0  0  1  0  0  0  0  0  0  0  0  0
   40.1016   28.5047   -2.0952 N   0  0  0  0  0  0  0  0  0  0  0  0
   38.8298   26.6848    4.8796 O   0  0  0  0  0  0  0  0  0  0  0  0
   39.8264   27.7053    4.4094 C   0  0  2  0  0  0  0  0  0  0  0  0
   35.4495   27.9818    2.5104 N   0  0  0  0  0  0  0  0  0  0  0  0
   41.4060   26.9764    6.1884 O   0  0  0  0  0  0  0  0  0  0  0  0
   40.6913   28.1401    5.6294 C   0  0  1  0  0  0  0  0  0  0  0  0
   38.3429   28.5844    2.7189 O   0  0  0  0  0  0  0  0  0  0  0  0
   41.7700   29.2486    5.1819 C   0  0  1  0  0  0  0  0  0  0  0  0
   38.1588   29.9186    0.7565 O   0  0  0  0  0  0  0  0  0  0  0  0
   40.9702   30.4872    4.5848 C   0  0  0  0  0  0  0  0  0  0  0  0
   37.8408   27.1306   -1.6923 O   0  0  0  0  0  0  0  0  0  0  0  0
   40.0857   29.9786    3.3717 C   0  0  1  0  0  0  0  0  0  0  0  0
   35.4632   26.7376   -0.1604 O   0  0  0  0  0  0  0  0  0  0  0  0
   39.0691   28.9764    3.8176 C   0  0  2  0  0  0  0  0  0  0  0  0
   35.9848   25.5699    4.8569 O   0  0  0  0  0  0  0  0  0  0  0  0
   37.4076   29.3736    1.9398 C   0  0  1  0  0  0  0  0  0  0  0  0
   34.9680   27.1291    6.9055 O   0  0  0  0  0  0  0  0  0  0  0  0
   38.6575   28.8838   -0.2430 C   0  0  2  0  0  0  0  0  0  0  0  0
   39.4204   29.5779   -1.3653 C   0  0  0  0  0  0  0  0  0  0  0  0
   37.4296   28.1123   -0.7794 C   0  0  2  0  0  0  0  0  0  0  0  0
   36.6593   27.4642    0.3589 C   0  0  1  0  0  0  0  0  0  0  0  0
   36.2263   28.5638    1.3463 C   0  0  1  0  0  0  0  0  0  0  0  0
   36.7871   25.8348    5.9502 C   0  0  2  0  0  0  0  0  0  0  0  0
   36.0591   26.2362    7.2732 C   0  0  1  0  0  0  0  0  0  0  0  0
  1  3  1  0  0  0  0
  4  1  1  6  0  0  0
  4  6  1  0  0  0  0
  4 31  1  0  0  0  0
  6  7  1  0  0  0  0
  7  9  1  1  0  0  0
  7 30  1  0  0  0  0
  8 26  1  0  0  0  0
 10  9  1  1  0  0  0
 10 13  1  0  0  0  0
 10 21  1  0  0  0  0
 13 12  1  6  0  0  0
 13 15  1  0  0  0  0
 15  2  1  1  0  0  0
 15 17  1  0  0  0  0
 16 25  1  0  0  0  0
 16 23  1  0  0  0  0
 17 19  1  0  0  0  0
 19  5  1  1  0  0  0
 19 21  1  0  0  0  0
 21 14  1  6  0  0  0
 23 14  1  6  0  0  0
 23 29  1  0  0  0  0
 25 26  1  6  0  0  0
 25 27  1  0  0  0  0
 27 18  1  6  0  0  0
 27 28  1  0  0  0  0
 28 20  1  6  0  0  0
 28 29  1  0  0  0  0
 29 11  1  1  0  0  0
 30 22  1  6  0  0  0
 30 31  1  0  0  0  0
 31 24  1  6  0  0  0
M  END
>  <CHROM.1>
-56.09731292,-58.39140240,73.25971353,95.99782529,173.82716656,167.79642222
38.33670380,27.94873409,3.66457531,1.53559610,0.49331439,1.81493381

>  <Name>
ligand

>  <RI>
0

>  <Rbt.Current_Directory>
/home/itssahil/PROJECTS/Mol_Feturizer/New_Systems/rnas/2ET5

>  <Rbt.Executable>
rbdock ($Id: //depot/dev/client3/rdock/2013.1/src/exe/rbdock.cxx#4 $)

>  <Rbt.Library>
libRbt.so (2013.1, Build901 2013/11/27)

>  <Rbt.Parameter_File>
/export/apps/rDock/src/rDock_2013.1_src/data/scripts/dock_solv.prm

>  <Rbt.Receptor>
prm/pocket_docking_7.prm

>  <SCORE>
-5.4679

>  <SCORE.INTER>
-4.98316

>  <SCORE.INTER.CONST>
1

>  <SCORE.INTER.POLAR>
0

>  <SCORE.INTER.ROT>
6

>  <SCORE.INTER.SOLV>
9.39553

>  <SCORE.INTER.VDW>
-14.054

>  <SCORE.INTER.norm>
-0.160747

>  <SCORE.INTRA>
-0.484734

>  <SCORE.INTRA.DIHEDRAL>
-4.81972

>  <SCORE.INTRA.DIHEDRAL.0>
11.2357

>  <SCORE.INTRA.POLAR>
0

>  <SCORE.INTRA.POLAR.0>
0

>  <SCORE.INTRA.REPUL>
0.000495759

>  <SCORE.INTRA.REPUL.0>
0

>  <SCORE.INTRA.SOLV>
0.751657

>  <SCORE.INTRA.SOLV.lig_0>
-83.3092

>  <SCORE.INTRA.VDW>
1.54682

>  <SCORE.INTRA.VDW.0>
-4.47057

>  <SCORE.INTRA.norm>
-0.0156366

>  <SCORE.RESTR>
0

>  <SCORE.RESTR.CAVITY>
0

>  <SCORE.RESTR.norm>
0

>  <SCORE.SYSTEM>
0

>  <SCORE.SYSTEM.CONST>
0

>  <SCORE.SYSTEM.DIHEDRAL>
0

>  <SCORE.SYSTEM.SOLV>
0

>  <SCORE.SYSTEM.norm>
0

>  <SCORE.heavy>
31

>  <SCORE.norm>
-0.176384

>  <RMSD>
8.420

$$$$
ligand
 OpenBabel11021811433D
libRbt.so/2013.1/901 2013/11/27
 31 33  0  0  0  0  0  0  0  0999 V2000
   44.2088   21.8939    3.1423 C   0  0  0  0  0  0  0  0  0  0  0  0
   49.6088   17.2992    4.9987 N   0  0  0  0  0  0  0  0  0  0  0  0
   45.5789   22.3203    3.1190 O   0  0  0  0  0  0  0  0  0  0  0  0
   44.0475   21.0688    1.8682 C   0  0  1  0  0  0  0  0  0  0  0  0
   49.0968   18.1306    0.0213 N   0  0  0  0  0  0  0  0  0  0  0  0
   45.0063   19.8990    1.7404 O   0  0  0  0  0  0  0  0  0  0  0  0
   44.4104   18.6752    1.9390 C   0  0  1  0  0  0  0  0  0  0  0  0
   44.1969   13.2463    1.3314 N   0  0  0  0  0  0  0  0  0  0  0  0
   45.0287   17.7804    2.8213 O   0  0  0  0  0  0  0  0  0  0  0  0
   46.4180   17.2483    2.6154 C   0  0  2  0  0  0  0  0  0  0  0  0
   45.7889   17.3801   -2.6549 N   0  0  0  0  0  0  0  0  0  0  0  0
   46.6390   16.8881    5.0675 O   0  0  0  0  0  0  0  0  0  0  0  0
   47.2498   17.5481    3.8975 C   0  0  1  0  0  0  0  0  0  0  0  0
   46.3758   17.6573    0.2359 O   0  0  0  0  0  0  0  0  0  0  0  0
   48.7572   17.0097    3.7233 C   0  0  1  0  0  0  0  0  0  0  0  0
   45.7723   15.3738    0.5298 O   0  0  0  0  0  0  0  0  0  0  0  0
   49.3867   17.7381    2.4570 C   0  0  0  0  0  0  0  0  0  0  0  0
   42.0907   15.7982    0.1606 O   0  0  0  0  0  0  0  0  0  0  0  0
   48.4819   17.4245    1.1938 C   0  0  1  0  0  0  0  0  0  0  0  0
   42.9587   16.5882   -2.4426 O   0  0  0  0  0  0  0  0  0  0  0  0
   47.0976   17.9640    1.3643 C   0  0  2  0  0  0  0  0  0  0  0  0
   42.1431   17.9427    1.8293 O   0  0  0  0  0  0  0  0  0  0  0  0
   46.2968   16.3834   -0.4537 C   0  0  1  0  0  0  0  0  0  0  0  0
   42.4421   20.1650    0.2064 O   0  0  0  0  0  0  0  0  0  0  0  0
   44.3447   15.5987    1.0094 C   0  0  2  0  0  0  0  0  0  0  0  0
   43.9644   14.5204    2.0174 C   0  0  0  0  0  0  0  0  0  0  0  0
   43.4191   15.5748   -0.2289 C   0  0  2  0  0  0  0  0  0  0  0  0
   43.8417   16.6279   -1.2396 C   0  0  1  0  0  0  0  0  0  0  0  0
   45.3035   16.3607   -1.6438 C   0  0  1  0  0  0  0  0  0  0  0  0
   42.9550   18.9745    2.2598 C   0  0  2  0  0  0  0  0  0  0  0  0
   42.7003   20.3790    1.6244 C   0  0  1  0  0  0  0  0  0  0  0  0
  1  3  1  0  0  0  0
  4  1  1  1  0  0  0
  4  6  1  0  0  0  0
  4 31  1  0  0  0  0
  6  7  1  0  0  0  0
  7  9  1  1  0  0  0
  7 30  1  0  0  0  0
  8 26  1  0  0  0  0
 10  9  1  1  0  0  0
 10 13  1  0  0  0  0
 10 21  1  0  0  0  0
 13 12  1  1  0  0  0
 13 15  1  0  0  0  0
 15  2  1  1  0  0  0
 15 17  1  0  0  0  0
 16 25  1  0  0  0  0
 16 23  1  0  0  0  0
 17 19  1  0  0  0  0
 19  5  1  6  0  0  0
 19 21  1  0  0  0  0
 21 14  1  6  0  0  0
 23 14  1  1  0  0  0
 23 29  1  0  0  0  0
 25 26  1  1  0  0  0
 25 27  1  0  0  0  0
 27 18  1  1  0  0  0
 27 28  1  0  0  0  0
 28 20  1  6  0  0  0
 28 29  1  0  0  0  0
 29 11  1  6  0  0  0
 30 22  1  6  0  0  0
 30 31  1  0  0  0  0
 31 24  1  6  0  0  0
M  END
>  <CHROM.1>
56.94585286,-60.66696625,125.37482086,59.05779719,-71.13205532,-55.46714309
45.29866783,17.67818514,1.37227884,0.59467361,-0.49874493,0.52901678

>  <Name>
ligand

>  <RI>
0

>  <Rbt.Current_Directory>
/home/itssahil/PROJECTS/Mol_Feturizer/New_Systems/rnas/2ET5

>  <Rbt.Executable>
rbdock ($Id: //depot/dev/client3/rdock/2013.1/src/exe/rbdock.cxx#4 $)

>  <Rbt.Library>
libRbt.so (2013.1, Build901 2013/11/27)

>  <Rbt.Parameter_File>
/export/apps/rDock/src/rDock_2013.1_src/data/scripts/dock_solv.prm

>  <Rbt.Receptor>
prm/pocket_docking_6.prm

>  <SCORE>
-8.03986

>  <SCORE.INTER>
-7.21984

>  <SCORE.INTER.CONST>
1

>  <SCORE.INTER.POLAR>
0

>  <SCORE.INTER.ROT>
6

>  <SCORE.INTER.SOLV>
17.2065

>  <SCORE.INTER.VDW>
-18.1487

>  <SCORE.INTER.norm>
-0.232898

>  <SCORE.INTRA>
-0.828807

>  <SCORE.INTRA.DIHEDRAL>
-3.32995

>  <SCORE.INTRA.DIHEDRAL.0>
11.2357

>  <SCORE.INTRA.POLAR>
0

>  <SCORE.INTRA.POLAR.0>
0

>  <SCORE.INTRA.REPUL>
0.0135717

>  <SCORE.INTRA.REPUL.0>
0

>  <SCORE.INTRA.SOLV>
-0.870572

>  <SCORE.INTRA.SOLV.lig_0>
-83.3092

>  <SCORE.INTRA.VDW>
1.2036

>  <SCORE.INTRA.VDW.0>
-4.47057

>  <SCORE.INTRA.norm>
-0.0267357

>  <SCORE.RESTR>
0.00878913

>  <SCORE.RESTR.CAVITY>
0.00878913

>  <SCORE.RESTR.norm>
0.00028352

>  <SCORE.SYSTEM>
0

>  <SCORE.SYSTEM.CONST>
0

>  <SCORE.SYSTEM.DIHEDRAL>
0

>  <SCORE.SYSTEM.SOLV>
0

>  <SCORE.SYSTEM.norm>
0

>  <SCORE.heavy>
31

>  <SCORE.norm>
-0.25935

>  <RMSD>
8.422

$$$$
ligand
 OpenBabel11021811433D
libRbt.so/2013.1/901 2013/11/27
 31 33  0  0  0  0  0  0  0  0999 V2000
   45.0160   20.7964    2.4961 C   0  0  0  0  0  0  0  0  0  0  0  0
   46.7758   17.7399    4.6166 N   0  0  0  0  0  0  0  0  0  0  0  0
   45.9664   21.5843    1.7643 O   0  0  0  0  0  0  0  0  0  0  0  0
   43.8636   20.5880    1.5169 C   0  0  1  0  0  0  0  0  0  0  0  0
   49.2912   18.6571    0.3084 N   0  0  0  0  0  0  0  0  0  0  0  0
   44.2048   19.7468    0.3004 O   0  0  0  0  0  0  0  0  0  0  0  0
   43.6630   18.4829    0.3362 C   0  0  1  0  0  0  0  0  0  0  0  0
   42.9125   16.4419   -1.6119 N   0  0  0  0  0  0  0  0  0  0  0  0
   44.5087   17.3993    0.0675 O   0  0  0  0  0  0  0  0  0  0  0  0
   45.7982   17.1597    0.7993 C   0  0  2  0  0  0  0  0  0  0  0  0
   49.2670   16.6731   -2.9713 N   0  0  0  0  0  0  0  0  0  0  0  0
   44.5261   16.7502    2.8983 O   0  0  0  0  0  0  0  0  0  0  0  0
   45.5955   17.5647    2.2895 C   0  0  1  0  0  0  0  0  0  0  0  0
   47.1542   17.6493   -1.1378 O   0  0  0  0  0  0  0  0  0  0  0  0
   46.9574   17.3410    3.1188 C   0  0  1  0  0  0  0  0  0  0  0  0
   45.7917   15.8160   -1.8069 O   0  0  0  0  0  0  0  0  0  0  0  0
   48.0879   18.2300    2.4393 C   0  0  0  0  0  0  0  0  0  0  0  0
   44.9093   17.0843   -5.1956 O   0  0  0  0  0  0  0  0  0  0  0  0
   48.2255   17.7965    0.9208 C   0  0  1  0  0  0  0  0  0  0  0  0
   47.7336   16.7780   -5.4852 O   0  0  0  0  0  0  0  0  0  0  0  0
   46.9601   18.0457    0.1635 C   0  0  2  0  0  0  0  0  0  0  0  0
   41.8400   17.5376    1.5496 O   0  0  0  0  0  0  0  0  0  0  0  0
   47.2090   16.2968   -1.6598 C   0  0  1  0  0  0  0  0  0  0  0  0
   41.4159   20.2595    1.2794 O   0  0  0  0  0  0  0  0  0  0  0  0
   44.9480   16.5528   -2.8383 C   0  0  2  0  0  0  0  0  0  0  0  0
   43.5364   15.9778   -2.8543 C   0  0  0  0  0  0  0  0  0  0  0  0
   45.6410   16.4031   -4.2123 C   0  0  2  0  0  0  0  0  0  0  0  0
   47.0607   16.9428   -4.1629 C   0  0  1  0  0  0  0  0  0  0  0  0
   47.8369   16.1812   -3.0725 C   0  0  1  0  0  0  0  0  0  0  0  0
   42.9205   18.3918    1.6594 C   0  0  2  0  0  0  0  0  0  0  0  0
   42.6055   19.8769    2.0287 C   0  0  1  0  0  0  0  0  0  0  0  0
  1  3  1  0  0  0  0
  4  1  1  1  0  0  0
  4  6  1  0  0  0  0
  4 31  1  0  0  0  0
  6  7  1  0  0  0  0
  7  9  1  1  0  0  0
  7 30  1  0  0  0  0
  8 26  1  0  0  0  0
 10  9  1  6  0  0  0
 10 13  1  0  0  0  0
 10 21  1  0  0  0  0
 13 12  1  1  0  0  0
 13 15  1  0  0  0  0
 15  2  1  1  0  0  0
 15 17  1  0  0  0  0
 16 25  1  0  0  0  0
 16 23  1  0  0  0  0
 17 19  1  0  0  0  0
 19  5  1  6  0  0  0
 19 21  1  0  0  0  0
 21 14  1  6  0  0  0
 23 14  1  6  0  0  0
 23 29  1  0  0  0  0
 25 26  1  6  0  0  0
 25 27  1  0  0  0  0
 27 18  1  6  0  0  0
 27 28  1  0  0  0  0
 28 20  1  6  0  0  0
 28 29  1  0  0  0  0
 29 11  1  1  0  0  0
 30 22  1  6  0  0  0
 30 31  1  0  0  0  0
 31 24  1  6  0  0  0
M  END
>  <CHROM.1>
66.01706171,53.87802176,36.92810193,79.95634425,-43.22439038,72.36566888
45.51820927,17.84547751,-0.22435829,-1.92385022,0.13064635,-1.92325128

>  <Name>
ligand

>  <RI>
0

>  <Rbt.Current_Directory>
/home/itssahil/PROJECTS/Mol_Feturizer/New_Systems/rnas/2ET5

>  <Rbt.Executable>
rbdock ($Id: //depot/dev/client3/rdock/2013.1/src/exe/rbdock.cxx#4 $)

>  <Rbt.Library>
libRbt.so (2013.1, Build901 2013/11/27)

>  <Rbt.Parameter_File>
/export/apps/rDock/src/rDock_2013.1_src/data/scripts/dock_solv.prm

>  <Rbt.Receptor>
prm/blind_docking_60.prm

>  <SCORE>
23.9699

>  <SCORE.INTER>
4.9942

>  <SCORE.INTER.CONST>
1

>  <SCORE.INTER.POLAR>
0

>  <SCORE.INTER.ROT>
6

>  <SCORE.INTER.SOLV>
22.2408

>  <SCORE.INTER.VDW>
-11.6841

>  <SCORE.INTER.norm>
0.161103

>  <SCORE.INTRA>
1.17297

>  <SCORE.INTRA.DIHEDRAL>
-4.85249

>  <SCORE.INTRA.DIHEDRAL.0>
11.2357

>  <SCORE.INTRA.POLAR>
0

>  <SCORE.INTRA.POLAR.0>
0

>  <SCORE.INTRA.REPUL>
0

>  <SCORE.INTRA.REPUL.0>
0

>  <SCORE.INTRA.SOLV>
2.69111

>  <SCORE.INTRA.SOLV.lig_0>
-83.3092

>  <SCORE.INTRA.VDW>
2.25367

>  <SCORE.INTRA.VDW.0>
-4.47057

>  <SCORE.INTRA.norm>
0.0378378

>  <SCORE.RESTR>
17.8027

>  <SCORE.RESTR.CAVITY>
17.8027

>  <SCORE.RESTR.norm>
0.574282

>  <SCORE.SYSTEM>
0

>  <SCORE.SYSTEM.CONST>
0

>  <SCORE.SYSTEM.DIHEDRAL>
0

>  <SCORE.SYSTEM.SOLV>
0

>  <SCORE.SYSTEM.norm>
0

>  <SCORE.heavy>
31

>  <SCORE.norm>
0.773223

>  <RMSD>
8.452

$$$$
ligand
 OpenBabel11021811433D
libRbt.so/2013.1/901 2013/11/27
 31 33  0  0  0  0  0  0  0  0999 V2000
   37.2017   27.4475   -0.8418 C   0  0  0  0  0  0  0  0  0  0  0  0
   34.1203   24.9896    3.9073 N   0  0  0  0  0  0  0  0  0  0  0  0
   36.0293   26.6408   -0.6560 O   0  0  0  0  0  0  0  0  0  0  0  0
   36.9333   28.7015   -0.0139 C   0  0  1  0  0  0  0  0  0  0  0  0
   35.1880   28.8649    7.0009 N   0  0  0  0  0  0  0  0  0  0  0  0
   36.7026   28.4516    1.4654 O   0  0  0  0  0  0  0  0  0  0  0  0
   37.7590   28.8337    2.2591 C   0  0  1  0  0  0  0  0  0  0  0  0
   39.7442   25.3501    4.7858 N   0  0  0  0  0  0  0  0  0  0  0  0
   38.2289   27.9192    3.2101 O   0  0  0  0  0  0  0  0  0  0  0  0
   37.3505   27.2934    4.2554 C   0  0  2  0  0  0  0  0  0  0  0  0
   38.8480   30.9566    7.8163 N   0  0  0  0  0  0  0  0  0  0  0  0
   36.8270   25.4287    2.6933 O   0  0  0  0  0  0  0  0  0  0  0  0
   36.2317   26.4865    3.5325 C   0  0  1  0  0  0  0  0  0  0  0  0
   37.6834   29.1011    5.8215 O   0  0  0  0  0  0  0  0  0  0  0  0
   35.2494   25.8051    4.6111 C   0  0  1  0  0  0  0  0  0  0  0  0
   39.1584   27.4059    6.6062 O   0  0  0  0  0  0  0  0  0  0  0  0
   34.6252   26.9686    5.4982 C   0  0  0  0  0  0  0  0  0  0  0  0
   42.2842   28.7493    5.0911 O   0  0  0  0  0  0  0  0  0  0  0  0
   35.8087   27.7729    6.1801 C   0  0  1  0  0  0  0  0  0  0  0  0
   41.6486   30.8607    6.9056 O   0  0  0  0  0  0  0  0  0  0  0  0
   36.6867   28.4249    5.1600 C   0  0  2  0  0  0  0  0  0  0  0  0
   39.5806   30.3350    1.9161 O   0  0  0  0  0  0  0  0  0  0  0  0
   38.4347   28.6686    6.9848 C   0  0  1  0  0  0  0  0  0  0  0  0
   37.4736   31.1034    0.2938 O   0  0  0  0  0  0  0  0  0  0  0  0
   40.2307   27.5549    5.5355 C   0  0  2  0  0  0  0  0  0  0  0  0
   40.8529   26.1956    5.2375 C   0  0  0  0  0  0  0  0  0  0  0  0
   41.2822   28.5628    6.0542 C   0  0  2  0  0  0  0  0  0  0  0  0
   40.6342   29.8967    6.3857 C   0  0  1  0  0  0  0  0  0  0  0  0
   39.5365   29.6600    7.4395 C   0  0  1  0  0  0  0  0  0  0  0  0
   38.8216   29.3551    1.3054 C   0  0  2  0  0  0  0  0  0  0  0  0
   38.0225   29.7795    0.0315 C   0  0  1  0  0  0  0  0  0  0  0  0
  1  3  1  0  0  0  0
  4  1  1  6  0  0  0
  4  6  1  0  0  0  0
  4 31  1  0  0  0  0
  6  7  1  0  0  0  0
  7  9  1  6  0  0  0
  7 30  1  0  0  0  0
  8 26  1  0  0  0  0
 10  9  1  6  0  0  0
 10 13  1  0  0  0  0
 10 21  1  0  0  0  0
 13 12  1  1  0  0  0
 13 15  1  0  0  0  0
 15  2  1  6  0  0  0
 15 17  1  0  0  0  0
 16 25  1  0  0  0  0
 16 23  1  0  0  0  0
 17 19  1  0  0  0  0
 19  5  1  1  0  0  0
 19 21  1  0  0  0  0
 21 14  1  1  0  0  0
 23 14  1  6  0  0  0
 23 29  1  0  0  0  0
 25 26  1  1  0  0  0
 25 27  1  0  0  0  0
 27 18  1  6  0  0  0
 27 28  1  0  0  0  0
 28 20  1  1  0  0  0
 28 29  1  0  0  0  0
 29 11  1  6  0  0  0
 30 22  1  1  0  0  0
 30 31  1  0  0  0  0
 31 24  1  1  0  0  0
M  END
>  <CHROM.1>
59.43703183,-55.36211433,60.63551301,60.70309817,-76.89997687,59.37318204
38.06063437,28.19319153,4.04008079,-2.22674424,0.58918921,1.73324023

>  <Name>
ligand

>  <RI>
0

>  <Rbt.Current_Directory>
/home/itssahil/PROJECTS/Mol_Feturizer/New_Systems/rnas/2ET5

>  <Rbt.Executable>
rbdock ($Id: //depot/dev/client3/rdock/2013.1/src/exe/rbdock.cxx#4 $)

>  <Rbt.Library>
libRbt.so (2013.1, Build901 2013/11/27)

>  <Rbt.Parameter_File>
/export/apps/rDock/src/rDock_2013.1_src/data/scripts/dock_solv.prm

>  <Rbt.Receptor>
prm/pocket_docking_7.prm

>  <SCORE>
-6.42542

>  <SCORE.INTER>
-2.12487

>  <SCORE.INTER.CONST>
1

>  <SCORE.INTER.POLAR>
0

>  <SCORE.INTER.ROT>
6

>  <SCORE.INTER.SOLV>
8.08469

>  <SCORE.INTER.VDW>
-11.7115

>  <SCORE.INTER.norm>
-0.0685442

>  <SCORE.INTRA>
-4.30396

>  <SCORE.INTRA.DIHEDRAL>
-9.66845

>  <SCORE.INTRA.DIHEDRAL.0>
11.2357

>  <SCORE.INTRA.POLAR>
0

>  <SCORE.INTRA.POLAR.0>
0

>  <SCORE.INTRA.REPUL>
0

>  <SCORE.INTRA.REPUL.0>
0

>  <SCORE.INTRA.SOLV>
-0.427255

>  <SCORE.INTRA.SOLV.lig_0>
-83.3092

>  <SCORE.INTRA.VDW>
0.743892

>  <SCORE.INTRA.VDW.0>
-4.47057

>  <SCORE.INTRA.norm>
-0.138837

>  <SCORE.RESTR>
0.00341331

>  <SCORE.RESTR.CAVITY>
0.00341331

>  <SCORE.RESTR.norm>
0.000110107

>  <SCORE.SYSTEM>
0

>  <SCORE.SYSTEM.CONST>
0

>  <SCORE.SYSTEM.DIHEDRAL>
0

>  <SCORE.SYSTEM.SOLV>
0

>  <SCORE.SYSTEM.norm>
0

>  <SCORE.heavy>
31

>  <SCORE.norm>
-0.207272

>  <RMSD>
8.479

$$$$
ligand
 OpenBabel11021811433D
libRbt.so/2013.1/901 2013/11/27
 31 33  0  0  0  0  0  0  0  0999 V2000
   45.0203   20.4780    1.7261 C   0  0  0  0  0  0  0  0  0  0  0  0
   48.2889   14.7439   -4.4450 N   0  0  0  0  0  0  0  0  0  0  0  0
   44.9105   21.3780    2.8385 O   0  0  0  0  0  0  0  0  0  0  0  0
   45.9163   19.3527    2.2369 C   0  0  1  0  0  0  0  0  0  0  0  0
   43.7785   16.9552   -3.7417 N   0  0  0  0  0  0  0  0  0  0  0  0
   46.1424   18.2205    1.2514 O   0  0  0  0  0  0  0  0  0  0  0  0
   47.4022   18.2153    0.6993 C   0  0  1  0  0  0  0  0  0  0  0  0
   41.0398   14.9716    0.1238 N   0  0  0  0  0  0  0  0  0  0  0  0
   47.5076   18.0990   -0.6924 O   0  0  0  0  0  0  0  0  0  0  0  0
   46.8694   16.9886   -1.4769 C   0  0  2  0  0  0  0  0  0  0  0  0
   43.0887   20.4490   -1.0714 N   0  0  0  0  0  0  0  0  0  0  0  0
   49.1061   15.9558   -1.8265 O   0  0  0  0  0  0  0  0  0  0  0  0
   47.9060   16.4677   -2.5159 C   0  0  1  0  0  0  0  0  0  0  0  0
   44.6599   17.9485   -1.3105 O   0  0  0  0  0  0  0  0  0  0  0  0
   47.2654   15.2819   -3.3970 C   0  0  1  0  0  0  0  0  0  0  0  0
   42.6607   16.7118   -0.9383 O   0  0  0  0  0  0  0  0  0  0  0  0
   45.9768   15.8640   -4.1257 C   0  0  0  0  0  0  0  0  0  0  0  0
   42.3384   17.4048    2.7068 O   0  0  0  0  0  0  0  0  0  0  0  0
   44.9763   16.4074   -3.0229 C   0  0  1  0  0  0  0  0  0  0  0  0
   42.0563   20.0460    1.6587 O   0  0  0  0  0  0  0  0  0  0  0  0
   45.5803   17.5302   -2.2412 C   0  0  2  0  0  0  0  0  0  0  0  0
   49.4716   19.1861    1.3808 O   0  0  0  0  0  0  0  0  0  0  0  0
   43.2172   18.0122   -1.4488 C   0  0  1  0  0  0  0  0  0  0  0  0
   47.8954   18.7822    3.6201 O   0  0  0  0  0  0  0  0  0  0  0  0
   42.8561   16.4481    0.5486 C   0  0  2  0  0  0  0  0  0  0  0  0
   42.2701   15.0887    0.9118 C   0  0  0  0  0  0  0  0  0  0  0  0
   42.1682   17.5929    1.3278 C   0  0  2  0  0  0  0  0  0  0  0  0
   42.7368   18.9418    0.9197 C   0  0  1  0  0  0  0  0  0  0  0  0
   42.5410   19.1176   -0.5976 C   0  0  1  0  0  0  0  0  0  0  0  0
   48.1135   19.4228    1.2879 C   0  0  2  0  0  0  0  0  0  0  0  0
   47.3573   19.7020    2.6264 C   0  0  1  0  0  0  0  0  0  0  0  0
  1  3  1  0  0  0  0
  4  1  1  6  0  0  0
  4  6  1  0  0  0  0
  4 31  1  0  0  0  0
  6  7  1  0  0  0  0
  7  9  1  6  0  0  0
  7 30  1  0  0  0  0
  8 26  1  0  0  0  0
 10  9  1  6  0  0  0
 10 13  1  0  0  0  0
 10 21  1  0  0  0  0
 13 12  1  1  0  0  0
 13 15  1  0  0  0  0
 15  2  1  6  0  0  0
 15 17  1  0  0  0  0
 16 25  1  0  0  0  0
 16 23  1  0  0  0  0
 17 19  1  0  0  0  0
 19  5  1  6  0  0  0
 19 21  1  0  0  0  0
 21 14  1  1  0  0  0
 23 14  1  1  0  0  0
 23 29  1  0  0  0  0
 25 26  1  1  0  0  0
 25 27  1  0  0  0  0
 27 18  1  1  0  0  0
 27 28  1  0  0  0  0
 28 20  1  1  0  0  0
 28 29  1  0  0  0  0
 29 11  1  6  0  0  0
 30 22  1  1  0  0  0
 30 31  1  0  0  0  0
 31 24  1  1  0  0  0
M  END
>  <CHROM.1>
177.41283834,-54.08736188,-135.78146056,92.39756806,-153.42313070,-38.64422585
45.21406098,17.82407731,-0.17165027,-2.12489816,-0.08943332,-2.18885420

>  <Name>
ligand

>  <RI>
0

>  <Rbt.Current_Directory>
/home/itssahil/PROJECTS/Mol_Feturizer/New_Systems/rnas/2ET5

>  <Rbt.Executable>
rbdock ($Id: //depot/dev/client3/rdock/2013.1/src/exe/rbdock.cxx#4 $)

>  <Rbt.Library>
libRbt.so (2013.1, Build901 2013/11/27)

>  <Rbt.Parameter_File>
/export/apps/rDock/src/rDock_2013.1_src/data/scripts/dock_solv.prm

>  <Rbt.Receptor>
prm/blind_docking_60.prm

>  <SCORE>
32.3358

>  <SCORE.INTER>
7.50577

>  <SCORE.INTER.CONST>
1

>  <SCORE.INTER.POLAR>
0

>  <SCORE.INTER.ROT>
6

>  <SCORE.INTER.SOLV>
28.0244

>  <SCORE.INTER.VDW>
-11.9376

>  <SCORE.INTER.norm>
0.242122

>  <SCORE.INTRA>
6.77009

>  <SCORE.INTRA.DIHEDRAL>
3.58226

>  <SCORE.INTRA.DIHEDRAL.0>
11.2357

>  <SCORE.INTRA.POLAR>
0

>  <SCORE.INTRA.POLAR.0>
0

>  <SCORE.INTRA.REPUL>
0.287521

>  <SCORE.INTRA.REPUL.0>
0

>  <SCORE.INTRA.SOLV>
0.774001

>  <SCORE.INTRA.SOLV.lig_0>
-83.3092

>  <SCORE.INTRA.VDW>
3.15436

>  <SCORE.INTRA.VDW.0>
-4.47057

>  <SCORE.INTRA.norm>
0.21839

>  <SCORE.RESTR>
18.06

>  <SCORE.RESTR.CAVITY>
18.06

>  <SCORE.RESTR.norm>
0.58258

>  <SCORE.SYSTEM>
0

>  <SCORE.SYSTEM.CONST>
0

>  <SCORE.SYSTEM.DIHEDRAL>
0

>  <SCORE.SYSTEM.SOLV>
0

>  <SCORE.SYSTEM.norm>
0

>  <SCORE.heavy>
31

>  <SCORE.norm>
1.04309

>  <RMSD>
8.492

$$$$
ligand
 OpenBabel11021811433D
libRbt.so/2013.1/901 2013/11/27
 31 33  0  0  0  0  0  0  0  0999 V2000
   44.8406   20.7573    1.4631 C   0  0  0  0  0  0  0  0  0  0  0  0
   49.2646   15.2177   -4.0283 N   0  0  0  0  0  0  0  0  0  0  0  0
   44.9152   21.7778    2.4694 O   0  0  0  0  0  0  0  0  0  0  0  0
   45.3081   19.4900    2.1741 C   0  0  1  0  0  0  0  0  0  0  0  0
   44.4938   16.9232   -3.7847 N   0  0  0  0  0  0  0  0  0  0  0  0
   45.6875   18.3450    1.2526 O   0  0  0  0  0  0  0  0  0  0  0  0
   47.0436   18.1283    1.1741 C   0  0  1  0  0  0  0  0  0  0  0  0
   42.6868   14.0724   -0.0078 N   0  0  0  0  0  0  0  0  0  0  0  0
   47.6158   18.0086   -0.0986 O   0  0  0  0  0  0  0  0  0  0  0  0
   47.2142   16.9506   -1.0860 C   0  0  2  0  0  0  0  0  0  0  0  0
   43.4487   20.2530   -1.3492 N   0  0  0  0  0  0  0  0  0  0  0  0
   49.5734   16.1680   -1.2007 O   0  0  0  0  0  0  0  0  0  0  0  0
   48.4355   16.6531   -2.0054 C   0  0  1  0  0  0  0  0  0  0  0  0
   44.9151   17.6858   -1.1551 O   0  0  0  0  0  0  0  0  0  0  0  0
   48.0530   15.5322   -3.0962 C   0  0  1  0  0  0  0  0  0  0  0  0
   42.8246   16.5549   -1.0288 O   0  0  0  0  0  0  0  0  0  0  0  0
   46.8263   16.0837   -3.9454 C   0  0  0  0  0  0  0  0  0  0  0  0
   41.9578   17.5351    2.4582 O   0  0  0  0  0  0  0  0  0  0  0  0
   45.6290   16.3988   -2.9554 C   0  0  1  0  0  0  0  0  0  0  0  0
   41.9750   20.0973    1.1975 O   0  0  0  0  0  0  0  0  0  0  0  0
   45.9961   17.4664   -1.9746 C   0  0  2  0  0  0  0  0  0  0  0  0
   48.8623   18.7226    2.5984 O   0  0  0  0  0  0  0  0  0  0  0  0
   43.5178   17.7914   -1.5307 C   0  0  1  0  0  0  0  0  0  0  0  0
   46.5521   18.5749    4.1160 O   0  0  0  0  0  0  0  0  0  0  0  0
   42.7669   16.3985    0.4848 C   0  0  2  0  0  0  0  0  0  0  0  0
   42.0653   15.0929    0.8410 C   0  0  0  0  0  0  0  0  0  0  0  0
   42.0195   17.6236    1.0601 C   0  0  2  0  0  0  0  0  0  0  0  0
   42.7106   18.9158    0.6577 C   0  0  1  0  0  0  0  0  0  0  0  0
   42.7686   18.9824   -0.8797 C   0  0  1  0  0  0  0  0  0  0  0  0
   47.6808   19.1901    2.0557 C   0  0  2  0  0  0  0  0  0  0  0  0
   46.5533   19.5827    3.0637 C   0  0  1  0  0  0  0  0  0  0  0  0
  1  3  1  0  0  0  0
  4  1  1  6  0  0  0
  4  6  1  0  0  0  0
  4 31  1  0  0  0  0
  6  7  1  0  0  0  0
  7  9  1  6  0  0  0
  7 30  1  0  0  0  0
  8 26  1  0  0  0  0
 10  9  1  1  0  0  0
 10 13  1  0  0  0  0
 10 21  1  0  0  0  0
 13 12  1  1  0  0  0
 13 15  1  0  0  0  0
 15  2  1  6  0  0  0
 15 17  1  0  0  0  0
 16 25  1  0  0  0  0
 16 23  1  0  0  0  0
 17 19  1  0  0  0  0
 19  5  1  6  0  0  0
 19 21  1  0  0  0  0
 21 14  1  1  0  0  0
 23 14  1  1  0  0  0
 23 29  1  0  0  0  0
 25 26  1  6  0  0  0
 25 27  1  0  0  0  0
 27 18  1  1  0  0  0
 27 28  1  0  0  0  0
 28 20  1  6  0  0  0
 28 29  1  0  0  0  0
 29 11  1  1  0  0  0
 30 22  1  1  0  0  0
 30 31  1  0  0  0  0
 31 24  1  1  0  0  0
M  END
>  <CHROM.1>
-163.95857116,-59.78488780,-152.04674135,109.17874012,-161.18550951,47.76494341
45.30193056,17.79862943,-0.04298823,-2.21734044,-0.03990826,-2.18973205

>  <Name>
ligand

>  <RI>
0

>  <Rbt.Current_Directory>
/home/itssahil/PROJECTS/Mol_Feturizer/New_Systems/rnas/2ET5

>  <Rbt.Executable>
rbdock ($Id: //depot/dev/client3/rdock/2013.1/src/exe/rbdock.cxx#4 $)

>  <Rbt.Library>
libRbt.so (2013.1, Build901 2013/11/27)

>  <Rbt.Parameter_File>
/export/apps/rDock/src/rDock_2013.1_src/data/scripts/dock_solv.prm

>  <Rbt.Receptor>
prm/blind_docking_60.prm

>  <SCORE>
33.64

>  <SCORE.INTER>
8.14907

>  <SCORE.INTER.CONST>
1

>  <SCORE.INTER.POLAR>
0

>  <SCORE.INTER.ROT>
6

>  <SCORE.INTER.SOLV>
22.3266

>  <SCORE.INTER.VDW>
-9.60947

>  <SCORE.INTER.norm>
0.262873

>  <SCORE.INTRA>
8.04163

>  <SCORE.INTRA.DIHEDRAL>
1.70201

>  <SCORE.INTRA.DIHEDRAL.0>
11.2357

>  <SCORE.INTRA.POLAR>
0

>  <SCORE.INTRA.POLAR.0>
0

>  <SCORE.INTRA.REPUL>
0.828279

>  <SCORE.INTRA.REPUL.0>
0

>  <SCORE.INTRA.SOLV>
0.53555

>  <SCORE.INTRA.SOLV.lig_0>
-83.3092

>  <SCORE.INTRA.VDW>
2.78145

>  <SCORE.INTRA.VDW.0>
-4.47057

>  <SCORE.INTRA.norm>
0.259407

>  <SCORE.RESTR>
17.4493

>  <SCORE.RESTR.CAVITY>
17.4493

>  <SCORE.RESTR.norm>
0.562882

>  <SCORE.SYSTEM>
0

>  <SCORE.SYSTEM.CONST>
0

>  <SCORE.SYSTEM.DIHEDRAL>
0

>  <SCORE.SYSTEM.SOLV>
0

>  <SCORE.SYSTEM.norm>
0

>  <SCORE.heavy>
31

>  <SCORE.norm>
1.08516

>  <RMSD>
8.494

$$$$
ligand
 OpenBabel11021811433D
libRbt.so/2013.1/901 2013/11/27
 31 33  0  0  0  0  0  0  0  0999 V2000
   47.5166   19.9757    2.4557 C   0  0  0  0  0  0  0  0  0  0  0  0
   48.6137   13.8716   -3.4158 N   0  0  0  0  0  0  0  0  0  0  0  0
   48.2480   18.7412    2.4781 O   0  0  0  0  0  0  0  0  0  0  0  0
   46.0920   19.5648    2.0924 C   0  0  1  0  0  0  0  0  0  0  0  0
   46.3763   18.3677   -4.1280 N   0  0  0  0  0  0  0  0  0  0  0  0
   45.9716   18.7277    0.8320 O   0  0  0  0  0  0  0  0  0  0  0  0
   45.6929   17.4030    1.0760 C   0  0  1  0  0  0  0  0  0  0  0  0
   43.2320   14.7140    1.5084 N   0  0  0  0  0  0  0  0  0  0  0  0
   46.4766   16.4384    0.4305 O   0  0  0  0  0  0  0  0  0  0  0  0
   46.3449   16.1129   -1.0298 C   0  0  2  0  0  0  0  0  0  0  0  0
   43.4069   20.4872   -1.6097 N   0  0  0  0  0  0  0  0  0  0  0  0
   47.4770   13.9314   -0.6414 O   0  0  0  0  0  0  0  0  0  0  0  0
   47.5250   15.1782   -1.4292 C   0  0  1  0  0  0  0  0  0  0  0  0
   45.3426   18.2446   -1.5609 O   0  0  0  0  0  0  0  0  0  0  0  0
   47.4399   14.8096   -2.9942 C   0  0  1  0  0  0  0  0  0  0  0  0
   43.5119   16.7246   -1.6216 O   0  0  0  0  0  0  0  0  0  0  0  0
   47.4937   16.1713   -3.8146 C   0  0  0  0  0  0  0  0  0  0  0  0
   42.3721   17.2043    1.8914 O   0  0  0  0  0  0  0  0  0  0  0  0
   46.2924   17.0917   -3.3430 C   0  0  1  0  0  0  0  0  0  0  0  0
   41.9215   19.8235    0.8469 O   0  0  0  0  0  0  0  0  0  0  0  0
   46.4117   17.4489   -1.8957 C   0  0  2  0  0  0  0  0  0  0  0  0
   44.7632   16.2645    2.9546 O   0  0  0  0  0  0  0  0  0  0  0  0
   43.9628   18.1114   -1.9890 C   0  0  1  0  0  0  0  0  0  0  0  0
   43.8729   18.8854    2.9697 O   0  0  0  0  0  0  0  0  0  0  0  0
   43.4436   16.4257   -0.1301 C   0  0  2  0  0  0  0  0  0  0  0  0
   43.0021   14.9829    0.0861 C   0  0  0  0  0  0  0  0  0  0  0  0
   42.4545   17.4273    0.5095 C   0  0  2  0  0  0  0  0  0  0  0  0
   42.8895   18.8592    0.2457 C   0  0  1  0  0  0  0  0  0  0  0  0
   42.9764   19.0725   -1.2769 C   0  0  1  0  0  0  0  0  0  0  0  0
   45.6420   17.2661    2.5891 C   0  0  2  0  0  0  0  0  0  0  0  0
   45.3134   18.7069    3.0965 C   0  0  1  0  0  0  0  0  0  0  0  0
  1  3  1  0  0  0  0
  4  1  1  1  0  0  0
  4  6  1  0  0  0  0
  4 31  1  0  0  0  0
  6  7  1  0  0  0  0
  7  9  1  1  0  0  0
  7 30  1  0  0  0  0
  8 26  1  0  0  0  0
 10  9  1  1  0  0  0
 10 13  1  0  0  0  0
 10 21  1  0  0  0  0
 13 12  1  1  0  0  0
 13 15  1  0  0  0  0
 15  2  1  6  0  0  0
 15 17  1  0  0  0  0
 16 25  1  0  0  0  0
 16 23  1  0  0  0  0
 17 19  1  0  0  0  0
 19  5  1  6  0  0  0
 19 21  1  0  0  0  0
 21 14  1  1  0  0  0
 23 14  1  1  0  0  0
 23 29  1  0  0  0  0
 25 26  1  6  0  0  0
 25 27  1  0  0  0  0
 27 18  1  1  0  0  0
 27 28  1  0  0  0  0
 28 20  1  6  0  0  0
 28 29  1  0  0  0  0
 29 11  1  1  0  0  0
 30 22  1  6  0  0  0
 30 31  1  0  0  0  0
 31 24  1  6  0  0  0
M  END
>  <CHROM.1>
-53.32166750,-74.07293031,170.76110879,55.69843881,-78.13848673,168.68556825
45.21955668,17.32943324,-0.10441720,-2.18436278,0.45583010,-1.84483279

>  <Name>
ligand

>  <RI>
0

>  <Rbt.Current_Directory>
/home/itssahil/PROJECTS/Mol_Feturizer/New_Systems/rnas/2ET5

>  <Rbt.Executable>
rbdock ($Id: //depot/dev/client3/rdock/2013.1/src/exe/rbdock.cxx#4 $)

>  <Rbt.Library>
libRbt.so (2013.1, Build901 2013/11/27)

>  <Rbt.Parameter_File>
/export/apps/rDock/src/rDock_2013.1_src/data/scripts/dock_solv.prm

>  <Rbt.Receptor>
prm/blind_docking_60.prm

>  <SCORE>
37.5485

>  <SCORE.INTER>
17.386

>  <SCORE.INTER.CONST>
1

>  <SCORE.INTER.POLAR>
0

>  <SCORE.INTER.ROT>
6

>  <SCORE.INTER.SOLV>
26.7783

>  <SCORE.INTER.VDW>
-4.93547

>  <SCORE.INTER.norm>
0.560837

>  <SCORE.INTRA>
2.81325

>  <SCORE.INTRA.DIHEDRAL>
-7.57098

>  <SCORE.INTRA.DIHEDRAL.0>
11.2357

>  <SCORE.INTRA.POLAR>
0

>  <SCORE.INTRA.POLAR.0>
0

>  <SCORE.INTRA.REPUL>
0.61947

>  <SCORE.INTRA.REPUL.0>
0

>  <SCORE.INTRA.SOLV>
4.19305

>  <SCORE.INTRA.SOLV.lig_0>
-83.3092

>  <SCORE.INTRA.VDW>
1.40487

>  <SCORE.INTRA.VDW.0>
-4.47057

>  <SCORE.INTRA.norm>
0.0907501

>  <SCORE.RESTR>
17.3493

>  <SCORE.RESTR.CAVITY>
17.3493

>  <SCORE.RESTR.norm>
0.559656

>  <SCORE.SYSTEM>
0

>  <SCORE.SYSTEM.CONST>
0

>  <SCORE.SYSTEM.DIHEDRAL>
0

>  <SCORE.SYSTEM.SOLV>
0

>  <SCORE.SYSTEM.norm>
0

>  <SCORE.heavy>
31

>  <SCORE.norm>
1.21124

>  <RMSD>
8.533

$$$$
ligand
 OpenBabel11021811433D
libRbt.so/2013.1/901 2013/11/27
 31 33  0  0  0  0  0  0  0  0999 V2000
   44.8719   20.9575    1.5672 C   0  0  0  0  0  0  0  0  0  0  0  0
   49.0552   14.1353   -2.8640 N   0  0  0  0  0  0  0  0  0  0  0  0
   46.0955   21.7074    1.5839 O   0  0  0  0  0  0  0  0  0  0  0  0
   45.2203   19.6493    2.2723 C   0  0  1  0  0  0  0  0  0  0  0  0
   45.4433   17.3250   -4.4479 N   0  0  0  0  0  0  0  0  0  0  0  0
   45.5242   18.4865    1.3452 O   0  0  0  0  0  0  0  0  0  0  0  0
   46.8595   18.1609    1.2907 C   0  0  1  0  0  0  0  0  0  0  0  0
   42.5234   14.7388    0.1031 N   0  0  0  0  0  0  0  0  0  0  0  0
   47.4460   18.0077    0.0282 O   0  0  0  0  0  0  0  0  0  0  0  0
   47.0031   16.9723   -0.9656 C   0  0  2  0  0  0  0  0  0  0  0  0
   43.0339   20.3168   -1.9302 N   0  0  0  0  0  0  0  0  0  0  0  0
   48.8101   15.4523   -0.1810 O   0  0  0  0  0  0  0  0  0  0  0  0
   48.2436   16.1211   -1.3681 C   0  0  1  0  0  0  0  0  0  0  0  0
   45.2875   18.3938   -1.8970 O   0  0  0  0  0  0  0  0  0  0  0  0
   47.8257   15.0015   -2.4473 C   0  0  1  0  0  0  0  0  0  0  0  0
   43.7405   16.6614   -1.3767 O   0  0  0  0  0  0  0  0  0  0  0  0
   47.2198   15.7524   -3.7120 C   0  0  0  0  0  0  0  0  0  0  0  0
   43.1234   17.6171    2.1697 O   0  0  0  0  0  0  0  0  0  0  0  0
   45.9853   16.6255   -3.2362 C   0  0  1  0  0  0  0  0  0  0  0  0
   42.0933   19.9212    0.8340 O   0  0  0  0  0  0  0  0  0  0  0  0
   46.4036   17.6798   -2.2615 C   0  0  2  0  0  0  0  0  0  0  0  0
   48.6910   18.5907    2.7572 O   0  0  0  0  0  0  0  0  0  0  0  0
   43.8963   18.0054   -2.0330 C   0  0  1  0  0  0  0  0  0  0  0  0
   46.3458   18.6166    4.2274 O   0  0  0  0  0  0  0  0  0  0  0  0
   43.9640   16.6318    0.1293 C   0  0  2  0  0  0  0  0  0  0  0  0
   43.8019   15.2070    0.6459 C   0  0  0  0  0  0  0  0  0  0  0  0
   42.9435   17.5944    0.7793 C   0  0  2  0  0  0  0  0  0  0  0  0
   43.0935   18.9991    0.2194 C   0  0  1  0  0  0  0  0  0  0  0  0
   42.8967   18.9421   -1.3069 C   0  0  1  0  0  0  0  0  0  0  0  0
   47.5626   19.1583    2.1970 C   0  0  2  0  0  0  0  0  0  0  0  0
   46.4504   19.6314    3.1872 C   0  0  1  0  0  0  0  0  0  0  0  0
  1  3  1  0  0  0  0
  4  1  1  6  0  0  0
  4  6  1  0  0  0  0
  4 31  1  0  0  0  0
  6  7  1  0  0  0  0
  7  9  1  6  0  0  0
  7 30  1  0  0  0  0
  8 26  1  0  0  0  0
 10  9  1  1  0  0  0
 10 13  1  0  0  0  0
 10 21  1  0  0  0  0
 13 12  1  1  0  0  0
 13 15  1  0  0  0  0
 15  2  1  6  0  0  0
 15 17  1  0  0  0  0
 16 25  1  0  0  0  0
 16 23  1  0  0  0  0
 17 19  1  0  0  0  0
 19  5  1  6  0  0  0
 19 21  1  0  0  0  0
 21 14  1  1  0  0  0
 23 14  1  1  0  0  0
 23 29  1  0  0  0  0
 25 26  1  1  0  0  0
 25 27  1  0  0  0  0
 27 18  1  1  0  0  0
 27 28  1  0  0  0  0
 28 20  1  1  0  0  0
 28 29  1  0  0  0  0
 29 11  1  6  0  0  0
 30 22  1  1  0  0  0
 30 31  1  0  0  0  0
 31 24  1  1  0  0  0
M  END
>  <CHROM.1>
-98.67365782,-61.41137318,-124.92729950,53.53119441,-99.32783098,-50.43955202
45.53707966,17.80115815,-0.09834425,-1.94830094,0.28610052,-2.15286482

>  <Name>
ligand

>  <RI>
0

>  <Rbt.Current_Directory>
/home/itssahil/PROJECTS/Mol_Feturizer/New_Systems/rnas/2ET5

>  <Rbt.Executable>
rbdock ($Id: //depot/dev/client3/rdock/2013.1/src/exe/rbdock.cxx#4 $)

>  <Rbt.Library>
libRbt.so (2013.1, Build901 2013/11/27)

>  <Rbt.Parameter_File>
/export/apps/rDock/src/rDock_2013.1_src/data/scripts/dock_solv.prm

>  <Rbt.Receptor>
prm/blind_docking_60.prm

>  <SCORE>
35.3908

>  <SCORE.INTER>
10.8352

>  <SCORE.INTER.CONST>
1

>  <SCORE.INTER.POLAR>
0

>  <SCORE.INTER.ROT>
6

>  <SCORE.INTER.SOLV>
24.3512

>  <SCORE.INTER.VDW>
-8.49364

>  <SCORE.INTER.norm>
0.349521

>  <SCORE.INTRA>
6.26464

>  <SCORE.INTRA.DIHEDRAL>
5.58519

>  <SCORE.INTRA.DIHEDRAL.0>
11.2357

>  <SCORE.INTRA.POLAR>
0

>  <SCORE.INTRA.POLAR.0>
0

>  <SCORE.INTRA.REPUL>
0

>  <SCORE.INTRA.REPUL.0>
0

>  <SCORE.INTRA.SOLV>
1.07814

>  <SCORE.INTRA.SOLV.lig_0>
-83.3092

>  <SCORE.INTRA.VDW>
2.93298

>  <SCORE.INTRA.VDW.0>
-4.47057

>  <SCORE.INTRA.norm>
0.202085

>  <SCORE.RESTR>
18.291

>  <SCORE.RESTR.CAVITY>
18.291

>  <SCORE.RESTR.norm>
0.590031

>  <SCORE.SYSTEM>
0

>  <SCORE.SYSTEM.CONST>
0

>  <SCORE.SYSTEM.DIHEDRAL>
0

>  <SCORE.SYSTEM.SOLV>
0

>  <SCORE.SYSTEM.norm>
0

>  <SCORE.heavy>
31

>  <SCORE.norm>
1.14164

>  <RMSD>
8.534

$$$$
ligand
 OpenBabel11021811433D
libRbt.so/2013.1/901 2013/11/27
 31 33  0  0  0  0  0  0  0  0999 V2000
   36.0130   25.9575    0.6656 C   0  0  0  0  0  0  0  0  0  0  0  0
   41.4297   23.6702    2.8946 N   0  0  0  0  0  0  0  0  0  0  0  0
   35.1536   26.6001   -0.2874 O   0  0  0  0  0  0  0  0  0  0  0  0
   35.0730   25.0891    1.4976 C   0  0  1  0  0  0  0  0  0  0  0  0
   40.5356   27.6168    5.9530 N   0  0  0  0  0  0  0  0  0  0  0  0
   35.7614   24.1998    2.5170 O   0  0  0  0  0  0  0  0  0  0  0  0
   35.6067   24.6288    3.8148 C   0  0  1  0  0  0  0  0  0  0  0  0
   38.3534   24.9428    9.3311 N   0  0  0  0  0  0  0  0  0  0  0  0
   36.7513   24.7175    4.6169 O   0  0  0  0  0  0  0  0  0  0  0  0
   38.0376   25.3374    4.1509 C   0  0  2  0  0  0  0  0  0  0  0  0
   35.7422   29.3588    5.4099 N   0  0  0  0  0  0  0  0  0  0  0  0
   38.4533   23.3664    2.6900 O   0  0  0  0  0  0  0  0  0  0  0  0
   39.0222   24.1913    3.7733 C   0  0  1  0  0  0  0  0  0  0  0  0
   37.8116   27.2479    5.6102 O   0  0  0  0  0  0  0  0  0  0  0  0
   40.4275   24.8029    3.2796 C   0  0  1  0  0  0  0  0  0  0  0  0
   36.6887   26.3944    7.5274 O   0  0  0  0  0  0  0  0  0  0  0  0
   41.0137   25.6848    4.4665 C   0  0  0  0  0  0  0  0  0  0  0  0
   37.6926   29.0779    9.9069 O   0  0  0  0  0  0  0  0  0  0  0  0
   39.9572   26.8098    4.8280 C   0  0  1  0  0  0  0  0  0  0  0  0
   36.1341   30.5943    8.0560 O   0  0  0  0  0  0  0  0  0  0  0  0
   38.6732   26.2186    5.3164 C   0  0  2  0  0  0  0  0  0  0  0  0
   34.0229   26.0709    4.8643 O   0  0  0  0  0  0  0  0  0  0  0  0
   36.5121   27.1684    6.2503 C   0  0  1  0  0  0  0  0  0  0  0  0
   32.8604   24.9576    2.6124 O   0  0  0  0  0  0  0  0  0  0  0  0
   37.5581   27.0578    8.5869 C   0  0  2  0  0  0  0  0  0  0  0  0
   37.6686   26.1487    9.8054 C   0  0  0  0  0  0  0  0  0  0  0  0
   36.9146   28.4173    8.9454 C   0  0  2  0  0  0  0  0  0  0  0  0
   36.7744   29.2909    7.7100 C   0  0  1  0  0  0  0  0  0  0  0  0
   35.9216   28.5385    6.6717 C   0  0  1  0  0  0  0  0  0  0  0  0
   34.7945   25.9108    3.7293 C   0  0  2  0  0  0  0  0  0  0  0  0
   34.0292   25.7936    2.3721 C   0  0  1  0  0  0  0  0  0  0  0  0
  1  3  1  0  0  0  0
  4  1  1  1  0  0  0
  4  6  1  0  0  0  0
  4 31  1  0  0  0  0
  6  7  1  0  0  0  0
  7  9  1  6  0  0  0
  7 30  1  0  0  0  0
  8 26  1  0  0  0  0
 10  9  1  1  0  0  0
 10 13  1  0  0  0  0
 10 21  1  0  0  0  0
 13 12  1  6  0  0  0
 13 15  1  0  0  0  0
 15  2  1  1  0  0  0
 15 17  1  0  0  0  0
 16 25  1  0  0  0  0
 16 23  1  0  0  0  0
 17 19  1  0  0  0  0
 19  5  1  1  0  0  0
 19 21  1  0  0  0  0
 21 14  1  6  0  0  0
 23 14  1  1  0  0  0
 23 29  1  0  0  0  0
 25 26  1  1  0  0  0
 25 27  1  0  0  0  0
 27 18  1  1  0  0  0
 27 28  1  0  0  0  0
 28 20  1  1  0  0  0
 28 29  1  0  0  0  0
 29 11  1  6  0  0  0
 30 22  1  1  0  0  0
 30 31  1  0  0  0  0
 31 24  1  1  0  0  0
M  END
>  <CHROM.1>
174.94222818,45.59833485,-101.59637307,52.26977612,69.46449935,63.36679038
37.09757294,26.31647690,5.07099715,1.76413165,0.32809410,-2.07863706

>  <Name>
ligand

>  <RI>
0

>  <Rbt.Current_Directory>
/home/itssahil/PROJECTS/Mol_Feturizer/New_Systems/rnas/2ET5

>  <Rbt.Executable>
rbdock ($Id: //depot/dev/client3/rdock/2013.1/src/exe/rbdock.cxx#4 $)

>  <Rbt.Library>
libRbt.so (2013.1, Build901 2013/11/27)

>  <Rbt.Parameter_File>
/export/apps/rDock/src/rDock_2013.1_src/data/scripts/dock_solv.prm

>  <Rbt.Receptor>
prm/pocket_docking_8.prm

>  <SCORE>
-9.64605

>  <SCORE.INTER>
-6.71886

>  <SCORE.INTER.CONST>
1

>  <SCORE.INTER.POLAR>
0

>  <SCORE.INTER.ROT>
6

>  <SCORE.INTER.SOLV>
17.8396

>  <SCORE.INTER.VDW>
-18.0258

>  <SCORE.INTER.norm>
-0.216737

>  <SCORE.INTRA>
-2.9272

>  <SCORE.INTRA.DIHEDRAL>
-3.63764

>  <SCORE.INTRA.DIHEDRAL.0>
11.2357

>  <SCORE.INTRA.POLAR>
0

>  <SCORE.INTRA.POLAR.0>
0

>  <SCORE.INTRA.REPUL>
0

>  <SCORE.INTRA.REPUL.0>
0

>  <SCORE.INTRA.SOLV>
-2.4659

>  <SCORE.INTRA.SOLV.lig_0>
-83.3092

>  <SCORE.INTRA.VDW>
0.124572

>  <SCORE.INTRA.VDW.0>
-4.47057

>  <SCORE.INTRA.norm>
-0.0944257

>  <SCORE.RESTR>
0

>  <SCORE.RESTR.CAVITY>
0

>  <SCORE.RESTR.norm>
0

>  <SCORE.SYSTEM>
0

>  <SCORE.SYSTEM.CONST>
0

>  <SCORE.SYSTEM.DIHEDRAL>
0

>  <SCORE.SYSTEM.SOLV>
0

>  <SCORE.SYSTEM.norm>
0

>  <SCORE.heavy>
31

>  <SCORE.norm>
-0.311163

>  <RMSD>
8.635

$$$$
ligand
 OpenBabel11021811433D
libRbt.so/2013.1/901 2013/11/27
 31 33  0  0  0  0  0  0  0  0999 V2000
   37.4810   29.6758   -0.0573 C   0  0  0  0  0  0  0  0  0  0  0  0
   40.5485   31.5079    7.5436 N   0  0  0  0  0  0  0  0  0  0  0  0
   36.9688   29.3937   -1.3680 O   0  0  0  0  0  0  0  0  0  0  0  0
   37.2954   28.3696    0.7106 C   0  0  1  0  0  0  0  0  0  0  0  0
   41.7653   27.1674    5.2181 N   0  0  0  0  0  0  0  0  0  0  0  0
   37.9946   28.3166    2.0568 O   0  0  0  0  0  0  0  0  0  0  0  0
   37.1359   28.4149    3.1269 C   0  0  1  0  0  0  0  0  0  0  0  0
   36.5121   27.9176    7.5950 N   0  0  0  0  0  0  0  0  0  0  0  0
   37.4479   29.3353    4.1353 O   0  0  0  0  0  0  0  0  0  0  0  0
   38.4272   29.0490    5.2375 C   0  0  2  0  0  0  0  0  0  0  0  0
   39.2181   24.2757    3.0429 N   0  0  0  0  0  0  0  0  0  0  0  0
   37.8244   31.2034    6.3270 O   0  0  0  0  0  0  0  0  0  0  0  0
   38.9468   30.4081    5.7929 C   0  0  1  0  0  0  0  0  0  0  0  0
   39.1858   26.9931    4.2233 O   0  0  0  0  0  0  0  0  0  0  0  0
   40.0152   30.1575    6.9712 C   0  0  1  0  0  0  0  0  0  0  0  0
   38.0313   26.1099    6.1081 O   0  0  0  0  0  0  0  0  0  0  0  0
   41.2098   29.2996    6.3653 C   0  0  0  0  0  0  0  0  0  0  0  0
   34.7214   25.6386    4.4670 O   0  0  0  0  0  0  0  0  0  0  0  0
   40.6172   27.9476    5.7877 C   0  0  1  0  0  0  0  0  0  0  0  0
   36.3092   23.8173    2.9451 O   0  0  0  0  0  0  0  0  0  0  0  0
   39.6544   28.2042    4.6724 C   0  0  2  0  0  0  0  0  0  0  0  0
   34.7927   28.0361    3.3613 O   0  0  0  0  0  0  0  0  0  0  0  0
   38.9782   25.7778    4.9880 C   0  0  1  0  0  0  0  0  0  0  0  0
   35.7348   26.5171    1.2478 O   0  0  0  0  0  0  0  0  0  0  0  0
   36.6212   26.5008    5.6870 C   0  0  2  0  0  0  0  0  0  0  0  0
   35.7899   26.8355    6.9200 C   0  0  0  0  0  0  0  0  0  0  0  0
   36.0175   25.3179    4.8952 C   0  0  2  0  0  0  0  0  0  0  0  0
   36.8839   24.9728    3.6954 C   0  0  1  0  0  0  0  0  0  0  0  0
   38.2998   24.6311    4.1952 C   0  0  1  0  0  0  0  0  0  0  0  0
   35.7494   28.5813    2.5267 C   0  0  2  0  0  0  0  0  0  0  0  0
   35.8696   27.9602    1.0980 C   0  0  1  0  0  0  0  0  0  0  0  0
  1  3  1  0  0  0  0
  4  1  1  1  0  0  0
  4  6  1  0  0  0  0
  4 31  1  0  0  0  0
  6  7  1  0  0  0  0
  7  9  1  1  0  0  0
  7 30  1  0  0  0  0
  8 26  1  0  0  0  0
 10  9  1  6  0  0  0
 10 13  1  0  0  0  0
 10 21  1  0  0  0  0
 13 12  1  1  0  0  0
 13 15  1  0  0  0  0
 15  2  1  6  0  0  0
 15 17  1  0  0  0  0
 16 25  1  0  0  0  0
 16 23  1  0  0  0  0
 17 19  1  0  0  0  0
 19  5  1  6  0  0  0
 19 21  1  0  0  0  0
 21 14  1  1  0  0  0
 23 14  1  6  0  0  0
 23 29  1  0  0  0  0
 25 26  1  1  0  0  0
 25 27  1  0  0  0  0
 27 18  1  6  0  0  0
 27 28  1  0  0  0  0
 28 20  1  1  0  0  0
 28 29  1  0  0  0  0
 29 11  1  6  0  0  0
 30 22  1  1  0  0  0
 30 31  1  0  0  0  0
 31 24  1  1  0  0  0
M  END
>  <CHROM.1>
169.11053729,-81.71583795,157.35270064,57.33003478,-86.15164884,57.76472852
37.76429272,27.68442438,4.13851279,-2.87062913,0.98734142,2.36039579

>  <Name>
ligand

>  <RI>
0

>  <Rbt.Current_Directory>
/home/itssahil/PROJECTS/Mol_Feturizer/New_Systems/rnas/2ET5

>  <Rbt.Executable>
rbdock ($Id: //depot/dev/client3/rdock/2013.1/src/exe/rbdock.cxx#4 $)

>  <Rbt.Library>
libRbt.so (2013.1, Build901 2013/11/27)

>  <Rbt.Parameter_File>
/export/apps/rDock/src/rDock_2013.1_src/data/scripts/dock_solv.prm

>  <Rbt.Receptor>
prm/pocket_docking_7.prm

>  <SCORE>
-3.36554

>  <SCORE.INTER>
-2.92663

>  <SCORE.INTER.CONST>
1

>  <SCORE.INTER.POLAR>
0

>  <SCORE.INTER.ROT>
6

>  <SCORE.INTER.SOLV>
6.06133

>  <SCORE.INTER.VDW>
-11.5715

>  <SCORE.INTER.norm>
-0.0944076

>  <SCORE.INTRA>
-0.43891

>  <SCORE.INTRA.DIHEDRAL>
-3.47581

>  <SCORE.INTRA.DIHEDRAL.0>
11.2357

>  <SCORE.INTRA.POLAR>
0

>  <SCORE.INTRA.POLAR.0>
0

>  <SCORE.INTRA.REPUL>
0.202227

>  <SCORE.INTRA.REPUL.0>
0

>  <SCORE.INTRA.SOLV>
1.23864

>  <SCORE.INTRA.SOLV.lig_0>
-83.3092

>  <SCORE.INTRA.VDW>
-0.331461

>  <SCORE.INTRA.VDW.0>
-4.47057

>  <SCORE.INTRA.norm>
-0.0141584

>  <SCORE.RESTR>
0

>  <SCORE.RESTR.CAVITY>
0

>  <SCORE.RESTR.norm>
0

>  <SCORE.SYSTEM>
0

>  <SCORE.SYSTEM.CONST>
0

>  <SCORE.SYSTEM.DIHEDRAL>
0

>  <SCORE.SYSTEM.SOLV>
0

>  <SCORE.SYSTEM.norm>
0

>  <SCORE.heavy>
31

>  <SCORE.norm>
-0.108566

>  <RMSD>
8.645

$$$$
ligand
 OpenBabel11021811433D
libRbt.so/2013.1/901 2013/11/27
 31 33  0  0  0  0  0  0  0  0999 V2000
   47.8012   15.5668   -1.0616 C   0  0  0  0  0  0  0  0  0  0  0  0
   41.4275   21.9080   -0.2952 N   0  0  0  0  0  0  0  0  0  0  0  0
   48.3166   16.9044   -1.1318 O   0  0  0  0  0  0  0  0  0  0  0  0
   46.7439   15.5106   -2.1611 C   0  0  1  0  0  0  0  0  0  0  0  0
   42.8413   17.9959    2.6075 N   0  0  0  0  0  0  0  0  0  0  0  0
   45.4567   16.2510   -1.8464 O   0  0  0  0  0  0  0  0  0  0  0  0
   45.3140   17.4274   -2.5448 C   0  0  1  0  0  0  0  0  0  0  0  0
   47.0143   20.6552    2.5001 N   0  0  0  0  0  0  0  0  0  0  0  0
   44.9653   18.5781   -1.8267 O   0  0  0  0  0  0  0  0  0  0  0  0
   43.6797   18.7137   -1.0621 C   0  0  2  0  0  0  0  0  0  0  0  0
   44.7414   14.4857    2.0655 N   0  0  0  0  0  0  0  0  0  0  0  0
   43.0408   20.6503   -2.4880 O   0  0  0  0  0  0  0  0  0  0  0  0
   43.2486   20.2099   -1.0950 C   0  0  1  0  0  0  0  0  0  0  0  0
   44.2327   16.9261    0.4643 O   0  0  0  0  0  0  0  0  0  0  0  0
   41.8787   20.4141   -0.2739 C   0  0  1  0  0  0  0  0  0  0  0  0
   46.5421   17.4719    0.6484 O   0  0  0  0  0  0  0  0  0  0  0  0
   42.1347   19.9315    1.2200 C   0  0  0  0  0  0  0  0  0  0  0  0
   46.5024   18.5316    4.2186 O   0  0  0  0  0  0  0  0  0  0  0  0
   42.6012   18.4169    1.1874 C   0  0  1  0  0  0  0  0  0  0  0  0
   45.7914   15.7798    4.4955 O   0  0  0  0  0  0  0  0  0  0  0  0
   43.8923   18.2574    0.4498 C   0  0  2  0  0  0  0  0  0  0  0  0
   46.3078   18.2483   -4.5518 O   0  0  0  0  0  0  0  0  0  0  0  0
   45.5479   16.3437    0.6531 C   0  0  1  0  0  0  0  0  0  0  0  0
   46.3381   15.4811   -4.6086 O   0  0  0  0  0  0  0  0  0  0  0  0
   46.4288   18.4569    1.8041 C   0  0  2  0  0  0  0  0  0  0  0  0
   47.4757   19.5540    1.6499 C   0  0  0  0  0  0  0  0  0  0  0  0
   46.6184   17.6678    3.1202 C   0  0  2  0  0  0  0  0  0  0  0  0
   45.5926   16.5524    3.2337 C   0  0  1  0  0  0  0  0  0  0  0  0
   45.7399   15.6248    2.0133 C   0  0  1  0  0  0  0  0  0  0  0  0
   46.5754   17.5634   -3.3820 C   0  0  2  0  0  0  0  0  0  0  0  0
   47.0999   16.0991   -3.5312 C   0  0  1  0  0  0  0  0  0  0  0  0
  1  3  1  0  0  0  0
  4  1  1  1  0  0  0
  4  6  1  0  0  0  0
  4 31  1  0  0  0  0
  6  7  1  0  0  0  0
  7  9  1  1  0  0  0
  7 30  1  0  0  0  0
  8 26  1  0  0  0  0
 10  9  1  6  0  0  0
 10 13  1  0  0  0  0
 10 21  1  0  0  0  0
 13 12  1  6  0  0  0
 13 15  1  0  0  0  0
 15  2  1  1  0  0  0
 15 17  1  0  0  0  0
 16 25  1  0  0  0  0
 16 23  1  0  0  0  0
 17 19  1  0  0  0  0
 19  5  1  1  0  0  0
 19 21  1  0  0  0  0
 21 14  1  6  0  0  0
 23 14  1  1  0  0  0
 23 29  1  0  0  0  0
 25 26  1  6  0  0  0
 25 27  1  0  0  0  0
 27 18  1  1  0  0  0
 27 28  1  0  0  0  0
 28 20  1  1  0  0  0
 28 29  1  0  0  0  0
 29 11  1  1  0  0  0
 30 22  1  6  0  0  0
 30 31  1  0  0  0  0
 31 24  1  6  0  0  0
M  END
>  <CHROM.1>
-73.88143495,-61.80077862,-148.30892387,-7.63918224,102.55473748,161.37188449
45.25105747,17.80206770,-0.01135536,-1.29891590,-0.78467698,1.59406699

>  <Name>
ligand

>  <RI>
0

>  <Rbt.Current_Directory>
/home/itssahil/PROJECTS/Mol_Feturizer/New_Systems/rnas/2ET5

>  <Rbt.Executable>
rbdock ($Id: //depot/dev/client3/rdock/2013.1/src/exe/rbdock.cxx#4 $)

>  <Rbt.Library>
libRbt.so (2013.1, Build901 2013/11/27)

>  <Rbt.Parameter_File>
/export/apps/rDock/src/rDock_2013.1_src/data/scripts/dock_solv.prm

>  <Rbt.Receptor>
prm/blind_docking_60.prm

>  <SCORE>
34.8742

>  <SCORE.INTER>
9.00082

>  <SCORE.INTER.CONST>
1

>  <SCORE.INTER.POLAR>
0

>  <SCORE.INTER.ROT>
6

>  <SCORE.INTER.SOLV>
30.4603

>  <SCORE.INTER.VDW>
-11.7529

>  <SCORE.INTER.norm>
0.290349

>  <SCORE.INTRA>
7.65085

>  <SCORE.INTRA.DIHEDRAL>
7.28852

>  <SCORE.INTRA.DIHEDRAL.0>
11.2357

>  <SCORE.INTRA.POLAR>
0

>  <SCORE.INTRA.POLAR.0>
0

>  <SCORE.INTRA.REPUL>
0

>  <SCORE.INTRA.REPUL.0>
0

>  <SCORE.INTRA.SOLV>
1.86403

>  <SCORE.INTRA.SOLV.lig_0>
-83.3092

>  <SCORE.INTRA.VDW>
3.07457

>  <SCORE.INTRA.VDW.0>
-4.47057

>  <SCORE.INTRA.norm>
0.246802

>  <SCORE.RESTR>
18.2226

>  <SCORE.RESTR.CAVITY>
18.2226

>  <SCORE.RESTR.norm>
0.587825

>  <SCORE.SYSTEM>
0

>  <SCORE.SYSTEM.CONST>
0

>  <SCORE.SYSTEM.DIHEDRAL>
0

>  <SCORE.SYSTEM.SOLV>
0

>  <SCORE.SYSTEM.norm>
0

>  <SCORE.heavy>
31

>  <SCORE.norm>
1.12498

>  <RMSD>
8.657

$$$$
ligand
 OpenBabel11021811433D
libRbt.so/2013.1/901 2013/11/27
 31 33  0  0  0  0  0  0  0  0999 V2000
   38.3523   26.1698    8.2387 C   0  0  0  0  0  0  0  0  0  0  0  0
   37.8544   30.3599    9.3717 N   0  0  0  0  0  0  0  0  0  0  0  0
   38.6185   25.3744    9.4032 O   0  0  0  0  0  0  0  0  0  0  0  0
   39.3716   25.6873    7.2099 C   0  0  1  0  0  0  0  0  0  0  0  0
   34.9430   28.6098    5.6049 N   0  0  0  0  0  0  0  0  0  0  0  0
   39.2484   26.3301    5.8404 O   0  0  0  0  0  0  0  0  0  0  0  0
   40.2426   27.2413    5.5691 C   0  0  1  0  0  0  0  0  0  0  0  0
   39.0684   23.9966    2.6902 N   0  0  0  0  0  0  0  0  0  0  0  0
   39.8646   28.4971    5.0776 O   0  0  0  0  0  0  0  0  0  0  0  0
   38.7145   29.2871    5.6337 C   0  0  2  0  0  0  0  0  0  0  0  0
   37.1571   29.4272    1.1516 N   0  0  0  0  0  0  0  0  0  0  0  0
   40.1693   30.0947    7.4838 O   0  0  0  0  0  0  0  0  0  0  0  0
   38.9029   29.4028    7.1753 C   0  0  1  0  0  0  0  0  0  0  0  0
   37.1690   28.4851    3.9606 O   0  0  0  0  0  0  0  0  0  0  0  0
   37.6847   30.2308    7.8257 C   0  0  1  0  0  0  0  0  0  0  0  0
   38.5023   26.6329    3.2848 O   0  0  0  0  0  0  0  0  0  0  0  0
   36.3371   29.4613    7.4763 C   0  0  0  0  0  0  0  0  0  0  0  0
   35.8211   24.7192    1.5469 O   0  0  0  0  0  0  0  0  0  0  0  0
   36.2170   29.3454    5.8999 C   0  0  1  0  0  0  0  0  0  0  0  0
   35.9207   27.0577   -0.0889 O   0  0  0  0  0  0  0  0  0  0  0  0
   37.3398   28.5436    5.3228 C   0  0  2  0  0  0  0  0  0  0  0  0
   42.4181   27.5833    6.4853 O   0  0  0  0  0  0  0  0  0  0  0  0
   38.1253   28.0518    2.9594 C   0  0  1  0  0  0  0  0  0  0  0  0
   41.7063   24.9323    6.8426 O   0  0  0  0  0  0  0  0  0  0  0  0
   37.3830   25.6077    3.1631 C   0  0  2  0  0  0  0  0  0  0  0  0
   37.9040   24.2283    3.5497 C   0  0  0  0  0  0  0  0  0  0  0  0
   36.8702   25.6360    1.7047 C   0  0  2  0  0  0  0  0  0  0  0  0
   36.3958   27.0291    1.3260 C   0  0  1  0  0  0  0  0  0  0  0  0
   37.5653   28.0133    1.5142 C   0  0  1  0  0  0  0  0  0  0  0  0
   41.1100   27.2862    6.8165 C   0  0  2  0  0  0  0  0  0  0  0  0
   40.8581   25.9098    7.5120 C   0  0  1  0  0  0  0  0  0  0  0  0
  1  3  1  0  0  0  0
  4  1  1  1  0  0  0
  4  6  1  0  0  0  0
  4 31  1  0  0  0  0
  6  7  1  0  0  0  0
  7  9  1  1  0  0  0
  7 30  1  0  0  0  0
  8 26  1  0  0  0  0
 10  9  1  1  0  0  0
 10 13  1  0  0  0  0
 10 21  1  0  0  0  0
 13 12  1  6  0  0  0
 13 15  1  0  0  0  0
 15  2  1  1  0  0  0
 15 17  1  0  0  0  0
 16 25  1  0  0  0  0
 16 23  1  0  0  0  0
 17 19  1  0  0  0  0
 19  5  1  1  0  0  0
 19 21  1  0  0  0  0
 21 14  1  6  0  0  0
 23 14  1  1  0  0  0
 23 29  1  0  0  0  0
 25 26  1  6  0  0  0
 25 27  1  0  0  0  0
 27 18  1  1  0  0  0
 27 28  1  0  0  0  0
 28 20  1  6  0  0  0
 28 29  1  0  0  0  0
 29 11  1  1  0  0  0
 30 22  1  6  0  0  0
 30 31  1  0  0  0  0
 31 24  1  6  0  0  0
M  END
>  <CHROM.1>
176.75908554,43.64797740,52.36865666,58.92905979,48.82325326,-55.00634639
38.34475159,27.36688086,5.08144060,-0.94303346,0.82452995,-2.27303670

>  <Name>
ligand

>  <RI>
0

>  <Rbt.Current_Directory>
/home/itssahil/PROJECTS/Mol_Feturizer/New_Systems/rnas/2ET5

>  <Rbt.Executable>
rbdock ($Id: //depot/dev/client3/rdock/2013.1/src/exe/rbdock.cxx#4 $)

>  <Rbt.Library>
libRbt.so (2013.1, Build901 2013/11/27)

>  <Rbt.Parameter_File>
/export/apps/rDock/src/rDock_2013.1_src/data/scripts/dock_solv.prm

>  <Rbt.Receptor>
prm/pocket_docking_8.prm

>  <SCORE>
-6.76148

>  <SCORE.INTER>
-2.39386

>  <SCORE.INTER.CONST>
1

>  <SCORE.INTER.POLAR>
0

>  <SCORE.INTER.ROT>
6

>  <SCORE.INTER.SOLV>
10.3403

>  <SCORE.INTER.VDW>
-12.6427

>  <SCORE.INTER.norm>
-0.0772213

>  <SCORE.INTRA>
-4.36894

>  <SCORE.INTRA.DIHEDRAL>
-8.87049

>  <SCORE.INTRA.DIHEDRAL.0>
11.2357

>  <SCORE.INTRA.POLAR>
0

>  <SCORE.INTRA.POLAR.0>
0

>  <SCORE.INTRA.REPUL>
0.102089

>  <SCORE.INTRA.REPUL.0>
0

>  <SCORE.INTRA.SOLV>
-1.20614

>  <SCORE.INTRA.SOLV.lig_0>
-83.3092

>  <SCORE.INTRA.VDW>
0.15893

>  <SCORE.INTRA.VDW.0>
-4.47057

>  <SCORE.INTRA.norm>
-0.140934

>  <SCORE.RESTR>
0.00131994

>  <SCORE.RESTR.CAVITY>
0.00131994

>  <SCORE.RESTR.norm>
4.25789e-05

>  <SCORE.SYSTEM>
0

>  <SCORE.SYSTEM.CONST>
0

>  <SCORE.SYSTEM.DIHEDRAL>
0

>  <SCORE.SYSTEM.SOLV>
0

>  <SCORE.SYSTEM.norm>
0

>  <SCORE.heavy>
31

>  <SCORE.norm>
-0.218112

>  <RMSD>
8.658

$$$$
ligand
 OpenBabel11021811433D
libRbt.so/2013.1/901 2013/11/27
 31 33  0  0  0  0  0  0  0  0999 V2000
   42.5054   14.8523   -2.5942 C   0  0  0  0  0  0  0  0  0  0  0  0
   47.7486   15.2701   -4.6324 N   0  0  0  0  0  0  0  0  0  0  0  0
   43.1564   15.8056   -3.4469 O   0  0  0  0  0  0  0  0  0  0  0  0
   42.7861   15.3553   -1.1807 C   0  0  1  0  0  0  0  0  0  0  0  0
   49.0602   16.3511    0.1467 N   0  0  0  0  0  0  0  0  0  0  0  0
   44.1237   16.0511   -1.0054 O   0  0  0  0  0  0  0  0  0  0  0  0
   44.0198   17.4158   -0.8671 C   0  0  1  0  0  0  0  0  0  0  0  0
   44.9202   22.5338    2.1456 N   0  0  0  0  0  0  0  0  0  0  0  0
   44.8470   18.2200   -1.6611 O   0  0  0  0  0  0  0  0  0  0  0  0
   46.2667   17.8627   -1.9969 C   0  0  2  0  0  0  0  0  0  0  0  0
   45.6272   16.0351    1.6146 N   0  0  0  0  0  0  0  0  0  0  0  0
   45.5735   17.3111   -4.3221 O   0  0  0  0  0  0  0  0  0  0  0  0
   46.2451   16.7829   -3.1190 C   0  0  1  0  0  0  0  0  0  0  0  0
   47.0475   18.2514    0.2548 O   0  0  0  0  0  0  0  0  0  0  0  0
   47.7471   16.3517   -3.5074 C   0  0  1  0  0  0  0  0  0  0  0  0
   47.0305   19.4586    2.3061 O   0  0  0  0  0  0  0  0  0  0  0  0
   48.4428   15.7881   -2.1927 C   0  0  0  0  0  0  0  0  0  0  0  0
   43.4184   20.3661    2.2999 O   0  0  0  0  0  0  0  0  0  0  0  0
   48.4053   16.9159   -1.0795 C   0  0  1  0  0  0  0  0  0  0  0  0
   43.2293   17.5215    2.4645 O   0  0  0  0  0  0  0  0  0  0  0  0
   47.0010   17.2748   -0.7107 C   0  0  2  0  0  0  0  0  0  0  0  0
   42.2189   18.8455   -0.2331 O   0  0  0  0  0  0  0  0  0  0  0  0
   47.0018   18.0847    1.6952 C   0  0  1  0  0  0  0  0  0  0  0  0
   41.8021   16.3422    0.8720 O   0  0  0  0  0  0  0  0  0  0  0  0
   45.8186   20.3346    2.0188 C   0  0  2  0  0  0  0  0  0  0  0  0
   46.0022   21.6984    2.6744 C   0  0  0  0  0  0  0  0  0  0  0  0
   44.5672   19.6050    2.5594 C   0  0  2  0  0  0  0  0  0  0  0  0
   44.4268   18.2312    1.9252 C   0  0  1  0  0  0  0  0  0  0  0  0
   45.7029   17.4218    2.2216 C   0  0  1  0  0  0  0  0  0  0  0  0
   42.5367   17.7284   -0.9815 C   0  0  2  0  0  0  0  0  0  0  0  0
   41.8287   16.3934   -0.5839 C   0  0  1  0  0  0  0  0  0  0  0  0
  1  3  1  0  0  0  0
  4  1  1  6  0  0  0
  4  6  1  0  0  0  0
  4 31  1  0  0  0  0
  6  7  1  0  0  0  0
  7  9  1  6  0  0  0
  7 30  1  0  0  0  0
  8 26  1  0  0  0  0
 10  9  1  1  0  0  0
 10 13  1  0  0  0  0
 10 21  1  0  0  0  0
 13 12  1  6  0  0  0
 13 15  1  0  0  0  0
 15  2  1  6  0  0  0
 15 17  1  0  0  0  0
 16 25  1  0  0  0  0
 16 23  1  0  0  0  0
 17 19  1  0  0  0  0
 19  5  1  1  0  0  0
 19 21  1  0  0  0  0
 21 14  1  1  0  0  0
 23 14  1  6  0  0  0
 23 29  1  0  0  0  0
 25 26  1  1  0  0  0
 25 27  1  0  0  0  0
 27 18  1  6  0  0  0
 27 28  1  0  0  0  0
 28 20  1  1  0  0  0
 28 29  1  0  0  0  0
 29 11  1  6  0  0  0
 30 22  1  1  0  0  0
 30 31  1  0  0  0  0
 31 24  1  1  0  0  0
M  END
>  <CHROM.1>
-32.70810428,-37.46094620,77.68387768,-177.83994653,147.81074683,170.04604317
45.15040250,17.63860968,-0.28677639,1.41893540,-0.12188045,-2.22163501

>  <Name>
ligand

>  <RI>
0

>  <Rbt.Current_Directory>
/home/itssahil/PROJECTS/Mol_Feturizer/New_Systems/rnas/2ET5

>  <Rbt.Executable>
rbdock ($Id: //depot/dev/client3/rdock/2013.1/src/exe/rbdock.cxx#4 $)

>  <Rbt.Library>
libRbt.so (2013.1, Build901 2013/11/27)

>  <Rbt.Parameter_File>
/export/apps/rDock/src/rDock_2013.1_src/data/scripts/dock_solv.prm

>  <Rbt.Receptor>
prm/blind_docking_60.prm

>  <SCORE>
16.2014

>  <SCORE.INTER>
-2.86484

>  <SCORE.INTER.CONST>
1

>  <SCORE.INTER.POLAR>
0

>  <SCORE.INTER.ROT>
6

>  <SCORE.INTER.SOLV>
18.8536

>  <SCORE.INTER.VDW>
-15.7944

>  <SCORE.INTER.norm>
-0.0924141

>  <SCORE.INTRA>
1.99544

>  <SCORE.INTRA.DIHEDRAL>
-0.846261

>  <SCORE.INTRA.DIHEDRAL.0>
11.2357

>  <SCORE.INTRA.POLAR>
0

>  <SCORE.INTRA.POLAR.0>
0

>  <SCORE.INTRA.REPUL>
0

>  <SCORE.INTRA.REPUL.0>
0

>  <SCORE.INTRA.SOLV>
5.19374

>  <SCORE.INTRA.SOLV.lig_0>
-83.3092

>  <SCORE.INTRA.VDW>
-0.178303

>  <SCORE.INTRA.VDW.0>
-4.47057

>  <SCORE.INTRA.norm>
0.064369

>  <SCORE.RESTR>
17.0708

>  <SCORE.RESTR.CAVITY>
17.0708

>  <SCORE.RESTR.norm>
0.550671

>  <SCORE.SYSTEM>
0

>  <SCORE.SYSTEM.CONST>
0

>  <SCORE.SYSTEM.DIHEDRAL>
0

>  <SCORE.SYSTEM.SOLV>
0

>  <SCORE.SYSTEM.norm>
0

>  <SCORE.heavy>
31

>  <SCORE.norm>
0.522626

>  <RMSD>
8.712

$$$$
ligand
 OpenBabel11021811433D
libRbt.so/2013.1/901 2013/11/27
 31 33  0  0  0  0  0  0  0  0999 V2000
   42.4819   14.8328   -2.5626 C   0  0  0  0  0  0  0  0  0  0  0  0
   47.7746   15.2709   -4.6661 N   0  0  0  0  0  0  0  0  0  0  0  0
   43.1397   15.7639   -3.4344 O   0  0  0  0  0  0  0  0  0  0  0  0
   42.7818   15.3521   -1.1589 C   0  0  1  0  0  0  0  0  0  0  0  0
   49.0492   16.3248    0.1290 N   0  0  0  0  0  0  0  0  0  0  0  0
   44.1242   16.0443   -1.0083 O   0  0  0  0  0  0  0  0  0  0  0  0
   44.0277   17.4110   -0.8859 C   0  0  1  0  0  0  0  0  0  0  0  0
   44.9529   22.5036    2.2331 N   0  0  0  0  0  0  0  0  0  0  0  0
   44.8486   18.2017   -1.6998 O   0  0  0  0  0  0  0  0  0  0  0  0
   46.2710   17.8472   -2.0268 C   0  0  2  0  0  0  0  0  0  0  0  0
   45.5918   16.0201    1.5906 N   0  0  0  0  0  0  0  0  0  0  0  0
   45.5958   17.3087   -4.3604 O   0  0  0  0  0  0  0  0  0  0  0  0
   46.2587   16.7740   -3.1553 C   0  0  1  0  0  0  0  0  0  0  0  0
   47.0346   18.2232    0.2330 O   0  0  0  0  0  0  0  0  0  0  0  0
   47.7638   16.3459   -3.5349 C   0  0  1  0  0  0  0  0  0  0  0  0
   47.0570   19.4154    2.2929 O   0  0  0  0  0  0  0  0  0  0  0  0
   48.4499   15.7751   -2.2182 C   0  0  0  0  0  0  0  0  0  0  0  0
   43.4601   20.3810    2.3287 O   0  0  0  0  0  0  0  0  0  0  0  0
   48.4032   16.8963   -1.0987 C   0  0  1  0  0  0  0  0  0  0  0  0
   43.2267   17.5387    2.4748 O   0  0  0  0  0  0  0  0  0  0  0  0
   46.9960   17.2522   -0.7386 C   0  0  2  0  0  0  0  0  0  0  0  0
   42.2405   18.8563   -0.2484 O   0  0  0  0  0  0  0  0  0  0  0  0
   47.0001   18.0467    1.6725 C   0  0  1  0  0  0  0  0  0  0  0  0
   41.8265   16.3688    0.8929 O   0  0  0  0  0  0  0  0  0  0  0  0
   45.8567   20.3129    2.0238 C   0  0  2  0  0  0  0  0  0  0  0  0
   46.0686   21.6687    2.6874 C   0  0  0  0  0  0  0  0  0  0  0  0
   44.5989   19.5996    2.5714 C   0  0  2  0  0  0  0  0  0  0  0  0
   44.4302   18.2329    1.9288 C   0  0  1  0  0  0  0  0  0  0  0  0
   45.6959   17.4009    2.2069 C   0  0  1  0  0  0  0  0  0  0  0  0
   42.5446   17.7285   -0.9865 C   0  0  2  0  0  0  0  0  0  0  0  0
   41.8359   16.4017   -0.5638 C   0  0  1  0  0  0  0  0  0  0  0  0
  1  3  1  0  0  0  0
  4  1  1  6  0  0  0
  4  6  1  0  0  0  0
  4 31  1  0  0  0  0
  6  7  1  0  0  0  0
  7  9  1  6  0  0  0
  7 30  1  0  0  0  0
  8 26  1  0  0  0  0
 10  9  1  1  0  0  0
 10 13  1  0  0  0  0
 10 21  1  0  0  0  0
 13 12  1  6  0  0  0
 13 15  1  0  0  0  0
 15  2  1  6  0  0  0
 15 17  1  0  0  0  0
 16 25  1  0  0  0  0
 16 23  1  0  0  0  0
 17 19  1  0  0  0  0
 19  5  1  1  0  0  0
 19 21  1  0  0  0  0
 21 14  1  1  0  0  0
 23 14  1  6  0  0  0
 23 29  1  0  0  0  0
 25 26  1  1  0  0  0
 25 27  1  0  0  0  0
 27 18  1  6  0  0  0
 27 28  1  0  0  0  0
 28 20  1  1  0  0  0
 28 29  1  0  0  0  0
 29 11  1  6  0  0  0
 30 22  1  1  0  0  0
 30 31  1  0  0  0  0
 31 24  1  1  0  0  0
M  END
>  <CHROM.1>
-32.06253094,-38.65871073,79.53744981,-179.59436172,148.92037635,173.08273939
45.15953653,17.62718540,-0.29199596,1.41710976,-0.12644396,-2.21747144

>  <Name>
ligand

>  <RI>
0

>  <Rbt.Current_Directory>
/home/itssahil/PROJECTS/Mol_Feturizer/New_Systems/rnas/2ET5

>  <Rbt.Executable>
rbdock ($Id: //depot/dev/client3/rdock/2013.1/src/exe/rbdock.cxx#4 $)

>  <Rbt.Library>
libRbt.so (2013.1, Build901 2013/11/27)

>  <Rbt.Parameter_File>
/export/apps/rDock/src/rDock_2013.1_src/data/scripts/dock_solv.prm

>  <Rbt.Receptor>
prm/blind_docking_60.prm

>  <SCORE>
16.1683

>  <SCORE.INTER>
-3.11453

>  <SCORE.INTER.CONST>
1

>  <SCORE.INTER.POLAR>
0

>  <SCORE.INTER.ROT>
6

>  <SCORE.INTER.SOLV>
19.0757

>  <SCORE.INTER.VDW>
-16.0349

>  <SCORE.INTER.norm>
-0.100469

>  <SCORE.INTRA>
2.23816

>  <SCORE.INTRA.DIHEDRAL>
-1.07787

>  <SCORE.INTRA.DIHEDRAL.0>
11.2357

>  <SCORE.INTRA.POLAR>
0

>  <SCORE.INTRA.POLAR.0>
0

>  <SCORE.INTRA.REPUL>
0

>  <SCORE.INTRA.REPUL.0>
0

>  <SCORE.INTRA.SOLV>
5.3114

>  <SCORE.INTRA.SOLV.lig_0>
-83.3092

>  <SCORE.INTRA.VDW>
0.121391

>  <SCORE.INTRA.VDW.0>
-4.47057

>  <SCORE.INTRA.norm>
0.0721986

>  <SCORE.RESTR>
17.0447

>  <SCORE.RESTR.CAVITY>
17.0447

>  <SCORE.RESTR.norm>
0.549829

>  <SCORE.SYSTEM>
0

>  <SCORE.SYSTEM.CONST>
0

>  <SCORE.SYSTEM.DIHEDRAL>
0

>  <SCORE.SYSTEM.SOLV>
0

>  <SCORE.SYSTEM.norm>
0

>  <SCORE.heavy>
31

>  <SCORE.norm>
0.521559

>  <RMSD>
8.721

$$$$
ligand
 OpenBabel11021811433D
libRbt.so/2013.1/901 2013/11/27
 31 33  0  0  0  0  0  0  0  0999 V2000
   46.6403   20.4210    1.9525 C   0  0  0  0  0  0  0  0  0  0  0  0
   49.2504   15.6285   -4.9529 N   0  0  0  0  0  0  0  0  0  0  0  0
   46.0960   21.2011    3.0271 O   0  0  0  0  0  0  0  0  0  0  0  0
   45.7346   19.1945    1.8788 C   0  0  1  0  0  0  0  0  0  0  0  0
   44.3530   16.8036   -4.3507 N   0  0  0  0  0  0  0  0  0  0  0  0
   45.7468   18.4721    0.5439 O   0  0  0  0  0  0  0  0  0  0  0  0
   46.4240   17.2752    0.5723 C   0  0  1  0  0  0  0  0  0  0  0  0
   40.7422   14.7435   -0.4734 N   0  0  0  0  0  0  0  0  0  0  0  0
   47.3698   17.0330   -0.4317 O   0  0  0  0  0  0  0  0  0  0  0  0
   47.0593   16.2740   -1.6900 C   0  0  2  0  0  0  0  0  0  0  0  0
   44.0569   19.7010   -1.6745 N   0  0  0  0  0  0  0  0  0  0  0  0
   49.4760   15.7493   -1.9650 O   0  0  0  0  0  0  0  0  0  0  0  0
   48.3021   16.3518   -2.6254 C   0  0  1  0  0  0  0  0  0  0  0  0
   44.7066   16.8111   -1.6032 O   0  0  0  0  0  0  0  0  0  0  0  0
   48.0159   15.5640   -4.0002 C   0  0  1  0  0  0  0  0  0  0  0  0
   42.4023   16.3500   -1.2255 O   0  0  0  0  0  0  0  0  0  0  0  0
   46.7478   16.2356   -4.6866 C   0  0  0  0  0  0  0  0  0  0  0  0
   42.2604   17.4819    2.3198 O   0  0  0  0  0  0  0  0  0  0  0  0
   45.5276   16.1563   -3.6779 C   0  0  1  0  0  0  0  0  0  0  0  0
   42.8971   19.9452    1.0231 O   0  0  0  0  0  0  0  0  0  0  0  0
   45.8029   16.9235   -2.4241 C   0  0  2  0  0  0  0  0  0  0  0  0
   47.0420   15.8075    2.3481 O   0  0  0  0  0  0  0  0  0  0  0  0
   43.3710   17.3335   -1.8221 C   0  0  1  0  0  0  0  0  0  0  0  0
   44.8132   17.2551    3.1219 O   0  0  0  0  0  0  0  0  0  0  0  0
   42.4700   16.1912    0.2874 C   0  0  2  0  0  0  0  0  0  0  0  0
   41.4566   15.1468    0.7412 C   0  0  0  0  0  0  0  0  0  0  0  0
   42.1893   17.5727    0.9224 C   0  0  2  0  0  0  0  0  0  0  0  0
   43.1836   18.6082    0.4240 C   0  0  1  0  0  0  0  0  0  0  0  0
   43.0869   18.6816   -1.1111 C   0  0  1  0  0  0  0  0  0  0  0  0
   46.9579   17.1391    1.9890 C   0  0  2  0  0  0  0  0  0  0  0  0
   46.0107   18.0381    2.8469 C   0  0  1  0  0  0  0  0  0  0  0  0
  1  3  1  0  0  0  0
  4  1  1  6  0  0  0
  4  6  1  0  0  0  0
  4 31  1  0  0  0  0
  6  7  1  0  0  0  0
  7  9  1  6  0  0  0
  7 30  1  0  0  0  0
  8 26  1  0  0  0  0
 10  9  1  1  0  0  0
 10 13  1  0  0  0  0
 10 21  1  0  0  0  0
 13 12  1  1  0  0  0
 13 15  1  0  0  0  0
 15  2  1  6  0  0  0
 15 17  1  0  0  0  0
 16 25  1  0  0  0  0
 16 23  1  0  0  0  0
 17 19  1  0  0  0  0
 19  5  1  6  0  0  0
 19 21  1  0  0  0  0
 21 14  1  1  0  0  0
 23 14  1  1  0  0  0
 23 29  1  0  0  0  0
 25 26  1  1  0  0  0
 25 27  1  0  0  0  0
 27 18  1  1  0  0  0
 27 28  1  0  0  0  0
 28 20  1  1  0  0  0
 28 29  1  0  0  0  0
 29 11  1  6  0  0  0
 30 22  1  1  0  0  0
 30 31  1  0  0  0  0
 31 24  1  6  0  0  0
M  END
>  <CHROM.1>
158.17270682,-94.96140271,173.59431800,145.61398833,175.88204645,-3.06774018
45.16860953,17.30939038,-0.41684830,-2.17464626,-0.10294584,-2.03362240

>  <Name>
ligand

>  <RI>
0

>  <Rbt.Current_Directory>
/home/itssahil/PROJECTS/Mol_Feturizer/New_Systems/rnas/2ET5

>  <Rbt.Executable>
rbdock ($Id: //depot/dev/client3/rdock/2013.1/src/exe/rbdock.cxx#4 $)

>  <Rbt.Library>
libRbt.so (2013.1, Build901 2013/11/27)

>  <Rbt.Parameter_File>
/export/apps/rDock/src/rDock_2013.1_src/data/scripts/dock_solv.prm

>  <Rbt.Receptor>
prm/blind_docking_60.prm

>  <SCORE>
35.6686

>  <SCORE.INTER>
12.921

>  <SCORE.INTER.CONST>
1

>  <SCORE.INTER.POLAR>
0

>  <SCORE.INTER.ROT>
6

>  <SCORE.INTER.SOLV>
22.5587

>  <SCORE.INTER.VDW>
-6.50559

>  <SCORE.INTER.norm>
0.416806

>  <SCORE.INTRA>
5.69323

>  <SCORE.INTRA.DIHEDRAL>
4.7615

>  <SCORE.INTRA.DIHEDRAL.0>
11.2357

>  <SCORE.INTRA.POLAR>
0

>  <SCORE.INTRA.POLAR.0>
0

>  <SCORE.INTRA.REPUL>
0

>  <SCORE.INTRA.REPUL.0>
0

>  <SCORE.INTRA.SOLV>
2.20935

>  <SCORE.INTRA.SOLV.lig_0>
-83.3092

>  <SCORE.INTRA.VDW>
2.20781

>  <SCORE.INTRA.VDW.0>
-4.47057

>  <SCORE.INTRA.norm>
0.183653

>  <SCORE.RESTR>
17.0544

>  <SCORE.RESTR.CAVITY>
17.0544

>  <SCORE.RESTR.norm>
0.550141

>  <SCORE.SYSTEM>
0

>  <SCORE.SYSTEM.CONST>
0

>  <SCORE.SYSTEM.DIHEDRAL>
0

>  <SCORE.SYSTEM.SOLV>
0

>  <SCORE.SYSTEM.norm>
0

>  <SCORE.heavy>
31

>  <SCORE.norm>
1.1506

>  <RMSD>
8.727

$$$$
ligand
 OpenBabel11021811433D
libRbt.so/2013.1/901 2013/11/27
 31 33  0  0  0  0  0  0  0  0999 V2000
   42.9653   24.9015    5.2604 C   0  0  0  0  0  0  0  0  0  0  0  0
   37.7896   26.1064    9.0176 N   0  0  0  0  0  0  0  0  0  0  0  0
   44.1026   24.2294    4.6995 O   0  0  0  0  0  0  0  0  0  0  0  0
   41.7711   24.3094    4.5166 C   0  0  1  0  0  0  0  0  0  0  0  0
   34.6547   26.0446    5.0305 N   0  0  0  0  0  0  0  0  0  0  0  0
   40.4285   24.9173    4.8797 O   0  0  0  0  0  0  0  0  0  0  0  0
   39.9148   25.7392    3.9037 C   0  0  1  0  0  0  0  0  0  0  0  0
   40.6910   30.2537    2.9719 N   0  0  0  0  0  0  0  0  0  0  0  0
   39.4546   27.0049    4.2878 O   0  0  0  0  0  0  0  0  0  0  0  0
   38.2994   27.2117    5.2252 C   0  0  2  0  0  0  0  0  0  0  0  0
   34.8396   27.8357    1.2281 N   0  0  0  0  0  0  0  0  0  0  0  0
   39.8695   27.2019    7.1555 O   0  0  0  0  0  0  0  0  0  0  0  0
   38.6617   26.5657    6.5952 C   0  0  1  0  0  0  0  0  0  0  0  0
   36.6609   27.1227    3.4536 O   0  0  0  0  0  0  0  0  0  0  0  0
   37.4466   26.7463    7.6361 C   0  0  1  0  0  0  0  0  0  0  0  0
   37.1355   29.4368    3.7447 O   0  0  0  0  0  0  0  0  0  0  0  0
   36.1626   26.0517    7.0045 C   0  0  0  0  0  0  0  0  0  0  0  0
   39.2800   29.8706    0.7308 O   0  0  0  0  0  0  0  0  0  0  0  0
   35.8634   26.7260    5.6016 C   0  0  1  0  0  0  0  0  0  0  0  0
   36.7944   29.1992   -0.5043 O   0  0  0  0  0  0  0  0  0  0  0  0
   36.9904   26.5153    4.6413 C   0  0  2  0  0  0  0  0  0  0  0  0
   40.3430   25.9384    1.5656 O   0  0  0  0  0  0  0  0  0  0  0  0
   36.1123   28.4507    3.2527 C   0  0  1  0  0  0  0  0  0  0  0  0
   40.9631   23.3634    2.3699 O   0  0  0  0  0  0  0  0  0  0  0  0
   38.4418   29.4785    2.9634 C   0  0  2  0  0  0  0  0  0  0  0  0
   39.3855   30.4971    3.5922 C   0  0  0  0  0  0  0  0  0  0  0  0
   38.1066   29.8394    1.4978 C   0  0  2  0  0  0  0  0  0  0  0  0
   37.1318   28.8363    0.9039 C   0  0  1  0  0  0  0  0  0  0  0  0
   35.8577   28.8199    1.7687 C   0  0  1  0  0  0  0  0  0  0  0  0
   40.9518   25.7547    2.7923 C   0  0  2  0  0  0  0  0  0  0  0  0
   41.7476   24.4244    2.9880 C   0  0  1  0  0  0  0  0  0  0  0  0
  1  3  1  0  0  0  0
  4  1  1  1  0  0  0
  4  6  1  0  0  0  0
  4 31  1  0  0  0  0
  6  7  1  0  0  0  0
  7  9  1  1  0  0  0
  7 30  1  0  0  0  0
  8 26  1  0  0  0  0
 10  9  1  6  0  0  0
 10 13  1  0  0  0  0
 10 21  1  0  0  0  0
 13 12  1  1  0  0  0
 13 15  1  0  0  0  0
 15  2  1  1  0  0  0
 15 17  1  0  0  0  0
 16 25  1  0  0  0  0
 16 23  1  0  0  0  0
 17 19  1  0  0  0  0
 19  5  1  6  0  0  0
 19 21  1  0  0  0  0
 21 14  1  6  0  0  0
 23 14  1  6  0  0  0
 23 29  1  0  0  0  0
 25 26  1  1  0  0  0
 25 27  1  0  0  0  0
 27 18  1  6  0  0  0
 27 28  1  0  0  0  0
 28 20  1  6  0  0  0
 28 29  1  0  0  0  0
 29 11  1  6  0  0  0
 30 22  1  6  0  0  0
 30 31  1  0  0  0  0
 31 24  1  6  0  0  0
M  END
>  <CHROM.1>
-176.86067426,-63.47050157,61.27797549,63.22661620,-71.60314175,167.81461774
38.71848877,27.06518651,3.86695273,-0.71636969,0.44259273,-1.08884258

>  <Name>
ligand

>  <RI>
0

>  <Rbt.Current_Directory>
/home/itssahil/PROJECTS/Mol_Feturizer/New_Systems/rnas/2ET5

>  <Rbt.Executable>
rbdock ($Id: //depot/dev/client3/rdock/2013.1/src/exe/rbdock.cxx#4 $)

>  <Rbt.Library>
libRbt.so (2013.1, Build901 2013/11/27)

>  <Rbt.Parameter_File>
/export/apps/rDock/src/rDock_2013.1_src/data/scripts/dock_solv.prm

>  <Rbt.Receptor>
prm/pocket_docking_6.prm

>  <SCORE>
-6.78168

>  <SCORE.INTER>
-2.18049

>  <SCORE.INTER.CONST>
1

>  <SCORE.INTER.POLAR>
0

>  <SCORE.INTER.ROT>
6

>  <SCORE.INTER.SOLV>
15.9158

>  <SCORE.INTER.VDW>
-14.3589

>  <SCORE.INTER.norm>
-0.0703382

>  <SCORE.INTRA>
-4.60119

>  <SCORE.INTRA.DIHEDRAL>
-9.78073

>  <SCORE.INTRA.DIHEDRAL.0>
11.2357

>  <SCORE.INTRA.POLAR>
0

>  <SCORE.INTRA.POLAR.0>
0

>  <SCORE.INTRA.REPUL>
0

>  <SCORE.INTRA.REPUL.0>
0

>  <SCORE.INTRA.SOLV>
-1.78722

>  <SCORE.INTRA.SOLV.lig_0>
-83.3092

>  <SCORE.INTRA.VDW>
1.18279

>  <SCORE.INTRA.VDW.0>
-4.47057

>  <SCORE.INTRA.norm>
-0.148425

>  <SCORE.RESTR>
0

>  <SCORE.RESTR.CAVITY>
0

>  <SCORE.RESTR.norm>
0

>  <SCORE.SYSTEM>
0

>  <SCORE.SYSTEM.CONST>
0

>  <SCORE.SYSTEM.DIHEDRAL>
0

>  <SCORE.SYSTEM.SOLV>
0

>  <SCORE.SYSTEM.norm>
0

>  <SCORE.heavy>
31

>  <SCORE.norm>
-0.218764

>  <RMSD>
8.727

$$$$
ligand
 OpenBabel11021811433D
libRbt.so/2013.1/901 2013/11/27
 31 33  0  0  0  0  0  0  0  0999 V2000
   41.1475   25.5245    6.6120 C   0  0  0  0  0  0  0  0  0  0  0  0
   36.7531   26.8781    9.1368 N   0  0  0  0  0  0  0  0  0  0  0  0
   42.5699   25.7081    6.6633 O   0  0  0  0  0  0  0  0  0  0  0  0
   40.9311   24.5708    5.4400 C   0  0  1  0  0  0  0  0  0  0  0  0
   34.4998   29.0090    5.1231 N   0  0  0  0  0  0  0  0  0  0  0  0
   39.5013   24.0930    5.2623 O   0  0  0  0  0  0  0  0  0  0  0  0
   38.8599   24.6646    4.1881 C   0  0  1  0  0  0  0  0  0  0  0  0
   37.8363   30.5417    0.6315 N   0  0  0  0  0  0  0  0  0  0  0  0
   37.5852   25.2056    4.3976 O   0  0  0  0  0  0  0  0  0  0  0  0
   37.3382   26.4366    5.2219 C   0  0  2  0  0  0  0  0  0  0  0  0
   34.2648   25.4805    2.5327 N   0  0  0  0  0  0  0  0  0  0  0  0
   38.4213   25.3405    7.1757 O   0  0  0  0  0  0  0  0  0  0  0  0
   37.1881   26.0043    6.7106 C   0  0  1  0  0  0  0  0  0  0  0  0
   36.1624   27.5667    3.4411 O   0  0  0  0  0  0  0  0  0  0  0  0
   36.9057   27.2891    7.6390 C   0  0  1  0  0  0  0  0  0  0  0  0
   35.6683   28.8079    1.4712 O   0  0  0  0  0  0  0  0  0  0  0  0
   35.5734   27.9811    7.1134 C   0  0  0  0  0  0  0  0  0  0  0  0
   37.5381   26.6619   -0.9308 O   0  0  0  0  0  0  0  0  0  0  0  0
   35.7736   28.3676    5.5892 C   0  0  1  0  0  0  0  0  0  0  0  0
   35.5578   24.8125   -0.0293 O   0  0  0  0  0  0  0  0  0  0  0  0
   35.9997   27.1560    4.7422 C   0  0  2  0  0  0  0  0  0  0  0  0
   39.6554   25.7445    2.2157 O   0  0  0  0  0  0  0  0  0  0  0  0
   35.1355   27.7893    2.4408 C   0  0  1  0  0  0  0  0  0  0  0  0
   41.6002   23.9953    3.1212 O   0  0  0  0  0  0  0  0  0  0  0  0
   36.8692   28.3682    0.6447 C   0  0  2  0  0  0  0  0  0  0  0  0
   37.3127   29.5076   -0.2655 C   0  0  0  0  0  0  0  0  0  0  0  0
   36.4552   27.1181   -0.1657 C   0  0  2  0  0  0  0  0  0  0  0  0
   35.9761   26.0103    0.7575 C   0  0  1  0  0  0  0  0  0  0  0  0
   34.7925   26.5412    1.5873 C   0  0  1  0  0  0  0  0  0  0  0  0
   39.8629   25.6295    3.5769 C   0  0  2  0  0  0  0  0  0  0  0  0
   41.2534   25.0799    4.0302 C   0  0  1  0  0  0  0  0  0  0  0  0
  1  3  1  0  0  0  0
  4  1  1  1  0  0  0
  4  6  1  0  0  0  0
  4 31  1  0  0  0  0
  6  7  1  0  0  0  0
  7  9  1  1  0  0  0
  7 30  1  0  0  0  0
  8 26  1  0  0  0  0
 10  9  1  6  0  0  0
 10 13  1  0  0  0  0
 10 21  1  0  0  0  0
 13 12  1  1  0  0  0
 13 15  1  0  0  0  0
 15  2  1  1  0  0  0
 15 17  1  0  0  0  0
 16 25  1  0  0  0  0
 16 23  1  0  0  0  0
 17 19  1  0  0  0  0
 19  5  1  6  0  0  0
 19 21  1  0  0  0  0
 21 14  1  6  0  0  0
 23 14  1  1  0  0  0
 23 29  1  0  0  0  0
 25 26  1  6  0  0  0
 25 27  1  0  0  0  0
 27 18  1  1  0  0  0
 27 28  1  0  0  0  0
 28 20  1  6  0  0  0
 28 29  1  0  0  0  0
 29 11  1  1  0  0  0
 30 22  1  6  0  0  0
 30 31  1  0  0  0  0
 31 24  1  6  0  0  0
M  END
>  <CHROM.1>
173.72857372,68.73440869,-86.52584927,153.18265952,154.51649742,67.72387991
37.62485417,26.54394738,3.72341783,-0.93115831,0.50379456,-1.53940161

>  <Name>
ligand

>  <RI>
0

>  <Rbt.Current_Directory>
/home/itssahil/PROJECTS/Mol_Feturizer/New_Systems/rnas/2ET5

>  <Rbt.Executable>
rbdock ($Id: //depot/dev/client3/rdock/2013.1/src/exe/rbdock.cxx#4 $)

>  <Rbt.Library>
libRbt.so (2013.1, Build901 2013/11/27)

>  <Rbt.Parameter_File>
/export/apps/rDock/src/rDock_2013.1_src/data/scripts/dock_solv.prm

>  <Rbt.Receptor>
prm/pocket_docking_6.prm

>  <SCORE>
-7.27476

>  <SCORE.INTER>
-7.04909

>  <SCORE.INTER.CONST>
1

>  <SCORE.INTER.POLAR>
0

>  <SCORE.INTER.ROT>
6

>  <SCORE.INTER.SOLV>
19.2011

>  <SCORE.INTER.VDW>
-18.6997

>  <SCORE.INTER.norm>
-0.22739

>  <SCORE.INTRA>
-0.225663

>  <SCORE.INTRA.DIHEDRAL>
-1.71044

>  <SCORE.INTRA.DIHEDRAL.0>
11.2357

>  <SCORE.INTRA.POLAR>
0

>  <SCORE.INTRA.POLAR.0>
0

>  <SCORE.INTRA.REPUL>
0

>  <SCORE.INTRA.REPUL.0>
0

>  <SCORE.INTRA.SOLV>
-1.5339

>  <SCORE.INTRA.SOLV.lig_0>
-83.3092

>  <SCORE.INTRA.VDW>
1.39651

>  <SCORE.INTRA.VDW.0>
-4.47057

>  <SCORE.INTRA.norm>
-0.00727944

>  <SCORE.RESTR>
0

>  <SCORE.RESTR.CAVITY>
0

>  <SCORE.RESTR.norm>
0

>  <SCORE.SYSTEM>
0

>  <SCORE.SYSTEM.CONST>
0

>  <SCORE.SYSTEM.DIHEDRAL>
0

>  <SCORE.SYSTEM.SOLV>
0

>  <SCORE.SYSTEM.norm>
0

>  <SCORE.heavy>
31

>  <SCORE.norm>
-0.23467

>  <RMSD>
8.759

$$$$
ligand
 OpenBabel11021811433D
libRbt.so/2013.1/901 2013/11/27
 31 33  0  0  0  0  0  0  0  0999 V2000
   42.2426   14.7623   -3.0193 C   0  0  0  0  0  0  0  0  0  0  0  0
   48.0022   15.4096   -4.2544 N   0  0  0  0  0  0  0  0  0  0  0  0
   40.8263   14.5405   -3.0871 O   0  0  0  0  0  0  0  0  0  0  0  0
   42.5090   15.0584   -1.5457 C   0  0  1  0  0  0  0  0  0  0  0  0
   48.7219   16.6064    0.6219 N   0  0  0  0  0  0  0  0  0  0  0  0
   43.8327   15.7453   -1.2625 O   0  0  0  0  0  0  0  0  0  0  0  0
   43.7027   17.0729   -0.9271 C   0  0  1  0  0  0  0  0  0  0  0  0
   46.0550   22.4948    1.9818 N   0  0  0  0  0  0  0  0  0  0  0  0
   44.5173   17.9994   -1.5901 O   0  0  0  0  0  0  0  0  0  0  0  0
   45.9936   17.8056   -1.7868 C   0  0  2  0  0  0  0  0  0  0  0  0
   44.9641   16.0330    1.7109 N   0  0  0  0  0  0  0  0  0  0  0  0
   45.5919   17.1917   -4.1645 O   0  0  0  0  0  0  0  0  0  0  0  0
   46.2007   16.7361   -2.8998 C   0  0  1  0  0  0  0  0  0  0  0  0
   46.5074   18.2679    0.5269 O   0  0  0  0  0  0  0  0  0  0  0  0
   47.7718   16.4784   -3.1407 C   0  0  1  0  0  0  0  0  0  0  0  0
   46.2665   19.4573    2.5744 O   0  0  0  0  0  0  0  0  0  0  0  0
   48.3977   15.9897   -1.7625 C   0  0  0  0  0  0  0  0  0  0  0  0
   42.6701   20.3470    2.1934 O   0  0  0  0  0  0  0  0  0  0  0  0
   48.1277   17.1004   -0.6642 C   0  0  1  0  0  0  0  0  0  0  0  0
   42.4812   17.5002    2.3143 O   0  0  0  0  0  0  0  0  0  0  0  0
   46.6633   17.2973   -0.4332 C   0  0  2  0  0  0  0  0  0  0  0  0
   41.8730   18.3619   -0.1022 O   0  0  0  0  0  0  0  0  0  0  0  0
   46.3105   18.0886    1.9530 C   0  0  1  0  0  0  0  0  0  0  0  0
   41.4996   15.7168    0.6230 O   0  0  0  0  0  0  0  0  0  0  0  0
   45.0867   20.3298    2.1676 C   0  0  2  0  0  0  0  0  0  0  0  0
   45.1919   21.6888    2.8499 C   0  0  0  0  0  0  0  0  0  0  0  0
   43.7894   19.5894    2.5669 C   0  0  2  0  0  0  0  0  0  0  0  0
   43.7249   18.2204    1.9104 C   0  0  1  0  0  0  0  0  0  0  0  0
   44.9672   17.4148    2.3337 C   0  0  1  0  0  0  0  0  0  0  0  0
   42.2143   17.3720   -1.0037 C   0  0  2  0  0  0  0  0  0  0  0  0
   41.5302   15.9807   -0.8096 C   0  0  1  0  0  0  0  0  0  0  0  0
  1  3  1  0  0  0  0
  4  1  1  6  0  0  0
  4  6  1  0  0  0  0
  4 31  1  0  0  0  0
  6  7  1  0  0  0  0
  7  9  1  6  0  0  0
  7 30  1  0  0  0  0
  8 26  1  0  0  0  0
 10  9  1  1  0  0  0
 10 13  1  0  0  0  0
 10 21  1  0  0  0  0
 13 12  1  6  0  0  0
 13 15  1  0  0  0  0
 15  2  1  6  0  0  0
 15 17  1  0  0  0  0
 16 25  1  0  0  0  0
 16 23  1  0  0  0  0
 17 19  1  0  0  0  0
 19  5  1  1  0  0  0
 19 21  1  0  0  0  0
 21 14  1  1  0  0  0
 23 14  1  6  0  0  0
 23 29  1  0  0  0  0
 25 26  1  1  0  0  0
 25 27  1  0  0  0  0
 27 18  1  6  0  0  0
 27 28  1  0  0  0  0
 28 20  1  1  0  0  0
 28 29  1  0  0  0  0
 29 11  1  6  0  0  0
 30 22  1  1  0  0  0
 30 31  1  0  0  0  0
 31 24  1  1  0  0  0
M  END
>  <CHROM.1>
-161.79813622,-46.77639538,74.65096661,177.12410097,146.15124219,85.40388413
44.72491270,17.50660140,-0.19873940,1.64264693,-0.18706583,-2.25775633

>  <Name>
ligand

>  <RI>
0

>  <Rbt.Current_Directory>
/home/itssahil/PROJECTS/Mol_Feturizer/New_Systems/rnas/2ET5

>  <Rbt.Executable>
rbdock ($Id: //depot/dev/client3/rdock/2013.1/src/exe/rbdock.cxx#4 $)

>  <Rbt.Library>
libRbt.so (2013.1, Build901 2013/11/27)

>  <Rbt.Parameter_File>
/export/apps/rDock/src/rDock_2013.1_src/data/scripts/dock_solv.prm

>  <Rbt.Receptor>
prm/blind_docking_60.prm

>  <SCORE>
18.9237

>  <SCORE.INTER>
0.703778

>  <SCORE.INTER.CONST>
1

>  <SCORE.INTER.POLAR>
0

>  <SCORE.INTER.ROT>
6

>  <SCORE.INTER.SOLV>
24.0063

>  <SCORE.INTER.VDW>
-15.1329

>  <SCORE.INTER.norm>
0.0227025

>  <SCORE.INTRA>
0.668771

>  <SCORE.INTRA.DIHEDRAL>
-1.80508

>  <SCORE.INTRA.DIHEDRAL.0>
11.2357

>  <SCORE.INTRA.POLAR>
0

>  <SCORE.INTRA.POLAR.0>
0

>  <SCORE.INTRA.REPUL>
0

>  <SCORE.INTRA.REPUL.0>
0

>  <SCORE.INTRA.SOLV>
2.99851

>  <SCORE.INTRA.SOLV.lig_0>
-83.3092

>  <SCORE.INTRA.VDW>
0.0720547

>  <SCORE.INTRA.VDW.0>
-4.47057

>  <SCORE.INTRA.norm>
0.0215733

>  <SCORE.RESTR>
17.5512

>  <SCORE.RESTR.CAVITY>
17.5512

>  <SCORE.RESTR.norm>
0.566168

>  <SCORE.SYSTEM>
0

>  <SCORE.SYSTEM.CONST>
0

>  <SCORE.SYSTEM.DIHEDRAL>
0

>  <SCORE.SYSTEM.SOLV>
0

>  <SCORE.SYSTEM.norm>
0

>  <SCORE.heavy>
31

>  <SCORE.norm>
0.610443

>  <RMSD>
8.761

$$$$
ligand
 OpenBabel11021811433D
libRbt.so/2013.1/901 2013/11/27
 31 33  0  0  0  0  0  0  0  0999 V2000
   37.4078   26.5138   -1.6997 C   0  0  0  0  0  0  0  0  0  0  0  0
   41.7451   29.8327    0.8394 N   0  0  0  0  0  0  0  0  0  0  0  0
   37.0318   25.3812   -2.4970 O   0  0  0  0  0  0  0  0  0  0  0  0
   37.1587   26.0640   -0.2624 C   0  0  1  0  0  0  0  0  0  0  0  0
   39.7523   29.3749    5.4813 N   0  0  0  0  0  0  0  0  0  0  0  0
   37.6478   27.0297    0.8017 O   0  0  0  0  0  0  0  0  0  0  0  0
   36.6340   27.7123    1.4328 C   0  0  1  0  0  0  0  0  0  0  0  0
   37.4868   25.1783    3.9459 N   0  0  0  0  0  0  0  0  0  0  0  0
   36.7541   29.1026    1.5508 O   0  0  0  0  0  0  0  0  0  0  0  0
   37.9715   29.7795    2.1125 C   0  0  2  0  0  0  0  0  0  0  0  0
   34.9395   30.8379    5.8107 N   0  0  0  0  0  0  0  0  0  0  0  0
   38.9269   29.9530   -0.1785 O   0  0  0  0  0  0  0  0  0  0  0  0
   39.1809   29.4540    1.1867 C   0  0  1  0  0  0  0  0  0  0  0  0
   37.2115   29.5684    4.3947 O   0  0  0  0  0  0  0  0  0  0  0  0
   40.5198   30.1455    1.7538 C   0  0  1  0  0  0  0  0  0  0  0  0
   35.8981   27.5985    4.1508 O   0  0  0  0  0  0  0  0  0  0  0  0
   40.7657   29.5885    3.2234 C   0  0  0  0  0  0  0  0  0  0  0  0
   36.0920   26.4502    7.6884 O   0  0  0  0  0  0  0  0  0  0  0  0
   39.4922   29.9191    4.1074 C   0  0  1  0  0  0  0  0  0  0  0  0
   34.6887   28.9138    8.0281 O   0  0  0  0  0  0  0  0  0  0  0  0
   38.2688   29.2384    3.5815 C   0  0  2  0  0  0  0  0  0  0  0  0
   34.2986   27.2876    1.6674 O   0  0  0  0  0  0  0  0  0  0  0  0
   35.8433   29.0921    4.3166 C   0  0  1  0  0  0  0  0  0  0  0  0
   35.6075   24.8811    1.2706 O   0  0  0  0  0  0  0  0  0  0  0  0
   36.4691   26.8235    5.3306 C   0  0  2  0  0  0  0  0  0  0  0  0
   36.4881   25.3340    5.0073 C   0  0  0  0  0  0  0  0  0  0  0  0
   35.5925   27.1281    6.5672 C   0  0  2  0  0  0  0  0  0  0  0  0
   35.5523   28.6214    6.8461 C   0  0  1  0  0  0  0  0  0  0  0  0
   35.0059   29.3387    5.5978 C   0  0  1  0  0  0  0  0  0  0  0  0
   35.3488   27.2432    0.7705 C   0  0  2  0  0  0  0  0  0  0  0  0
   35.7077   25.8419    0.1798 C   0  0  1  0  0  0  0  0  0  0  0  0
  1  3  1  0  0  0  0
  4  1  1  6  0  0  0
  4  6  1  0  0  0  0
  4 31  1  0  0  0  0
  6  7  1  0  0  0  0
  7  9  1  6  0  0  0
  7 30  1  0  0  0  0
  8 26  1  0  0  0  0
 10  9  1  6  0  0  0
 10 13  1  0  0  0  0
 10 21  1  0  0  0  0
 13 12  1  6  0  0  0
 13 15  1  0  0  0  0
 15  2  1  6  0  0  0
 15 17  1  0  0  0  0
 16 25  1  0  0  0  0
 16 23  1  0  0  0  0
 17 19  1  0  0  0  0
 19  5  1  1  0  0  0
 19 21  1  0  0  0  0
 21 14  1  1  0  0  0
 23 14  1  1  0  0  0
 23 29  1  0  0  0  0
 25 26  1  6  0  0  0
 25 27  1  0  0  0  0
 27 18  1  1  0  0  0
 27 28  1  0  0  0  0
 28 20  1  1  0  0  0
 28 29  1  0  0  0  0
 29 11  1  1  0  0  0
 30 22  1  1  0  0  0
 30 31  1  0  0  0  0
 31 24  1  1  0  0  0
M  END
>  <CHROM.1>
172.56724948,-51.61004769,62.83297020,46.85702332,65.37758479,67.90353995
37.11479297,28.01171530,2.98252935,1.19756391,-0.69478712,-1.95549460

>  <Name>
ligand

>  <RI>
0

>  <Rbt.Current_Directory>
/home/itssahil/PROJECTS/Mol_Feturizer/New_Systems/rnas/2ET5

>  <Rbt.Executable>
rbdock ($Id: //depot/dev/client3/rdock/2013.1/src/exe/rbdock.cxx#4 $)

>  <Rbt.Library>
libRbt.so (2013.1, Build901 2013/11/27)

>  <Rbt.Parameter_File>
/export/apps/rDock/src/rDock_2013.1_src/data/scripts/dock_solv.prm

>  <Rbt.Receptor>
prm/pocket_docking_8.prm

>  <SCORE>
-9.53287

>  <SCORE.INTER>
-4.51026

>  <SCORE.INTER.CONST>
1

>  <SCORE.INTER.POLAR>
0

>  <SCORE.INTER.ROT>
6

>  <SCORE.INTER.SOLV>
11.5619

>  <SCORE.INTER.VDW>
-14.4608

>  <SCORE.INTER.norm>
-0.145492

>  <SCORE.INTRA>
-5.02261

>  <SCORE.INTRA.DIHEDRAL>
-9.34825

>  <SCORE.INTRA.DIHEDRAL.0>
11.2357

>  <SCORE.INTRA.POLAR>
0

>  <SCORE.INTRA.POLAR.0>
0

>  <SCORE.INTRA.REPUL>
0

>  <SCORE.INTRA.REPUL.0>
0

>  <SCORE.INTRA.SOLV>
-0.703046

>  <SCORE.INTRA.SOLV.lig_0>
-83.3092

>  <SCORE.INTRA.VDW>
0.0030366

>  <SCORE.INTRA.VDW.0>
-4.47057

>  <SCORE.INTRA.norm>
-0.16202

>  <SCORE.RESTR>
0

>  <SCORE.RESTR.CAVITY>
0

>  <SCORE.RESTR.norm>
0

>  <SCORE.SYSTEM>
0

>  <SCORE.SYSTEM.CONST>
0

>  <SCORE.SYSTEM.DIHEDRAL>
0

>  <SCORE.SYSTEM.SOLV>
0

>  <SCORE.SYSTEM.norm>
0

>  <SCORE.heavy>
31

>  <SCORE.norm>
-0.307512

>  <RMSD>
8.764

$$$$
ligand
 OpenBabel11021811433D
libRbt.so/2013.1/901 2013/11/27
 31 33  0  0  0  0  0  0  0  0999 V2000
   42.2234   14.4938   -2.9368 C   0  0  0  0  0  0  0  0  0  0  0  0
   48.0440   15.4477   -4.3082 N   0  0  0  0  0  0  0  0  0  0  0  0
   40.8296   14.1529   -2.9611 O   0  0  0  0  0  0  0  0  0  0  0  0
   42.4932   14.8802   -1.4849 C   0  0  1  0  0  0  0  0  0  0  0  0
   48.6099   16.6623    0.5839 N   0  0  0  0  0  0  0  0  0  0  0  0
   43.7947   15.6267   -1.2550 O   0  0  0  0  0  0  0  0  0  0  0  0
   43.6217   16.9657   -0.9919 C   0  0  1  0  0  0  0  0  0  0  0  0
   46.0735   22.4204    1.9915 N   0  0  0  0  0  0  0  0  0  0  0  0
   44.3973   17.8813   -1.7141 O   0  0  0  0  0  0  0  0  0  0  0  0
   45.8843   17.7506   -1.8800 C   0  0  2  0  0  0  0  0  0  0  0  0
   44.7366   16.0245    1.6203 N   0  0  0  0  0  0  0  0  0  0  0  0
   45.5589   17.1258   -4.2665 O   0  0  0  0  0  0  0  0  0  0  0  0
   46.1599   16.6935   -2.9900 C   0  0  1  0  0  0  0  0  0  0  0  0
   46.3294   18.2288    0.4447 O   0  0  0  0  0  0  0  0  0  0  0  0
   47.7451   16.5031   -3.1981 C   0  0  1  0  0  0  0  0  0  0  0  0
   46.1394   19.4031    2.5063 O   0  0  0  0  0  0  0  0  0  0  0  0
   48.3622   16.0381   -1.8077 C   0  0  0  0  0  0  0  0  0  0  0  0
   42.5652   20.3939    2.1676 O   0  0  0  0  0  0  0  0  0  0  0  0
   48.0223   17.1338   -0.7138 C   0  0  1  0  0  0  0  0  0  0  0  0
   42.3000   17.5522    2.2615 O   0  0  0  0  0  0  0  0  0  0  0  0
   46.5464   17.2679   -0.5133 C   0  0  2  0  0  0  0  0  0  0  0  0
   41.7561   18.2350   -0.2187 O   0  0  0  0  0  0  0  0  0  0  0  0
   46.1406   18.0402    1.8707 C   0  0  1  0  0  0  0  0  0  0  0  0
   41.4818   15.6230    0.6555 O   0  0  0  0  0  0  0  0  0  0  0  0
   44.9802   20.3114    2.1192 C   0  0  2  0  0  0  0  0  0  0  0  0
   45.1285   21.6599    2.8142 C   0  0  0  0  0  0  0  0  0  0  0  0
   43.6668   19.6024    2.5230 C   0  0  2  0  0  0  0  0  0  0  0  0
   43.5592   18.2425    1.8534 C   0  0  1  0  0  0  0  0  0  0  0  0
   44.7828   17.3992    2.2570 C   0  0  1  0  0  0  0  0  0  0  0  0
   42.1232   17.2088   -1.0680 C   0  0  2  0  0  0  0  0  0  0  0  0
   41.4898   15.8078   -0.7898 C   0  0  1  0  0  0  0  0  0  0  0  0
  1  3  1  0  0  0  0
  4  1  1  6  0  0  0
  4  6  1  0  0  0  0
  4 31  1  0  0  0  0
  6  7  1  0  0  0  0
  7  9  1  6  0  0  0
  7 30  1  0  0  0  0
  8 26  1  0  0  0  0
 10  9  1  1  0  0  0
 10 13  1  0  0  0  0
 10 21  1  0  0  0  0
 13 12  1  6  0  0  0
 13 15  1  0  0  0  0
 15  2  1  6  0  0  0
 15 17  1  0  0  0  0
 16 25  1  0  0  0  0
 16 23  1  0  0  0  0
 17 19  1  0  0  0  0
 19  5  1  1  0  0  0
 19 21  1  0  0  0  0
 21 14  1  1  0  0  0
 23 14  1  6  0  0  0
 23 29  1  0  0  0  0
 25 26  1  1  0  0  0
 25 27  1  0  0  0  0
 27 18  1  6  0  0  0
 27 28  1  0  0  0  0
 28 20  1  1  0  0  0
 28 29  1  0  0  0  0
 29 11  1  6  0  0  0
 30 22  1  1  0  0  0
 30 31  1  0  0  0  0
 31 24  1  1  0  0  0
M  END
>  <CHROM.1>
-164.70390605,-48.77236249,79.12410678,171.98384106,147.68017463,81.85875807
44.63838728,17.44432531,-0.24041808,1.62529220,-0.22981926,-2.27596944

>  <Name>
ligand

>  <RI>
0

>  <Rbt.Current_Directory>
/home/itssahil/PROJECTS/Mol_Feturizer/New_Systems/rnas/2ET5

>  <Rbt.Executable>
rbdock ($Id: //depot/dev/client3/rdock/2013.1/src/exe/rbdock.cxx#4 $)

>  <Rbt.Library>
libRbt.so (2013.1, Build901 2013/11/27)

>  <Rbt.Parameter_File>
/export/apps/rDock/src/rDock_2013.1_src/data/scripts/dock_solv.prm

>  <Rbt.Receptor>
prm/blind_docking_60.prm

>  <SCORE>
19.5892

>  <SCORE.INTER>
1.48203

>  <SCORE.INTER.CONST>
1

>  <SCORE.INTER.POLAR>
0

>  <SCORE.INTER.ROT>
6

>  <SCORE.INTER.SOLV>
24.322

>  <SCORE.INTER.VDW>
-14.7193

>  <SCORE.INTER.norm>
0.0478074

>  <SCORE.INTRA>
0.608799

>  <SCORE.INTRA.DIHEDRAL>
-2.15888

>  <SCORE.INTRA.DIHEDRAL.0>
11.2357

>  <SCORE.INTRA.POLAR>
0

>  <SCORE.INTRA.POLAR.0>
0

>  <SCORE.INTRA.REPUL>
0

>  <SCORE.INTRA.REPUL.0>
0

>  <SCORE.INTRA.SOLV>
3.31014

>  <SCORE.INTRA.SOLV.lig_0>
-83.3092

>  <SCORE.INTRA.VDW>
0.03317

>  <SCORE.INTRA.VDW.0>
-4.47057

>  <SCORE.INTRA.norm>
0.0196387

>  <SCORE.RESTR>
17.4984

>  <SCORE.RESTR.CAVITY>
17.4984

>  <SCORE.RESTR.norm>
0.564463

>  <SCORE.SYSTEM>
0

>  <SCORE.SYSTEM.CONST>
0

>  <SCORE.SYSTEM.DIHEDRAL>
0

>  <SCORE.SYSTEM.SOLV>
0

>  <SCORE.SYSTEM.norm>
0

>  <SCORE.heavy>
31

>  <SCORE.norm>
0.631909

>  <RMSD>
8.786

$$$$
ligand
 OpenBabel11021811433D
libRbt.so/2013.1/901 2013/11/27
 31 33  0  0  0  0  0  0  0  0999 V2000
   45.8074   16.5160   -2.9623 C   0  0  0  0  0  0  0  0  0  0  0  0
   42.5556   12.9368   -0.3368 N   0  0  0  0  0  0  0  0  0  0  0  0
   44.4171   16.8682   -3.0130 O   0  0  0  0  0  0  0  0  0  0  0  0
   46.4413   17.6016   -2.0964 C   0  0  1  0  0  0  0  0  0  0  0  0
   41.4865   17.8614   -0.9146 N   0  0  0  0  0  0  0  0  0  0  0  0
   45.7478   17.8435   -0.7680 O   0  0  0  0  0  0  0  0  0  0  0  0
   46.4461   17.3587    0.3134 C   0  0  1  0  0  0  0  0  0  0  0  0
   46.5344   16.8458    3.5803 N   0  0  0  0  0  0  0  0  0  0  0  0
   45.7525   16.5744    1.2436 O   0  0  0  0  0  0  0  0  0  0  0  0
   44.3010   16.2163    1.0993 C   0  0  2  0  0  0  0  0  0  0  0  0
   42.1876   20.9735    1.5034 N   0  0  0  0  0  0  0  0  0  0  0  0
   44.8743   13.8083    1.3536 O   0  0  0  0  0  0  0  0  0  0  0  0
   44.2101   14.7917    0.4765 C   0  0  1  0  0  0  0  0  0  0  0  0
   43.6267   18.5041    0.7226 O   0  0  0  0  0  0  0  0  0  0  0  0
   42.6698   14.3634    0.2856 C   0  0  1  0  0  0  0  0  0  0  0  0
   44.4295   18.3216    2.9559 O   0  0  0  0  0  0  0  0  0  0  0  0
   41.9830   15.4405   -0.6622 C   0  0  0  0  0  0  0  0  0  0  0  0
   46.9224   21.0841    2.7979 O   0  0  0  0  0  0  0  0  0  0  0  0
   42.1358   16.8700    0.0057 C   0  0  1  0  0  0  0  0  0  0  0  0
   44.5065   22.5540    2.4015 O   0  0  0  0  0  0  0  0  0  0  0  0
   43.5731   17.2604    0.1407 C   0  0  2  0  0  0  0  0  0  0  0  0
   48.7393   16.7860    0.6341 O   0  0  0  0  0  0  0  0  0  0  0  0
   43.3205   18.8608    2.0951 C   0  0  1  0  0  0  0  0  0  0  0  0
   48.5645   18.6706   -1.3857 O   0  0  0  0  0  0  0  0  0  0  0  0
   45.8010   18.9442    2.7326 C   0  0  2  0  0  0  0  0  0  0  0  0
   46.8227   18.2812    3.6492 C   0  0  0  0  0  0  0  0  0  0  0  0
   45.6844   20.4608    3.0102 C   0  0  2  0  0  0  0  0  0  0  0  0
   44.6310   21.0939    2.1166 C   0  0  1  0  0  0  0  0  0  0  0  0
   43.2862   20.3867    2.3672 C   0  0  1  0  0  0  0  0  0  0  0  0
   47.6909   16.7031   -0.2621 C   0  0  2  0  0  0  0  0  0  0  0  0
   47.8928   17.4037   -1.6440 C   0  0  1  0  0  0  0  0  0  0  0  0
  1  3  1  0  0  0  0
  4  1  1  1  0  0  0
  4  6  1  0  0  0  0
  4 31  1  0  0  0  0
  6  7  1  0  0  0  0
  7  9  1  6  0  0  0
  7 30  1  0  0  0  0
  8 26  1  0  0  0  0
 10  9  1  6  0  0  0
 10 13  1  0  0  0  0
 10 21  1  0  0  0  0
 13 12  1  1  0  0  0
 13 15  1  0  0  0  0
 15  2  1  6  0  0  0
 15 17  1  0  0  0  0
 16 25  1  0  0  0  0
 16 23  1  0  0  0  0
 17 19  1  0  0  0  0
 19  5  1  6  0  0  0
 19 21  1  0  0  0  0
 21 14  1  1  0  0  0
 23 14  1  6  0  0  0
 23 29  1  0  0  0  0
 25 26  1  1  0  0  0
 25 27  1  0  0  0  0
 27 18  1  6  0  0  0
 27 28  1  0  0  0  0
 28 20  1  1  0  0  0
 28 29  1  0  0  0  0
 29 11  1  6  0  0  0
 30 22  1  1  0  0  0
 30 31  1  0  0  0  0
 31 24  1  1  0  0  0
M  END
>  <CHROM.1>
50.86483671,1.40516425,97.51579917,71.69921958,-47.07905047,43.29096128,44.97630418
17.70051346,0.68948427,-1.76341189,0.16351500,0.58769028

>  <Name>
ligand

>  <RI>
0

>  <Rbt.Current_Directory>
/home/itssahil/PROJECTS/Mol_Feturizer/New_Systems/rnas/2ET5

>  <Rbt.Executable>
rbdock ($Id: //depot/dev/client3/rdock/2013.1/src/exe/rbdock.cxx#4 $)

>  <Rbt.Library>
libRbt.so (2013.1, Build901 2013/11/27)

>  <Rbt.Parameter_File>
/export/apps/rDock/src/rDock_2013.1_src/data/scripts/dock_solv.prm

>  <Rbt.Receptor>
prm/blind_docking_60.prm

>  <SCORE>
37.873

>  <SCORE.INTER>
8.18232

>  <SCORE.INTER.CONST>
1

>  <SCORE.INTER.POLAR>
0

>  <SCORE.INTER.ROT>
6

>  <SCORE.INTER.SOLV>
21.0512

>  <SCORE.INTER.VDW>
-9.16218

>  <SCORE.INTER.norm>
0.263946

>  <SCORE.INTRA>
7.53901

>  <SCORE.INTRA.DIHEDRAL>
3.56969

>  <SCORE.INTRA.DIHEDRAL.0>
11.2357

>  <SCORE.INTRA.POLAR>
0

>  <SCORE.INTRA.POLAR.0>
0

>  <SCORE.INTRA.REPUL>
0

>  <SCORE.INTRA.REPUL.0>
0

>  <SCORE.INTRA.SOLV>
2.43601

>  <SCORE.INTRA.SOLV.lig_0>
-83.3092

>  <SCORE.INTRA.VDW>
4.53615

>  <SCORE.INTRA.VDW.0>
-4.47057

>  <SCORE.INTRA.norm>
0.243194

>  <SCORE.RESTR>
22.1517

>  <SCORE.RESTR.CAVITY>
22.1517

>  <SCORE.RESTR.norm>
0.71457

>  <SCORE.SYSTEM>
0

>  <SCORE.SYSTEM.CONST>
0

>  <SCORE.SYSTEM.DIHEDRAL>
0

>  <SCORE.SYSTEM.SOLV>
0

>  <SCORE.SYSTEM.norm>
0

>  <SCORE.heavy>
31

>  <SCORE.norm>
1.22171

>  <RMSD>
8.792

$$$$
ligand
 OpenBabel11021811433D
libRbt.so/2013.1/901 2013/11/27
 31 33  0  0  0  0  0  0  0  0999 V2000
   38.0871   26.6001    8.8174 C   0  0  0  0  0  0  0  0  0  0  0  0
   33.8337   29.3714    5.8319 N   0  0  0  0  0  0  0  0  0  0  0  0
   36.6585   26.6005    8.6799 O   0  0  0  0  0  0  0  0  0  0  0  0
   38.5942   26.0279    7.4963 C   0  0  1  0  0  0  0  0  0  0  0  0
   35.9811   28.0200    1.4398 N   0  0  0  0  0  0  0  0  0  0  0  0
   38.1492   26.7875    6.2597 O   0  0  0  0  0  0  0  0  0  0  0  0
   39.1521   27.5281    5.6785 C   0  0  1  0  0  0  0  0  0  0  0  0
   38.7010   32.2021    5.0662 N   0  0  0  0  0  0  0  0  0  0  0  0
   38.8808   28.8653    5.3627 O   0  0  0  0  0  0  0  0  0  0  0  0
   37.6359   29.3065    4.6476 C   0  0  2  0  0  0  0  0  0  0  0  0
   39.9863   28.5106   -0.0606 N   0  0  0  0  0  0  0  0  0  0  0  0
   36.6078   29.9246    6.8277 O   0  0  0  0  0  0  0  0  0  0  0  0
   36.4265   29.1119    5.6094 C   0  0  1  0  0  0  0  0  0  0  0  0
   38.4716   28.6396    2.4825 O   0  0  0  0  0  0  0  0  0  0  0  0
   35.0596   29.5573    4.8843 C   0  0  1  0  0  0  0  0  0  0  0  0
   38.8060   30.9960    2.5079 O   0  0  0  0  0  0  0  0  0  0  0  0
   34.8933   28.6652    3.5778 C   0  0  0  0  0  0  0  0  0  0  0  0
   42.4130   30.9598    3.4349 O   0  0  0  0  0  0  0  0  0  0  0  0
   36.1652   28.8790    2.6562 C   0  0  1  0  0  0  0  0  0  0  0  0
   42.5259   29.6586    0.8955 O   0  0  0  0  0  0  0  0  0  0  0  0
   37.4172   28.4263    3.3375 C   0  0  2  0  0  0  0  0  0  0  0  0
   41.5311   27.4095    5.8031 O   0  0  0  0  0  0  0  0  0  0  0  0
   38.7055   29.7845    1.6227 C   0  0  1  0  0  0  0  0  0  0  0  0
   40.4836   24.9053    6.3449 O   0  0  0  0  0  0  0  0  0  0  0  0
   39.9971   31.0243    3.4561 C   0  0  2  0  0  0  0  0  0  0  0  0
   39.9500   32.2899    4.3043 C   0  0  0  0  0  0  0  0  0  0  0  0
   41.2845   30.9566    2.6025 C   0  0  2  0  0  0  0  0  0  0  0  0
   41.2914   29.7102    1.7333 C   0  0  1  0  0  0  0  0  0  0  0  0
   40.0402   29.7316    0.8358 C   0  0  1  0  0  0  0  0  0  0  0  0
   40.3760   27.3220    6.5561 C   0  0  2  0  0  0  0  0  0  0  0  0
   40.1101   25.9613    7.2767 C   0  0  1  0  0  0  0  0  0  0  0  0
  1  3  1  0  0  0  0
  4  1  1  1  0  0  0
  4  6  1  0  0  0  0
  4 31  1  0  0  0  0
  6  7  1  0  0  0  0
  7  9  1  1  0  0  0
  7 30  1  0  0  0  0
  8 26  1  0  0  0  0
 10  9  1  1  0  0  0
 10 13  1  0  0  0  0
 10 21  1  0  0  0  0
 13 12  1  1  0  0  0
 13 15  1  0  0  0  0
 15  2  1  1  0  0  0
 15 17  1  0  0  0  0
 16 25  1  0  0  0  0
 16 23  1  0  0  0  0
 17 19  1  0  0  0  0
 19  5  1  6  0  0  0
 19 21  1  0  0  0  0
 21 14  1  6  0  0  0
 23 14  1  1  0  0  0
 23 29  1  0  0  0  0
 25 26  1  6  0  0  0
 25 27  1  0  0  0  0
 27 18  1  1  0  0  0
 27 28  1  0  0  0  0
 28 20  1  6  0  0  0
 28 29  1  0  0  0  0
 29 11  1  1  0  0  0
 30 22  1  6  0  0  0
 30 31  1  0  0  0  0
 31 24  1  6  0  0  0
M  END
>  <CHROM.1>
57.36467856,-47.24072254,69.37717660,60.30333964,-77.01570928,61.43804852
38.68568885,28.81473824,4.41444815,-2.02754290,0.13913167,-0.98035084

>  <Name>
ligand

>  <RI>
0

>  <Rbt.Current_Directory>
/home/itssahil/PROJECTS/Mol_Feturizer/New_Systems/rnas/2ET5

>  <Rbt.Executable>
rbdock ($Id: //depot/dev/client3/rdock/2013.1/src/exe/rbdock.cxx#4 $)

>  <Rbt.Library>
libRbt.so (2013.1, Build901 2013/11/27)

>  <Rbt.Parameter_File>
/export/apps/rDock/src/rDock_2013.1_src/data/scripts/dock_solv.prm

>  <Rbt.Receptor>
prm/pocket_docking_8.prm

>  <SCORE>
-8.31529

>  <SCORE.INTER>
-4.43581

>  <SCORE.INTER.CONST>
1

>  <SCORE.INTER.POLAR>
0

>  <SCORE.INTER.ROT>
6

>  <SCORE.INTER.SOLV>
11.1921

>  <SCORE.INTER.VDW>
-14.2879

>  <SCORE.INTER.norm>
-0.143091

>  <SCORE.INTRA>
-3.87949

>  <SCORE.INTRA.DIHEDRAL>
-8.5494

>  <SCORE.INTRA.DIHEDRAL.0>
11.2357

>  <SCORE.INTRA.POLAR>
0

>  <SCORE.INTRA.POLAR.0>
0

>  <SCORE.INTRA.REPUL>
0

>  <SCORE.INTRA.REPUL.0>
0

>  <SCORE.INTRA.SOLV>
-0.431998

>  <SCORE.INTRA.SOLV.lig_0>
-83.3092

>  <SCORE.INTRA.VDW>
0.611211

>  <SCORE.INTRA.VDW.0>
-4.47057

>  <SCORE.INTRA.norm>
-0.125145

>  <SCORE.RESTR>
0

>  <SCORE.RESTR.CAVITY>
0

>  <SCORE.RESTR.norm>
0

>  <SCORE.SYSTEM>
0

>  <SCORE.SYSTEM.CONST>
0

>  <SCORE.SYSTEM.DIHEDRAL>
0

>  <SCORE.SYSTEM.SOLV>
0

>  <SCORE.SYSTEM.norm>
0

>  <SCORE.heavy>
31

>  <SCORE.norm>
-0.268235

>  <RMSD>
8.793

$$$$
ligand
 OpenBabel11021811433D
libRbt.so/2013.1/901 2013/11/27
 31 33  0  0  0  0  0  0  0  0999 V2000
   43.6274   15.1830   -3.1584 C   0  0  0  0  0  0  0  0  0  0  0  0
   42.5301   13.5529    0.0996 N   0  0  0  0  0  0  0  0  0  0  0  0
   42.2999   15.5106   -2.7227 O   0  0  0  0  0  0  0  0  0  0  0  0
   44.2714   16.5340   -3.4583 C   0  0  1  0  0  0  0  0  0  0  0  0
   41.0974   18.1940    1.5608 N   0  0  0  0  0  0  0  0  0  0  0  0
   44.2831   17.5074   -2.2937 O   0  0  0  0  0  0  0  0  0  0  0  0
   45.5256   17.6721   -1.7269 C   0  0  1  0  0  0  0  0  0  0  0  0
   47.8688   17.7684    4.0117 N   0  0  0  0  0  0  0  0  0  0  0  0
   45.6291   17.5726   -0.3338 O   0  0  0  0  0  0  0  0  0  0  0  0
   44.5704   16.9466    0.5282 C   0  0  2  0  0  0  0  0  0  0  0  0
   43.5547   21.6828    2.6666 N   0  0  0  0  0  0  0  0  0  0  0  0
   45.2839   14.6904   -0.2412 O   0  0  0  0  0  0  0  0  0  0  0  0
   44.1322   15.6068   -0.1339 C   0  0  1  0  0  0  0  0  0  0  0  0
   43.7055   19.0785    1.2620 O   0  0  0  0  0  0  0  0  0  0  0  0
   42.9835   14.8994    0.7452 C   0  0  1  0  0  0  0  0  0  0  0  0
   45.1696   18.2962    2.9677 O   0  0  0  0  0  0  0  0  0  0  0  0
   41.7589   15.9100    0.8423 C   0  0  0  0  0  0  0  0  0  0  0  0
   48.1847   20.2227    1.9341 O   0  0  0  0  0  0  0  0  0  0  0  0
   42.2715   17.2623    1.4911 C   0  0  1  0  0  0  0  0  0  0  0  0
   46.4212   22.3627    2.6160 O   0  0  0  0  0  0  0  0  0  0  0  0
   43.3121   17.9179    0.6402 C   0  0  2  0  0  0  0  0  0  0  0  0
   47.7356   17.2628   -2.5256 O   0  0  0  0  0  0  0  0  0  0  0  0
   44.0644   19.2668    2.6550 C   0  0  1  0  0  0  0  0  0  0  0  0
   46.0728   17.7120   -4.6925 O   0  0  0  0  0  0  0  0  0  0  0  0
   46.4834   18.5328    2.2352 C   0  0  2  0  0  0  0  0  0  0  0  0
   47.4927   17.4606    2.6290 C   0  0  0  0  0  0  0  0  0  0  0  0
   46.9827   19.9493    2.6025 C   0  0  2  0  0  0  0  0  0  0  0  0
   45.9445   20.9985    2.2413 C   0  0  1  0  0  0  0  0  0  0  0  0
   44.6363   20.6697    2.9842 C   0  0  1  0  0  0  0  0  0  0  0  0
   46.4540   16.7471   -2.4969 C   0  0  2  0  0  0  0  0  0  0  0  0
   45.7465   16.5501   -3.8760 C   0  0  1  0  0  0  0  0  0  0  0  0
  1  3  1  0  0  0  0
  4  1  1  1  0  0  0
  4  6  1  0  0  0  0
  4 31  1  0  0  0  0
  6  7  1  0  0  0  0
  7  9  1  1  0  0  0
  7 30  1  0  0  0  0
  8 26  1  0  0  0  0
 10  9  1  6  0  0  0
 10 13  1  0  0  0  0
 10 21  1  0  0  0  0
 13 12  1  1  0  0  0
 13 15  1  0  0  0  0
 15  2  1  6  0  0  0
 15 17  1  0  0  0  0
 16 25  1  0  0  0  0
 16 23  1  0  0  0  0
 17 19  1  0  0  0  0
 19  5  1  6  0  0  0
 19 21  1  0  0  0  0
 21 14  1  1  0  0  0
 23 14  1  6  0  0  0
 23 29  1  0  0  0  0
 25 26  1  1  0  0  0
 25 27  1  0  0  0  0
 27 18  1  6  0  0  0
 27 28  1  0  0  0  0
 28 20  1  1  0  0  0
 28 29  1  0  0  0  0
 29 11  1  6  0  0  0
 30 22  1  6  0  0  0
 30 31  1  0  0  0  0
 31 24  1  6  0  0  0
M  END
>  <CHROM.1>
57.19587536,16.93866917,45.75836789,55.75698293,-70.79355497,-71.38732451
44.87139541,17.73653202,0.25977215,-1.86492062,0.51462805,1.02535181

>  <Name>
ligand

>  <RI>
0

>  <Rbt.Current_Directory>
/home/itssahil/PROJECTS/Mol_Feturizer/New_Systems/rnas/2ET5

>  <Rbt.Executable>
rbdock ($Id: //depot/dev/client3/rdock/2013.1/src/exe/rbdock.cxx#4 $)

>  <Rbt.Library>
libRbt.so (2013.1, Build901 2013/11/27)

>  <Rbt.Parameter_File>
/export/apps/rDock/src/rDock_2013.1_src/data/scripts/dock_solv.prm

>  <Rbt.Receptor>
prm/blind_docking_60.prm

>  <SCORE>
53.7196

>  <SCORE.INTER>
35.8584

>  <SCORE.INTER.CONST>
1

>  <SCORE.INTER.POLAR>
0

>  <SCORE.INTER.ROT>
6

>  <SCORE.INTER.SOLV>
27.0695

>  <SCORE.INTER.VDW>
7.28241

>  <SCORE.INTER.norm>
1.15672

>  <SCORE.INTRA>
-0.102306

>  <SCORE.INTRA.DIHEDRAL>
-3.28707

>  <SCORE.INTRA.DIHEDRAL.0>
11.2357

>  <SCORE.INTRA.POLAR>
0

>  <SCORE.INTRA.POLAR.0>
0

>  <SCORE.INTRA.REPUL>
0

>  <SCORE.INTRA.REPUL.0>
0

>  <SCORE.INTRA.SOLV>
0.73355

>  <SCORE.INTRA.SOLV.lig_0>
-83.3092

>  <SCORE.INTRA.VDW>
1.17445

>  <SCORE.INTRA.VDW.0>
-4.47057

>  <SCORE.INTRA.norm>
-0.00330019

>  <SCORE.RESTR>
17.9635

>  <SCORE.RESTR.CAVITY>
17.9635

>  <SCORE.RESTR.norm>
0.579468

>  <SCORE.SYSTEM>
0

>  <SCORE.SYSTEM.CONST>
0

>  <SCORE.SYSTEM.DIHEDRAL>
0

>  <SCORE.SYSTEM.SOLV>
0

>  <SCORE.SYSTEM.norm>
0

>  <SCORE.heavy>
31

>  <SCORE.norm>
1.73289

>  <RMSD>
8.809

$$$$
ligand
 OpenBabel11021811433D
libRbt.so/2013.1/901 2013/11/27
 31 33  0  0  0  0  0  0  0  0999 V2000
   44.3542   16.5018   -3.1147 C   0  0  0  0  0  0  0  0  0  0  0  0
   42.3606   13.5853    0.3730 N   0  0  0  0  0  0  0  0  0  0  0  0
   43.4945   17.5206   -2.5830 O   0  0  0  0  0  0  0  0  0  0  0  0
   45.7648   17.0305   -2.8682 C   0  0  1  0  0  0  0  0  0  0  0  0
   41.5074   18.5131   -0.4738 N   0  0  0  0  0  0  0  0  0  0  0  0
   45.9401   17.7987   -1.5708 O   0  0  0  0  0  0  0  0  0  0  0  0
   46.6372   17.1037   -0.6100 C   0  0  1  0  0  0  0  0  0  0  0  0
   46.0881   16.6663    3.5309 N   0  0  0  0  0  0  0  0  0  0  0  0
   46.0917   17.0401    0.6783 O   0  0  0  0  0  0  0  0  0  0  0  0
   44.6319   16.8069    0.9440 C   0  0  2  0  0  0  0  0  0  0  0  0
   43.6352   22.0078    0.9129 N   0  0  0  0  0  0  0  0  0  0  0  0
   45.0905   14.3900    1.3182 O   0  0  0  0  0  0  0  0  0  0  0  0
   44.2885   15.3454    0.5297 C   0  0  1  0  0  0  0  0  0  0  0  0
   44.0363   19.1028    0.4910 O   0  0  0  0  0  0  0  0  0  0  0  0
   42.7264   15.0466    0.7809 C   0  0  1  0  0  0  0  0  0  0  0  0
   44.5246   18.8809    2.8100 O   0  0  0  0  0  0  0  0  0  0  0  0
   41.8907   16.0904   -0.0806 C   0  0  0  0  0  0  0  0  0  0  0  0
   47.9109   20.4296    2.7386 O   0  0  0  0  0  0  0  0  0  0  0  0
   42.3056   17.5552    0.3609 C   0  0  1  0  0  0  0  0  0  0  0  0
   46.3124   22.6623    1.9551 O   0  0  0  0  0  0  0  0  0  0  0  0
   43.7515   17.8209    0.0862 C   0  0  2  0  0  0  0  0  0  0  0  0
   48.1372   15.2524   -0.7208 O   0  0  0  0  0  0  0  0  0  0  0  0
   43.7901   19.7041    1.7881 C   0  0  1  0  0  0  0  0  0  0  0  0
   48.1909   16.5903   -3.1434 O   0  0  0  0  0  0  0  0  0  0  0  0
   46.0434   18.8960    2.7024 C   0  0  2  0  0  0  0  0  0  0  0  0
   46.6447   17.9994    3.7786 C   0  0  0  0  0  0  0  0  0  0  0  0
   46.5149   20.3610    2.8509 C   0  0  2  0  0  0  0  0  0  0  0  0
   45.8710   21.2452    1.7960 C   0  0  1  0  0  0  0  0  0  0  0  0
   44.3410   21.1453    1.9401 C   0  0  1  0  0  0  0  0  0  0  0  0
   46.9536   15.7522   -1.2294 C   0  0  2  0  0  0  0  0  0  0  0  0
   46.9068   16.0124   -2.7693 C   0  0  1  0  0  0  0  0  0  0  0  0
  1  3  1  0  0  0  0
  4  1  1  1  0  0  0
  4  6  1  0  0  0  0
  4 31  1  0  0  0  0
  6  7  1  0  0  0  0
  7  9  1  1  0  0  0
  7 30  1  0  0  0  0
  8 26  1  0  0  0  0
 10  9  1  6  0  0  0
 10 13  1  0  0  0  0
 10 21  1  0  0  0  0
 13 12  1  1  0  0  0
 13 15  1  0  0  0  0
 15  2  1  6  0  0  0
 15 17  1  0  0  0  0
 16 25  1  0  0  0  0
 16 23  1  0  0  0  0
 17 19  1  0  0  0  0
 19  5  1  6  0  0  0
 19 21  1  0  0  0  0
 21 14  1  1  0  0  0
 23 14  1  6  0  0  0
 23 29  1  0  0  0  0
 25 26  1  1  0  0  0
 25 27  1  0  0  0  0
 27 18  1  6  0  0  0
 27 28  1  0  0  0  0
 28 20  1  1  0  0  0
 28 29  1  0  0  0  0
 29 11  1  6  0  0  0
 30 22  1  1  0  0  0
 30 31  1  0  0  0  0
 31 24  1  1  0  0  0
M  END
>  <CHROM.1>
36.04734082,42.22391004,68.75665437,58.59084147,-64.56508987,59.12435755
45.09799489,17.77603441,0.41473668,-1.67517884,0.19816280,0.65343735

>  <Name>
ligand

>  <RI>
0

>  <Rbt.Current_Directory>
/home/itssahil/PROJECTS/Mol_Feturizer/New_Systems/rnas/2ET5

>  <Rbt.Executable>
rbdock ($Id: //depot/dev/client3/rdock/2013.1/src/exe/rbdock.cxx#4 $)

>  <Rbt.Library>
libRbt.so (2013.1, Build901 2013/11/27)

>  <Rbt.Parameter_File>
/export/apps/rDock/src/rDock_2013.1_src/data/scripts/dock_solv.prm

>  <Rbt.Receptor>
prm/blind_docking_60.prm

>  <SCORE>
29.8204

>  <SCORE.INTER>
13.2666

>  <SCORE.INTER.CONST>
1

>  <SCORE.INTER.POLAR>
0

>  <SCORE.INTER.ROT>
6

>  <SCORE.INTER.SOLV>
25.0318

>  <SCORE.INTER.VDW>
-7.09952

>  <SCORE.INTER.norm>
0.427955

>  <SCORE.INTRA>
-1.60892

>  <SCORE.INTRA.DIHEDRAL>
-7.38156

>  <SCORE.INTRA.DIHEDRAL.0>
11.2357

>  <SCORE.INTRA.POLAR>
0

>  <SCORE.INTRA.POLAR.0>
0

>  <SCORE.INTRA.REPUL>
0.0138397

>  <SCORE.INTRA.REPUL.0>
0

>  <SCORE.INTRA.SOLV>
2.78753

>  <SCORE.INTRA.SOLV.lig_0>
-83.3092

>  <SCORE.INTRA.VDW>
0.618897

>  <SCORE.INTRA.VDW.0>
-4.47057

>  <SCORE.INTRA.norm>
-0.0519006

>  <SCORE.RESTR>
18.1627

>  <SCORE.RESTR.CAVITY>
18.1627

>  <SCORE.RESTR.norm>
0.585895

>  <SCORE.SYSTEM>
0

>  <SCORE.SYSTEM.CONST>
0

>  <SCORE.SYSTEM.DIHEDRAL>
0

>  <SCORE.SYSTEM.SOLV>
0

>  <SCORE.SYSTEM.norm>
0

>  <SCORE.heavy>
31

>  <SCORE.norm>
0.961949

>  <RMSD>
8.840

$$$$
ligand
 OpenBabel11021811433D
libRbt.so/2013.1/901 2013/11/27
 31 33  0  0  0  0  0  0  0  0999 V2000
   33.0908   24.5533    4.5039 C   0  0  0  0  0  0  0  0  0  0  0  0
   39.1402   29.3627    0.1476 N   0  0  0  0  0  0  0  0  0  0  0  0
   33.2514   25.8665    5.0602 O   0  0  0  0  0  0  0  0  0  0  0  0
   34.1403   24.4799    3.3979 C   0  0  1  0  0  0  0  0  0  0  0  0
   39.1240   29.5880    5.2148 N   0  0  0  0  0  0  0  0  0  0  0  0
   34.2060   25.7014    2.4992 O   0  0  0  0  0  0  0  0  0  0  0  0
   35.3101   26.4906    2.7235 C   0  0  1  0  0  0  0  0  0  0  0  0
   39.3219   26.0093    8.0726 N   0  0  0  0  0  0  0  0  0  0  0  0
   35.1104   27.8678    2.8817 O   0  0  0  0  0  0  0  0  0  0  0  0
   36.2230   28.8744    2.8151 C   0  0  2  0  0  0  0  0  0  0  0  0
   34.2349   30.0445    6.9624 N   0  0  0  0  0  0  0  0  0  0  0  0
   36.2196   28.7076    0.3324 O   0  0  0  0  0  0  0  0  0  0  0  0
   37.0643   28.5870    1.5363 C   0  0  1  0  0  0  0  0  0  0  0  0
   36.4085   29.0407    5.2169 O   0  0  0  0  0  0  0  0  0  0  0  0
   38.2840   29.6323    1.4242 C   0  0  1  0  0  0  0  0  0  0  0  0
   36.2051   26.9138    6.2657 O   0  0  0  0  0  0  0  0  0  0  0  0
   39.1737   29.4782    2.7337 C   0  0  0  0  0  0  0  0  0  0  0  0
   37.7970   27.8223    9.5079 O   0  0  0  0  0  0  0  0  0  0  0  0
   38.2588   29.7487    3.9995 C   0  0  1  0  0  0  0  0  0  0  0  0
   35.5061   29.5259    9.5695 O   0  0  0  0  0  0  0  0  0  0  0  0
   37.1546   28.7453    4.1015 C   0  0  2  0  0  0  0  0  0  0  0  0
   37.4205   26.0664    3.7510 O   0  0  0  0  0  0  0  0  0  0  0  0
   35.4737   28.1810    5.9183 C   0  0  1  0  0  0  0  0  0  0  0  0
   36.4063   23.6815    2.7786 O   0  0  0  0  0  0  0  0  0  0  0  0
   37.3511   27.0632    7.2571 C   0  0  2  0  0  0  0  0  0  0  0  0
   38.0117   25.7091    7.4882 C   0  0  0  0  0  0  0  0  0  0  0  0
   36.7725   27.6470    8.5667 C   0  0  2  0  0  0  0  0  0  0  0  0
   36.0814   28.9752    8.3068 C   0  0  1  0  0  0  0  0  0  0  0  0
   34.9671   28.7529    7.2674 C   0  0  1  0  0  0  0  0  0  0  0  0
   36.0644   25.8267    3.8640 C   0  0  2  0  0  0  0  0  0  0  0  0
   35.6096   24.3329    3.8101 C   0  0  1  0  0  0  0  0  0  0  0  0
  1  3  1  0  0  0  0
  4  1  1  1  0  0  0
  4  6  1  0  0  0  0
  4 31  1  0  0  0  0
  6  7  1  0  0  0  0
  7  9  1  1  0  0  0
  7 30  1  0  0  0  0
  8 26  1  0  0  0  0
 10  9  1  1  0  0  0
 10 13  1  0  0  0  0
 10 21  1  0  0  0  0
 13 12  1  6  0  0  0
 13 15  1  0  0  0  0
 15  2  1  6  0  0  0
 15 17  1  0  0  0  0
 16 25  1  0  0  0  0
 16 23  1  0  0  0  0
 17 19  1  0  0  0  0
 19  5  1  1  0  0  0
 19 21  1  0  0  0  0
 21 14  1  1  0  0  0
 23 14  1  1  0  0  0
 23 29  1  0  0  0  0
 25 26  1  1  0  0  0
 25 27  1  0  0  0  0
 27 18  1  1  0  0  0
 27 28  1  0  0  0  0
 28 20  1  1  0  0  0
 28 29  1  0  0  0  0
 29 11  1  6  0  0  0
 30 22  1  6  0  0  0
 30 31  1  0  0  0  0
 31 24  1  6  0  0  0
M  END
>  <CHROM.1>
-45.53987904,-165.43702833,48.83330890,54.16618789,79.55391611,161.94776923
36.40846227,27.50209901,4.77810525,1.57222012,-0.89154239,-1.64803618

>  <Name>
ligand

>  <RI>
0

>  <Rbt.Current_Directory>
/home/itssahil/PROJECTS/Mol_Feturizer/New_Systems/rnas/2ET5

>  <Rbt.Executable>
rbdock ($Id: //depot/dev/client3/rdock/2013.1/src/exe/rbdock.cxx#4 $)

>  <Rbt.Library>
libRbt.so (2013.1, Build901 2013/11/27)

>  <Rbt.Parameter_File>
/export/apps/rDock/src/rDock_2013.1_src/data/scripts/dock_solv.prm

>  <Rbt.Receptor>
prm/pocket_docking_7.prm

>  <SCORE>
-11.5529

>  <SCORE.INTER>
-9.39728

>  <SCORE.INTER.CONST>
1

>  <SCORE.INTER.POLAR>
0

>  <SCORE.INTER.ROT>
6

>  <SCORE.INTER.SOLV>
13.0208

>  <SCORE.INTER.VDW>
-18.2051

>  <SCORE.INTER.norm>
-0.303138

>  <SCORE.INTRA>
-2.15563

>  <SCORE.INTRA.DIHEDRAL>
-5.82189

>  <SCORE.INTRA.DIHEDRAL.0>
11.2357

>  <SCORE.INTRA.POLAR>
0

>  <SCORE.INTRA.POLAR.0>
0

>  <SCORE.INTRA.REPUL>
0.0172877

>  <SCORE.INTRA.REPUL.0>
0

>  <SCORE.INTRA.SOLV>
-0.313171

>  <SCORE.INTRA.SOLV.lig_0>
-83.3092

>  <SCORE.INTRA.VDW>
0.825461

>  <SCORE.INTRA.VDW.0>
-4.47057

>  <SCORE.INTRA.norm>
-0.0695365

>  <SCORE.RESTR>
0

>  <SCORE.RESTR.CAVITY>
0

>  <SCORE.RESTR.norm>
0

>  <SCORE.SYSTEM>
0

>  <SCORE.SYSTEM.CONST>
0

>  <SCORE.SYSTEM.DIHEDRAL>
0

>  <SCORE.SYSTEM.SOLV>
0

>  <SCORE.SYSTEM.norm>
0

>  <SCORE.heavy>
31

>  <SCORE.norm>
-0.372675

>  <RMSD>
8.888

$$$$
ligand
 OpenBabel11021811433D
libRbt.so/2013.1/901 2013/11/27
 31 33  0  0  0  0  0  0  0  0999 V2000
   33.9417   25.7811    2.5644 C   0  0  0  0  0  0  0  0  0  0  0  0
   41.4255   30.1832    1.0820 N   0  0  0  0  0  0  0  0  0  0  0  0
   32.8821   26.5028    1.9193 O   0  0  0  0  0  0  0  0  0  0  0  0
   35.1113   25.8732    1.5878 C   0  0  1  0  0  0  0  0  0  0  0  0
   40.1017   29.0783    5.8522 N   0  0  0  0  0  0  0  0  0  0  0  0
   35.4775   27.2836    1.1626 O   0  0  0  0  0  0  0  0  0  0  0  0
   36.6434   27.7436    1.7292 C   0  0  1  0  0  0  0  0  0  0  0  0
   38.9843   25.3561    6.6495 N   0  0  0  0  0  0  0  0  0  0  0  0
   36.6269   29.0105    2.3261 O   0  0  0  0  0  0  0  0  0  0  0  0
   37.8658   29.7114    2.8053 C   0  0  2  0  0  0  0  0  0  0  0  0
   34.8027   30.2494    5.9984 N   0  0  0  0  0  0  0  0  0  0  0  0
   38.4944   30.2026    0.4484 O   0  0  0  0  0  0  0  0  0  0  0  0
   38.9579   29.5790    1.7029 C   0  0  1  0  0  0  0  0  0  0  0  0
   37.4315   29.1984    5.1246 O   0  0  0  0  0  0  0  0  0  0  0  0
   40.3168   30.3029    2.1738 C   0  0  1  0  0  0  0  0  0  0  0  0
   36.7778   27.0466    5.9042 O   0  0  0  0  0  0  0  0  0  0  0  0
   40.7897   29.6100    3.5253 C   0  0  0  0  0  0  0  0  0  0  0  0
   37.0846   27.7425    9.5501 O   0  0  0  0  0  0  0  0  0  0  0  0
   39.6283   29.7471    4.5953 C   0  0  1  0  0  0  0  0  0  0  0  0
   34.9966   29.5631    8.8573 O   0  0  0  0  0  0  0  0  0  0  0  0
   38.3885   29.0381    4.1517 C   0  0  2  0  0  0  0  0  0  0  0  0
   38.5078   26.6349    2.7213 O   0  0  0  0  0  0  0  0  0  0  0  0
   36.2732   28.3638    5.3827 C   0  0  1  0  0  0  0  0  0  0  0  0
   37.3000   24.9129    0.9219 O   0  0  0  0  0  0  0  0  0  0  0  0
   37.4789   27.0958    7.2550 C   0  0  2  0  0  0  0  0  0  0  0  0
   37.9579   25.7003    7.6376 C   0  0  0  0  0  0  0  0  0  0  0  0
   36.4769   27.6590    8.2892 C   0  0  2  0  0  0  0  0  0  0  0  0
   35.9793   29.0314    7.8672 C   0  0  1  0  0  0  0  0  0  0  0  0
   35.3230   28.9096    6.4794 C   0  0  1  0  0  0  0  0  0  0  0  0
   37.1287   26.6244    2.6361 C   0  0  2  0  0  0  0  0  0  0  0  0
   36.4726   25.3357    2.0443 C   0  0  1  0  0  0  0  0  0  0  0  0
  1  3  1  0  0  0  0
  4  1  1  1  0  0  0
  4  6  1  0  0  0  0
  4 31  1  0  0  0  0
  6  7  1  0  0  0  0
  7  9  1  1  0  0  0
  7 30  1  0  0  0  0
  8 26  1  0  0  0  0
 10  9  1  6  0  0  0
 10 13  1  0  0  0  0
 10 21  1  0  0  0  0
 13 12  1  6  0  0  0
 13 15  1  0  0  0  0
 15  2  1  6  0  0  0
 15 17  1  0  0  0  0
 16 25  1  0  0  0  0
 16 23  1  0  0  0  0
 17 19  1  0  0  0  0
 19  5  1  1  0  0  0
 19 21  1  0  0  0  0
 21 14  1  1  0  0  0
 23 14  1  1  0  0  0
 23 29  1  0  0  0  0
 25 26  1  1  0  0  0
 25 27  1  0  0  0  0
 27 18  1  1  0  0  0
 27 28  1  0  0  0  0
 28 20  1  1  0  0  0
 28 29  1  0  0  0  0
 29 11  1  6  0  0  0
 30 22  1  6  0  0  0
 30 31  1  0  0  0  0
 31 24  1  6  0  0  0
M  END
>  <CHROM.1>
53.81113201,-171.06606462,45.32033929,68.70551272,84.96498680,65.72416189
37.24539896,28.01856531,4.21010466,1.35650065,-0.57639710,-1.69288251

>  <Name>
ligand

>  <RI>
0

>  <Rbt.Current_Directory>
/home/itssahil/PROJECTS/Mol_Feturizer/New_Systems/rnas/2ET5

>  <Rbt.Executable>
rbdock ($Id: //depot/dev/client3/rdock/2013.1/src/exe/rbdock.cxx#4 $)

>  <Rbt.Library>
libRbt.so (2013.1, Build901 2013/11/27)

>  <Rbt.Parameter_File>
/export/apps/rDock/src/rDock_2013.1_src/data/scripts/dock_solv.prm

>  <Rbt.Receptor>
prm/pocket_docking_8.prm

>  <SCORE>
-7.68036

>  <SCORE.INTER>
-4.04678

>  <SCORE.INTER.CONST>
1

>  <SCORE.INTER.POLAR>
0

>  <SCORE.INTER.ROT>
6

>  <SCORE.INTER.SOLV>
11.7388

>  <SCORE.INTER.VDW>
-14.2108

>  <SCORE.INTER.norm>
-0.130541

>  <SCORE.INTRA>
-3.63358

>  <SCORE.INTRA.DIHEDRAL>
-6.43398

>  <SCORE.INTRA.DIHEDRAL.0>
11.2357

>  <SCORE.INTRA.POLAR>
0

>  <SCORE.INTRA.POLAR.0>
0

>  <SCORE.INTRA.REPUL>
0

>  <SCORE.INTRA.REPUL.0>
0

>  <SCORE.INTRA.SOLV>
-1.68774

>  <SCORE.INTRA.SOLV.lig_0>
-83.3092

>  <SCORE.INTRA.VDW>
0.427284

>  <SCORE.INTRA.VDW.0>
-4.47057

>  <SCORE.INTRA.norm>
-0.117212

>  <SCORE.RESTR>
0

>  <SCORE.RESTR.CAVITY>
0

>  <SCORE.RESTR.norm>
0

>  <SCORE.SYSTEM>
0

>  <SCORE.SYSTEM.CONST>
0

>  <SCORE.SYSTEM.DIHEDRAL>
0

>  <SCORE.SYSTEM.SOLV>
0

>  <SCORE.SYSTEM.norm>
0

>  <SCORE.heavy>
31

>  <SCORE.norm>
-0.247753

>  <RMSD>
8.893

$$$$
ligand
 OpenBabel11021811433D
libRbt.so/2013.1/901 2013/11/27
 31 33  0  0  0  0  0  0  0  0999 V2000
   40.0250   29.4910   -2.3621 C   0  0  0  0  0  0  0  0  0  0  0  0
   43.7351   28.6827    2.5953 N   0  0  0  0  0  0  0  0  0  0  0  0
   39.8459   30.7916   -1.7823 O   0  0  0  0  0  0  0  0  0  0  0  0
   39.1146   28.5820   -1.5406 C   0  0  1  0  0  0  0  0  0  0  0  0
   39.8284   26.9795    5.3459 N   0  0  0  0  0  0  0  0  0  0  0  0
   39.4112   28.5595   -0.0521 O   0  0  0  0  0  0  0  0  0  0  0  0
   38.4821   29.2354    0.7042 C   0  0  1  0  0  0  0  0  0  0  0  0
   34.5726   26.1260    1.9181 N   0  0  0  0  0  0  0  0  0  0  0  0
   38.9509   30.1553    1.6504 O   0  0  0  0  0  0  0  0  0  0  0  0
   39.9129   29.7927    2.7454 C   0  0  2  0  0  0  0  0  0  0  0  0
   36.2134   30.7580    5.2904 N   0  0  0  0  0  0  0  0  0  0  0  0
   41.8037   30.6084    1.3486 O   0  0  0  0  0  0  0  0  0  0  0  0
   41.2843   29.4456    2.0940 C   0  0  1  0  0  0  0  0  0  0  0  0
   38.1842   28.8616    4.1510 O   0  0  0  0  0  0  0  0  0  0  0  0
   42.3518   29.0336    3.2269 C   0  0  1  0  0  0  0  0  0  0  0  0
   36.4638   27.9813    2.7615 O   0  0  0  0  0  0  0  0  0  0  0  0
   41.7642   27.7805    4.0110 C   0  0  0  0  0  0  0  0  0  0  0  0
   34.6185   26.1159    5.4047 O   0  0  0  0  0  0  0  0  0  0  0  0
   40.3577   28.1823    4.6217 C   0  0  1  0  0  0  0  0  0  0  0  0
   34.2881   28.7922    6.3441 O   0  0  0  0  0  0  0  0  0  0  0  0
   39.3736   28.5272    3.5497 C   0  0  2  0  0  0  0  0  0  0  0  0
   36.2281   29.8957    0.2880 O   0  0  0  0  0  0  0  0  0  0  0  0
   36.9259   29.1993    3.5127 C   0  0  1  0  0  0  0  0  0  0  0  0
   36.8148   27.6892   -1.2770 O   0  0  0  0  0  0  0  0  0  0  0  0
   36.1064   26.7736    3.6174 C   0  0  2  0  0  0  0  0  0  0  0  0
   35.6864   25.6140    2.7216 C   0  0  0  0  0  0  0  0  0  0  0  0
   34.9704   27.1930    4.5787 C   0  0  2  0  0  0  0  0  0  0  0  0
   35.3943   28.3770    5.4318 C   0  0  1  0  0  0  0  0  0  0  0  0
   35.7794   29.5403    4.4992 C   0  0  1  0  0  0  0  0  0  0  0  0
   37.4808   29.8045   -0.2879 C   0  0  2  0  0  0  0  0  0  0  0  0
   37.6109   28.8806   -1.5412 C   0  0  1  0  0  0  0  0  0  0  0  0
  1  3  1  0  0  0  0
  4  1  1  6  0  0  0
  4  6  1  0  0  0  0
  4 31  1  0  0  0  0
  6  7  1  0  0  0  0
  7  9  1  6  0  0  0
  7 30  1  0  0  0  0
  8 26  1  0  0  0  0
 10  9  1  6  0  0  0
 10 13  1  0  0  0  0
 10 21  1  0  0  0  0
 13 12  1  1  0  0  0
 13 15  1  0  0  0  0
 15  2  1  6  0  0  0
 15 17  1  0  0  0  0
 16 25  1  0  0  0  0
 16 23  1  0  0  0  0
 17 19  1  0  0  0  0
 19  5  1  6  0  0  0
 19 21  1  0  0  0  0
 21 14  1  1  0  0  0
 23 14  1  1  0  0  0
 23 29  1  0  0  0  0
 25 26  1  6  0  0  0
 25 27  1  0  0  0  0
 27 18  1  1  0  0  0
 27 28  1  0  0  0  0
 28 20  1  1  0  0  0
 28 29  1  0  0  0  0
 29 11  1  1  0  0  0
 30 22  1  1  0  0  0
 30 31  1  0  0  0  0
 31 24  1  1  0  0  0
M  END
>  <CHROM.1>
-58.26255614,-56.56097729,67.35710586,63.76177484,65.43972998,-56.81674376
38.15522411,28.63764630,2.34646355,0.74278448,-0.21047928,-1.42126892

>  <Name>
ligand

>  <RI>
0

>  <Rbt.Current_Directory>
/home/itssahil/PROJECTS/Mol_Feturizer/New_Systems/rnas/2ET5

>  <Rbt.Executable>
rbdock ($Id: //depot/dev/client3/rdock/2013.1/src/exe/rbdock.cxx#4 $)

>  <Rbt.Library>
libRbt.so (2013.1, Build901 2013/11/27)

>  <Rbt.Parameter_File>
/export/apps/rDock/src/rDock_2013.1_src/data/scripts/dock_solv.prm

>  <Rbt.Receptor>
prm/pocket_docking_8.prm

>  <SCORE>
-8.08998

>  <SCORE.INTER>
-2.62749

>  <SCORE.INTER.CONST>
1

>  <SCORE.INTER.POLAR>
0

>  <SCORE.INTER.ROT>
6

>  <SCORE.INTER.SOLV>
11.1119

>  <SCORE.INTER.VDW>
-13.0556

>  <SCORE.INTER.norm>
-0.0847577

>  <SCORE.INTRA>
-5.46249

>  <SCORE.INTRA.DIHEDRAL>
-10.5107

>  <SCORE.INTRA.DIHEDRAL.0>
11.2357

>  <SCORE.INTRA.POLAR>
0

>  <SCORE.INTRA.POLAR.0>
0

>  <SCORE.INTRA.REPUL>
0

>  <SCORE.INTRA.REPUL.0>
0

>  <SCORE.INTRA.SOLV>
-1.32941

>  <SCORE.INTRA.SOLV.lig_0>
-83.3092

>  <SCORE.INTRA.VDW>
0.457589

>  <SCORE.INTRA.VDW.0>
-4.47057

>  <SCORE.INTRA.norm>
-0.176209

>  <SCORE.RESTR>
0

>  <SCORE.RESTR.CAVITY>
0

>  <SCORE.RESTR.norm>
0

>  <SCORE.SYSTEM>
0

>  <SCORE.SYSTEM.CONST>
0

>  <SCORE.SYSTEM.DIHEDRAL>
0

>  <SCORE.SYSTEM.SOLV>
0

>  <SCORE.SYSTEM.norm>
0

>  <SCORE.heavy>
31

>  <SCORE.norm>
-0.260967

>  <RMSD>
8.950

$$$$
ligand
 OpenBabel11021811433D
libRbt.so/2013.1/901 2013/11/27
 31 33  0  0  0  0  0  0  0  0999 V2000
   33.7708   26.8219    1.6522 C   0  0  0  0  0  0  0  0  0  0  0  0
   41.5969   30.3917    1.4533 N   0  0  0  0  0  0  0  0  0  0  0  0
   33.5049   28.2302    1.5768 O   0  0  0  0  0  0  0  0  0  0  0  0
   35.0116   26.6242    0.7854 C   0  0  1  0  0  0  0  0  0  0  0  0
   39.3962   30.9615    5.9877 N   0  0  0  0  0  0  0  0  0  0  0  0
   36.1840   27.5225    1.1358 O   0  0  0  0  0  0  0  0  0  0  0  0
   37.2106   26.8639    1.7719 C   0  0  1  0  0  0  0  0  0  0  0  0
   39.7358   25.8543    6.7686 N   0  0  0  0  0  0  0  0  0  0  0  0
   37.7278   27.4319    2.9429 O   0  0  0  0  0  0  0  0  0  0  0  0
   38.2802   28.8271    3.0073 C   0  0  2  0  0  0  0  0  0  0  0  0
   34.5236   29.5841    5.9422 N   0  0  0  0  0  0  0  0  0  0  0  0
   39.3710   28.4927    0.7960 O   0  0  0  0  0  0  0  0  0  0  0  0
   39.6141   28.8606    2.2042 C   0  0  1  0  0  0  0  0  0  0  0  0
   37.3728   29.2379    5.2071 O   0  0  0  0  0  0  0  0  0  0  0  0
   40.2585   30.3354    2.2539 C   0  0  1  0  0  0  0  0  0  0  0  0
   37.2376   26.9760    5.9356 O   0  0  0  0  0  0  0  0  0  0  0  0
   40.5080   30.7020    3.7815 C   0  0  0  0  0  0  0  0  0  0  0  0
   37.1729   27.6534    9.5973 O   0  0  0  0  0  0  0  0  0  0  0  0
   39.1253   30.6190    4.5522 C   0  0  1  0  0  0  0  0  0  0  0  0
   34.7352   28.9107    8.8029 O   0  0  0  0  0  0  0  0  0  0  0  0
   38.5639   29.2331    4.5218 C   0  0  2  0  0  0  0  0  0  0  0  0
   37.8253   24.5626    1.8965 O   0  0  0  0  0  0  0  0  0  0  0  0
   36.4478   28.1364    5.3959 C   0  0  1  0  0  0  0  0  0  0  0  0
   36.4073   24.9818   -0.4435 O   0  0  0  0  0  0  0  0  0  0  0  0
   37.8337   27.1712    7.3231 C   0  0  2  0  0  0  0  0  0  0  0  0
   38.6255   25.9313    7.7223 C   0  0  0  0  0  0  0  0  0  0  0  0
   36.6710   27.4465    8.3044 C   0  0  2  0  0  0  0  0  0  0  0  0
   35.8690   28.6601    7.8648 C   0  0  1  0  0  0  0  0  0  0  0  0
   35.3363   28.4065    6.4423 C   0  0  1  0  0  0  0  0  0  0  0  0
   36.7455   25.4244    1.9200 C   0  0  2  0  0  0  0  0  0  0  0  0
   35.6801   25.2445    0.7914 C   0  0  1  0  0  0  0  0  0  0  0  0
  1  3  1  0  0  0  0
  4  1  1  1  0  0  0
  4  6  1  0  0  0  0
  4 31  1  0  0  0  0
  6  7  1  0  0  0  0
  7  9  1  1  0  0  0
  7 30  1  0  0  0  0
  8 26  1  0  0  0  0
 10  9  1  1  0  0  0
 10 13  1  0  0  0  0
 10 21  1  0  0  0  0
 13 12  1  6  0  0  0
 13 15  1  0  0  0  0
 15  2  1  6  0  0  0
 15 17  1  0  0  0  0
 16 25  1  0  0  0  0
 16 23  1  0  0  0  0
 17 19  1  0  0  0  0
 19  5  1  1  0  0  0
 19 21  1  0  0  0  0
 21 14  1  1  0  0  0
 23 14  1  1  0  0  0
 23 29  1  0  0  0  0
 25 26  1  1  0  0  0
 25 27  1  0  0  0  0
 27 18  1  1  0  0  0
 27 28  1  0  0  0  0
 28 20  1  1  0  0  0
 28 29  1  0  0  0  0
 29 11  1  6  0  0  0
 30 22  1  6  0  0  0
 30 31  1  0  0  0  0
 31 24  1  6  0  0  0
M  END
>  <CHROM.1>
52.96071745,-56.57070202,-69.53031496,52.14292304,59.38478486,64.33941222
37.33931223,27.91270268,4.10979238,1.59128021,-0.56013746,-1.75822853

>  <Name>
ligand

>  <RI>
0

>  <Rbt.Current_Directory>
/home/itssahil/PROJECTS/Mol_Feturizer/New_Systems/rnas/2ET5

>  <Rbt.Executable>
rbdock ($Id: //depot/dev/client3/rdock/2013.1/src/exe/rbdock.cxx#4 $)

>  <Rbt.Library>
libRbt.so (2013.1, Build901 2013/11/27)

>  <Rbt.Parameter_File>
/export/apps/rDock/src/rDock_2013.1_src/data/scripts/dock_solv.prm

>  <Rbt.Receptor>
prm/pocket_docking_8.prm

>  <SCORE>
-11.9104

>  <SCORE.INTER>
-6.18327

>  <SCORE.INTER.CONST>
1

>  <SCORE.INTER.POLAR>
0

>  <SCORE.INTER.ROT>
6

>  <SCORE.INTER.SOLV>
12.469

>  <SCORE.INTER.VDW>
-15.8785

>  <SCORE.INTER.norm>
-0.19946

>  <SCORE.INTRA>
-5.72718

>  <SCORE.INTRA.DIHEDRAL>
-10.0544

>  <SCORE.INTRA.DIHEDRAL.0>
11.2357

>  <SCORE.INTRA.POLAR>
0

>  <SCORE.INTRA.POLAR.0>
0

>  <SCORE.INTRA.REPUL>
0

>  <SCORE.INTRA.REPUL.0>
0

>  <SCORE.INTRA.SOLV>
-4.32026

>  <SCORE.INTRA.SOLV.lig_0>
-83.3092

>  <SCORE.INTRA.VDW>
1.46015

>  <SCORE.INTRA.VDW.0>
-4.47057

>  <SCORE.INTRA.norm>
-0.184748

>  <SCORE.RESTR>
0

>  <SCORE.RESTR.CAVITY>
0

>  <SCORE.RESTR.norm>
0

>  <SCORE.SYSTEM>
0

>  <SCORE.SYSTEM.CONST>
0

>  <SCORE.SYSTEM.DIHEDRAL>
0

>  <SCORE.SYSTEM.SOLV>
0

>  <SCORE.SYSTEM.norm>
0

>  <SCORE.heavy>
31

>  <SCORE.norm>
-0.384208

>  <RMSD>
8.955

$$$$
ligand
 OpenBabel11021811433D
libRbt.so/2013.1/901 2013/11/27
 31 33  0  0  0  0  0  0  0  0999 V2000
   43.1393   15.6361   -2.3839 C   0  0  0  0  0  0  0  0  0  0  0  0
   46.0491   13.6511    2.1269 N   0  0  0  0  0  0  0  0  0  0  0  0
   42.0511   16.3534   -1.7830 O   0  0  0  0  0  0  0  0  0  0  0  0
   43.9949   16.7209   -3.0329 C   0  0  1  0  0  0  0  0  0  0  0  0
   41.6351   15.8854    1.0075 N   0  0  0  0  0  0  0  0  0  0  0  0
   44.3171   17.9014   -2.1347 O   0  0  0  0  0  0  0  0  0  0  0  0
   45.6213   17.9202   -1.6978 C   0  0  1  0  0  0  0  0  0  0  0  0
   46.0281   18.4183    3.4705 N   0  0  0  0  0  0  0  0  0  0  0  0
   45.8516   18.1096   -0.3294 O   0  0  0  0  0  0  0  0  0  0  0  0
   45.1923   17.2847    0.7387 C   0  0  2  0  0  0  0  0  0  0  0  0
   41.0122   20.3520   -0.0839 N   0  0  0  0  0  0  0  0  0  0  0  0
   47.3715   16.1896    1.2321 O   0  0  0  0  0  0  0  0  0  0  0  0
   45.9655   15.9383    0.8614 C   0  0  1  0  0  0  0  0  0  0  0  0
   42.9989   18.1842    0.2796 O   0  0  0  0  0  0  0  0  0  0  0  0
   45.2883   15.0065    1.9865 C   0  0  1  0  0  0  0  0  0  0  0  0
   43.4687   19.0422    2.4495 O   0  0  0  0  0  0  0  0  0  0  0  0
   43.7770   14.7546    1.5591 C   0  0  0  0  0  0  0  0  0  0  0  0
   45.3824   22.0505    1.3728 O   0  0  0  0  0  0  0  0  0  0  0  0
   43.0524   16.1574    1.4182 C   0  0  1  0  0  0  0  0  0  0  0  0
   42.8205   22.6521    0.2643 O   0  0  0  0  0  0  0  0  0  0  0  0
   43.6766   16.9906    0.3445 C   0  0  2  0  0  0  0  0  0  0  0  0
   47.6138   16.8878   -2.5063 O   0  0  0  0  0  0  0  0  0  0  0  0
   42.4229   18.9437    1.3733 C   0  0  1  0  0  0  0  0  0  0  0  0
   45.8470   17.1909   -4.6155 O   0  0  0  0  0  0  0  0  0  0  0  0
   44.7139   19.8412    2.0892 C   0  0  2  0  0  0  0  0  0  0  0  0
   45.6901   19.8288    3.2598 C   0  0  0  0  0  0  0  0  0  0  0  0
   44.2686   21.2782    1.7323 C   0  0  2  0  0  0  0  0  0  0  0  0
   43.2637   21.2649    0.5925 C   0  0  1  0  0  0  0  0  0  0  0  0
   42.0565   20.4064    1.0132 C   0  0  1  0  0  0  0  0  0  0  0  0
   46.2675   16.6738   -2.2804 C   0  0  2  0  0  0  0  0  0  0  0  0
   45.3926   16.3328   -3.5292 C   0  0  1  0  0  0  0  0  0  0  0  0
  1  3  1  0  0  0  0
  4  1  1  1  0  0  0
  4  6  1  0  0  0  0
  4 31  1  0  0  0  0
  6  7  1  0  0  0  0
  7  9  1  1  0  0  0
  7 30  1  0  0  0  0
  8 26  1  0  0  0  0
 10  9  1  6  0  0  0
 10 13  1  0  0  0  0
 10 21  1  0  0  0  0
 13 12  1  1  0  0  0
 13 15  1  0  0  0  0
 15  2  1  6  0  0  0
 15 17  1  0  0  0  0
 16 25  1  0  0  0  0
 16 23  1  0  0  0  0
 17 19  1  0  0  0  0
 19  5  1  6  0  0  0
 19 21  1  0  0  0  0
 21 14  1  1  0  0  0
 23 14  1  6  0  0  0
 23 29  1  0  0  0  0
 25 26  1  1  0  0  0
 25 27  1  0  0  0  0
 27 18  1  6  0  0  0
 27 28  1  0  0  0  0
 28 20  1  1  0  0  0
 28 29  1  0  0  0  0
 29 11  1  6  0  0  0
 30 22  1  6  0  0  0
 30 31  1  0  0  0  0
 31 24  1  6  0  0  0
M  END
>  <CHROM.1>
48.75632318,52.04794410,80.58510155,48.08330766,-82.10906169,60.97902968
44.41237308,17.89118124,0.12289589,0.73579858,1.15451930,-1.77598652

>  <Name>
ligand

>  <RI>
0

>  <Rbt.Current_Directory>
/home/itssahil/PROJECTS/Mol_Feturizer/New_Systems/rnas/2ET5

>  <Rbt.Executable>
rbdock ($Id: //depot/dev/client3/rdock/2013.1/src/exe/rbdock.cxx#4 $)

>  <Rbt.Library>
libRbt.so (2013.1, Build901 2013/11/27)

>  <Rbt.Parameter_File>
/export/apps/rDock/src/rDock_2013.1_src/data/scripts/dock_solv.prm

>  <Rbt.Receptor>
prm/blind_docking_60.prm

>  <SCORE>
22.7332

>  <SCORE.INTER>
4.93785

>  <SCORE.INTER.CONST>
1

>  <SCORE.INTER.POLAR>
0

>  <SCORE.INTER.ROT>
6

>  <SCORE.INTER.SOLV>
27.2698

>  <SCORE.INTER.VDW>
-13.398

>  <SCORE.INTER.norm>
0.159285

>  <SCORE.INTRA>
0.500469

>  <SCORE.INTRA.DIHEDRAL>
-5.63379

>  <SCORE.INTRA.DIHEDRAL.0>
11.2357

>  <SCORE.INTRA.POLAR>
0

>  <SCORE.INTRA.POLAR.0>
0

>  <SCORE.INTRA.REPUL>
0.167568

>  <SCORE.INTRA.REPUL.0>
0

>  <SCORE.INTRA.SOLV>
3.34775

>  <SCORE.INTRA.SOLV.lig_0>
-83.3092

>  <SCORE.INTRA.VDW>
0.805648

>  <SCORE.INTRA.VDW.0>
-4.47057

>  <SCORE.INTRA.norm>
0.0161442

>  <SCORE.RESTR>
17.2949

>  <SCORE.RESTR.CAVITY>
17.2949

>  <SCORE.RESTR.norm>
0.5579

>  <SCORE.SYSTEM>
0

>  <SCORE.SYSTEM.CONST>
0

>  <SCORE.SYSTEM.DIHEDRAL>
0

>  <SCORE.SYSTEM.SOLV>
0

>  <SCORE.SYSTEM.norm>
0

>  <SCORE.heavy>
31

>  <SCORE.norm>
0.733329

>  <RMSD>
8.979

$$$$
ligand
 OpenBabel11021811433D
libRbt.so/2013.1/901 2013/11/27
 31 33  0  0  0  0  0  0  0  0999 V2000
   42.5839   28.5136    4.7528 C   0  0  0  0  0  0  0  0  0  0  0  0
   37.8318   32.4790    6.0961 N   0  0  0  0  0  0  0  0  0  0  0  0
   43.7875   27.7679    4.9872 O   0  0  0  0  0  0  0  0  0  0  0  0
   41.4629   27.5006    4.9698 C   0  0  1  0  0  0  0  0  0  0  0  0
   34.4731   28.7741    5.2469 N   0  0  0  0  0  0  0  0  0  0  0  0
   40.0599   28.0604    4.8206 O   0  0  0  0  0  0  0  0  0  0  0  0
   39.4309   27.6666    3.6624 C   0  0  1  0  0  0  0  0  0  0  0  0
   38.1187   30.8798    0.6857 N   0  0  0  0  0  0  0  0  0  0  0  0
   38.8200   28.6543    2.8797 O   0  0  0  0  0  0  0  0  0  0  0  0
   37.7338   29.5563    3.3921 C   0  0  2  0  0  0  0  0  0  0  0  0
   34.0389   26.0455    1.9034 N   0  0  0  0  0  0  0  0  0  0  0  0
   39.4200   31.3343    3.8245 O   0  0  0  0  0  0  0  0  0  0  0  0
   38.3569   30.5203    4.4447 C   0  0  1  0  0  0  0  0  0  0  0  0
   36.0188   27.8766    3.1304 O   0  0  0  0  0  0  0  0  0  0  0  0
   37.2279   31.5026    5.0390 C   0  0  1  0  0  0  0  0  0  0  0  0
   35.8697   29.2577    1.1977 O   0  0  0  0  0  0  0  0  0  0  0  0
   36.0989   30.5970    5.6990 C   0  0  0  0  0  0  0  0  0  0  0  0
   37.7757   27.0503   -1.1187 O   0  0  0  0  0  0  0  0  0  0  0  0
   35.5272   29.6173    4.5917 C   0  0  1  0  0  0  0  0  0  0  0  0
   35.5366   25.3740   -0.5437 O   0  0  0  0  0  0  0  0  0  0  0  0
   36.5852   28.6923    4.0802 C   0  0  2  0  0  0  0  0  0  0  0  0
   39.7936   25.8483    2.1618 O   0  0  0  0  0  0  0  0  0  0  0  0
   35.1358   28.2534    2.0427 C   0  0  1  0  0  0  0  0  0  0  0  0
   40.7478   25.1446    4.6631 O   0  0  0  0  0  0  0  0  0  0  0  0
   37.1061   28.7371    0.4773 C   0  0  2  0  0  0  0  0  0  0  0  0
   37.7570   29.8678   -0.3109 C   0  0  0  0  0  0  0  0  0  0  0  0
   36.6644   27.5781   -0.4459 C   0  0  2  0  0  0  0  0  0  0  0  0
   35.9800   26.4818    0.3534 C   0  0  1  0  0  0  0  0  0  0  0  0
   34.7693   27.0911    1.0844 C   0  0  1  0  0  0  0  0  0  0  0  0
   40.4399   26.8063    2.9193 C   0  0  2  0  0  0  0  0  0  0  0  0
   41.4010   26.2862    4.0361 C   0  0  1  0  0  0  0  0  0  0  0  0
  1  3  1  0  0  0  0
  4  1  1  6  0  0  0
  4  6  1  0  0  0  0
  4 31  1  0  0  0  0
  6  7  1  0  0  0  0
  7  9  1  6  0  0  0
  7 30  1  0  0  0  0
  8 26  1  0  0  0  0
 10  9  1  1  0  0  0
 10 13  1  0  0  0  0
 10 21  1  0  0  0  0
 13 12  1  6  0  0  0
 13 15  1  0  0  0  0
 15  2  1  1  0  0  0
 15 17  1  0  0  0  0
 16 25  1  0  0  0  0
 16 23  1  0  0  0  0
 17 19  1  0  0  0  0
 19  5  1  1  0  0  0
 19 21  1  0  0  0  0
 21 14  1  6  0  0  0
 23 14  1  1  0  0  0
 23 29  1  0  0  0  0
 25 26  1  6  0  0  0
 25 27  1  0  0  0  0
 27 18  1  1  0  0  0
 27 28  1  0  0  0  0
 28 20  1  6  0  0  0
 28 29  1  0  0  0  0
 29 11  1  1  0  0  0
 30 22  1  1  0  0  0
 30 31  1  0  0  0  0
 31 24  1  1  0  0  0
M  END
>  <CHROM.1>
178.18356052,-58.58777754,68.79404476,58.59474308,-72.63701834,60.47491489
37.99889948,28.34997068,2.91256506,-0.48763838,0.38565369,-2.35609564

>  <Name>
ligand

>  <RI>
0

>  <Rbt.Current_Directory>
/home/itssahil/PROJECTS/Mol_Feturizer/New_Systems/rnas/2ET5

>  <Rbt.Executable>
rbdock ($Id: //depot/dev/client3/rdock/2013.1/src/exe/rbdock.cxx#4 $)

>  <Rbt.Library>
libRbt.so (2013.1, Build901 2013/11/27)

>  <Rbt.Parameter_File>
/export/apps/rDock/src/rDock_2013.1_src/data/scripts/dock_solv.prm

>  <Rbt.Receptor>
prm/pocket_docking_7.prm

>  <SCORE>
-8.15039

>  <SCORE.INTER>
-3.7578

>  <SCORE.INTER.CONST>
1

>  <SCORE.INTER.POLAR>
0

>  <SCORE.INTER.ROT>
6

>  <SCORE.INTER.SOLV>
15.3698

>  <SCORE.INTER.VDW>
-15.2285

>  <SCORE.INTER.norm>
-0.121219

>  <SCORE.INTRA>
-4.39259

>  <SCORE.INTRA.DIHEDRAL>
-9.92968

>  <SCORE.INTRA.DIHEDRAL.0>
11.2357

>  <SCORE.INTRA.POLAR>
0

>  <SCORE.INTRA.POLAR.0>
0

>  <SCORE.INTRA.REPUL>
0

>  <SCORE.INTRA.REPUL.0>
0

>  <SCORE.INTRA.SOLV>
-0.319105

>  <SCORE.INTRA.SOLV.lig_0>
-83.3092

>  <SCORE.INTRA.VDW>
0.731801

>  <SCORE.INTRA.VDW.0>
-4.47057

>  <SCORE.INTRA.norm>
-0.141696

>  <SCORE.RESTR>
0

>  <SCORE.RESTR.CAVITY>
0

>  <SCORE.RESTR.norm>
0

>  <SCORE.SYSTEM>
0

>  <SCORE.SYSTEM.CONST>
0

>  <SCORE.SYSTEM.DIHEDRAL>
0

>  <SCORE.SYSTEM.SOLV>
0

>  <SCORE.SYSTEM.norm>
0

>  <SCORE.heavy>
31

>  <SCORE.norm>
-0.262916

>  <RMSD>
8.997

$$$$
ligand
 OpenBabel11021811433D
libRbt.so/2013.1/901 2013/11/27
 31 33  0  0  0  0  0  0  0  0999 V2000
   48.4994   14.7987   -3.4312 C   0  0  0  0  0  0  0  0  0  0  0  0
   41.1037   14.5708   -1.7258 N   0  0  0  0  0  0  0  0  0  0  0  0
   48.7757   15.5633   -2.2486 O   0  0  0  0  0  0  0  0  0  0  0  0
   47.2843   15.4846   -4.0500 C   0  0  1  0  0  0  0  0  0  0  0  0
   41.4444   19.3312   -0.0080 N   0  0  0  0  0  0  0  0  0  0  0  0
   46.0642   15.5544   -3.1497 O   0  0  0  0  0  0  0  0  0  0  0  0
   45.8194   16.8131   -2.6517 C   0  0  1  0  0  0  0  0  0  0  0  0
   46.5312   16.2602    2.6571 N   0  0  0  0  0  0  0  0  0  0  0  0
   45.5905   16.9407   -1.2759 O   0  0  0  0  0  0  0  0  0  0  0  0
   44.2348   16.7843   -0.6486 C   0  0  2  0  0  0  0  0  0  0  0  0
   43.6386   21.8153    1.0936 N   0  0  0  0  0  0  0  0  0  0  0  0
   44.0949   14.4650   -1.5392 O   0  0  0  0  0  0  0  0  0  0  0  0
   43.4150   15.7743   -1.5050 C   0  0  1  0  0  0  0  0  0  0  0  0
   44.1949   19.0550    0.1719 O   0  0  0  0  0  0  0  0  0  0  0  0
   41.9427   15.5810   -0.8826 C   0  0  1  0  0  0  0  0  0  0  0  0
   44.7516   18.4695    2.4107 O   0  0  0  0  0  0  0  0  0  0  0  0
   41.2375   17.0067   -0.8592 C   0  0  0  0  0  0  0  0  0  0  0  0
   48.0410   20.2099    2.5589 O   0  0  0  0  0  0  0  0  0  0  0  0
   42.1314   17.9973   -0.0035 C   0  0  1  0  0  0  0  0  0  0  0  0
   46.2986   22.4428    2.1946 O   0  0  0  0  0  0  0  0  0  0  0  0
   43.4808   18.1878   -0.6195 C   0  0  2  0  0  0  0  0  0  0  0  0
   46.4932   18.9906   -3.3544 O   0  0  0  0  0  0  0  0  0  0  0  0
   43.9464   19.4095    1.5566 C   0  0  1  0  0  0  0  0  0  0  0  0
   46.5041   17.3022   -5.5478 O   0  0  0  0  0  0  0  0  0  0  0  0
   46.2640   18.5948    2.2857 C   0  0  2  0  0  0  0  0  0  0  0  0
   46.9417   17.5654    3.1826 C   0  0  0  0  0  0  0  0  0  0  0  0
   46.6544   20.0386    2.6776 C   0  0  2  0  0  0  0  0  0  0  0  0
   45.9353   21.0496    1.8001 C   0  0  1  0  0  0  0  0  0  0  0  0
   44.4176   20.8341    1.9466 C   0  0  1  0  0  0  0  0  0  0  0  0
   46.9364   17.6922   -3.1903 C   0  0  2  0  0  0  0  0  0  0  0  0
   47.4259   16.9507   -4.4756 C   0  0  1  0  0  0  0  0  0  0  0  0
  1  3  1  0  0  0  0
  4  1  1  1  0  0  0
  4  6  1  0  0  0  0
  4 31  1  0  0  0  0
  6  7  1  0  0  0  0
  7  9  1  1  0  0  0
  7 30  1  0  0  0  0
  8 26  1  0  0  0  0
 10  9  1  6  0  0  0
 10 13  1  0  0  0  0
 10 21  1  0  0  0  0
 13 12  1  1  0  0  0
 13 15  1  0  0  0  0
 15  2  1  6  0  0  0
 15 17  1  0  0  0  0
 16 25  1  0  0  0  0
 16 23  1  0  0  0  0
 17 19  1  0  0  0  0
 19  5  1  6  0  0  0
 19 21  1  0  0  0  0
 21 14  1  1  0  0  0
 23 14  1  6  0  0  0
 23 29  1  0  0  0  0
 25 26  1  1  0  0  0
 25 27  1  0  0  0  0
 27 18  1  6  0  0  0
 27 28  1  0  0  0  0
 28 20  1  1  0  0  0
 28 29  1  0  0  0  0
 29 11  1  6  0  0  0
 30 22  1  6  0  0  0
 30 31  1  0  0  0  0
 31 24  1  6  0  0  0
M  END
>  <CHROM.1>
-58.24872268,-86.88645161,30.42648247,92.11622422,-98.97731546,63.01067652
45.21125169,17.79137552,-0.55586960,-1.44924335,0.19184174,0.88187273

>  <Name>
ligand

>  <RI>
0

>  <Rbt.Current_Directory>
/home/itssahil/PROJECTS/Mol_Feturizer/New_Systems/rnas/2ET5

>  <Rbt.Executable>
rbdock ($Id: //depot/dev/client3/rdock/2013.1/src/exe/rbdock.cxx#4 $)

>  <Rbt.Library>
libRbt.so (2013.1, Build901 2013/11/27)

>  <Rbt.Parameter_File>
/export/apps/rDock/src/rDock_2013.1_src/data/scripts/dock_solv.prm

>  <Rbt.Receptor>
prm/blind_docking_60.prm

>  <SCORE>
58.856

>  <SCORE.INTER>
37.55

>  <SCORE.INTER.CONST>
1

>  <SCORE.INTER.POLAR>
0

>  <SCORE.INTER.ROT>
6

>  <SCORE.INTER.SOLV>
25.2211

>  <SCORE.INTER.VDW>
9.02632

>  <SCORE.INTER.norm>
1.21129

>  <SCORE.INTRA>
4.87382

>  <SCORE.INTRA.DIHEDRAL>
4.57989

>  <SCORE.INTRA.DIHEDRAL.0>
11.2357

>  <SCORE.INTRA.POLAR>
0

>  <SCORE.INTRA.POLAR.0>
0

>  <SCORE.INTRA.REPUL>
0

>  <SCORE.INTRA.REPUL.0>
0

>  <SCORE.INTRA.SOLV>
-0.792497

>  <SCORE.INTRA.SOLV.lig_0>
-83.3092

>  <SCORE.INTRA.VDW>
2.98012

>  <SCORE.INTRA.VDW.0>
-4.47057

>  <SCORE.INTRA.norm>
0.15722

>  <SCORE.RESTR>
16.4322

>  <SCORE.RESTR.CAVITY>
16.4322

>  <SCORE.RESTR.norm>
0.530071

>  <SCORE.SYSTEM>
0

>  <SCORE.SYSTEM.CONST>
0

>  <SCORE.SYSTEM.DIHEDRAL>
0

>  <SCORE.SYSTEM.SOLV>
0

>  <SCORE.SYSTEM.norm>
0

>  <SCORE.heavy>
31

>  <SCORE.norm>
1.89858

>  <RMSD>
9.021

$$$$
ligand
 OpenBabel11021811433D
libRbt.so/2013.1/901 2013/11/27
 31 33  0  0  0  0  0  0  0  0999 V2000
   46.0564   17.0406   -5.4356 C   0  0  0  0  0  0  0  0  0  0  0  0
   41.8124   13.7686   -0.5848 N   0  0  0  0  0  0  0  0  0  0  0  0
   44.8784   16.4637   -4.8533 O   0  0  0  0  0  0  0  0  0  0  0  0
   46.9605   17.3399   -4.2427 C   0  0  1  0  0  0  0  0  0  0  0  0
   41.5145   17.9645    2.2496 N   0  0  0  0  0  0  0  0  0  0  0  0
   46.3548   18.2604   -3.1987 O   0  0  0  0  0  0  0  0  0  0  0  0
   45.9862   17.6133   -2.0422 C   0  0  1  0  0  0  0  0  0  0  0  0
   46.9213   16.1502    2.3419 N   0  0  0  0  0  0  0  0  0  0  0  0
   44.7025   17.8541   -1.5368 O   0  0  0  0  0  0  0  0  0  0  0  0
   44.0830   17.0377   -0.4388 C   0  0  2  0  0  0  0  0  0  0  0  0
   43.4402   21.5754    2.3325 N   0  0  0  0  0  0  0  0  0  0  0  0
   44.2173   15.0108   -1.8759 O   0  0  0  0  0  0  0  0  0  0  0  0
   43.3006   15.8590   -1.0900 C   0  0  1  0  0  0  0  0  0  0  0  0
   43.7882   18.9474    1.0093 O   0  0  0  0  0  0  0  0  0  0  0  0
   42.6018   14.9576    0.0466 C   0  0  1  0  0  0  0  0  0  0  0  0
   45.0826   18.2322    2.8743 O   0  0  0  0  0  0  0  0  0  0  0  0
   41.6223   15.8986    0.8745 C   0  0  0  0  0  0  0  0  0  0  0  0
   48.1496   20.2041    2.1154 O   0  0  0  0  0  0  0  0  0  0  0  0
   42.4666   17.0938    1.4836 C   0  0  1  0  0  0  0  0  0  0  0  0
   46.2823   22.3176    2.5635 O   0  0  0  0  0  0  0  0  0  0  0  0
   43.0768   17.9364    0.4093 C   0  0  2  0  0  0  0  0  0  0  0  0
   46.6315   15.5292   -1.0781 O   0  0  0  0  0  0  0  0  0  0  0  0
   43.9966   19.1716    2.4274 C   0  0  1  0  0  0  0  0  0  0  0  0
   48.6819   16.4334   -2.7029 O   0  0  0  0  0  0  0  0  0  0  0  0
   46.4603   18.4832    2.2765 C   0  0  2  0  0  0  0  0  0  0  0  0
   47.4445   17.4417    2.7962 C   0  0  0  0  0  0  0  0  0  0  0  0
   46.8904   19.9175    2.6618 C   0  0  2  0  0  0  0  0  0  0  0  0
   45.8745   20.9359    2.1720 C   0  0  1  0  0  0  0  0  0  0  0  0
   44.5031   20.5931    2.7828 C   0  0  1  0  0  0  0  0  0  0  0  0
   46.3095   16.1459   -2.2719 C   0  0  2  0  0  0  0  0  0  0  0  0
   47.4172   16.1622   -3.3738 C   0  0  1  0  0  0  0  0  0  0  0  0
  1  3  1  0  0  0  0
  4  1  1  6  0  0  0
  4  6  1  0  0  0  0
  4 31  1  0  0  0  0
  6  7  1  0  0  0  0
  7  9  1  6  0  0  0
  7 30  1  0  0  0  0
  8 26  1  0  0  0  0
 10  9  1  6  0  0  0
 10 13  1  0  0  0  0
 10 21  1  0  0  0  0
 13 12  1  1  0  0  0
 13 15  1  0  0  0  0
 15  2  1  6  0  0  0
 15 17  1  0  0  0  0
 16 25  1  0  0  0  0
 16 23  1  0  0  0  0
 17 19  1  0  0  0  0
 19  5  1  6  0  0  0
 19 21  1  0  0  0  0
 21 14  1  1  0  0  0
 23 14  1  6  0  0  0
 23 29  1  0  0  0  0
 25 26  1  1  0  0  0
 25 27  1  0  0  0  0
 27 18  1  6  0  0  0
 27 28  1  0  0  0  0
 28 20  1  1  0  0  0
 28 29  1  0  0  0  0
 29 11  1  6  0  0  0
 30 22  1  1  0  0  0
 30 31  1  0  0  0  0
 31 24  1  1  0  0  0
M  END
>  <CHROM.1>
-57.91476591,168.52166722,-90.56796983,79.35507003,-115.33082050,61.25181752
45.11962389,17.69536347,-0.07373456,-1.48564876,0.49737564,0.96135570

>  <Name>
ligand

>  <RI>
0

>  <Rbt.Current_Directory>
/home/itssahil/PROJECTS/Mol_Feturizer/New_Systems/rnas/2ET5

>  <Rbt.Executable>
rbdock ($Id: //depot/dev/client3/rdock/2013.1/src/exe/rbdock.cxx#4 $)

>  <Rbt.Library>
libRbt.so (2013.1, Build901 2013/11/27)

>  <Rbt.Parameter_File>
/export/apps/rDock/src/rDock_2013.1_src/data/scripts/dock_solv.prm

>  <Rbt.Receptor>
prm/blind_docking_60.prm

>  <SCORE>
26.6179

>  <SCORE.INTER>
3.05422

>  <SCORE.INTER.CONST>
1

>  <SCORE.INTER.POLAR>
0

>  <SCORE.INTER.ROT>
6

>  <SCORE.INTER.SOLV>
24.2306

>  <SCORE.INTER.VDW>
-13.6407

>  <SCORE.INTER.norm>
0.0985231

>  <SCORE.INTRA>
7.30035

>  <SCORE.INTRA.DIHEDRAL>
1.99608

>  <SCORE.INTRA.DIHEDRAL.0>
11.2357

>  <SCORE.INTRA.POLAR>
0

>  <SCORE.INTRA.POLAR.0>
0

>  <SCORE.INTRA.REPUL>
0

>  <SCORE.INTRA.REPUL.0>
0

>  <SCORE.INTRA.SOLV>
0.0287905

>  <SCORE.INTRA.SOLV.lig_0>
-83.3092

>  <SCORE.INTRA.VDW>
6.28791

>  <SCORE.INTRA.VDW.0>
-4.47057

>  <SCORE.INTRA.norm>
0.235495

>  <SCORE.RESTR>
16.2633

>  <SCORE.RESTR.CAVITY>
16.2633

>  <SCORE.RESTR.norm>
0.524622

>  <SCORE.SYSTEM>
0

>  <SCORE.SYSTEM.CONST>
0

>  <SCORE.SYSTEM.DIHEDRAL>
0

>  <SCORE.SYSTEM.SOLV>
0

>  <SCORE.SYSTEM.norm>
0

>  <SCORE.heavy>
31

>  <SCORE.norm>
0.858641

>  <RMSD>
9.023

$$$$
ligand
 OpenBabel11021811433D
libRbt.so/2013.1/901 2013/11/27
 31 33  0  0  0  0  0  0  0  0999 V2000
   48.5260   14.8118   -3.4327 C   0  0  0  0  0  0  0  0  0  0  0  0
   41.1215   14.5418   -1.7270 N   0  0  0  0  0  0  0  0  0  0  0  0
   48.7947   15.5840   -2.2532 O   0  0  0  0  0  0  0  0  0  0  0  0
   47.3026   15.4818   -4.0529 C   0  0  1  0  0  0  0  0  0  0  0  0
   41.4422   19.3023   -0.0056 N   0  0  0  0  0  0  0  0  0  0  0  0
   46.0832   15.5429   -3.1510 O   0  0  0  0  0  0  0  0  0  0  0  0
   45.8258   16.8013   -2.6587 C   0  0  1  0  0  0  0  0  0  0  0  0
   46.5256   16.2643    2.6815 N   0  0  0  0  0  0  0  0  0  0  0  0
   45.5976   16.9331   -1.2832 O   0  0  0  0  0  0  0  0  0  0  0  0
   44.2438   16.7695   -0.6535 C   0  0  2  0  0  0  0  0  0  0  0  0
   43.6285   21.8043    1.0708 N   0  0  0  0  0  0  0  0  0  0  0  0
   44.1135   14.4504   -1.5460 O   0  0  0  0  0  0  0  0  0  0  0  0
   43.4274   15.7564   -1.5094 C   0  0  1  0  0  0  0  0  0  0  0  0
   44.1944   19.0393    0.1690 O   0  0  0  0  0  0  0  0  0  0  0  0
   41.9571   15.5554   -0.8844 C   0  0  1  0  0  0  0  0  0  0  0  0
   44.7412   18.4688    2.4141 O   0  0  0  0  0  0  0  0  0  0  0  0
   41.2451   16.9776   -0.8585 C   0  0  0  0  0  0  0  0  0  0  0  0
   48.0267   20.2162    2.5676 O   0  0  0  0  0  0  0  0  0  0  0  0
   42.1358   17.9717   -0.0036 C   0  0  1  0  0  0  0  0  0  0  0  0
   46.2820   22.4435    2.1809 O   0  0  0  0  0  0  0  0  0  0  0  0
   43.4831   18.1693   -0.6219 C   0  0  2  0  0  0  0  0  0  0  0  0
   46.4752   18.9824   -3.3730 O   0  0  0  0  0  0  0  0  0  0  0  0
   43.9385   19.4020    1.5502 C   0  0  1  0  0  0  0  0  0  0  0  0
   46.5008   17.2837   -5.5583 O   0  0  0  0  0  0  0  0  0  0  0  0
   46.2540   18.5961    2.2958 C   0  0  2  0  0  0  0  0  0  0  0  0
   46.9291   17.5735    3.2024 C   0  0  0  0  0  0  0  0  0  0  0  0
   46.6398   20.0431    2.6806 C   0  0  2  0  0  0  0  0  0  0  0  0
   45.9232   21.0472    1.7933 C   0  0  1  0  0  0  0  0  0  0  0  0
   44.4051   20.8298    1.9337 C   0  0  1  0  0  0  0  0  0  0  0  0
   46.9324   17.6896   -3.2034 C   0  0  2  0  0  0  0  0  0  0  0  0
   47.4279   16.9472   -4.4858 C   0  0  1  0  0  0  0  0  0  0  0  0
  1  3  1  0  0  0  0
  4  1  1  1  0  0  0
  4  6  1  0  0  0  0
  4 31  1  0  0  0  0
  6  7  1  0  0  0  0
  7  9  1  1  0  0  0
  7 30  1  0  0  0  0
  8 26  1  0  0  0  0
 10  9  1  6  0  0  0
 10 13  1  0  0  0  0
 10 21  1  0  0  0  0
 13 12  1  1  0  0  0
 13 15  1  0  0  0  0
 15  2  1  6  0  0  0
 15 17  1  0  0  0  0
 16 25  1  0  0  0  0
 16 23  1  0  0  0  0
 17 19  1  0  0  0  0
 19  5  1  6  0  0  0
 19 21  1  0  0  0  0
 21 14  1  1  0  0  0
 23 14  1  6  0  0  0
 23 29  1  0  0  0  0
 25 26  1  1  0  0  0
 25 27  1  0  0  0  0
 27 18  1  6  0  0  0
 27 28  1  0  0  0  0
 28 20  1  1  0  0  0
 28 29  1  0  0  0  0
 29 11  1  6  0  0  0
 30 22  1  6  0  0  0
 30 31  1  0  0  0  0
 31 24  1  6  0  0  0
M  END
>  <CHROM.1>
-58.16955827,-87.08767298,30.09887035,92.36079890,-99.68272155,63.11471247
45.21220451,17.78338639,-0.55889891,-1.44632773,0.19708444,0.88212791

>  <Name>
ligand

>  <RI>
0

>  <Rbt.Current_Directory>
/home/itssahil/PROJECTS/Mol_Feturizer/New_Systems/rnas/2ET5

>  <Rbt.Executable>
rbdock ($Id: //depot/dev/client3/rdock/2013.1/src/exe/rbdock.cxx#4 $)

>  <Rbt.Library>
libRbt.so (2013.1, Build901 2013/11/27)

>  <Rbt.Parameter_File>
/export/apps/rDock/src/rDock_2013.1_src/data/scripts/dock_solv.prm

>  <Rbt.Receptor>
prm/blind_docking_60.prm

>  <SCORE>
58.6819

>  <SCORE.INTER>
37.1578

>  <SCORE.INTER.CONST>
1

>  <SCORE.INTER.POLAR>
0

>  <SCORE.INTER.ROT>
6

>  <SCORE.INTER.SOLV>
25.2787

>  <SCORE.INTER.VDW>
8.74563

>  <SCORE.INTER.norm>
1.19864

>  <SCORE.INTRA>
5.04169

>  <SCORE.INTRA.DIHEDRAL>
4.84379

>  <SCORE.INTRA.DIHEDRAL.0>
11.2357

>  <SCORE.INTRA.POLAR>
0

>  <SCORE.INTRA.POLAR.0>
0

>  <SCORE.INTRA.REPUL>
0

>  <SCORE.INTRA.REPUL.0>
0

>  <SCORE.INTRA.SOLV>
-0.808381

>  <SCORE.INTRA.SOLV.lig_0>
-83.3092

>  <SCORE.INTRA.VDW>
3.02399

>  <SCORE.INTRA.VDW.0>
-4.47057

>  <SCORE.INTRA.norm>
0.162635

>  <SCORE.RESTR>
16.4823

>  <SCORE.RESTR.CAVITY>
16.4823

>  <SCORE.RESTR.norm>
0.531688

>  <SCORE.SYSTEM>
0

>  <SCORE.SYSTEM.CONST>
0

>  <SCORE.SYSTEM.DIHEDRAL>
0

>  <SCORE.SYSTEM.SOLV>
0

>  <SCORE.SYSTEM.norm>
0

>  <SCORE.heavy>
31

>  <SCORE.norm>
1.89296

>  <RMSD>
9.031

$$$$
ligand
 OpenBabel11021811433D
libRbt.so/2013.1/901 2013/11/27
 31 33  0  0  0  0  0  0  0  0999 V2000
   45.9333   14.1042   -3.0674 C   0  0  0  0  0  0  0  0  0  0  0  0
   41.1571   13.9849   -1.1202 N   0  0  0  0  0  0  0  0  0  0  0  0
   45.7918   14.5095   -1.6980 O   0  0  0  0  0  0  0  0  0  0  0  0
   46.1352   15.4112   -3.8299 C   0  0  1  0  0  0  0  0  0  0  0  0
   42.0763   17.4494    2.4687 N   0  0  0  0  0  0  0  0  0  0  0  0
   45.0023   16.4119   -3.6910 O   0  0  0  0  0  0  0  0  0  0  0  0
   45.3117   17.4850   -2.8880 C   0  0  1  0  0  0  0  0  0  0  0  0
   48.4693   18.7016    1.9941 N   0  0  0  0  0  0  0  0  0  0  0  0
   44.3992   17.8387   -1.8861 O   0  0  0  0  0  0  0  0  0  0  0  0
   43.8897   16.8707   -0.8570 C   0  0  2  0  0  0  0  0  0  0  0  0
   42.1818   20.1957    2.2465 N   0  0  0  0  0  0  0  0  0  0  0  0
   43.4229   15.2133   -2.6533 O   0  0  0  0  0  0  0  0  0  0  0  0
   42.8215   15.9598   -1.5315 C   0  0  1  0  0  0  0  0  0  0  0  0
   44.1850   18.4296    0.9633 O   0  0  0  0  0  0  0  0  0  0  0  0
   42.2296   14.9095   -0.4642 C   0  0  1  0  0  0  0  0  0  0  0  0
   45.7009   18.9481    2.7235 O   0  0  0  0  0  0  0  0  0  0  0  0
   41.5900   15.7433    0.7299 C   0  0  0  0  0  0  0  0  0  0  0  0
   46.5183   22.4187    1.6472 O   0  0  0  0  0  0  0  0  0  0  0  0
   42.7124   16.6728    1.3535 C   0  0  1  0  0  0  0  0  0  0  0  0
   43.7323   22.7009    2.2064 O   0  0  0  0  0  0  0  0  0  0  0  0
   43.2217   17.6620    0.3542 C   0  0  2  0  0  0  0  0  0  0  0  0
   47.3832   18.4294   -2.1763 O   0  0  0  0  0  0  0  0  0  0  0  0
   44.2474   18.8468    2.3514 C   0  0  1  0  0  0  0  0  0  0  0  0
   47.7822   17.1098   -4.5766 O   0  0  0  0  0  0  0  0  0  0  0  0
   46.4943   20.0278    1.9999 C   0  0  2  0  0  0  0  0  0  0  0  0
   47.9482   19.9913    2.4561 C   0  0  0  0  0  0  0  0  0  0  0  0
   45.8327   21.3905    2.3099 C   0  0  2  0  0  0  0  0  0  0  0  0
   44.3732   21.3911    1.8869 C   0  0  1  0  0  0  0  0  0  0  0  0
   43.6485   20.2504    2.6251 C   0  0  1  0  0  0  0  0  0  0  0  0
   46.7267   17.2330   -2.3932 C   0  0  2  0  0  0  0  0  0  0  0  0
   47.3458   16.2775   -3.4632 C   0  0  1  0  0  0  0  0  0  0  0  0
  1  3  1  0  0  0  0
  4  1  1  1  0  0  0
  4  6  1  0  0  0  0
  4 31  1  0  0  0  0
  6  7  1  0  0  0  0
  7  9  1  1  0  0  0
  7 30  1  0  0  0  0
  8 26  1  0  0  0  0
 10  9  1  6  0  0  0
 10 13  1  0  0  0  0
 10 21  1  0  0  0  0
 13 12  1  6  0  0  0
 13 15  1  0  0  0  0
 15  2  1  6  0  0  0
 15 17  1  0  0  0  0
 16 25  1  0  0  0  0
 16 23  1  0  0  0  0
 17 19  1  0  0  0  0
 19  5  1  1  0  0  0
 19 21  1  0  0  0  0
 21 14  1  1  0  0  0
 23 14  1  6  0  0  0
 23 29  1  0  0  0  0
 25 26  1  1  0  0  0
 25 27  1  0  0  0  0
 27 18  1  6  0  0  0
 27 28  1  0  0  0  0
 28 20  1  1  0  0  0
 28 29  1  0  0  0  0
 29 11  1  6  0  0  0
 30 22  1  6  0  0  0
 30 31  1  0  0  0  0
 31 24  1  6  0  0  0
M  END
>  <CHROM.1>
-59.12116503,53.85681371,-76.73159005,148.49024437,-151.25482004,65.33106977
44.81476913,17.83975812,-0.22584082,-1.57099746,0.47606599,0.78272005

>  <Name>
ligand

>  <RI>
0

>  <Rbt.Current_Directory>
/home/itssahil/PROJECTS/Mol_Feturizer/New_Systems/rnas/2ET5

>  <Rbt.Executable>
rbdock ($Id: //depot/dev/client3/rdock/2013.1/src/exe/rbdock.cxx#4 $)

>  <Rbt.Library>
libRbt.so (2013.1, Build901 2013/11/27)

>  <Rbt.Parameter_File>
/export/apps/rDock/src/rDock_2013.1_src/data/scripts/dock_solv.prm

>  <Rbt.Receptor>
prm/blind_docking_60.prm

>  <SCORE>
32.4728

>  <SCORE.INTER>
8.84954

>  <SCORE.INTER.CONST>
1

>  <SCORE.INTER.POLAR>
0

>  <SCORE.INTER.ROT>
6

>  <SCORE.INTER.SOLV>
26.508

>  <SCORE.INTER.VDW>
-10.5363

>  <SCORE.INTER.norm>
0.285469

>  <SCORE.INTRA>
6.64302

>  <SCORE.INTRA.DIHEDRAL>
-2.31379

>  <SCORE.INTRA.DIHEDRAL.0>
11.2357

>  <SCORE.INTRA.POLAR>
0

>  <SCORE.INTRA.POLAR.0>
0

>  <SCORE.INTRA.REPUL>
0

>  <SCORE.INTRA.REPUL.0>
0

>  <SCORE.INTRA.SOLV>
2.19407

>  <SCORE.INTRA.SOLV.lig_0>
-83.3092

>  <SCORE.INTRA.VDW>
6.70289

>  <SCORE.INTRA.VDW.0>
-4.47057

>  <SCORE.INTRA.norm>
0.214291

>  <SCORE.RESTR>
16.9803

>  <SCORE.RESTR.CAVITY>
16.9803

>  <SCORE.RESTR.norm>
0.547751

>  <SCORE.SYSTEM>
0

>  <SCORE.SYSTEM.CONST>
0

>  <SCORE.SYSTEM.DIHEDRAL>
0

>  <SCORE.SYSTEM.SOLV>
0

>  <SCORE.SYSTEM.norm>
0

>  <SCORE.heavy>
31

>  <SCORE.norm>
1.04751

>  <RMSD>
9.033

$$$$
ligand
 OpenBabel11021811433D
libRbt.so/2013.1/901 2013/11/27
 31 33  0  0  0  0  0  0  0  0999 V2000
   43.2780   15.6981   -2.7512 C   0  0  0  0  0  0  0  0  0  0  0  0
   44.8045   13.0206    0.6284 N   0  0  0  0  0  0  0  0  0  0  0  0
   42.3996   16.3721   -1.8381 O   0  0  0  0  0  0  0  0  0  0  0  0
   44.1799   16.8035   -3.2942 C   0  0  1  0  0  0  0  0  0  0  0  0
   41.6991   16.9211    1.5618 N   0  0  0  0  0  0  0  0  0  0  0  0
   44.5639   17.8677   -2.2823 O   0  0  0  0  0  0  0  0  0  0  0  0
   45.8704   17.7802   -1.8609 C   0  0  1  0  0  0  0  0  0  0  0  0
   48.0474   18.6186    2.0976 N   0  0  0  0  0  0  0  0  0  0  0  0
   46.1186   17.8152   -0.4830 O   0  0  0  0  0  0  0  0  0  0  0  0
   45.3832   16.9595    0.5083 C   0  0  2  0  0  0  0  0  0  0  0  0
   41.9141   20.6874    2.1607 N   0  0  0  0  0  0  0  0  0  0  0  0
   46.9085   15.0616   -0.0048 O   0  0  0  0  0  0  0  0  0  0  0  0
   45.4931   15.4758    0.0476 C   0  0  1  0  0  0  0  0  0  0  0  0
   43.7661   18.6811    1.0103 O   0  0  0  0  0  0  0  0  0  0  0  0
   44.7060   14.5139    1.0712 C   0  0  1  0  0  0  0  0  0  0  0  0
   45.2927   19.1464    2.7762 O   0  0  0  0  0  0  0  0  0  0  0  0
   43.1871   14.9850    1.1054 C   0  0  0  0  0  0  0  0  0  0  0  0
   46.4488   22.4675    1.5494 O   0  0  0  0  0  0  0  0  0  0  0  0
   43.1411   16.5066    1.5474 C   0  0  1  0  0  0  0  0  0  0  0  0
   43.6919   23.0336    2.0321 O   0  0  0  0  0  0  0  0  0  0  0  0
   43.8484   17.3840    0.5642 C   0  0  2  0  0  0  0  0  0  0  0  0
   47.8061   16.7459   -2.7952 O   0  0  0  0  0  0  0  0  0  0  0  0
   43.8428   19.1608    2.3773 C   0  0  1  0  0  0  0  0  0  0  0  0
   46.0416   17.3489   -4.8409 O   0  0  0  0  0  0  0  0  0  0  0  0
   46.1958   20.1101    2.0183 C   0  0  2  0  0  0  0  0  0  0  0  0
   47.6318   19.9629    2.5079 C   0  0  0  0  0  0  0  0  0  0  0  0
   45.6589   21.5420    2.2464 C   0  0  2  0  0  0  0  0  0  0  0  0
   44.2134   21.6557    1.7916 C   0  0  1  0  0  0  0  0  0  0  0  0
   43.3726   20.6257    2.5685 C   0  0  1  0  0  0  0  0  0  0  0  0
   46.4527   16.5725   -2.5771 C   0  0  2  0  0  0  0  0  0  0  0  0
   45.5541   16.4044   -3.8443 C   0  0  1  0  0  0  0  0  0  0  0  0
  1  3  1  0  0  0  0
  4  1  1  1  0  0  0
  4  6  1  0  0  0  0
  4 31  1  0  0  0  0
  6  7  1  0  0  0  0
  7  9  1  1  0  0  0
  7 30  1  0  0  0  0
  8 26  1  0  0  0  0
 10  9  1  6  0  0  0
 10 13  1  0  0  0  0
 10 21  1  0  0  0  0
 13 12  1  1  0  0  0
 13 15  1  0  0  0  0
 15  2  1  6  0  0  0
 15 17  1  0  0  0  0
 16 25  1  0  0  0  0
 16 23  1  0  0  0  0
 17 19  1  0  0  0  0
 19  5  1  6  0  0  0
 19 21  1  0  0  0  0
 21 14  1  1  0  0  0
 23 14  1  6  0  0  0
 23 29  1  0  0  0  0
 25 26  1  1  0  0  0
 25 27  1  0  0  0  0
 27 18  1  6  0  0  0
 27 28  1  0  0  0  0
 28 20  1  1  0  0  0
 28 29  1  0  0  0  0
 29 11  1  6  0  0  0
 30 22  1  6  0  0  0
 30 31  1  0  0  0  0
 31 24  1  6  0  0  0
M  END
>  <CHROM.1>
36.94476644,49.15465583,53.36159199,77.44196620,-80.22189992,66.43725885
44.90744999,17.95563173,0.14894633,1.49275903,-0.76718026,-2.50994688

>  <Name>
ligand

>  <RI>
0

>  <Rbt.Current_Directory>
/home/itssahil/PROJECTS/Mol_Feturizer/New_Systems/rnas/2ET5

>  <Rbt.Executable>
rbdock ($Id: //depot/dev/client3/rdock/2013.1/src/exe/rbdock.cxx#4 $)

>  <Rbt.Library>
libRbt.so (2013.1, Build901 2013/11/27)

>  <Rbt.Parameter_File>
/export/apps/rDock/src/rDock_2013.1_src/data/scripts/dock_solv.prm

>  <Rbt.Receptor>
prm/blind_docking_60.prm

>  <SCORE>
15.8016

>  <SCORE.INTER>
-1.38279

>  <SCORE.INTER.CONST>
1

>  <SCORE.INTER.POLAR>
0

>  <SCORE.INTER.ROT>
6

>  <SCORE.INTER.SOLV>
24.6113

>  <SCORE.INTER.VDW>
-16.7256

>  <SCORE.INTER.norm>
-0.0446061

>  <SCORE.INTRA>
-2.14136

>  <SCORE.INTRA.DIHEDRAL>
-5.26606

>  <SCORE.INTRA.DIHEDRAL.0>
11.2357

>  <SCORE.INTRA.POLAR>
0

>  <SCORE.INTRA.POLAR.0>
0

>  <SCORE.INTRA.REPUL>
0.0143286

>  <SCORE.INTRA.REPUL.0>
0

>  <SCORE.INTRA.SOLV>
0.995397

>  <SCORE.INTRA.SOLV.lig_0>
-83.3092

>  <SCORE.INTRA.VDW>
-0.0776695

>  <SCORE.INTRA.VDW.0>
-4.47057

>  <SCORE.INTRA.norm>
-0.0690761

>  <SCORE.RESTR>
19.3258

>  <SCORE.RESTR.CAVITY>
19.3258

>  <SCORE.RESTR.norm>
0.623412

>  <SCORE.SYSTEM>
0

>  <SCORE.SYSTEM.CONST>
0

>  <SCORE.SYSTEM.DIHEDRAL>
0

>  <SCORE.SYSTEM.SOLV>
0

>  <SCORE.SYSTEM.norm>
0

>  <SCORE.heavy>
31

>  <SCORE.norm>
0.50973

>  <RMSD>
9.036

$$$$
ligand
 OpenBabel11021811433D
libRbt.so/2013.1/901 2013/11/27
 31 33  0  0  0  0  0  0  0  0999 V2000
   44.2366   16.2015   -4.1532 C   0  0  0  0  0  0  0  0  0  0  0  0
   42.9454   13.9210   -1.0844 N   0  0  0  0  0  0  0  0  0  0  0  0
   44.5945   15.0024   -3.4506 O   0  0  0  0  0  0  0  0  0  0  0  0
   45.5383   16.9943   -4.2360 C   0  0  1  0  0  0  0  0  0  0  0  0
   41.5392   18.7418   -0.3697 N   0  0  0  0  0  0  0  0  0  0  0  0
   45.7433   18.0021   -3.1196 O   0  0  0  0  0  0  0  0  0  0  0  0
   46.6906   17.6182   -2.1991 C   0  0  1  0  0  0  0  0  0  0  0  0
   45.9744   16.6274    2.9262 N   0  0  0  0  0  0  0  0  0  0  0  0
   46.3557   17.6974   -0.8416 O   0  0  0  0  0  0  0  0  0  0  0  0
   45.0494   17.2072   -0.2856 C   0  0  2  0  0  0  0  0  0  0  0  0
   43.6749   22.2577    0.7984 N   0  0  0  0  0  0  0  0  0  0  0  0
   45.7660   14.8580   -0.6845 O   0  0  0  0  0  0  0  0  0  0  0  0
   44.7091   15.8485   -0.9665 C   0  0  1  0  0  0  0  0  0  0  0  0
   44.1882   19.4391    0.0431 O   0  0  0  0  0  0  0  0  0  0  0  0
   43.3054   15.2842   -0.4153 C   0  0  1  0  0  0  0  0  0  0  0  0
   44.4173   18.9108    2.3525 O   0  0  0  0  0  0  0  0  0  0  0  0
   42.1894   16.3721   -0.7335 C   0  0  0  0  0  0  0  0  0  0  0  0
   47.7534   20.4817    2.8763 O   0  0  0  0  0  0  0  0  0  0  0  0
   42.6056   17.7376   -0.0445 C   0  0  1  0  0  0  0  0  0  0  0  0
   46.2018   22.7869    2.2183 O   0  0  0  0  0  0  0  0  0  0  0  0
   43.8938   18.2592   -0.5969 C   0  0  2  0  0  0  0  0  0  0  0  0
   48.4899   16.0546   -2.2850 O   0  0  0  0  0  0  0  0  0  0  0  0
   43.7836   19.8584    1.3717 C   0  0  1  0  0  0  0  0  0  0  0  0
   47.9400   16.9238   -4.8548 O   0  0  0  0  0  0  0  0  0  0  0  0
   45.9379   18.9522    2.4228 C   0  0  2  0  0  0  0  0  0  0  0  0
   46.4347   17.9237    3.4321 C   0  0  0  0  0  0  0  0  0  0  0  0
   46.3555   20.3876    2.8177 C   0  0  2  0  0  0  0  0  0  0  0  0
   45.8141   21.4006    1.8228 C   0  0  1  0  0  0  0  0  0  0  0  0
   44.2804   21.2703    1.7759 C   0  0  1  0  0  0  0  0  0  0  0  0
   47.1721   16.2494   -2.6520 C   0  0  2  0  0  0  0  0  0  0  0  0
   46.8583   16.2163   -4.1823 C   0  0  1  0  0  0  0  0  0  0  0  0
  1  3  1  0  0  0  0
  4  1  1  1  0  0  0
  4  6  1  0  0  0  0
  4 31  1  0  0  0  0
  6  7  1  0  0  0  0
  7  9  1  1  0  0  0
  7 30  1  0  0  0  0
  8 26  1  0  0  0  0
 10  9  1  6  0  0  0
 10 13  1  0  0  0  0
 10 21  1  0  0  0  0
 13 12  1  1  0  0  0
 13 15  1  0  0  0  0
 15  2  1  6  0  0  0
 15 17  1  0  0  0  0
 16 25  1  0  0  0  0
 16 23  1  0  0  0  0
 17 19  1  0  0  0  0
 19  5  1  6  0  0  0
 19 21  1  0  0  0  0
 21 14  1  1  0  0  0
 23 14  1  6  0  0  0
 23 29  1  0  0  0  0
 25 26  1  1  0  0  0
 25 27  1  0  0  0  0
 27 18  1  6  0  0  0
 27 28  1  0  0  0  0
 28 20  1  1  0  0  0
 28 29  1  0  0  0  0
 29 11  1  6  0  0  0
 30 22  1  6  0  0  0
 30 31  1  0  0  0  0
 31 24  1  6  0  0  0
M  END
>  <CHROM.1>
-93.70710929,45.61065069,41.75689780,63.99856375,-91.30821617,60.74932187
45.22023905,17.91769827,-0.41422773,1.53358306,-0.36569992,-2.30418264

>  <Name>
ligand

>  <RI>
0

>  <Rbt.Current_Directory>
/home/itssahil/PROJECTS/Mol_Feturizer/New_Systems/rnas/2ET5

>  <Rbt.Executable>
rbdock ($Id: //depot/dev/client3/rdock/2013.1/src/exe/rbdock.cxx#4 $)

>  <Rbt.Library>
libRbt.so (2013.1, Build901 2013/11/27)

>  <Rbt.Parameter_File>
/export/apps/rDock/src/rDock_2013.1_src/data/scripts/dock_solv.prm

>  <Rbt.Receptor>
prm/blind_docking_60.prm

>  <SCORE>
25.2276

>  <SCORE.INTER>
7.42476

>  <SCORE.INTER.CONST>
1

>  <SCORE.INTER.POLAR>
0

>  <SCORE.INTER.ROT>
6

>  <SCORE.INTER.SOLV>
26.4999

>  <SCORE.INTER.VDW>
-11.4835

>  <SCORE.INTER.norm>
0.239508

>  <SCORE.INTRA>
2.77915

>  <SCORE.INTRA.DIHEDRAL>
-1.56764

>  <SCORE.INTRA.DIHEDRAL.0>
11.2357

>  <SCORE.INTRA.POLAR>
0

>  <SCORE.INTRA.POLAR.0>
0

>  <SCORE.INTRA.REPUL>
0

>  <SCORE.INTRA.REPUL.0>
0

>  <SCORE.INTRA.SOLV>
2.18428

>  <SCORE.INTRA.SOLV.lig_0>
-83.3092

>  <SCORE.INTRA.VDW>
2.47083

>  <SCORE.INTRA.VDW.0>
-4.47057

>  <SCORE.INTRA.norm>
0.08965

>  <SCORE.RESTR>
15.0236

>  <SCORE.RESTR.CAVITY>
15.0236

>  <SCORE.RESTR.norm>
0.484633

>  <SCORE.SYSTEM>
0

>  <SCORE.SYSTEM.CONST>
0

>  <SCORE.SYSTEM.DIHEDRAL>
0

>  <SCORE.SYSTEM.SOLV>
0

>  <SCORE.SYSTEM.norm>
0

>  <SCORE.heavy>
31

>  <SCORE.norm>
0.813792

>  <RMSD>
9.037

$$$$
ligand
 OpenBabel11021811433D
libRbt.so/2013.1/901 2013/11/27
 31 33  0  0  0  0  0  0  0  0999 V2000
   47.7443   14.7593   -2.9781 C   0  0  0  0  0  0  0  0  0  0  0  0
   42.7318   13.7299    0.4786 N   0  0  0  0  0  0  0  0  0  0  0  0
   48.7087   14.7923   -4.0404 O   0  0  0  0  0  0  0  0  0  0  0  0
   46.5514   15.5386   -3.5257 C   0  0  1  0  0  0  0  0  0  0  0  0
   41.2246   18.5072    1.2749 N   0  0  0  0  0  0  0  0  0  0  0  0
   45.5381   15.9704   -2.4813 O   0  0  0  0  0  0  0  0  0  0  0  0
   45.5751   17.3169   -2.2027 C   0  0  1  0  0  0  0  0  0  0  0  0
   46.0236   16.7384    3.3283 N   0  0  0  0  0  0  0  0  0  0  0  0
   45.6202   17.7073   -0.8585 O   0  0  0  0  0  0  0  0  0  0  0  0
   44.6570   17.2036    0.1782 C   0  0  2  0  0  0  0  0  0  0  0  0
   43.6070   22.3211    1.1084 N   0  0  0  0  0  0  0  0  0  0  0  0
   45.4022   14.8719   -0.2684 O   0  0  0  0  0  0  0  0  0  0  0  0
   44.2253   15.7607   -0.2179 C   0  0  1  0  0  0  0  0  0  0  0  0
   43.7636   19.4026    0.6224 O   0  0  0  0  0  0  0  0  0  0  0  0
   43.1771   15.1772    0.8562 C   0  0  1  0  0  0  0  0  0  0  0  0
   44.4254   19.1078    2.8896 O   0  0  0  0  0  0  0  0  0  0  0  0
   41.9229   16.1550    0.8871 C   0  0  0  0  0  0  0  0  0  0  0  0
   47.8960   20.4162    2.5512 O   0  0  0  0  0  0  0  0  0  0  0  0
   42.4273   17.6102    1.2621 C   0  0  1  0  0  0  0  0  0  0  0  0
   46.4012   22.7685    1.9293 O   0  0  0  0  0  0  0  0  0  0  0  0
   43.3720   18.1443    0.2330 C   0  0  2  0  0  0  0  0  0  0  0  0
   46.4232   19.1951   -3.4038 O   0  0  0  0  0  0  0  0  0  0  0  0
   43.6693   19.9977    1.9422 C   0  0  1  0  0  0  0  0  0  0  0  0
   45.7888   17.1946   -5.2086 O   0  0  0  0  0  0  0  0  0  0  0  0
   45.9273   19.0181    2.6551 C   0  0  2  0  0  0  0  0  0  0  0  0
   46.5503   18.0635    3.6671 C   0  0  0  0  0  0  0  0  0  0  0  0
   46.5128   20.4438    2.7796 C   0  0  2  0  0  0  0  0  0  0  0  0
   45.8482   21.3886    1.7923 C   0  0  1  0  0  0  0  0  0  0  0  0
   44.3323   21.3939    2.0632 C   0  0  1  0  0  0  0  0  0  0  0  0
   46.6930   17.8836   -3.0628 C   0  0  2  0  0  0  0  0  0  0  0  0
   46.8275   16.8662   -4.2410 C   0  0  1  0  0  0  0  0  0  0  0  0
  1  3  1  0  0  0  0
  4  1  1  1  0  0  0
  4  6  1  0  0  0  0
  4 31  1  0  0  0  0
  6  7  1  0  0  0  0
  7  9  1  1  0  0  0
  7 30  1  0  0  0  0
  8 26  1  0  0  0  0
 10  9  1  6  0  0  0
 10 13  1  0  0  0  0
 10 21  1  0  0  0  0
 13 12  1  1  0  0  0
 13 15  1  0  0  0  0
 15  2  1  6  0  0  0
 15 17  1  0  0  0  0
 16 25  1  0  0  0  0
 16 23  1  0  0  0  0
 17 19  1  0  0  0  0
 19  5  1  6  0  0  0
 19 21  1  0  0  0  0
 21 14  1  1  0  0  0
 23 14  1  6  0  0  0
 23 29  1  0  0  0  0
 25 26  1  1  0  0  0
 25 27  1  0  0  0  0
 27 18  1  6  0  0  0
 27 28  1  0  0  0  0
 28 20  1  1  0  0  0
 28 29  1  0  0  0  0
 29 11  1  6  0  0  0
 30 22  1  6  0  0  0
 30 31  1  0  0  0  0
 31 24  1  6  0  0  0
M  END
>  <CHROM.1>
-164.51196185,-51.26373037,30.70759106,57.62418105,-99.92876745,66.94052304
45.19089807,17.92102879,-0.03819155,-1.26897664,0.78682922,0.68095950

>  <Name>
ligand

>  <RI>
0

>  <Rbt.Current_Directory>
/home/itssahil/PROJECTS/Mol_Feturizer/New_Systems/rnas/2ET5

>  <Rbt.Executable>
rbdock ($Id: //depot/dev/client3/rdock/2013.1/src/exe/rbdock.cxx#4 $)

>  <Rbt.Library>
libRbt.so (2013.1, Build901 2013/11/27)

>  <Rbt.Parameter_File>
/export/apps/rDock/src/rDock_2013.1_src/data/scripts/dock_solv.prm

>  <Rbt.Receptor>
prm/blind_docking_60.prm

>  <SCORE>
55.5273

>  <SCORE.INTER>
35.1032

>  <SCORE.INTER.CONST>
1

>  <SCORE.INTER.POLAR>
0

>  <SCORE.INTER.ROT>
6

>  <SCORE.INTER.SOLV>
28.551

>  <SCORE.INTER.VDW>
6.28512

>  <SCORE.INTER.norm>
1.13236

>  <SCORE.INTRA>
3.49594

>  <SCORE.INTRA.DIHEDRAL>
-0.872773

>  <SCORE.INTRA.DIHEDRAL.0>
11.2357

>  <SCORE.INTRA.POLAR>
0

>  <SCORE.INTRA.POLAR.0>
0

>  <SCORE.INTRA.REPUL>
0

>  <SCORE.INTRA.REPUL.0>
0

>  <SCORE.INTRA.SOLV>
-0.620507

>  <SCORE.INTRA.SOLV.lig_0>
-83.3092

>  <SCORE.INTRA.VDW>
4.24258

>  <SCORE.INTRA.VDW.0>
-4.47057

>  <SCORE.INTRA.norm>
0.112772

>  <SCORE.RESTR>
16.9281

>  <SCORE.RESTR.CAVITY>
16.9281

>  <SCORE.RESTR.norm>
0.546069

>  <SCORE.SYSTEM>
0

>  <SCORE.SYSTEM.CONST>
0

>  <SCORE.SYSTEM.DIHEDRAL>
0

>  <SCORE.SYSTEM.SOLV>
0

>  <SCORE.SYSTEM.norm>
0

>  <SCORE.heavy>
31

>  <SCORE.norm>
1.7912

>  <RMSD>
9.060

$$$$
ligand
 OpenBabel11021811433D
libRbt.so/2013.1/901 2013/11/27
 31 33  0  0  0  0  0  0  0  0999 V2000
   46.0536   18.3196   -2.7223 C   0  0  0  0  0  0  0  0  0  0  0  0
   41.2915   14.7484   -1.2981 N   0  0  0  0  0  0  0  0  0  0  0  0
   44.8743   17.5021   -2.7443 O   0  0  0  0  0  0  0  0  0  0  0  0
   47.1724   17.3593   -2.3270 C   0  0  1  0  0  0  0  0  0  0  0  0
   43.0744   19.4796   -0.8921 N   0  0  0  0  0  0  0  0  0  0  0  0
   47.2712   17.0731   -0.8396 O   0  0  0  0  0  0  0  0  0  0  0  0
   46.8320   15.8171   -0.4908 C   0  0  1  0  0  0  0  0  0  0  0  0
   45.6080   22.6510    3.5920 N   0  0  0  0  0  0  0  0  0  0  0  0
   45.9299   15.7106    0.5752 O   0  0  0  0  0  0  0  0  0  0  0  0
   44.5185   16.2205    0.5138 C   0  0  2  0  0  0  0  0  0  0  0  0
   42.9974   17.4522    2.2746 N   0  0  0  0  0  0  0  0  0  0  0  0
   43.6895   13.8858    0.2826 O   0  0  0  0  0  0  0  0  0  0  0  0
   43.6771   15.2245   -0.3380 C   0  0  1  0  0  0  0  0  0  0  0  0
   45.1990   18.5352    0.6138 O   0  0  0  0  0  0  0  0  0  0  0  0
   42.1535   15.7337   -0.4486 C   0  0  1  0  0  0  0  0  0  0  0  0
   45.6782   20.0934    2.3481 O   0  0  0  0  0  0  0  0  0  0  0  0
   42.1740   17.1757   -1.1198 C   0  0  0  0  0  0  0  0  0  0  0  0
   42.7528   22.3332    1.8037 O   0  0  0  0  0  0  0  0  0  0  0  0
   43.0694   18.1336   -0.2291 C   0  0  1  0  0  0  0  0  0  0  0  0
   41.4173   19.9234    2.5544 O   0  0  0  0  0  0  0  0  0  0  0  0
   44.4866   17.6596   -0.1697 C   0  0  2  0  0  0  0  0  0  0  0  0
   46.5349   13.8035   -1.7344 O   0  0  0  0  0  0  0  0  0  0  0  0
   45.0899   18.7429    2.0455 C   0  0  1  0  0  0  0  0  0  0  0  0
   48.4656   15.3457   -2.9818 O   0  0  0  0  0  0  0  0  0  0  0  0
   44.9302   21.2851    1.7659 C   0  0  2  0  0  0  0  0  0  0  0  0
   45.6557   22.5756    2.1290 C   0  0  0  0  0  0  0  0  0  0  0  0
   43.4901   21.2620    2.3283 C   0  0  2  0  0  0  0  0  0  0  0  0
   42.8000   19.9505    1.9924 C   0  0  1  0  0  0  0  0  0  0  0  0
   43.6338   18.7945    2.5753 C   0  0  1  0  0  0  0  0  0  0  0  0
   46.3601   15.1732   -1.7844 C   0  0  2  0  0  0  0  0  0  0  0  0
   47.1371   15.9389   -2.9030 C   0  0  1  0  0  0  0  0  0  0  0  0
  1  3  1  0  0  0  0
  4  1  1  1  0  0  0
  4  6  1  0  0  0  0
  4 31  1  0  0  0  0
  6  7  1  0  0  0  0
  7  9  1  1  0  0  0
  7 30  1  0  0  0  0
  8 26  1  0  0  0  0
 10  9  1  6  0  0  0
 10 13  1  0  0  0  0
 10 21  1  0  0  0  0
 13 12  1  1  0  0  0
 13 15  1  0  0  0  0
 15  2  1  6  0  0  0
 15 17  1  0  0  0  0
 16 25  1  0  0  0  0
 16 23  1  0  0  0  0
 17 19  1  0  0  0  0
 19  5  1  6  0  0  0
 19 21  1  0  0  0  0
 21 14  1  1  0  0  0
 23 14  1  6  0  0  0
 23 29  1  0  0  0  0
 25 26  1  1  0  0  0
 25 27  1  0  0  0  0
 27 18  1  6  0  0  0
 27 28  1  0  0  0  0
 28 20  1  1  0  0  0
 28 29  1  0  0  0  0
 29 11  1  6  0  0  0
 30 22  1  1  0  0  0
 30 31  1  0  0  0  0
 31 24  1  1  0  0  0
M  END
>  <CHROM.1>
-80.63830005,67.98080631,76.06771016,-159.84679062,-49.04888799,-62.77087989
44.66928510,17.85421268,0.13274206,-1.26807647,0.34569254,0.50623473

>  <Name>
ligand

>  <RI>
0

>  <Rbt.Current_Directory>
/home/itssahil/PROJECTS/Mol_Feturizer/New_Systems/rnas/2ET5

>  <Rbt.Executable>
rbdock ($Id: //depot/dev/client3/rdock/2013.1/src/exe/rbdock.cxx#4 $)

>  <Rbt.Library>
libRbt.so (2013.1, Build901 2013/11/27)

>  <Rbt.Parameter_File>
/export/apps/rDock/src/rDock_2013.1_src/data/scripts/dock_solv.prm

>  <Rbt.Receptor>
prm/blind_docking_60.prm

>  <SCORE>
27.2119

>  <SCORE.INTER>
1.5718

>  <SCORE.INTER.CONST>
1

>  <SCORE.INTER.POLAR>
0

>  <SCORE.INTER.ROT>
6

>  <SCORE.INTER.SOLV>
23.8274

>  <SCORE.INTER.VDW>
-14.4946

>  <SCORE.INTER.norm>
0.0507031

>  <SCORE.INTRA>
7.01862

>  <SCORE.INTRA.DIHEDRAL>
-5.78992

>  <SCORE.INTRA.DIHEDRAL.0>
11.2357

>  <SCORE.INTRA.POLAR>
0

>  <SCORE.INTRA.POLAR.0>
0

>  <SCORE.INTRA.REPUL>
0

>  <SCORE.INTRA.REPUL.0>
0

>  <SCORE.INTRA.SOLV>
10.0095

>  <SCORE.INTRA.SOLV.lig_0>
-83.3092

>  <SCORE.INTRA.VDW>
4.90883

>  <SCORE.INTRA.VDW.0>
-4.47057

>  <SCORE.INTRA.norm>
0.226407

>  <SCORE.RESTR>
18.6215

>  <SCORE.RESTR.CAVITY>
18.6215

>  <SCORE.RESTR.norm>
0.600693

>  <SCORE.SYSTEM>
0

>  <SCORE.SYSTEM.CONST>
0

>  <SCORE.SYSTEM.DIHEDRAL>
0

>  <SCORE.SYSTEM.SOLV>
0

>  <SCORE.SYSTEM.norm>
0

>  <SCORE.heavy>
31

>  <SCORE.norm>
0.877804

>  <RMSD>
9.069

$$$$
ligand
 OpenBabel11021811433D
libRbt.so/2013.1/901 2013/11/27
 31 33  0  0  0  0  0  0  0  0999 V2000
   44.2429   16.0341   -4.2313 C   0  0  0  0  0  0  0  0  0  0  0  0
   42.7820   13.9355   -1.2755 N   0  0  0  0  0  0  0  0  0  0  0  0
   44.6619   14.8568   -3.5256 O   0  0  0  0  0  0  0  0  0  0  0  0
   45.5013   16.8942   -4.3131 C   0  0  1  0  0  0  0  0  0  0  0  0
   41.5308   18.7682   -0.3767 N   0  0  0  0  0  0  0  0  0  0  0  0
   45.6634   17.8960   -3.1843 O   0  0  0  0  0  0  0  0  0  0  0  0
   46.6371   17.5491   -2.2767 C   0  0  1  0  0  0  0  0  0  0  0  0
   46.0036   16.6119    2.9648 N   0  0  0  0  0  0  0  0  0  0  0  0
   46.3099   17.5925   -0.9156 O   0  0  0  0  0  0  0  0  0  0  0  0
   44.9917   17.1231   -0.3700 C   0  0  2  0  0  0  0  0  0  0  0  0
   43.5987   22.1636    0.8156 N   0  0  0  0  0  0  0  0  0  0  0  0
   45.6324   14.7689   -0.8588 O   0  0  0  0  0  0  0  0  0  0  0  0
   44.6057   15.8015   -1.0979 C   0  0  1  0  0  0  0  0  0  0  0  0
   44.2024   19.3671    0.0452 O   0  0  0  0  0  0  0  0  0  0  0  0
   43.1877   15.2613   -0.5592 C   0  0  1  0  0  0  0  0  0  0  0  0
   44.4557   18.8357    2.3514 O   0  0  0  0  0  0  0  0  0  0  0  0
   42.1048   16.3943   -0.8307 C   0  0  0  0  0  0  0  0  0  0  0  0
   47.7396   20.5132    2.8734 O   0  0  0  0  0  0  0  0  0  0  0  0
   42.5669   17.7201   -0.0949 C   0  0  1  0  0  0  0  0  0  0  0  0
   46.1110   22.7691    2.2310 O   0  0  0  0  0  0  0  0  0  0  0  0
   43.8680   18.2213   -0.6356 C   0  0  2  0  0  0  0  0  0  0  0  0
   48.5138   16.0819   -2.3983 O   0  0  0  0  0  0  0  0  0  0  0  0
   43.7882   19.7665    1.3770 C   0  0  1  0  0  0  0  0  0  0  0  0
   47.8981   16.9562   -4.9514 O   0  0  0  0  0  0  0  0  0  0  0  0
   45.9742   18.9269    2.4176 C   0  0  2  0  0  0  0  0  0  0  0  0
   46.5077   17.9105    3.4205 C   0  0  0  0  0  0  0  0  0  0  0  0
   46.3455   20.3733    2.8183 C   0  0  2  0  0  0  0  0  0  0  0  0
   45.7681   21.3727    1.8298 C   0  0  1  0  0  0  0  0  0  0  0  0
   44.2394   21.1921    1.7866 C   0  0  1  0  0  0  0  0  0  0  0  0
   47.1847   16.2133   -2.7524 C   0  0  2  0  0  0  0  0  0  0  0  0
   46.8600   16.1847   -4.2805 C   0  0  1  0  0  0  0  0  0  0  0  0
  1  3  1  0  0  0  0
  4  1  1  1  0  0  0
  4  6  1  0  0  0  0
  4 31  1  0  0  0  0
  6  7  1  0  0  0  0
  7  9  1  1  0  0  0
  7 30  1  0  0  0  0
  8 26  1  0  0  0  0
 10  9  1  6  0  0  0
 10 13  1  0  0  0  0
 10 21  1  0  0  0  0
 13 12  1  1  0  0  0
 13 15  1  0  0  0  0
 15  2  1  6  0  0  0
 15 17  1  0  0  0  0
 16 25  1  0  0  0  0
 16 23  1  0  0  0  0
 17 19  1  0  0  0  0
 19  5  1  6  0  0  0
 19 21  1  0  0  0  0
 21 14  1  1  0  0  0
 23 14  1  6  0  0  0
 23 29  1  0  0  0  0
 25 26  1  1  0  0  0
 25 27  1  0  0  0  0
 27 18  1  6  0  0  0
 27 28  1  0  0  0  0
 28 20  1  1  0  0  0
 28 29  1  0  0  0  0
 29 11  1  6  0  0  0
 30 22  1  6  0  0  0
 30 31  1  0  0  0  0
 31 24  1  6  0  0  0
M  END
>  <CHROM.1>
-92.63228264,40.79453608,41.56137568,68.97027385,-93.14230320,56.61314064
45.18953616,17.87139106,-0.46920014,1.54033307,-0.33884475,-2.29126627

>  <Name>
ligand

>  <RI>
0

>  <Rbt.Current_Directory>
/home/itssahil/PROJECTS/Mol_Feturizer/New_Systems/rnas/2ET5

>  <Rbt.Executable>
rbdock ($Id: //depot/dev/client3/rdock/2013.1/src/exe/rbdock.cxx#4 $)

>  <Rbt.Library>
libRbt.so (2013.1, Build901 2013/11/27)

>  <Rbt.Parameter_File>
/export/apps/rDock/src/rDock_2013.1_src/data/scripts/dock_solv.prm

>  <Rbt.Receptor>
prm/blind_docking_60.prm

>  <SCORE>
24.488

>  <SCORE.INTER>
5.86244

>  <SCORE.INTER.CONST>
1

>  <SCORE.INTER.POLAR>
0

>  <SCORE.INTER.ROT>
6

>  <SCORE.INTER.SOLV>
26.0692

>  <SCORE.INTER.VDW>
-12.3814

>  <SCORE.INTER.norm>
0.189111

>  <SCORE.INTRA>
3.50299

>  <SCORE.INTRA.DIHEDRAL>
-0.31528

>  <SCORE.INTRA.DIHEDRAL.0>
11.2357

>  <SCORE.INTRA.POLAR>
0

>  <SCORE.INTRA.POLAR.0>
0

>  <SCORE.INTRA.REPUL>
0

>  <SCORE.INTRA.REPUL.0>
0

>  <SCORE.INTRA.SOLV>
1.89785

>  <SCORE.INTRA.SOLV.lig_0>
-83.3092

>  <SCORE.INTRA.VDW>
2.71171

>  <SCORE.INTRA.VDW.0>
-4.47057

>  <SCORE.INTRA.norm>
0.113

>  <SCORE.RESTR>
15.1226

>  <SCORE.RESTR.CAVITY>
15.1226

>  <SCORE.RESTR.norm>
0.487825

>  <SCORE.SYSTEM>
0

>  <SCORE.SYSTEM.CONST>
0

>  <SCORE.SYSTEM.DIHEDRAL>
0

>  <SCORE.SYSTEM.SOLV>
0

>  <SCORE.SYSTEM.norm>
0

>  <SCORE.heavy>
31

>  <SCORE.norm>
0.789936

>  <RMSD>
9.069

$$$$
ligand
 OpenBabel11021811433D
libRbt.so/2013.1/901 2013/11/27
 31 33  0  0  0  0  0  0  0  0999 V2000
   46.0654   17.0161   -5.7435 C   0  0  0  0  0  0  0  0  0  0  0  0
   41.9014   13.7670   -0.5662 N   0  0  0  0  0  0  0  0  0  0  0  0
   44.8794   16.4560   -5.1609 O   0  0  0  0  0  0  0  0  0  0  0  0
   46.9847   17.2770   -4.5532 C   0  0  1  0  0  0  0  0  0  0  0  0
   41.6826   18.1100    2.0452 N   0  0  0  0  0  0  0  0  0  0  0  0
   46.4063   18.1926   -3.4895 O   0  0  0  0  0  0  0  0  0  0  0  0
   46.0333   17.5343   -2.3408 C   0  0  1  0  0  0  0  0  0  0  0  0
   46.2505   16.5611    3.5067 N   0  0  0  0  0  0  0  0  0  0  0  0
   44.7588   17.7932   -1.8212 O   0  0  0  0  0  0  0  0  0  0  0  0
   44.1724   17.0377   -0.6631 C   0  0  2  0  0  0  0  0  0  0  0  0
   43.5869   21.9352    1.1207 N   0  0  0  0  0  0  0  0  0  0  0  0
   44.2665   14.9361   -1.9920 O   0  0  0  0  0  0  0  0  0  0  0  0
   43.3723   15.8261   -1.2266 C   0  0  1  0  0  0  0  0  0  0  0  0
   43.9183   19.0229    0.6879 O   0  0  0  0  0  0  0  0  0  0  0  0
   42.7078   14.9878   -0.0231 C   0  0  1  0  0  0  0  0  0  0  0  0
   44.5905   18.8089    2.9611 O   0  0  0  0  0  0  0  0  0  0  0  0
   41.7520   15.9727    0.7810 C   0  0  0  0  0  0  0  0  0  0  0  0
   47.9778   20.3155    2.6047 O   0  0  0  0  0  0  0  0  0  0  0  0
   42.6128   17.1985    1.2999 C   0  0  1  0  0  0  0  0  0  0  0  0
   46.3473   22.5629    1.9378 O   0  0  0  0  0  0  0  0  0  0  0  0
   43.1906   17.9815    0.1643 C   0  0  2  0  0  0  0  0  0  0  0  0
   46.6427   15.4217   -1.4159 O   0  0  0  0  0  0  0  0  0  0  0  0
   43.7852   19.6350    1.9965 C   0  0  1  0  0  0  0  0  0  0  0  0
   48.6988   16.3100   -3.0424 O   0  0  0  0  0  0  0  0  0  0  0  0
   46.0956   18.8047    2.7307 C   0  0  2  0  0  0  0  0  0  0  0  0
   46.7716   17.9073    3.7609 C   0  0  0  0  0  0  0  0  0  0  0  0
   46.5948   20.2647    2.8303 C   0  0  2  0  0  0  0  0  0  0  0  0
   45.8778   21.1504    1.8249 C   0  0  1  0  0  0  0  0  0  0  0  0
   44.3636   21.0702    2.0932 C   0  0  1  0  0  0  0  0  0  0  0  0
   46.3243   16.0645   -2.5969 C   0  0  2  0  0  0  0  0  0  0  0  0
   47.4236   16.0761   -3.7073 C   0  0  1  0  0  0  0  0  0  0  0  0
  1  3  1  0  0  0  0
  4  1  1  6  0  0  0
  4  6  1  0  0  0  0
  4 31  1  0  0  0  0
  6  7  1  0  0  0  0
  7  9  1  6  0  0  0
  7 30  1  0  0  0  0
  8 26  1  0  0  0  0
 10  9  1  6  0  0  0
 10 13  1  0  0  0  0
 10 21  1  0  0  0  0
 13 12  1  1  0  0  0
 13 15  1  0  0  0  0
 15  2  1  6  0  0  0
 15 17  1  0  0  0  0
 16 25  1  0  0  0  0
 16 23  1  0  0  0  0
 17 19  1  0  0  0  0
 19  5  1  6  0  0  0
 19 21  1  0  0  0  0
 21 14  1  1  0  0  0
 23 14  1  6  0  0  0
 23 29  1  0  0  0  0
 25 26  1  1  0  0  0
 25 27  1  0  0  0  0
 27 18  1  6  0  0  0
 27 28  1  0  0  0  0
 28 20  1  1  0  0  0
 28 29  1  0  0  0  0
 29 11  1  6  0  0  0
 30 22  1  1  0  0  0
 30 31  1  0  0  0  0
 31 24  1  1  0  0  0
M  END
>  <CHROM.1>
-57.83362999,173.24967819,-91.28594709,84.55838661,-140.65427976,62.96615043
45.07236328,17.81057785,-0.22543407,-1.47464050,0.62922924,0.95276954

>  <Name>
ligand

>  <RI>
0

>  <Rbt.Current_Directory>
/home/itssahil/PROJECTS/Mol_Feturizer/New_Systems/rnas/2ET5

>  <Rbt.Executable>
rbdock ($Id: //depot/dev/client3/rdock/2013.1/src/exe/rbdock.cxx#4 $)

>  <Rbt.Library>
libRbt.so (2013.1, Build901 2013/11/27)

>  <Rbt.Parameter_File>
/export/apps/rDock/src/rDock_2013.1_src/data/scripts/dock_solv.prm

>  <Rbt.Receptor>
prm/blind_docking_60.prm

>  <SCORE>
25.2152

>  <SCORE.INTER>
2.01667

>  <SCORE.INTER.CONST>
1

>  <SCORE.INTER.POLAR>
0

>  <SCORE.INTER.ROT>
6

>  <SCORE.INTER.SOLV>
27.4115

>  <SCORE.INTER.VDW>
-15.3927

>  <SCORE.INTER.norm>
0.0650538

>  <SCORE.INTRA>
7.39345

>  <SCORE.INTRA.DIHEDRAL>
0.850717

>  <SCORE.INTRA.DIHEDRAL.0>
11.2357

>  <SCORE.INTRA.POLAR>
0

>  <SCORE.INTRA.POLAR.0>
0

>  <SCORE.INTRA.REPUL>
0

>  <SCORE.INTRA.REPUL.0>
0

>  <SCORE.INTRA.SOLV>
-0.777587

>  <SCORE.INTRA.SOLV.lig_0>
-83.3092

>  <SCORE.INTRA.VDW>
7.35688

>  <SCORE.INTRA.VDW.0>
-4.47057

>  <SCORE.INTRA.norm>
0.238498

>  <SCORE.RESTR>
15.8051

>  <SCORE.RESTR.CAVITY>
15.8051

>  <SCORE.RESTR.norm>
0.509841

>  <SCORE.SYSTEM>
0

>  <SCORE.SYSTEM.CONST>
0

>  <SCORE.SYSTEM.DIHEDRAL>
0

>  <SCORE.SYSTEM.SOLV>
0

>  <SCORE.SYSTEM.norm>
0

>  <SCORE.heavy>
31

>  <SCORE.norm>
0.813393

>  <RMSD>
9.098

$$$$
ligand
 OpenBabel11021811433D
libRbt.so/2013.1/901 2013/11/27
 31 33  0  0  0  0  0  0  0  0999 V2000
   44.6813   15.0872   -4.1725 C   0  0  0  0  0  0  0  0  0  0  0  0
   42.1192   14.0073   -1.2726 N   0  0  0  0  0  0  0  0  0  0  0  0
   43.3418   15.5933   -4.0771 O   0  0  0  0  0  0  0  0  0  0  0  0
   45.5562   16.3374   -4.2126 C   0  0  1  0  0  0  0  0  0  0  0  0
   41.5385   18.9552   -0.3191 N   0  0  0  0  0  0  0  0  0  0  0  0
   45.3722   17.2824   -3.0391 O   0  0  0  0  0  0  0  0  0  0  0  0
   46.4184   17.2609   -2.1463 C   0  0  1  0  0  0  0  0  0  0  0  0
   46.2809   16.3582    2.8764 N   0  0  0  0  0  0  0  0  0  0  0  0
   46.1162   17.1277   -0.7853 O   0  0  0  0  0  0  0  0  0  0  0  0
   44.7338   16.8407   -0.2728 C   0  0  2  0  0  0  0  0  0  0  0  0
   43.7232   21.9423    1.0541 N   0  0  0  0  0  0  0  0  0  0  0  0
   45.0487   14.4267   -0.7877 O   0  0  0  0  0  0  0  0  0  0  0  0
   44.1821   15.5963   -1.0296 C   0  0  1  0  0  0  0  0  0  0  0  0
   44.2580   19.1675    0.1638 O   0  0  0  0  0  0  0  0  0  0  0  0
   42.6913   15.2533   -0.5270 C   0  0  1  0  0  0  0  0  0  0  0  0
   44.7253   18.5822    2.4230 O   0  0  0  0  0  0  0  0  0  0  0  0
   41.7838   16.5306   -0.8007 C   0  0  0  0  0  0  0  0  0  0  0  0
   48.0404   20.2602    2.6784 O   0  0  0  0  0  0  0  0  0  0  0  0
   42.4113   17.7683   -0.0346 C   0  0  1  0  0  0  0  0  0  0  0  0
   46.3550   22.5241    2.2445 O   0  0  0  0  0  0  0  0  0  0  0  0
   43.7810   18.0892   -0.5420 C   0  0  2  0  0  0  0  0  0  0  0  0
   48.6889   16.5537   -2.3309 O   0  0  0  0  0  0  0  0  0  0  0  0
   43.9685   19.5333    1.5375 C   0  0  1  0  0  0  0  0  0  0  0  0
   47.7692   17.2655   -4.8428 O   0  0  0  0  0  0  0  0  0  0  0  0
   46.2432   18.6780    2.3503 C   0  0  2  0  0  0  0  0  0  0  0  0
   46.8694   17.6402    3.2745 C   0  0  0  0  0  0  0  0  0  0  0  0
   46.6475   20.1160    2.7495 C   0  0  2  0  0  0  0  0  0  0  0  0
   45.9789   21.1363    1.8433 C   0  0  1  0  0  0  0  0  0  0  0  0
   44.4531   20.9505    1.9378 C   0  0  1  0  0  0  0  0  0  0  0  0
   47.3934   16.2247   -2.6812 C   0  0  2  0  0  0  0  0  0  0  0  0
   47.0778   16.1500   -4.2096 C   0  0  1  0  0  0  0  0  0  0  0  0
  1  3  1  0  0  0  0
  4  1  1  1  0  0  0
  4  6  1  0  0  0  0
  4 31  1  0  0  0  0
  6  7  1  0  0  0  0
  7  9  1  1  0  0  0
  7 30  1  0  0  0  0
  8 26  1  0  0  0  0
 10  9  1  6  0  0  0
 10 13  1  0  0  0  0
 10 21  1  0  0  0  0
 13 12  1  1  0  0  0
 13 15  1  0  0  0  0
 15  2  1  6  0  0  0
 15 17  1  0  0  0  0
 16 25  1  0  0  0  0
 16 23  1  0  0  0  0
 17 19  1  0  0  0  0
 19  5  1  6  0  0  0
 19 21  1  0  0  0  0
 21 14  1  1  0  0  0
 23 14  1  6  0  0  0
 23 29  1  0  0  0  0
 25 26  1  1  0  0  0
 25 27  1  0  0  0  0
 27 18  1  6  0  0  0
 27 28  1  0  0  0  0
 28 20  1  1  0  0  0
 28 29  1  0  0  0  0
 29 11  1  6  0  0  0
 30 22  1  6  0  0  0
 30 31  1  0  0  0  0
 31 24  1  6  0  0  0
M  END
>  <CHROM.1>
56.26410559,7.72130107,51.78380358,74.42123754,-86.92105246,54.09771635,45.14377160
17.72025864,-0.43803301,-1.65235010,0.26355206,0.89357919

>  <Name>
ligand

>  <RI>
0

>  <Rbt.Current_Directory>
/home/itssahil/PROJECTS/Mol_Feturizer/New_Systems/rnas/2ET5

>  <Rbt.Executable>
rbdock ($Id: //depot/dev/client3/rdock/2013.1/src/exe/rbdock.cxx#4 $)

>  <Rbt.Library>
libRbt.so (2013.1, Build901 2013/11/27)

>  <Rbt.Parameter_File>
/export/apps/rDock/src/rDock_2013.1_src/data/scripts/dock_solv.prm

>  <Rbt.Receptor>
prm/blind_docking_60.prm

>  <SCORE>
30.465

>  <SCORE.INTER>
12.2053

>  <SCORE.INTER.CONST>
1

>  <SCORE.INTER.POLAR>
0

>  <SCORE.INTER.ROT>
6

>  <SCORE.INTER.SOLV>
24.9381

>  <SCORE.INTER.VDW>
-7.77582

>  <SCORE.INTER.norm>
0.393719

>  <SCORE.INTRA>
1.12491

>  <SCORE.INTRA.DIHEDRAL>
0.121166

>  <SCORE.INTRA.DIHEDRAL.0>
11.2357

>  <SCORE.INTRA.POLAR>
0

>  <SCORE.INTRA.POLAR.0>
0

>  <SCORE.INTRA.REPUL>
0

>  <SCORE.INTRA.REPUL.0>
0

>  <SCORE.INTRA.SOLV>
0.707435

>  <SCORE.INTRA.SOLV.lig_0>
-83.3092

>  <SCORE.INTRA.VDW>
0.710605

>  <SCORE.INTRA.VDW.0>
-4.47057

>  <SCORE.INTRA.norm>
0.0362873

>  <SCORE.RESTR>
17.1348

>  <SCORE.RESTR.CAVITY>
17.1348

>  <SCORE.RESTR.norm>
0.552737

>  <SCORE.SYSTEM>
0

>  <SCORE.SYSTEM.CONST>
0

>  <SCORE.SYSTEM.DIHEDRAL>
0

>  <SCORE.SYSTEM.SOLV>
0

>  <SCORE.SYSTEM.norm>
0

>  <SCORE.heavy>
31

>  <SCORE.norm>
0.982743

>  <RMSD>
9.100

$$$$
ligand
 OpenBabel11021811433D
libRbt.so/2013.1/901 2013/11/27
 31 33  0  0  0  0  0  0  0  0999 V2000
   40.7885   28.7437   -2.2090 C   0  0  0  0  0  0  0  0  0  0  0  0
   43.2682   25.7550    2.7062 N   0  0  0  0  0  0  0  0  0  0  0  0
   41.6868   27.6360   -2.0490 O   0  0  0  0  0  0  0  0  0  0  0  0
   39.5430   28.3369   -1.4258 C   0  0  1  0  0  0  0  0  0  0  0  0
   39.1988   26.5747    5.6212 N   0  0  0  0  0  0  0  0  0  0  0  0
   39.7697   28.1049    0.0570 O   0  0  0  0  0  0  0  0  0  0  0  0
   39.2602   29.1034    0.8542 C   0  0  1  0  0  0  0  0  0  0  0  0
   35.7465   27.0900    1.9179 N   0  0  0  0  0  0  0  0  0  0  0  0
   40.0939   29.6441    1.8410 O   0  0  0  0  0  0  0  0  0  0  0  0
   40.7334   28.8197    2.9214 C   0  0  2  0  0  0  0  0  0  0  0  0
   38.3594   31.6563    5.7064 N   0  0  0  0  0  0  0  0  0  0  0  0
   42.6954   28.4150    1.4454 O   0  0  0  0  0  0  0  0  0  0  0  0
   41.6462   27.7541    2.2455 C   0  0  1  0  0  0  0  0  0  0  0  0
   38.8414   29.0382    4.4058 O   0  0  0  0  0  0  0  0  0  0  0  0
   42.3469   26.8301    3.3626 C   0  0  1  0  0  0  0  0  0  0  0  0
   37.0361   29.4949    2.9234 O   0  0  0  0  0  0  0  0  0  0  0  0
   41.1923   26.1334    4.2063 C   0  0  0  0  0  0  0  0  0  0  0  0
   34.2684   28.9639    5.3584 O   0  0  0  0  0  0  0  0  0  0  0  0
   40.2795   27.2634    4.8407 C   0  0  1  0  0  0  0  0  0  0  0  0
   35.5717   31.2084    6.5491 O   0  0  0  0  0  0  0  0  0  0  0  0
   39.6128   28.0858    3.7844 C   0  0  2  0  0  0  0  0  0  0  0  0
   37.5957   30.7729    0.4912 O   0  0  0  0  0  0  0  0  0  0  0  0
   38.0927   30.1190    3.7926 C   0  0  1  0  0  0  0  0  0  0  0  0
   37.0909   28.6303   -1.1870 O   0  0  0  0  0  0  0  0  0  0  0  0
   35.9631   28.7004    3.6555 C   0  0  2  0  0  0  0  0  0  0  0  0
   34.9847   28.1070    2.6485 C   0  0  0  0  0  0  0  0  0  0  0  0
   35.2558   29.6567    4.6433 C   0  0  2  0  0  0  0  0  0  0  0  0
   36.2547   30.2700    5.6103 C   0  0  1  0  0  0  0  0  0  0  0  0
   37.3278   31.0181    4.7976 C   0  0  1  0  0  0  0  0  0  0  0  0
   38.6645   30.1263   -0.0994 C   0  0  2  0  0  0  0  0  0  0  0  0
   38.3609   29.3127   -1.3983 C   0  0  1  0  0  0  0  0  0  0  0  0
  1  3  1  0  0  0  0
  4  1  1  1  0  0  0
  4  6  1  0  0  0  0
  4 31  1  0  0  0  0
  6  7  1  0  0  0  0
  7  9  1  6  0  0  0
  7 30  1  0  0  0  0
  8 26  1  0  0  0  0
 10  9  1  6  0  0  0
 10 13  1  0  0  0  0
 10 21  1  0  0  0  0
 13 12  1  1  0  0  0
 13 15  1  0  0  0  0
 15  2  1  6  0  0  0
 15 17  1  0  0  0  0
 16 25  1  0  0  0  0
 16 23  1  0  0  0  0
 17 19  1  0  0  0  0
 19  5  1  1  0  0  0
 19 21  1  0  0  0  0
 21 14  1  1  0  0  0
 23 14  1  1  0  0  0
 23 29  1  0  0  0  0
 25 26  1  6  0  0  0
 25 27  1  0  0  0  0
 27 18  1  1  0  0  0
 27 28  1  0  0  0  0
 28 20  1  1  0  0  0
 28 29  1  0  0  0  0
 29 11  1  1  0  0  0
 30 22  1  1  0  0  0
 30 31  1  0  0  0  0
 31 24  1  1  0  0  0
M  END
>  <CHROM.1>
61.13358515,-57.59434322,60.37125151,63.35159921,57.06078353,68.42758166
38.74414254,28.76697656,2.48716055,0.73337546,0.40521382,-1.50805327

>  <Name>
ligand

>  <RI>
0

>  <Rbt.Current_Directory>
/home/itssahil/PROJECTS/Mol_Feturizer/New_Systems/rnas/2ET5

>  <Rbt.Executable>
rbdock ($Id: //depot/dev/client3/rdock/2013.1/src/exe/rbdock.cxx#4 $)

>  <Rbt.Library>
libRbt.so (2013.1, Build901 2013/11/27)

>  <Rbt.Parameter_File>
/export/apps/rDock/src/rDock_2013.1_src/data/scripts/dock_solv.prm

>  <Rbt.Receptor>
prm/pocket_docking_7.prm

>  <SCORE>
-7.23197

>  <SCORE.INTER>
-0.885324

>  <SCORE.INTER.CONST>
1

>  <SCORE.INTER.POLAR>
0

>  <SCORE.INTER.ROT>
6

>  <SCORE.INTER.SOLV>
6.54295

>  <SCORE.INTER.VDW>
-10.3712

>  <SCORE.INTER.norm>
-0.0285589

>  <SCORE.INTRA>
-6.34665

>  <SCORE.INTRA.DIHEDRAL>
-10.7085

>  <SCORE.INTRA.DIHEDRAL.0>
11.2357

>  <SCORE.INTRA.POLAR>
0

>  <SCORE.INTRA.POLAR.0>
0

>  <SCORE.INTRA.REPUL>
0

>  <SCORE.INTRA.REPUL.0>
0

>  <SCORE.INTRA.SOLV>
-2.73025

>  <SCORE.INTRA.SOLV.lig_0>
-83.3092

>  <SCORE.INTRA.VDW>
0.372709

>  <SCORE.INTRA.VDW.0>
-4.47057

>  <SCORE.INTRA.norm>
-0.204731

>  <SCORE.RESTR>
0

>  <SCORE.RESTR.CAVITY>
0

>  <SCORE.RESTR.norm>
0

>  <SCORE.SYSTEM>
0

>  <SCORE.SYSTEM.CONST>
0

>  <SCORE.SYSTEM.DIHEDRAL>
0

>  <SCORE.SYSTEM.SOLV>
0

>  <SCORE.SYSTEM.norm>
0

>  <SCORE.heavy>
31

>  <SCORE.norm>
-0.233289

>  <RMSD>
9.105

$$$$
ligand
 OpenBabel11021811433D
libRbt.so/2013.1/901 2013/11/27
 31 33  0  0  0  0  0  0  0  0999 V2000
   37.9858   27.6095   -2.2066 C   0  0  0  0  0  0  0  0  0  0  0  0
   38.8944   32.1388    5.5013 N   0  0  0  0  0  0  0  0  0  0  0  0
   36.6504   28.1191   -2.3356 O   0  0  0  0  0  0  0  0  0  0  0  0
   38.7820   28.7767   -1.6290 C   0  0  1  0  0  0  0  0  0  0  0  0
   35.0128   28.8815    5.7285 N   0  0  0  0  0  0  0  0  0  0  0  0
   38.1755   29.4115   -0.3907 O   0  0  0  0  0  0  0  0  0  0  0  0
   38.8497   29.1081    0.7692 C   0  0  1  0  0  0  0  0  0  0  0  0
   38.7299   25.2705    4.1397 N   0  0  0  0  0  0  0  0  0  0  0  0
   38.1008   28.6608    1.8649 O   0  0  0  0  0  0  0  0  0  0  0  0
   37.4125   29.5876    2.8256 C   0  0  2  0  0  0  0  0  0  0  0  0
   33.3114   27.3176    1.3115 N   0  0  0  0  0  0  0  0  0  0  0  0
   39.3529   31.1410    2.7107 O   0  0  0  0  0  0  0  0  0  0  0  0
   38.5038   30.3564    3.6278 C   0  0  1  0  0  0  0  0  0  0  0  0
   35.5224   28.1131    3.1163 O   0  0  0  0  0  0  0  0  0  0  0  0
   37.8174   31.3565    4.6867 C   0  0  1  0  0  0  0  0  0  0  0  0
   36.7625   26.2316    2.3500 O   0  0  0  0  0  0  0  0  0  0  0  0
   36.9109   30.4825    5.6586 C   0  0  0  0  0  0  0  0  0  0  0  0
   34.8255   23.6118    4.1543 O   0  0  0  0  0  0  0  0  0  0  0  0
   35.8442   29.7001    4.7852 C   0  0  1  0  0  0  0  0  0  0  0  0
   32.8046   24.6325    2.4139 O   0  0  0  0  0  0  0  0  0  0  0  0
   36.5039   28.7530    3.8342 C   0  0  2  0  0  0  0  0  0  0  0  0
   41.0651   28.3352    1.1984 O   0  0  0  0  0  0  0  0  0  0  0  0
   35.6838   27.2150    1.9884 C   0  0  1  0  0  0  0  0  0  0  0  0
   41.0470   29.6990   -1.2103 O   0  0  0  0  0  0  0  0  0  0  0  0
   36.4382   25.2892    3.5012 C   0  0  2  0  0  0  0  0  0  0  0  0
   37.6289   24.3763    3.7702 C   0  0  0  0  0  0  0  0  0  0  0  0
   35.1770   24.4832    3.1135 C   0  0  2  0  0  0  0  0  0  0  0  0
   34.0146   25.4131    2.8078 C   0  0  1  0  0  0  0  0  0  0  0  0
   34.4312   26.3599    1.6671 C   0  0  1  0  0  0  0  0  0  0  0  0
   39.9807   28.1804    0.3561 C   0  0  2  0  0  0  0  0  0  0  0  0
   40.2142   28.5047   -1.1544 C   0  0  1  0  0  0  0  0  0  0  0  0
  1  3  1  0  0  0  0
  4  1  1  1  0  0  0
  4  6  1  0  0  0  0
  4 31  1  0  0  0  0
  6  7  1  0  0  0  0
  7  9  1  1  0  0  0
  7 30  1  0  0  0  0
  8 26  1  0  0  0  0
 10  9  1  6  0  0  0
 10 13  1  0  0  0  0
 10 21  1  0  0  0  0
 13 12  1  6  0  0  0
 13 15  1  0  0  0  0
 15  2  1  1  0  0  0
 15 17  1  0  0  0  0
 16 25  1  0  0  0  0
 16 23  1  0  0  0  0
 17 19  1  0  0  0  0
 19  5  1  1  0  0  0
 19 21  1  0  0  0  0
 21 14  1  6  0  0  0
 23 14  1  1  0  0  0
 23 29  1  0  0  0  0
 25 26  1  6  0  0  0
 25 27  1  0  0  0  0
 27 18  1  1  0  0  0
 27 28  1  0  0  0  0
 28 20  1  6  0  0  0
 28 29  1  0  0  0  0
 29 11  1  1  0  0  0
 30 22  1  1  0  0  0
 30 31  1  0  0  0  0
 31 24  1  1  0  0  0
M  END
>  <CHROM.1>
51.18293279,-83.94248807,-67.72133355,46.67440283,55.00795524,61.22313102
37.18868285,27.96013653,2.18638909,0.07250479,-0.80578458,-2.11296859

>  <Name>
ligand

>  <RI>
0

>  <Rbt.Current_Directory>
/home/itssahil/PROJECTS/Mol_Feturizer/New_Systems/rnas/2ET5

>  <Rbt.Executable>
rbdock ($Id: //depot/dev/client3/rdock/2013.1/src/exe/rbdock.cxx#4 $)

>  <Rbt.Library>
libRbt.so (2013.1, Build901 2013/11/27)

>  <Rbt.Parameter_File>
/export/apps/rDock/src/rDock_2013.1_src/data/scripts/dock_solv.prm

>  <Rbt.Receptor>
prm/pocket_docking_8.prm

>  <SCORE>
-8.34463

>  <SCORE.INTER>
-4.25924

>  <SCORE.INTER.CONST>
1

>  <SCORE.INTER.POLAR>
0

>  <SCORE.INTER.ROT>
6

>  <SCORE.INTER.SOLV>
16.5597

>  <SCORE.INTER.VDW>
-15.9594

>  <SCORE.INTER.norm>
-0.137395

>  <SCORE.INTRA>
-4.08538

>  <SCORE.INTRA.DIHEDRAL>
-7.15432

>  <SCORE.INTRA.DIHEDRAL.0>
11.2357

>  <SCORE.INTRA.POLAR>
0

>  <SCORE.INTRA.POLAR.0>
0

>  <SCORE.INTRA.REPUL>
0

>  <SCORE.INTRA.REPUL.0>
0

>  <SCORE.INTRA.SOLV>
-3.92613

>  <SCORE.INTRA.SOLV.lig_0>
-83.3092

>  <SCORE.INTRA.VDW>
1.45484

>  <SCORE.INTRA.VDW.0>
-4.47057

>  <SCORE.INTRA.norm>
-0.131787

>  <SCORE.RESTR>
0

>  <SCORE.RESTR.CAVITY>
0

>  <SCORE.RESTR.norm>
0

>  <SCORE.SYSTEM>
0

>  <SCORE.SYSTEM.CONST>
0

>  <SCORE.SYSTEM.DIHEDRAL>
0

>  <SCORE.SYSTEM.SOLV>
0

>  <SCORE.SYSTEM.norm>
0

>  <SCORE.heavy>
31

>  <SCORE.norm>
-0.269182

>  <RMSD>
9.119

$$$$
ligand
 OpenBabel11021811433D
libRbt.so/2013.1/901 2013/11/27
 31 33  0  0  0  0  0  0  0  0999 V2000
   46.0588   17.0236   -5.6166 C   0  0  0  0  0  0  0  0  0  0  0  0
   41.7924   13.6596   -0.6791 N   0  0  0  0  0  0  0  0  0  0  0  0
   44.8453   16.5094   -5.0485 O   0  0  0  0  0  0  0  0  0  0  0  0
   46.9552   17.2958   -4.4114 C   0  0  1  0  0  0  0  0  0  0  0  0
   41.5778   17.8637    2.1506 N   0  0  0  0  0  0  0  0  0  0  0  0
   46.3396   18.1859   -3.3470 O   0  0  0  0  0  0  0  0  0  0  0  0
   45.9680   17.5070   -2.2098 C   0  0  1  0  0  0  0  0  0  0  0  0
   47.0019   17.6680    4.5555 N   0  0  0  0  0  0  0  0  0  0  0  0
   44.6805   17.7285   -1.7052 O   0  0  0  0  0  0  0  0  0  0  0  0
   44.0816   16.9178   -0.5917 C   0  0  2  0  0  0  0  0  0  0  0  0
   43.3699   21.5703    1.8932 N   0  0  0  0  0  0  0  0  0  0  0  0
   44.1741   14.8868   -2.0263 O   0  0  0  0  0  0  0  0  0  0  0  0
   43.2792   15.7414   -1.2224 C   0  0  1  0  0  0  0  0  0  0  0  0
   43.8282   18.8324    0.8579 O   0  0  0  0  0  0  0  0  0  0  0  0
   42.6014   14.8462   -0.0684 C   0  0  1  0  0  0  0  0  0  0  0  0
   44.9289   18.2952    2.8987 O   0  0  0  0  0  0  0  0  0  0  0  0
   41.6450   15.7939    0.7787 C   0  0  0  0  0  0  0  0  0  0  0  0
   48.0686   20.1960    2.2664 O   0  0  0  0  0  0  0  0  0  0  0  0
   42.5085   16.9865    1.3660 C   0  0  1  0  0  0  0  0  0  0  0  0
   46.1806   22.3374    2.3328 O   0  0  0  0  0  0  0  0  0  0  0  0
   43.0989   17.8234    0.2762 C   0  0  2  0  0  0  0  0  0  0  0  0
   46.6184   15.4014   -1.2971 O   0  0  0  0  0  0  0  0  0  0  0  0
   43.8982   19.1868    2.2629 C   0  0  1  0  0  0  0  0  0  0  0  0
   48.6729   16.3575   -2.8868 O   0  0  0  0  0  0  0  0  0  0  0  0
   46.3602   18.4933    2.4185 C   0  0  2  0  0  0  0  0  0  0  0  0
   47.2818   17.5065    3.1259 C   0  0  0  0  0  0  0  0  0  0  0  0
   46.7601   19.9580    2.7106 C   0  0  2  0  0  0  0  0  0  0  0  0
   45.8039   20.9246    2.0319 C   0  0  1  0  0  0  0  0  0  0  0  0
   44.3769   20.6362    2.5340 C   0  0  1  0  0  0  0  0  0  0  0  0
   46.2997   16.0476   -2.4761 C   0  0  2  0  0  0  0  0  0  0  0  0
   47.4130   16.0980   -3.5712 C   0  0  1  0  0  0  0  0  0  0  0  0
  1  3  1  0  0  0  0
  4  1  1  6  0  0  0
  4  6  1  0  0  0  0
  4 31  1  0  0  0  0
  6  7  1  0  0  0  0
  7  9  1  6  0  0  0
  7 30  1  0  0  0  0
  8 26  1  0  0  0  0
 10  9  1  6  0  0  0
 10 13  1  0  0  0  0
 10 21  1  0  0  0  0
 13 12  1  1  0  0  0
 13 15  1  0  0  0  0
 15  2  1  6  0  0  0
 15 17  1  0  0  0  0
 16 25  1  0  0  0  0
 16 23  1  0  0  0  0
 17 19  1  0  0  0  0
 19  5  1  1  0  0  0
 19 21  1  0  0  0  0
 21 14  1  1  0  0  0
 23 14  1  6  0  0  0
 23 29  1  0  0  0  0
 25 26  1  1  0  0  0
 25 27  1  0  0  0  0
 27 18  1  6  0  0  0
 27 28  1  0  0  0  0
 28 20  1  1  0  0  0
 28 29  1  0  0  0  0
 29 11  1  6  0  0  0
 30 22  1  1  0  0  0
 30 31  1  0  0  0  0
 31 24  1  1  0  0  0
M  END
>  <CHROM.1>
-54.17878252,171.22612671,-92.64634729,84.23432378,-126.04287625,-51.68098664
45.08581557,17.69281345,-0.11975431,-1.52620971,0.52409168,1.01282623

>  <Name>
ligand

>  <RI>
0

>  <Rbt.Current_Directory>
/home/itssahil/PROJECTS/Mol_Feturizer/New_Systems/rnas/2ET5

>  <Rbt.Executable>
rbdock ($Id: //depot/dev/client3/rdock/2013.1/src/exe/rbdock.cxx#4 $)

>  <Rbt.Library>
libRbt.so (2013.1, Build901 2013/11/27)

>  <Rbt.Parameter_File>
/export/apps/rDock/src/rDock_2013.1_src/data/scripts/dock_solv.prm

>  <Rbt.Receptor>
prm/blind_docking_60.prm

>  <SCORE>
25.4193

>  <SCORE.INTER>
0.375636

>  <SCORE.INTER.CONST>
1

>  <SCORE.INTER.POLAR>
0

>  <SCORE.INTER.ROT>
6

>  <SCORE.INTER.SOLV>
27.8562

>  <SCORE.INTER.VDW>
-16.635

>  <SCORE.INTER.norm>
0.0121173

>  <SCORE.INTRA>
8.12245

>  <SCORE.INTRA.DIHEDRAL>
3.23831

>  <SCORE.INTRA.DIHEDRAL.0>
11.2357

>  <SCORE.INTRA.POLAR>
0

>  <SCORE.INTRA.POLAR.0>
0

>  <SCORE.INTRA.REPUL>
0

>  <SCORE.INTRA.REPUL.0>
0

>  <SCORE.INTRA.SOLV>
0.606771

>  <SCORE.INTRA.SOLV.lig_0>
-83.3092

>  <SCORE.INTRA.VDW>
6.19991

>  <SCORE.INTRA.VDW.0>
-4.47057

>  <SCORE.INTRA.norm>
0.262014

>  <SCORE.RESTR>
16.9212

>  <SCORE.RESTR.CAVITY>
16.9212

>  <SCORE.RESTR.norm>
0.545845

>  <SCORE.SYSTEM>
0

>  <SCORE.SYSTEM.CONST>
0

>  <SCORE.SYSTEM.DIHEDRAL>
0

>  <SCORE.SYSTEM.SOLV>
0

>  <SCORE.SYSTEM.norm>
0

>  <SCORE.heavy>
31

>  <SCORE.norm>
0.819977

>  <RMSD>
9.120

$$$$
ligand
 OpenBabel11021811433D
libRbt.so/2013.1/901 2013/11/27
 31 33  0  0  0  0  0  0  0  0999 V2000
   48.4657   14.8330   -3.4156 C   0  0  0  0  0  0  0  0  0  0  0  0
   41.1154   14.6364   -1.5539 N   0  0  0  0  0  0  0  0  0  0  0  0
   49.5297   15.1204   -4.3348 O   0  0  0  0  0  0  0  0  0  0  0  0
   47.2451   15.5193   -4.0232 C   0  0  1  0  0  0  0  0  0  0  0  0
   41.4761   19.4478    0.0111 N   0  0  0  0  0  0  0  0  0  0  0  0
   46.0403   15.6084   -3.1042 O   0  0  0  0  0  0  0  0  0  0  0  0
   45.8117   16.8747   -2.6181 C   0  0  1  0  0  0  0  0  0  0  0  0
   46.6665   15.3506    2.5508 N   0  0  0  0  0  0  0  0  0  0  0  0
   45.6061   17.0210   -1.2406 O   0  0  0  0  0  0  0  0  0  0  0  0
   44.2595   16.8834   -0.5897 C   0  0  2  0  0  0  0  0  0  0  0  0
   45.2088   21.6576    1.4540 N   0  0  0  0  0  0  0  0  0  0  0  0
   44.1090   14.5377   -1.4062 O   0  0  0  0  0  0  0  0  0  0  0  0
   43.4286   15.8472   -1.4029 C   0  0  1  0  0  0  0  0  0  0  0  0
   44.2291   19.1784    0.1607 O   0  0  0  0  0  0  0  0  0  0  0  0
   41.9653   15.6726   -0.7541 C   0  0  1  0  0  0  0  0  0  0  0  0
   44.1948   18.1324    2.2984 O   0  0  0  0  0  0  0  0  0  0  0  0
   41.2593   17.0980   -0.7649 C   0  0  0  0  0  0  0  0  0  0  0  0
   47.8758   17.7262    2.6940 O   0  0  0  0  0  0  0  0  0  0  0  0
   42.1643   18.1149    0.0471 C   0  0  1  0  0  0  0  0  0  0  0  0
   47.6801   20.5745    2.6378 O   0  0  0  0  0  0  0  0  0  0  0  0
   43.5048   18.2869   -0.5934 C   0  0  2  0  0  0  0  0  0  0  0  0
   46.4881   19.0388   -3.3590 O   0  0  0  0  0  0  0  0  0  0  0  0
   44.1080   19.4509    1.5805 C   0  0  1  0  0  0  0  0  0  0  0  0
   46.4523   17.3232   -5.5309 O   0  0  0  0  0  0  0  0  0  0  0  0
   45.5320   17.4112    2.1957 C   0  0  2  0  0  0  0  0  0  0  0  0
   45.4602   16.0848    2.9433 C   0  0  0  0  0  0  0  0  0  0  0  0
   46.6185   18.3404    2.7845 C   0  0  2  0  0  0  0  0  0  0  0  0
   46.6441   19.6724    2.0534 C   0  0  1  0  0  0  0  0  0  0  0  0
   45.2513   20.3197    2.1650 C   0  0  1  0  0  0  0  0  0  0  0  0
   46.9254   17.7396   -3.1858 C   0  0  2  0  0  0  0  0  0  0  0  0
   47.3892   16.9789   -4.4694 C   0  0  1  0  0  0  0  0  0  0  0  0
  1  3  1  0  0  0  0
  4  1  1  1  0  0  0
  4  6  1  0  0  0  0
  4 31  1  0  0  0  0
  6  7  1  0  0  0  0
  7  9  1  1  0  0  0
  7 30  1  0  0  0  0
  8 26  1  0  0  0  0
 10  9  1  6  0  0  0
 10 13  1  0  0  0  0
 10 21  1  0  0  0  0
 13 12  1  1  0  0  0
 13 15  1  0  0  0  0
 15  2  1  6  0  0  0
 15 17  1  0  0  0  0
 16 25  1  0  0  0  0
 16 23  1  0  0  0  0
 17 19  1  0  0  0  0
 19  5  1  6  0  0  0
 19 21  1  0  0  0  0
 21 14  1  1  0  0  0
 23 14  1  6  0  0  0
 23 29  1  0  0  0  0
 25 26  1  1  0  0  0
 25 27  1  0  0  0  0
 27 18  1  6  0  0  0
 27 28  1  0  0  0  0
 28 20  1  1  0  0  0
 28 29  1  0  0  0  0
 29 11  1  6  0  0  0
 30 22  1  6  0  0  0
 30 31  1  0  0  0  0
 31 24  1  6  0  0  0
M  END
>  <CHROM.1>
-168.12839739,-86.98249940,31.61509403,52.38326311,-90.42972566,168.22030136
45.29841900,17.42750144,-0.56882479,-1.29005644,0.15214174,1.06158193

>  <Name>
ligand

>  <RI>
0

>  <Rbt.Current_Directory>
/home/itssahil/PROJECTS/Mol_Feturizer/New_Systems/rnas/2ET5

>  <Rbt.Executable>
rbdock ($Id: //depot/dev/client3/rdock/2013.1/src/exe/rbdock.cxx#4 $)

>  <Rbt.Library>
libRbt.so (2013.1, Build901 2013/11/27)

>  <Rbt.Parameter_File>
/export/apps/rDock/src/rDock_2013.1_src/data/scripts/dock_solv.prm

>  <Rbt.Receptor>
prm/blind_docking_60.prm

>  <SCORE>
61.8344

>  <SCORE.INTER>
41.2945

>  <SCORE.INTER.CONST>
1

>  <SCORE.INTER.POLAR>
0

>  <SCORE.INTER.ROT>
6

>  <SCORE.INTER.SOLV>
24.0661

>  <SCORE.INTER.VDW>
11.9076

>  <SCORE.INTER.norm>
1.33208

>  <SCORE.INTRA>
1.91824

>  <SCORE.INTRA.DIHEDRAL>
0.0860897

>  <SCORE.INTRA.DIHEDRAL.0>
11.2357

>  <SCORE.INTRA.POLAR>
0

>  <SCORE.INTRA.POLAR.0>
0

>  <SCORE.INTRA.REPUL>
0

>  <SCORE.INTRA.REPUL.0>
0

>  <SCORE.INTRA.SOLV>
-1.79662

>  <SCORE.INTRA.SOLV.lig_0>
-83.3092

>  <SCORE.INTRA.VDW>
2.77351

>  <SCORE.INTRA.VDW.0>
-4.47057

>  <SCORE.INTRA.norm>
0.0618789

>  <SCORE.RESTR>
18.6217

>  <SCORE.RESTR.CAVITY>
18.6217

>  <SCORE.RESTR.norm>
0.6007

>  <SCORE.SYSTEM>
0

>  <SCORE.SYSTEM.CONST>
0

>  <SCORE.SYSTEM.DIHEDRAL>
0

>  <SCORE.SYSTEM.SOLV>
0

>  <SCORE.SYSTEM.norm>
0

>  <SCORE.heavy>
31

>  <SCORE.norm>
1.99466

>  <RMSD>
9.137

$$$$
ligand
 OpenBabel11021811433D
libRbt.so/2013.1/901 2013/11/27
 31 33  0  0  0  0  0  0  0  0999 V2000
   44.2663   16.0431   -4.2270 C   0  0  0  0  0  0  0  0  0  0  0  0
   42.7538   13.9745   -1.3220 N   0  0  0  0  0  0  0  0  0  0  0  0
   44.4159   15.0777   -5.2783 O   0  0  0  0  0  0  0  0  0  0  0  0
   45.5431   16.8769   -4.2944 C   0  0  1  0  0  0  0  0  0  0  0  0
   41.5102   18.8007   -0.3789 N   0  0  0  0  0  0  0  0  0  0  0  0
   45.7001   17.8941   -3.1787 O   0  0  0  0  0  0  0  0  0  0  0  0
   46.6462   17.5434   -2.2439 C   0  0  1  0  0  0  0  0  0  0  0  0
   47.9540   17.6606    3.0485 N   0  0  0  0  0  0  0  0  0  0  0  0
   46.2899   17.6160   -0.8914 O   0  0  0  0  0  0  0  0  0  0  0  0
   44.9657   17.1446   -0.3621 C   0  0  2  0  0  0  0  0  0  0  0  0
   43.6459   22.1650    0.9507 N   0  0  0  0  0  0  0  0  0  0  0  0
   45.6032   14.7941   -0.8723 O   0  0  0  0  0  0  0  0  0  0  0  0
   44.5817   15.8326   -1.1082 C   0  0  1  0  0  0  0  0  0  0  0  0
   44.1799   19.3863    0.0720 O   0  0  0  0  0  0  0  0  0  0  0  0
   43.1577   15.2908   -0.5874 C   0  0  1  0  0  0  0  0  0  0  0  0
   44.4686   18.7701    2.3528 O   0  0  0  0  0  0  0  0  0  0  0  0
   42.0805   16.4303   -0.8550 C   0  0  0  0  0  0  0  0  0  0  0  0
   47.7941   20.3668    2.8650 O   0  0  0  0  0  0  0  0  0  0  0  0
   42.5406   17.7461   -0.1003 C   0  0  1  0  0  0  0  0  0  0  0  0
   46.1970   22.6737    2.3344 O   0  0  0  0  0  0  0  0  0  0  0  0
   43.8477   18.2493   -0.6245 C   0  0  2  0  0  0  0  0  0  0  0  0
   48.4956   16.0380   -2.2993 O   0  0  0  0  0  0  0  0  0  0  0  0
   43.8001   19.7466    1.4250 C   0  0  1  0  0  0  0  0  0  0  0  0
   47.9542   16.8814   -4.8795 O   0  0  0  0  0  0  0  0  0  0  0  0
   45.9896   18.8305    2.3909 C   0  0  2  0  0  0  0  0  0  0  0  0
   46.5232   17.7700    3.3470 C   0  0  0  0  0  0  0  0  0  0  0  0
   46.3967   20.2549    2.8336 C   0  0  2  0  0  0  0  0  0  0  0  0
   45.8192   21.2988    1.8924 C   0  0  1  0  0  0  0  0  0  0  0  0
   44.2868   21.1483    1.8743 C   0  0  1  0  0  0  0  0  0  0  0  0
   47.1775   16.1894   -2.6853 C   0  0  2  0  0  0  0  0  0  0  0  0
   46.8863   16.1417   -4.2197 C   0  0  1  0  0  0  0  0  0  0  0  0
  1  3  1  0  0  0  0
  4  1  1  1  0  0  0
  4  6  1  0  0  0  0
  4 31  1  0  0  0  0
  6  7  1  0  0  0  0
  7  9  1  1  0  0  0
  7 30  1  0  0  0  0
  8 26  1  0  0  0  0
 10  9  1  6  0  0  0
 10 13  1  0  0  0  0
 10 21  1  0  0  0  0
 13 12  1  1  0  0  0
 13 15  1  0  0  0  0
 15  2  1  6  0  0  0
 15 17  1  0  0  0  0
 16 25  1  0  0  0  0
 16 23  1  0  0  0  0
 17 19  1  0  0  0  0
 19  5  1  6  0  0  0
 19 21  1  0  0  0  0
 21 14  1  1  0  0  0
 23 14  1  6  0  0  0
 23 29  1  0  0  0  0
 25 26  1  1  0  0  0
 25 27  1  0  0  0  0
 27 18  1  6  0  0  0
 27 28  1  0  0  0  0
 28 20  1  1  0  0  0
 28 29  1  0  0  0  0
 29 11  1  6  0  0  0
 30 22  1  6  0  0  0
 30 31  1  0  0  0  0
 31 24  1  6  0  0  0
M  END
>  <CHROM.1>
-173.96822709,42.63499834,39.23751364,66.50216978,-90.39849533,165.19977387
45.25229436,17.88991571,-0.50907800,1.58684466,-0.11142934,-2.23898632

>  <Name>
ligand

>  <RI>
0

>  <Rbt.Current_Directory>
/home/itssahil/PROJECTS/Mol_Feturizer/New_Systems/rnas/2ET5

>  <Rbt.Executable>
rbdock ($Id: //depot/dev/client3/rdock/2013.1/src/exe/rbdock.cxx#4 $)

>  <Rbt.Library>
libRbt.so (2013.1, Build901 2013/11/27)

>  <Rbt.Parameter_File>
/export/apps/rDock/src/rDock_2013.1_src/data/scripts/dock_solv.prm

>  <Rbt.Receptor>
prm/blind_docking_60.prm

>  <SCORE>
21.4956

>  <SCORE.INTER>
4.63814

>  <SCORE.INTER.CONST>
1

>  <SCORE.INTER.POLAR>
0

>  <SCORE.INTER.ROT>
6

>  <SCORE.INTER.SOLV>
25.437

>  <SCORE.INTER.VDW>
-12.9869

>  <SCORE.INTER.norm>
0.149618

>  <SCORE.INTRA>
0.210008

>  <SCORE.INTRA.DIHEDRAL>
-3.06509

>  <SCORE.INTRA.DIHEDRAL.0>
11.2357

>  <SCORE.INTRA.POLAR>
0

>  <SCORE.INTRA.POLAR.0>
0

>  <SCORE.INTRA.REPUL>
0

>  <SCORE.INTRA.REPUL.0>
0

>  <SCORE.INTRA.SOLV>
-0.510898

>  <SCORE.INTRA.SOLV.lig_0>
-83.3092

>  <SCORE.INTRA.VDW>
1.998

>  <SCORE.INTRA.VDW.0>
-4.47057

>  <SCORE.INTRA.norm>
0.00677445

>  <SCORE.RESTR>
16.6474

>  <SCORE.RESTR.CAVITY>
16.6474

>  <SCORE.RESTR.norm>
0.537013

>  <SCORE.SYSTEM>
0

>  <SCORE.SYSTEM.CONST>
0

>  <SCORE.SYSTEM.DIHEDRAL>
0

>  <SCORE.SYSTEM.SOLV>
0

>  <SCORE.SYSTEM.norm>
0

>  <SCORE.heavy>
31

>  <SCORE.norm>
0.693405

>  <RMSD>
9.141

$$$$
ligand
 OpenBabel11021811433D
libRbt.so/2013.1/901 2013/11/27
 31 33  0  0  0  0  0  0  0  0999 V2000
   46.0039   16.9466   -5.7807 C   0  0  0  0  0  0  0  0  0  0  0  0
   41.8495   13.7036   -0.6159 N   0  0  0  0  0  0  0  0  0  0  0  0
   45.7696   18.2438   -6.3482 O   0  0  0  0  0  0  0  0  0  0  0  0
   46.9311   17.2131   -4.5977 C   0  0  1  0  0  0  0  0  0  0  0  0
   41.6886   18.0152    2.0510 N   0  0  0  0  0  0  0  0  0  0  0  0
   46.3569   18.1279   -3.5311 O   0  0  0  0  0  0  0  0  0  0  0  0
   45.9952   17.4698   -2.3786 C   0  0  1  0  0  0  0  0  0  0  0  0
   46.3101   16.5497    3.5291 N   0  0  0  0  0  0  0  0  0  0  0  0
   44.7236   17.7244   -1.8498 O   0  0  0  0  0  0  0  0  0  0  0  0
   44.1433   16.9588   -0.6954 C   0  0  2  0  0  0  0  0  0  0  0  0
   43.5362   21.8429    1.0581 N   0  0  0  0  0  0  0  0  0  0  0  0
   44.2087   14.8732   -2.0510 O   0  0  0  0  0  0  0  0  0  0  0  0
   43.3288   15.7601   -1.2657 C   0  0  1  0  0  0  0  0  0  0  0  0
   43.9172   18.9288    0.6826 O   0  0  0  0  0  0  0  0  0  0  0  0
   42.6702   14.9117   -0.0660 C   0  0  1  0  0  0  0  0  0  0  0  0
   44.5762   18.7683    2.9641 O   0  0  0  0  0  0  0  0  0  0  0  0
   41.7298   15.8934    0.7599 C   0  0  0  0  0  0  0  0  0  0  0  0
   47.9415   20.3223    2.6029 O   0  0  0  0  0  0  0  0  0  0  0  0
   42.6046   17.1064    1.2851 C   0  0  1  0  0  0  0  0  0  0  0  0
   46.2802   22.5303    1.8825 O   0  0  0  0  0  0  0  0  0  0  0  0
   43.1768   17.8992    0.1535 C   0  0  2  0  0  0  0  0  0  0  0  0
   46.6201   15.3612   -1.4552 O   0  0  0  0  0  0  0  0  0  0  0  0
   43.7649   19.5631    1.9784 C   0  0  1  0  0  0  0  0  0  0  0  0
   48.6604   16.2554   -3.0983 O   0  0  0  0  0  0  0  0  0  0  0  0
   46.0829   18.7840    2.7443 C   0  0  2  0  0  0  0  0  0  0  0  0
   46.7656   17.9170    3.7958 C   0  0  0  0  0  0  0  0  0  0  0  0
   46.5579   20.2535    2.8198 C   0  0  2  0  0  0  0  0  0  0  0  0
   45.8342   21.1085    1.7930 C   0  0  1  0  0  0  0  0  0  0  0  0
   44.3195   21.0090    2.0522 C   0  0  1  0  0  0  0  0  0  0  0  0
   46.2903   16.0009   -2.6347 C   0  0  2  0  0  0  0  0  0  0  0  0
   47.3812   16.0152   -3.7533 C   0  0  1  0  0  0  0  0  0  0  0  0
  1  3  1  0  0  0  0
  4  1  1  6  0  0  0
  4  6  1  0  0  0  0
  4 31  1  0  0  0  0
  6  7  1  0  0  0  0
  7  9  1  6  0  0  0
  7 30  1  0  0  0  0
  8 26  1  0  0  0  0
 10  9  1  6  0  0  0
 10 13  1  0  0  0  0
 10 21  1  0  0  0  0
 13 12  1  1  0  0  0
 13 15  1  0  0  0  0
 15  2  1  6  0  0  0
 15 17  1  0  0  0  0
 16 25  1  0  0  0  0
 16 23  1  0  0  0  0
 17 19  1  0  0  0  0
 19  5  1  6  0  0  0
 19 21  1  0  0  0  0
 21 14  1  1  0  0  0
 23 14  1  6  0  0  0
 23 29  1  0  0  0  0
 25 26  1  1  0  0  0
 25 27  1  0  0  0  0
 27 18  1  6  0  0  0
 27 28  1  0  0  0  0
 28 20  1  1  0  0  0
 28 29  1  0  0  0  0
 29 11  1  6  0  0  0
 30 22  1  1  0  0  0
 30 31  1  0  0  0  0
 31 24  1  1  0  0  0
M  END
>  <CHROM.1>
60.51794967,172.59849758,-91.81165402,87.25998982,-143.49982761,65.19574648
45.07542849,17.82033838,-0.29395522,-1.42119606,0.72121298,0.98358755

>  <Name>
ligand

>  <RI>
0

>  <Rbt.Current_Directory>
/home/itssahil/PROJECTS/Mol_Feturizer/New_Systems/rnas/2ET5

>  <Rbt.Executable>
rbdock ($Id: //depot/dev/client3/rdock/2013.1/src/exe/rbdock.cxx#4 $)

>  <Rbt.Library>
libRbt.so (2013.1, Build901 2013/11/27)

>  <Rbt.Parameter_File>
/export/apps/rDock/src/rDock_2013.1_src/data/scripts/dock_solv.prm

>  <Rbt.Receptor>
prm/blind_docking_60.prm

>  <SCORE>
23.9798

>  <SCORE.INTER>
0.280312

>  <SCORE.INTER.CONST>
1

>  <SCORE.INTER.POLAR>
0

>  <SCORE.INTER.ROT>
6

>  <SCORE.INTER.SOLV>
26.1861

>  <SCORE.INTER.VDW>
-16.1418

>  <SCORE.INTER.norm>
0.00904234

>  <SCORE.INTRA>
6.84038

>  <SCORE.INTRA.DIHEDRAL>
1.04584

>  <SCORE.INTRA.DIHEDRAL.0>
11.2357

>  <SCORE.INTRA.POLAR>
0

>  <SCORE.INTRA.POLAR.0>
0

>  <SCORE.INTRA.REPUL>
0

>  <SCORE.INTRA.REPUL.0>
0

>  <SCORE.INTRA.SOLV>
-1.60917

>  <SCORE.INTRA.SOLV.lig_0>
-83.3092

>  <SCORE.INTRA.VDW>
7.12205

>  <SCORE.INTRA.VDW.0>
-4.47057

>  <SCORE.INTRA.norm>
0.220657

>  <SCORE.RESTR>
16.8591

>  <SCORE.RESTR.CAVITY>
16.8591

>  <SCORE.RESTR.norm>
0.543844

>  <SCORE.SYSTEM>
0

>  <SCORE.SYSTEM.CONST>
0

>  <SCORE.SYSTEM.DIHEDRAL>
0

>  <SCORE.SYSTEM.SOLV>
0

>  <SCORE.SYSTEM.norm>
0

>  <SCORE.heavy>
31

>  <SCORE.norm>
0.773543

>  <RMSD>
9.145

$$$$
ligand
 OpenBabel11021811433D
libRbt.so/2013.1/901 2013/11/27
 31 33  0  0  0  0  0  0  0  0999 V2000
   40.1581   30.4230   -1.9739 C   0  0  0  0  0  0  0  0  0  0  0  0
   43.6986   29.0452    3.1362 N   0  0  0  0  0  0  0  0  0  0  0  0
   41.5469   30.1217   -1.7736 O   0  0  0  0  0  0  0  0  0  0  0  0
   39.4197   29.2734   -1.2933 C   0  0  1  0  0  0  0  0  0  0  0  0
   39.7508   27.2682    5.7792 N   0  0  0  0  0  0  0  0  0  0  0  0
   39.6907   29.1328    0.1936 O   0  0  0  0  0  0  0  0  0  0  0  0
   38.6396   29.5346    0.9847 C   0  0  1  0  0  0  0  0  0  0  0  0
   36.7823   25.5987    2.2038 N   0  0  0  0  0  0  0  0  0  0  0  0
   38.9133   30.4085    2.0443 O   0  0  0  0  0  0  0  0  0  0  0  0
   39.8503   30.0717    3.1687 C   0  0  2  0  0  0  0  0  0  0  0  0
   36.1408   31.0356    5.6324 N   0  0  0  0  0  0  0  0  0  0  0  0
   41.7631   30.9229    1.8241 O   0  0  0  0  0  0  0  0  0  0  0  0
   41.2476   29.7521    2.5596 C   0  0  1  0  0  0  0  0  0  0  0  0
   38.1017   29.1088    4.5275 O   0  0  0  0  0  0  0  0  0  0  0  0
   42.2900   29.3683    3.7252 C   0  0  1  0  0  0  0  0  0  0  0  0
   36.4091   28.2969    3.0642 O   0  0  0  0  0  0  0  0  0  0  0  0
   41.7070   28.1060    4.4978 C   0  0  0  0  0  0  0  0  0  0  0  0
   34.4267   26.4348    5.6086 O   0  0  0  0  0  0  0  0  0  0  0  0
   40.2747   28.4794    5.0651 C   0  0  1  0  0  0  0  0  0  0  0  0
   34.1312   29.1023    6.5840 O   0  0  0  0  0  0  0  0  0  0  0  0
   39.3154   28.7980    3.9630 C   0  0  2  0  0  0  0  0  0  0  0  0
   36.3093   29.8146    0.5598 O   0  0  0  0  0  0  0  0  0  0  0  0
   36.8752   29.4896    3.8526 C   0  0  1  0  0  0  0  0  0  0  0  0
   37.3224   27.9500   -1.2175 O   0  0  0  0  0  0  0  0  0  0  0  0
   35.9919   27.0844    3.8855 C   0  0  2  0  0  0  0  0  0  0  0  0
   35.5742   25.9515    2.9551 C   0  0  0  0  0  0  0  0  0  0  0  0
   34.8341   27.5164    4.8146 C   0  0  2  0  0  0  0  0  0  0  0  0
   35.2577   28.6743    5.7029 C   0  0  1  0  0  0  0  0  0  0  0  0
   35.7041   29.8431    4.8051 C   0  0  1  0  0  0  0  0  0  0  0  0
   37.5663   30.0220    0.0250 C   0  0  2  0  0  0  0  0  0  0  0  0
   37.8868   29.2895   -1.3174 C   0  0  1  0  0  0  0  0  0  0  0  0
  1  3  1  0  0  0  0
  4  1  1  1  0  0  0
  4  6  1  0  0  0  0
  4 31  1  0  0  0  0
  6  7  1  0  0  0  0
  7  9  1  1  0  0  0
  7 30  1  0  0  0  0
  8 26  1  0  0  0  0
 10  9  1  6  0  0  0
 10 13  1  0  0  0  0
 10 21  1  0  0  0  0
 13 12  1  1  0  0  0
 13 15  1  0  0  0  0
 15  2  1  6  0  0  0
 15 17  1  0  0  0  0
 16 25  1  0  0  0  0
 16 23  1  0  0  0  0
 17 19  1  0  0  0  0
 19  5  1  6  0  0  0
 19 21  1  0  0  0  0
 21 14  1  1  0  0  0
 23 14  1  1  0  0  0
 23 29  1  0  0  0  0
 25 26  1  6  0  0  0
 25 27  1  0  0  0  0
 27 18  1  1  0  0  0
 27 28  1  0  0  0  0
 28 20  1  6  0  0  0
 28 29  1  0  0  0  0
 29 11  1  1  0  0  0
 30 22  1  1  0  0  0
 30 31  1  0  0  0  0
 31 24  1  1  0  0  0
M  END
>  <CHROM.1>
60.49221700,-60.09862334,58.05082458,66.17990160,61.62727275,63.81301453
38.29150916,28.90502860,2.66620087,0.75870344,-0.21699085,-1.46002734

>  <Name>
ligand

>  <RI>
0

>  <Rbt.Current_Directory>
/home/itssahil/PROJECTS/Mol_Feturizer/New_Systems/rnas/2ET5

>  <Rbt.Executable>
rbdock ($Id: //depot/dev/client3/rdock/2013.1/src/exe/rbdock.cxx#4 $)

>  <Rbt.Library>
libRbt.so (2013.1, Build901 2013/11/27)

>  <Rbt.Parameter_File>
/export/apps/rDock/src/rDock_2013.1_src/data/scripts/dock_solv.prm

>  <Rbt.Receptor>
prm/pocket_docking_8.prm

>  <SCORE>
-9.62283

>  <SCORE.INTER>
-3.05149

>  <SCORE.INTER.CONST>
1

>  <SCORE.INTER.POLAR>
0

>  <SCORE.INTER.ROT>
6

>  <SCORE.INTER.SOLV>
10.8136

>  <SCORE.INTER.VDW>
-13.2389

>  <SCORE.INTER.norm>
-0.0984352

>  <SCORE.INTRA>
-6.57134

>  <SCORE.INTRA.DIHEDRAL>
-10.8222

>  <SCORE.INTRA.DIHEDRAL.0>
11.2357

>  <SCORE.INTRA.POLAR>
0

>  <SCORE.INTRA.POLAR.0>
0

>  <SCORE.INTRA.REPUL>
0

>  <SCORE.INTRA.REPUL.0>
0

>  <SCORE.INTRA.SOLV>
-3.34871

>  <SCORE.INTRA.SOLV.lig_0>
-83.3092

>  <SCORE.INTRA.VDW>
0.51413

>  <SCORE.INTRA.VDW.0>
-4.47057

>  <SCORE.INTRA.norm>
-0.211979

>  <SCORE.RESTR>
0

>  <SCORE.RESTR.CAVITY>
0

>  <SCORE.RESTR.norm>
0

>  <SCORE.SYSTEM>
0

>  <SCORE.SYSTEM.CONST>
0

>  <SCORE.SYSTEM.DIHEDRAL>
0

>  <SCORE.SYSTEM.SOLV>
0

>  <SCORE.SYSTEM.norm>
0

>  <SCORE.heavy>
31

>  <SCORE.norm>
-0.310414

>  <RMSD>
9.164

$$$$
ligand
 OpenBabel11021811433D
libRbt.so/2013.1/901 2013/11/27
 31 33  0  0  0  0  0  0  0  0999 V2000
   46.0011   17.0355   -5.7750 C   0  0  0  0  0  0  0  0  0  0  0  0
   41.8718   13.7748   -0.5565 N   0  0  0  0  0  0  0  0  0  0  0  0
   46.3631   15.7241   -6.2319 O   0  0  0  0  0  0  0  0  0  0  0  0
   46.9292   17.2932   -4.5908 C   0  0  1  0  0  0  0  0  0  0  0  0
   41.6971   18.1133    2.0654 N   0  0  0  0  0  0  0  0  0  0  0  0
   46.3578   18.2039   -3.5193 O   0  0  0  0  0  0  0  0  0  0  0  0
   45.9945   17.5407   -2.3702 C   0  0  1  0  0  0  0  0  0  0  0  0
   46.2827   16.6107    3.5211 N   0  0  0  0  0  0  0  0  0  0  0  0
   44.7237   17.7959   -1.8398 O   0  0  0  0  0  0  0  0  0  0  0  0
   44.1499   17.0397   -0.6759 C   0  0  2  0  0  0  0  0  0  0  0  0
   43.5739   21.9406    1.0668 N   0  0  0  0  0  0  0  0  0  0  0  0
   44.2218   14.9404   -2.0098 O   0  0  0  0  0  0  0  0  0  0  0  0
   43.3397   15.8313   -1.2316 C   0  0  1  0  0  0  0  0  0  0  0  0
   43.9179   19.0231    0.6818 O   0  0  0  0  0  0  0  0  0  0  0  0
   42.6881   14.9925   -0.0214 C   0  0  1  0  0  0  0  0  0  0  0  0
   44.5869   18.8486    2.9594 O   0  0  0  0  0  0  0  0  0  0  0  0
   41.7451   15.9783    0.7965 C   0  0  0  0  0  0  0  0  0  0  0  0
   47.9687   20.3631    2.5843 O   0  0  0  0  0  0  0  0  0  0  0  0
   42.6154   17.2009    1.3068 C   0  0  1  0  0  0  0  0  0  0  0  0
   46.3303   22.5928    1.8784 O   0  0  0  0  0  0  0  0  0  0  0  0
   43.1810   17.9845    0.1655 C   0  0  2  0  0  0  0  0  0  0  0  0
   46.6138   15.4255   -1.4581 O   0  0  0  0  0  0  0  0  0  0  0  0
   43.7800   19.6557    1.9801 C   0  0  1  0  0  0  0  0  0  0  0  0
   48.6561   16.3228   -3.0969 O   0  0  0  0  0  0  0  0  0  0  0  0
   46.0924   18.8469    2.7316 C   0  0  2  0  0  0  0  0  0  0  0  0
   46.7702   17.9690    3.7773 C   0  0  0  0  0  0  0  0  0  0  0  0
   46.5855   20.3103    2.8084 C   0  0  2  0  0  0  0  0  0  0  0  0
   45.8667   21.1767    1.7876 C   0  0  1  0  0  0  0  0  0  0  0  0
   44.3523   21.0947    2.0546 C   0  0  1  0  0  0  0  0  0  0  0  0
   46.2855   16.0723   -2.6342 C   0  0  2  0  0  0  0  0  0  0  0  0
   47.3762   16.0896   -3.7529 C   0  0  1  0  0  0  0  0  0  0  0  0
  1  3  1  0  0  0  0
  4  1  1  6  0  0  0
  4  6  1  0  0  0  0
  4 31  1  0  0  0  0
  6  7  1  0  0  0  0
  7  9  1  6  0  0  0
  7 30  1  0  0  0  0
  8 26  1  0  0  0  0
 10  9  1  6  0  0  0
 10 13  1  0  0  0  0
 10 21  1  0  0  0  0
 13 12  1  1  0  0  0
 13 15  1  0  0  0  0
 15  2  1  6  0  0  0
 15 17  1  0  0  0  0
 16 25  1  0  0  0  0
 16 23  1  0  0  0  0
 17 19  1  0  0  0  0
 19  5  1  6  0  0  0
 19 21  1  0  0  0  0
 21 14  1  1  0  0  0
 23 14  1  6  0  0  0
 23 29  1  0  0  0  0
 25 26  1  1  0  0  0
 25 27  1  0  0  0  0
 27 18  1  6  0  0  0
 27 28  1  0  0  0  0
 28 20  1  1  0  0  0
 28 29  1  0  0  0  0
 29 11  1  6  0  0  0
 30 22  1  1  0  0  0
 30 31  1  0  0  0  0
 31 24  1  1  0  0  0
M  END
>  <CHROM.1>
-150.31778082,173.56026315,-91.72683868,85.71385533,-142.39034999,64.44101950
45.10678765,17.80089998,-0.28175583,-1.42036809,0.64501847,0.93557229

>  <Name>
ligand

>  <RI>
0

>  <Rbt.Current_Directory>
/home/itssahil/PROJECTS/Mol_Feturizer/New_Systems/rnas/2ET5

>  <Rbt.Executable>
rbdock ($Id: //depot/dev/client3/rdock/2013.1/src/exe/rbdock.cxx#4 $)

>  <Rbt.Library>
libRbt.so (2013.1, Build901 2013/11/27)

>  <Rbt.Parameter_File>
/export/apps/rDock/src/rDock_2013.1_src/data/scripts/dock_solv.prm

>  <Rbt.Receptor>
prm/blind_docking_60.prm

>  <SCORE>
27.8381

>  <SCORE.INTER>
2.4159

>  <SCORE.INTER.CONST>
1

>  <SCORE.INTER.POLAR>
0

>  <SCORE.INTER.ROT>
6

>  <SCORE.INTER.SOLV>
26.8226

>  <SCORE.INTER.VDW>
-14.9303

>  <SCORE.INTER.norm>
0.0779323

>  <SCORE.INTRA>
8.89907

>  <SCORE.INTRA.DIHEDRAL>
3.45003

>  <SCORE.INTRA.DIHEDRAL.0>
11.2357

>  <SCORE.INTRA.POLAR>
0

>  <SCORE.INTRA.POLAR.0>
0

>  <SCORE.INTRA.REPUL>
0

>  <SCORE.INTRA.REPUL.0>
0

>  <SCORE.INTRA.SOLV>
-1.39018

>  <SCORE.INTRA.SOLV.lig_0>
-83.3092

>  <SCORE.INTRA.VDW>
7.86914

>  <SCORE.INTRA.VDW.0>
-4.47057

>  <SCORE.INTRA.norm>
0.287067

>  <SCORE.RESTR>
16.5231

>  <SCORE.RESTR.CAVITY>
16.5231

>  <SCORE.RESTR.norm>
0.533004

>  <SCORE.SYSTEM>
0

>  <SCORE.SYSTEM.CONST>
0

>  <SCORE.SYSTEM.DIHEDRAL>
0

>  <SCORE.SYSTEM.SOLV>
0

>  <SCORE.SYSTEM.norm>
0

>  <SCORE.heavy>
31

>  <SCORE.norm>
0.898003

>  <RMSD>
9.173

$$$$
ligand
 OpenBabel11021811433D
libRbt.so/2013.1/901 2013/11/27
 31 33  0  0  0  0  0  0  0  0999 V2000
   47.6989   17.8653   -1.6101 C   0  0  0  0  0  0  0  0  0  0  0  0
   39.8659   13.7935   -0.8043 N   0  0  0  0  0  0  0  0  0  0  0  0
   47.8003   17.2725   -0.3071 O   0  0  0  0  0  0  0  0  0  0  0  0
   47.4743   16.6818   -2.5477 C   0  0  1  0  0  0  0  0  0  0  0  0
   42.6949   16.7862    2.1570 N   0  0  0  0  0  0  0  0  0  0  0  0
   46.2479   15.8440   -2.2345 O   0  0  0  0  0  0  0  0  0  0  0  0
   45.2158   16.0253   -3.1255 C   0  0  1  0  0  0  0  0  0  0  0  0
   42.6984   21.3441   -0.9001 N   0  0  0  0  0  0  0  0  0  0  0  0
   43.9374   16.2677   -2.6074 O   0  0  0  0  0  0  0  0  0  0  0  0
   43.3872   15.5552   -1.4051 C   0  0  2  0  0  0  0  0  0  0  0  0
   46.7684   17.9824    1.8848 N   0  0  0  0  0  0  0  0  0  0  0  0
   41.9908   14.1314   -2.8933 O   0  0  0  0  0  0  0  0  0  0  0  0
   41.9507   15.0600   -1.7472 C   0  0  1  0  0  0  0  0  0  0  0  0
   44.5997   16.9465    0.1521 O   0  0  0  0  0  0  0  0  0  0  0  0
   41.3067   14.2996   -0.4824 C   0  0  1  0  0  0  0  0  0  0  0  0
   44.1019   19.1854   -0.4839 O   0  0  0  0  0  0  0  0  0  0  0  0
   41.2777   15.3246    0.7337 C   0  0  0  0  0  0  0  0  0  0  0  0
   42.4867   20.2420    2.7013 O   0  0  0  0  0  0  0  0  0  0  0  0
   42.7581   15.8175    1.0129 C   0  0  1  0  0  0  0  0  0  0  0  0
   45.1364   19.7121    3.6245 O   0  0  0  0  0  0  0  0  0  0  0  0
   43.3221   16.5504   -0.1624 C   0  0  2  0  0  0  0  0  0  0  0  0
   45.1320   16.8695   -5.3548 O   0  0  0  0  0  0  0  0  0  0  0  0
   45.1843   18.2668    0.0121 C   0  0  1  0  0  0  0  0  0  0  0  0
   47.6633   15.8555   -4.8795 O   0  0  0  0  0  0  0  0  0  0  0  0
   42.9425   19.4184    0.4754 C   0  0  2  0  0  0  0  0  0  0  0  0
   41.9162   20.3409   -0.1720 C   0  0  0  0  0  0  0  0  0  0  0  0
   43.5174   20.0269    1.7753 C   0  0  2  0  0  0  0  0  0  0  0  0
   44.5688   19.1121    2.3810 C   0  0  1  0  0  0  0  0  0  0  0  0
   45.6829   18.8899    1.3413 C   0  0  1  0  0  0  0  0  0  0  0  0
   45.7055   17.0711   -4.1139 C   0  0  2  0  0  0  0  0  0  0  0  0
   47.2632   16.9753   -4.0376 C   0  0  1  0  0  0  0  0  0  0  0  0
  1  3  1  0  0  0  0
  4  1  1  1  0  0  0
  4  6  1  0  0  0  0
  4 31  1  0  0  0  0
  6  7  1  0  0  0  0
  7  9  1  1  0  0  0
  7 30  1  0  0  0  0
  8 26  1  0  0  0  0
 10  9  1  6  0  0  0
 10 13  1  0  0  0  0
 10 21  1  0  0  0  0
 13 12  1  6  0  0  0
 13 15  1  0  0  0  0
 15  2  1  6  0  0  0
 15 17  1  0  0  0  0
 16 25  1  0  0  0  0
 16 23  1  0  0  0  0
 17 19  1  0  0  0  0
 19  5  1  1  0  0  0
 19 21  1  0  0  0  0
 21 14  1  1  0  0  0
 23 14  1  1  0  0  0
 23 29  1  0  0  0  0
 25 26  1  6  0  0  0
 25 27  1  0  0  0  0
 27 18  1  1  0  0  0
 27 28  1  0  0  0  0
 28 20  1  1  0  0  0
 28 29  1  0  0  0  0
 29 11  1  1  0  0  0
 30 22  1  6  0  0  0
 30 31  1  0  0  0  0
 31 24  1  6  0  0  0
M  END
>  <CHROM.1>
58.27251427,-40.39098589,-132.24950228,3.06747596,111.98122583,-39.08565448
44.29539016,17.27752336,-0.71937732,-1.16578685,0.45032062,0.87440936

>  <Name>
ligand

>  <RI>
0

>  <Rbt.Current_Directory>
/home/itssahil/PROJECTS/Mol_Feturizer/New_Systems/rnas/2ET5

>  <Rbt.Executable>
rbdock ($Id: //depot/dev/client3/rdock/2013.1/src/exe/rbdock.cxx#4 $)

>  <Rbt.Library>
libRbt.so (2013.1, Build901 2013/11/27)

>  <Rbt.Parameter_File>
/export/apps/rDock/src/rDock_2013.1_src/data/scripts/dock_solv.prm

>  <Rbt.Receptor>
prm/blind_docking_60.prm

>  <SCORE>
48.0429

>  <SCORE.INTER>
19.743

>  <SCORE.INTER.CONST>
1

>  <SCORE.INTER.POLAR>
0

>  <SCORE.INTER.ROT>
6

>  <SCORE.INTER.SOLV>
20.3992

>  <SCORE.INTER.VDW>
-1.23772

>  <SCORE.INTER.norm>
0.636872

>  <SCORE.INTRA>
9.16303

>  <SCORE.INTRA.DIHEDRAL>
12.4727

>  <SCORE.INTRA.DIHEDRAL.0>
11.2357

>  <SCORE.INTRA.POLAR>
0

>  <SCORE.INTRA.POLAR.0>
0

>  <SCORE.INTRA.REPUL>
0

>  <SCORE.INTRA.REPUL.0>
0

>  <SCORE.INTRA.SOLV>
3.99103

>  <SCORE.INTRA.SOLV.lig_0>
-83.3092

>  <SCORE.INTRA.VDW>
0.93115

>  <SCORE.INTRA.VDW.0>
-4.47057

>  <SCORE.INTRA.norm>
0.295582

>  <SCORE.RESTR>
19.1369

>  <SCORE.RESTR.CAVITY>
19.1369

>  <SCORE.RESTR.norm>
0.617319

>  <SCORE.SYSTEM>
0

>  <SCORE.SYSTEM.CONST>
0

>  <SCORE.SYSTEM.DIHEDRAL>
0

>  <SCORE.SYSTEM.SOLV>
0

>  <SCORE.SYSTEM.norm>
0

>  <SCORE.heavy>
31

>  <SCORE.norm>
1.54977

>  <RMSD>
9.187

$$$$
ligand
 OpenBabel11021811433D
libRbt.so/2013.1/901 2013/11/27
 31 33  0  0  0  0  0  0  0  0999 V2000
   46.0930   17.0557   -5.7369 C   0  0  0  0  0  0  0  0  0  0  0  0
   41.5712   13.8343   -1.1021 N   0  0  0  0  0  0  0  0  0  0  0  0
   44.9005   16.4931   -5.1703 O   0  0  0  0  0  0  0  0  0  0  0  0
   47.0196   17.2609   -4.5414 C   0  0  1  0  0  0  0  0  0  0  0  0
   41.8252   17.7050    2.1662 N   0  0  0  0  0  0  0  0  0  0  0  0
   46.4571   18.1447   -3.4430 O   0  0  0  0  0  0  0  0  0  0  0  0
   46.0791   17.4500   -2.3175 C   0  0  1  0  0  0  0  0  0  0  0  0
   48.3219   18.8205    2.2393 N   0  0  0  0  0  0  0  0  0  0  0  0
   44.8099   17.7068   -1.7840 O   0  0  0  0  0  0  0  0  0  0  0  0
   44.1625   16.8378   -0.7440 C   0  0  2  0  0  0  0  0  0  0  0  0
   42.0424   20.2728    2.1843 N   0  0  0  0  0  0  0  0  0  0  0  0
   44.0271   14.9763   -2.3897 O   0  0  0  0  0  0  0  0  0  0  0  0
   43.2368   15.8168   -1.4695 C   0  0  1  0  0  0  0  0  0  0  0  0
   44.1270   18.5973    0.9094 O   0  0  0  0  0  0  0  0  0  0  0  0
   42.5038   14.8671   -0.3956 C   0  0  1  0  0  0  0  0  0  0  0  0
   45.5525   19.0429    2.7627 O   0  0  0  0  0  0  0  0  0  0  0  0
   41.6624   15.8006    0.5795 C   0  0  0  0  0  0  0  0  0  0  0  0
   46.3709   22.5728    1.9018 O   0  0  0  0  0  0  0  0  0  0  0  0
   42.6493   16.8368    1.2615 C   0  0  1  0  0  0  0  0  0  0  0  0
   43.5584   22.7944    2.3430 O   0  0  0  0  0  0  0  0  0  0  0  0
   43.2913   17.7299    0.2482 C   0  0  2  0  0  0  0  0  0  0  0  0
   46.6632   15.2973   -1.4725 O   0  0  0  0  0  0  0  0  0  0  0  0
   44.1193   18.9441    2.3181 C   0  0  1  0  0  0  0  0  0  0  0  0
   48.7256   16.2169   -3.0733 O   0  0  0  0  0  0  0  0  0  0  0  0
   46.3635   20.1670    2.1324 C   0  0  2  0  0  0  0  0  0  0  0  0
   47.7952   20.1239    2.6539 C   0  0  0  0  0  0  0  0  0  0  0  0
   45.6696   21.5046    2.4791 C   0  0  2  0  0  0  0  0  0  0  0  0
   44.2314   21.5099    1.9886 C   0  0  1  0  0  0  0  0  0  0  0  0
   43.4890   20.3249    2.6336 C   0  0  1  0  0  0  0  0  0  0  0  0
   46.3496   15.9868   -2.6281 C   0  0  2  0  0  0  0  0  0  0  0  0
   47.4452   16.0242   -3.7414 C   0  0  1  0  0  0  0  0  0  0  0  0
  1  3  1  0  0  0  0
  4  1  1  6  0  0  0
  4  6  1  0  0  0  0
  4 31  1  0  0  0  0
  6  7  1  0  0  0  0
  7  9  1  6  0  0  0
  7 30  1  0  0  0  0
  8 26  1  0  0  0  0
 10  9  1  6  0  0  0
 10 13  1  0  0  0  0
 10 21  1  0  0  0  0
 13 12  1  6  0  0  0
 13 15  1  0  0  0  0
 15  2  1  6  0  0  0
 15 17  1  0  0  0  0
 16 25  1  0  0  0  0
 16 23  1  0  0  0  0
 17 19  1  0  0  0  0
 19  5  1  1  0  0  0
 19 21  1  0  0  0  0
 21 14  1  1  0  0  0
 23 14  1  6  0  0  0
 23 29  1  0  0  0  0
 25 26  1  1  0  0  0
 25 27  1  0  0  0  0
 27 18  1  6  0  0  0
 27 28  1  0  0  0  0
 28 20  1  1  0  0  0
 28 29  1  0  0  0  0
 29 11  1  6  0  0  0
 30 22  1  1  0  0  0
 30 31  1  0  0  0  0
 31 24  1  1  0  0  0
M  END
>  <CHROM.1>
-57.72068638,167.16103591,-95.01044544,140.43461614,-136.76620781,61.15188091
44.90751004,17.96912719,-0.32937443,-1.42119484,0.50248997,0.82823606

>  <Name>
ligand

>  <RI>
0

>  <Rbt.Current_Directory>
/home/itssahil/PROJECTS/Mol_Feturizer/New_Systems/rnas/2ET5

>  <Rbt.Executable>
rbdock ($Id: //depot/dev/client3/rdock/2013.1/src/exe/rbdock.cxx#4 $)

>  <Rbt.Library>
libRbt.so (2013.1, Build901 2013/11/27)

>  <Rbt.Parameter_File>
/export/apps/rDock/src/rDock_2013.1_src/data/scripts/dock_solv.prm

>  <Rbt.Receptor>
prm/blind_docking_60.prm

>  <SCORE>
22.9756

>  <SCORE.INTER>
-2.72379

>  <SCORE.INTER.CONST>
1

>  <SCORE.INTER.POLAR>
0

>  <SCORE.INTER.ROT>
6

>  <SCORE.INTER.SOLV>
26.8337

>  <SCORE.INTER.VDW>
-18.3604

>  <SCORE.INTER.norm>
-0.0878643

>  <SCORE.INTRA>
9.21487

>  <SCORE.INTRA.DIHEDRAL>
5.38251

>  <SCORE.INTRA.DIHEDRAL.0>
11.2357

>  <SCORE.INTRA.POLAR>
0

>  <SCORE.INTRA.POLAR.0>
0

>  <SCORE.INTRA.REPUL>
0

>  <SCORE.INTRA.REPUL.0>
0

>  <SCORE.INTRA.SOLV>
1.89934

>  <SCORE.INTRA.SOLV.lig_0>
-83.3092

>  <SCORE.INTRA.VDW>
5.57394

>  <SCORE.INTRA.VDW.0>
-4.47057

>  <SCORE.INTRA.norm>
0.297254

>  <SCORE.RESTR>
16.4845

>  <SCORE.RESTR.CAVITY>
16.4845

>  <SCORE.RESTR.norm>
0.531758

>  <SCORE.SYSTEM>
0

>  <SCORE.SYSTEM.CONST>
0

>  <SCORE.SYSTEM.DIHEDRAL>
0

>  <SCORE.SYSTEM.SOLV>
0

>  <SCORE.SYSTEM.norm>
0

>  <SCORE.heavy>
31

>  <SCORE.norm>
0.741147

>  <RMSD>
9.197

$$$$
ligand
 OpenBabel11021811433D
libRbt.so/2013.1/901 2013/11/27
 31 33  0  0  0  0  0  0  0  0999 V2000
   36.5078   23.8947    3.3222 C   0  0  0  0  0  0  0  0  0  0  0  0
   42.7915   29.9895    2.0809 N   0  0  0  0  0  0  0  0  0  0  0  0
   35.8214   24.5098    2.2221 O   0  0  0  0  0  0  0  0  0  0  0  0
   37.9730   23.8819    2.8945 C   0  0  1  0  0  0  0  0  0  0  0  0
   38.5289   31.8310    4.1225 N   0  0  0  0  0  0  0  0  0  0  0  0
   38.5769   25.2523    2.6465 O   0  0  0  0  0  0  0  0  0  0  0  0
   39.4496   25.6550    3.6305 C   0  0  1  0  0  0  0  0  0  0  0  0
   37.0220   27.6410    9.0354 N   0  0  0  0  0  0  0  0  0  0  0  0
   39.2859   26.9384    4.1668 O   0  0  0  0  0  0  0  0  0  0  0  0
   39.4763   28.1956    3.3674 C   0  0  2  0  0  0  0  0  0  0  0  0
   34.7779   28.4099    3.5691 N   0  0  0  0  0  0  0  0  0  0  0  0
   41.5797   27.2670    2.4160 O   0  0  0  0  0  0  0  0  0  0  0  0
   41.0038   28.4092    3.1516 C   0  0  1  0  0  0  0  0  0  0  0  0
   37.5202   29.2574    4.3040 O   0  0  0  0  0  0  0  0  0  0  0  0
   41.2654   29.7567    2.3098 C   0  0  1  0  0  0  0  0  0  0  0  0
   37.3053   28.0312    6.3326 O   0  0  0  0  0  0  0  0  0  0  0  0
   40.6344   30.9667    3.1271 C   0  0  0  0  0  0  0  0  0  0  0  0
   34.9833   30.3716    8.0653 O   0  0  0  0  0  0  0  0  0  0  0  0
   39.0909   30.6780    3.3438 C   0  0  1  0  0  0  0  0  0  0  0  0
   33.3440   29.5559    5.8740 O   0  0  0  0  0  0  0  0  0  0  0  0
   38.8740   29.4418    4.1569 C   0  0  2  0  0  0  0  0  0  0  0  0
   40.6807   24.4620    5.2889 O   0  0  0  0  0  0  0  0  0  0  0  0
   36.8337   28.1311    4.9082 C   0  0  1  0  0  0  0  0  0  0  0  0
   40.1720   22.7646    3.1624 O   0  0  0  0  0  0  0  0  0  0  0  0
   36.9257   29.1957    7.2373 C   0  0  2  0  0  0  0  0  0  0  0  0
   37.4936   28.9692    8.6336 C   0  0  0  0  0  0  0  0  0  0  0  0
   35.3830   29.2970    7.2580 C   0  0  2  0  0  0  0  0  0  0  0  0
   34.8347   29.4792    5.8525 C   0  0  1  0  0  0  0  0  0  0  0  0
   35.2936   28.2893    4.9892 C   0  0  1  0  0  0  0  0  0  0  0  0
   39.4529   24.5362    4.6594 C   0  0  2  0  0  0  0  0  0  0  0  0
   38.9979   23.2738    3.8590 C   0  0  1  0  0  0  0  0  0  0  0  0
  1  3  1  0  0  0  0
  4  1  1  1  0  0  0
  4  6  1  0  0  0  0
  4 31  1  0  0  0  0
  6  7  1  0  0  0  0
  7  9  1  1  0  0  0
  7 30  1  0  0  0  0
  8 26  1  0  0  0  0
 10  9  1  1  0  0  0
 10 13  1  0  0  0  0
 10 21  1  0  0  0  0
 13 12  1  6  0  0  0
 13 15  1  0  0  0  0
 15  2  1  1  0  0  0
 15 17  1  0  0  0  0
 16 25  1  0  0  0  0
 16 23  1  0  0  0  0
 17 19  1  0  0  0  0
 19  5  1  1  0  0  0
 19 21  1  0  0  0  0
 21 14  1  6  0  0  0
 23 14  1  1  0  0  0
 23 29  1  0  0  0  0
 25 26  1  1  0  0  0
 25 27  1  0  0  0  0
 27 18  1  1  0  0  0
 27 28  1  0  0  0  0
 28 20  1  1  0  0  0
 28 29  1  0  0  0  0
 29 11  1  6  0  0  0
 30 22  1  6  0  0  0
 30 31  1  0  0  0  0
 31 24  1  6  0  0  0
M  END
>  <CHROM.1>
61.01213390,-65.03104957,-74.40114038,59.53612127,55.88308336,-53.49736460
38.11372947,27.64852347,4.51631734,0.75949361,-0.55923280,-2.94856276

>  <Name>
ligand

>  <RI>
0

>  <Rbt.Current_Directory>
/home/itssahil/PROJECTS/Mol_Feturizer/New_Systems/rnas/2ET5

>  <Rbt.Executable>
rbdock ($Id: //depot/dev/client3/rdock/2013.1/src/exe/rbdock.cxx#4 $)

>  <Rbt.Library>
libRbt.so (2013.1, Build901 2013/11/27)

>  <Rbt.Parameter_File>
/export/apps/rDock/src/rDock_2013.1_src/data/scripts/dock_solv.prm

>  <Rbt.Receptor>
prm/pocket_docking_7.prm

>  <SCORE>
-5.37885

>  <SCORE.INTER>
-0.549812

>  <SCORE.INTER.CONST>
1

>  <SCORE.INTER.POLAR>
0

>  <SCORE.INTER.ROT>
6

>  <SCORE.INTER.SOLV>
13.5612

>  <SCORE.INTER.VDW>
-12.487

>  <SCORE.INTER.norm>
-0.0177359

>  <SCORE.INTRA>
-4.82904

>  <SCORE.INTRA.DIHEDRAL>
-9.75593

>  <SCORE.INTRA.DIHEDRAL.0>
11.2357

>  <SCORE.INTRA.POLAR>
0

>  <SCORE.INTRA.POLAR.0>
0

>  <SCORE.INTRA.REPUL>
0

>  <SCORE.INTRA.REPUL.0>
0

>  <SCORE.INTRA.SOLV>
-3.04499

>  <SCORE.INTRA.SOLV.lig_0>
-83.3092

>  <SCORE.INTRA.VDW>
1.57142

>  <SCORE.INTRA.VDW.0>
-4.47057

>  <SCORE.INTRA.norm>
-0.155775

>  <SCORE.RESTR>
0

>  <SCORE.RESTR.CAVITY>
0

>  <SCORE.RESTR.norm>
0

>  <SCORE.SYSTEM>
0

>  <SCORE.SYSTEM.CONST>
0

>  <SCORE.SYSTEM.DIHEDRAL>
0

>  <SCORE.SYSTEM.SOLV>
0

>  <SCORE.SYSTEM.norm>
0

>  <SCORE.heavy>
31

>  <SCORE.norm>
-0.173511

>  <RMSD>
9.202

$$$$
ligand
 OpenBabel11021811433D
libRbt.so/2013.1/901 2013/11/27
 31 33  0  0  0  0  0  0  0  0999 V2000
   46.0490   17.0208   -5.7715 C   0  0  0  0  0  0  0  0  0  0  0  0
   41.5340   13.8721   -1.1569 N   0  0  0  0  0  0  0  0  0  0  0  0
   45.8496   18.3419   -6.2955 O   0  0  0  0  0  0  0  0  0  0  0  0
   46.9964   17.2208   -4.5915 C   0  0  1  0  0  0  0  0  0  0  0  0
   41.8885   17.6780    2.1774 N   0  0  0  0  0  0  0  0  0  0  0  0
   46.4602   18.1139   -3.4875 O   0  0  0  0  0  0  0  0  0  0  0  0
   46.0932   17.4268   -2.3537 C   0  0  1  0  0  0  0  0  0  0  0  0
   48.3982   18.8214    2.2089 N   0  0  0  0  0  0  0  0  0  0  0  0
   44.8352   17.6980   -1.8012 O   0  0  0  0  0  0  0  0  0  0  0  0
   44.1821   16.8221   -0.7706 C   0  0  2  0  0  0  0  0  0  0  0  0
   42.0984   20.1990    2.2081 N   0  0  0  0  0  0  0  0  0  0  0  0
   43.9977   14.9933   -2.4478 O   0  0  0  0  0  0  0  0  0  0  0  0
   43.2315   15.8309   -1.5051 C   0  0  1  0  0  0  0  0  0  0  0  0
   44.1940   18.5518    0.9143 O   0  0  0  0  0  0  0  0  0  0  0  0
   42.4917   14.8752   -0.4412 C   0  0  1  0  0  0  0  0  0  0  0  0
   45.6249   19.0051    2.7615 O   0  0  0  0  0  0  0  0  0  0  0  0
   41.6765   15.8058    0.5586 C   0  0  0  0  0  0  0  0  0  0  0  0
   46.3999   22.5473    1.9113 O   0  0  0  0  0  0  0  0  0  0  0  0
   42.6882   16.8117    1.2493 C   0  0  1  0  0  0  0  0  0  0  0  0
   43.5876   22.7363    2.3692 O   0  0  0  0  0  0  0  0  0  0  0  0
   43.3365   17.7114    0.2459 C   0  0  2  0  0  0  0  0  0  0  0  0
   46.6692   15.2712   -1.5104 O   0  0  0  0  0  0  0  0  0  0  0  0
   44.1904   18.8924    2.3245 C   0  0  1  0  0  0  0  0  0  0  0  0
   48.7150   16.1648   -3.1469 O   0  0  0  0  0  0  0  0  0  0  0  0
   46.4201   20.1406    2.1315 C   0  0  2  0  0  0  0  0  0  0  0  0
   47.8550   20.1110    2.6448 C   0  0  0  0  0  0  0  0  0  0  0  0
   45.7136   21.4690    2.4879 C   0  0  2  0  0  0  0  0  0  0  0  0
   44.2726   21.4608    2.0054 C   0  0  1  0  0  0  0  0  0  0  0  0
   43.5469   20.2650    2.6495 C   0  0  1  0  0  0  0  0  0  0  0  0
   46.3441   15.9599   -2.6633 C   0  0  2  0  0  0  0  0  0  0  0  0
   47.4223   15.9827   -3.7940 C   0  0  1  0  0  0  0  0  0  0  0  0
  1  3  1  0  0  0  0
  4  1  1  6  0  0  0
  4  6  1  0  0  0  0
  4 31  1  0  0  0  0
  6  7  1  0  0  0  0
  7  9  1  6  0  0  0
  7 30  1  0  0  0  0
  8 26  1  0  0  0  0
 10  9  1  6  0  0  0
 10 13  1  0  0  0  0
 10 21  1  0  0  0  0
 13 12  1  6  0  0  0
 13 15  1  0  0  0  0
 15  2  1  6  0  0  0
 15 17  1  0  0  0  0
 16 25  1  0  0  0  0
 16 23  1  0  0  0  0
 17 19  1  0  0  0  0
 19  5  1  1  0  0  0
 19 21  1  0  0  0  0
 21 14  1  1  0  0  0
 23 14  1  6  0  0  0
 23 29  1  0  0  0  0
 25 26  1  1  0  0  0
 25 27  1  0  0  0  0
 27 18  1  6  0  0  0
 27 28  1  0  0  0  0
 28 20  1  1  0  0  0
 28 29  1  0  0  0  0
 29 11  1  6  0  0  0
 30 22  1  1  0  0  0
 30 31  1  0  0  0  0
 31 24  1  1  0  0  0
M  END
>  <CHROM.1>
60.77833981,165.73143920,-94.86548405,142.75860566,-138.02257495,61.75556528
44.96441283,18.01165245,-0.38825077,-1.38228388,0.57200696,0.85882892

>  <Name>
ligand

>  <RI>
0

>  <Rbt.Current_Directory>
/home/itssahil/PROJECTS/Mol_Feturizer/New_Systems/rnas/2ET5

>  <Rbt.Executable>
rbdock ($Id: //depot/dev/client3/rdock/2013.1/src/exe/rbdock.cxx#4 $)

>  <Rbt.Library>
libRbt.so (2013.1, Build901 2013/11/27)

>  <Rbt.Parameter_File>
/export/apps/rDock/src/rDock_2013.1_src/data/scripts/dock_solv.prm

>  <Rbt.Receptor>
prm/blind_docking_60.prm

>  <SCORE>
22.9498

>  <SCORE.INTER>
-3.27332

>  <SCORE.INTER.CONST>
1

>  <SCORE.INTER.POLAR>
0

>  <SCORE.INTER.ROT>
6

>  <SCORE.INTER.SOLV>
25.8207

>  <SCORE.INTER.VDW>
-18.3891

>  <SCORE.INTER.norm>
-0.105591

>  <SCORE.INTRA>
8.9933

>  <SCORE.INTRA.DIHEDRAL>
4.93797

>  <SCORE.INTRA.DIHEDRAL.0>
11.2357

>  <SCORE.INTRA.POLAR>
0

>  <SCORE.INTRA.POLAR.0>
0

>  <SCORE.INTRA.REPUL>
0

>  <SCORE.INTRA.REPUL.0>
0

>  <SCORE.INTRA.SOLV>
1.16333

>  <SCORE.INTRA.SOLV.lig_0>
-83.3092

>  <SCORE.INTRA.VDW>
5.94265

>  <SCORE.INTRA.VDW.0>
-4.47057

>  <SCORE.INTRA.norm>
0.290106

>  <SCORE.RESTR>
17.2298

>  <SCORE.RESTR.CAVITY>
17.2298

>  <SCORE.RESTR.norm>
0.555799

>  <SCORE.SYSTEM>
0

>  <SCORE.SYSTEM.CONST>
0

>  <SCORE.SYSTEM.DIHEDRAL>
0

>  <SCORE.SYSTEM.SOLV>
0

>  <SCORE.SYSTEM.norm>
0

>  <SCORE.heavy>
31

>  <SCORE.norm>
0.740315

>  <RMSD>
9.230

$$$$
ligand
 OpenBabel11021811433D
libRbt.so/2013.1/901 2013/11/27
 31 33  0  0  0  0  0  0  0  0999 V2000
   46.2315   14.4701   -3.3696 C   0  0  0  0  0  0  0  0  0  0  0  0
   44.4684   13.0173    0.1660 N   0  0  0  0  0  0  0  0  0  0  0  0
   46.5236   13.7934   -4.6010 O   0  0  0  0  0  0  0  0  0  0  0  0
   45.5957   15.7882   -3.8039 C   0  0  1  0  0  0  0  0  0  0  0  0
   41.5449   16.9178    1.5686 N   0  0  0  0  0  0  0  0  0  0  0  0
   44.8834   16.5471   -2.6990 O   0  0  0  0  0  0  0  0  0  0  0  0
   45.5641   17.6633   -2.2713 C   0  0  1  0  0  0  0  0  0  0  0  0
   47.8195   18.2170    1.9930 N   0  0  0  0  0  0  0  0  0  0  0  0
   45.7417   17.8348   -0.8928 O   0  0  0  0  0  0  0  0  0  0  0  0
   45.0991   16.9499    0.1368 C   0  0  2  0  0  0  0  0  0  0  0  0
   41.8763   20.7693    2.0948 N   0  0  0  0  0  0  0  0  0  0  0  0
   46.5296   15.0542   -0.6058 O   0  0  0  0  0  0  0  0  0  0  0  0
   45.1348   15.4845   -0.3894 C   0  0  1  0  0  0  0  0  0  0  0  0
   43.5730   18.6711    0.8712 O   0  0  0  0  0  0  0  0  0  0  0  0
   44.4423   14.4929    0.6735 C   0  0  1  0  0  0  0  0  0  0  0  0
   45.1173   18.9411    2.6622 O   0  0  0  0  0  0  0  0  0  0  0  0
   42.9436   14.9821    0.8848 C   0  0  0  0  0  0  0  0  0  0  0  0
   46.5424   22.2074    1.5798 O   0  0  0  0  0  0  0  0  0  0  0  0
   42.9702   16.4853    1.3872 C   0  0  1  0  0  0  0  0  0  0  0  0
   43.8350   22.9703    2.0722 O   0  0  0  0  0  0  0  0  0  0  0  0
   43.5860   17.3919    0.3696 C   0  0  2  0  0  0  0  0  0  0  0  0
   47.2697   18.9995   -3.2688 O   0  0  0  0  0  0  0  0  0  0  0  0
   43.6763   19.0869    2.2573 C   0  0  1  0  0  0  0  0  0  0  0  0
   45.8084   17.7745   -5.2753 O   0  0  0  0  0  0  0  0  0  0  0  0
   46.0998   19.8603    1.9493 C   0  0  2  0  0  0  0  0  0  0  0  0
   47.5157   19.5796    2.4393 C   0  0  0  0  0  0  0  0  0  0  0  0
   45.6761   21.3198    2.2339 C   0  0  2  0  0  0  0  0  0  0  0  0
   44.2478   21.5664    1.7773 C   0  0  1  0  0  0  0  0  0  0  0  0
   43.3219   20.5754    2.5068 C   0  0  1  0  0  0  0  0  0  0  0  0
   46.8491   17.6966   -3.0826 C   0  0  2  0  0  0  0  0  0  0  0  0
   46.5144   16.8771   -4.3702 C   0  0  1  0  0  0  0  0  0  0  0  0
  1  3  1  0  0  0  0
  4  1  1  1  0  0  0
  4  6  1  0  0  0  0
  4 31  1  0  0  0  0
  6  7  1  0  0  0  0
  7  9  1  1  0  0  0
  7 30  1  0  0  0  0
  8 26  1  0  0  0  0
 10  9  1  6  0  0  0
 10 13  1  0  0  0  0
 10 21  1  0  0  0  0
 13 12  1  1  0  0  0
 13 15  1  0  0  0  0
 15  2  1  6  0  0  0
 15 17  1  0  0  0  0
 16 25  1  0  0  0  0
 16 23  1  0  0  0  0
 17 19  1  0  0  0  0
 19  5  1  6  0  0  0
 19 21  1  0  0  0  0
 21 14  1  1  0  0  0
 23 14  1  6  0  0  0
 23 29  1  0  0  0  0
 25 26  1  1  0  0  0
 25 27  1  0  0  0  0
 27 18  1  6  0  0  0
 27 28  1  0  0  0  0
 28 20  1  1  0  0  0
 28 29  1  0  0  0  0
 29 11  1  6  0  0  0
 30 22  1  6  0  0  0
 30 31  1  0  0  0  0
 31 24  1  6  0  0  0
M  END
>  <CHROM.1>
165.64557366,-7.05139709,39.08865284,75.85156722,-86.49662319,65.60729100
45.09284423,17.82280407,-0.20380407,-1.24484427,0.94610384,0.52592318

>  <Name>
ligand

>  <RI>
0

>  <Rbt.Current_Directory>
/home/itssahil/PROJECTS/Mol_Feturizer/New_Systems/rnas/2ET5

>  <Rbt.Executable>
rbdock ($Id: //depot/dev/client3/rdock/2013.1/src/exe/rbdock.cxx#4 $)

>  <Rbt.Library>
libRbt.so (2013.1, Build901 2013/11/27)

>  <Rbt.Parameter_File>
/export/apps/rDock/src/rDock_2013.1_src/data/scripts/dock_solv.prm

>  <Rbt.Receptor>
prm/blind_docking_60.prm

>  <SCORE>
48.9845

>  <SCORE.INTER>
24.1244

>  <SCORE.INTER.CONST>
1

>  <SCORE.INTER.POLAR>
0

>  <SCORE.INTER.ROT>
6

>  <SCORE.INTER.SOLV>
24.986

>  <SCORE.INTER.VDW>
0.154292

>  <SCORE.INTER.norm>
0.778207

>  <SCORE.INTRA>
4.29938

>  <SCORE.INTRA.DIHEDRAL>
2.54937

>  <SCORE.INTRA.DIHEDRAL.0>
11.2357

>  <SCORE.INTRA.POLAR>
0

>  <SCORE.INTRA.POLAR.0>
0

>  <SCORE.INTRA.REPUL>
0

>  <SCORE.INTRA.REPUL.0>
0

>  <SCORE.INTRA.SOLV>
-0.513789

>  <SCORE.INTRA.SOLV.lig_0>
-83.3092

>  <SCORE.INTRA.VDW>
3.28159

>  <SCORE.INTRA.VDW.0>
-4.47057

>  <SCORE.INTRA.norm>
0.13869

>  <SCORE.RESTR>
20.5607

>  <SCORE.RESTR.CAVITY>
20.5607

>  <SCORE.RESTR.norm>
0.66325

>  <SCORE.SYSTEM>
0

>  <SCORE.SYSTEM.CONST>
0

>  <SCORE.SYSTEM.DIHEDRAL>
0

>  <SCORE.SYSTEM.SOLV>
0

>  <SCORE.SYSTEM.norm>
0

>  <SCORE.heavy>
31

>  <SCORE.norm>
1.58015

>  <RMSD>
9.332

$$$$
ligand
 OpenBabel11021811433D
libRbt.so/2013.1/901 2013/11/27
 31 33  0  0  0  0  0  0  0  0999 V2000
   33.1158   25.3667    2.6085 C   0  0  0  0  0  0  0  0  0  0  0  0
   37.4819   29.6419   -0.6205 N   0  0  0  0  0  0  0  0  0  0  0  0
   32.4720   24.0957    2.7810 O   0  0  0  0  0  0  0  0  0  0  0  0
   34.6037   25.0607    2.7595 C   0  0  1  0  0  0  0  0  0  0  0  0
   40.5921   29.8410    3.3815 N   0  0  0  0  0  0  0  0  0  0  0  0
   35.5225   26.2539    2.5695 O   0  0  0  0  0  0  0  0  0  0  0  0
   36.0719   26.7173    3.7424 C   0  0  1  0  0  0  0  0  0  0  0  0
   34.0186   30.9799    6.7487 N   0  0  0  0  0  0  0  0  0  0  0  0
   36.0019   28.0920    4.0009 O   0  0  0  0  0  0  0  0  0  0  0  0
   36.8320   29.1102    3.2729 C   0  0  2  0  0  0  0  0  0  0  0  0
   39.9217   30.4236    7.3527 N   0  0  0  0  0  0  0  0  0  0  0  0
   35.2995   28.9562    1.3186 O   0  0  0  0  0  0  0  0  0  0  0  0
   36.7074   28.8380    1.7446 C   0  0  1  0  0  0  0  0  0  0  0  0
   38.4579   29.2660    5.0514 O   0  0  0  0  0  0  0  0  0  0  0  0
   37.5935   29.8962    0.9152 C   0  0  1  0  0  0  0  0  0  0  0  0
   36.5507   30.5425    5.6824 O   0  0  0  0  0  0  0  0  0  0  0  0
   39.1021   29.7444    1.3962 C   0  0  0  0  0  0  0  0  0  0  0  0
   35.5867   28.5261    8.6615 O   0  0  0  0  0  0  0  0  0  0  0  0
   39.1609   29.9991    2.9596 C   0  0  1  0  0  0  0  0  0  0  0  0
   38.1365   29.4958    9.5054 O   0  0  0  0  0  0  0  0  0  0  0  0
   38.3591   28.9840    3.7102 C   0  0  2  0  0  0  0  0  0  0  0  0
   36.3948   25.7177    5.8838 O   0  0  0  0  0  0  0  0  0  0  0  0
   38.0519   30.4762    5.7408 C   0  0  1  0  0  0  0  0  0  0  0  0
   36.3030   23.7190    3.9711 O   0  0  0  0  0  0  0  0  0  0  0  0
   35.8112   29.4470    6.4384 C   0  0  2  0  0  0  0  0  0  0  0  0
   34.3075   29.6268    6.2650 C   0  0  0  0  0  0  0  0  0  0  0  0
   36.2287   29.5316    7.9247 C   0  0  2  0  0  0  0  0  0  0  0  0
   37.7349   29.3931    8.0713 C   0  0  1  0  0  0  0  0  0  0  0  0
   38.4118   30.5050    7.2486 C   0  0  1  0  0  0  0  0  0  0  0  0
   35.4966   25.8380    4.8408 C   0  0  2  0  0  0  0  0  0  0  0  0
   35.0927   24.5187    4.1076 C   0  0  1  0  0  0  0  0  0  0  0  0
  1  3  1  0  0  0  0
  4  1  1  1  0  0  0
  4  6  1  0  0  0  0
  4 31  1  0  0  0  0
  6  7  1  0  0  0  0
  7  9  1  1  0  0  0
  7 30  1  0  0  0  0
  8 26  1  0  0  0  0
 10  9  1  1  0  0  0
 10 13  1  0  0  0  0
 10 21  1  0  0  0  0
 13 12  1  6  0  0  0
 13 15  1  0  0  0  0
 15  2  1  6  0  0  0
 15 17  1  0  0  0  0
 16 25  1  0  0  0  0
 16 23  1  0  0  0  0
 17 19  1  0  0  0  0
 19  5  1  1  0  0  0
 19 21  1  0  0  0  0
 21 14  1  1  0  0  0
 23 14  1  1  0  0  0
 23 29  1  0  0  0  0
 25 26  1  1  0  0  0
 25 27  1  0  0  0  0
 27 18  1  1  0  0  0
 27 28  1  0  0  0  0
 28 20  1  1  0  0  0
 28 29  1  0  0  0  0
 29 11  1  6  0  0  0
 30 22  1  1  0  0  0
 30 31  1  0  0  0  0
 31 24  1  6  0  0  0
M  END
>  <CHROM.1>
177.99641547,-72.61150866,49.07349685,67.85719861,-57.53437170,-56.98342482
36.59369365,28.29902261,4.53580974,2.27561835,-0.84441667,-1.76567210

>  <Name>
ligand

>  <RI>
0

>  <Rbt.Current_Directory>
/home/itssahil/PROJECTS/Mol_Feturizer/New_Systems/rnas/2ET5

>  <Rbt.Executable>
rbdock ($Id: //depot/dev/client3/rdock/2013.1/src/exe/rbdock.cxx#4 $)

>  <Rbt.Library>
libRbt.so (2013.1, Build901 2013/11/27)

>  <Rbt.Parameter_File>
/export/apps/rDock/src/rDock_2013.1_src/data/scripts/dock_solv.prm

>  <Rbt.Receptor>
prm/pocket_docking_8.prm

>  <SCORE>
-10.5581

>  <SCORE.INTER>
-6.57083

>  <SCORE.INTER.CONST>
1

>  <SCORE.INTER.POLAR>
0

>  <SCORE.INTER.ROT>
6

>  <SCORE.INTER.SOLV>
12.9339

>  <SCORE.INTER.VDW>
-16.2918

>  <SCORE.INTER.norm>
-0.211962

>  <SCORE.INTRA>
-3.98727

>  <SCORE.INTRA.DIHEDRAL>
-9.40786

>  <SCORE.INTRA.DIHEDRAL.0>
11.2357

>  <SCORE.INTRA.POLAR>
0

>  <SCORE.INTRA.POLAR.0>
0

>  <SCORE.INTRA.REPUL>
0

>  <SCORE.INTRA.REPUL.0>
0

>  <SCORE.INTRA.SOLV>
-1.37699

>  <SCORE.INTRA.SOLV.lig_0>
-83.3092

>  <SCORE.INTRA.VDW>
1.40515

>  <SCORE.INTRA.VDW.0>
-4.47057

>  <SCORE.INTRA.norm>
-0.128622

>  <SCORE.RESTR>
0

>  <SCORE.RESTR.CAVITY>
0

>  <SCORE.RESTR.norm>
0

>  <SCORE.SYSTEM>
0

>  <SCORE.SYSTEM.CONST>
0

>  <SCORE.SYSTEM.DIHEDRAL>
0

>  <SCORE.SYSTEM.SOLV>
0

>  <SCORE.SYSTEM.norm>
0

>  <SCORE.heavy>
31

>  <SCORE.norm>
-0.340584

>  <RMSD>
9.334

$$$$
ligand
 OpenBabel11021811433D
libRbt.so/2013.1/901 2013/11/27
 31 33  0  0  0  0  0  0  0  0999 V2000
   49.2635   17.0607   -2.3465 C   0  0  0  0  0  0  0  0  0  0  0  0
   41.8845   13.3668   -0.5052 N   0  0  0  0  0  0  0  0  0  0  0  0
   49.2530   18.2004   -3.2186 O   0  0  0  0  0  0  0  0  0  0  0  0
   48.2620   16.0948   -2.9741 C   0  0  1  0  0  0  0  0  0  0  0  0
   41.6950   17.8649    1.8314 N   0  0  0  0  0  0  0  0  0  0  0  0
   47.0359   15.8077   -2.1265 O   0  0  0  0  0  0  0  0  0  0  0  0
   45.8917   16.4134   -2.5914 C   0  0  1  0  0  0  0  0  0  0  0  0
   47.5110   16.6045    3.2363 N   0  0  0  0  0  0  0  0  0  0  0  0
   45.1113   17.1307   -1.6760 O   0  0  0  0  0  0  0  0  0  0  0  0
   44.3646   16.4831   -0.5452 C   0  0  2  0  0  0  0  0  0  0  0  0
   43.6569   21.4762    0.9037 N   0  0  0  0  0  0  0  0  0  0  0  0
   44.4510   14.3032   -1.7419 O   0  0  0  0  0  0  0  0  0  0  0  0
   43.5461   15.2900   -1.1215 C   0  0  1  0  0  0  0  0  0  0  0  0
   44.1094   18.5580    0.6634 O   0  0  0  0  0  0  0  0  0  0  0  0
   42.7119   14.5675    0.0510 C   0  0  1  0  0  0  0  0  0  0  0  0
   44.6926   18.5057    2.9704 O   0  0  0  0  0  0  0  0  0  0  0  0
   41.7482   15.6548    0.6984 C   0  0  0  0  0  0  0  0  0  0  0  0
   48.0363   20.1159    2.6575 O   0  0  0  0  0  0  0  0  0  0  0  0
   42.6323   16.8558    1.2358 C   0  0  1  0  0  0  0  0  0  0  0  0
   46.3565   22.2560    1.7901 O   0  0  0  0  0  0  0  0  0  0  0  0
   43.3701   17.5325    0.1249 C   0  0  2  0  0  0  0  0  0  0  0  0
   45.2758   17.2883   -4.7232 O   0  0  0  0  0  0  0  0  0  0  0  0
   43.8998   19.2416    1.9257 C   0  0  1  0  0  0  0  0  0  0  0  0
   47.2017   15.3331   -5.0839 O   0  0  0  0  0  0  0  0  0  0  0  0
   46.2053   18.5449    2.8007 C   0  0  2  0  0  0  0  0  0  0  0  0
   46.8689   17.7369    3.9098 C   0  0  0  0  0  0  0  0  0  0  0  0
   46.6477   20.0261    2.8306 C   0  0  2  0  0  0  0  0  0  0  0  0
   45.9426   20.8224    1.7452 C   0  0  1  0  0  0  0  0  0  0  0  0
   44.4222   20.7009    1.9575 C   0  0  1  0  0  0  0  0  0  0  0  0
   46.3158   17.2059   -3.8172 C   0  0  2  0  0  0  0  0  0  0  0  0
   47.6173   16.4934   -4.3067 C   0  0  1  0  0  0  0  0  0  0  0  0
  1  3  1  0  0  0  0
  4  1  1  1  0  0  0
  4  6  1  0  0  0  0
  4 31  1  0  0  0  0
  6  7  1  0  0  0  0
  7  9  1  1  0  0  0
  7 30  1  0  0  0  0
  8 26  1  0  0  0  0
 10  9  1  6  0  0  0
 10 13  1  0  0  0  0
 10 21  1  0  0  0  0
 13 12  1  1  0  0  0
 13 15  1  0  0  0  0
 15  2  1  6  0  0  0
 15 17  1  0  0  0  0
 16 25  1  0  0  0  0
 16 23  1  0  0  0  0
 17 19  1  0  0  0  0
 19  5  1  6  0  0  0
 19 21  1  0  0  0  0
 21 14  1  1  0  0  0
 23 14  1  6  0  0  0
 23 29  1  0  0  0  0
 25 26  1  1  0  0  0
 25 27  1  0  0  0  0
 27 18  1  6  0  0  0
 27 28  1  0  0  0  0
 28 20  1  1  0  0  0
 28 29  1  0  0  0  0
 29 11  1  6  0  0  0
 30 22  1  6  0  0  0
 30 31  1  0  0  0  0
 31 24  1  6  0  0  0
M  END
>  <CHROM.1>
-115.56870523,-67.10422481,-49.77109356,90.57825104,-139.64598483,114.53184813
45.39744935,17.54131839,-0.21454635,-1.35848653,0.52147453,0.91012640

>  <Name>
ligand

>  <RI>
0

>  <Rbt.Current_Directory>
/home/itssahil/PROJECTS/Mol_Feturizer/New_Systems/rnas/2ET5

>  <Rbt.Executable>
rbdock ($Id: //depot/dev/client3/rdock/2013.1/src/exe/rbdock.cxx#4 $)

>  <Rbt.Library>
libRbt.so (2013.1, Build901 2013/11/27)

>  <Rbt.Parameter_File>
/export/apps/rDock/src/rDock_2013.1_src/data/scripts/dock_solv.prm

>  <Rbt.Receptor>
prm/blind_docking_60.prm

>  <SCORE>
37.1915

>  <SCORE.INTER>
7.92278

>  <SCORE.INTER.CONST>
1

>  <SCORE.INTER.POLAR>
0

>  <SCORE.INTER.ROT>
6

>  <SCORE.INTER.SOLV>
22.4165

>  <SCORE.INTER.VDW>
-9.7903

>  <SCORE.INTER.norm>
0.255574

>  <SCORE.INTRA>
9.25256

>  <SCORE.INTRA.DIHEDRAL>
9.1395

>  <SCORE.INTRA.DIHEDRAL.0>
11.2357

>  <SCORE.INTRA.POLAR>
0

>  <SCORE.INTRA.POLAR.0>
0

>  <SCORE.INTRA.REPUL>
0

>  <SCORE.INTRA.REPUL.0>
0

>  <SCORE.INTRA.SOLV>
-2.09909

>  <SCORE.INTRA.SOLV.lig_0>
-83.3092

>  <SCORE.INTRA.VDW>
5.73236

>  <SCORE.INTRA.VDW.0>
-4.47057

>  <SCORE.INTRA.norm>
0.29847

>  <SCORE.RESTR>
20.0161

>  <SCORE.RESTR.CAVITY>
20.0161

>  <SCORE.RESTR.norm>
0.645682

>  <SCORE.SYSTEM>
0

>  <SCORE.SYSTEM.CONST>
0

>  <SCORE.SYSTEM.DIHEDRAL>
0

>  <SCORE.SYSTEM.SOLV>
0

>  <SCORE.SYSTEM.norm>
0

>  <SCORE.heavy>
31

>  <SCORE.norm>
1.19973

>  <RMSD>
9.344

$$$$
ligand
 OpenBabel11021811433D
libRbt.so/2013.1/901 2013/11/27
 31 33  0  0  0  0  0  0  0  0999 V2000
   46.2592   16.1000   -5.6347 C   0  0  0  0  0  0  0  0  0  0  0  0
   42.2373   13.9808   -2.2004 N   0  0  0  0  0  0  0  0  0  0  0  0
   46.9747   14.8755   -5.8546 O   0  0  0  0  0  0  0  0  0  0  0  0
   47.2150   16.9528   -4.8045 C   0  0  1  0  0  0  0  0  0  0  0  0
   41.8427   17.4568    1.4725 N   0  0  0  0  0  0  0  0  0  0  0  0
   46.5595   18.0973   -4.0531 O   0  0  0  0  0  0  0  0  0  0  0  0
   46.4655   17.8830   -2.6976 C   0  0  1  0  0  0  0  0  0  0  0  0
   47.9837   18.6243    3.4087 N   0  0  0  0  0  0  0  0  0  0  0  0
   45.2265   18.1041   -2.0832 O   0  0  0  0  0  0  0  0  0  0  0  0
   44.5389   17.0816   -1.2245 C   0  0  2  0  0  0  0  0  0  0  0  0
   42.1631   19.8069    2.4055 N   0  0  0  0  0  0  0  0  0  0  0  0
   44.7235   15.4176   -3.0653 O   0  0  0  0  0  0  0  0  0  0  0  0
   43.7771   16.0943   -2.1576 C   0  0  1  0  0  0  0  0  0  0  0  0
   44.1919   18.6326    0.5934 O   0  0  0  0  0  0  0  0  0  0  0  0
   43.0072   14.9823   -1.2839 C   0  0  1  0  0  0  0  0  0  0  0  0
   45.7287   18.6008    2.4106 O   0  0  0  0  0  0  0  0  0  0  0  0
   41.9971   15.7418   -0.3179 C   0  0  0  0  0  0  0  0  0  0  0  0
   46.4147   22.2597    2.5242 O   0  0  0  0  0  0  0  0  0  0  0  0
   42.8231   16.7529    0.5810 C   0  0  1  0  0  0  0  0  0  0  0  0
   43.6340   22.2417    3.1736 O   0  0  0  0  0  0  0  0  0  0  0  0
   43.5006   17.7960   -0.2494 C   0  0  2  0  0  0  0  0  0  0  0  0
   47.6269   16.4296   -1.2048 O   0  0  0  0  0  0  0  0  0  0  0  0
   44.2713   18.5742    2.0408 C   0  0  1  0  0  0  0  0  0  0  0  0
   49.2502   16.9511   -3.3855 O   0  0  0  0  0  0  0  0  0  0  0  0
   46.4723   19.8860    2.0732 C   0  0  2  0  0  0  0  0  0  0  0  0
   47.9362   19.7550    2.4772 C   0  0  0  0  0  0  0  0  0  0  0  0
   45.7758   21.0470    2.8199 C   0  0  2  0  0  0  0  0  0  0  0  0
   44.3081   21.1330    2.4355 C   0  0  1  0  0  0  0  0  0  0  0  0
   43.6352   19.7878    2.7660 C   0  0  1  0  0  0  0  0  0  0  0  0
   47.0512   16.5007   -2.4589 C   0  0  2  0  0  0  0  0  0  0  0  0
   47.9981   16.2663   -3.6794 C   0  0  1  0  0  0  0  0  0  0  0  0
  1  3  1  0  0  0  0
  4  1  1  1  0  0  0
  4  6  1  0  0  0  0
  4 31  1  0  0  0  0
  6  7  1  0  0  0  0
  7  9  1  6  0  0  0
  7 30  1  0  0  0  0
  8 26  1  0  0  0  0
 10  9  1  6  0  0  0
 10 13  1  0  0  0  0
 10 21  1  0  0  0  0
 13 12  1  6  0  0  0
 13 15  1  0  0  0  0
 15  2  1  6  0  0  0
 15 17  1  0  0  0  0
 16 25  1  0  0  0  0
 16 23  1  0  0  0  0
 17 19  1  0  0  0  0
 19  5  1  1  0  0  0
 19 21  1  0  0  0  0
 21 14  1  1  0  0  0
 23 14  1  6  0  0  0
 23 29  1  0  0  0  0
 25 26  1  1  0  0  0
 25 27  1  0  0  0  0
 27 18  1  6  0  0  0
 27 28  1  0  0  0  0
 28 20  1  1  0  0  0
 28 29  1  0  0  0  0
 29 11  1  6  0  0  0
 30 22  1  1  0  0  0
 30 31  1  0  0  0  0
 31 24  1  1  0  0  0
M  END
>  <CHROM.1>
-160.80635952,126.93535833,-82.63403316,128.25132365,-118.78206497,-17.39407899
45.25449812,17.87684515,-0.51921131,-1.36769884,0.36757396,0.91957226

>  <Name>
ligand

>  <RI>
0

>  <Rbt.Current_Directory>
/home/itssahil/PROJECTS/Mol_Feturizer/New_Systems/rnas/2ET5

>  <Rbt.Executable>
rbdock ($Id: //depot/dev/client3/rdock/2013.1/src/exe/rbdock.cxx#4 $)

>  <Rbt.Library>
libRbt.so (2013.1, Build901 2013/11/27)

>  <Rbt.Parameter_File>
/export/apps/rDock/src/rDock_2013.1_src/data/scripts/dock_solv.prm

>  <Rbt.Receptor>
prm/blind_docking_60.prm

>  <SCORE>
25.2053

>  <SCORE.INTER>
-7.51748

>  <SCORE.INTER.CONST>
1

>  <SCORE.INTER.POLAR>
0

>  <SCORE.INTER.ROT>
6

>  <SCORE.INTER.SOLV>
24.9755

>  <SCORE.INTER.VDW>
-20.9368

>  <SCORE.INTER.norm>
-0.242499

>  <SCORE.INTRA>
15.8025

>  <SCORE.INTRA.DIHEDRAL>
17.3965

>  <SCORE.INTRA.DIHEDRAL.0>
11.2357

>  <SCORE.INTRA.POLAR>
0

>  <SCORE.INTRA.POLAR.0>
0

>  <SCORE.INTRA.REPUL>
0

>  <SCORE.INTRA.REPUL.0>
0

>  <SCORE.INTRA.SOLV>
2.32978

>  <SCORE.INTRA.SOLV.lig_0>
-83.3092

>  <SCORE.INTRA.VDW>
5.93935

>  <SCORE.INTRA.VDW.0>
-4.47057

>  <SCORE.INTRA.norm>
0.509758

>  <SCORE.RESTR>
16.9202

>  <SCORE.RESTR.CAVITY>
16.9202

>  <SCORE.RESTR.norm>
0.545814

>  <SCORE.SYSTEM>
0

>  <SCORE.SYSTEM.CONST>
0

>  <SCORE.SYSTEM.DIHEDRAL>
0

>  <SCORE.SYSTEM.SOLV>
0

>  <SCORE.SYSTEM.norm>
0

>  <SCORE.heavy>
31

>  <SCORE.norm>
0.813073

>  <RMSD>
9.384

$$$$
ligand
 OpenBabel11021811433D
libRbt.so/2013.1/901 2013/11/27
 31 33  0  0  0  0  0  0  0  0999 V2000
   46.0601   14.4722   -3.7039 C   0  0  0  0  0  0  0  0  0  0  0  0
   47.8606   16.4640    4.3819 N   0  0  0  0  0  0  0  0  0  0  0  0
   46.9806   14.3542   -4.7986 O   0  0  0  0  0  0  0  0  0  0  0  0
   45.6944   15.9540   -3.6751 C   0  0  1  0  0  0  0  0  0  0  0  0
   45.2103   20.5518    2.9696 N   0  0  0  0  0  0  0  0  0  0  0  0
   44.9378   16.4001   -2.4371 O   0  0  0  0  0  0  0  0  0  0  0  0
   45.6981   17.1462   -1.5669 C   0  0  1  0  0  0  0  0  0  0  0  0
   43.3207   15.5749   -0.1248 N   0  0  0  0  0  0  0  0  0  0  0  0
   45.6849   16.7889   -0.2128 O   0  0  0  0  0  0  0  0  0  0  0  0
   46.3851   17.5801    0.8547 C   0  0  2  0  0  0  0  0  0  0  0  0
   43.5124   22.0024    0.9299 N   0  0  0  0  0  0  0  0  0  0  0  0
   47.6392   15.5421    1.5368 O   0  0  0  0  0  0  0  0  0  0  0  0
   46.7463   16.6128    2.0206 C   0  0  1  0  0  0  0  0  0  0  0  0
   45.1499   19.5976    0.3696 O   0  0  0  0  0  0  0  0  0  0  0  0
   47.4882   17.4159    3.2026 C   0  0  1  0  0  0  0  0  0  0  0  0
   43.2072   18.5355   -0.5037 O   0  0  0  0  0  0  0  0  0  0  0  0
   46.5024   18.5604    3.7013 C   0  0  0  0  0  0  0  0  0  0  0  0
   41.4996   17.9090    2.7463 O   0  0  0  0  0  0  0  0  0  0  0  0
   46.1452   19.4906    2.4685 C   0  0  1  0  0  0  0  0  0  0  0  0
   41.5371   20.7643    2.7319 O   0  0  0  0  0  0  0  0  0  0  0  0
   45.4267   18.7308    1.3994 C   0  0  2  0  0  0  0  0  0  0  0  0
   47.7106   18.3971   -1.8399 O   0  0  0  0  0  0  0  0  0  0  0  0
   43.8663   19.8635   -0.2520 C   0  0  1  0  0  0  0  0  0  0  0  0
   46.4135   18.2500   -4.2808 O   0  0  0  0  0  0  0  0  0  0  0  0
   42.8334   17.7376    0.7382 C   0  0  2  0  0  0  0  0  0  0  0  0
   42.2052   16.4108    0.3279 C   0  0  0  0  0  0  0  0  0  0  0  0
   41.8587   18.5955    1.5775 C   0  0  2  0  0  0  0  0  0  0  0  0
   42.4883   19.9304    1.9392 C   0  0  1  0  0  0  0  0  0  0  0  0
   42.8765   20.6577    0.6385 C   0  0  1  0  0  0  0  0  0  0  0  0
   47.0835   17.2161   -2.1882 C   0  0  2  0  0  0  0  0  0  0  0  0
   46.8360   16.9767   -3.7123 C   0  0  1  0  0  0  0  0  0  0  0  0
  1  3  1  0  0  0  0
  4  1  1  1  0  0  0
  4  6  1  0  0  0  0
  4 31  1  0  0  0  0
  6  7  1  0  0  0  0
  7  9  1  1  0  0  0
  7 30  1  0  0  0  0
  8 26  1  0  0  0  0
 10  9  1  6  0  0  0
 10 13  1  0  0  0  0
 10 21  1  0  0  0  0
 13 12  1  6  0  0  0
 13 15  1  0  0  0  0
 15  2  1  1  0  0  0
 15 17  1  0  0  0  0
 16 25  1  0  0  0  0
 16 23  1  0  0  0  0
 17 19  1  0  0  0  0
 19  5  1  1  0  0  0
 19 21  1  0  0  0  0
 21 14  1  6  0  0  0
 23 14  1  1  0  0  0
 23 29  1  0  0  0  0
 25 26  1  6  0  0  0
 25 27  1  0  0  0  0
 27 18  1  1  0  0  0
 27 28  1  0  0  0  0
 28 20  1  6  0  0  0
 28 29  1  0  0  0  0
 29 11  1  1  0  0  0
 30 22  1  6  0  0  0
 30 31  1  0  0  0  0
 31 24  1  6  0  0  0
M  END
>  <CHROM.1>
-168.61597721,-175.22444329,-153.12990491,-45.64140478,115.44504635,75.33908145
45.05935304,17.86799104,0.12862623,1.08422467,0.51061042,-1.87921518

>  <Name>
ligand

>  <RI>
0

>  <Rbt.Current_Directory>
/home/itssahil/PROJECTS/Mol_Feturizer/New_Systems/rnas/2ET5

>  <Rbt.Executable>
rbdock ($Id: //depot/dev/client3/rdock/2013.1/src/exe/rbdock.cxx#4 $)

>  <Rbt.Library>
libRbt.so (2013.1, Build901 2013/11/27)

>  <Rbt.Parameter_File>
/export/apps/rDock/src/rDock_2013.1_src/data/scripts/dock_solv.prm

>  <Rbt.Receptor>
prm/blind_docking_60.prm

>  <SCORE>
51.5314

>  <SCORE.INTER>
31.7834

>  <SCORE.INTER.CONST>
1

>  <SCORE.INTER.POLAR>
0

>  <SCORE.INTER.ROT>
6

>  <SCORE.INTER.SOLV>
21.354

>  <SCORE.INTER.VDW>
6.47094

>  <SCORE.INTER.norm>
1.02527

>  <SCORE.INTRA>
3.1708

>  <SCORE.INTRA.DIHEDRAL>
1.32705

>  <SCORE.INTRA.DIHEDRAL.0>
11.2357

>  <SCORE.INTRA.POLAR>
0

>  <SCORE.INTRA.POLAR.0>
0

>  <SCORE.INTRA.REPUL>
0.00572827

>  <SCORE.INTRA.REPUL.0>
0

>  <SCORE.INTRA.SOLV>
5.48095

>  <SCORE.INTRA.SOLV.lig_0>
-83.3092

>  <SCORE.INTRA.VDW>
-0.261843

>  <SCORE.INTRA.VDW.0>
-4.47057

>  <SCORE.INTRA.norm>
0.102284

>  <SCORE.RESTR>
16.5772

>  <SCORE.RESTR.CAVITY>
16.5772

>  <SCORE.RESTR.norm>
0.534749

>  <SCORE.SYSTEM>
0

>  <SCORE.SYSTEM.CONST>
0

>  <SCORE.SYSTEM.DIHEDRAL>
0

>  <SCORE.SYSTEM.SOLV>
0

>  <SCORE.SYSTEM.norm>
0

>  <SCORE.heavy>
31

>  <SCORE.norm>
1.6623

>  <RMSD>
9.479

$$$$
ligand
 OpenBabel11021811433D
libRbt.so/2013.1/901 2013/11/27
 31 33  0  0  0  0  0  0  0  0999 V2000
   46.3596   14.4715   -3.5629 C   0  0  0  0  0  0  0  0  0  0  0  0
   48.1007   16.9863    3.9398 N   0  0  0  0  0  0  0  0  0  0  0  0
   47.3378   14.2291   -4.5846 O   0  0  0  0  0  0  0  0  0  0  0  0
   45.9735   15.9366   -3.7487 C   0  0  1  0  0  0  0  0  0  0  0  0
   44.6589   20.5963    3.0176 N   0  0  0  0  0  0  0  0  0  0  0  0
   45.0531   16.4942   -2.6782 O   0  0  0  0  0  0  0  0  0  0  0  0
   45.6810   17.3523   -1.8054 C   0  0  1  0  0  0  0  0  0  0  0  0
   41.3627   16.2317   -1.7417 N   0  0  0  0  0  0  0  0  0  0  0  0
   45.4927   17.1453   -0.4332 O   0  0  0  0  0  0  0  0  0  0  0  0
   46.1379   17.9948    0.6241 C   0  0  2  0  0  0  0  0  0  0  0  0
   42.2825   20.8320    1.9919 N   0  0  0  0  0  0  0  0  0  0  0  0
   47.7860   16.1841    1.0674 O   0  0  0  0  0  0  0  0  0  0  0  0
   46.7674   17.0508    1.6909 C   0  0  1  0  0  0  0  0  0  0  0  0
   44.5299   19.7789    0.3739 O   0  0  0  0  0  0  0  0  0  0  0  0
   47.4618   17.9138    2.8595 C   0  0  1  0  0  0  0  0  0  0  0  0
   42.9460   18.7109   -1.0459 O   0  0  0  0  0  0  0  0  0  0  0  0
   46.3405   18.8356    3.5102 C   0  0  0  0  0  0  0  0  0  0  0  0
   41.9670   15.9826    1.2926 O   0  0  0  0  0  0  0  0  0  0  0  0
   45.7155   19.7472    2.3741 C   0  0  1  0  0  0  0  0  0  0  0  0
   41.0674   18.2603    2.7612 O   0  0  0  0  0  0  0  0  0  0  0  0
   45.0466   18.9253    1.3187 C   0  0  2  0  0  0  0  0  0  0  0  0
   47.6950   18.6218   -1.9521 O   0  0  0  0  0  0  0  0  0  0  0  0
   43.1616   19.8609   -0.1012 C   0  0  1  0  0  0  0  0  0  0  0  0
   46.7360   18.1718   -4.5094 O   0  0  0  0  0  0  0  0  0  0  0  0
   43.0154   17.3229   -0.4236 C   0  0  2  0  0  0  0  0  0  0  0  0
   42.8081   16.2648   -1.5010 C   0  0  0  0  0  0  0  0  0  0  0  0
   41.9296   17.2404    0.6740 C   0  0  2  0  0  0  0  0  0  0  0  0
   42.1293   18.3301    1.7143 C   0  0  1  0  0  0  0  0  0  0  0  0
   42.0890   19.6970    1.0062 C   0  0  1  0  0  0  0  0  0  0  0  0
   47.1357   17.3926   -2.2444 C   0  0  2  0  0  0  0  0  0  0  0  0
   47.0961   16.9808   -3.7512 C   0  0  1  0  0  0  0  0  0  0  0  0
  1  3  1  0  0  0  0
  4  1  1  1  0  0  0
  4  6  1  0  0  0  0
  4 31  1  0  0  0  0
  6  7  1  0  0  0  0
  7  9  1  1  0  0  0
  7 30  1  0  0  0  0
  8 26  1  0  0  0  0
 10  9  1  6  0  0  0
 10 13  1  0  0  0  0
 10 21  1  0  0  0  0
 13 12  1  6  0  0  0
 13 15  1  0  0  0  0
 15  2  1  1  0  0  0
 15 17  1  0  0  0  0
 16 25  1  0  0  0  0
 16 23  1  0  0  0  0
 17 19  1  0  0  0  0
 19  5  1  1  0  0  0
 19 21  1  0  0  0  0
 21 14  1  6  0  0  0
 23 14  1  1  0  0  0
 23 29  1  0  0  0  0
 25 26  1  6  0  0  0
 25 27  1  0  0  0  0
 27 18  1  1  0  0  0
 27 28  1  0  0  0  0
 28 20  1  1  0  0  0
 28 29  1  0  0  0  0
 29 11  1  1  0  0  0
 30 22  1  6  0  0  0
 30 31  1  0  0  0  0
 31 24  1  6  0  0  0
M  END
>  <CHROM.1>
-173.39441081,178.97748303,-132.33364547,-76.77948309,116.99898885,-78.47461465
44.90452793,17.70229981,-0.16742620,1.10273759,0.10798101,-1.98870590

>  <Name>
ligand

>  <RI>
0

>  <Rbt.Current_Directory>
/home/itssahil/PROJECTS/Mol_Feturizer/New_Systems/rnas/2ET5

>  <Rbt.Executable>
rbdock ($Id: //depot/dev/client3/rdock/2013.1/src/exe/rbdock.cxx#4 $)

>  <Rbt.Library>
libRbt.so (2013.1, Build901 2013/11/27)

>  <Rbt.Parameter_File>
/export/apps/rDock/src/rDock_2013.1_src/data/scripts/dock_solv.prm

>  <Rbt.Receptor>
prm/blind_docking_60.prm

>  <SCORE>
49.9627

>  <SCORE.INTER>
25.4685

>  <SCORE.INTER.CONST>
1

>  <SCORE.INTER.POLAR>
0

>  <SCORE.INTER.ROT>
6

>  <SCORE.INTER.SOLV>
28.4304

>  <SCORE.INTER.VDW>
-0.097792

>  <SCORE.INTER.norm>
0.821565

>  <SCORE.INTRA>
10.546

>  <SCORE.INTRA.DIHEDRAL>
5.10165

>  <SCORE.INTRA.DIHEDRAL.0>
11.2357

>  <SCORE.INTRA.POLAR>
0

>  <SCORE.INTRA.POLAR.0>
0

>  <SCORE.INTRA.REPUL>
0

>  <SCORE.INTRA.REPUL.0>
0

>  <SCORE.INTRA.SOLV>
3.74835

>  <SCORE.INTRA.SOLV.lig_0>
-83.3092

>  <SCORE.INTRA.VDW>
6.12102

>  <SCORE.INTRA.VDW.0>
-4.47057

>  <SCORE.INTRA.norm>
0.340194

>  <SCORE.RESTR>
13.9482

>  <SCORE.RESTR.CAVITY>
13.9482

>  <SCORE.RESTR.norm>
0.449942

>  <SCORE.SYSTEM>
0

>  <SCORE.SYSTEM.CONST>
0

>  <SCORE.SYSTEM.DIHEDRAL>
0

>  <SCORE.SYSTEM.SOLV>
0

>  <SCORE.SYSTEM.norm>
0

>  <SCORE.heavy>
31

>  <SCORE.norm>
1.6117

>  <RMSD>
9.487

$$$$
ligand
 OpenBabel11021811433D
libRbt.so/2013.1/901 2013/11/27
 31 33  0  0  0  0  0  0  0  0999 V2000
   44.3502   15.2290   -4.0250 C   0  0  0  0  0  0  0  0  0  0  0  0
   48.2076   16.8399    3.7844 N   0  0  0  0  0  0  0  0  0  0  0  0
   44.7906   14.5376   -5.2029 O   0  0  0  0  0  0  0  0  0  0  0  0
   45.1675   16.5182   -4.0152 C   0  0  1  0  0  0  0  0  0  0  0  0
   44.6963   20.4429    3.1383 N   0  0  0  0  0  0  0  0  0  0  0  0
   44.9024   17.4321   -2.8326 O   0  0  0  0  0  0  0  0  0  0  0  0
   45.9192   17.4419   -1.9062 C   0  0  1  0  0  0  0  0  0  0  0  0
   41.4451   16.2689   -1.7281 N   0  0  0  0  0  0  0  0  0  0  0  0
   45.5798   17.2701   -0.5584 O   0  0  0  0  0  0  0  0  0  0  0  0
   46.2134   18.0518    0.5566 C   0  0  2  0  0  0  0  0  0  0  0  0
   42.3064   20.8390    2.0563 N   0  0  0  0  0  0  0  0  0  0  0  0
   47.8963   16.2445    0.8617 O   0  0  0  0  0  0  0  0  0  0  0  0
   46.8644   17.0441    1.5497 C   0  0  1  0  0  0  0  0  0  0  0  0
   44.5719   19.8191    0.4421 O   0  0  0  0  0  0  0  0  0  0  0  0
   47.5474   17.8320    2.7766 C   0  0  1  0  0  0  0  0  0  0  0  0
   43.0051   18.7533   -0.9982 O   0  0  0  0  0  0  0  0  0  0  0  0
   46.4120   18.6825    3.4961 C   0  0  0  0  0  0  0  0  0  0  0  0
   42.0324   15.9945    1.3070 O   0  0  0  0  0  0  0  0  0  0  0  0
   45.7657   19.6631    2.4315 C   0  0  1  0  0  0  0  0  0  0  0  0
   41.1063   18.2506    2.7924 O   0  0  0  0  0  0  0  0  0  0  0  0
   45.1080   18.9084    1.3205 C   0  0  2  0  0  0  0  0  0  0  0  0
   48.2246   16.8421   -2.0277 O   0  0  0  0  0  0  0  0  0  0  0  0
   43.2060   19.8954   -0.0407 C   0  0  1  0  0  0  0  0  0  0  0  0
   47.3545   17.5573   -4.5562 O   0  0  0  0  0  0  0  0  0  0  0  0
   43.0812   17.3598   -0.3892 C   0  0  2  0  0  0  0  0  0  0  0  0
   42.8887   16.3108   -1.4783 C   0  0  0  0  0  0  0  0  0  0  0  0
   41.9893   17.2581    0.7007 C   0  0  2  0  0  0  0  0  0  0  0  0
   42.1741   18.3388    1.7529 C   0  0  1  0  0  0  0  0  0  0  0  0
   42.1278   19.7124    1.0582 C   0  0  1  0  0  0  0  0  0  0  0  0
   46.9576   16.4610   -2.4260 C   0  0  2  0  0  0  0  0  0  0  0  0
   46.6952   16.4001   -3.9651 C   0  0  1  0  0  0  0  0  0  0  0  0
  1  3  1  0  0  0  0
  4  1  1  1  0  0  0
  4  6  1  0  0  0  0
  4 31  1  0  0  0  0
  6  7  1  0  0  0  0
  7  9  1  1  0  0  0
  7 30  1  0  0  0  0
  8 26  1  0  0  0  0
 10  9  1  6  0  0  0
 10 13  1  0  0  0  0
 10 21  1  0  0  0  0
 13 12  1  6  0  0  0
 13 15  1  0  0  0  0
 15  2  1  1  0  0  0
 15 17  1  0  0  0  0
 16 25  1  0  0  0  0
 16 23  1  0  0  0  0
 17 19  1  0  0  0  0
 19  5  1  1  0  0  0
 19 21  1  0  0  0  0
 21 14  1  6  0  0  0
 23 14  1  1  0  0  0
 23 29  1  0  0  0  0
 25 26  1  6  0  0  0
 25 27  1  0  0  0  0
 27 18  1  1  0  0  0
 27 28  1  0  0  0  0
 28 20  1  1  0  0  0
 28 29  1  0  0  0  0
 29 11  1  1  0  0  0
 30 22  1  6  0  0  0
 30 31  1  0  0  0  0
 31 24  1  6  0  0  0
M  END
>  <CHROM.1>
-178.91753688,-139.12942885,-121.93858989,-72.42660974,115.77777524,-78.49336512
44.79619517,17.65756118,-0.24230880,1.29747721,0.12006772,-1.96907053

>  <Name>
ligand

>  <RI>
0

>  <Rbt.Current_Directory>
/home/itssahil/PROJECTS/Mol_Feturizer/New_Systems/rnas/2ET5

>  <Rbt.Executable>
rbdock ($Id: //depot/dev/client3/rdock/2013.1/src/exe/rbdock.cxx#4 $)

>  <Rbt.Library>
libRbt.so (2013.1, Build901 2013/11/27)

>  <Rbt.Parameter_File>
/export/apps/rDock/src/rDock_2013.1_src/data/scripts/dock_solv.prm

>  <Rbt.Receptor>
prm/blind_docking_60.prm

>  <SCORE>
45.5156

>  <SCORE.INTER>
19.8941

>  <SCORE.INTER.CONST>
1

>  <SCORE.INTER.POLAR>
0

>  <SCORE.INTER.ROT>
6

>  <SCORE.INTER.SOLV>
27.3458

>  <SCORE.INTER.VDW>
-3.45256

>  <SCORE.INTER.norm>
0.641744

>  <SCORE.INTRA>
11.2753

>  <SCORE.INTRA.DIHEDRAL>
10.4454

>  <SCORE.INTRA.DIHEDRAL.0>
11.2357

>  <SCORE.INTRA.POLAR>
0

>  <SCORE.INTRA.POLAR.0>
0

>  <SCORE.INTRA.REPUL>
0

>  <SCORE.INTRA.REPUL.0>
0

>  <SCORE.INTRA.SOLV>
4.54041

>  <SCORE.INTRA.SOLV.lig_0>
-83.3092

>  <SCORE.INTRA.VDW>
3.78241

>  <SCORE.INTRA.VDW.0>
-4.47057

>  <SCORE.INTRA.norm>
0.363719

>  <SCORE.RESTR>
14.3462

>  <SCORE.RESTR.CAVITY>
14.3462

>  <SCORE.RESTR.norm>
0.462782

>  <SCORE.SYSTEM>
0

>  <SCORE.SYSTEM.CONST>
0

>  <SCORE.SYSTEM.DIHEDRAL>
0

>  <SCORE.SYSTEM.SOLV>
0

>  <SCORE.SYSTEM.norm>
0

>  <SCORE.heavy>
31

>  <SCORE.norm>
1.46825

>  <RMSD>
9.519

$$$$
ligand
 OpenBabel11021811433D
libRbt.so/2013.1/901 2013/11/27
 31 33  0  0  0  0  0  0  0  0999 V2000
   38.6887   25.9365    8.1886 C   0  0  0  0  0  0  0  0  0  0  0  0
   38.6905   30.3007   10.1052 N   0  0  0  0  0  0  0  0  0  0  0  0
   37.4295   25.6675    7.5548 O   0  0  0  0  0  0  0  0  0  0  0  0
   39.7256   25.6566    7.1039 C   0  0  1  0  0  0  0  0  0  0  0  0
   35.3472   28.6523    6.6652 N   0  0  0  0  0  0  0  0  0  0  0  0
   39.5904   26.5113    5.8567 O   0  0  0  0  0  0  0  0  0  0  0  0
   40.5595   27.4812    5.7468 C   0  0  1  0  0  0  0  0  0  0  0  0
   33.5080   25.6276    3.2514 N   0  0  0  0  0  0  0  0  0  0  0  0
   40.1483   28.7897    5.4638 O   0  0  0  0  0  0  0  0  0  0  0  0
   39.0595   29.4932    6.2224 C   0  0  2  0  0  0  0  0  0  0  0  0
   38.4358   29.8373    2.2156 N   0  0  0  0  0  0  0  0  0  0  0  0
   40.7280   30.2521    7.9052 O   0  0  0  0  0  0  0  0  0  0  0  0
   39.4564   29.5245    7.7281 C   0  0  1  0  0  0  0  0  0  0  0  0
   37.3256   28.7253    4.7275 O   0  0  0  0  0  0  0  0  0  0  0  0
   38.3119   30.2571    8.5918 C   0  0  1  0  0  0  0  0  0  0  0  0
   37.0827   26.6245    3.6352 O   0  0  0  0  0  0  0  0  0  0  0  0
   36.9571   29.4511    8.3802 C   0  0  0  0  0  0  0  0  0  0  0  0
   34.1633   27.5249    1.5051 O   0  0  0  0  0  0  0  0  0  0  0  0
   36.6229   29.4247    6.8309 C   0  0  1  0  0  0  0  0  0  0  0  0
   36.1285   29.3136    0.4595 O   0  0  0  0  0  0  0  0  0  0  0  0
   37.6823   28.7095    6.0544 C   0  0  2  0  0  0  0  0  0  0  0  0
   42.7205   27.7277    6.7260 O   0  0  0  0  0  0  0  0  0  0  0  0
   37.8589   27.9124    3.6506 C   0  0  1  0  0  0  0  0  0  0  0  0
   42.0823   25.0357    6.6390 O   0  0  0  0  0  0  0  0  0  0  0  0
   35.6070   26.7469    3.2803 C   0  0  2  0  0  0  0  0  0  0  0  0
   34.9490   25.3730    3.3335 C   0  0  0  0  0  0  0  0  0  0  0  0
   35.5087   27.3729    1.8700 C   0  0  2  0  0  0  0  0  0  0  0  0
   36.2076   28.7216    1.8277 C   0  0  1  0  0  0  0  0  0  0  0  0
   37.6788   28.5244    2.2376 C   0  0  1  0  0  0  0  0  0  0  0  0
   41.4199   27.3450    6.9925 C   0  0  2  0  0  0  0  0  0  0  0  0
   41.2039   25.8671    7.4515 C   0  0  1  0  0  0  0  0  0  0  0  0
  1  3  1  0  0  0  0
  4  1  1  1  0  0  0
  4  6  1  0  0  0  0
  4 31  1  0  0  0  0
  6  7  1  0  0  0  0
  7  9  1  1  0  0  0
  7 30  1  0  0  0  0
  8 26  1  0  0  0  0
 10  9  1  6  0  0  0
 10 13  1  0  0  0  0
 10 21  1  0  0  0  0
 13 12  1  6  0  0  0
 13 15  1  0  0  0  0
 15  2  1  1  0  0  0
 15 17  1  0  0  0  0
 16 25  1  0  0  0  0
 16 23  1  0  0  0  0
 17 19  1  0  0  0  0
 19  5  1  1  0  0  0
 19 21  1  0  0  0  0
 21 14  1  6  0  0  0
 23 14  1  1  0  0  0
 23 29  1  0  0  0  0
 25 26  1  6  0  0  0
 25 27  1  0  0  0  0
 27 18  1  1  0  0  0
 27 28  1  0  0  0  0
 28 20  1  6  0  0  0
 28 29  1  0  0  0  0
 29 11  1  1  0  0  0
 30 22  1  6  0  0  0
 30 31  1  0  0  0  0
 31 24  1  6  0  0  0
M  END
>  <CHROM.1>
59.99834233,49.73794561,57.82033676,86.26511153,77.55576365,168.79956390
38.11387912,27.86530598,5.40971224,-0.65996404,0.56410110,-2.24114985

>  <Name>
ligand

>  <RI>
0

>  <Rbt.Current_Directory>
/home/itssahil/PROJECTS/Mol_Feturizer/New_Systems/rnas/2ET5

>  <Rbt.Executable>
rbdock ($Id: //depot/dev/client3/rdock/2013.1/src/exe/rbdock.cxx#4 $)

>  <Rbt.Library>
libRbt.so (2013.1, Build901 2013/11/27)

>  <Rbt.Parameter_File>
/export/apps/rDock/src/rDock_2013.1_src/data/scripts/dock_solv.prm

>  <Rbt.Receptor>
prm/pocket_docking_8.prm

>  <SCORE>
-8.42936

>  <SCORE.INTER>
-4.8401

>  <SCORE.INTER.CONST>
1

>  <SCORE.INTER.POLAR>
0

>  <SCORE.INTER.ROT>
6

>  <SCORE.INTER.SOLV>
13.6251

>  <SCORE.INTER.VDW>
-15.3684

>  <SCORE.INTER.norm>
-0.156132

>  <SCORE.INTRA>
-3.58926

>  <SCORE.INTRA.DIHEDRAL>
-5.85152

>  <SCORE.INTRA.DIHEDRAL.0>
11.2357

>  <SCORE.INTRA.POLAR>
0

>  <SCORE.INTRA.POLAR.0>
0

>  <SCORE.INTRA.REPUL>
0

>  <SCORE.INTRA.REPUL.0>
0

>  <SCORE.INTRA.SOLV>
-0.396265

>  <SCORE.INTRA.SOLV.lig_0>
-83.3092

>  <SCORE.INTRA.VDW>
-0.465367

>  <SCORE.INTRA.VDW.0>
-4.47057

>  <SCORE.INTRA.norm>
-0.115783

>  <SCORE.RESTR>
0

>  <SCORE.RESTR.CAVITY>
0

>  <SCORE.RESTR.norm>
0

>  <SCORE.SYSTEM>
0

>  <SCORE.SYSTEM.CONST>
0

>  <SCORE.SYSTEM.DIHEDRAL>
0

>  <SCORE.SYSTEM.SOLV>
0

>  <SCORE.SYSTEM.norm>
0

>  <SCORE.heavy>
31

>  <SCORE.norm>
-0.271915

>  <RMSD>
9.519

$$$$
ligand
 OpenBabel11021811433D
libRbt.so/2013.1/901 2013/11/27
 31 33  0  0  0  0  0  0  0  0999 V2000
   35.4712   24.6368    3.0231 C   0  0  0  0  0  0  0  0  0  0  0  0
   42.6407   29.8224    2.1918 N   0  0  0  0  0  0  0  0  0  0  0  0
   35.5849   25.3092    4.2859 O   0  0  0  0  0  0  0  0  0  0  0  0
   36.9139   24.4644    2.5550 C   0  0  1  0  0  0  0  0  0  0  0  0
   38.6652   32.1741    4.2877 N   0  0  0  0  0  0  0  0  0  0  0  0
   37.6865   25.7592    2.3801 O   0  0  0  0  0  0  0  0  0  0  0  0
   38.6229   25.9782    3.3637 C   0  0  1  0  0  0  0  0  0  0  0  0
   37.9382   29.4668    8.6084 N   0  0  0  0  0  0  0  0  0  0  0  0
   38.6382   27.2324    3.9867 O   0  0  0  0  0  0  0  0  0  0  0  0
   39.0479   28.4956    3.2850 C   0  0  2  0  0  0  0  0  0  0  0  0
   34.6135   29.1641    3.0807 N   0  0  0  0  0  0  0  0  0  0  0  0
   41.0049   27.3116    2.3052 O   0  0  0  0  0  0  0  0  0  0  0  0
   40.5957   28.4772    3.1123 C   0  0  1  0  0  0  0  0  0  0  0  0
   37.2578   29.7882    4.2624 O   0  0  0  0  0  0  0  0  0  0  0  0
   41.0910   29.8208    2.3763 C   0  0  1  0  0  0  0  0  0  0  0  0
   36.5984   28.6288    6.2337 O   0  0  0  0  0  0  0  0  0  0  0  0
   40.6357   31.0562    3.2688 C   0  0  0  0  0  0  0  0  0  0  0  0
   34.2348   31.1966    7.5339 O   0  0  0  0  0  0  0  0  0  0  0  0
   39.0603   31.0033    3.4367 C   0  0  1  0  0  0  0  0  0  0  0  0
   32.9205   30.4782    5.1027 O   0  0  0  0  0  0  0  0  0  0  0  0
   38.6273   29.7640    4.1531 C   0  0  2  0  0  0  0  0  0  0  0  0
   39.7191   24.5262    4.9063 O   0  0  0  0  0  0  0  0  0  0  0  0
   36.3830   28.7384    4.7494 C   0  0  1  0  0  0  0  0  0  0  0  0
   38.9530   23.0573    2.6888 O   0  0  0  0  0  0  0  0  0  0  0  0
   36.1769   29.8407    7.0535 C   0  0  2  0  0  0  0  0  0  0  0  0
   36.4806   29.5962    8.5271 C   0  0  0  0  0  0  0  0  0  0  0  0
   34.6676   30.0746    6.8128 C   0  0  2  0  0  0  0  0  0  0  0  0
   34.3810   30.2732    5.3337 C   0  0  1  0  0  0  0  0  0  0  0  0
   34.8711   29.0301    4.5683 C   0  0  1  0  0  0  0  0  0  0  0  0
   38.4998   24.8008    4.3172 C   0  0  2  0  0  0  0  0  0  0  0  0
   37.8689   23.6650    3.4492 C   0  0  1  0  0  0  0  0  0  0  0  0
  1  3  1  0  0  0  0
  4  1  1  1  0  0  0
  4  6  1  0  0  0  0
  4 31  1  0  0  0  0
  6  7  1  0  0  0  0
  7  9  1  1  0  0  0
  7 30  1  0  0  0  0
  8 26  1  0  0  0  0
 10  9  1  1  0  0  0
 10 13  1  0  0  0  0
 10 21  1  0  0  0  0
 13 12  1  6  0  0  0
 13 15  1  0  0  0  0
 15  2  1  1  0  0  0
 15 17  1  0  0  0  0
 16 25  1  0  0  0  0
 16 23  1  0  0  0  0
 17 19  1  0  0  0  0
 19  5  1  1  0  0  0
 19 21  1  0  0  0  0
 21 14  1  6  0  0  0
 23 14  1  1  0  0  0
 23 29  1  0  0  0  0
 25 26  1  1  0  0  0
 25 27  1  0  0  0  0
 27 18  1  1  0  0  0
 27 28  1  0  0  0  0
 28 20  1  1  0  0  0
 28 29  1  0  0  0  0
 29 11  1  6  0  0  0
 30 22  1  6  0  0  0
 30 31  1  0  0  0  0
 31 24  1  6  0  0  0
M  END
>  <CHROM.1>
-59.76681346,-68.46996472,-73.87325904,70.71949967,54.75464055,63.45481876
37.59165373,28.14332670,4.36854771,0.89756522,-0.44284414,-2.86036360

>  <Name>
ligand

>  <RI>
0

>  <Rbt.Current_Directory>
/home/itssahil/PROJECTS/Mol_Feturizer/New_Systems/rnas/2ET5

>  <Rbt.Executable>
rbdock ($Id: //depot/dev/client3/rdock/2013.1/src/exe/rbdock.cxx#4 $)

>  <Rbt.Library>
libRbt.so (2013.1, Build901 2013/11/27)

>  <Rbt.Parameter_File>
/export/apps/rDock/src/rDock_2013.1_src/data/scripts/dock_solv.prm

>  <Rbt.Receptor>
prm/pocket_docking_8.prm

>  <SCORE>
-6.46726

>  <SCORE.INTER>
-1.37116

>  <SCORE.INTER.CONST>
1

>  <SCORE.INTER.POLAR>
0

>  <SCORE.INTER.ROT>
6

>  <SCORE.INTER.SOLV>
15.0797

>  <SCORE.INTER.VDW>
-13.5407

>  <SCORE.INTER.norm>
-0.0442309

>  <SCORE.INTRA>
-5.0961

>  <SCORE.INTRA.DIHEDRAL>
-9.11987

>  <SCORE.INTRA.DIHEDRAL.0>
11.2357

>  <SCORE.INTRA.POLAR>
0

>  <SCORE.INTRA.POLAR.0>
0

>  <SCORE.INTRA.REPUL>
0

>  <SCORE.INTRA.REPUL.0>
0

>  <SCORE.INTRA.SOLV>
-3.5278

>  <SCORE.INTRA.SOLV.lig_0>
-83.3092

>  <SCORE.INTRA.VDW>
1.22773

>  <SCORE.INTRA.VDW.0>
-4.47057

>  <SCORE.INTRA.norm>
-0.16439

>  <SCORE.RESTR>
0

>  <SCORE.RESTR.CAVITY>
0

>  <SCORE.RESTR.norm>
0

>  <SCORE.SYSTEM>
0

>  <SCORE.SYSTEM.CONST>
0

>  <SCORE.SYSTEM.DIHEDRAL>
0

>  <SCORE.SYSTEM.SOLV>
0

>  <SCORE.SYSTEM.norm>
0

>  <SCORE.heavy>
31

>  <SCORE.norm>
-0.208621

>  <RMSD>
9.617

$$$$
ligand
 OpenBabel11021811433D
libRbt.so/2013.1/901 2013/11/27
 31 33  0  0  0  0  0  0  0  0999 V2000
   35.5594   20.0390   10.8463 C   0  0  0  0  0  0  0  0  0  0  0  0
   33.7988   14.9412   14.5726 N   0  0  0  0  0  0  0  0  0  0  0  0
   36.3233   19.7664    9.6624 O   0  0  0  0  0  0  0  0  0  0  0  0
   34.1410   20.2774   10.3349 C   0  0  1  0  0  0  0  0  0  0  0  0
   37.3976   17.1349   11.7504 N   0  0  0  0  0  0  0  0  0  0  0  0
   33.5816   19.1662    9.4653 O   0  0  0  0  0  0  0  0  0  0  0  0
   32.6252   18.4038   10.0948 C   0  0  1  0  0  0  0  0  0  0  0  0
   37.6566   12.8008    8.5165 N   0  0  0  0  0  0  0  0  0  0  0  0
   32.7545   17.0105   10.0363 O   0  0  0  0  0  0  0  0  0  0  0  0
   33.7908   16.2463   10.8095 C   0  0  2  0  0  0  0  0  0  0  0  0
   37.0064   18.6120    7.3704 N   0  0  0  0  0  0  0  0  0  0  0  0
   31.9954   15.2192   12.1927 O   0  0  0  0  0  0  0  0  0  0  0  0
   33.2447   16.0027   12.2476 C   0  0  1  0  0  0  0  0  0  0  0  0
   35.6317   17.2593    9.6197 O   0  0  0  0  0  0  0  0  0  0  0  0
   34.3270   15.1974   13.1266 C   0  0  1  0  0  0  0  0  0  0  0  0
   37.0177   15.3577    9.2618 O   0  0  0  0  0  0  0  0  0  0  0  0
   35.6590   16.0658   13.1664 C   0  0  0  0  0  0  0  0  0  0  0  0
   35.3757   14.1456    6.1464 O   0  0  0  0  0  0  0  0  0  0  0  0
   36.1474   16.3084   11.6781 C   0  0  1  0  0  0  0  0  0  0  0  0
   36.3723   16.6670    5.2499 O   0  0  0  0  0  0  0  0  0  0  0  0
   35.1417   17.0875   10.8919 C   0  0  2  0  0  0  0  0  0  0  0  0
   31.2272   18.7999   11.9864 O   0  0  0  0  0  0  0  0  0  0  0  0
   36.9218   16.8495    9.0976 C   0  0  1  0  0  0  0  0  0  0  0  0
   31.9119   21.2330   10.8581 O   0  0  0  0  0  0  0  0  0  0  0  0
   36.0332   14.5380    8.4387 C   0  0  2  0  0  0  0  0  0  0  0  0
   36.2289   13.0546    8.7296 C   0  0  0  0  0  0  0  0  0  0  0  0
   36.2753   14.8641    6.9468 C   0  0  2  0  0  0  0  0  0  0  0  0
   36.1176   16.3530    6.6869 C   0  0  1  0  0  0  0  0  0  0  0  0
   37.1123   17.1149    7.5821 C   0  0  1  0  0  0  0  0  0  0  0  0
   32.5098   18.9690   11.5012 C   0  0  2  0  0  0  0  0  0  0  0  0
   33.0216   20.4394   11.3698 C   0  0  1  0  0  0  0  0  0  0  0  0
  1  3  1  0  0  0  0
  4  1  1  1  0  0  0
  4  6  1  0  0  0  0
  4 31  1  0  0  0  0
  6  7  1  0  0  0  0
  7  9  1  1  0  0  0
  7 30  1  0  0  0  0
  8 26  1  0  0  0  0
 10  9  1  6  0  0  0
 10 13  1  0  0  0  0
 10 21  1  0  0  0  0
 13 12  1  6  0  0  0
 13 15  1  0  0  0  0
 15  2  1  1  0  0  0
 15 17  1  0  0  0  0
 16 25  1  0  0  0  0
 16 23  1  0  0  0  0
 17 19  1  0  0  0  0
 19  5  1  1  0  0  0
 19 21  1  0  0  0  0
 21 14  1  6  0  0  0
 23 14  1  6  0  0  0
 23 29  1  0  0  0  0
 25 26  1  6  0  0  0
 25 27  1  0  0  0  0
 27 18  1  6  0  0  0
 27 28  1  0  0  0  0
 28 20  1  6  0  0  0
 28 29  1  0  0  0  0
 29 11  1  1  0  0  0
 30 22  1  6  0  0  0
 30 31  1  0  0  0  0
 31 24  1  6  0  0  0
M  END
>  <CHROM.1>
53.77301219,72.77220403,83.71659317,59.20276309,-121.38228403,-52.86131117
34.90401968,16.98517388,9.98089433,-3.03571453,-0.97116605,2.57041340

>  <Name>
ligand

>  <RI>
0

>  <Rbt.Current_Directory>
/home/itssahil/PROJECTS/Mol_Feturizer/New_Systems/rnas/2ET5

>  <Rbt.Executable>
rbdock ($Id: //depot/dev/client3/rdock/2013.1/src/exe/rbdock.cxx#4 $)

>  <Rbt.Library>
libRbt.so (2013.1, Build901 2013/11/27)

>  <Rbt.Parameter_File>
/export/apps/rDock/src/rDock_2013.1_src/data/scripts/dock_solv.prm

>  <Rbt.Receptor>
prm/blind_docking_100.prm

>  <SCORE>
76.8192

>  <SCORE.INTER>
45.5695

>  <SCORE.INTER.CONST>
1

>  <SCORE.INTER.POLAR>
0

>  <SCORE.INTER.ROT>
6

>  <SCORE.INTER.SOLV>
31.8032

>  <SCORE.INTER.VDW>
12.1786

>  <SCORE.INTER.norm>
1.46998

>  <SCORE.INTRA>
4.63172

>  <SCORE.INTRA.DIHEDRAL>
-0.413401

>  <SCORE.INTRA.DIHEDRAL.0>
11.2357

>  <SCORE.INTRA.POLAR>
0

>  <SCORE.INTRA.POLAR.0>
0

>  <SCORE.INTRA.REPUL>
0

>  <SCORE.INTRA.REPUL.0>
0

>  <SCORE.INTRA.SOLV>
3.69132

>  <SCORE.INTRA.SOLV.lig_0>
-83.3092

>  <SCORE.INTRA.VDW>
2.99276

>  <SCORE.INTRA.VDW.0>
-4.47057

>  <SCORE.INTRA.norm>
0.14941

>  <SCORE.RESTR>
26.618

>  <SCORE.RESTR.CAVITY>
26.618

>  <SCORE.RESTR.norm>
0.858644

>  <SCORE.SYSTEM>
0

>  <SCORE.SYSTEM.CONST>
0

>  <SCORE.SYSTEM.DIHEDRAL>
0

>  <SCORE.SYSTEM.SOLV>
0

>  <SCORE.SYSTEM.norm>
0

>  <SCORE.heavy>
31

>  <SCORE.norm>
2.47804

>  <RMSD>
12.945

$$$$
ligand
 OpenBabel11021811433D
libRbt.so/2013.1/901 2013/11/27
 31 33  0  0  0  0  0  0  0  0999 V2000
   35.5498   20.2430   11.2790 C   0  0  0  0  0  0  0  0  0  0  0  0
   35.3133   15.1536    5.2320 N   0  0  0  0  0  0  0  0  0  0  0  0
   36.2224   19.7897   10.0951 O   0  0  0  0  0  0  0  0  0  0  0  0
   34.1406   20.5883   10.8048 C   0  0  1  0  0  0  0  0  0  0  0  0
   37.3789   15.3847    9.8590 N   0  0  0  0  0  0  0  0  0  0  0  0
   33.7244   19.9237    9.5051 O   0  0  0  0  0  0  0  0  0  0  0  0
   32.8134   18.9071    9.6742 C   0  0  1  0  0  0  0  0  0  0  0  0
   31.1261   16.2045   10.3113 N   0  0  0  0  0  0  0  0  0  0  0  0
   33.0709   17.6841    9.0423 O   0  0  0  0  0  0  0  0  0  0  0  0
   34.4006   17.3330    8.4385 C   0  0  2  0  0  0  0  0  0  0  0  0
   37.3591   15.9165   12.4348 N   0  0  0  0  0  0  0  0  0  0  0  0
   33.3396   17.1973    6.1918 O   0  0  0  0  0  0  0  0  0  0  0  0
   34.1466   16.4536    7.1784 C   0  0  1  0  0  0  0  0  0  0  0  0
   35.5270   17.3168   10.5743 O   0  0  0  0  0  0  0  0  0  0  0  0
   35.5450   16.0352    6.4988 C   0  0  1  0  0  0  0  0  0  0  0  0
   33.7310   16.8482   12.0643 O   0  0  0  0  0  0  0  0  0  0  0  0
   36.3899   15.2373    7.5850 C   0  0  0  0  0  0  0  0  0  0  0  0
   33.4169   13.2144   11.3107 O   0  0  0  0  0  0  0  0  0  0  0  0
   36.5873   16.1677    8.8531 C   0  0  1  0  0  0  0  0  0  0  0  0
   36.0457   13.2789   12.4240 O   0  0  0  0  0  0  0  0  0  0  0  0
   35.2779   16.5144    9.4870 C   0  0  2  0  0  0  0  0  0  0  0  0
   31.3003   18.3671   11.4372 O   0  0  0  0  0  0  0  0  0  0  0  0
   35.2176   17.0533   11.9670 C   0  0  1  0  0  0  0  0  0  0  0  0
   31.8125   21.0865   11.5030 O   0  0  0  0  0  0  0  0  0  0  0  0
   33.1856   15.6198   11.3486 C   0  0  2  0  0  0  0  0  0  0  0  0
   31.6710   15.5603   11.5097 C   0  0  0  0  0  0  0  0  0  0  0  0
   33.8734   14.3741   11.9533 C   0  0  2  0  0  0  0  0  0  0  0  0
   35.3840   14.4734   11.8208 C   0  0  1  0  0  0  0  0  0  0  0  0
   35.8548   15.7569   12.5298 C   0  0  1  0  0  0  0  0  0  0  0  0
   32.5831   18.8074   11.1734 C   0  0  2  0  0  0  0  0  0  0  0  0
   32.9650   20.2213   11.7178 C   0  0  1  0  0  0  0  0  0  0  0  0
  1  3  1  0  0  0  0
  4  1  1  1  0  0  0
  4  6  1  0  0  0  0
  4 31  1  0  0  0  0
  6  7  1  0  0  0  0
  7  9  1  1  0  0  0
  7 30  1  0  0  0  0
  8 26  1  0  0  0  0
 10  9  1  1  0  0  0
 10 13  1  0  0  0  0
 10 21  1  0  0  0  0
 13 12  1  6  0  0  0
 13 15  1  0  0  0  0
 15  2  1  6  0  0  0
 15 17  1  0  0  0  0
 16 25  1  0  0  0  0
 16 23  1  0  0  0  0
 17 19  1  0  0  0  0
 19  5  1  1  0  0  0
 19 21  1  0  0  0  0
 21 14  1  1  0  0  0
 23 14  1  6  0  0  0
 23 29  1  0  0  0  0
 25 26  1  1  0  0  0
 25 27  1  0  0  0  0
 27 18  1  6  0  0  0
 27 28  1  0  0  0  0
 28 20  1  1  0  0  0
 28 29  1  0  0  0  0
 29 11  1  6  0  0  0
 30 22  1  6  0  0  0
 30 31  1  0  0  0  0
 31 24  1  6  0  0  0
M  END
>  <CHROM.1>
21.08707311,13.11027086,-145.74830155,-58.73140764,123.32847791,94.62124307
34.32689008,17.01145805,10.19565663,2.96913889,1.07262642,-1.14783751

>  <Name>
ligand

>  <RI>
0

>  <Rbt.Current_Directory>
/home/itssahil/PROJECTS/Mol_Feturizer/New_Systems/rnas/2ET5

>  <Rbt.Executable>
rbdock ($Id: //depot/dev/client3/rdock/2013.1/src/exe/rbdock.cxx#4 $)

>  <Rbt.Library>
libRbt.so (2013.1, Build901 2013/11/27)

>  <Rbt.Parameter_File>
/export/apps/rDock/src/rDock_2013.1_src/data/scripts/dock_solv.prm

>  <Rbt.Receptor>
prm/blind_docking_100.prm

>  <SCORE>
53.3339

>  <SCORE.INTER>
10.767

>  <SCORE.INTER.CONST>
1

>  <SCORE.INTER.POLAR>
0

>  <SCORE.INTER.ROT>
6

>  <SCORE.INTER.SOLV>
24.1333

>  <SCORE.INTER.VDW>
-8.4664

>  <SCORE.INTER.norm>
0.347324

>  <SCORE.INTRA>
13.8407

>  <SCORE.INTRA.DIHEDRAL>
13.7449

>  <SCORE.INTRA.DIHEDRAL.0>
11.2357

>  <SCORE.INTRA.POLAR>
0

>  <SCORE.INTRA.POLAR.0>
0

>  <SCORE.INTRA.REPUL>
0

>  <SCORE.INTRA.REPUL.0>
0

>  <SCORE.INTRA.SOLV>
8.85987

>  <SCORE.INTRA.SOLV.lig_0>
-83.3092

>  <SCORE.INTRA.VDW>
2.53834

>  <SCORE.INTRA.VDW.0>
-4.47057

>  <SCORE.INTRA.norm>
0.446475

>  <SCORE.RESTR>
28.7262

>  <SCORE.RESTR.CAVITY>
28.7262

>  <SCORE.RESTR.norm>
0.92665

>  <SCORE.SYSTEM>
0

>  <SCORE.SYSTEM.CONST>
0

>  <SCORE.SYSTEM.DIHEDRAL>
0

>  <SCORE.SYSTEM.SOLV>
0

>  <SCORE.SYSTEM.norm>
0

>  <SCORE.heavy>
31

>  <SCORE.norm>
1.72045

>  <RMSD>
13.022

$$$$
ligand
 OpenBabel11021811433D
libRbt.so/2013.1/901 2013/11/27
 31 33  0  0  0  0  0  0  0  0999 V2000
   37.3641   13.9905   11.9823 C   0  0  0  0  0  0  0  0  0  0  0  0
   32.5526   21.3474   12.0140 N   0  0  0  0  0  0  0  0  0  0  0  0
   38.7734   14.2499   11.9027 O   0  0  0  0  0  0  0  0  0  0  0  0
   36.8452   15.0230   12.9797 C   0  0  1  0  0  0  0  0  0  0  0  0
   31.7469   17.5305    8.7720 N   0  0  0  0  0  0  0  0  0  0  0  0
   37.1428   16.4664   12.6163 O   0  0  0  0  0  0  0  0  0  0  0  0
   36.0400   17.1617   12.1776 C   0  0  1  0  0  0  0  0  0  0  0  0
   36.2925   17.3284    4.4715 N   0  0  0  0  0  0  0  0  0  0  0  0
   36.1575   17.8966   10.9911 O   0  0  0  0  0  0  0  0  0  0  0  0
   35.0245   18.6790   10.3912 C   0  0  2  0  0  0  0  0  0  0  0  0
   34.4868   14.2295   10.0624 N   0  0  0  0  0  0  0  0  0  0  0  0
   35.4331   20.5132   12.0223 O   0  0  0  0  0  0  0  0  0  0  0  0
   34.4130   19.5817   11.5033 C   0  0  1  0  0  0  0  0  0  0  0  0
   34.4495   16.9254    8.8339 O   0  0  0  0  0  0  0  0  0  0  0  0
   33.1800   20.4339   10.9151 C   0  0  1  0  0  0  0  0  0  0  0  0
   34.0523   15.9057    6.7203 O   0  0  0  0  0  0  0  0  0  0  0  0
   32.1002   19.4038   10.3647 C   0  0  0  0  0  0  0  0  0  0  0  0
   37.4820   14.5557    6.1857 O   0  0  0  0  0  0  0  0  0  0  0  0
   32.7871   18.4936    9.2636 C   0  0  1  0  0  0  0  0  0  0  0  0
   36.7093   13.0810    8.5058 O   0  0  0  0  0  0  0  0  0  0  0  0
   33.9060   17.6864    9.8408 C   0  0  2  0  0  0  0  0  0  0  0  0
   33.6954   16.8078   12.4367 O   0  0  0  0  0  0  0  0  0  0  0  0
   33.8881   15.7440    8.2063 C   0  0  1  0  0  0  0  0  0  0  0  0
   35.0178   15.6089   14.5523 O   0  0  0  0  0  0  0  0  0  0  0  0
   35.4876   15.9205    6.2121 C   0  0  2  0  0  0  0  0  0  0  0  0
   35.4966   16.1192    4.7008 C   0  0  0  0  0  0  0  0  0  0  0  0
   36.1477   14.5819    6.6159 C   0  0  2  0  0  0  0  0  0  0  0  0
   36.0897   14.3836    8.1214 C   0  0  1  0  0  0  0  0  0  0  0  0
   34.6154   14.4225    8.5646 C   0  0  1  0  0  0  0  0  0  0  0  0
   34.8932   16.1641   12.1916 C   0  0  2  0  0  0  0  0  0  0  0  0
   35.3339   15.0835   13.2306 C   0  0  1  0  0  0  0  0  0  0  0  0
  1  3  1  0  0  0  0
  4  1  1  6  0  0  0
  4  6  1  0  0  0  0
  4 31  1  0  0  0  0
  6  7  1  0  0  0  0
  7  9  1  6  0  0  0
  7 30  1  0  0  0  0
  8 26  1  0  0  0  0
 10  9  1  1  0  0  0
 10 13  1  0  0  0  0
 10 21  1  0  0  0  0
 13 12  1  6  0  0  0
 13 15  1  0  0  0  0
 15  2  1  1  0  0  0
 15 17  1  0  0  0  0
 16 25  1  0  0  0  0
 16 23  1  0  0  0  0
 17 19  1  0  0  0  0
 19  5  1  1  0  0  0
 19 21  1  0  0  0  0
 21 14  1  6  0  0  0
 23 14  1  1  0  0  0
 23 29  1  0  0  0  0
 25 26  1  6  0  0  0
 25 27  1  0  0  0  0
 27 18  1  1  0  0  0
 27 28  1  0  0  0  0
 28 20  1  6  0  0  0
 28 29  1  0  0  0  0
 29 11  1  1  0  0  0
 30 22  1  1  0  0  0
 30 31  1  0  0  0  0
 31 24  1  1  0  0  0
M  END
>  <CHROM.1>
56.76786281,178.91311286,50.48471027,134.18079174,168.19948140,122.11269922
35.12619626,16.60265205,9.93662949,-1.95211021,0.94809015,-1.76943211

>  <Name>
ligand

>  <RI>
0

>  <Rbt.Current_Directory>
/home/itssahil/PROJECTS/Mol_Feturizer/New_Systems/rnas/2ET5

>  <Rbt.Executable>
rbdock ($Id: //depot/dev/client3/rdock/2013.1/src/exe/rbdock.cxx#4 $)

>  <Rbt.Library>
libRbt.so (2013.1, Build901 2013/11/27)

>  <Rbt.Parameter_File>
/export/apps/rDock/src/rDock_2013.1_src/data/scripts/dock_solv.prm

>  <Rbt.Receptor>
prm/blind_docking_100.prm

>  <SCORE>
46.7647

>  <SCORE.INTER>
10.9757

>  <SCORE.INTER.CONST>
1

>  <SCORE.INTER.POLAR>
0

>  <SCORE.INTER.ROT>
6

>  <SCORE.INTER.SOLV>
25.7381

>  <SCORE.INTER.VDW>
-8.86226

>  <SCORE.INTER.norm>
0.354054

>  <SCORE.INTRA>
2.99084

>  <SCORE.INTRA.DIHEDRAL>
1.5055

>  <SCORE.INTRA.DIHEDRAL.0>
11.2357

>  <SCORE.INTRA.POLAR>
0

>  <SCORE.INTRA.POLAR.0>
0

>  <SCORE.INTRA.REPUL>
0

>  <SCORE.INTRA.REPUL.0>
0

>  <SCORE.INTRA.SOLV>
2.01096

>  <SCORE.INTRA.SOLV.lig_0>
-83.3092

>  <SCORE.INTRA.VDW>
1.23261

>  <SCORE.INTRA.VDW.0>
-4.47057

>  <SCORE.INTRA.norm>
0.0964787

>  <SCORE.RESTR>
32.7982

>  <SCORE.RESTR.CAVITY>
32.7982

>  <SCORE.RESTR.norm>
1.05801

>  <SCORE.SYSTEM>
0

>  <SCORE.SYSTEM.CONST>
0

>  <SCORE.SYSTEM.DIHEDRAL>
0

>  <SCORE.SYSTEM.SOLV>
0

>  <SCORE.SYSTEM.norm>
0

>  <SCORE.heavy>
31

>  <SCORE.norm>
1.50854

>  <RMSD>
13.087

$$$$
ligand
 OpenBabel11021811433D
libRbt.so/2013.1/901 2013/11/27
 31 33  0  0  0  0  0  0  0  0999 V2000
   33.2051   15.6448   12.0593 C   0  0  0  0  0  0  0  0  0  0  0  0
   32.6902   21.4409   12.1609 N   0  0  0  0  0  0  0  0  0  0  0  0
   33.0323   17.0485   12.3025 O   0  0  0  0  0  0  0  0  0  0  0  0
   34.7142   15.4297   12.1398 C   0  0  1  0  0  0  0  0  0  0  0  0
   31.2701   17.4411    9.3836 N   0  0  0  0  0  0  0  0  0  0  0  0
   35.4949   15.9335   10.9395 O   0  0  0  0  0  0  0  0  0  0  0  0
   36.2101   17.0813   11.1909 C   0  0  1  0  0  0  0  0  0  0  0  0
   38.3839   15.0214    9.1332 N   0  0  0  0  0  0  0  0  0  0  0  0
   36.0878   18.1417   10.2843 O   0  0  0  0  0  0  0  0  0  0  0  0
   34.7863   18.8347    9.9981 C   0  0  2  0  0  0  0  0  0  0  0  0
   33.8423   16.9155    5.7525 N   0  0  0  0  0  0  0  0  0  0  0  0
   35.5094   20.7612   11.3971 O   0  0  0  0  0  0  0  0  0  0  0  0
   34.4474   19.7542   11.2085 C   0  0  1  0  0  0  0  0  0  0  0  0
   33.9187   16.9831    8.7136 O   0  0  0  0  0  0  0  0  0  0  0  0
   33.0488   20.5121   10.9591 C   0  0  1  0  0  0  0  0  0  0  0  0
   36.2121   16.3529    8.6223 O   0  0  0  0  0  0  0  0  0  0  0  0
   31.9270   19.4020   10.7598 C   0  0  0  0  0  0  0  0  0  0  0  0
   35.6940   12.7907    7.6665 O   0  0  0  0  0  0  0  0  0  0  0  0
   32.3419   18.4795    9.5394 C   0  0  1  0  0  0  0  0  0  0  0  0
   34.6131   14.0976    5.3691 O   0  0  0  0  0  0  0  0  0  0  0  0
   33.6251   17.7601    9.8083 C   0  0  2  0  0  0  0  0  0  0  0  0
   36.9828   18.0978   13.2056 O   0  0  0  0  0  0  0  0  0  0  0  0
   35.1005   17.0352    7.8738 C   0  0  1  0  0  0  0  0  0  0  0  0
   36.6958   15.3779   13.6319 O   0  0  0  0  0  0  0  0  0  0  0  0
   36.0252   14.8617    8.8675 C   0  0  2  0  0  0  0  0  0  0  0  0
   37.2100   14.3174    9.6571 C   0  0  0  0  0  0  0  0  0  0  0  0
   35.8887   14.1684    7.4922 C   0  0  2  0  0  0  0  0  0  0  0  0
   34.7292   14.7550    6.7043 C   0  0  1  0  0  0  0  0  0  0  0  0
   34.9675   16.2668    6.5338 C   0  0  1  0  0  0  0  0  0  0  0  0
   35.9062   17.4465   12.6348 C   0  0  2  0  0  0  0  0  0  0  0  0
   35.4746   16.0964   13.2922 C   0  0  1  0  0  0  0  0  0  0  0  0
  1  3  1  0  0  0  0
  4  1  1  6  0  0  0
  4  6  1  0  0  0  0
  4 31  1  0  0  0  0
  6  7  1  0  0  0  0
  7  9  1  6  0  0  0
  7 30  1  0  0  0  0
  8 26  1  0  0  0  0
 10  9  1  1  0  0  0
 10 13  1  0  0  0  0
 10 21  1  0  0  0  0
 13 12  1  6  0  0  0
 13 15  1  0  0  0  0
 15  2  1  1  0  0  0
 15 17  1  0  0  0  0
 16 25  1  0  0  0  0
 16 23  1  0  0  0  0
 17 19  1  0  0  0  0
 19  5  1  1  0  0  0
 19 21  1  0  0  0  0
 21 14  1  6  0  0  0
 23 14  1  1  0  0  0
 23 29  1  0  0  0  0
 25 26  1  6  0  0  0
 25 27  1  0  0  0  0
 27 18  1  1  0  0  0
 27 28  1  0  0  0  0
 28 20  1  6  0  0  0
 28 29  1  0  0  0  0
 29 11  1  1  0  0  0
 30 22  1  1  0  0  0
 30 31  1  0  0  0  0
 31 24  1  6  0  0  0
M  END
>  <CHROM.1>
-74.64264251,61.10917494,74.76851448,77.32561398,3.00512404,-37.89437920
34.86728763,16.89138783,9.99085122,-1.89829931,0.81944901,-2.09597050

>  <Name>
ligand

>  <RI>
0

>  <Rbt.Current_Directory>
/home/itssahil/PROJECTS/Mol_Feturizer/New_Systems/rnas/2ET5

>  <Rbt.Executable>
rbdock ($Id: //depot/dev/client3/rdock/2013.1/src/exe/rbdock.cxx#4 $)

>  <Rbt.Library>
libRbt.so (2013.1, Build901 2013/11/27)

>  <Rbt.Parameter_File>
/export/apps/rDock/src/rDock_2013.1_src/data/scripts/dock_solv.prm

>  <Rbt.Receptor>
prm/blind_docking_100.prm

>  <SCORE>
76.7611

>  <SCORE.INTER>
39.4482

>  <SCORE.INTER.CONST>
1

>  <SCORE.INTER.POLAR>
0

>  <SCORE.INTER.ROT>
6

>  <SCORE.INTER.SOLV>
38.6614

>  <SCORE.INTER.VDW>
5.81168

>  <SCORE.INTER.norm>
1.27252

>  <SCORE.INTRA>
10.2354

>  <SCORE.INTRA.DIHEDRAL>
0.751473

>  <SCORE.INTRA.DIHEDRAL.0>
11.2357

>  <SCORE.INTRA.POLAR>
0

>  <SCORE.INTRA.POLAR.0>
0

>  <SCORE.INTRA.REPUL>
0

>  <SCORE.INTRA.REPUL.0>
0

>  <SCORE.INTRA.SOLV>
2.86138

>  <SCORE.INTRA.SOLV.lig_0>
-83.3092

>  <SCORE.INTRA.VDW>
8.42892

>  <SCORE.INTRA.VDW.0>
-4.47057

>  <SCORE.INTRA.norm>
0.330173

>  <SCORE.RESTR>
27.0775

>  <SCORE.RESTR.CAVITY>
27.0775

>  <SCORE.RESTR.norm>
0.873469

>  <SCORE.SYSTEM>
0

>  <SCORE.SYSTEM.CONST>
0

>  <SCORE.SYSTEM.DIHEDRAL>
0

>  <SCORE.SYSTEM.SOLV>
0

>  <SCORE.SYSTEM.norm>
0

>  <SCORE.heavy>
31

>  <SCORE.norm>
2.47617

>  <RMSD>
13.096

$$$$
ligand
 OpenBabel11021811433D
libRbt.so/2013.1/901 2013/11/27
 31 33  0  0  0  0  0  0  0  0999 V2000
   33.5007   15.0340   11.8825 C   0  0  0  0  0  0  0  0  0  0  0  0
   32.6356   21.4525   12.5459 N   0  0  0  0  0  0  0  0  0  0  0  0
   33.2831   14.4595   10.5855 O   0  0  0  0  0  0  0  0  0  0  0  0
   35.0196   15.1145   12.0106 C   0  0  1  0  0  0  0  0  0  0  0  0
   31.0347   17.1365   10.4157 N   0  0  0  0  0  0  0  0  0  0  0  0
   35.7173   15.8452   10.8777 O   0  0  0  0  0  0  0  0  0  0  0  0
   36.1829   17.0904   11.2307 C   0  0  1  0  0  0  0  0  0  0  0  0
   37.0497   19.2943    8.5060 N   0  0  0  0  0  0  0  0  0  0  0  0
   35.8771   18.1675   10.3893 O   0  0  0  0  0  0  0  0  0  0  0  0
   34.5022   18.7618   10.2788 C   0  0  2  0  0  0  0  0  0  0  0  0
   32.5470   15.0181    7.1509 N   0  0  0  0  0  0  0  0  0  0  0  0
   35.3221   20.8486   11.3580 O   0  0  0  0  0  0  0  0  0  0  0  0
   34.3138   19.7748   11.4467 C   0  0  1  0  0  0  0  0  0  0  0  0
   33.5547   16.7531    9.3310 O   0  0  0  0  0  0  0  0  0  0  0  0
   32.8453   20.4321   11.3838 C   0  0  1  0  0  0  0  0  0  0  0  0
   34.9319   17.8694    7.7428 O   0  0  0  0  0  0  0  0  0  0  0  0
   31.7835   19.2518   11.4813 C   0  0  0  0  0  0  0  0  0  0  0  0
   37.4522   15.1626    7.3051 O   0  0  0  0  0  0  0  0  0  0  0  0
   32.0450   18.2388   10.2905 C   0  0  1  0  0  0  0  0  0  0  0  0
   35.1187   13.8527    6.3084 O   0  0  0  0  0  0  0  0  0  0  0  0
   33.4008   17.6156   10.3896 C   0  0  2  0  0  0  0  0  0  0  0  0
   36.6827   18.0942   13.3360 O   0  0  0  0  0  0  0  0  0  0  0  0
   33.6640   17.0808    7.9219 C   0  0  1  0  0  0  0  0  0  0  0  0
   36.9304   15.3477   13.5759 O   0  0  0  0  0  0  0  0  0  0  0  0
   36.2242   17.1155    8.0256 C   0  0  2  0  0  0  0  0  0  0  0  0
   37.4160   18.0457    7.8315 C   0  0  0  0  0  0  0  0  0  0  0  0
   36.2849   15.9025    7.0686 C   0  0  2  0  0  0  0  0  0  0  0  0
   35.0671   15.0115    7.2481 C   0  0  1  0  0  0  0  0  0  0  0  0
   33.8027   15.8512    6.9880 C   0  0  1  0  0  0  0  0  0  0  0  0
   35.7731   17.2860   12.6814 C   0  0  2  0  0  0  0  0  0  0  0  0
   35.6005   15.8344   13.2332 C   0  0  1  0  0  0  0  0  0  0  0  0
  1  3  1  0  0  0  0
  4  1  1  6  0  0  0
  4  6  1  0  0  0  0
  4 31  1  0  0  0  0
  6  7  1  0  0  0  0
  7  9  1  6  0  0  0
  7 30  1  0  0  0  0
  8 26  1  0  0  0  0
 10  9  1  1  0  0  0
 10 13  1  0  0  0  0
 10 21  1  0  0  0  0
 13 12  1  6  0  0  0
 13 15  1  0  0  0  0
 15  2  1  1  0  0  0
 15 17  1  0  0  0  0
 16 25  1  0  0  0  0
 16 23  1  0  0  0  0
 17 19  1  0  0  0  0
 19  5  1  1  0  0  0
 19 21  1  0  0  0  0
 21 14  1  6  0  0  0
 23 14  1  1  0  0  0
 23 29  1  0  0  0  0
 25 26  1  6  0  0  0
 25 27  1  0  0  0  0
 27 18  1  1  0  0  0
 27 28  1  0  0  0  0
 28 20  1  6  0  0  0
 28 29  1  0  0  0  0
 29 11  1  1  0  0  0
 30 22  1  1  0  0  0
 30 31  1  0  0  0  0
 31 24  1  6  0  0  0
M  END
>  <CHROM.1>
54.04267059,72.09137522,83.09238021,64.34133553,-50.09767283,45.29910746
34.73362856,17.15947131,10.02939469,-1.82144056,0.71008462,-2.06249859

>  <Name>
ligand

>  <RI>
0

>  <Rbt.Current_Directory>
/home/itssahil/PROJECTS/Mol_Feturizer/New_Systems/rnas/2ET5

>  <Rbt.Executable>
rbdock ($Id: //depot/dev/client3/rdock/2013.1/src/exe/rbdock.cxx#4 $)

>  <Rbt.Library>
libRbt.so (2013.1, Build901 2013/11/27)

>  <Rbt.Parameter_File>
/export/apps/rDock/src/rDock_2013.1_src/data/scripts/dock_solv.prm

>  <Rbt.Receptor>
prm/blind_docking_100.prm

>  <SCORE>
83.2507

>  <SCORE.INTER>
58.2011

>  <SCORE.INTER.CONST>
1

>  <SCORE.INTER.POLAR>
0

>  <SCORE.INTER.ROT>
6

>  <SCORE.INTER.SOLV>
36.2354

>  <SCORE.INTER.VDW>
19.1222

>  <SCORE.INTER.norm>
1.87745

>  <SCORE.INTRA>
0.375403

>  <SCORE.INTRA.DIHEDRAL>
-6.65643

>  <SCORE.INTRA.DIHEDRAL.0>
11.2357

>  <SCORE.INTRA.POLAR>
0

>  <SCORE.INTRA.POLAR.0>
0

>  <SCORE.INTRA.REPUL>
0

>  <SCORE.INTRA.REPUL.0>
0

>  <SCORE.INTRA.SOLV>
4.16546

>  <SCORE.INTRA.SOLV.lig_0>
-83.3092

>  <SCORE.INTRA.VDW>
1.62089

>  <SCORE.INTRA.VDW.0>
-4.47057

>  <SCORE.INTRA.norm>
0.0121098

>  <SCORE.RESTR>
24.6742

>  <SCORE.RESTR.CAVITY>
24.6742

>  <SCORE.RESTR.norm>
0.795942

>  <SCORE.SYSTEM>
0

>  <SCORE.SYSTEM.CONST>
0

>  <SCORE.SYSTEM.DIHEDRAL>
0

>  <SCORE.SYSTEM.SOLV>
0

>  <SCORE.SYSTEM.norm>
0

>  <SCORE.heavy>
31

>  <SCORE.norm>
2.68551

>  <RMSD>
13.245

$$$$
ligand
 OpenBabel11021811433D
libRbt.so/2013.1/901 2013/11/27
 31 33  0  0  0  0  0  0  0  0999 V2000
   33.0774   21.7848   11.6246 C   0  0  0  0  0  0  0  0  0  0  0  0
   38.1071   14.5387   13.7127 N   0  0  0  0  0  0  0  0  0  0  0  0
   32.0834   21.4891   12.6167 O   0  0  0  0  0  0  0  0  0  0  0  0
   32.9060   20.6866   10.5783 C   0  0  1  0  0  0  0  0  0  0  0  0
   35.4406   13.6480    9.4908 N   0  0  0  0  0  0  0  0  0  0  0  0
   34.0985   19.7601   10.4252 O   0  0  0  0  0  0  0  0  0  0  0  0
   33.8944   18.5083   10.9575 C   0  0  1  0  0  0  0  0  0  0  0  0
   37.9603   18.9256    8.3849 N   0  0  0  0  0  0  0  0  0  0  0  0
   34.8796   17.9881   11.8061 O   0  0  0  0  0  0  0  0  0  0  0  0
   35.0987   16.5161   12.0089 C   0  0  2  0  0  0  0  0  0  0  0  0
   33.4140   14.4347    7.4696 N   0  0  0  0  0  0  0  0  0  0  0  0
   36.4287   17.0002   14.0554 O   0  0  0  0  0  0  0  0  0  0  0  0
   36.4574   16.3224   12.7449 C   0  0  1  0  0  0  0  0  0  0  0  0
   33.9307   15.9180    9.9818 O   0  0  0  0  0  0  0  0  0  0  0  0
   36.7492   14.7557   12.9747 C   0  0  1  0  0  0  0  0  0  0  0  0
   34.4003   17.8578    8.6850 O   0  0  0  0  0  0  0  0  0  0  0  0
   36.7738   14.0548   11.5469 C   0  0  0  0  0  0  0  0  0  0  0  0
   37.7256   16.7823    7.3980 O   0  0  0  0  0  0  0  0  0  0  0  0
   35.3817   14.3134   10.8344 C   0  0  1  0  0  0  0  0  0  0  0  0
   36.0521   14.7977    6.2084 O   0  0  0  0  0  0  0  0  0  0  0  0
   35.1488   15.7720   10.6007 C   0  0  2  0  0  0  0  0  0  0  0  0
   31.9214   17.2846   11.5045 O   0  0  0  0  0  0  0  0  0  0  0  0
   33.6467   16.5567    8.7105 C   0  0  1  0  0  0  0  0  0  0  0  0
   31.3164   19.1081    9.5119 O   0  0  0  0  0  0  0  0  0  0  0  0
   35.9186   17.7418    8.6844 C   0  0  2  0  0  0  0  0  0  0  0  0
   36.5412   19.1332    8.6869 C   0  0  0  0  0  0  0  0  0  0  0  0
   36.3320   16.9336    7.4328 C   0  0  2  0  0  0  0  0  0  0  0  0
   35.6670   15.5673    7.4282 C   0  0  1  0  0  0  0  0  0  0  0  0
   34.1404   15.7650    7.4724 C   0  0  1  0  0  0  0  0  0  0  0  0
   32.4975   18.5394   11.5560 C   0  0  2  0  0  0  0  0  0  0  0  0
   31.7676   19.6786   10.7744 C   0  0  1  0  0  0  0  0  0  0  0  0
  1  3  1  0  0  0  0
  4  1  1  1  0  0  0
  4  6  1  0  0  0  0
  4 31  1  0  0  0  0
  6  7  1  0  0  0  0
  7  9  1  1  0  0  0
  7 30  1  0  0  0  0
  8 26  1  0  0  0  0
 10  9  1  6  0  0  0
 10 13  1  0  0  0  0
 10 21  1  0  0  0  0
 13 12  1  1  0  0  0
 13 15  1  0  0  0  0
 15  2  1  6  0  0  0
 15 17  1  0  0  0  0
 16 25  1  0  0  0  0
 16 23  1  0  0  0  0
 17 19  1  0  0  0  0
 19  5  1  6  0  0  0
 19 21  1  0  0  0  0
 21 14  1  1  0  0  0
 23 14  1  1  0  0  0
 23 29  1  0  0  0  0
 25 26  1  6  0  0  0
 25 27  1  0  0  0  0
 27 18  1  1  0  0  0
 27 28  1  0  0  0  0
 28 20  1  6  0  0  0
 28 29  1  0  0  0  0
 29 11  1  1  0  0  0
 30 22  1  6  0  0  0
 30 31  1  0  0  0  0
 31 24  1  6  0  0  0
M  END
>  <CHROM.1>
-115.89938801,-154.29079404,167.27567118,-45.49059266,119.29907773,-167.68723520
34.81073954,17.20130897,10.19045893,2.71649509,-0.91107178,1.43696350

>  <Name>
ligand

>  <RI>
0

>  <Rbt.Current_Directory>
/home/itssahil/PROJECTS/Mol_Feturizer/New_Systems/rnas/2ET5

>  <Rbt.Executable>
rbdock ($Id: //depot/dev/client3/rdock/2013.1/src/exe/rbdock.cxx#4 $)

>  <Rbt.Library>
libRbt.so (2013.1, Build901 2013/11/27)

>  <Rbt.Parameter_File>
/export/apps/rDock/src/rDock_2013.1_src/data/scripts/dock_solv.prm

>  <Rbt.Receptor>
prm/blind_docking_100.prm

>  <SCORE>
80.0317

>  <SCORE.INTER>
45.4846

>  <SCORE.INTER.CONST>
1

>  <SCORE.INTER.POLAR>
0

>  <SCORE.INTER.ROT>
6

>  <SCORE.INTER.SOLV>
34.8309

>  <SCORE.INTER.VDW>
11.1128

>  <SCORE.INTER.norm>
1.46724

>  <SCORE.INTRA>
12.3602

>  <SCORE.INTRA.DIHEDRAL>
6.30135

>  <SCORE.INTRA.DIHEDRAL.0>
11.2357

>  <SCORE.INTRA.POLAR>
0

>  <SCORE.INTRA.POLAR.0>
0

>  <SCORE.INTRA.REPUL>
0

>  <SCORE.INTRA.REPUL.0>
0

>  <SCORE.INTRA.SOLV>
4.86246

>  <SCORE.INTRA.SOLV.lig_0>
-83.3092

>  <SCORE.INTRA.VDW>
6.77827

>  <SCORE.INTRA.VDW.0>
-4.47057

>  <SCORE.INTRA.norm>
0.398715

>  <SCORE.RESTR>
22.1869

>  <SCORE.RESTR.CAVITY>
22.1869

>  <SCORE.RESTR.norm>
0.715707

>  <SCORE.SYSTEM>
0

>  <SCORE.SYSTEM.CONST>
0

>  <SCORE.SYSTEM.DIHEDRAL>
0

>  <SCORE.SYSTEM.SOLV>
0

>  <SCORE.SYSTEM.norm>
0

>  <SCORE.heavy>
31

>  <SCORE.norm>
2.58167

>  <RMSD>
13.278

$$$$
ligand
 OpenBabel11021811433D
libRbt.so/2013.1/901 2013/11/27
 31 33  0  0  0  0  0  0  0  0999 V2000
   36.3364   18.5011    4.7183 C   0  0  0  0  0  0  0  0  0  0  0  0
   37.0930   13.4633   12.1426 N   0  0  0  0  0  0  0  0  0  0  0  0
   35.7259   18.0660    3.4946 O   0  0  0  0  0  0  0  0  0  0  0  0
   37.0616   17.2634    5.2403 C   0  0  1  0  0  0  0  0  0  0  0  0
   35.1245   17.9777   13.3562 N   0  0  0  0  0  0  0  0  0  0  0  0
   37.3373   17.2681    6.7329 O   0  0  0  0  0  0  0  0  0  0  0  0
   36.5331   16.4077    7.4436 C   0  0  1  0  0  0  0  0  0  0  0  0
   33.5607   15.6758    8.2865 N   0  0  0  0  0  0  0  0  0  0  0  0
   35.8889   16.9036    8.5840 O   0  0  0  0  0  0  0  0  0  0  0  0
   36.4324   16.7383    9.9744 C   0  0  2  0  0  0  0  0  0  0  0  0
   34.0964   21.3507   11.4166 N   0  0  0  0  0  0  0  0  0  0  0  0
   37.3524   14.5135    9.3457 O   0  0  0  0  0  0  0  0  0  0  0  0
   36.4764   15.2165   10.3027 C   0  0  1  0  0  0  0  0  0  0  0  0
   35.4907   18.8244   10.7441 O   0  0  0  0  0  0  0  0  0  0  0  0
   37.0394   14.9833   11.7931 C   0  0  1  0  0  0  0  0  0  0  0  0
   33.9806   18.5287    8.9283 O   0  0  0  0  0  0  0  0  0  0  0  0
   36.0760   15.7518   12.7988 C   0  0  0  0  0  0  0  0  0  0  0  0
   30.9931   17.5763   10.9379 O   0  0  0  0  0  0  0  0  0  0  0  0
   36.0457   17.2846   12.3959 C   0  0  1  0  0  0  0  0  0  0  0  0
   31.4023   20.2455   11.8663 O   0  0  0  0  0  0  0  0  0  0  0  0
   35.4873   17.4787   11.0221 C   0  0  2  0  0  0  0  0  0  0  0  0
   35.2540   14.4957    6.8131 O   0  0  0  0  0  0  0  0  0  0  0  0
   34.6370   19.5465    9.8198 C   0  0  1  0  0  0  0  0  0  0  0  0
   37.3364   14.8078    5.0165 O   0  0  0  0  0  0  0  0  0  0  0  0
   33.0167   17.5718    9.6166 C   0  0  2  0  0  0  0  0  0  0  0  0
   32.4551   16.5861    8.5985 C   0  0  0  0  0  0  0  0  0  0  0  0
   31.8984   18.4147   10.2720 C   0  0  2  0  0  0  0  0  0  0  0  0
   32.4828   19.4196   11.2508 C   0  0  1  0  0  0  0  0  0  0  0  0
   33.4754   20.3212   10.4937 C   0  0  1  0  0  0  0  0  0  0  0  0
   35.6057   15.7728    6.4201 C   0  0  2  0  0  0  0  0  0  0  0  0
   36.3766   15.9028    5.0672 C   0  0  1  0  0  0  0  0  0  0  0  0
  1  3  1  0  0  0  0
  4  1  1  1  0  0  0
  4  6  1  0  0  0  0
  4 31  1  0  0  0  0
  6  7  1  0  0  0  0
  7  9  1  1  0  0  0
  7 30  1  0  0  0  0
  8 26  1  0  0  0  0
 10  9  1  6  0  0  0
 10 13  1  0  0  0  0
 10 21  1  0  0  0  0
 13 12  1  6  0  0  0
 13 15  1  0  0  0  0
 15  2  1  1  0  0  0
 15 17  1  0  0  0  0
 16 25  1  0  0  0  0
 16 23  1  0  0  0  0
 17 19  1  0  0  0  0
 19  5  1  1  0  0  0
 19 21  1  0  0  0  0
 21 14  1  6  0  0  0
 23 14  1  1  0  0  0
 23 29  1  0  0  0  0
 25 26  1  6  0  0  0
 25 27  1  0  0  0  0
 27 18  1  1  0  0  0
 27 28  1  0  0  0  0
 28 20  1  6  0  0  0
 28 29  1  0  0  0  0
 29 11  1  1  0  0  0
 30 22  1  1  0  0  0
 30 31  1  0  0  0  0
 31 24  1  1  0  0  0
M  END
>  <CHROM.1>
-157.56211430,-96.12386880,-63.13220588,-15.05465781,87.25434842,72.47775117
35.09539889,17.18218219,9.14182957,0.86912400,0.83481771,-1.41368713

>  <Name>
ligand

>  <RI>
0

>  <Rbt.Current_Directory>
/home/itssahil/PROJECTS/Mol_Feturizer/New_Systems/rnas/2ET5

>  <Rbt.Executable>
rbdock ($Id: //depot/dev/client3/rdock/2013.1/src/exe/rbdock.cxx#4 $)

>  <Rbt.Library>
libRbt.so (2013.1, Build901 2013/11/27)

>  <Rbt.Parameter_File>
/export/apps/rDock/src/rDock_2013.1_src/data/scripts/dock_solv.prm

>  <Rbt.Receptor>
prm/blind_docking_100.prm

>  <SCORE>
75.4325

>  <SCORE.INTER>
41.3417

>  <SCORE.INTER.CONST>
1

>  <SCORE.INTER.POLAR>
0

>  <SCORE.INTER.ROT>
6

>  <SCORE.INTER.SOLV>
28.956

>  <SCORE.INTER.VDW>
10.3091

>  <SCORE.INTER.norm>
1.3336

>  <SCORE.INTRA>
6.8782

>  <SCORE.INTRA.DIHEDRAL>
4.89148

>  <SCORE.INTRA.DIHEDRAL.0>
11.2357

>  <SCORE.INTRA.POLAR>
0

>  <SCORE.INTRA.POLAR.0>
0

>  <SCORE.INTRA.REPUL>
0

>  <SCORE.INTRA.REPUL.0>
0

>  <SCORE.INTRA.SOLV>
4.32385

>  <SCORE.INTRA.SOLV.lig_0>
-83.3092

>  <SCORE.INTRA.VDW>
2.27053

>  <SCORE.INTRA.VDW.0>
-4.47057

>  <SCORE.INTRA.norm>
0.221877

>  <SCORE.RESTR>
27.2126

>  <SCORE.RESTR.CAVITY>
27.2126

>  <SCORE.RESTR.norm>
0.877825

>  <SCORE.SYSTEM>
0

>  <SCORE.SYSTEM.CONST>
0

>  <SCORE.SYSTEM.DIHEDRAL>
0

>  <SCORE.SYSTEM.SOLV>
0

>  <SCORE.SYSTEM.norm>
0

>  <SCORE.heavy>
31

>  <SCORE.norm>
2.4333

>  <RMSD>
13.352

$$$$
ligand
 OpenBabel11021811433D
libRbt.so/2013.1/901 2013/11/27
 31 33  0  0  0  0  0  0  0  0999 V2000
   32.5445   21.2033   12.2192 C   0  0  0  0  0  0  0  0  0  0  0  0
   37.2047   14.4936   15.3921 N   0  0  0  0  0  0  0  0  0  0  0  0
   31.1130   21.3043   12.2086 O   0  0  0  0  0  0  0  0  0  0  0  0
   32.8726   20.3497   10.9969 C   0  0  1  0  0  0  0  0  0  0  0  0
   37.9153   14.2296   10.3767 N   0  0  0  0  0  0  0  0  0  0  0  0
   34.2660   19.7476   10.9951 O   0  0  0  0  0  0  0  0  0  0  0  0
   34.2810   18.3952   11.2460 C   0  0  1  0  0  0  0  0  0  0  0  0
   39.1557   14.1242    7.7684 N   0  0  0  0  0  0  0  0  0  0  0  0
   35.1719   17.9181   12.2156 O   0  0  0  0  0  0  0  0  0  0  0  0
   35.5237   16.4659   12.3675 C   0  0  2  0  0  0  0  0  0  0  0  0
   34.2564   18.1375    8.6101 N   0  0  0  0  0  0  0  0  0  0  0  0
   35.1970   16.6485   14.8275 O   0  0  0  0  0  0  0  0  0  0  0  0
   36.1573   16.2626   13.7756 C   0  0  1  0  0  0  0  0  0  0  0  0
   35.9864   16.1846   10.0143 O   0  0  0  0  0  0  0  0  0  0  0  0
   36.5681   14.7199   13.9853 C   0  0  1  0  0  0  0  0  0  0  0  0
   37.4603   16.2171    8.1456 O   0  0  0  0  0  0  0  0  0  0  0  0
   37.6014   14.3354   12.8387 C   0  0  0  0  0  0  0  0  0  0  0  0
   35.3264   14.2446    5.8160 O   0  0  0  0  0  0  0  0  0  0  0  0
   36.9144   14.5935   11.4337 C   0  0  1  0  0  0  0  0  0  0  0  0
   33.6710   16.5386    6.2054 O   0  0  0  0  0  0  0  0  0  0  0  0
   36.5737   16.0378   11.2479 C   0  0  2  0  0  0  0  0  0  0  0  0
   32.6127   16.6990   11.0747 O   0  0  0  0  0  0  0  0  0  0  0  0
   36.4322   17.0083    8.9064 C   0  0  1  0  0  0  0  0  0  0  0  0
   31.9846   18.7481    9.3230 O   0  0  0  0  0  0  0  0  0  0  0  0
   36.9491   14.9578    7.4589 C   0  0  2  0  0  0  0  0  0  0  0  0
   38.1023   14.2500    6.7571 C   0  0  0  0  0  0  0  0  0  0  0  0
   35.8444   15.3766    6.4615 C   0  0  2  0  0  0  0  0  0  0  0  0
   34.7257   16.1178    7.1744 C   0  0  1  0  0  0  0  0  0  0  0  0
   35.3244   17.3504    7.8772 C   0  0  1  0  0  0  0  0  0  0  0  0
   32.8301   18.0038   11.4742 C   0  0  2  0  0  0  0  0  0  0  0  0
   32.0107   19.1094   10.7343 C   0  0  1  0  0  0  0  0  0  0  0  0
  1  3  1  0  0  0  0
  4  1  1  1  0  0  0
  4  6  1  0  0  0  0
  4 31  1  0  0  0  0
  6  7  1  0  0  0  0
  7  9  1  1  0  0  0
  7 30  1  0  0  0  0
  8 26  1  0  0  0  0
 10  9  1  6  0  0  0
 10 13  1  0  0  0  0
 10 21  1  0  0  0  0
 13 12  1  1  0  0  0
 13 15  1  0  0  0  0
 15  2  1  1  0  0  0
 15 17  1  0  0  0  0
 16 25  1  0  0  0  0
 16 23  1  0  0  0  0
 17 19  1  0  0  0  0
 19  5  1  6  0  0  0
 19 21  1  0  0  0  0
 21 14  1  6  0  0  0
 23 14  1  1  0  0  0
 23 29  1  0  0  0  0
 25 26  1  6  0  0  0
 25 27  1  0  0  0  0
 27 18  1  1  0  0  0
 27 28  1  0  0  0  0
 28 20  1  6  0  0  0
 28 29  1  0  0  0  0
 29 11  1  1  0  0  0
 30 22  1  6  0  0  0
 30 31  1  0  0  0  0
 31 24  1  6  0  0  0
M  END
>  <CHROM.1>
-162.70767609,-165.35656160,-162.53016990,84.11226969,121.42502635,50.98241063
35.20176790,16.79660665,10.30806032,2.50175878,-0.78379669,1.47590050

>  <Name>
ligand

>  <RI>
0

>  <Rbt.Current_Directory>
/home/itssahil/PROJECTS/Mol_Feturizer/New_Systems/rnas/2ET5

>  <Rbt.Executable>
rbdock ($Id: //depot/dev/client3/rdock/2013.1/src/exe/rbdock.cxx#4 $)

>  <Rbt.Library>
libRbt.so (2013.1, Build901 2013/11/27)

>  <Rbt.Parameter_File>
/export/apps/rDock/src/rDock_2013.1_src/data/scripts/dock_solv.prm

>  <Rbt.Receptor>
prm/blind_docking_100.prm

>  <SCORE>
59.0217

>  <SCORE.INTER>
27.3946

>  <SCORE.INTER.CONST>
1

>  <SCORE.INTER.POLAR>
0

>  <SCORE.INTER.ROT>
6

>  <SCORE.INTER.SOLV>
22.1732

>  <SCORE.INTER.VDW>
3.27204

>  <SCORE.INTER.norm>
0.883698

>  <SCORE.INTRA>
5.6982

>  <SCORE.INTRA.DIHEDRAL>
2.23997

>  <SCORE.INTRA.DIHEDRAL.0>
11.2357

>  <SCORE.INTRA.POLAR>
0

>  <SCORE.INTRA.POLAR.0>
0

>  <SCORE.INTRA.REPUL>
0

>  <SCORE.INTRA.REPUL.0>
0

>  <SCORE.INTRA.SOLV>
6.43728

>  <SCORE.INTRA.SOLV.lig_0>
-83.3092

>  <SCORE.INTRA.VDW>
1.35958

>  <SCORE.INTRA.VDW.0>
-4.47057

>  <SCORE.INTRA.norm>
0.183813

>  <SCORE.RESTR>
25.9289

>  <SCORE.RESTR.CAVITY>
25.9289

>  <SCORE.RESTR.norm>
0.836416

>  <SCORE.SYSTEM>
0

>  <SCORE.SYSTEM.CONST>
0

>  <SCORE.SYSTEM.DIHEDRAL>
0

>  <SCORE.SYSTEM.SOLV>
0

>  <SCORE.SYSTEM.norm>
0

>  <SCORE.heavy>
31

>  <SCORE.norm>
1.90393

>  <RMSD>
13.378

$$$$
ligand
 OpenBabel11021811433D
libRbt.so/2013.1/901 2013/11/27
 31 33  0  0  0  0  0  0  0  0999 V2000
   31.4319   18.4388    9.9979 C   0  0  0  0  0  0  0  0  0  0  0  0
   36.0909   14.5224   15.3150 N   0  0  0  0  0  0  0  0  0  0  0  0
   30.9795   19.7545    9.6457 O   0  0  0  0  0  0  0  0  0  0  0  0
   32.2394   18.6461   11.2766 C   0  0  1  0  0  0  0  0  0  0  0  0
   39.0448   13.6385   11.2873 N   0  0  0  0  0  0  0  0  0  0  0  0
   33.1082   17.4685   11.6800 O   0  0  0  0  0  0  0  0  0  0  0  0
   34.4508   17.6766   11.4653 C   0  0  1  0  0  0  0  0  0  0  0  0
   34.3207   13.7284    5.5088 N   0  0  0  0  0  0  0  0  0  0  0  0
   35.1694   16.6799   10.7932 O   0  0  0  0  0  0  0  0  0  0  0  0
   35.6600   15.4267   11.4600 C   0  0  2  0  0  0  0  0  0  0  0  0
   36.8870   17.8373    9.8938 N   0  0  0  0  0  0  0  0  0  0  0  0
   34.2210   15.9166   13.4300 O   0  0  0  0  0  0  0  0  0  0  0  0
   35.6061   15.6417   13.0016 C   0  0  1  0  0  0  0  0  0  0  0  0
   37.1863   14.8985    9.6649 O   0  0  0  0  0  0  0  0  0  0  0  0
   36.1377   14.3287   13.7671 C   0  0  1  0  0  0  0  0  0  0  0  0
   37.2854   15.1398    7.2991 O   0  0  0  0  0  0  0  0  0  0  0  0
   37.6294   14.0595   13.2849 C   0  0  0  0  0  0  0  0  0  0  0  0
   33.6774   15.8745    6.7391 O   0  0  0  0  0  0  0  0  0  0  0  0
   37.6258   13.8823   11.7097 C   0  0  1  0  0  0  0  0  0  0  0  0
   34.4218   18.1409    8.3088 O   0  0  0  0  0  0  0  0  0  0  0  0
   37.1616   15.1254   11.0199 C   0  0  2  0  0  0  0  0  0  0  0  0
   35.7580   19.6523   11.1875 O   0  0  0  0  0  0  0  0  0  0  0  0
   37.5384   15.8308    8.6106 C   0  0  1  0  0  0  0  0  0  0  0  0
   33.4981   20.2773   12.6587 O   0  0  0  0  0  0  0  0  0  0  0  0
   35.8304   14.8073    6.9975 C   0  0  2  0  0  0  0  0  0  0  0  0
   35.7338   14.0880    5.6571 C   0  0  0  0  0  0  0  0  0  0  0  0
   35.0322   16.1315    6.9937 C   0  0  2  0  0  0  0  0  0  0  0  0
   35.1768   16.8531    8.3232 C   0  0  1  0  0  0  0  0  0  0  0  0
   36.6725   17.1164    8.5779 C   0  0  1  0  0  0  0  0  0  0  0  0
   34.5578   19.0599   10.8444 C   0  0  2  0  0  0  0  0  0  0  0  0
   33.2571   19.7923   11.3061 C   0  0  1  0  0  0  0  0  0  0  0  0
  1  3  1  0  0  0  0
  4  1  1  6  0  0  0
  4  6  1  0  0  0  0
  4 31  1  0  0  0  0
  6  7  1  0  0  0  0
  7  9  1  6  0  0  0
  7 30  1  0  0  0  0
  8 26  1  0  0  0  0
 10  9  1  6  0  0  0
 10 13  1  0  0  0  0
 10 21  1  0  0  0  0
 13 12  1  1  0  0  0
 13 15  1  0  0  0  0
 15  2  1  1  0  0  0
 15 17  1  0  0  0  0
 16 25  1  0  0  0  0
 16 23  1  0  0  0  0
 17 19  1  0  0  0  0
 19  5  1  6  0  0  0
 19 21  1  0  0  0  0
 21 14  1  6  0  0  0
 23 14  1  1  0  0  0
 23 29  1  0  0  0  0
 25 26  1  6  0  0  0
 25 27  1  0  0  0  0
 27 18  1  1  0  0  0
 27 28  1  0  0  0  0
 28 20  1  6  0  0  0
 28 29  1  0  0  0  0
 29 11  1  1  0  0  0
 30 22  1  1  0  0  0
 30 31  1  0  0  0  0
 31 24  1  1  0  0  0
M  END
>  <CHROM.1>
-165.89592508,-79.60209044,-16.22863254,-174.83401274,98.53113326,175.96658865
35.23002258,16.50734696,10.23939392,2.54973888,-0.81687467,1.41531030

>  <Name>
ligand

>  <RI>
0

>  <Rbt.Current_Directory>
/home/itssahil/PROJECTS/Mol_Feturizer/New_Systems/rnas/2ET5

>  <Rbt.Executable>
rbdock ($Id: //depot/dev/client3/rdock/2013.1/src/exe/rbdock.cxx#4 $)

>  <Rbt.Library>
libRbt.so (2013.1, Build901 2013/11/27)

>  <Rbt.Parameter_File>
/export/apps/rDock/src/rDock_2013.1_src/data/scripts/dock_solv.prm

>  <Rbt.Receptor>
prm/blind_docking_100.prm

>  <SCORE>
73.7081

>  <SCORE.INTER>
30.0364

>  <SCORE.INTER.CONST>
1

>  <SCORE.INTER.POLAR>
0

>  <SCORE.INTER.ROT>
6

>  <SCORE.INTER.SOLV>
20.2769

>  <SCORE.INTER.VDW>
5.66528

>  <SCORE.INTER.norm>
0.968915

>  <SCORE.INTRA>
13.4437

>  <SCORE.INTRA.DIHEDRAL>
2.58747

>  <SCORE.INTRA.DIHEDRAL.0>
11.2357

>  <SCORE.INTRA.POLAR>
0

>  <SCORE.INTRA.POLAR.0>
0

>  <SCORE.INTRA.REPUL>
0

>  <SCORE.INTRA.REPUL.0>
0

>  <SCORE.INTRA.SOLV>
4.95766

>  <SCORE.INTRA.SOLV.lig_0>
-83.3092

>  <SCORE.INTRA.VDW>
9.67111

>  <SCORE.INTRA.VDW.0>
-4.47057

>  <SCORE.INTRA.norm>
0.433667

>  <SCORE.RESTR>
30.2281

>  <SCORE.RESTR.CAVITY>
30.2281

>  <SCORE.RESTR.norm>
0.975099

>  <SCORE.SYSTEM>
0

>  <SCORE.SYSTEM.CONST>
0

>  <SCORE.SYSTEM.DIHEDRAL>
0

>  <SCORE.SYSTEM.SOLV>
0

>  <SCORE.SYSTEM.norm>
0

>  <SCORE.heavy>
31

>  <SCORE.norm>
2.37768

>  <RMSD>
13.460

$$$$
ligand
 OpenBabel11021811433D
libRbt.so/2013.1/901 2013/11/27
 31 33  0  0  0  0  0  0  0  0999 V2000
   31.4937   18.0492   10.0565 C   0  0  0  0  0  0  0  0  0  0  0  0
   37.7960   14.3352   14.6985 N   0  0  0  0  0  0  0  0  0  0  0  0
   32.3990   18.4526    9.0186 O   0  0  0  0  0  0  0  0  0  0  0  0
   32.0167   18.7496   11.3080 C   0  0  1  0  0  0  0  0  0  0  0  0
   35.9926   12.8988   10.1805 N   0  0  0  0  0  0  0  0  0  0  0  0
   33.0674   17.9734   12.0810 O   0  0  0  0  0  0  0  0  0  0  0  0
   34.3379   18.4832   11.9461 C   0  0  1  0  0  0  0  0  0  0  0  0
   37.1057   19.4108    8.3385 N   0  0  0  0  0  0  0  0  0  0  0  0
   35.3705   17.5935   11.6244 O   0  0  0  0  0  0  0  0  0  0  0  0
   35.4045   16.1669   12.0929 C   0  0  2  0  0  0  0  0  0  0  0  0
   33.0065   15.1647    7.5012 N   0  0  0  0  0  0  0  0  0  0  0  0
   36.3200   16.9125   14.2832 O   0  0  0  0  0  0  0  0  0  0  0  0
   36.5568   16.0220   13.1306 C   0  0  1  0  0  0  0  0  0  0  0  0
   34.6321   15.3030    9.9744 O   0  0  0  0  0  0  0  0  0  0  0  0
   36.6472   14.5026   13.6556 C   0  0  1  0  0  0  0  0  0  0  0  0
   35.3305   17.4874    9.3374 O   0  0  0  0  0  0  0  0  0  0  0  0
   36.9021   13.5698   12.3926 C   0  0  0  0  0  0  0  0  0  0  0  0
   37.6541   16.4727    6.6093 O   0  0  0  0  0  0  0  0  0  0  0  0
   35.7185   13.7844   11.3603 C   0  0  1  0  0  0  0  0  0  0  0  0
   35.1757   15.5382    5.5423 O   0  0  0  0  0  0  0  0  0  0  0  0
   35.6762   15.1935   10.8609 C   0  0  2  0  0  0  0  0  0  0  0  0
   35.1613   20.6237   11.2909 O   0  0  0  0  0  0  0  0  0  0  0  0
   34.2355   16.4656    9.2024 C   0  0  1  0  0  0  0  0  0  0  0  0
   32.6152   20.9282   12.3332 O   0  0  0  0  0  0  0  0  0  0  0  0
   36.6708   17.1040    8.7249 C   0  0  2  0  0  0  0  0  0  0  0  0
   37.6836   18.2179    8.9640 C   0  0  0  0  0  0  0  0  0  0  0  0
   36.4475   16.8497    7.2162 C   0  0  2  0  0  0  0  0  0  0  0  0
   35.4037   15.7667    6.9998 C   0  0  1  0  0  0  0  0  0  0  0  0
   34.0939   16.2052    7.6807 C   0  0  1  0  0  0  0  0  0  0  0  0
   34.2071   19.6672   11.0019 C   0  0  2  0  0  0  0  0  0  0  0  0
   32.7130   20.1045   11.1353 C   0  0  1  0  0  0  0  0  0  0  0  0
  1  3  1  0  0  0  0
  4  1  1  6  0  0  0
  4  6  1  0  0  0  0
  4 31  1  0  0  0  0
  6  7  1  0  0  0  0
  7  9  1  6  0  0  0
  7 30  1  0  0  0  0
  8 26  1  0  0  0  0
 10  9  1  6  0  0  0
 10 13  1  0  0  0  0
 10 21  1  0  0  0  0
 13 12  1  1  0  0  0
 13 15  1  0  0  0  0
 15  2  1  1  0  0  0
 15 17  1  0  0  0  0
 16 25  1  0  0  0  0
 16 23  1  0  0  0  0
 17 19  1  0  0  0  0
 19  5  1  6  0  0  0
 19 21  1  0  0  0  0
 21 14  1  6  0  0  0
 23 14  1  1  0  0  0
 23 29  1  0  0  0  0
 25 26  1  6  0  0  0
 25 27  1  0  0  0  0
 27 18  1  1  0  0  0
 27 28  1  0  0  0  0
 28 20  1  6  0  0  0
 28 29  1  0  0  0  0
 29 11  1  1  0  0  0
 30 22  1  1  0  0  0
 30 31  1  0  0  0  0
 31 24  1  1  0  0  0
M  END
>  <CHROM.1>
-88.12829354,-33.18487871,-110.64027089,10.55811578,64.47766298,-58.79715026
35.07965114,16.94397821,10.33067538,2.34016955,-0.96616580,1.49673341

>  <Name>
ligand

>  <RI>
0

>  <Rbt.Current_Directory>
/home/itssahil/PROJECTS/Mol_Feturizer/New_Systems/rnas/2ET5

>  <Rbt.Executable>
rbdock ($Id: //depot/dev/client3/rdock/2013.1/src/exe/rbdock.cxx#4 $)

>  <Rbt.Library>
libRbt.so (2013.1, Build901 2013/11/27)

>  <Rbt.Parameter_File>
/export/apps/rDock/src/rDock_2013.1_src/data/scripts/dock_solv.prm

>  <Rbt.Receptor>
prm/blind_docking_100.prm

>  <SCORE>
91.7716

>  <SCORE.INTER>
60.122

>  <SCORE.INTER.CONST>
1

>  <SCORE.INTER.POLAR>
0

>  <SCORE.INTER.ROT>
6

>  <SCORE.INTER.SOLV>
31.745

>  <SCORE.INTER.VDW>
21.8997

>  <SCORE.INTER.norm>
1.93942

>  <SCORE.INTRA>
7.24977

>  <SCORE.INTRA.DIHEDRAL>
7.68672

>  <SCORE.INTRA.DIHEDRAL.0>
11.2357

>  <SCORE.INTRA.POLAR>
0

>  <SCORE.INTRA.POLAR.0>
0

>  <SCORE.INTRA.REPUL>
0.000271603

>  <SCORE.INTRA.REPUL.0>
0

>  <SCORE.INTRA.SOLV>
1.01106

>  <SCORE.INTRA.SOLV.lig_0>
-83.3092

>  <SCORE.INTRA.VDW>
2.89952

>  <SCORE.INTRA.VDW.0>
-4.47057

>  <SCORE.INTRA.norm>
0.233864

>  <SCORE.RESTR>
24.3998

>  <SCORE.RESTR.CAVITY>
24.3998

>  <SCORE.RESTR.norm>
0.787089

>  <SCORE.SYSTEM>
0

>  <SCORE.SYSTEM.CONST>
0

>  <SCORE.SYSTEM.DIHEDRAL>
0

>  <SCORE.SYSTEM.SOLV>
0

>  <SCORE.SYSTEM.norm>
0

>  <SCORE.heavy>
31

>  <SCORE.norm>
2.96037

>  <RMSD>
13.483

$$$$
ligand
 OpenBabel11021811433D
libRbt.so/2013.1/901 2013/11/27
 31 33  0  0  0  0  0  0  0  0999 V2000
   31.6518   18.3980    9.7044 C   0  0  0  0  0  0  0  0  0  0  0  0
   36.0323   14.9174   15.5685 N   0  0  0  0  0  0  0  0  0  0  0  0
   30.8995   17.2247   10.0463 O   0  0  0  0  0  0  0  0  0  0  0  0
   32.2477   18.8650   11.0299 C   0  0  1  0  0  0  0  0  0  0  0  0
   38.4546   13.4069   11.3757 N   0  0  0  0  0  0  0  0  0  0  0  0
   33.2175   17.8896   11.6718 O   0  0  0  0  0  0  0  0  0  0  0  0
   34.5324   18.2840   11.5851 C   0  0  1  0  0  0  0  0  0  0  0  0
   34.3102   14.6691    5.2102 N   0  0  0  0  0  0  0  0  0  0  0  0
   35.4687   17.3484   11.1275 O   0  0  0  0  0  0  0  0  0  0  0  0
   35.6545   15.9955   11.7529 C   0  0  2  0  0  0  0  0  0  0  0  0
   36.5783   18.0794   10.0376 N   0  0  0  0  0  0  0  0  0  0  0  0
   34.4900   16.7885   13.8040 O   0  0  0  0  0  0  0  0  0  0  0  0
   35.7350   16.1795   13.2973 C   0  0  1  0  0  0  0  0  0  0  0  0
   36.9022   15.1391    9.8712 O   0  0  0  0  0  0  0  0  0  0  0  0
   35.9500   14.7560   14.0184 C   0  0  1  0  0  0  0  0  0  0  0  0
   37.0633   15.3375    7.5048 O   0  0  0  0  0  0  0  0  0  0  0  0
   37.2967   14.1265   13.4523 C   0  0  0  0  0  0  0  0  0  0  0  0
   33.4671   16.0373    6.8351 O   0  0  0  0  0  0  0  0  0  0  0  0
   37.1686   13.9946   11.8779 C   0  0  1  0  0  0  0  0  0  0  0  0
   34.1547   18.3371    8.3818 O   0  0  0  0  0  0  0  0  0  0  0  0
   37.0046   15.3315   11.2279 C   0  0  2  0  0  0  0  0  0  0  0  0
   35.5654   20.4014   11.2121 O   0  0  0  0  0  0  0  0  0  0  0  0
   37.2765   16.0542    8.8096 C   0  0  1  0  0  0  0  0  0  0  0  0
   33.0671   20.8124   12.3307 O   0  0  0  0  0  0  0  0  0  0  0  0
   35.6190   14.9896    7.1707 C   0  0  2  0  0  0  0  0  0  0  0  0
   35.5630   14.2452    5.8418 C   0  0  0  0  0  0  0  0  0  0  0  0
   34.8128   16.3081    7.1210 C   0  0  2  0  0  0  0  0  0  0  0  0
   34.9171   17.0550    8.4403 C   0  0  1  0  0  0  0  0  0  0  0  0
   36.4038   17.3331    8.7300 C   0  0  1  0  0  0  0  0  0  0  0  0
   34.5183   19.5931   10.8128 C   0  0  2  0  0  0  0  0  0  0  0  0
   33.0766   20.1547   11.0305 C   0  0  1  0  0  0  0  0  0  0  0  0
  1  3  1  0  0  0  0
  4  1  1  6  0  0  0
  4  6  1  0  0  0  0
  4 31  1  0  0  0  0
  6  7  1  0  0  0  0
  7  9  1  6  0  0  0
  7 30  1  0  0  0  0
  8 26  1  0  0  0  0
 10  9  1  6  0  0  0
 10 13  1  0  0  0  0
 10 21  1  0  0  0  0
 13 12  1  1  0  0  0
 13 15  1  0  0  0  0
 15  2  1  1  0  0  0
 15 17  1  0  0  0  0
 16 25  1  0  0  0  0
 16 23  1  0  0  0  0
 17 19  1  0  0  0  0
 19  5  1  6  0  0  0
 19 21  1  0  0  0  0
 21 14  1  6  0  0  0
 23 14  1  1  0  0  0
 23 29  1  0  0  0  0
 25 26  1  6  0  0  0
 25 27  1  0  0  0  0
 27 18  1  1  0  0  0
 27 28  1  0  0  0  0
 28 20  1  6  0  0  0
 28 29  1  0  0  0  0
 29 11  1  1  0  0  0
 30 22  1  1  0  0  0
 30 31  1  0  0  0  0
 31 24  1  1  0  0  0
M  END
>  <CHROM.1>
63.28256178,-55.08283819,-47.16572811,175.88705158,89.98398536,-145.68550232
35.09351690,16.74623061,10.34313227,1.72291940,-0.85277380,1.35472547

>  <Name>
ligand

>  <RI>
0

>  <Rbt.Current_Directory>
/home/itssahil/PROJECTS/Mol_Feturizer/New_Systems/rnas/2ET5

>  <Rbt.Executable>
rbdock ($Id: //depot/dev/client3/rdock/2013.1/src/exe/rbdock.cxx#4 $)

>  <Rbt.Library>
libRbt.so (2013.1, Build901 2013/11/27)

>  <Rbt.Parameter_File>
/export/apps/rDock/src/rDock_2013.1_src/data/scripts/dock_solv.prm

>  <Rbt.Receptor>
prm/blind_docking_100.prm

>  <SCORE>
82.2134

>  <SCORE.INTER>
30.8955

>  <SCORE.INTER.CONST>
1

>  <SCORE.INTER.POLAR>
0

>  <SCORE.INTER.ROT>
6

>  <SCORE.INTER.SOLV>
19.28

>  <SCORE.INTER.VDW>
6.57034

>  <SCORE.INTER.norm>
0.99663

>  <SCORE.INTRA>
24.8521

>  <SCORE.INTRA.DIHEDRAL>
-3.25577

>  <SCORE.INTRA.DIHEDRAL.0>
11.2357

>  <SCORE.INTRA.POLAR>
0

>  <SCORE.INTRA.POLAR.0>
0

>  <SCORE.INTRA.REPUL>
0

>  <SCORE.INTRA.REPUL.0>
0

>  <SCORE.INTRA.SOLV>
6.17065

>  <SCORE.INTRA.SOLV.lig_0>
-83.3092

>  <SCORE.INTRA.VDW>
23.3947

>  <SCORE.INTRA.VDW.0>
-4.47057

>  <SCORE.INTRA.norm>
0.801681

>  <SCORE.RESTR>
26.4657

>  <SCORE.RESTR.CAVITY>
26.4657

>  <SCORE.RESTR.norm>
0.853734

>  <SCORE.SYSTEM>
0

>  <SCORE.SYSTEM.CONST>
0

>  <SCORE.SYSTEM.DIHEDRAL>
0

>  <SCORE.SYSTEM.SOLV>
0

>  <SCORE.SYSTEM.norm>
0

>  <SCORE.heavy>
31

>  <SCORE.norm>
2.65204

>  <RMSD>
13.491

$$$$
ligand
 OpenBabel11021811433D
libRbt.so/2013.1/901 2013/11/27
 31 33  0  0  0  0  0  0  0  0999 V2000
   36.3438   16.3623   15.2523 C   0  0  0  0  0  0  0  0  0  0  0  0
   32.8579   21.7934   12.1326 N   0  0  0  0  0  0  0  0  0  0  0  0
   35.3820   16.4238   16.3157 O   0  0  0  0  0  0  0  0  0  0  0  0
   35.6565   15.5369   14.1677 C   0  0  1  0  0  0  0  0  0  0  0  0
   30.8743   17.5486   10.1895 N   0  0  0  0  0  0  0  0  0  0  0  0
   34.9062   16.3491   13.1278 O   0  0  0  0  0  0  0  0  0  0  0  0
   35.5369   16.3959   11.9063 C   0  0  1  0  0  0  0  0  0  0  0  0
   37.2683   18.7882    7.0943 N   0  0  0  0  0  0  0  0  0  0  0  0
   35.6983   17.6476   11.2993 O   0  0  0  0  0  0  0  0  0  0  0  0
   34.5520   18.4580   10.7654 C   0  0  2  0  0  0  0  0  0  0  0  0
   33.5770   14.1463    8.0934 N   0  0  0  0  0  0  0  0  0  0  0  0
   35.5432   20.5102   11.7641 O   0  0  0  0  0  0  0  0  0  0  0  0
   34.3296   19.6722   11.7150 C   0  0  1  0  0  0  0  0  0  0  0  0
   33.4269   16.5273    9.8502 O   0  0  0  0  0  0  0  0  0  0  0  0
   33.0976   20.5690   11.1950 C   0  0  1  0  0  0  0  0  0  0  0  0
   34.5486   17.7820    8.1671 O   0  0  0  0  0  0  0  0  0  0  0  0
   31.8076   19.6393   11.1532 C   0  0  0  0  0  0  0  0  0  0  0  0
   37.9402   16.3248    8.6612 O   0  0  0  0  0  0  0  0  0  0  0  0
   32.1045   18.4077   10.2006 C   0  0  1  0  0  0  0  0  0  0  0  0
   36.5068   14.0048    7.8142 O   0  0  0  0  0  0  0  0  0  0  0  0
   33.2290   17.5709   10.7220 C   0  0  2  0  0  0  0  0  0  0  0  0
   37.1919   15.0140   10.8859 O   0  0  0  0  0  0  0  0  0  0  0  0
   33.6645   16.5922    8.4205 C   0  0  1  0  0  0  0  0  0  0  0  0
   35.7958   13.5101   12.7436 O   0  0  0  0  0  0  0  0  0  0  0  0
   35.9529   17.6974    8.7494 C   0  0  2  0  0  0  0  0  0  0  0  0
   36.7171   18.9792    8.4389 C   0  0  0  0  0  0  0  0  0  0  0  0
   36.6458   16.4574    8.1386 C   0  0  2  0  0  0  0  0  0  0  0  0
   35.8459   15.1970    8.4228 C   0  0  1  0  0  0  0  0  0  0  0  0
   34.4301   15.3738    7.8433 C   0  0  1  0  0  0  0  0  0  0  0  0
   36.8246   15.6068   12.0788 C   0  0  2  0  0  0  0  0  0  0  0  0
   36.5327   14.6480   13.2774 C   0  0  1  0  0  0  0  0  0  0  0  0
  1  3  1  0  0  0  0
  4  1  1  1  0  0  0
  4  6  1  0  0  0  0
  4 31  1  0  0  0  0
  6  7  1  0  0  0  0
  7  9  1  1  0  0  0
  7 30  1  0  0  0  0
  8 26  1  0  0  0  0
 10  9  1  1  0  0  0
 10 13  1  0  0  0  0
 10 21  1  0  0  0  0
 13 12  1  6  0  0  0
 13 15  1  0  0  0  0
 15  2  1  1  0  0  0
 15 17  1  0  0  0  0
 16 25  1  0  0  0  0
 16 23  1  0  0  0  0
 17 19  1  0  0  0  0
 19  5  1  1  0  0  0
 19 21  1  0  0  0  0
 21 14  1  6  0  0  0
 23 14  1  1  0  0  0
 23 29  1  0  0  0  0
 25 26  1  6  0  0  0
 25 27  1  0  0  0  0
 27 18  1  1  0  0  0
 27 28  1  0  0  0  0
 28 20  1  6  0  0  0
 28 29  1  0  0  0  0
 29 11  1  1  0  0  0
 30 22  1  6  0  0  0
 30 31  1  0  0  0  0
 31 24  1  6  0  0  0
M  END
>  <CHROM.1>
93.21358026,-68.33909846,107.92808594,38.11070393,-63.68995152,-84.52522701
35.02826716,17.05364726,10.68604090,-1.83210425,0.98439413,-1.54848976

>  <Name>
ligand

>  <RI>
0

>  <Rbt.Current_Directory>
/home/itssahil/PROJECTS/Mol_Feturizer/New_Systems/rnas/2ET5

>  <Rbt.Executable>
rbdock ($Id: //depot/dev/client3/rdock/2013.1/src/exe/rbdock.cxx#4 $)

>  <Rbt.Library>
libRbt.so (2013.1, Build901 2013/11/27)

>  <Rbt.Parameter_File>
/export/apps/rDock/src/rDock_2013.1_src/data/scripts/dock_solv.prm

>  <Rbt.Receptor>
prm/blind_docking_100.prm

>  <SCORE>
59.437

>  <SCORE.INTER>
27.4653

>  <SCORE.INTER.CONST>
1

>  <SCORE.INTER.POLAR>
0

>  <SCORE.INTER.ROT>
6

>  <SCORE.INTER.SOLV>
36.2829

>  <SCORE.INTER.VDW>
-1.38413

>  <SCORE.INTER.norm>
0.885976

>  <SCORE.INTRA>
9.12983

>  <SCORE.INTRA.DIHEDRAL>
2.87797

>  <SCORE.INTRA.DIHEDRAL.0>
11.2357

>  <SCORE.INTRA.POLAR>
0

>  <SCORE.INTRA.POLAR.0>
0

>  <SCORE.INTRA.REPUL>
0

>  <SCORE.INTRA.REPUL.0>
0

>  <SCORE.INTRA.SOLV>
-0.214363

>  <SCORE.INTRA.SOLV.lig_0>
-83.3092

>  <SCORE.INTRA.VDW>
7.79803

>  <SCORE.INTRA.VDW.0>
-4.47057

>  <SCORE.INTRA.norm>
0.294511

>  <SCORE.RESTR>
22.8419

>  <SCORE.RESTR.CAVITY>
22.8419

>  <SCORE.RESTR.norm>
0.736836

>  <SCORE.SYSTEM>
0

>  <SCORE.SYSTEM.CONST>
0

>  <SCORE.SYSTEM.DIHEDRAL>
0

>  <SCORE.SYSTEM.SOLV>
0

>  <SCORE.SYSTEM.norm>
0

>  <SCORE.heavy>
31

>  <SCORE.norm>
1.91732

>  <RMSD>
13.519

$$$$
ligand
 OpenBabel11021811433D
libRbt.so/2013.1/901 2013/11/27
 31 33  0  0  0  0  0  0  0  0999 V2000
   36.0911   18.0399   12.5074 C   0  0  0  0  0  0  0  0  0  0  0  0
   39.2502   17.1550    6.7324 N   0  0  0  0  0  0  0  0  0  0  0  0
   34.7816   18.6175   12.4023 O   0  0  0  0  0  0  0  0  0  0  0  0
   35.8316   16.5534   12.7378 C   0  0  1  0  0  0  0  0  0  0  0  0
   36.4026   20.0589    9.7635 N   0  0  0  0  0  0  0  0  0  0  0  0
   34.9475   15.8915   11.6965 O   0  0  0  0  0  0  0  0  0  0  0  0
   35.6337   15.0649   10.8375 C   0  0  1  0  0  0  0  0  0  0  0  0
   30.6396   14.8271   11.1206 N   0  0  0  0  0  0  0  0  0  0  0  0
   35.4111   15.2174    9.4632 O   0  0  0  0  0  0  0  0  0  0  0  0
   35.8571   16.4224    8.6853 C   0  0  2  0  0  0  0  0  0  0  0  0
   33.4712   20.6730   10.3606 N   0  0  0  0  0  0  0  0  0  0  0  0
   37.2668   14.9646    7.2434 O   0  0  0  0  0  0  0  0  0  0  0  0
   37.2855   16.1433    8.1310 C   0  0  1  0  0  0  0  0  0  0  0  0
   34.6253   17.9582   10.0835 O   0  0  0  0  0  0  0  0  0  0  0  0
   37.8191   17.4141    7.2986 C   0  0  1  0  0  0  0  0  0  0  0  0
   32.5979   17.2521    9.0557 O   0  0  0  0  0  0  0  0  0  0  0  0
   37.8275   18.6655    8.2806 C   0  0  0  0  0  0  0  0  0  0  0  0
   30.4964   17.1907   12.1299 O   0  0  0  0  0  0  0  0  0  0  0  0
   36.3587   18.8794    8.8369 C   0  0  1  0  0  0  0  0  0  0  0  0
   31.1211   19.9738   11.9947 O   0  0  0  0  0  0  0  0  0  0  0  0
   35.8985   17.7013    9.6350 C   0  0  2  0  0  0  0  0  0  0  0  0
   37.7487   13.9724   10.9872 O   0  0  0  0  0  0  0  0  0  0  0  0
   33.4889   18.4348    9.3178 C   0  0  1  0  0  0  0  0  0  0  0  0
   36.7883   14.4115   13.5459 O   0  0  0  0  0  0  0  0  0  0  0  0
   31.9516   16.6269   10.2845 C   0  0  2  0  0  0  0  0  0  0  0  0
   31.1060   15.4289    9.8682 C   0  0  0  0  0  0  0  0  0  0  0  0
   31.0986   17.7147   10.9771 C   0  0  2  0  0  0  0  0  0  0  0  0
   31.9517   18.9172   11.3449 C   0  0  1  0  0  0  0  0  0  0  0  0
   32.6033   19.4667   10.0624 C   0  0  1  0  0  0  0  0  0  0  0  0
   37.0922   15.1582   11.2553 C   0  0  2  0  0  0  0  0  0  0  0  0
   37.0376   15.6069   12.7510 C   0  0  1  0  0  0  0  0  0  0  0  0
  1  3  1  0  0  0  0
  4  1  1  6  0  0  0
  4  6  1  0  0  0  0
  4 31  1  0  0  0  0
  6  7  1  0  0  0  0
  7  9  1  6  0  0  0
  7 30  1  0  0  0  0
  8 26  1  0  0  0  0
 10  9  1  1  0  0  0
 10 13  1  0  0  0  0
 10 21  1  0  0  0  0
 13 12  1  6  0  0  0
 13 15  1  0  0  0  0
 15  2  1  1  0  0  0
 15 17  1  0  0  0  0
 16 25  1  0  0  0  0
 16 23  1  0  0  0  0
 17 19  1  0  0  0  0
 19  5  1  1  0  0  0
 19 21  1  0  0  0  0
 21 14  1  6  0  0  0
 23 14  1  1  0  0  0
 23 29  1  0  0  0  0
 25 26  1  6  0  0  0
 25 27  1  0  0  0  0
 27 18  1  1  0  0  0
 27 28  1  0  0  0  0
 28 20  1  6  0  0  0
 28 29  1  0  0  0  0
 29 11  1  1  0  0  0
 30 22  1  1  0  0  0
 30 31  1  0  0  0  0
 31 24  1  1  0  0  0
M  END
>  <CHROM.1>
54.51248505,68.79925760,90.89665296,102.42555465,-68.95249348,174.66857508
34.83738756,17.08295559,10.33280940,0.01287704,-0.42003374,2.49938338

>  <Name>
ligand

>  <RI>
0

>  <Rbt.Current_Directory>
/home/itssahil/PROJECTS/Mol_Feturizer/New_Systems/rnas/2ET5

>  <Rbt.Executable>
rbdock ($Id: //depot/dev/client3/rdock/2013.1/src/exe/rbdock.cxx#4 $)

>  <Rbt.Library>
libRbt.so (2013.1, Build901 2013/11/27)

>  <Rbt.Parameter_File>
/export/apps/rDock/src/rDock_2013.1_src/data/scripts/dock_solv.prm

>  <Rbt.Receptor>
prm/blind_docking_100.prm

>  <SCORE>
134.204

>  <SCORE.INTER>
106.188

>  <SCORE.INTER.CONST>
1

>  <SCORE.INTER.POLAR>
0

>  <SCORE.INTER.ROT>
6

>  <SCORE.INTER.SOLV>
30.4514

>  <SCORE.INTER.VDW>
53.0412

>  <SCORE.INTER.norm>
3.4254

>  <SCORE.INTRA>
3.97443

>  <SCORE.INTRA.DIHEDRAL>
-0.638822

>  <SCORE.INTRA.DIHEDRAL.0>
11.2357

>  <SCORE.INTRA.POLAR>
0

>  <SCORE.INTRA.POLAR.0>
0

>  <SCORE.INTRA.REPUL>
0

>  <SCORE.INTRA.REPUL.0>
0

>  <SCORE.INTRA.SOLV>
4.44746

>  <SCORE.INTRA.SOLV.lig_0>
-83.3092

>  <SCORE.INTRA.VDW>
2.07011

>  <SCORE.INTRA.VDW.0>
-4.47057

>  <SCORE.INTRA.norm>
0.128208

>  <SCORE.RESTR>
24.0422

>  <SCORE.RESTR.CAVITY>
24.0422

>  <SCORE.RESTR.norm>
0.775556

>  <SCORE.SYSTEM>
0

>  <SCORE.SYSTEM.CONST>
0

>  <SCORE.SYSTEM.DIHEDRAL>
0

>  <SCORE.SYSTEM.SOLV>
0

>  <SCORE.SYSTEM.norm>
0

>  <SCORE.heavy>
31

>  <SCORE.norm>
4.32917

>  <RMSD>
13.551

$$$$
ligand
 OpenBabel11021811433D
libRbt.so/2013.1/901 2013/11/27
 31 33  0  0  0  0  0  0  0  0999 V2000
   37.1429   13.3381   12.0279 C   0  0  0  0  0  0  0  0  0  0  0  0
   37.6882   14.2442    6.7446 N   0  0  0  0  0  0  0  0  0  0  0  0
   36.0314   13.3607   11.1203 O   0  0  0  0  0  0  0  0  0  0  0  0
   36.9426   14.5733   12.9022 C   0  0  1  0  0  0  0  0  0  0  0  0
   33.6740   17.3073    6.2631 N   0  0  0  0  0  0  0  0  0  0  0  0
   37.2630   15.8931   12.2243 O   0  0  0  0  0  0  0  0  0  0  0  0
   36.1477   16.6308   11.9018 C   0  0  1  0  0  0  0  0  0  0  0  0
   36.5395   19.4893   11.9995 N   0  0  0  0  0  0  0  0  0  0  0  0
   36.0537   17.1427   10.6016 O   0  0  0  0  0  0  0  0  0  0  0  0
   35.6029   16.3251    9.4251 C   0  0  2  0  0  0  0  0  0  0  0  0
   30.9285   17.7587   10.0835 N   0  0  0  0  0  0  0  0  0  0  0  0
   37.6040   14.8677    9.6767 O   0  0  0  0  0  0  0  0  0  0  0  0
   36.8648   15.7290    8.7338 C   0  0  1  0  0  0  0  0  0  0  0  0
   33.6862   17.7311    9.0007 O   0  0  0  0  0  0  0  0  0  0  0  0
   36.4374   14.8526    7.4524 C   0  0  1  0  0  0  0  0  0  0  0  0
   34.4718   18.5074   11.1091 O   0  0  0  0  0  0  0  0  0  0  0  0
   35.6444   15.8071    6.4574 C   0  0  0  0  0  0  0  0  0  0  0  0
   33.2617   22.0170   10.8106 O   0  0  0  0  0  0  0  0  0  0  0  0
   34.3940   16.4079    7.2244 C   0  0  1  0  0  0  0  0  0  0  0  0
   30.7736   20.6158   10.7866 O   0  0  0  0  0  0  0  0  0  0  0  0
   34.8168   17.2456    8.3889 C   0  0  2  0  0  0  0  0  0  0  0  0
   33.9004   16.5995   12.7006 O   0  0  0  0  0  0  0  0  0  0  0  0
   33.3749   17.7457   10.4176 C   0  0  1  0  0  0  0  0  0  0  0  0
   35.5651   15.6174   14.6820 O   0  0  0  0  0  0  0  0  0  0  0  0
   34.5709   19.9861   10.7596 C   0  0  2  0  0  0  0  0  0  0  0  0
   35.7390   20.6153   11.5099 C   0  0  0  0  0  0  0  0  0  0  0  0
   33.2268   20.6529   11.1333 C   0  0  2  0  0  0  0  0  0  0  0  0
   32.0716   19.9832   10.4079 C   0  0  1  0  0  0  0  0  0  0  0  0
   32.0620   18.4880   10.7766 C   0  0  1  0  0  0  0  0  0  0  0  0
   34.9590   15.7893   12.3369 C   0  0  2  0  0  0  0  0  0  0  0  0
   35.5354   14.8496   13.4441 C   0  0  1  0  0  0  0  0  0  0  0  0
  1  3  1  0  0  0  0
  4  1  1  6  0  0  0
  4  6  1  0  0  0  0
  4 31  1  0  0  0  0
  6  7  1  0  0  0  0
  7  9  1  6  0  0  0
  7 30  1  0  0  0  0
  8 26  1  0  0  0  0
 10  9  1  1  0  0  0
 10 13  1  0  0  0  0
 10 21  1  0  0  0  0
 13 12  1  1  0  0  0
 13 15  1  0  0  0  0
 15  2  1  6  0  0  0
 15 17  1  0  0  0  0
 16 25  1  0  0  0  0
 16 23  1  0  0  0  0
 17 19  1  0  0  0  0
 19  5  1  6  0  0  0
 19 21  1  0  0  0  0
 21 14  1  1  0  0  0
 23 14  1  6  0  0  0
 23 29  1  0  0  0  0
 25 26  1  1  0  0  0
 25 27  1  0  0  0  0
 27 18  1  6  0  0  0
 27 28  1  0  0  0  0
 28 20  1  1  0  0  0
 28 29  1  0  0  0  0
 29 11  1  6  0  0  0
 30 22  1  1  0  0  0
 30 31  1  0  0  0  0
 31 24  1  1  0  0  0
M  END
>  <CHROM.1>
-74.37896604,80.51881138,-93.33608490,57.94865875,15.29632948,14.87191222
34.93616650,17.10863430,10.46239784,-0.14600957,-0.92575515,1.43523069

>  <Name>
ligand

>  <RI>
0

>  <Rbt.Current_Directory>
/home/itssahil/PROJECTS/Mol_Feturizer/New_Systems/rnas/2ET5

>  <Rbt.Executable>
rbdock ($Id: //depot/dev/client3/rdock/2013.1/src/exe/rbdock.cxx#4 $)

>  <Rbt.Library>
libRbt.so (2013.1, Build901 2013/11/27)

>  <Rbt.Parameter_File>
/export/apps/rDock/src/rDock_2013.1_src/data/scripts/dock_solv.prm

>  <Rbt.Receptor>
prm/blind_docking_100.prm

>  <SCORE>
88.5767

>  <SCORE.INTER>
51.3299

>  <SCORE.INTER.CONST>
1

>  <SCORE.INTER.POLAR>
0

>  <SCORE.INTER.ROT>
6

>  <SCORE.INTER.SOLV>
36.5878

>  <SCORE.INTER.VDW>
14.424

>  <SCORE.INTER.norm>
1.6558

>  <SCORE.INTRA>
14.5038

>  <SCORE.INTRA.DIHEDRAL>
6.29876

>  <SCORE.INTRA.DIHEDRAL.0>
11.2357

>  <SCORE.INTRA.POLAR>
0

>  <SCORE.INTRA.POLAR.0>
0

>  <SCORE.INTRA.REPUL>
0

>  <SCORE.INTRA.REPUL.0>
0

>  <SCORE.INTRA.SOLV>
2.64868

>  <SCORE.INTRA.SOLV.lig_0>
-83.3092

>  <SCORE.INTRA.VDW>
10.03

>  <SCORE.INTRA.VDW.0>
-4.47057

>  <SCORE.INTRA.norm>
0.467863

>  <SCORE.RESTR>
22.7431

>  <SCORE.RESTR.CAVITY>
22.7431

>  <SCORE.RESTR.norm>
0.733649

>  <SCORE.SYSTEM>
0

>  <SCORE.SYSTEM.CONST>
0

>  <SCORE.SYSTEM.DIHEDRAL>
0

>  <SCORE.SYSTEM.SOLV>
0

>  <SCORE.SYSTEM.norm>
0

>  <SCORE.heavy>
31

>  <SCORE.norm>
2.85731

>  <RMSD>
13.629

$$$$
ligand
 OpenBabel11021811433D
libRbt.so/2013.1/901 2013/11/27
 31 33  0  0  0  0  0  0  0  0999 V2000
   37.6913   14.0903   11.6843 C   0  0  0  0  0  0  0  0  0  0  0  0
   36.6821   14.8722    6.9316 N   0  0  0  0  0  0  0  0  0  0  0  0
   37.6401   14.6607   10.3683 O   0  0  0  0  0  0  0  0  0  0  0  0
   37.2917   15.2368   12.6094 C   0  0  1  0  0  0  0  0  0  0  0  0
   37.2290   19.6544    8.5317 N   0  0  0  0  0  0  0  0  0  0  0  0
   36.5763   16.3879   11.9259 O   0  0  0  0  0  0  0  0  0  0  0  0
   35.2296   16.4399   12.2015 C   0  0  1  0  0  0  0  0  0  0  0  0
   32.0193   16.7433    8.6247 N   0  0  0  0  0  0  0  0  0  0  0  0
   34.3448   16.5769   11.1246 O   0  0  0  0  0  0  0  0  0  0  0  0
   34.7846   16.9626    9.7412 C   0  0  2  0  0  0  0  0  0  0  0  0
   34.5030   21.9993   11.2721 N   0  0  0  0  0  0  0  0  0  0  0  0
   34.5351   14.5981    9.0073 O   0  0  0  0  0  0  0  0  0  0  0  0
   35.4783   15.7301    9.0890 C   0  0  1  0  0  0  0  0  0  0  0  0
   35.1793   19.2647   10.3540 O   0  0  0  0  0  0  0  0  0  0  0  0
   35.9842   16.0952    7.6047 C   0  0  1  0  0  0  0  0  0  0  0  0
   33.0782   19.1695    9.2398 O   0  0  0  0  0  0  0  0  0  0  0  0
   36.9967   17.3160    7.7264 C   0  0  0  0  0  0  0  0  0  0  0  0
   30.9468   18.7635   12.2669 O   0  0  0  0  0  0  0  0  0  0  0  0
   36.2468   18.5251    8.4251 C   0  0  1  0  0  0  0  0  0  0  0  0
   32.0412   21.3550   12.7575 O   0  0  0  0  0  0  0  0  0  0  0  0
   35.8172   18.1740    9.8139 C   0  0  2  0  0  0  0  0  0  0  0  0
   33.9013   15.5263   13.9595 O   0  0  0  0  0  0  0  0  0  0  0  0
   34.1542   20.0908    9.7446 C   0  0  1  0  0  0  0  0  0  0  0  0
   36.4927   15.8519   14.8763 O   0  0  0  0  0  0  0  0  0  0  0  0
   32.3141   18.3986   10.3078 C   0  0  2  0  0  0  0  0  0  0  0  0
   31.2828   17.4903    9.6483 C   0  0  0  0  0  0  0  0  0  0  0  0
   31.6487   19.4275   11.2507 C   0  0  2  0  0  0  0  0  0  0  0  0
   32.6891   20.3500   11.8639 C   0  0  1  0  0  0  0  0  0  0  0  0
   33.4462   21.0598   10.7262 C   0  0  1  0  0  0  0  0  0  0  0  0
   34.9486   15.2481   13.1021 C   0  0  2  0  0  0  0  0  0  0  0  0
   36.3285   14.9282   13.7615 C   0  0  1  0  0  0  0  0  0  0  0  0
  1  3  1  0  0  0  0
  4  1  1  6  0  0  0
  4  6  1  0  0  0  0
  4 31  1  0  0  0  0
  6  7  1  0  0  0  0
  7  9  1  6  0  0  0
  7 30  1  0  0  0  0
  8 26  1  0  0  0  0
 10  9  1  1  0  0  0
 10 13  1  0  0  0  0
 10 21  1  0  0  0  0
 13 12  1  6  0  0  0
 13 15  1  0  0  0  0
 15  2  1  1  0  0  0
 15 17  1  0  0  0  0
 16 25  1  0  0  0  0
 16 23  1  0  0  0  0
 17 19  1  0  0  0  0
 19  5  1  1  0  0  0
 19 21  1  0  0  0  0
 21 14  1  6  0  0  0
 23 14  1  1  0  0  0
 23 29  1  0  0  0  0
 25 26  1  6  0  0  0
 25 27  1  0  0  0  0
 27 18  1  1  0  0  0
 27 28  1  0  0  0  0
 28 20  1  1  0  0  0
 28 29  1  0  0  0  0
 29 11  1  1  0  0  0
 30 22  1  1  0  0  0
 30 31  1  0  0  0  0
 31 24  1  1  0  0  0
M  END
>  <CHROM.1>
18.19255540,-13.60232233,74.78855524,51.45426867,-71.16158581,50.77978670
34.74588906,17.43510038,10.70219137,0.25989805,-0.85220010,1.93262898

>  <Name>
ligand

>  <RI>
0

>  <Rbt.Current_Directory>
/home/itssahil/PROJECTS/Mol_Feturizer/New_Systems/rnas/2ET5

>  <Rbt.Executable>
rbdock ($Id: //depot/dev/client3/rdock/2013.1/src/exe/rbdock.cxx#4 $)

>  <Rbt.Library>
libRbt.so (2013.1, Build901 2013/11/27)

>  <Rbt.Parameter_File>
/export/apps/rDock/src/rDock_2013.1_src/data/scripts/dock_solv.prm

>  <Rbt.Receptor>
prm/blind_docking_100.prm

>  <SCORE>
79.1479

>  <SCORE.INTER>
55.5886

>  <SCORE.INTER.CONST>
1

>  <SCORE.INTER.POLAR>
0

>  <SCORE.INTER.ROT>
6

>  <SCORE.INTER.SOLV>
43.4751

>  <SCORE.INTER.VDW>
14.9673

>  <SCORE.INTER.norm>
1.79318

>  <SCORE.INTRA>
3.14504

>  <SCORE.INTRA.DIHEDRAL>
1.50674

>  <SCORE.INTRA.DIHEDRAL.0>
11.2357

>  <SCORE.INTRA.POLAR>
0

>  <SCORE.INTRA.POLAR.0>
0

>  <SCORE.INTRA.REPUL>
0

>  <SCORE.INTRA.REPUL.0>
0

>  <SCORE.INTRA.SOLV>
1.86317

>  <SCORE.INTRA.SOLV.lig_0>
-83.3092

>  <SCORE.INTRA.VDW>
1.46009

>  <SCORE.INTRA.VDW.0>
-4.47057

>  <SCORE.INTRA.norm>
0.101453

>  <SCORE.RESTR>
20.4143

>  <SCORE.RESTR.CAVITY>
20.4143

>  <SCORE.RESTR.norm>
0.658524

>  <SCORE.SYSTEM>
0

>  <SCORE.SYSTEM.CONST>
0

>  <SCORE.SYSTEM.DIHEDRAL>
0

>  <SCORE.SYSTEM.SOLV>
0

>  <SCORE.SYSTEM.norm>
0

>  <SCORE.heavy>
31

>  <SCORE.norm>
2.55316

>  <RMSD>
13.634

$$$$
ligand
 OpenBabel11021811433D
libRbt.so/2013.1/901 2013/11/27
 31 33  0  0  0  0  0  0  0  0999 V2000
   36.4882   18.3207   11.4578 C   0  0  0  0  0  0  0  0  0  0  0  0
   37.4292   14.1735    6.1475 N   0  0  0  0  0  0  0  0  0  0  0  0
   35.5064   19.3670   11.4900 O   0  0  0  0  0  0  0  0  0  0  0  0
   35.9202   17.2406   12.3748 C   0  0  1  0  0  0  0  0  0  0  0  0
   36.7915   18.7738    8.1868 N   0  0  0  0  0  0  0  0  0  0  0  0
   34.6662   16.5596   11.8572 O   0  0  0  0  0  0  0  0  0  0  0  0
   34.8817   15.2769   11.4097 C   0  0  1  0  0  0  0  0  0  0  0  0
   30.3116   15.2866   11.1867 N   0  0  0  0  0  0  0  0  0  0  0  0
   34.3729   14.9270   10.1526 O   0  0  0  0  0  0  0  0  0  0  0  0
   34.8594   15.5356    8.8686 C   0  0  2  0  0  0  0  0  0  0  0  0
   33.8409   20.6015   10.1099 N   0  0  0  0  0  0  0  0  0  0  0  0
   35.1892   13.2593    7.9195 O   0  0  0  0  0  0  0  0  0  0  0  0
   35.8595   14.5422    8.2066 C   0  0  1  0  0  0  0  0  0  0  0  0
   34.6961   17.7930    9.7104 O   0  0  0  0  0  0  0  0  0  0  0  0
   36.4249   15.1546    6.8290 C   0  0  1  0  0  0  0  0  0  0  0  0
   32.5071   17.2873    8.9244 O   0  0  0  0  0  0  0  0  0  0  0  0
   37.1399   16.5337    7.1713 C   0  0  0  0  0  0  0  0  0  0  0  0
   30.7754   17.3989   12.2198 O   0  0  0  0  0  0  0  0  0  0  0  0
   36.0852   17.4883    7.8706 C   0  0  1  0  0  0  0  0  0  0  0  0
   31.6385   20.1124   12.0052 O   0  0  0  0  0  0  0  0  0  0  0  0
   35.6008   16.9148    9.1641 C   0  0  2  0  0  0  0  0  0  0  0  0
   36.6130   13.6887   11.8217 O   0  0  0  0  0  0  0  0  0  0  0  0
   33.5292   18.3796    9.0788 C   0  0  1  0  0  0  0  0  0  0  0  0
   36.4624   15.4228   13.9740 O   0  0  0  0  0  0  0  0  0  0  0  0
   31.9502   16.7158   10.2212 C   0  0  2  0  0  0  0  0  0  0  0  0
   30.9539   15.6053    9.9084 C   0  0  0  0  0  0  0  0  0  0  0  0
   31.2878   17.8732   11.0038 C   0  0  2  0  0  0  0  0  0  0  0  0
   32.2864   18.9878   11.2676 C   0  0  1  0  0  0  0  0  0  0  0  0
   32.8353   19.4840    9.9170 C   0  0  1  0  0  0  0  0  0  0  0  0
   36.3714   15.0275   11.5798 C   0  0  2  0  0  0  0  0  0  0  0  0
   36.8063   16.0312   12.6955 C   0  0  1  0  0  0  0  0  0  0  0  0
  1  3  1  0  0  0  0
  4  1  1  6  0  0  0
  4  6  1  0  0  0  0
  4 31  1  0  0  0  0
  6  7  1  0  0  0  0
  7  9  1  6  0  0  0
  7 30  1  0  0  0  0
  8 26  1  0  0  0  0
 10  9  1  1  0  0  0
 10 13  1  0  0  0  0
 10 21  1  0  0  0  0
 13 12  1  6  0  0  0
 13 15  1  0  0  0  0
 15  2  1  1  0  0  0
 15 17  1  0  0  0  0
 16 25  1  0  0  0  0
 16 23  1  0  0  0  0
 17 19  1  0  0  0  0
 19  5  1  1  0  0  0
 19 21  1  0  0  0  0
 21 14  1  6  0  0  0
 23 14  1  1  0  0  0
 23 29  1  0  0  0  0
 25 26  1  6  0  0  0
 25 27  1  0  0  0  0
 27 18  1  1  0  0  0
 27 28  1  0  0  0  0
 28 20  1  6  0  0  0
 28 29  1  0  0  0  0
 29 11  1  1  0  0  0
 30 22  1  1  0  0  0
 30 31  1  0  0  0  0
 31 24  1  1  0  0  0
M  END
>  <CHROM.1>
67.63233982,65.56479376,99.86034655,71.36214962,-66.14497880,-170.49376242
34.50306155,16.75836792,10.19489048,-0.37678858,-0.67487969,1.69518805

>  <Name>
ligand

>  <RI>
0

>  <Rbt.Current_Directory>
/home/itssahil/PROJECTS/Mol_Feturizer/New_Systems/rnas/2ET5

>  <Rbt.Executable>
rbdock ($Id: //depot/dev/client3/rdock/2013.1/src/exe/rbdock.cxx#4 $)

>  <Rbt.Library>
libRbt.so (2013.1, Build901 2013/11/27)

>  <Rbt.Parameter_File>
/export/apps/rDock/src/rDock_2013.1_src/data/scripts/dock_solv.prm

>  <Rbt.Receptor>
prm/blind_docking_100.prm

>  <SCORE>
56.4007

>  <SCORE.INTER>
22.7208

>  <SCORE.INTER.CONST>
1

>  <SCORE.INTER.POLAR>
0

>  <SCORE.INTER.ROT>
6

>  <SCORE.INTER.SOLV>
26.9842

>  <SCORE.INTER.VDW>
-1.44754

>  <SCORE.INTER.norm>
0.732929

>  <SCORE.INTRA>
5.90958

>  <SCORE.INTRA.DIHEDRAL>
-4.24124

>  <SCORE.INTRA.DIHEDRAL.0>
11.2357

>  <SCORE.INTRA.POLAR>
0

>  <SCORE.INTRA.POLAR.0>
0

>  <SCORE.INTRA.REPUL>
0

>  <SCORE.INTRA.REPUL.0>
0

>  <SCORE.INTRA.SOLV>
4.03929

>  <SCORE.INTRA.SOLV.lig_0>
-83.3092

>  <SCORE.INTRA.VDW>
6.01055

>  <SCORE.INTRA.VDW.0>
-4.47057

>  <SCORE.INTRA.norm>
0.190631

>  <SCORE.RESTR>
27.7703

>  <SCORE.RESTR.CAVITY>
27.7703

>  <SCORE.RESTR.norm>
0.895817

>  <SCORE.SYSTEM>
0

>  <SCORE.SYSTEM.CONST>
0

>  <SCORE.SYSTEM.DIHEDRAL>
0

>  <SCORE.SYSTEM.SOLV>
0

>  <SCORE.SYSTEM.norm>
0

>  <SCORE.heavy>
31

>  <SCORE.norm>
1.81938

>  <RMSD>
13.646

$$$$
ligand
 OpenBabel11021811433D
libRbt.so/2013.1/901 2013/11/27
 31 33  0  0  0  0  0  0  0  0999 V2000
   37.6492   13.9256   11.6648 C   0  0  0  0  0  0  0  0  0  0  0  0
   36.7757   14.8695    6.9463 N   0  0  0  0  0  0  0  0  0  0  0  0
   38.9502   14.2464   11.1509 O   0  0  0  0  0  0  0  0  0  0  0  0
   37.3087   15.0928   12.5878 C   0  0  1  0  0  0  0  0  0  0  0  0
   37.2371   19.6650    8.5335 N   0  0  0  0  0  0  0  0  0  0  0  0
   36.6331   16.2687   11.9060 O   0  0  0  0  0  0  0  0  0  0  0  0
   35.2933   16.3779   12.1974 C   0  0  1  0  0  0  0  0  0  0  0  0
   32.1002   16.4447    8.9021 N   0  0  0  0  0  0  0  0  0  0  0  0
   34.4018   16.5456   11.1303 O   0  0  0  0  0  0  0  0  0  0  0  0
   34.8374   16.9348    9.7466 C   0  0  2  0  0  0  0  0  0  0  0  0
   34.4887   21.9792   11.2533 N   0  0  0  0  0  0  0  0  0  0  0  0
   34.6300   14.5643    9.0191 O   0  0  0  0  0  0  0  0  0  0  0  0
   35.5533   15.7126    9.0991 C   0  0  1  0  0  0  0  0  0  0  0  0
   35.1912   19.2451   10.3534 O   0  0  0  0  0  0  0  0  0  0  0  0
   36.0556   16.0821    7.6146 C   0  0  1  0  0  0  0  0  0  0  0  0
   33.0956   19.1265    9.2311 O   0  0  0  0  0  0  0  0  0  0  0  0
   37.0467   17.3205    7.7346 C   0  0  0  0  0  0  0  0  0  0  0  0
   30.9549   18.7200   12.2515 O   0  0  0  0  0  0  0  0  0  0  0  0
   36.2747   18.5186    8.4285 C   0  0  1  0  0  0  0  0  0  0  0  0
   32.0261   21.3231   12.7321 O   0  0  0  0  0  0  0  0  0  0  0  0
   35.8488   18.1641    9.8176 C   0  0  2  0  0  0  0  0  0  0  0  0
   33.9499   15.5298   13.9765 O   0  0  0  0  0  0  0  0  0  0  0  0
   34.1619   20.0594    9.7352 C   0  0  1  0  0  0  0  0  0  0  0  0
   36.5635   15.7529   14.8604 O   0  0  0  0  0  0  0  0  0  0  0  0
   32.3334   18.3554   10.3002 C   0  0  2  0  0  0  0  0  0  0  0  0
   31.3123   17.4350    9.6415 C   0  0  0  0  0  0  0  0  0  0  0  0
   31.6557   19.3841   11.2346 C   0  0  2  0  0  0  0  0  0  0  0  0
   32.6859   20.3184   11.8468 C   0  0  1  0  0  0  0  0  0  0  0  0
   33.4420   21.0281   10.7083 C   0  0  1  0  0  0  0  0  0  0  0  0
   34.9742   15.2037   13.1084 C   0  0  2  0  0  0  0  0  0  0  0  0
   36.3477   14.8306   13.7532 C   0  0  1  0  0  0  0  0  0  0  0  0
  1  3  1  0  0  0  0
  4  1  1  6  0  0  0
  4  6  1  0  0  0  0
  4 31  1  0  0  0  0
  6  7  1  0  0  0  0
  7  9  1  6  0  0  0
  7 30  1  0  0  0  0
  8 26  1  0  0  0  0
 10  9  1  1  0  0  0
 10 13  1  0  0  0  0
 10 21  1  0  0  0  0
 13 12  1  6  0  0  0
 13 15  1  0  0  0  0
 15  2  1  1  0  0  0
 15 17  1  0  0  0  0
 16 25  1  0  0  0  0
 16 23  1  0  0  0  0
 17 19  1  0  0  0  0
 19  5  1  1  0  0  0
 19 21  1  0  0  0  0
 21 14  1  6  0  0  0
 23 14  1  1  0  0  0
 23 29  1  0  0  0  0
 25 26  1  6  0  0  0
 25 27  1  0  0  0  0
 27 18  1  1  0  0  0
 27 28  1  0  0  0  0
 28 20  1  1  0  0  0
 28 29  1  0  0  0  0
 29 11  1  1  0  0  0
 30 22  1  1  0  0  0
 30 31  1  0  0  0  0
 31 24  1  1  0  0  0
M  END
>  <CHROM.1>
87.73779488,-15.00334044,72.30507918,52.09740029,-71.79611759,65.87046639
34.82491183,17.37024759,10.73505933,0.31503624,-0.81278056,1.95999684

>  <Name>
ligand

>  <RI>
0

>  <Rbt.Current_Directory>
/home/itssahil/PROJECTS/Mol_Feturizer/New_Systems/rnas/2ET5

>  <Rbt.Executable>
rbdock ($Id: //depot/dev/client3/rdock/2013.1/src/exe/rbdock.cxx#4 $)

>  <Rbt.Library>
libRbt.so (2013.1, Build901 2013/11/27)

>  <Rbt.Parameter_File>
/export/apps/rDock/src/rDock_2013.1_src/data/scripts/dock_solv.prm

>  <Rbt.Receptor>
prm/blind_docking_100.prm

>  <SCORE>
76.2661

>  <SCORE.INTER>
54.0409

>  <SCORE.INTER.CONST>
1

>  <SCORE.INTER.POLAR>
0

>  <SCORE.INTER.ROT>
6

>  <SCORE.INTER.SOLV>
41.8116

>  <SCORE.INTER.VDW>
14.4901

>  <SCORE.INTER.norm>
1.74325

>  <SCORE.INTRA>
0.714247

>  <SCORE.INTRA.DIHEDRAL>
-0.964346

>  <SCORE.INTRA.DIHEDRAL.0>
11.2357

>  <SCORE.INTRA.POLAR>
0

>  <SCORE.INTRA.POLAR.0>
0

>  <SCORE.INTRA.REPUL>
0

>  <SCORE.INTRA.REPUL.0>
0

>  <SCORE.INTRA.SOLV>
0.308961

>  <SCORE.INTRA.SOLV.lig_0>
-83.3092

>  <SCORE.INTRA.VDW>
1.04194

>  <SCORE.INTRA.VDW.0>
-4.47057

>  <SCORE.INTRA.norm>
0.0230402

>  <SCORE.RESTR>
21.511

>  <SCORE.RESTR.CAVITY>
21.511

>  <SCORE.RESTR.norm>
0.693903

>  <SCORE.SYSTEM>
0

>  <SCORE.SYSTEM.CONST>
0

>  <SCORE.SYSTEM.DIHEDRAL>
0

>  <SCORE.SYSTEM.SOLV>
0

>  <SCORE.SYSTEM.norm>
0

>  <SCORE.heavy>
31

>  <SCORE.norm>
2.4602

>  <RMSD>
13.656

$$$$
ligand
 OpenBabel11021811433D
libRbt.so/2013.1/901 2013/11/27
 31 33  0  0  0  0  0  0  0  0999 V2000
   31.3170   17.9679    9.4603 C   0  0  0  0  0  0  0  0  0  0  0  0
   37.6265   15.8330   15.4549 N   0  0  0  0  0  0  0  0  0  0  0  0
   32.5283   18.0750    8.6981 O   0  0  0  0  0  0  0  0  0  0  0  0
   31.6816   18.5312   10.8314 C   0  0  1  0  0  0  0  0  0  0  0  0
   37.3305   13.0457   11.2273 N   0  0  0  0  0  0  0  0  0  0  0  0
   32.6724   17.6953   11.6212 O   0  0  0  0  0  0  0  0  0  0  0  0
   33.9313   18.2462   11.6820 C   0  0  1  0  0  0  0  0  0  0  0  0
   36.3417   19.0442   10.4187 N   0  0  0  0  0  0  0  0  0  0  0  0
   35.0224   17.4233   11.3757 O   0  0  0  0  0  0  0  0  0  0  0  0
   35.3903   16.2097   12.1805 C   0  0  2  0  0  0  0  0  0  0  0  0
   34.0279   13.7413    7.8189 N   0  0  0  0  0  0  0  0  0  0  0  0
   35.5572   17.6204   14.2235 O   0  0  0  0  0  0  0  0  0  0  0  0
   36.2888   16.6663   13.3679 C   0  0  1  0  0  0  0  0  0  0  0  0
   35.3775   14.7527   10.2549 O   0  0  0  0  0  0  0  0  0  0  0  0
   36.7256   15.3972   14.2574 C   0  0  1  0  0  0  0  0  0  0  0  0
   34.9811   16.9735    9.4958 O   0  0  0  0  0  0  0  0  0  0  0  0
   37.5100   14.3898   13.3087 C   0  0  0  0  0  0  0  0  0  0  0  0
   37.5350   17.0181    6.7854 O   0  0  0  0  0  0  0  0  0  0  0  0
   36.5600   13.9876   12.1051 C   0  0  1  0  0  0  0  0  0  0  0  0
   35.7899   14.9800    5.8083 O   0  0  0  0  0  0  0  0  0  0  0  0
   36.1962   15.1764   11.2739 C   0  0  2  0  0  0  0  0  0  0  0  0
   34.7433   20.4662   11.3633 O   0  0  0  0  0  0  0  0  0  0  0  0
   34.4912   15.5532    9.4312 C   0  0  1  0  0  0  0  0  0  0  0  0
   32.0932   20.5904   12.1528 O   0  0  0  0  0  0  0  0  0  0  0  0
   36.3511   17.2283    8.8818 C   0  0  2  0  0  0  0  0  0  0  0  0
   36.7243   18.6969    9.0471 C   0  0  0  0  0  0  0  0  0  0  0  0
   36.2865   16.8198    7.3920 C   0  0  2  0  0  0  0  0  0  0  0  0
   35.8712   15.3651    7.2482 C   0  0  1  0  0  0  0  0  0  0  0  0
   34.5019   15.1769    7.9272 C   0  0  1  0  0  0  0  0  0  0  0  0
   33.8585   19.5277   10.8678 C   0  0  2  0  0  0  0  0  0  0  0  0
   32.3443   19.9125   10.8877 C   0  0  1  0  0  0  0  0  0  0  0  0
  1  3  1  0  0  0  0
  4  1  1  6  0  0  0
  4  6  1  0  0  0  0
  4 31  1  0  0  0  0
  6  7  1  0  0  0  0
  7  9  1  6  0  0  0
  7 30  1  0  0  0  0
  8 26  1  0  0  0  0
 10  9  1  6  0  0  0
 10 13  1  0  0  0  0
 10 21  1  0  0  0  0
 13 12  1  1  0  0  0
 13 15  1  0  0  0  0
 15  2  1  1  0  0  0
 15 17  1  0  0  0  0
 16 25  1  0  0  0  0
 16 23  1  0  0  0  0
 17 19  1  0  0  0  0
 19  5  1  6  0  0  0
 19 21  1  0  0  0  0
 21 14  1  6  0  0  0
 23 14  1  1  0  0  0
 23 29  1  0  0  0  0
 25 26  1  6  0  0  0
 25 27  1  0  0  0  0
 27 18  1  1  0  0  0
 27 28  1  0  0  0  0
 28 20  1  6  0  0  0
 28 29  1  0  0  0  0
 29 11  1  1  0  0  0
 30 22  1  1  0  0  0
 30 31  1  0  0  0  0
 31 24  1  1  0  0  0
M  END
>  <CHROM.1>
-67.42253545,-63.26739906,-85.58403611,21.53970574,43.61917753,43.11918570
35.06671366,16.87926917,10.52535602,2.27443916,-0.86181434,1.33558768

>  <Name>
ligand

>  <RI>
0

>  <Rbt.Current_Directory>
/home/itssahil/PROJECTS/Mol_Feturizer/New_Systems/rnas/2ET5

>  <Rbt.Executable>
rbdock ($Id: //depot/dev/client3/rdock/2013.1/src/exe/rbdock.cxx#4 $)

>  <Rbt.Library>
libRbt.so (2013.1, Build901 2013/11/27)

>  <Rbt.Parameter_File>
/export/apps/rDock/src/rDock_2013.1_src/data/scripts/dock_solv.prm

>  <Rbt.Receptor>
prm/blind_docking_100.prm

>  <SCORE>
85.5132

>  <SCORE.INTER>
38.2715

>  <SCORE.INTER.CONST>
1

>  <SCORE.INTER.POLAR>
0

>  <SCORE.INTER.ROT>
6

>  <SCORE.INTER.SOLV>
24.1426

>  <SCORE.INTER.VDW>
9.86683

>  <SCORE.INTER.norm>
1.23457

>  <SCORE.INTRA>
23.1015

>  <SCORE.INTRA.DIHEDRAL>
-0.774628

>  <SCORE.INTRA.DIHEDRAL.0>
11.2357

>  <SCORE.INTRA.POLAR>
0

>  <SCORE.INTRA.POLAR.0>
0

>  <SCORE.INTRA.REPUL>
0.117277

>  <SCORE.INTRA.REPUL.0>
0

>  <SCORE.INTRA.SOLV>
4.42104

>  <SCORE.INTRA.SOLV.lig_0>
-83.3092

>  <SCORE.INTRA.VDW>
20.6919

>  <SCORE.INTRA.VDW.0>
-4.47057

>  <SCORE.INTRA.norm>
0.745209

>  <SCORE.RESTR>
24.1402

>  <SCORE.RESTR.CAVITY>
24.1402

>  <SCORE.RESTR.norm>
0.778716

>  <SCORE.SYSTEM>
0

>  <SCORE.SYSTEM.CONST>
0

>  <SCORE.SYSTEM.DIHEDRAL>
0

>  <SCORE.SYSTEM.SOLV>
0

>  <SCORE.SYSTEM.norm>
0

>  <SCORE.heavy>
31

>  <SCORE.norm>
2.75849

>  <RMSD>
13.664

$$$$
ligand
 OpenBabel11021811433D
libRbt.so/2013.1/901 2013/11/27
 31 33  0  0  0  0  0  0  0  0999 V2000
   33.5536   15.2098   14.3551 C   0  0  0  0  0  0  0  0  0  0  0  0
   32.9797   22.0514   11.7480 N   0  0  0  0  0  0  0  0  0  0  0  0
   34.0304   14.3157   15.3714 O   0  0  0  0  0  0  0  0  0  0  0  0
   34.2266   14.7211   13.0751 C   0  0  1  0  0  0  0  0  0  0  0  0
   30.9468   17.7998    9.8719 N   0  0  0  0  0  0  0  0  0  0  0  0
   34.2484   15.7298   11.9411 O   0  0  0  0  0  0  0  0  0  0  0  0
   35.4894   16.2794   11.7176 C   0  0  1  0  0  0  0  0  0  0  0  0
   36.4579   19.8383    9.2166 N   0  0  0  0  0  0  0  0  0  0  0  0
   35.5800   17.6731   11.6126 O   0  0  0  0  0  0  0  0  0  0  0  0
   34.5775   18.5100   10.8708 C   0  0  2  0  0  0  0  0  0  0  0  0
   33.4780   14.0427    8.4408 N   0  0  0  0  0  0  0  0  0  0  0  0
   35.5845   20.5684   11.8407 O   0  0  0  0  0  0  0  0  0  0  0  0
   34.3272   19.8108   11.6899 C   0  0  1  0  0  0  0  0  0  0  0  0
   33.4366   16.5883    9.9563 O   0  0  0  0  0  0  0  0  0  0  0  0
   33.2447   20.7404   10.9438 C   0  0  1  0  0  0  0  0  0  0  0  0
   34.5396   17.6404    8.1283 O   0  0  0  0  0  0  0  0  0  0  0  0
   31.9040   19.8973   10.7966 C   0  0  0  0  0  0  0  0  0  0  0  0
   37.9076   16.1475    8.6753 O   0  0  0  0  0  0  0  0  0  0  0  0
   32.2270   18.5740    9.9859 C   0  0  1  0  0  0  0  0  0  0  0  0
   36.3943   13.7951    8.1002 O   0  0  0  0  0  0  0  0  0  0  0  0
   33.2076   17.7112   10.7144 C   0  0  2  0  0  0  0  0  0  0  0  0
   37.6971   15.5734   12.2809 O   0  0  0  0  0  0  0  0  0  0  0  0
   33.6345   16.5056    8.5215 C   0  0  1  0  0  0  0  0  0  0  0  0
   36.0606   13.3463   12.1254 O   0  0  0  0  0  0  0  0  0  0  0  0
   35.9577   17.5754    8.6792 C   0  0  2  0  0  0  0  0  0  0  0  0
   36.7437   18.7993    8.2232 C   0  0  0  0  0  0  0  0  0  0  0  0
   36.6023   16.2631    8.1763 C   0  0  2  0  0  0  0  0  0  0  0  0
   35.7804   15.0589    8.6048 C   0  0  1  0  0  0  0  0  0  0  0  0
   34.3533   15.2161    8.0480 C   0  0  1  0  0  0  0  0  0  0  0  0
   36.4053   15.6640   12.7630 C   0  0  2  0  0  0  0  0  0  0  0  0
   35.7049   14.3214   13.1480 C   0  0  1  0  0  0  0  0  0  0  0  0
  1  3  1  0  0  0  0
  4  1  1  1  0  0  0
  4  6  1  0  0  0  0
  4 31  1  0  0  0  0
  6  7  1  0  0  0  0
  7  9  1  1  0  0  0
  7 30  1  0  0  0  0
  8 26  1  0  0  0  0
 10  9  1  1  0  0  0
 10 13  1  0  0  0  0
 10 21  1  0  0  0  0
 13 12  1  6  0  0  0
 13 15  1  0  0  0  0
 15  2  1  1  0  0  0
 15 17  1  0  0  0  0
 16 25  1  0  0  0  0
 16 23  1  0  0  0  0
 17 19  1  0  0  0  0
 19  5  1  1  0  0  0
 19 21  1  0  0  0  0
 21 14  1  6  0  0  0
 23 14  1  1  0  0  0
 23 29  1  0  0  0  0
 25 26  1  6  0  0  0
 25 27  1  0  0  0  0
 27 18  1  1  0  0  0
 27 28  1  0  0  0  0
 28 20  1  6  0  0  0
 28 29  1  0  0  0  0
 29 11  1  1  0  0  0
 30 22  1  6  0  0  0
 30 31  1  0  0  0  0
 31 24  1  6  0  0  0
M  END
>  <CHROM.1>
-161.58989962,-41.19584202,140.13953276,42.48878004,-75.36460243,86.43485793
34.78872513,16.93063248,10.65412487,0.81167011,-1.06681960,2.24568784

>  <Name>
ligand

>  <RI>
0

>  <Rbt.Current_Directory>
/home/itssahil/PROJECTS/Mol_Feturizer/New_Systems/rnas/2ET5

>  <Rbt.Executable>
rbdock ($Id: //depot/dev/client3/rdock/2013.1/src/exe/rbdock.cxx#4 $)

>  <Rbt.Library>
libRbt.so (2013.1, Build901 2013/11/27)

>  <Rbt.Parameter_File>
/export/apps/rDock/src/rDock_2013.1_src/data/scripts/dock_solv.prm

>  <Rbt.Receptor>
prm/blind_docking_100.prm

>  <SCORE>
53.0409

>  <SCORE.INTER>
15.4945

>  <SCORE.INTER.CONST>
1

>  <SCORE.INTER.POLAR>
0

>  <SCORE.INTER.ROT>
6

>  <SCORE.INTER.SOLV>
35.2152

>  <SCORE.INTER.VDW>
-9.0087

>  <SCORE.INTER.norm>
0.499824

>  <SCORE.INTRA>
11.4164

>  <SCORE.INTRA.DIHEDRAL>
1.63629

>  <SCORE.INTRA.DIHEDRAL.0>
11.2357

>  <SCORE.INTRA.POLAR>
0

>  <SCORE.INTRA.POLAR.0>
0

>  <SCORE.INTRA.REPUL>
0.735318

>  <SCORE.INTRA.REPUL.0>
0

>  <SCORE.INTRA.SOLV>
2.49234

>  <SCORE.INTRA.SOLV.lig_0>
-83.3092

>  <SCORE.INTRA.VDW>
5.67554

>  <SCORE.INTRA.VDW.0>
-4.47057

>  <SCORE.INTRA.norm>
0.368273

>  <SCORE.RESTR>
26.1299

>  <SCORE.RESTR.CAVITY>
26.1299

>  <SCORE.RESTR.norm>
0.842899

>  <SCORE.SYSTEM>
0

>  <SCORE.SYSTEM.CONST>
0

>  <SCORE.SYSTEM.DIHEDRAL>
0

>  <SCORE.SYSTEM.SOLV>
0

>  <SCORE.SYSTEM.norm>
0

>  <SCORE.heavy>
31

>  <SCORE.norm>
1.711

>  <RMSD>
13.672

$$$$
ligand
 OpenBabel11021811433D
libRbt.so/2013.1/901 2013/11/27
 31 33  0  0  0  0  0  0  0  0999 V2000
   33.4393   21.2659   11.3615 C   0  0  0  0  0  0  0  0  0  0  0  0
   36.3244   14.7661    6.0109 N   0  0  0  0  0  0  0  0  0  0  0  0
   34.7665   20.8134   11.6674 O   0  0  0  0  0  0  0  0  0  0  0  0
   32.9355   20.2786   10.3120 C   0  0  1  0  0  0  0  0  0  0  0  0
   35.1325   13.1227   10.6592 N   0  0  0  0  0  0  0  0  0  0  0  0
   34.0164   19.6734    9.4349 O   0  0  0  0  0  0  0  0  0  0  0  0
   34.2906   18.3578    9.7285 C   0  0  1  0  0  0  0  0  0  0  0  0
   34.6378   17.5500   15.5186 N   0  0  0  0  0  0  0  0  0  0  0  0
   35.6313   17.9888    9.8948 O   0  0  0  0  0  0  0  0  0  0  0  0
   36.1647   16.6343    9.5249 C   0  0  2  0  0  0  0  0  0  0  0  0
   38.1644   14.2473   11.3170 N   0  0  0  0  0  0  0  0  0  0  0  0
   36.7021   17.4732    7.2448 O   0  0  0  0  0  0  0  0  0  0  0  0
   35.9678   16.4346    7.9930 C   0  0  1  0  0  0  0  0  0  0  0  0
   35.5859   15.6657   11.6598 O   0  0  0  0  0  0  0  0  0  0  0  0
   36.5111   14.9868    7.5446 C   0  0  1  0  0  0  0  0  0  0  0  0
   36.4384   16.6351   13.6595 O   0  0  0  0  0  0  0  0  0  0  0  0
   35.7020   13.8916    8.3668 C   0  0  0  0  0  0  0  0  0  0  0  0
   36.2508   13.5860   15.7899 O   0  0  0  0  0  0  0  0  0  0  0  0
   35.9130   14.1651    9.9139 C   0  0  1  0  0  0  0  0  0  0  0  0
   38.1582   12.7319   13.8439 O   0  0  0  0  0  0  0  0  0  0  0  0
   35.3698   15.5001   10.3129 C   0  0  2  0  0  0  0  0  0  0  0  0
   33.0543   16.6611   10.8609 O   0  0  0  0  0  0  0  0  0  0  0  0
   36.8155   16.0532   12.3251 C   0  0  1  0  0  0  0  0  0  0  0  0
   31.2790   18.5028    9.8033 O   0  0  0  0  0  0  0  0  0  0  0  0
   35.7999   15.6665   14.6457 C   0  0  2  0  0  0  0  0  0  0  0  0
   35.4478   16.4012   15.9340 C   0  0  0  0  0  0  0  0  0  0  0  0
   36.8032   14.5178   14.8996 C   0  0  2  0  0  0  0  0  0  0  0  0
   37.1738   13.8269   13.5978 C   0  0  1  0  0  0  0  0  0  0  0  0
   37.7716   14.8740   12.6399 C   0  0  1  0  0  0  0  0  0  0  0  0
   33.3877   18.0015   10.8983 C   0  0  2  0  0  0  0  0  0  0  0  0
   32.2074   19.0206   10.7998 C   0  0  1  0  0  0  0  0  0  0  0  0
  1  3  1  0  0  0  0
  4  1  1  1  0  0  0
  4  6  1  0  0  0  0
  4 31  1  0  0  0  0
  6  7  1  0  0  0  0
  7  9  1  1  0  0  0
  7 30  1  0  0  0  0
  8 26  1  0  0  0  0
 10  9  1  1  0  0  0
 10 13  1  0  0  0  0
 10 21  1  0  0  0  0
 13 12  1  6  0  0  0
 13 15  1  0  0  0  0
 15  2  1  6  0  0  0
 15 17  1  0  0  0  0
 16 25  1  0  0  0  0
 16 23  1  0  0  0  0
 17 19  1  0  0  0  0
 19  5  1  1  0  0  0
 19 21  1  0  0  0  0
 21 14  1  1  0  0  0
 23 14  1  1  0  0  0
 23 29  1  0  0  0  0
 25 26  1  1  0  0  0
 25 27  1  0  0  0  0
 27 18  1  1  0  0  0
 27 28  1  0  0  0  0
 28 20  1  1  0  0  0
 28 29  1  0  0  0  0
 29 11  1  6  0  0  0
 30 22  1  6  0  0  0
 30 31  1  0  0  0  0
 31 24  1  6  0  0  0
M  END
>  <CHROM.1>
-29.49700232,-147.61375123,61.77871412,157.17786146,-38.66815165,53.46315752
35.40103515,16.45736304,11.24288482,2.45576687,0.99934675,-1.58670443

>  <Name>
ligand

>  <RI>
0

>  <Rbt.Current_Directory>
/home/itssahil/PROJECTS/Mol_Feturizer/New_Systems/rnas/2ET5

>  <Rbt.Executable>
rbdock ($Id: //depot/dev/client3/rdock/2013.1/src/exe/rbdock.cxx#4 $)

>  <Rbt.Library>
libRbt.so (2013.1, Build901 2013/11/27)

>  <Rbt.Parameter_File>
/export/apps/rDock/src/rDock_2013.1_src/data/scripts/dock_solv.prm

>  <Rbt.Receptor>
prm/blind_docking_100.prm

>  <SCORE>
48.6127

>  <SCORE.INTER>
11.2325

>  <SCORE.INTER.CONST>
1

>  <SCORE.INTER.POLAR>
0

>  <SCORE.INTER.ROT>
6

>  <SCORE.INTER.SOLV>
21.9109

>  <SCORE.INTER.VDW>
-7.41533

>  <SCORE.INTER.norm>
0.362338

>  <SCORE.INTRA>
3.78301

>  <SCORE.INTRA.DIHEDRAL>
0.00330402

>  <SCORE.INTRA.DIHEDRAL.0>
11.2357

>  <SCORE.INTRA.POLAR>
0

>  <SCORE.INTRA.POLAR.0>
0

>  <SCORE.INTRA.REPUL>
0

>  <SCORE.INTRA.REPUL.0>
0

>  <SCORE.INTRA.SOLV>
2.23994

>  <SCORE.INTRA.SOLV.lig_0>
-83.3092

>  <SCORE.INTRA.VDW>
2.66139

>  <SCORE.INTRA.VDW.0>
-4.47057

>  <SCORE.INTRA.norm>
0.122033

>  <SCORE.RESTR>
33.5973

>  <SCORE.RESTR.CAVITY>
33.5973

>  <SCORE.RESTR.norm>
1.08378

>  <SCORE.SYSTEM>
0

>  <SCORE.SYSTEM.CONST>
0

>  <SCORE.SYSTEM.DIHEDRAL>
0

>  <SCORE.SYSTEM.SOLV>
0

>  <SCORE.SYSTEM.norm>
0

>  <SCORE.heavy>
31

>  <SCORE.norm>
1.56815

>  <RMSD>
13.687

$$$$
ligand
 OpenBabel11021811433D
libRbt.so/2013.1/901 2013/11/27
 31 33  0  0  0  0  0  0  0  0999 V2000
   34.6696   14.8458    4.5740 C   0  0  0  0  0  0  0  0  0  0  0  0
   36.4152   14.0564   13.1957 N   0  0  0  0  0  0  0  0  0  0  0  0
   35.3041   14.0082    5.5514 O   0  0  0  0  0  0  0  0  0  0  0  0
   34.8946   16.2652    5.0887 C   0  0  1  0  0  0  0  0  0  0  0  0
   34.8961   18.8569   12.5820 N   0  0  0  0  0  0  0  0  0  0  0  0
   34.3353   16.5375    6.4733 O   0  0  0  0  0  0  0  0  0  0  0  0
   35.3014   16.6316    7.4480 C   0  0  1  0  0  0  0  0  0  0  0  0
   31.1667   15.2109    9.3802 N   0  0  0  0  0  0  0  0  0  0  0  0
   35.1210   15.8918    8.6234 O   0  0  0  0  0  0  0  0  0  0  0  0
   35.7824   16.2408    9.9259 C   0  0  2  0  0  0  0  0  0  0  0  0
   33.8262   20.9842   10.9702 N   0  0  0  0  0  0  0  0  0  0  0  0
   36.4784   13.8680   10.2035 O   0  0  0  0  0  0  0  0  0  0  0  0
   35.7502   14.9815   10.8417 C   0  0  1  0  0  0  0  0  0  0  0  0
   35.0687   18.5459    9.8347 O   0  0  0  0  0  0  0  0  0  0  0  0
   36.4357   15.3067   12.2619 C   0  0  1  0  0  0  0  0  0  0  0  0
   33.1379   18.2520    8.4744 O   0  0  0  0  0  0  0  0  0  0  0  0
   35.6300   16.5083   12.9231 C   0  0  0  0  0  0  0  0  0  0  0  0
   30.8286   17.1004   11.1599 O   0  0  0  0  0  0  0  0  0  0  0  0
   35.6696   17.7463   11.9340 C   0  0  1  0  0  0  0  0  0  0  0  0
   31.3869   19.7493   12.0687 O   0  0  0  0  0  0  0  0  0  0  0  0
   34.9970   17.4318   10.6358 C   0  0  2  0  0  0  0  0  0  0  0  0
   37.6444   17.0714    7.3669 O   0  0  0  0  0  0  0  0  0  0  0  0
   33.9765   19.2639    9.2053 C   0  0  1  0  0  0  0  0  0  0  0  0
   36.4474   18.1996    5.1406 O   0  0  0  0  0  0  0  0  0  0  0  0
   32.4239   17.2303    9.3491 C   0  0  2  0  0  0  0  0  0  0  0  0
   31.6418   16.2591    8.4725 C   0  0  0  0  0  0  0  0  0  0  0  0
   31.4958   18.0004   10.3167 C   0  0  2  0  0  0  0  0  0  0  0  0
   32.2888   18.9931   11.1503 C   0  0  1  0  0  0  0  0  0  0  0  0
   33.0137   19.9632   10.1991 C   0  0  1  0  0  0  0  0  0  0  0  0
   36.6236   16.3818    6.7410 C   0  0  2  0  0  0  0  0  0  0  0  0
   36.3400   16.7506    5.2494 C   0  0  1  0  0  0  0  0  0  0  0  0
  1  3  1  0  0  0  0
  4  1  1  1  0  0  0
  4  6  1  0  0  0  0
  4 31  1  0  0  0  0
  6  7  1  0  0  0  0
  7  9  1  1  0  0  0
  7 30  1  0  0  0  0
  8 26  1  0  0  0  0
 10  9  1  6  0  0  0
 10 13  1  0  0  0  0
 10 21  1  0  0  0  0
 13 12  1  6  0  0  0
 13 15  1  0  0  0  0
 15  2  1  1  0  0  0
 15 17  1  0  0  0  0
 16 25  1  0  0  0  0
 16 23  1  0  0  0  0
 17 19  1  0  0  0  0
 19  5  1  1  0  0  0
 19 21  1  0  0  0  0
 21 14  1  6  0  0  0
 23 14  1  1  0  0  0
 23 29  1  0  0  0  0
 25 26  1  6  0  0  0
 25 27  1  0  0  0  0
 27 18  1  1  0  0  0
 27 28  1  0  0  0  0
 28 20  1  1  0  0  0
 28 29  1  0  0  0  0
 29 11  1  1  0  0  0
 30 22  1  1  0  0  0
 30 31  1  0  0  0  0
 31 24  1  1  0  0  0
M  END
>  <CHROM.1>
-58.62221729,-157.55500386,-161.16299313,-50.93678090,117.99222435,171.65551477
34.48269045,16.99341175,9.23241987,1.05632381,0.70968458,-1.60435215

>  <Name>
ligand

>  <RI>
0

>  <Rbt.Current_Directory>
/home/itssahil/PROJECTS/Mol_Feturizer/New_Systems/rnas/2ET5

>  <Rbt.Executable>
rbdock ($Id: //depot/dev/client3/rdock/2013.1/src/exe/rbdock.cxx#4 $)

>  <Rbt.Library>
libRbt.so (2013.1, Build901 2013/11/27)

>  <Rbt.Parameter_File>
/export/apps/rDock/src/rDock_2013.1_src/data/scripts/dock_solv.prm

>  <Rbt.Receptor>
prm/blind_docking_100.prm

>  <SCORE>
58.9832

>  <SCORE.INTER>
27.5896

>  <SCORE.INTER.CONST>
1

>  <SCORE.INTER.POLAR>
0

>  <SCORE.INTER.ROT>
6

>  <SCORE.INTER.SOLV>
24.5269

>  <SCORE.INTER.VDW>
2.61742

>  <SCORE.INTER.norm>
0.889986

>  <SCORE.INTRA>
2.41569

>  <SCORE.INTRA.DIHEDRAL>
0.477657

>  <SCORE.INTRA.DIHEDRAL.0>
11.2357

>  <SCORE.INTRA.POLAR>
0

>  <SCORE.INTRA.POLAR.0>
0

>  <SCORE.INTRA.REPUL>
0.119241

>  <SCORE.INTRA.REPUL.0>
0

>  <SCORE.INTRA.SOLV>
3.51201

>  <SCORE.INTRA.SOLV.lig_0>
-83.3092

>  <SCORE.INTRA.VDW>
-0.175341

>  <SCORE.INTRA.VDW.0>
-4.47057

>  <SCORE.INTRA.norm>
0.0779256

>  <SCORE.RESTR>
28.9779

>  <SCORE.RESTR.CAVITY>
28.9779

>  <SCORE.RESTR.norm>
0.934772

>  <SCORE.SYSTEM>
0

>  <SCORE.SYSTEM.CONST>
0

>  <SCORE.SYSTEM.DIHEDRAL>
0

>  <SCORE.SYSTEM.SOLV>
0

>  <SCORE.SYSTEM.norm>
0

>  <SCORE.heavy>
31

>  <SCORE.norm>
1.90268

>  <RMSD>
13.704

$$$$
ligand
 OpenBabel11021811433D
libRbt.so/2013.1/901 2013/11/27
 31 33  0  0  0  0  0  0  0  0999 V2000
   31.5688   18.4987   10.0095 C   0  0  0  0  0  0  0  0  0  0  0  0
   35.4635   16.3169    6.2944 N   0  0  0  0  0  0  0  0  0  0  0  0
   32.4485   17.8070    9.1110 O   0  0  0  0  0  0  0  0  0  0  0  0
   32.5051   19.2105   10.9826 C   0  0  1  0  0  0  0  0  0  0  0  0
   38.1884   13.4534    9.4731 N   0  0  0  0  0  0  0  0  0  0  0  0
   33.3400   18.2892   11.8532 O   0  0  0  0  0  0  0  0  0  0  0  0
   34.6657   18.2407   11.4895 C   0  0  1  0  0  0  0  0  0  0  0  0
   37.2207   17.5065   15.2603 N   0  0  0  0  0  0  0  0  0  0  0  0
   35.2591   16.9808   11.3410 O   0  0  0  0  0  0  0  0  0  0  0  0
   36.1722   16.6296   10.2013 C   0  0  2  0  0  0  0  0  0  0  0  0
   36.3027   12.4654   11.4125 N   0  0  0  0  0  0  0  0  0  0  0  0
   34.7877   18.0184    8.6696 O   0  0  0  0  0  0  0  0  0  0  0  0
   35.3436   16.6682    8.8832 C   0  0  1  0  0  0  0  0  0  0  0  0
   37.5285   15.1591   11.5537 O   0  0  0  0  0  0  0  0  0  0  0  0
   36.2747   16.2831    7.6273 C   0  0  1  0  0  0  0  0  0  0  0  0
   37.2699   15.1017   13.9191 O   0  0  0  0  0  0  0  0  0  0  0  0
   36.8575   14.8260    7.8872 C   0  0  0  0  0  0  0  0  0  0  0  0
   33.5830   15.6198   14.0123 O   0  0  0  0  0  0  0  0  0  0  0  0
   37.6600   14.8405    9.2541 C   0  0  1  0  0  0  0  0  0  0  0  0
   33.7111   13.1092   12.6578 O   0  0  0  0  0  0  0  0  0  0  0  0
   36.7679   15.1664   10.4093 C   0  0  2  0  0  0  0  0  0  0  0  0
   36.0506   19.7116   10.2215 O   0  0  0  0  0  0  0  0  0  0  0  0
   37.4290   14.2567   12.6853 C   0  0  1  0  0  0  0  0  0  0  0  0
   33.9807   21.1737   11.3349 O   0  0  0  0  0  0  0  0  0  0  0  0
   35.9823   15.9099   14.0046 C   0  0  2  0  0  0  0  0  0  0  0  0
   35.9757   16.7336   15.2872 C   0  0  0  0  0  0  0  0  0  0  0  0
   34.7963   14.9191   13.9563 C   0  0  2  0  0  0  0  0  0  0  0  0
   34.8457   14.0786   12.6913 C   0  0  1  0  0  0  0  0  0  0  0  0
   36.1890   13.3265   12.6547 C   0  0  1  0  0  0  0  0  0  0  0  0
   34.7914   19.1452   10.2744 C   0  0  2  0  0  0  0  0  0  0  0  0
   33.5845   20.1296   10.3990 C   0  0  1  0  0  0  0  0  0  0  0  0
  1  3  1  0  0  0  0
  4  1  1  6  0  0  0
  4  6  1  0  0  0  0
  4 31  1  0  0  0  0
  6  7  1  0  0  0  0
  7  9  1  6  0  0  0
  7 30  1  0  0  0  0
  8 26  1  0  0  0  0
 10  9  1  1  0  0  0
 10 13  1  0  0  0  0
 10 21  1  0  0  0  0
 13 12  1  6  0  0  0
 13 15  1  0  0  0  0
 15  2  1  6  0  0  0
 15 17  1  0  0  0  0
 16 25  1  0  0  0  0
 16 23  1  0  0  0  0
 17 19  1  0  0  0  0
 19  5  1  1  0  0  0
 19 21  1  0  0  0  0
 21 14  1  1  0  0  0
 23 14  1  6  0  0  0
 23 29  1  0  0  0  0
 25 26  1  1  0  0  0
 25 27  1  0  0  0  0
 27 18  1  6  0  0  0
 27 28  1  0  0  0  0
 28 20  1  1  0  0  0
 28 29  1  0  0  0  0
 29 11  1  6  0  0  0
 30 22  1  1  0  0  0
 30 31  1  0  0  0  0
 31 24  1  1  0  0  0
M  END
>  <CHROM.1>
-64.77116358,136.73730915,-65.48282668,-125.64254764,127.06573085,54.32013998
35.34218480,16.47075872,11.17079648,2.52096822,1.00873203,-1.39980096

>  <Name>
ligand

>  <RI>
0

>  <Rbt.Current_Directory>
/home/itssahil/PROJECTS/Mol_Feturizer/New_Systems/rnas/2ET5

>  <Rbt.Executable>
rbdock ($Id: //depot/dev/client3/rdock/2013.1/src/exe/rbdock.cxx#4 $)

>  <Rbt.Library>
libRbt.so (2013.1, Build901 2013/11/27)

>  <Rbt.Parameter_File>
/export/apps/rDock/src/rDock_2013.1_src/data/scripts/dock_solv.prm

>  <Rbt.Receptor>
prm/blind_docking_100.prm

>  <SCORE>
63.566

>  <SCORE.INTER>
9.29873

>  <SCORE.INTER.CONST>
1

>  <SCORE.INTER.POLAR>
0

>  <SCORE.INTER.ROT>
6

>  <SCORE.INTER.SOLV>
20.2718

>  <SCORE.INTER.VDW>
-8.1581

>  <SCORE.INTER.norm>
0.299959

>  <SCORE.INTRA>
23.3306

>  <SCORE.INTRA.DIHEDRAL>
8.90986

>  <SCORE.INTRA.DIHEDRAL.0>
11.2357

>  <SCORE.INTRA.POLAR>
0

>  <SCORE.INTRA.POLAR.0>
0

>  <SCORE.INTRA.REPUL>
0

>  <SCORE.INTRA.REPUL.0>
0

>  <SCORE.INTRA.SOLV>
3.38703

>  <SCORE.INTRA.SOLV.lig_0>
-83.3092

>  <SCORE.INTRA.VDW>
17.1821

>  <SCORE.INTRA.VDW.0>
-4.47057

>  <SCORE.INTRA.norm>
0.752599

>  <SCORE.RESTR>
30.9367

>  <SCORE.RESTR.CAVITY>
30.9367

>  <SCORE.RESTR.norm>
0.997958

>  <SCORE.SYSTEM>
0

>  <SCORE.SYSTEM.CONST>
0

>  <SCORE.SYSTEM.DIHEDRAL>
0

>  <SCORE.SYSTEM.SOLV>
0

>  <SCORE.SYSTEM.norm>
0

>  <SCORE.heavy>
31

>  <SCORE.norm>
2.05052

>  <RMSD>
13.722

$$$$
ligand
 OpenBabel11021811433D
libRbt.so/2013.1/901 2013/11/27
 31 33  0  0  0  0  0  0  0  0999 V2000
   37.7799   13.7260   11.8906 C   0  0  0  0  0  0  0  0  0  0  0  0
   37.1097   14.6111    7.0749 N   0  0  0  0  0  0  0  0  0  0  0  0
   38.5360   14.2477   10.7880 O   0  0  0  0  0  0  0  0  0  0  0  0
   37.4220   14.9566   12.7198 C   0  0  1  0  0  0  0  0  0  0  0  0
   37.1482   19.4929    8.4514 N   0  0  0  0  0  0  0  0  0  0  0  0
   36.7427   16.0717   11.9456 O   0  0  0  0  0  0  0  0  0  0  0  0
   35.3995   16.1908   12.2172 C   0  0  1  0  0  0  0  0  0  0  0  0
   30.4224   17.1254    8.5286 N   0  0  0  0  0  0  0  0  0  0  0  0
   34.5160   16.2695   11.1335 O   0  0  0  0  0  0  0  0  0  0  0  0
   34.9495   16.6321    9.7419 C   0  0  2  0  0  0  0  0  0  0  0  0
   33.7383   21.3684   11.3678 N   0  0  0  0  0  0  0  0  0  0  0  0
   34.9499   14.2230    9.1189 O   0  0  0  0  0  0  0  0  0  0  0  0
   35.7758   15.4451    9.1641 C   0  0  1  0  0  0  0  0  0  0  0  0
   35.1026   18.9878   10.2499 O   0  0  0  0  0  0  0  0  0  0  0  0
   36.2797   15.7891    7.6740 C   0  0  1  0  0  0  0  0  0  0  0  0
   33.2916   18.7222    8.7284 O   0  0  0  0  0  0  0  0  0  0  0  0
   37.1649   17.1081    7.7562 C   0  0  0  0  0  0  0  0  0  0  0  0
   30.7908   17.4465   11.1758 O   0  0  0  0  0  0  0  0  0  0  0  0
   36.2838   18.2685    8.3805 C   0  0  1  0  0  0  0  0  0  0  0  0
   31.2365   20.0663   12.2208 O   0  0  0  0  0  0  0  0  0  0  0  0
   35.8569   17.9415    9.7760 C   0  0  2  0  0  0  0  0  0  0  0  0
   34.0479   15.4680   14.0448 O   0  0  0  0  0  0  0  0  0  0  0  0
   34.0543   19.7160    9.5604 C   0  0  1  0  0  0  0  0  0  0  0  0
   36.6519   15.7802   14.9299 O   0  0  0  0  0  0  0  0  0  0  0  0
   32.5244   17.6611    9.5056 C   0  0  2  0  0  0  0  0  0  0  0  0
   31.8291   16.7139    8.5345 C   0  0  0  0  0  0  0  0  0  0  0  0
   31.5107   18.3844   10.4220 C   0  0  2  0  0  0  0  0  0  0  0  0
   32.2200   19.3548   11.3518 C   0  0  1  0  0  0  0  0  0  0  0  0
   33.0050   20.3673   10.4975 C   0  0  1  0  0  0  0  0  0  0  0  0
   35.0822   15.0862   13.2120 C   0  0  2  0  0  0  0  0  0  0  0  0
   36.4531   14.7750   13.8941 C   0  0  1  0  0  0  0  0  0  0  0  0
  1  3  1  0  0  0  0
  4  1  1  6  0  0  0
  4  6  1  0  0  0  0
  4 31  1  0  0  0  0
  6  7  1  0  0  0  0
  7  9  1  6  0  0  0
  7 30  1  0  0  0  0
  8 26  1  0  0  0  0
 10  9  1  1  0  0  0
 10 13  1  0  0  0  0
 10 21  1  0  0  0  0
 13 12  1  6  0  0  0
 13 15  1  0  0  0  0
 15  2  1  1  0  0  0
 15 17  1  0  0  0  0
 16 25  1  0  0  0  0
 16 23  1  0  0  0  0
 17 19  1  0  0  0  0
 19  5  1  1  0  0  0
 19 21  1  0  0  0  0
 21 14  1  6  0  0  0
 23 14  1  1  0  0  0
 23 29  1  0  0  0  0
 25 26  1  6  0  0  0
 25 27  1  0  0  0  0
 27 18  1  1  0  0  0
 27 28  1  0  0  0  0
 28 20  1  6  0  0  0
 28 29  1  0  0  0  0
 29 11  1  1  0  0  0
 30 22  1  1  0  0  0
 30 31  1  0  0  0  0
 31 24  1  1  0  0  0
M  END
>  <CHROM.1>
53.14838026,-18.53413547,70.73983548,37.32891992,-73.97608471,-102.47854843
34.76190743,17.01350043,10.55729531,0.37715351,-0.64666378,1.85036085

>  <Name>
ligand

>  <RI>
0

>  <Rbt.Current_Directory>
/home/itssahil/PROJECTS/Mol_Feturizer/New_Systems/rnas/2ET5

>  <Rbt.Executable>
rbdock ($Id: //depot/dev/client3/rdock/2013.1/src/exe/rbdock.cxx#4 $)

>  <Rbt.Library>
libRbt.so (2013.1, Build901 2013/11/27)

>  <Rbt.Parameter_File>
/export/apps/rDock/src/rDock_2013.1_src/data/scripts/dock_solv.prm

>  <Rbt.Receptor>
prm/blind_docking_100.prm

>  <SCORE>
54.5779

>  <SCORE.INTER>
23.22

>  <SCORE.INTER.CONST>
1

>  <SCORE.INTER.POLAR>
0

>  <SCORE.INTER.ROT>
6

>  <SCORE.INTER.SOLV>
41.0241

>  <SCORE.INTER.VDW>
-5.79472

>  <SCORE.INTER.norm>
0.749031

>  <SCORE.INTRA>
6.51212

>  <SCORE.INTRA.DIHEDRAL>
2.50756

>  <SCORE.INTRA.DIHEDRAL.0>
11.2357

>  <SCORE.INTRA.POLAR>
0

>  <SCORE.INTRA.POLAR.0>
0

>  <SCORE.INTRA.REPUL>
0

>  <SCORE.INTRA.REPUL.0>
0

>  <SCORE.INTRA.SOLV>
-0.372238

>  <SCORE.INTRA.SOLV.lig_0>
-83.3092

>  <SCORE.INTRA.VDW>
5.44445

>  <SCORE.INTRA.VDW.0>
-4.47057

>  <SCORE.INTRA.norm>
0.210068

>  <SCORE.RESTR>
24.8458

>  <SCORE.RESTR.CAVITY>
24.8458

>  <SCORE.RESTR.norm>
0.801477

>  <SCORE.SYSTEM>
0

>  <SCORE.SYSTEM.CONST>
0

>  <SCORE.SYSTEM.DIHEDRAL>
0

>  <SCORE.SYSTEM.SOLV>
0

>  <SCORE.SYSTEM.norm>
0

>  <SCORE.heavy>
31

>  <SCORE.norm>
1.76058

>  <RMSD>
13.734

$$$$
ligand
 OpenBabel11021811433D
libRbt.so/2013.1/901 2013/11/27
 31 33  0  0  0  0  0  0  0  0999 V2000
   37.9776   14.1601   11.7272 C   0  0  0  0  0  0  0  0  0  0  0  0
   37.0900   14.6054    7.4619 N   0  0  0  0  0  0  0  0  0  0  0  0
   39.3748   13.9584   11.9855 O   0  0  0  0  0  0  0  0  0  0  0  0
   37.5523   15.2126   12.7478 C   0  0  1  0  0  0  0  0  0  0  0  0
   37.1773   19.5704    8.4965 N   0  0  0  0  0  0  0  0  0  0  0  0
   36.7873   16.3891   12.1693 O   0  0  0  0  0  0  0  0  0  0  0  0
   35.4439   16.3703   12.4644 C   0  0  1  0  0  0  0  0  0  0  0  0
   31.2446   15.8253    9.6853 N   0  0  0  0  0  0  0  0  0  0  0  0
   34.5390   16.5627   11.4130 O   0  0  0  0  0  0  0  0  0  0  0  0
   34.9653   16.8244    9.9968 C   0  0  2  0  0  0  0  0  0  0  0  0
   33.7386   21.6199   11.3373 N   0  0  0  0  0  0  0  0  0  0  0  0
   34.9420   14.3781    9.5422 O   0  0  0  0  0  0  0  0  0  0  0  0
   35.7779   15.5933    9.4971 C   0  0  1  0  0  0  0  0  0  0  0  0
   35.1408   19.2083   10.3393 O   0  0  0  0  0  0  0  0  0  0  0  0
   36.2737   15.8291    7.9834 C   0  0  1  0  0  0  0  0  0  0  0  0
   33.3223   18.8231    8.8528 O   0  0  0  0  0  0  0  0  0  0  0  0
   37.1700   17.1431    7.9681 C   0  0  0  0  0  0  0  0  0  0  0  0
   30.8693   17.6361   11.3916 O   0  0  0  0  0  0  0  0  0  0  0  0
   36.3026   18.3513    8.5164 C   0  0  1  0  0  0  0  0  0  0  0  0
   31.2712   20.3182   12.2856 O   0  0  0  0  0  0  0  0  0  0  0  0
   35.8833   18.1254    9.9340 C   0  0  2  0  0  0  0  0  0  0  0  0
   34.1744   15.2699   14.1577 O   0  0  0  0  0  0  0  0  0  0  0  0
   34.0720   19.8763    9.6209 C   0  0  1  0  0  0  0  0  0  0  0  0
   36.7663   15.6124   15.0669 O   0  0  0  0  0  0  0  0  0  0  0  0
   32.5835   17.7918    9.6950 C   0  0  2  0  0  0  0  0  0  0  0  0
   31.8990   16.7787    8.7847 C   0  0  0  0  0  0  0  0  0  0  0  0
   31.5635   18.5448   10.5800 C   0  0  2  0  0  0  0  0  0  0  0  0
   32.2611   19.5790   11.4477 C   0  0  1  0  0  0  0  0  0  0  0  0
   33.0180   20.5579   10.5309 C   0  0  1  0  0  0  0  0  0  0  0  0
   35.2178   15.0999   13.2679 C   0  0  2  0  0  0  0  0  0  0  0  0
   36.6176   14.7771   13.8823 C   0  0  1  0  0  0  0  0  0  0  0  0
  1  3  1  0  0  0  0
  4  1  1  6  0  0  0
  4  6  1  0  0  0  0
  4 31  1  0  0  0  0
  6  7  1  0  0  0  0
  7  9  1  6  0  0  0
  7 30  1  0  0  0  0
  8 26  1  0  0  0  0
 10  9  1  1  0  0  0
 10 13  1  0  0  0  0
 10 21  1  0  0  0  0
 13 12  1  6  0  0  0
 13 15  1  0  0  0  0
 15  2  1  1  0  0  0
 15 17  1  0  0  0  0
 16 25  1  0  0  0  0
 16 23  1  0  0  0  0
 17 19  1  0  0  0  0
 19  5  1  1  0  0  0
 19 21  1  0  0  0  0
 21 14  1  6  0  0  0
 23 14  1  1  0  0  0
 23 29  1  0  0  0  0
 25 26  1  6  0  0  0
 25 27  1  0  0  0  0
 27 18  1  1  0  0  0
 27 28  1  0  0  0  0
 28 20  1  6  0  0  0
 28 29  1  0  0  0  0
 29 11  1  1  0  0  0
 30 22  1  1  0  0  0
 30 31  1  0  0  0  0
 31 24  1  1  0  0  0
M  END
>  <CHROM.1>
129.91047707,-1.74644994,61.70748095,35.05393018,-72.38830356,178.95495483
34.86621512,17.08925853,10.78112708,0.47332712,-0.62552795,1.96491440

>  <Name>
ligand

>  <RI>
0

>  <Rbt.Current_Directory>
/home/itssahil/PROJECTS/Mol_Feturizer/New_Systems/rnas/2ET5

>  <Rbt.Executable>
rbdock ($Id: //depot/dev/client3/rdock/2013.1/src/exe/rbdock.cxx#4 $)

>  <Rbt.Library>
libRbt.so (2013.1, Build901 2013/11/27)

>  <Rbt.Parameter_File>
/export/apps/rDock/src/rDock_2013.1_src/data/scripts/dock_solv.prm

>  <Rbt.Receptor>
prm/blind_docking_100.prm

>  <SCORE>
56.5804

>  <SCORE.INTER>
25.3501

>  <SCORE.INTER.CONST>
1

>  <SCORE.INTER.POLAR>
0

>  <SCORE.INTER.ROT>
6

>  <SCORE.INTER.SOLV>
37.107

>  <SCORE.INTER.VDW>
-3.06892

>  <SCORE.INTER.norm>
0.817745

>  <SCORE.INTRA>
7.24503

>  <SCORE.INTRA.DIHEDRAL>
4.21501

>  <SCORE.INTRA.DIHEDRAL.0>
11.2357

>  <SCORE.INTRA.POLAR>
0

>  <SCORE.INTRA.POLAR.0>
0

>  <SCORE.INTRA.REPUL>
0

>  <SCORE.INTRA.REPUL.0>
0

>  <SCORE.INTRA.SOLV>
-0.21679

>  <SCORE.INTRA.SOLV.lig_0>
-83.3092

>  <SCORE.INTRA.VDW>
5.24591

>  <SCORE.INTRA.VDW.0>
-4.47057

>  <SCORE.INTRA.norm>
0.233711

>  <SCORE.RESTR>
23.9852

>  <SCORE.RESTR.CAVITY>
23.9852

>  <SCORE.RESTR.norm>
0.773718

>  <SCORE.SYSTEM>
0

>  <SCORE.SYSTEM.CONST>
0

>  <SCORE.SYSTEM.DIHEDRAL>
0

>  <SCORE.SYSTEM.SOLV>
0

>  <SCORE.SYSTEM.norm>
0

>  <SCORE.heavy>
31

>  <SCORE.norm>
1.82517

>  <RMSD>
13.794

$$$$
ligand
 OpenBabel11021811433D
libRbt.so/2013.1/901 2013/11/27
 31 33  0  0  0  0  0  0  0  0999 V2000
   37.7419   13.8038   11.7895 C   0  0  0  0  0  0  0  0  0  0  0  0
   37.0030   14.5537    7.4523 N   0  0  0  0  0  0  0  0  0  0  0  0
   37.9425   14.4470   10.5224 O   0  0  0  0  0  0  0  0  0  0  0  0
   37.4694   14.9520   12.7577 C   0  0  1  0  0  0  0  0  0  0  0  0
   37.1273   19.5193    8.4802 N   0  0  0  0  0  0  0  0  0  0  0  0
   36.7997   16.1644   12.1367 O   0  0  0  0  0  0  0  0  0  0  0  0
   35.4757   16.2997   12.4843 C   0  0  1  0  0  0  0  0  0  0  0  0
   31.3407   15.7800    9.3733 N   0  0  0  0  0  0  0  0  0  0  0  0
   34.5480   16.5213   11.4588 O   0  0  0  0  0  0  0  0  0  0  0  0
   34.9427   16.7807   10.0330 C   0  0  2  0  0  0  0  0  0  0  0  0
   33.6890   21.5164   11.4474 N   0  0  0  0  0  0  0  0  0  0  0  0
   34.9024   14.3340    9.5812 O   0  0  0  0  0  0  0  0  0  0  0  0
   35.7403   15.5469    9.5160 C   0  0  1  0  0  0  0  0  0  0  0  0
   35.1324   19.1643   10.3692 O   0  0  0  0  0  0  0  0  0  0  0  0
   36.2021   15.7801    7.9912 C   0  0  1  0  0  0  0  0  0  0  0  0
   33.3731   18.8652    8.7943 O   0  0  0  0  0  0  0  0  0  0  0  0
   37.1014   17.0916    7.9543 C   0  0  0  0  0  0  0  0  0  0  0  0
   30.8260   17.5378   11.1652 O   0  0  0  0  0  0  0  0  0  0  0  0
   36.2501   18.3027    8.5211 C   0  0  1  0  0  0  0  0  0  0  0  0
   31.1889   20.1646   12.2246 O   0  0  0  0  0  0  0  0  0  0  0  0
   35.8625   18.0790    9.9481 C   0  0  2  0  0  0  0  0  0  0  0  0
   34.1806   15.4352   14.2912 O   0  0  0  0  0  0  0  0  0  0  0  0
   34.0911   19.8727    9.6492 C   0  0  1  0  0  0  0  0  0  0  0  0
   36.8319   15.5647   15.0759 O   0  0  0  0  0  0  0  0  0  0  0  0
   32.6041   17.7883    9.5475 C   0  0  2  0  0  0  0  0  0  0  0  0
   31.9567   16.8288    8.5556 C   0  0  0  0  0  0  0  0  0  0  0  0
   31.5495   18.4906   10.4337 C   0  0  2  0  0  0  0  0  0  0  0  0
   32.2116   19.4735   11.3849 C   0  0  1  0  0  0  0  0  0  0  0  0
   33.0017   20.5023   10.5550 C   0  0  1  0  0  0  0  0  0  0  0  0
   35.1609   15.1081   13.3740 C   0  0  2  0  0  0  0  0  0  0  0  0
   36.5480   14.6810   13.9527 C   0  0  1  0  0  0  0  0  0  0  0  0
  1  3  1  0  0  0  0
  4  1  1  6  0  0  0
  4  6  1  0  0  0  0
  4 31  1  0  0  0  0
  6  7  1  0  0  0  0
  7  9  1  6  0  0  0
  7 30  1  0  0  0  0
  8 26  1  0  0  0  0
 10  9  1  1  0  0  0
 10 13  1  0  0  0  0
 10 21  1  0  0  0  0
 13 12  1  6  0  0  0
 13 15  1  0  0  0  0
 15  2  1  1  0  0  0
 15 17  1  0  0  0  0
 16 25  1  0  0  0  0
 16 23  1  0  0  0  0
 17 19  1  0  0  0  0
 19  5  1  1  0  0  0
 19 21  1  0  0  0  0
 21 14  1  6  0  0  0
 23 14  1  1  0  0  0
 23 29  1  0  0  0  0
 25 26  1  6  0  0  0
 25 27  1  0  0  0  0
 27 18  1  1  0  0  0
 27 28  1  0  0  0  0
 28 20  1  6  0  0  0
 28 29  1  0  0  0  0
 29 11  1  1  0  0  0
 30 22  1  1  0  0  0
 30 31  1  0  0  0  0
 31 24  1  1  0  0  0
M  END
>  <CHROM.1>
29.96418041,-7.56375764,60.33167709,32.80430075,-75.49264293,175.50960629
34.78987309,17.04551063,10.71007433,0.45847816,-0.68558371,1.91862878

>  <Name>
ligand

>  <RI>
0

>  <Rbt.Current_Directory>
/home/itssahil/PROJECTS/Mol_Feturizer/New_Systems/rnas/2ET5

>  <Rbt.Executable>
rbdock ($Id: //depot/dev/client3/rdock/2013.1/src/exe/rbdock.cxx#4 $)

>  <Rbt.Library>
libRbt.so (2013.1, Build901 2013/11/27)

>  <Rbt.Parameter_File>
/export/apps/rDock/src/rDock_2013.1_src/data/scripts/dock_solv.prm

>  <Rbt.Receptor>
prm/blind_docking_100.prm

>  <SCORE>
52.7443

>  <SCORE.INTER>
20.8371

>  <SCORE.INTER.CONST>
1

>  <SCORE.INTER.POLAR>
0

>  <SCORE.INTER.ROT>
6

>  <SCORE.INTER.SOLV>
36.853

>  <SCORE.INTER.VDW>
-5.99294

>  <SCORE.INTER.norm>
0.672165

>  <SCORE.INTRA>
7.56839

>  <SCORE.INTRA.DIHEDRAL>
2.52302

>  <SCORE.INTRA.DIHEDRAL.0>
11.2357

>  <SCORE.INTRA.POLAR>
0

>  <SCORE.INTRA.POLAR.0>
0

>  <SCORE.INTRA.REPUL>
0

>  <SCORE.INTRA.REPUL.0>
0

>  <SCORE.INTRA.SOLV>
1.9826

>  <SCORE.INTRA.SOLV.lig_0>
-83.3092

>  <SCORE.INTRA.VDW>
5.31558

>  <SCORE.INTRA.VDW.0>
-4.47057

>  <SCORE.INTRA.norm>
0.244142

>  <SCORE.RESTR>
24.3388

>  <SCORE.RESTR.CAVITY>
24.3388

>  <SCORE.RESTR.norm>
0.785123

>  <SCORE.SYSTEM>
0

>  <SCORE.SYSTEM.CONST>
0

>  <SCORE.SYSTEM.DIHEDRAL>
0

>  <SCORE.SYSTEM.SOLV>
0

>  <SCORE.SYSTEM.norm>
0

>  <SCORE.heavy>
31

>  <SCORE.norm>
1.70143

>  <RMSD>
13.802

$$$$
ligand
 OpenBabel11021811433D
libRbt.so/2013.1/901 2013/11/27
 31 33  0  0  0  0  0  0  0  0999 V2000
   37.5679   14.2946   11.5380 C   0  0  0  0  0  0  0  0  0  0  0  0
   36.7289   15.0249    7.4635 N   0  0  0  0  0  0  0  0  0  0  0  0
   36.3061   13.7332   11.1477 O   0  0  0  0  0  0  0  0  0  0  0  0
   37.2201   15.2551   12.6723 C   0  0  1  0  0  0  0  0  0  0  0  0
   37.1679   19.9190    8.7218 N   0  0  0  0  0  0  0  0  0  0  0  0
   36.5508   16.5448   12.2331 O   0  0  0  0  0  0  0  0  0  0  0  0
   35.2086   16.5965   12.5294 C   0  0  1  0  0  0  0  0  0  0  0  0
   32.4154   16.4916    8.9595 N   0  0  0  0  0  0  0  0  0  0  0  0
   34.3263   16.9754   11.5098 O   0  0  0  0  0  0  0  0  0  0  0  0
   34.7688   17.2705   10.1052 C   0  0  2  0  0  0  0  0  0  0  0  0
   34.0752   22.2279   11.4984 N   0  0  0  0  0  0  0  0  0  0  0  0
   34.5722   14.8552    9.5403 O   0  0  0  0  0  0  0  0  0  0  0  0
   35.4919   16.0092    9.5468 C   0  0  1  0  0  0  0  0  0  0  0  0
   35.1127   19.6180   10.5547 O   0  0  0  0  0  0  0  0  0  0  0  0
   36.0017   16.2780    8.0434 C   0  0  1  0  0  0  0  0  0  0  0  0
   33.0921   19.3085    9.3354 O   0  0  0  0  0  0  0  0  0  0  0  0
   36.9886   17.5249    8.0839 C   0  0  0  0  0  0  0  0  0  0  0  0
   30.8842   18.5715   12.2428 O   0  0  0  0  0  0  0  0  0  0  0  0
   36.2093   18.7651    8.6900 C   0  0  1  0  0  0  0  0  0  0  0  0
   31.6401   21.2587   12.8447 O   0  0  0  0  0  0  0  0  0  0  0  0
   35.7764   18.5050   10.0976 C   0  0  2  0  0  0  0  0  0  0  0  0
   33.8498   15.4136   14.0926 O   0  0  0  0  0  0  0  0  0  0  0  0
   34.0267   20.3351    9.9135 C   0  0  1  0  0  0  0  0  0  0  0  0
   36.4559   15.4505   15.0247 O   0  0  0  0  0  0  0  0  0  0  0  0
   32.3754   18.4240   10.3466 C   0  0  2  0  0  0  0  0  0  0  0  0
   31.4909   17.4199    9.6166 C   0  0  0  0  0  0  0  0  0  0  0  0
   31.5495   19.3412   11.2778 C   0  0  2  0  0  0  0  0  0  0  0  0
   32.4435   20.3617   11.9623 C   0  0  1  0  0  0  0  0  0  0  0  0
   33.1638   21.1868   10.8798 C   0  0  1  0  0  0  0  0  0  0  0  0
   34.8813   15.2650   13.1854 C   0  0  2  0  0  0  0  0  0  0  0  0
   36.2491   14.7679   13.7541 C   0  0  1  0  0  0  0  0  0  0  0  0
  1  3  1  0  0  0  0
  4  1  1  6  0  0  0
  4  6  1  0  0  0  0
  4 31  1  0  0  0  0
  6  7  1  0  0  0  0
  7  9  1  6  0  0  0
  7 30  1  0  0  0  0
  8 26  1  0  0  0  0
 10  9  1  1  0  0  0
 10 13  1  0  0  0  0
 10 21  1  0  0  0  0
 13 12  1  6  0  0  0
 13 15  1  0  0  0  0
 15  2  1  1  0  0  0
 15 17  1  0  0  0  0
 16 25  1  0  0  0  0
 16 23  1  0  0  0  0
 17 19  1  0  0  0  0
 19  5  1  1  0  0  0
 19 21  1  0  0  0  0
 21 14  1  6  0  0  0
 23 14  1  1  0  0  0
 23 29  1  0  0  0  0
 25 26  1  6  0  0  0
 25 27  1  0  0  0  0
 27 18  1  1  0  0  0
 27 28  1  0  0  0  0
 28 20  1  1  0  0  0
 28 29  1  0  0  0  0
 29 11  1  1  0  0  0
 30 22  1  1  0  0  0
 30 31  1  0  0  0  0
 31 24  1  1  0  0  0
M  END
>  <CHROM.1>
-74.28886036,2.57798702,57.88848473,41.51868283,-67.53923405,69.58542987
34.64673816,17.49320442,10.92651881,0.53645292,-0.83736096,2.13597414

>  <Name>
ligand

>  <RI>
0

>  <Rbt.Current_Directory>
/home/itssahil/PROJECTS/Mol_Feturizer/New_Systems/rnas/2ET5

>  <Rbt.Executable>
rbdock ($Id: //depot/dev/client3/rdock/2013.1/src/exe/rbdock.cxx#4 $)

>  <Rbt.Library>
libRbt.so (2013.1, Build901 2013/11/27)

>  <Rbt.Parameter_File>
/export/apps/rDock/src/rDock_2013.1_src/data/scripts/dock_solv.prm

>  <Rbt.Receptor>
prm/blind_docking_100.prm

>  <SCORE>
75.051

>  <SCORE.INTER>
49.7592

>  <SCORE.INTER.CONST>
1

>  <SCORE.INTER.POLAR>
0

>  <SCORE.INTER.ROT>
6

>  <SCORE.INTER.SOLV>
42.0178

>  <SCORE.INTER.VDW>
11.5668

>  <SCORE.INTER.norm>
1.60513

>  <SCORE.INTRA>
5.33502

>  <SCORE.INTRA.DIHEDRAL>
-1.24019

>  <SCORE.INTRA.DIHEDRAL.0>
11.2357

>  <SCORE.INTRA.POLAR>
0

>  <SCORE.INTRA.POLAR.0>
0

>  <SCORE.INTRA.REPUL>
0

>  <SCORE.INTRA.REPUL.0>
0

>  <SCORE.INTRA.SOLV>
3.78603

>  <SCORE.INTRA.SOLV.lig_0>
-83.3092

>  <SCORE.INTRA.VDW>
4.0621

>  <SCORE.INTRA.VDW.0>
-4.47057

>  <SCORE.INTRA.norm>
0.172097

>  <SCORE.RESTR>
19.9568

>  <SCORE.RESTR.CAVITY>
19.9568

>  <SCORE.RESTR.norm>
0.643767

>  <SCORE.SYSTEM>
0

>  <SCORE.SYSTEM.CONST>
0

>  <SCORE.SYSTEM.DIHEDRAL>
0

>  <SCORE.SYSTEM.SOLV>
0

>  <SCORE.SYSTEM.norm>
0

>  <SCORE.heavy>
31

>  <SCORE.norm>
2.421

>  <RMSD>
13.817

$$$$
ligand
 OpenBabel11021811433D
libRbt.so/2013.1/901 2013/11/27
 31 33  0  0  0  0  0  0  0  0999 V2000
   37.5855   13.3434   12.2743 C   0  0  0  0  0  0  0  0  0  0  0  0
   37.3645   14.5518    6.4971 N   0  0  0  0  0  0  0  0  0  0  0  0
   37.1795   12.2282   13.0812 O   0  0  0  0  0  0  0  0  0  0  0  0
   37.2673   14.5660   13.1310 C   0  0  1  0  0  0  0  0  0  0  0  0
   32.9814   17.0550    6.9982 N   0  0  0  0  0  0  0  0  0  0  0  0
   37.4702   15.9009   12.4375 O   0  0  0  0  0  0  0  0  0  0  0  0
   36.2944   16.5294   12.0991 C   0  0  1  0  0  0  0  0  0  0  0  0
   36.1075   20.9270   11.8189 N   0  0  0  0  0  0  0  0  0  0  0  0
   36.1627   17.0140   10.7917 O   0  0  0  0  0  0  0  0  0  0  0  0
   35.5975   16.1986    9.6641 C   0  0  2  0  0  0  0  0  0  0  0  0
   31.1140   17.6810   11.4689 N   0  0  0  0  0  0  0  0  0  0  0  0
   37.7760   15.0190    9.4307 O   0  0  0  0  0  0  0  0  0  0  0  0
   36.7650   15.8144    8.7076 C   0  0  1  0  0  0  0  0  0  0  0  0
   33.4738   17.3470    9.7086 O   0  0  0  0  0  0  0  0  0  0  0  0
   36.2095   14.9489    7.4686 C   0  0  1  0  0  0  0  0  0  0  0  0
   34.6763   18.8442   11.1149 O   0  0  0  0  0  0  0  0  0  0  0  0
   35.1243   15.8316    6.7113 C   0  0  0  0  0  0  0  0  0  0  0  0
   32.9914   21.9827   10.0278 O   0  0  0  0  0  0  0  0  0  0  0  0
   33.9821   16.2185    7.7401 C   0  0  1  0  0  0  0  0  0  0  0  0
   30.7837   20.5959   11.1928 O   0  0  0  0  0  0  0  0  0  0  0  0
   34.5152   17.0504    8.8627 C   0  0  2  0  0  0  0  0  0  0  0  0
   34.0540   16.3027   12.8856 O   0  0  0  0  0  0  0  0  0  0  0  0
   33.5438   17.8561   11.0654 C   0  0  1  0  0  0  0  0  0  0  0  0
   35.7881   15.5024   14.8892 O   0  0  0  0  0  0  0  0  0  0  0  0
   34.4906   20.1040   10.2800 C   0  0  2  0  0  0  0  0  0  0  0  0
   35.7236   20.9913   10.4058 C   0  0  0  0  0  0  0  0  0  0  0  0
   33.2168   20.8223   10.7820 C   0  0  2  0  0  0  0  0  0  0  0  0
   32.0078   19.9063   10.6882 C   0  0  1  0  0  0  0  0  0  0  0  0
   32.2862   18.6406   11.5200 C   0  0  1  0  0  0  0  0  0  0  0  0
   35.1846   15.5882   12.5386 C   0  0  2  0  0  0  0  0  0  0  0  0
   35.8370   14.7193   13.6614 C   0  0  1  0  0  0  0  0  0  0  0  0
  1  3  1  0  0  0  0
  4  1  1  6  0  0  0
  4  6  1  0  0  0  0
  4 31  1  0  0  0  0
  6  7  1  0  0  0  0
  7  9  1  6  0  0  0
  7 30  1  0  0  0  0
  8 26  1  0  0  0  0
 10  9  1  1  0  0  0
 10 13  1  0  0  0  0
 10 21  1  0  0  0  0
 13 12  1  1  0  0  0
 13 15  1  0  0  0  0
 15  2  1  6  0  0  0
 15 17  1  0  0  0  0
 16 25  1  0  0  0  0
 16 23  1  0  0  0  0
 17 19  1  0  0  0  0
 19  5  1  6  0  0  0
 19 21  1  0  0  0  0
 21 14  1  1  0  0  0
 23 14  1  6  0  0  0
 23 29  1  0  0  0  0
 25 26  1  1  0  0  0
 25 27  1  0  0  0  0
 27 18  1  6  0  0  0
 27 28  1  0  0  0  0
 28 20  1  1  0  0  0
 28 29  1  0  0  0  0
 29 11  1  6  0  0  0
 30 22  1  1  0  0  0
 30 31  1  0  0  0  0
 31 24  1  1  0  0  0
M  END
>  <CHROM.1>
-173.75896339,90.12877524,-108.03374476,38.18870961,46.66997152,-40.81839483
34.96206654,17.09913606,10.68630488,0.10778263,-0.95856697,1.53115992

>  <Name>
ligand

>  <RI>
0

>  <Rbt.Current_Directory>
/home/itssahil/PROJECTS/Mol_Feturizer/New_Systems/rnas/2ET5

>  <Rbt.Executable>
rbdock ($Id: //depot/dev/client3/rdock/2013.1/src/exe/rbdock.cxx#4 $)

>  <Rbt.Library>
libRbt.so (2013.1, Build901 2013/11/27)

>  <Rbt.Parameter_File>
/export/apps/rDock/src/rDock_2013.1_src/data/scripts/dock_solv.prm

>  <Rbt.Receptor>
prm/blind_docking_100.prm

>  <SCORE>
109.636

>  <SCORE.INTER>
77.2645

>  <SCORE.INTER.CONST>
1

>  <SCORE.INTER.POLAR>
0

>  <SCORE.INTER.ROT>
6

>  <SCORE.INTER.SOLV>
45.6411

>  <SCORE.INTER.VDW>
28.696

>  <SCORE.INTER.norm>
2.4924

>  <SCORE.INTRA>
6.52357

>  <SCORE.INTRA.DIHEDRAL>
3.24155

>  <SCORE.INTRA.DIHEDRAL.0>
11.2357

>  <SCORE.INTRA.POLAR>
0

>  <SCORE.INTRA.POLAR.0>
0

>  <SCORE.INTRA.REPUL>
0.00324682

>  <SCORE.INTRA.REPUL.0>
0

>  <SCORE.INTRA.SOLV>
-0.812613

>  <SCORE.INTRA.SOLV.lig_0>
-83.3092

>  <SCORE.INTRA.VDW>
5.29286

>  <SCORE.INTRA.VDW.0>
-4.47057

>  <SCORE.INTRA.norm>
0.210438

>  <SCORE.RESTR>
25.8481

>  <SCORE.RESTR.CAVITY>
25.8481

>  <SCORE.RESTR.norm>
0.833809

>  <SCORE.SYSTEM>
0

>  <SCORE.SYSTEM.CONST>
0

>  <SCORE.SYSTEM.DIHEDRAL>
0

>  <SCORE.SYSTEM.SOLV>
0

>  <SCORE.SYSTEM.norm>
0

>  <SCORE.heavy>
31

>  <SCORE.norm>
3.53665

>  <RMSD>
13.821

$$$$
ligand
 OpenBabel11021811433D
libRbt.so/2013.1/901 2013/11/27
 31 33  0  0  0  0  0  0  0  0999 V2000
   37.9989   14.1410   11.6799 C   0  0  0  0  0  0  0  0  0  0  0  0
   36.9793   14.4781    7.9878 N   0  0  0  0  0  0  0  0  0  0  0  0
   36.7919   13.3716   11.5758 O   0  0  0  0  0  0  0  0  0  0  0  0
   37.7429   15.0905   12.8473 C   0  0  1  0  0  0  0  0  0  0  0  0
   37.0732   19.5256    8.4799 N   0  0  0  0  0  0  0  0  0  0  0  0
   37.0438   16.3853   12.4746 O   0  0  0  0  0  0  0  0  0  0  0  0
   35.7290   16.4356   12.8757 C   0  0  1  0  0  0  0  0  0  0  0  0
   33.3936   16.5257    7.6980 N   0  0  0  0  0  0  0  0  0  0  0  0
   34.7702   16.8256   11.9322 O   0  0  0  0  0  0  0  0  0  0  0  0
   35.0590   16.9380   10.4626 C   0  0  2  0  0  0  0  0  0  0  0  0
   33.6375   21.6281   11.5622 N   0  0  0  0  0  0  0  0  0  0  0  0
   35.0375   14.4571   10.2729 O   0  0  0  0  0  0  0  0  0  0  0  0
   35.8437   15.6671   10.0215 C   0  0  1  0  0  0  0  0  0  0  0  0
   35.2228   19.3462   10.5336 O   0  0  0  0  0  0  0  0  0  0  0  0
   36.1931   15.7439    8.4516 C   0  0  1  0  0  0  0  0  0  0  0  0
   33.5676   19.0128    8.8560 O   0  0  0  0  0  0  0  0  0  0  0  0
   37.0605   17.0559    8.2136 C   0  0  0  0  0  0  0  0  0  0  0  0
   30.9388   17.5577   11.0568 O   0  0  0  0  0  0  0  0  0  0  0  0
   36.2261   18.3088    8.7103 C   0  0  1  0  0  0  0  0  0  0  0  0
   31.1471   20.1772   12.1744 O   0  0  0  0  0  0  0  0  0  0  0  0
   35.9438   18.2321   10.1769 C   0  0  2  0  0  0  0  0  0  0  0  0
   34.4947   15.2388   14.5290 O   0  0  0  0  0  0  0  0  0  0  0  0
   34.1994   20.0300    9.7656 C   0  0  1  0  0  0  0  0  0  0  0  0
   37.1659   15.2635   15.2542 O   0  0  0  0  0  0  0  0  0  0  0  0
   32.7959   17.8972    9.5477 C   0  0  2  0  0  0  0  0  0  0  0  0
   32.2406   16.9328    8.5061 C   0  0  0  0  0  0  0  0  0  0  0  0
   31.6683   18.5473   10.3824 C   0  0  2  0  0  0  0  0  0  0  0  0
   32.2398   19.5364   11.3845 C   0  0  1  0  0  0  0  0  0  0  0  0
   33.0386   20.6059   10.6168 C   0  0  1  0  0  0  0  0  0  0  0  0
   35.4516   15.0980   13.5423 C   0  0  2  0  0  0  0  0  0  0  0  0
   36.8588   14.5938   13.9971 C   0  0  1  0  0  0  0  0  0  0  0  0
  1  3  1  0  0  0  0
  4  1  1  6  0  0  0
  4  6  1  0  0  0  0
  4 31  1  0  0  0  0
  6  7  1  0  0  0  0
  7  9  1  6  0  0  0
  7 30  1  0  0  0  0
  8 26  1  0  0  0  0
 10  9  1  1  0  0  0
 10 13  1  0  0  0  0
 10 21  1  0  0  0  0
 13 12  1  6  0  0  0
 13 15  1  0  0  0  0
 15  2  1  1  0  0  0
 15 17  1  0  0  0  0
 16 25  1  0  0  0  0
 16 23  1  0  0  0  0
 17 19  1  0  0  0  0
 19  5  1  1  0  0  0
 19 21  1  0  0  0  0
 21 14  1  6  0  0  0
 23 14  1  1  0  0  0
 23 29  1  0  0  0  0
 25 26  1  6  0  0  0
 25 27  1  0  0  0  0
 27 18  1  1  0  0  0
 27 28  1  0  0  0  0
 28 20  1  6  0  0  0
 28 29  1  0  0  0  0
 29 11  1  1  0  0  0
 30 22  1  1  0  0  0
 30 31  1  0  0  0  0
 31 24  1  1  0  0  0
M  END
>  <CHROM.1>
-86.60686374,11.90552294,45.87204803,27.45962658,-81.45007376,53.83079491
34.93907665,17.09458796,10.86897518,-0.54910177,0.77635449,-1.31680903

>  <Name>
ligand

>  <RI>
0

>  <Rbt.Current_Directory>
/home/itssahil/PROJECTS/Mol_Feturizer/New_Systems/rnas/2ET5

>  <Rbt.Executable>
rbdock ($Id: //depot/dev/client3/rdock/2013.1/src/exe/rbdock.cxx#4 $)

>  <Rbt.Library>
libRbt.so (2013.1, Build901 2013/11/27)

>  <Rbt.Parameter_File>
/export/apps/rDock/src/rDock_2013.1_src/data/scripts/dock_solv.prm

>  <Rbt.Receptor>
prm/blind_docking_100.prm

>  <SCORE>
51.2477

>  <SCORE.INTER>
18.0999

>  <SCORE.INTER.CONST>
1

>  <SCORE.INTER.POLAR>
0

>  <SCORE.INTER.ROT>
6

>  <SCORE.INTER.SOLV>
36.4222

>  <SCORE.INTER.VDW>
-7.67412

>  <SCORE.INTER.norm>
0.583868

>  <SCORE.INTRA>
10.0046

>  <SCORE.INTRA.DIHEDRAL>
4.57924

>  <SCORE.INTRA.DIHEDRAL.0>
11.2357

>  <SCORE.INTRA.POLAR>
0

>  <SCORE.INTRA.POLAR.0>
0

>  <SCORE.INTRA.REPUL>
0

>  <SCORE.INTRA.REPUL.0>
0

>  <SCORE.INTRA.SOLV>
5.14897

>  <SCORE.INTRA.SOLV.lig_0>
-83.3092

>  <SCORE.INTRA.VDW>
5.14046

>  <SCORE.INTRA.VDW.0>
-4.47057

>  <SCORE.INTRA.norm>
0.322728

>  <SCORE.RESTR>
23.1433

>  <SCORE.RESTR.CAVITY>
23.1433

>  <SCORE.RESTR.norm>
0.746557

>  <SCORE.SYSTEM>
0

>  <SCORE.SYSTEM.CONST>
0

>  <SCORE.SYSTEM.DIHEDRAL>
0

>  <SCORE.SYSTEM.SOLV>
0

>  <SCORE.SYSTEM.norm>
0

>  <SCORE.heavy>
31

>  <SCORE.norm>
1.65315

>  <RMSD>
13.838

$$$$
ligand
 OpenBabel11021811433D
libRbt.so/2013.1/901 2013/11/27
 31 33  0  0  0  0  0  0  0  0999 V2000
   37.3244   17.5174   11.9073 C   0  0  0  0  0  0  0  0  0  0  0  0
   37.1200   14.8487    6.6756 N   0  0  0  0  0  0  0  0  0  0  0  0
   36.5784   18.6708   11.4917 O   0  0  0  0  0  0  0  0  0  0  0  0
   36.3329   16.7035   12.7346 C   0  0  1  0  0  0  0  0  0  0  0  0
   36.7126   19.4438    8.7844 N   0  0  0  0  0  0  0  0  0  0  0  0
   34.8906   16.7924   12.2700 O   0  0  0  0  0  0  0  0  0  0  0  0
   34.4434   15.6525   11.6433 C   0  0  1  0  0  0  0  0  0  0  0  0
   30.5004   15.5773   11.4845 N   0  0  0  0  0  0  0  0  0  0  0  0
   33.7899   15.7943   10.4127 O   0  0  0  0  0  0  0  0  0  0  0  0
   34.4443   16.3829    9.1957 C   0  0  2  0  0  0  0  0  0  0  0  0
   33.3943   21.3778   10.5180 N   0  0  0  0  0  0  0  0  0  0  0  0
   34.6546   14.1065    8.2131 O   0  0  0  0  0  0  0  0  0  0  0  0
   35.4078   15.3161    8.5965 C   0  0  1  0  0  0  0  0  0  0  0  0
   34.4073   18.6273   10.0856 O   0  0  0  0  0  0  0  0  0  0  0  0
   36.1494   15.9031    7.2934 C   0  0  1  0  0  0  0  0  0  0  0  0
   32.2582   18.0146    9.2666 O   0  0  0  0  0  0  0  0  0  0  0  0
   36.9506   17.2032    7.7385 C   0  0  0  0  0  0  0  0  0  0  0  0
   30.4876   17.9783   12.5429 O   0  0  0  0  0  0  0  0  0  0  0  0
   35.9260   18.2355    8.3688 C   0  0  1  0  0  0  0  0  0  0  0  0
   31.2019   20.7382   12.3799 O   0  0  0  0  0  0  0  0  0  0  0  0
   35.2760   17.6816    9.5965 C   0  0  2  0  0  0  0  0  0  0  0  0
   35.2000   13.3905   11.6660 O   0  0  0  0  0  0  0  0  0  0  0  0
   33.2167   19.1588    9.4495 C   0  0  1  0  0  0  0  0  0  0  0  0
   35.9757   14.6143   14.0244 O   0  0  0  0  0  0  0  0  0  0  0  0
   31.7197   17.3927   10.5479 C   0  0  2  0  0  0  0  0  0  0  0  0
   30.7897   16.2342   10.2067 C   0  0  0  0  0  0  0  0  0  0  0  0
   30.9862   18.4993   11.3404 C   0  0  2  0  0  0  0  0  0  0  0  0
   31.9188   19.6629   11.6327 C   0  0  1  0  0  0  0  0  0  0  0  0
   32.4540   20.2099   10.2964 C   0  0  1  0  0  0  0  0  0  0  0  0
   35.6301   14.7029   11.6225 C   0  0  2  0  0  0  0  0  0  0  0  0
   36.5314   15.1849   12.8043 C   0  0  1  0  0  0  0  0  0  0  0  0
  1  3  1  0  0  0  0
  4  1  1  6  0  0  0
  4  6  1  0  0  0  0
  4 31  1  0  0  0  0
  6  7  1  0  0  0  0
  7  9  1  6  0  0  0
  7 30  1  0  0  0  0
  8 26  1  0  0  0  0
 10  9  1  1  0  0  0
 10 13  1  0  0  0  0
 10 21  1  0  0  0  0
 13 12  1  6  0  0  0
 13 15  1  0  0  0  0
 15  2  1  1  0  0  0
 15 17  1  0  0  0  0
 16 25  1  0  0  0  0
 16 23  1  0  0  0  0
 17 19  1  0  0  0  0
 19  5  1  1  0  0  0
 19 21  1  0  0  0  0
 21 14  1  6  0  0  0
 23 14  1  1  0  0  0
 23 29  1  0  0  0  0
 25 26  1  6  0  0  0
 25 27  1  0  0  0  0
 27 18  1  1  0  0  0
 27 28  1  0  0  0  0
 28 20  1  6  0  0  0
 28 29  1  0  0  0  0
 29 11  1  1  0  0  0
 30 22  1  1  0  0  0
 30 31  1  0  0  0  0
 31 24  1  1  0  0  0
M  END
>  <CHROM.1>
33.42293132,61.38936458,76.03969629,62.54434519,-54.18222346,171.22373717
34.26352599,17.13504013,10.51484007,-0.31409298,0.63110861,-0.65554013

>  <Name>
ligand

>  <RI>
0

>  <Rbt.Current_Directory>
/home/itssahil/PROJECTS/Mol_Feturizer/New_Systems/rnas/2ET5

>  <Rbt.Executable>
rbdock ($Id: //depot/dev/client3/rdock/2013.1/src/exe/rbdock.cxx#4 $)

>  <Rbt.Library>
libRbt.so (2013.1, Build901 2013/11/27)

>  <Rbt.Parameter_File>
/export/apps/rDock/src/rDock_2013.1_src/data/scripts/dock_solv.prm

>  <Rbt.Receptor>
prm/blind_docking_100.prm

>  <SCORE>
105.842

>  <SCORE.INTER>
79.7803

>  <SCORE.INTER.CONST>
1

>  <SCORE.INTER.POLAR>
0

>  <SCORE.INTER.ROT>
6

>  <SCORE.INTER.SOLV>
38.6481

>  <SCORE.INTER.VDW>
32.7042

>  <SCORE.INTER.norm>
2.57356

>  <SCORE.INTRA>
1.66055

>  <SCORE.INTRA.DIHEDRAL>
-7.25434

>  <SCORE.INTRA.DIHEDRAL.0>
11.2357

>  <SCORE.INTRA.POLAR>
0

>  <SCORE.INTRA.POLAR.0>
0

>  <SCORE.INTRA.REPUL>
0.0967852

>  <SCORE.INTRA.REPUL.0>
0

>  <SCORE.INTRA.SOLV>
2.21501

>  <SCORE.INTRA.SOLV.lig_0>
-83.3092

>  <SCORE.INTRA.VDW>
3.69629

>  <SCORE.INTRA.VDW.0>
-4.47057

>  <SCORE.INTRA.norm>
0.0535662

>  <SCORE.RESTR>
24.4011

>  <SCORE.RESTR.CAVITY>
24.4011

>  <SCORE.RESTR.norm>
0.787133

>  <SCORE.SYSTEM>
0

>  <SCORE.SYSTEM.CONST>
0

>  <SCORE.SYSTEM.DIHEDRAL>
0

>  <SCORE.SYSTEM.SOLV>
0

>  <SCORE.SYSTEM.norm>
0

>  <SCORE.heavy>
31

>  <SCORE.norm>
3.41426

>  <RMSD>
13.850

$$$$
ligand
 OpenBabel11021811433D
libRbt.so/2013.1/901 2013/11/27
 31 33  0  0  0  0  0  0  0  0999 V2000
   37.7907   13.8019   11.7582 C   0  0  0  0  0  0  0  0  0  0  0  0
   37.0580   14.4922    7.6438 N   0  0  0  0  0  0  0  0  0  0  0  0
   38.9402   14.2305   11.0135 O   0  0  0  0  0  0  0  0  0  0  0  0
   37.5655   14.9138   12.7796 C   0  0  1  0  0  0  0  0  0  0  0  0
   37.1377   19.4997    8.4485 N   0  0  0  0  0  0  0  0  0  0  0  0
   36.9135   16.1671   12.2245 O   0  0  0  0  0  0  0  0  0  0  0  0
   35.6003   16.3186   12.6049 C   0  0  1  0  0  0  0  0  0  0  0  0
   30.6985   17.4321    8.4980 N   0  0  0  0  0  0  0  0  0  0  0  0
   34.6583   16.6058   11.6092 O   0  0  0  0  0  0  0  0  0  0  0  0
   35.0208   16.8063   10.1655 C   0  0  2  0  0  0  0  0  0  0  0  0
   33.8413   21.6779   11.3158 N   0  0  0  0  0  0  0  0  0  0  0  0
   35.0036   14.3417    9.8233 O   0  0  0  0  0  0  0  0  0  0  0  0
   35.8241   15.5606    9.6872 C   0  0  1  0  0  0  0  0  0  0  0  0
   35.1860   19.2047   10.3921 O   0  0  0  0  0  0  0  0  0  0  0  0
   36.2521   15.7314    8.1444 C   0  0  1  0  0  0  0  0  0  0  0  0
   33.3203   18.7741    8.9782 O   0  0  0  0  0  0  0  0  0  0  0  0
   37.1332   17.0509    8.0310 C   0  0  0  0  0  0  0  0  0  0  0  0
   30.9294   17.7381   11.6393 O   0  0  0  0  0  0  0  0  0  0  0  0
   36.2775   18.2754    8.5612 C   0  0  1  0  0  0  0  0  0  0  0  0
   31.3880   20.4535   12.3947 O   0  0  0  0  0  0  0  0  0  0  0  0
   35.9217   18.1107   10.0044 C   0  0  2  0  0  0  0  0  0  0  0  0
   34.3204   15.4084   14.4001 O   0  0  0  0  0  0  0  0  0  0  0  0
   34.1043   19.8522    9.6742 C   0  0  1  0  0  0  0  0  0  0  0  0
   36.9891   15.4416   15.1344 O   0  0  0  0  0  0  0  0  0  0  0  0
   32.5948   17.7927    9.8887 C   0  0  2  0  0  0  0  0  0  0  0  0
   31.8723   16.7472    9.0470 C   0  0  0  0  0  0  0  0  0  0  0  0
   31.6098   18.5991   10.7664 C   0  0  2  0  0  0  0  0  0  0  0  0
   32.3444   19.6635   11.5642 C   0  0  1  0  0  0  0  0  0  0  0  0
   33.0853   20.5888   10.5812 C   0  0  1  0  0  0  0  0  0  0  0  0
   35.2742   15.0978   13.4498 C   0  0  2  0  0  0  0  0  0  0  0  0
   36.6616   14.6137   13.9810 C   0  0  1  0  0  0  0  0  0  0  0  0
  1  3  1  0  0  0  0
  4  1  1  6  0  0  0
  4  6  1  0  0  0  0
  4 31  1  0  0  0  0
  6  7  1  0  0  0  0
  7  9  1  6  0  0  0
  7 30  1  0  0  0  0
  8 26  1  0  0  0  0
 10  9  1  1  0  0  0
 10 13  1  0  0  0  0
 10 21  1  0  0  0  0
 13 12  1  6  0  0  0
 13 15  1  0  0  0  0
 15  2  1  1  0  0  0
 15 17  1  0  0  0  0
 16 25  1  0  0  0  0
 16 23  1  0  0  0  0
 17 19  1  0  0  0  0
 19  5  1  1  0  0  0
 19 21  1  0  0  0  0
 21 14  1  6  0  0  0
 23 14  1  1  0  0  0
 23 29  1  0  0  0  0
 25 26  1  6  0  0  0
 25 27  1  0  0  0  0
 27 18  1  1  0  0  0
 27 28  1  0  0  0  0
 28 20  1  6  0  0  0
 28 29  1  0  0  0  0
 29 11  1  1  0  0  0
 30 22  1  1  0  0  0
 30 31  1  0  0  0  0
 31 24  1  1  0  0  0
M  END
>  <CHROM.1>
77.09215002,-2.41260692,54.23754273,36.48756707,-74.22207468,-75.09719463
34.87646426,17.11061700,10.82291598,0.44391043,-0.67165341,1.90539241

>  <Name>
ligand

>  <RI>
0

>  <Rbt.Current_Directory>
/home/itssahil/PROJECTS/Mol_Feturizer/New_Systems/rnas/2ET5

>  <Rbt.Executable>
rbdock ($Id: //depot/dev/client3/rdock/2013.1/src/exe/rbdock.cxx#4 $)

>  <Rbt.Library>
libRbt.so (2013.1, Build901 2013/11/27)

>  <Rbt.Parameter_File>
/export/apps/rDock/src/rDock_2013.1_src/data/scripts/dock_solv.prm

>  <Rbt.Receptor>
prm/blind_docking_100.prm

>  <SCORE>
56.0959

>  <SCORE.INTER>
27.5074

>  <SCORE.INTER.CONST>
1

>  <SCORE.INTER.POLAR>
0

>  <SCORE.INTER.ROT>
6

>  <SCORE.INTER.SOLV>
41.7208

>  <SCORE.INTER.VDW>
-3.16865

>  <SCORE.INTER.norm>
0.887336

>  <SCORE.INTRA>
4.76396

>  <SCORE.INTRA.DIHEDRAL>
1.15617

>  <SCORE.INTRA.DIHEDRAL.0>
11.2357

>  <SCORE.INTRA.POLAR>
0

>  <SCORE.INTRA.POLAR.0>
0

>  <SCORE.INTRA.REPUL>
0

>  <SCORE.INTRA.REPUL.0>
0

>  <SCORE.INTRA.SOLV>
0.0371503

>  <SCORE.INTRA.SOLV.lig_0>
-83.3092

>  <SCORE.INTRA.VDW>
4.1673

>  <SCORE.INTRA.VDW.0>
-4.47057

>  <SCORE.INTRA.norm>
0.153676

>  <SCORE.RESTR>
23.8245

>  <SCORE.RESTR.CAVITY>
23.8245

>  <SCORE.RESTR.norm>
0.768532

>  <SCORE.SYSTEM>
0

>  <SCORE.SYSTEM.CONST>
0

>  <SCORE.SYSTEM.DIHEDRAL>
0

>  <SCORE.SYSTEM.SOLV>
0

>  <SCORE.SYSTEM.norm>
0

>  <SCORE.heavy>
31

>  <SCORE.norm>
1.80954

>  <RMSD>
13.854

$$$$
ligand
 OpenBabel11021811433D
libRbt.so/2013.1/901 2013/11/27
 31 33  0  0  0  0  0  0  0  0999 V2000
   35.5227   13.5228   14.3353 C   0  0  0  0  0  0  0  0  0  0  0  0
   32.6699   21.7410   11.6665 N   0  0  0  0  0  0  0  0  0  0  0  0
   35.1980   14.7568   14.9920 O   0  0  0  0  0  0  0  0  0  0  0  0
   36.0416   13.9490   12.9644 C   0  0  1  0  0  0  0  0  0  0  0  0
   30.7523   17.9771    8.8585 N   0  0  0  0  0  0  0  0  0  0  0  0
   35.0342   14.6888   12.1031 O   0  0  0  0  0  0  0  0  0  0  0  0
   35.2871   16.0367   11.9958 C   0  0  1  0  0  0  0  0  0  0  0  0
   35.8292   19.5375    9.4959 N   0  0  0  0  0  0  0  0  0  0  0  0
   34.2269   16.9228   12.2242 O   0  0  0  0  0  0  0  0  0  0  0  0
   33.7721   17.9400   11.2171 C   0  0  2  0  0  0  0  0  0  0  0  0
   33.0511   13.6883    8.4086 N   0  0  0  0  0  0  0  0  0  0  0  0
   34.6972   19.7581   12.6420 O   0  0  0  0  0  0  0  0  0  0  0  0
   33.4775   19.2719   11.9686 C   0  0  1  0  0  0  0  0  0  0  0  0
   32.7311   16.2835    9.8017 O   0  0  0  0  0  0  0  0  0  0  0  0
   32.9701   20.3962   10.9336 C   0  0  1  0  0  0  0  0  0  0  0  0
   34.1287   17.2860    8.1564 O   0  0  0  0  0  0  0  0  0  0  0  0
   31.6574   19.8433   10.2255 C   0  0  0  0  0  0  0  0  0  0  0  0
   37.3593   15.8542    9.3328 O   0  0  0  0  0  0  0  0  0  0  0  0
   32.0101   18.4746    9.5079 C   0  0  1  0  0  0  0  0  0  0  0  0
   35.9837   13.4651    8.5884 O   0  0  0  0  0  0  0  0  0  0  0  0
   32.4452   17.4365   10.4925 C   0  0  2  0  0  0  0  0  0  0  0  0
   37.2509   17.3468   12.3369 O   0  0  0  0  0  0  0  0  0  0  0  0
   33.1760   16.1543    8.4269 C   0  0  1  0  0  0  0  0  0  0  0  0
   38.0037   14.7645   11.6834 O   0  0  0  0  0  0  0  0  0  0  0  0
   35.4297   17.2574    8.9470 C   0  0  2  0  0  0  0  0  0  0  0  0
   36.2754   18.4745    8.5908 C   0  0  0  0  0  0  0  0  0  0  0  0
   36.1600   15.9366    8.6110 C   0  0  2  0  0  0  0  0  0  0  0  0
   35.2836   14.7378    8.9332 C   0  0  1  0  0  0  0  0  0  0  0  0
   33.9741   14.8583    8.1319 C   0  0  1  0  0  0  0  0  0  0  0  0
   36.5190   16.2925   12.8487 C   0  0  2  0  0  0  0  0  0  0  0  0
   37.2378   14.9067   12.9147 C   0  0  1  0  0  0  0  0  0  0  0  0
  1  3  1  0  0  0  0
  4  1  1  1  0  0  0
  4  6  1  0  0  0  0
  4 31  1  0  0  0  0
  6  7  1  0  0  0  0
  7  9  1  1  0  0  0
  7 30  1  0  0  0  0
  8 26  1  0  0  0  0
 10  9  1  1  0  0  0
 10 13  1  0  0  0  0
 10 21  1  0  0  0  0
 13 12  1  6  0  0  0
 13 15  1  0  0  0  0
 15  2  1  1  0  0  0
 15 17  1  0  0  0  0
 16 25  1  0  0  0  0
 16 23  1  0  0  0  0
 17 19  1  0  0  0  0
 19  5  1  1  0  0  0
 19 21  1  0  0  0  0
 21 14  1  6  0  0  0
 23 14  1  1  0  0  0
 23 29  1  0  0  0  0
 25 26  1  6  0  0  0
 25 27  1  0  0  0  0
 27 18  1  1  0  0  0
 27 28  1  0  0  0  0
 28 20  1  6  0  0  0
 28 29  1  0  0  0  0
 29 11  1  1  0  0  0
 30 22  1  6  0  0  0
 30 31  1  0  0  0  0
 31 24  1  6  0  0  0
M  END
>  <CHROM.1>
-61.93016774,-123.10548754,-138.12809887,38.12051171,-90.50617051,87.28554954
34.68982479,16.73298824,10.71471989,-0.17940604,-0.94715952,0.95460150

>  <Name>
ligand

>  <RI>
0

>  <Rbt.Current_Directory>
/home/itssahil/PROJECTS/Mol_Feturizer/New_Systems/rnas/2ET5

>  <Rbt.Executable>
rbdock ($Id: //depot/dev/client3/rdock/2013.1/src/exe/rbdock.cxx#4 $)

>  <Rbt.Library>
libRbt.so (2013.1, Build901 2013/11/27)

>  <Rbt.Parameter_File>
/export/apps/rDock/src/rDock_2013.1_src/data/scripts/dock_solv.prm

>  <Rbt.Receptor>
prm/blind_docking_100.prm

>  <SCORE>
64.4207

>  <SCORE.INTER>
29.2618

>  <SCORE.INTER.CONST>
1

>  <SCORE.INTER.POLAR>
0

>  <SCORE.INTER.ROT>
6

>  <SCORE.INTER.SOLV>
34.3082

>  <SCORE.INTER.VDW>
0.471795

>  <SCORE.INTER.norm>
0.943929

>  <SCORE.INTRA>
7.01539

>  <SCORE.INTRA.DIHEDRAL>
9.62916

>  <SCORE.INTRA.DIHEDRAL.0>
11.2357

>  <SCORE.INTRA.POLAR>
0

>  <SCORE.INTRA.POLAR.0>
0

>  <SCORE.INTRA.REPUL>
0.164945

>  <SCORE.INTRA.REPUL.0>
0

>  <SCORE.INTRA.SOLV>
4.2025

>  <SCORE.INTRA.SOLV.lig_0>
-83.3092

>  <SCORE.INTRA.VDW>
-0.725161

>  <SCORE.INTRA.VDW.0>
-4.47057

>  <SCORE.INTRA.norm>
0.226303

>  <SCORE.RESTR>
28.1435

>  <SCORE.RESTR.CAVITY>
28.1435

>  <SCORE.RESTR.norm>
0.907855

>  <SCORE.SYSTEM>
0

>  <SCORE.SYSTEM.CONST>
0

>  <SCORE.SYSTEM.DIHEDRAL>
0

>  <SCORE.SYSTEM.SOLV>
0

>  <SCORE.SYSTEM.norm>
0

>  <SCORE.heavy>
31

>  <SCORE.norm>
2.07809

>  <RMSD>
13.857

$$$$
ligand
 OpenBabel11021811433D
libRbt.so/2013.1/901 2013/11/27
 31 33  0  0  0  0  0  0  0  0999 V2000
   32.4853   20.3181   11.5519 C   0  0  0  0  0  0  0  0  0  0  0  0
   37.1694   18.8555    7.1132 N   0  0  0  0  0  0  0  0  0  0  0  0
   33.1229   21.1227   10.5490 O   0  0  0  0  0  0  0  0  0  0  0  0
   32.0530   19.0577   10.8073 C   0  0  1  0  0  0  0  0  0  0  0  0
   36.1423   13.8967    7.4024 N   0  0  0  0  0  0  0  0  0  0  0  0
   33.1866   18.2680   10.1786 O   0  0  0  0  0  0  0  0  0  0  0  0
   33.4774   17.0992   10.8432 C   0  0  1  0  0  0  0  0  0  0  0  0
   36.8152   15.6496   14.9633 N   0  0  0  0  0  0  0  0  0  0  0  0
   34.8173   16.8394   11.1571 O   0  0  0  0  0  0  0  0  0  0  0  0
   35.8724   16.5863   10.1185 C   0  0  2  0  0  0  0  0  0  0  0  0
   35.7310   11.3626   10.8437 N   0  0  0  0  0  0  0  0  0  0  0  0
   36.3204   19.0302    9.9841 O   0  0  0  0  0  0  0  0  0  0  0  0
   35.9572   17.8374    9.1949 C   0  0  1  0  0  0  0  0  0  0  0  0
   35.4544   14.2085   10.0676 O   0  0  0  0  0  0  0  0  0  0  0  0
   37.0670   17.6118    8.0504 C   0  0  1  0  0  0  0  0  0  0  0  0
   36.8570   14.7958   11.8987 O   0  0  0  0  0  0  0  0  0  0  0  0
   36.6481   16.3219    7.2192 C   0  0  0  0  0  0  0  0  0  0  0  0
   34.3775   14.2020   14.6135 O   0  0  0  0  0  0  0  0  0  0  0  0
   36.5459   15.0923    8.2143 C   0  0  1  0  0  0  0  0  0  0  0  0
   34.6384   11.5555   13.5733 O   0  0  0  0  0  0  0  0  0  0  0  0
   35.4858   15.3099    9.2465 C   0  0  2  0  0  0  0  0  0  0  0  0
   32.2301   15.7487   12.3631 O   0  0  0  0  0  0  0  0  0  0  0  0
   36.5110   13.7040   10.9242 C   0  0  1  0  0  0  0  0  0  0  0  0
   30.4630   17.1535   10.7613 O   0  0  0  0  0  0  0  0  0  0  0  0
   35.7600   15.1728   12.8851 C   0  0  2  0  0  0  0  0  0  0  0  0
   36.2428   16.3052   13.7840 C   0  0  0  0  0  0  0  0  0  0  0  0
   35.4014   13.9094   13.7013 C   0  0  2  0  0  0  0  0  0  0  0  0
   34.9641   12.7798   12.7837 C   0  0  1  0  0  0  0  0  0  0  0  0
   36.1042   12.4850   11.7915 C   0  0  1  0  0  0  0  0  0  0  0  0
   32.5304   17.0560   12.0314 C   0  0  2  0  0  0  0  0  0  0  0  0
   31.3326   17.9638   11.6041 C   0  0  1  0  0  0  0  0  0  0  0  0
  1  3  1  0  0  0  0
  4  1  1  1  0  0  0
  4  6  1  0  0  0  0
  4 31  1  0  0  0  0
  6  7  1  0  0  0  0
  7  9  1  1  0  0  0
  7 30  1  0  0  0  0
  8 26  1  0  0  0  0
 10  9  1  1  0  0  0
 10 13  1  0  0  0  0
 10 21  1  0  0  0  0
 13 12  1  1  0  0  0
 13 15  1  0  0  0  0
 15  2  1  6  0  0  0
 15 17  1  0  0  0  0
 16 25  1  0  0  0  0
 16 23  1  0  0  0  0
 17 19  1  0  0  0  0
 19  5  1  6  0  0  0
 19 21  1  0  0  0  0
 21 14  1  1  0  0  0
 23 14  1  6  0  0  0
 23 29  1  0  0  0  0
 25 26  1  1  0  0  0
 25 27  1  0  0  0  0
 27 18  1  1  0  0  0
 27 28  1  0  0  0  0
 28 20  1  1  0  0  0
 28 29  1  0  0  0  0
 29 11  1  6  0  0  0
 30 22  1  6  0  0  0
 30 31  1  0  0  0  0
 31 24  1  6  0  0  0
M  END
>  <CHROM.1>
60.44584286,-66.12756739,59.63784007,59.42202074,-55.94262562,-92.49175576
34.86058000,16.06001801,11.00251631,1.99628185,0.78595060,-0.71742003

>  <Name>
ligand

>  <RI>
0

>  <Rbt.Current_Directory>
/home/itssahil/PROJECTS/Mol_Feturizer/New_Systems/rnas/2ET5

>  <Rbt.Executable>
rbdock ($Id: //depot/dev/client3/rdock/2013.1/src/exe/rbdock.cxx#4 $)

>  <Rbt.Library>
libRbt.so (2013.1, Build901 2013/11/27)

>  <Rbt.Parameter_File>
/export/apps/rDock/src/rDock_2013.1_src/data/scripts/dock_solv.prm

>  <Rbt.Receptor>
prm/blind_docking_100.prm

>  <SCORE>
73.9589

>  <SCORE.INTER>
35.1629

>  <SCORE.INTER.CONST>
1

>  <SCORE.INTER.POLAR>
0

>  <SCORE.INTER.ROT>
6

>  <SCORE.INTER.SOLV>
27.9409

>  <SCORE.INTER.VDW>
6.52833

>  <SCORE.INTER.norm>
1.13429

>  <SCORE.INTRA>
-0.950511

>  <SCORE.INTRA.DIHEDRAL>
-7.85016

>  <SCORE.INTRA.DIHEDRAL.0>
11.2357

>  <SCORE.INTRA.POLAR>
0

>  <SCORE.INTRA.POLAR.0>
0

>  <SCORE.INTRA.REPUL>
0

>  <SCORE.INTRA.REPUL.0>
0

>  <SCORE.INTRA.SOLV>
-1.05358

>  <SCORE.INTRA.SOLV.lig_0>
-83.3092

>  <SCORE.INTRA.VDW>
3.50136

>  <SCORE.INTRA.VDW.0>
-4.47057

>  <SCORE.INTRA.norm>
-0.0306616

>  <SCORE.RESTR>
39.7464

>  <SCORE.RESTR.CAVITY>
39.7464

>  <SCORE.RESTR.norm>
1.28214

>  <SCORE.SYSTEM>
0

>  <SCORE.SYSTEM.CONST>
0

>  <SCORE.SYSTEM.DIHEDRAL>
0

>  <SCORE.SYSTEM.SOLV>
0

>  <SCORE.SYSTEM.norm>
0

>  <SCORE.heavy>
31

>  <SCORE.norm>
2.38577

>  <RMSD>
13.878

$$$$
ligand
 OpenBabel11021811433D
libRbt.so/2013.1/901 2013/11/27
 31 33  0  0  0  0  0  0  0  0999 V2000
   33.9890   14.9367   15.0055 C   0  0  0  0  0  0  0  0  0  0  0  0
   37.1259   14.6206    6.9029 N   0  0  0  0  0  0  0  0  0  0  0  0
   32.8784   14.7430   14.1175 O   0  0  0  0  0  0  0  0  0  0  0  0
   35.2140   14.6054   14.1572 C   0  0  1  0  0  0  0  0  0  0  0  0
   37.1364   19.4711    8.3865 N   0  0  0  0  0  0  0  0  0  0  0  0
   34.9461   14.4914   12.6675 O   0  0  0  0  0  0  0  0  0  0  0  0
   35.4257   15.5553   11.9394 C   0  0  1  0  0  0  0  0  0  0  0  0
   30.3885   17.1792    8.4782 N   0  0  0  0  0  0  0  0  0  0  0  0
   34.5602   16.1662   11.0234 O   0  0  0  0  0  0  0  0  0  0  0  0
   34.9761   16.5632    9.6358 C   0  0  2  0  0  0  0  0  0  0  0  0
   33.8094   21.3070   11.3444 N   0  0  0  0  0  0  0  0  0  0  0  0
   34.9909   14.1685    8.9597 O   0  0  0  0  0  0  0  0  0  0  0  0
   35.8066   15.3966    9.0235 C   0  0  1  0  0  0  0  0  0  0  0  0
   35.1141   18.9084   10.1941 O   0  0  0  0  0  0  0  0  0  0  0  0
   36.2919   15.7778    7.5363 C   0  0  1  0  0  0  0  0  0  0  0  0
   33.2816   18.6900    8.6910 O   0  0  0  0  0  0  0  0  0  0  0  0
   37.1665   17.1025    7.6386 C   0  0  0  0  0  0  0  0  0  0  0  0
   30.7831   17.4454   11.1566 O   0  0  0  0  0  0  0  0  0  0  0  0
   36.2819   18.2409    8.2973 C   0  0  1  0  0  0  0  0  0  0  0  0
   31.2919   20.0480   12.2157 O   0  0  0  0  0  0  0  0  0  0  0  0
   35.8724   17.8796    9.6895 C   0  0  2  0  0  0  0  0  0  0  0  0
   37.0889   17.2050   12.3886 O   0  0  0  0  0  0  0  0  0  0  0  0
   34.0729   19.6623    9.5216 C   0  0  1  0  0  0  0  0  0  0  0  0
   37.6561   14.9389   13.8735 O   0  0  0  0  0  0  0  0  0  0  0  0
   32.5021   17.6383    9.4688 C   0  0  2  0  0  0  0  0  0  0  0  0
   31.7777   16.7123    8.4987 C   0  0  0  0  0  0  0  0  0  0  0  0
   31.5130   18.3746   10.4017 C   0  0  2  0  0  0  0  0  0  0  0  0
   32.2515   19.3238   11.3307 C   0  0  1  0  0  0  0  0  0  0  0  0
   33.0469   20.3271   10.4751 C   0  0  1  0  0  0  0  0  0  0  0  0
   36.0419   16.5035   12.9551 C   0  0  2  0  0  0  0  0  0  0  0  0
   36.3884   15.5907   14.1751 C   0  0  1  0  0  0  0  0  0  0  0  0
  1  3  1  0  0  0  0
  4  1  1  1  0  0  0
  4  6  1  0  0  0  0
  4 31  1  0  0  0  0
  6  7  1  0  0  0  0
  7  9  1  1  0  0  0
  7 30  1  0  0  0  0
  8 26  1  0  0  0  0
 10  9  1  1  0  0  0
 10 13  1  0  0  0  0
 10 21  1  0  0  0  0
 13 12  1  6  0  0  0
 13 15  1  0  0  0  0
 15  2  1  1  0  0  0
 15 17  1  0  0  0  0
 16 25  1  0  0  0  0
 16 23  1  0  0  0  0
 17 19  1  0  0  0  0
 19  5  1  1  0  0  0
 19 21  1  0  0  0  0
 21 14  1  6  0  0  0
 23 14  1  1  0  0  0
 23 29  1  0  0  0  0
 25 26  1  6  0  0  0
 25 27  1  0  0  0  0
 27 18  1  1  0  0  0
 27 28  1  0  0  0  0
 28 20  1  6  0  0  0
 28 29  1  0  0  0  0
 29 11  1  1  0  0  0
 30 22  1  6  0  0  0
 30 31  1  0  0  0  0
 31 24  1  6  0  0  0
M  END
>  <CHROM.1>
12.55783586,-136.19372584,44.06295562,39.65588790,-75.49332321,-100.68623079
34.48844800,17.05956278,10.69082343,0.95014449,-0.59370543,2.00396008

>  <Name>
ligand

>  <RI>
0

>  <Rbt.Current_Directory>
/home/itssahil/PROJECTS/Mol_Feturizer/New_Systems/rnas/2ET5

>  <Rbt.Executable>
rbdock ($Id: //depot/dev/client3/rdock/2013.1/src/exe/rbdock.cxx#4 $)

>  <Rbt.Library>
libRbt.so (2013.1, Build901 2013/11/27)

>  <Rbt.Parameter_File>
/export/apps/rDock/src/rDock_2013.1_src/data/scripts/dock_solv.prm

>  <Rbt.Receptor>
prm/blind_docking_100.prm

>  <SCORE>
62.351

>  <SCORE.INTER>
27.8525

>  <SCORE.INTER.CONST>
1

>  <SCORE.INTER.POLAR>
0

>  <SCORE.INTER.ROT>
6

>  <SCORE.INTER.SOLV>
42.8277

>  <SCORE.INTER.VDW>
-3.30758

>  <SCORE.INTER.norm>
0.898468

>  <SCORE.INTRA>
8.90654

>  <SCORE.INTRA.DIHEDRAL>
7.63534

>  <SCORE.INTRA.DIHEDRAL.0>
11.2357

>  <SCORE.INTRA.POLAR>
0

>  <SCORE.INTRA.POLAR.0>
0

>  <SCORE.INTRA.REPUL>
0

>  <SCORE.INTRA.REPUL.0>
0

>  <SCORE.INTRA.SOLV>
-0.591247

>  <SCORE.INTRA.SOLV.lig_0>
-83.3092

>  <SCORE.INTRA.VDW>
5.3845

>  <SCORE.INTRA.VDW.0>
-4.47057

>  <SCORE.INTRA.norm>
0.287308

>  <SCORE.RESTR>
25.5919

>  <SCORE.RESTR.CAVITY>
25.5919

>  <SCORE.RESTR.norm>
0.825546

>  <SCORE.SYSTEM>
0

>  <SCORE.SYSTEM.CONST>
0

>  <SCORE.SYSTEM.DIHEDRAL>
0

>  <SCORE.SYSTEM.SOLV>
0

>  <SCORE.SYSTEM.norm>
0

>  <SCORE.heavy>
31

>  <SCORE.norm>
2.01132

>  <RMSD>
13.893

$$$$
ligand
 OpenBabel11021811433D
libRbt.so/2013.1/901 2013/11/27
 31 33  0  0  0  0  0  0  0  0999 V2000
   38.0073   14.2479   11.5337 C   0  0  0  0  0  0  0  0  0  0  0  0
   36.9923   14.5281    7.9745 N   0  0  0  0  0  0  0  0  0  0  0  0
   38.6163   13.0592   12.0588 O   0  0  0  0  0  0  0  0  0  0  0  0
   37.7035   15.0940   12.7674 C   0  0  1  0  0  0  0  0  0  0  0  0
   37.0995   19.5768    8.4513 N   0  0  0  0  0  0  0  0  0  0  0  0
   37.0124   16.4147   12.4804 O   0  0  0  0  0  0  0  0  0  0  0  0
   35.6834   16.4284   12.8349 C   0  0  1  0  0  0  0  0  0  0  0  0
   31.6101   15.8610    9.5468 N   0  0  0  0  0  0  0  0  0  0  0  0
   34.7584   16.8958   11.8929 O   0  0  0  0  0  0  0  0  0  0  0  0
   35.0599   17.0025   10.4253 C   0  0  2  0  0  0  0  0  0  0  0  0
   33.7128   21.7589   11.4679 N   0  0  0  0  0  0  0  0  0  0  0  0
   35.0313   14.5211   10.2433 O   0  0  0  0  0  0  0  0  0  0  0  0
   35.8438   15.7275    9.9949 C   0  0  1  0  0  0  0  0  0  0  0  0
   35.2314   19.4103   10.4900 O   0  0  0  0  0  0  0  0  0  0  0  0
   36.2066   15.7981    8.4277 C   0  0  1  0  0  0  0  0  0  0  0  0
   33.5054   19.0152    8.8994 O   0  0  0  0  0  0  0  0  0  0  0  0
   37.0805   17.1063    8.1928 C   0  0  0  0  0  0  0  0  0  0  0  0
   30.9547   17.7016   11.2741 O   0  0  0  0  0  0  0  0  0  0  0  0
   36.2463   18.3636    8.6785 C   0  0  1  0  0  0  0  0  0  0  0  0
   31.2351   20.3701   12.2515 O   0  0  0  0  0  0  0  0  0  0  0  0
   35.9515   18.2926   10.1430 C   0  0  2  0  0  0  0  0  0  0  0  0
   34.3943   15.0928   14.3329 O   0  0  0  0  0  0  0  0  0  0  0  0
   34.1844   20.0681    9.7313 C   0  0  1  0  0  0  0  0  0  0  0  0
   37.0366   15.0601   15.1570 O   0  0  0  0  0  0  0  0  0  0  0  0
   32.7515   17.9443    9.6762 C   0  0  2  0  0  0  0  0  0  0  0  0
   32.1442   16.9368    8.7068 C   0  0  0  0  0  0  0  0  0  0  0  0
   31.6658   18.6481   10.5226 C   0  0  2  0  0  0  0  0  0  0  0  0
   32.2879   19.6781   11.4507 C   0  0  1  0  0  0  0  0  0  0  0  0
   33.0653   20.6990   10.5993 C   0  0  1  0  0  0  0  0  0  0  0  0
   35.3879   15.0383   13.3743 C   0  0  2  0  0  0  0  0  0  0  0  0
   36.7797   14.4995   13.8368 C   0  0  1  0  0  0  0  0  0  0  0  0
  1  3  1  0  0  0  0
  4  1  1  6  0  0  0
  4  6  1  0  0  0  0
  4 31  1  0  0  0  0
  6  7  1  0  0  0  0
  7  9  1  6  0  0  0
  7 30  1  0  0  0  0
  8 26  1  0  0  0  0
 10  9  1  1  0  0  0
 10 13  1  0  0  0  0
 10 21  1  0  0  0  0
 13 12  1  6  0  0  0
 13 15  1  0  0  0  0
 15  2  1  1  0  0  0
 15 17  1  0  0  0  0
 16 25  1  0  0  0  0
 16 23  1  0  0  0  0
 17 19  1  0  0  0  0
 19  5  1  1  0  0  0
 19 21  1  0  0  0  0
 21 14  1  6  0  0  0
 23 14  1  1  0  0  0
 23 29  1  0  0  0  0
 25 26  1  6  0  0  0
 25 27  1  0  0  0  0
 27 18  1  1  0  0  0
 27 28  1  0  0  0  0
 28 20  1  6  0  0  0
 28 29  1  0  0  0  0
 29 11  1  1  0  0  0
 30 22  1  1  0  0  0
 30 31  1  0  0  0  0
 31 24  1  1  0  0  0
M  END
>  <CHROM.1>
-178.56206172,18.27832385,41.87662945,29.43421562,-79.10438017,172.31371592
34.93672210,17.09899614,10.93037567,-0.59959430,0.67371200,-1.11952944

>  <Name>
ligand

>  <RI>
0

>  <Rbt.Current_Directory>
/home/itssahil/PROJECTS/Mol_Feturizer/New_Systems/rnas/2ET5

>  <Rbt.Executable>
rbdock ($Id: //depot/dev/client3/rdock/2013.1/src/exe/rbdock.cxx#4 $)

>  <Rbt.Library>
libRbt.so (2013.1, Build901 2013/11/27)

>  <Rbt.Parameter_File>
/export/apps/rDock/src/rDock_2013.1_src/data/scripts/dock_solv.prm

>  <Rbt.Receptor>
prm/blind_docking_100.prm

>  <SCORE>
50.3326

>  <SCORE.INTER>
19.778

>  <SCORE.INTER.CONST>
1

>  <SCORE.INTER.POLAR>
0

>  <SCORE.INTER.ROT>
6

>  <SCORE.INTER.SOLV>
36.5204

>  <SCORE.INTER.VDW>
-6.58814

>  <SCORE.INTER.norm>
0.638

>  <SCORE.INTRA>
6.42449

>  <SCORE.INTRA.DIHEDRAL>
1.4759

>  <SCORE.INTRA.DIHEDRAL.0>
11.2357

>  <SCORE.INTRA.POLAR>
0

>  <SCORE.INTRA.POLAR.0>
0

>  <SCORE.INTRA.REPUL>
0

>  <SCORE.INTRA.REPUL.0>
0

>  <SCORE.INTRA.SOLV>
1.18476

>  <SCORE.INTRA.SOLV.lig_0>
-83.3092

>  <SCORE.INTRA.VDW>
5.09416

>  <SCORE.INTRA.VDW.0>
-4.47057

>  <SCORE.INTRA.norm>
0.207242

>  <SCORE.RESTR>
24.1301

>  <SCORE.RESTR.CAVITY>
24.1301

>  <SCORE.RESTR.norm>
0.778391

>  <SCORE.SYSTEM>
0

>  <SCORE.SYSTEM.CONST>
0

>  <SCORE.SYSTEM.DIHEDRAL>
0

>  <SCORE.SYSTEM.SOLV>
0

>  <SCORE.SYSTEM.norm>
0

>  <SCORE.heavy>
31

>  <SCORE.norm>
1.62363

>  <RMSD>
13.895

$$$$
ligand
 OpenBabel11021811433D
libRbt.so/2013.1/901 2013/11/27
 31 33  0  0  0  0  0  0  0  0999 V2000
   37.9596   14.1915   11.6178 C   0  0  0  0  0  0  0  0  0  0  0  0
   36.9765   14.4952    7.9649 N   0  0  0  0  0  0  0  0  0  0  0  0
   36.7846   13.3744   11.5107 O   0  0  0  0  0  0  0  0  0  0  0  0
   37.6764   15.1076   12.8055 C   0  0  1  0  0  0  0  0  0  0  0  0
   37.1001   19.5438    8.4385 N   0  0  0  0  0  0  0  0  0  0  0  0
   36.9883   16.4140   12.4533 O   0  0  0  0  0  0  0  0  0  0  0  0
   35.6642   16.4555   12.8235 C   0  0  1  0  0  0  0  0  0  0  0  0
   31.5413   15.8579    9.5948 N   0  0  0  0  0  0  0  0  0  0  0  0
   34.7293   16.8744   11.8686 O   0  0  0  0  0  0  0  0  0  0  0  0
   35.0395   16.9788   10.4028 C   0  0  2  0  0  0  0  0  0  0  0  0
   33.7140   21.7488   11.4300 N   0  0  0  0  0  0  0  0  0  0  0  0
   35.0026   14.4973   10.2225 O   0  0  0  0  0  0  0  0  0  0  0  0
   35.8211   15.7005    9.9778 C   0  0  1  0  0  0  0  0  0  0  0  0
   35.2197   19.3860   10.4666 O   0  0  0  0  0  0  0  0  0  0  0  0
   36.1930   15.7685    8.4126 C   0  0  1  0  0  0  0  0  0  0  0  0
   33.4802   18.9767    8.8945 O   0  0  0  0  0  0  0  0  0  0  0  0
   37.0732   17.0732    8.1817 C   0  0  0  0  0  0  0  0  0  0  0  0
   30.9459   17.6958   11.3043 O   0  0  0  0  0  0  0  0  0  0  0  0
   36.2410   18.3340    8.6617 C   0  0  1  0  0  0  0  0  0  0  0  0
   31.2398   20.3744   12.2491 O   0  0  0  0  0  0  0  0  0  0  0  0
   35.9376   18.2653   10.1245 C   0  0  2  0  0  0  0  0  0  0  0  0
   34.3882   15.2141   14.4111 O   0  0  0  0  0  0  0  0  0  0  0  0
   34.1680   20.0374    9.7089 C   0  0  1  0  0  0  0  0  0  0  0  0
   37.0410   15.2124   15.2016 O   0  0  0  0  0  0  0  0  0  0  0  0
   32.7303   17.9163    9.6893 C   0  0  2  0  0  0  0  0  0  0  0  0
   32.1131   16.8993    8.7364 C   0  0  0  0  0  0  0  0  0  0  0  0
   31.6529   18.6321   10.5364 C   0  0  2  0  0  0  0  0  0  0  0  0
   32.2846   19.6711   11.4478 C   0  0  1  0  0  0  0  0  0  0  0  0
   33.0573   20.6806   10.5786 C   0  0  1  0  0  0  0  0  0  0  0  0
   35.3687   15.0998   13.4443 C   0  0  2  0  0  0  0  0  0  0  0  0
   36.7638   14.5798   13.9186 C   0  0  1  0  0  0  0  0  0  0  0  0
  1  3  1  0  0  0  0
  4  1  1  6  0  0  0
  4  6  1  0  0  0  0
  4 31  1  0  0  0  0
  6  7  1  0  0  0  0
  7  9  1  6  0  0  0
  7 30  1  0  0  0  0
  8 26  1  0  0  0  0
 10  9  1  1  0  0  0
 10 13  1  0  0  0  0
 10 21  1  0  0  0  0
 13 12  1  6  0  0  0
 13 15  1  0  0  0  0
 15  2  1  1  0  0  0
 15 17  1  0  0  0  0
 16 25  1  0  0  0  0
 16 23  1  0  0  0  0
 17 19  1  0  0  0  0
 19  5  1  1  0  0  0
 19 21  1  0  0  0  0
 21 14  1  6  0  0  0
 23 14  1  1  0  0  0
 23 29  1  0  0  0  0
 25 26  1  6  0  0  0
 25 27  1  0  0  0  0
 27 18  1  1  0  0  0
 27 28  1  0  0  0  0
 28 20  1  6  0  0  0
 28 29  1  0  0  0  0
 29 11  1  1  0  0  0
 30 22  1  1  0  0  0
 30 31  1  0  0  0  0
 31 24  1  1  0  0  0
M  END
>  <CHROM.1>
-89.83395976,14.29029442,44.54320405,29.66138284,-78.26339650,174.27275629
34.85377170,17.10820912,10.91720466,-0.60692974,0.70888329,-1.13662831

>  <Name>
ligand

>  <RI>
0

>  <Rbt.Current_Directory>
/home/itssahil/PROJECTS/Mol_Feturizer/New_Systems/rnas/2ET5

>  <Rbt.Executable>
rbdock ($Id: //depot/dev/client3/rdock/2013.1/src/exe/rbdock.cxx#4 $)

>  <Rbt.Library>
libRbt.so (2013.1, Build901 2013/11/27)

>  <Rbt.Parameter_File>
/export/apps/rDock/src/rDock_2013.1_src/data/scripts/dock_solv.prm

>  <Rbt.Receptor>
prm/blind_docking_100.prm

>  <SCORE>
52.5457

>  <SCORE.INTER>
19.6185

>  <SCORE.INTER.CONST>
1

>  <SCORE.INTER.POLAR>
0

>  <SCORE.INTER.ROT>
6

>  <SCORE.INTER.SOLV>
36.4889

>  <SCORE.INTER.VDW>
-6.68396

>  <SCORE.INTER.norm>
0.632855

>  <SCORE.INTRA>
9.49116

>  <SCORE.INTRA.DIHEDRAL>
3.97674

>  <SCORE.INTRA.DIHEDRAL.0>
11.2357

>  <SCORE.INTRA.POLAR>
0

>  <SCORE.INTRA.POLAR.0>
0

>  <SCORE.INTRA.REPUL>
0

>  <SCORE.INTRA.REPUL.0>
0

>  <SCORE.INTRA.SOLV>
2.61827

>  <SCORE.INTRA.SOLV.lig_0>
-83.3092

>  <SCORE.INTRA.VDW>
6.19366

>  <SCORE.INTRA.VDW.0>
-4.47057

>  <SCORE.INTRA.norm>
0.306167

>  <SCORE.RESTR>
23.436

>  <SCORE.RESTR.CAVITY>
23.436

>  <SCORE.RESTR.norm>
0.756001

>  <SCORE.SYSTEM>
0

>  <SCORE.SYSTEM.CONST>
0

>  <SCORE.SYSTEM.DIHEDRAL>
0

>  <SCORE.SYSTEM.SOLV>
0

>  <SCORE.SYSTEM.norm>
0

>  <SCORE.heavy>
31

>  <SCORE.norm>
1.69502

>  <RMSD>
13.904

$$$$
ligand
 OpenBabel11021811433D
libRbt.so/2013.1/901 2013/11/27
 31 33  0  0  0  0  0  0  0  0999 V2000
   31.6191   17.8467   10.0230 C   0  0  0  0  0  0  0  0  0  0  0  0
   35.3031   16.3705    6.4766 N   0  0  0  0  0  0  0  0  0  0  0  0
   32.5942   18.0989    9.0007 O   0  0  0  0  0  0  0  0  0  0  0  0
   32.0472   18.7415   11.1832 C   0  0  1  0  0  0  0  0  0  0  0  0
   34.1433   14.2991   10.9591 N   0  0  0  0  0  0  0  0  0  0  0  0
   33.4467   18.4783   11.7087 O   0  0  0  0  0  0  0  0  0  0  0  0
   34.3569   19.4487   11.3594 C   0  0  1  0  0  0  0  0  0  0  0  0
   34.4919   14.6990   16.9556 N   0  0  0  0  0  0  0  0  0  0  0  0
   35.5768   19.0357   10.8092 O   0  0  0  0  0  0  0  0  0  0  0  0
   35.7909   17.6762   10.2076 C   0  0  2  0  0  0  0  0  0  0  0  0
   37.3804   14.9320   11.0499 N   0  0  0  0  0  0  0  0  0  0  0  0
   36.3204   18.7331    8.0180 O   0  0  0  0  0  0  0  0  0  0  0  0
   35.4449   17.7543    8.6911 C   0  0  1  0  0  0  0  0  0  0  0  0
   35.1835   16.5238   12.2408 O   0  0  0  0  0  0  0  0  0  0  0  0
   35.6436   16.3144    7.9985 C   0  0  1  0  0  0  0  0  0  0  0  0
   36.3654   16.5227   14.3068 O   0  0  0  0  0  0  0  0  0  0  0  0
   34.6888   15.2839    8.7447 C   0  0  0  0  0  0  0  0  0  0  0  0
   35.7123   12.9747   15.2323 O   0  0  0  0  0  0  0  0  0  0  0  0
   35.0649   15.2723   10.2845 C   0  0  1  0  0  0  0  0  0  0  0  0
   37.2509   12.6067   12.8550 O   0  0  0  0  0  0  0  0  0  0  0  0
   34.8394   16.6104   10.9133 C   0  0  2  0  0  0  0  0  0  0  0  0
   34.1161   21.7153   10.6567 O   0  0  0  0  0  0  0  0  0  0  0  0
   36.5130   16.4270   12.8133 C   0  0  1  0  0  0  0  0  0  0  0  0
   31.9098   21.0123   12.1733 O   0  0  0  0  0  0  0  0  0  0  0  0
   35.6164   15.3755   14.9713 C   0  0  2  0  0  0  0  0  0  0  0  0
   35.5211   15.6237   16.4722 C   0  0  0  0  0  0  0  0  0  0  0  0
   36.3770   14.0667   14.6562 C   0  0  2  0  0  0  0  0  0  0  0  0
   36.4982   13.8604   13.1556 C   0  0  1  0  0  0  0  0  0  0  0  0
   37.2258   15.0754   12.5509 C   0  0  1  0  0  0  0  0  0  0  0  0
   33.5870   20.4473   10.5106 C   0  0  2  0  0  0  0  0  0  0  0  0
   32.0979   20.2548   10.9429 C   0  0  1  0  0  0  0  0  0  0  0  0
  1  3  1  0  0  0  0
  4  1  1  6  0  0  0
  4  6  1  0  0  0  0
  4 31  1  0  0  0  0
  6  7  1  0  0  0  0
  7  9  1  6  0  0  0
  7 30  1  0  0  0  0
  8 26  1  0  0  0  0
 10  9  1  1  0  0  0
 10 13  1  0  0  0  0
 10 21  1  0  0  0  0
 13 12  1  6  0  0  0
 13 15  1  0  0  0  0
 15  2  1  6  0  0  0
 15 17  1  0  0  0  0
 16 25  1  0  0  0  0
 16 23  1  0  0  0  0
 17 19  1  0  0  0  0
 19  5  1  1  0  0  0
 19 21  1  0  0  0  0
 21 14  1  1  0  0  0
 23 14  1  6  0  0  0
 23 29  1  0  0  0  0
 25 26  1  1  0  0  0
 25 27  1  0  0  0  0
 27 18  1  6  0  0  0
 27 28  1  0  0  0  0
 28 20  1  1  0  0  0
 28 29  1  0  0  0  0
 29 11  1  6  0  0  0
 30 22  1  1  0  0  0
 30 31  1  0  0  0  0
 31 24  1  1  0  0  0
M  END
>  <CHROM.1>
-58.94321799,18.86871587,90.19172928,173.36898418,-45.36139729,164.62738858
34.91818193,16.87076599,11.55599805,2.26037803,1.01445778,-1.36443423

>  <Name>
ligand

>  <RI>
0

>  <Rbt.Current_Directory>
/home/itssahil/PROJECTS/Mol_Feturizer/New_Systems/rnas/2ET5

>  <Rbt.Executable>
rbdock ($Id: //depot/dev/client3/rdock/2013.1/src/exe/rbdock.cxx#4 $)

>  <Rbt.Library>
libRbt.so (2013.1, Build901 2013/11/27)

>  <Rbt.Parameter_File>
/export/apps/rDock/src/rDock_2013.1_src/data/scripts/dock_solv.prm

>  <Rbt.Receptor>
prm/blind_docking_100.prm

>  <SCORE>
64.254

>  <SCORE.INTER>
26.5396

>  <SCORE.INTER.CONST>
1

>  <SCORE.INTER.POLAR>
0

>  <SCORE.INTER.ROT>
6

>  <SCORE.INTER.SOLV>
24.9949

>  <SCORE.INTER.VDW>
1.76146

>  <SCORE.INTER.norm>
0.856118

>  <SCORE.INTRA>
8.53762

>  <SCORE.INTRA.DIHEDRAL>
0.00847644

>  <SCORE.INTRA.DIHEDRAL.0>
11.2357

>  <SCORE.INTRA.POLAR>
0

>  <SCORE.INTRA.POLAR.0>
0

>  <SCORE.INTRA.REPUL>
0

>  <SCORE.INTRA.REPUL.0>
0

>  <SCORE.INTRA.SOLV>
5.74304

>  <SCORE.INTRA.SOLV.lig_0>
-83.3092

>  <SCORE.INTRA.VDW>
5.66186

>  <SCORE.INTRA.VDW.0>
-4.47057

>  <SCORE.INTRA.norm>
0.275407

>  <SCORE.RESTR>
29.1767

>  <SCORE.RESTR.CAVITY>
29.1767

>  <SCORE.RESTR.norm>
0.941183

>  <SCORE.SYSTEM>
0

>  <SCORE.SYSTEM.CONST>
0

>  <SCORE.SYSTEM.DIHEDRAL>
0

>  <SCORE.SYSTEM.SOLV>
0

>  <SCORE.SYSTEM.norm>
0

>  <SCORE.heavy>
31

>  <SCORE.norm>
2.07271

>  <RMSD>
13.906

$$$$
ligand
 OpenBabel11021811433D
libRbt.so/2013.1/901 2013/11/27
 31 33  0  0  0  0  0  0  0  0999 V2000
   38.2748   13.6730   12.6388 C   0  0  0  0  0  0  0  0  0  0  0  0
   37.6677   14.2494    6.5116 N   0  0  0  0  0  0  0  0  0  0  0  0
   39.1745   13.9390   11.5528 O   0  0  0  0  0  0  0  0  0  0  0  0
   37.6402   15.0271   12.9448 C   0  0  1  0  0  0  0  0  0  0  0  0
   36.7957   19.0017    8.0556 N   0  0  0  0  0  0  0  0  0  0  0  0
   36.9728   15.7009   11.7596 O   0  0  0  0  0  0  0  0  0  0  0  0
   35.5986   15.6743   11.8138 C   0  0  1  0  0  0  0  0  0  0  0  0
   32.0222   21.4694   12.5727 N   0  0  0  0  0  0  0  0  0  0  0  0
   34.9056   15.2486   10.6737 O   0  0  0  0  0  0  0  0  0  0  0  0
   35.2255   15.7305    9.2876 C   0  0  2  0  0  0  0  0  0  0  0  0
   32.8325   15.9946   10.2255 N   0  0  0  0  0  0  0  0  0  0  0  0
   35.6763   13.3875    8.5815 O   0  0  0  0  0  0  0  0  0  0  0  0
   36.2510   14.7447    8.6533 C   0  0  1  0  0  0  0  0  0  0  0  0
   34.9327   18.0546    9.8739 O   0  0  0  0  0  0  0  0  0  0  0  0
   36.6409   15.2251    7.1668 C   0  0  1  0  0  0  0  0  0  0  0  0
   33.9871   19.2624   11.6938 O   0  0  0  0  0  0  0  0  0  0  0  0
   37.2560   16.6878    7.2779 C   0  0  0  0  0  0  0  0  0  0  0  0
   30.9686   20.5262    9.9155 O   0  0  0  0  0  0  0  0  0  0  0  0
   36.1830   17.6354    7.9586 C   0  0  1  0  0  0  0  0  0  0  0  0
   30.4744   17.7152    9.8248 O   0  0  0  0  0  0  0  0  0  0  0  0
   35.8629   17.1896    9.3498 C   0  0  2  0  0  0  0  0  0  0  0  0
   34.0556   15.3657   13.6064 O   0  0  0  0  0  0  0  0  0  0  0  0
   34.1510   17.8968   11.0858 C   0  0  1  0  0  0  0  0  0  0  0  0
   36.4195   16.3799   14.6288 O   0  0  0  0  0  0  0  0  0  0  0  0
   33.1685   20.2544   10.8787 C   0  0  2  0  0  0  0  0  0  0  0  0
   33.1139   21.5946   11.6029 C   0  0  0  0  0  0  0  0  0  0  0  0
   31.7571   19.6548   10.6804 C   0  0  2  0  0  0  0  0  0  0  0  0
   31.8370   18.3004    9.9961 C   0  0  1  0  0  0  0  0  0  0  0  0
   32.7119   17.3683   10.8546 C   0  0  1  0  0  0  0  0  0  0  0  0
   35.2524   14.9143   13.0839 C   0  0  2  0  0  0  0  0  0  0  0  0
   36.5171   15.0753   13.9873 C   0  0  1  0  0  0  0  0  0  0  0  0
  1  3  1  0  0  0  0
  4  1  1  6  0  0  0
  4  6  1  0  0  0  0
  4 31  1  0  0  0  0
  6  7  1  0  0  0  0
  7  9  1  6  0  0  0
  7 30  1  0  0  0  0
  8 26  1  0  0  0  0
 10  9  1  1  0  0  0
 10 13  1  0  0  0  0
 10 21  1  0  0  0  0
 13 12  1  6  0  0  0
 13 15  1  0  0  0  0
 15  2  1  1  0  0  0
 15 17  1  0  0  0  0
 16 25  1  0  0  0  0
 16 23  1  0  0  0  0
 17 19  1  0  0  0  0
 19  5  1  1  0  0  0
 19 21  1  0  0  0  0
 21 14  1  6  0  0  0
 23 14  1  6  0  0  0
 23 29  1  0  0  0  0
 25 26  1  1  0  0  0
 25 27  1  0  0  0  0
 27 18  1  6  0  0  0
 27 28  1  0  0  0  0
 28 20  1  1  0  0  0
 28 29  1  0  0  0  0
 29 11  1  6  0  0  0
 30 22  1  1  0  0  0
 30 31  1  0  0  0  0
 31 24  1  6  0  0  0
M  END
>  <CHROM.1>
55.20670047,-46.13627139,91.91607446,144.98163251,50.05662112,-83.72319008
34.97044885,16.85837489,10.63348612,0.01562853,-0.79550453,1.65883473

>  <Name>
ligand

>  <RI>
0

>  <Rbt.Current_Directory>
/home/itssahil/PROJECTS/Mol_Feturizer/New_Systems/rnas/2ET5

>  <Rbt.Executable>
rbdock ($Id: //depot/dev/client3/rdock/2013.1/src/exe/rbdock.cxx#4 $)

>  <Rbt.Library>
libRbt.so (2013.1, Build901 2013/11/27)

>  <Rbt.Parameter_File>
/export/apps/rDock/src/rDock_2013.1_src/data/scripts/dock_solv.prm

>  <Rbt.Receptor>
prm/blind_docking_100.prm

>  <SCORE>
73.0615

>  <SCORE.INTER>
38.1394

>  <SCORE.INTER.CONST>
1

>  <SCORE.INTER.POLAR>
0

>  <SCORE.INTER.ROT>
6

>  <SCORE.INTER.SOLV>
34.8687

>  <SCORE.INTER.VDW>
6.20335

>  <SCORE.INTER.norm>
1.2303

>  <SCORE.INTRA>
9.5145

>  <SCORE.INTRA.DIHEDRAL>
0.584386

>  <SCORE.INTRA.DIHEDRAL.0>
11.2357

>  <SCORE.INTRA.POLAR>
0

>  <SCORE.INTRA.POLAR.0>
0

>  <SCORE.INTRA.REPUL>
0

>  <SCORE.INTRA.REPUL.0>
0

>  <SCORE.INTRA.SOLV>
2.42134

>  <SCORE.INTRA.SOLV.lig_0>
-83.3092

>  <SCORE.INTRA.VDW>
8.01164

>  <SCORE.INTRA.VDW.0>
-4.47057

>  <SCORE.INTRA.norm>
0.30692

>  <SCORE.RESTR>
25.4076

>  <SCORE.RESTR.CAVITY>
25.4076

>  <SCORE.RESTR.norm>
0.819601

>  <SCORE.SYSTEM>
0

>  <SCORE.SYSTEM.CONST>
0

>  <SCORE.SYSTEM.DIHEDRAL>
0

>  <SCORE.SYSTEM.SOLV>
0

>  <SCORE.SYSTEM.norm>
0

>  <SCORE.heavy>
31

>  <SCORE.norm>
2.35682

>  <RMSD>
13.969

$$$$
ligand
 OpenBabel11021811433D
libRbt.so/2013.1/901 2013/11/27
 31 33  0  0  0  0  0  0  0  0999 V2000
   31.7782   17.6740    8.8723 C   0  0  0  0  0  0  0  0  0  0  0  0
   36.8200   18.9723    7.6407 N   0  0  0  0  0  0  0  0  0  0  0  0
   30.7604   16.6624    8.8551 O   0  0  0  0  0  0  0  0  0  0  0  0
   31.5400   18.4282   10.1779 C   0  0  1  0  0  0  0  0  0  0  0  0
   34.7303   14.4351    8.5211 N   0  0  0  0  0  0  0  0  0  0  0  0
   32.2359   17.8383   11.3911 O   0  0  0  0  0  0  0  0  0  0  0  0
   33.3175   18.5741   11.8166 C   0  0  1  0  0  0  0  0  0  0  0  0
   37.7142   17.5425   12.7942 N   0  0  0  0  0  0  0  0  0  0  0  0
   34.5189   17.8952   12.0560 O   0  0  0  0  0  0  0  0  0  0  0  0
   35.3713   17.3187   10.9619 C   0  0  2  0  0  0  0  0  0  0  0  0
   33.8207   12.4974   12.4506 N   0  0  0  0  0  0  0  0  0  0  0  0
   36.3458   19.5692   10.5410 O   0  0  0  0  0  0  0  0  0  0  0  0
   35.6386   18.4373    9.9117 C   0  0  1  0  0  0  0  0  0  0  0  0
   34.4210   15.1106   11.1898 O   0  0  0  0  0  0  0  0  0  0  0  0
   36.5389   17.8662    8.7051 C   0  0  1  0  0  0  0  0  0  0  0  0
   36.4709   15.1698   12.3980 O   0  0  0  0  0  0  0  0  0  0  0  0
   35.7512   16.6500    8.0488 C   0  0  0  0  0  0  0  0  0  0  0  0
   35.0322   15.9267   15.7488 O   0  0  0  0  0  0  0  0  0  0  0  0
   35.4796   15.5620    9.1692 C   0  0  1  0  0  0  0  0  0  0  0  0
   33.8811   13.3581   15.2680 O   0  0  0  0  0  0  0  0  0  0  0  0
   34.6136   16.1048   10.2610 C   0  0  2  0  0  0  0  0  0  0  0  0
   33.9664   20.8436   11.4739 O   0  0  0  0  0  0  0  0  0  0  0  0
   35.4223   14.2650   11.8121 C   0  0  1  0  0  0  0  0  0  0  0  0
   31.2162   20.6546   11.2238 O   0  0  0  0  0  0  0  0  0  0  0  0
   36.0091   16.0619   13.5424 C   0  0  2  0  0  0  0  0  0  0  0  0
   37.1651   16.9377   14.0111 C   0  0  0  0  0  0  0  0  0  0  0  0
   35.4890   15.1480   14.6760 C   0  0  2  0  0  0  0  0  0  0  0  0
   34.3668   14.2533   14.1766 C   0  0  1  0  0  0  0  0  0  0  0  0
   34.8954   13.4158   12.9974 C   0  0  1  0  0  0  0  0  0  0  0  0
   33.4318   19.7363   10.8436 C   0  0  2  0  0  0  0  0  0  0  0  0
   31.9925   19.8910   10.2557 C   0  0  1  0  0  0  0  0  0  0  0  0
  1  3  1  0  0  0  0
  4  1  1  6  0  0  0
  4  6  1  0  0  0  0
  4 31  1  0  0  0  0
  6  7  1  0  0  0  0
  7  9  1  6  0  0  0
  7 30  1  0  0  0  0
  8 26  1  0  0  0  0
 10  9  1  1  0  0  0
 10 13  1  0  0  0  0
 10 21  1  0  0  0  0
 13 12  1  1  0  0  0
 13 15  1  0  0  0  0
 15  2  1  6  0  0  0
 15 17  1  0  0  0  0
 16 25  1  0  0  0  0
 16 23  1  0  0  0  0
 17 19  1  0  0  0  0
 19  5  1  6  0  0  0
 19 21  1  0  0  0  0
 21 14  1  1  0  0  0
 23 14  1  1  0  0  0
 23 29  1  0  0  0  0
 25 26  1  1  0  0  0
 25 27  1  0  0  0  0
 27 18  1  1  0  0  0
 27 28  1  0  0  0  0
 28 20  1  1  0  0  0
 28 29  1  0  0  0  0
 29 11  1  6  0  0  0
 30 22  1  1  0  0  0
 30 31  1  0  0  0  0
 31 24  1  1  0  0  0
M  END
>  <CHROM.1>
87.18035949,70.96254388,52.11089186,53.02651129,-68.81393041,49.79327318
34.50901091,16.88672423,11.37715159,1.90687847,0.51293266,-0.89832598

>  <Name>
ligand

>  <RI>
0

>  <Rbt.Current_Directory>
/home/itssahil/PROJECTS/Mol_Feturizer/New_Systems/rnas/2ET5

>  <Rbt.Executable>
rbdock ($Id: //depot/dev/client3/rdock/2013.1/src/exe/rbdock.cxx#4 $)

>  <Rbt.Library>
libRbt.so (2013.1, Build901 2013/11/27)

>  <Rbt.Parameter_File>
/export/apps/rDock/src/rDock_2013.1_src/data/scripts/dock_solv.prm

>  <Rbt.Receptor>
prm/blind_docking_100.prm

>  <SCORE>
115.664

>  <SCORE.INTER>
87.5497

>  <SCORE.INTER.CONST>
1

>  <SCORE.INTER.POLAR>
0

>  <SCORE.INTER.ROT>
6

>  <SCORE.INTER.SOLV>
34.4442

>  <SCORE.INTER.VDW>
39.2851

>  <SCORE.INTER.norm>
2.82419

>  <SCORE.INTRA>
-0.628661

>  <SCORE.INTRA.DIHEDRAL>
-6.99617

>  <SCORE.INTRA.DIHEDRAL.0>
11.2357

>  <SCORE.INTRA.POLAR>
0

>  <SCORE.INTRA.POLAR.0>
0

>  <SCORE.INTRA.REPUL>
0

>  <SCORE.INTRA.REPUL.0>
0

>  <SCORE.INTRA.SOLV>
0.944431

>  <SCORE.INTRA.SOLV.lig_0>
-83.3092

>  <SCORE.INTRA.VDW>
2.39721

>  <SCORE.INTRA.VDW.0>
-4.47057

>  <SCORE.INTRA.norm>
-0.0202794

>  <SCORE.RESTR>
28.7432

>  <SCORE.RESTR.CAVITY>
28.7432

>  <SCORE.RESTR.norm>
0.927199

>  <SCORE.SYSTEM>
0

>  <SCORE.SYSTEM.CONST>
0

>  <SCORE.SYSTEM.DIHEDRAL>
0

>  <SCORE.SYSTEM.SOLV>
0

>  <SCORE.SYSTEM.norm>
0

>  <SCORE.heavy>
31

>  <SCORE.norm>
3.7311

>  <RMSD>
14.012

$$$$
ligand
 OpenBabel11021811433D
libRbt.so/2013.1/901 2013/11/27
 31 33  0  0  0  0  0  0  0  0999 V2000
   36.5370   14.2816    6.4040 C   0  0  0  0  0  0  0  0  0  0  0  0
   37.5569   12.8252   13.1434 N   0  0  0  0  0  0  0  0  0  0  0  0
   36.8840   13.8760    7.7362 O   0  0  0  0  0  0  0  0  0  0  0  0
   36.0401   15.7161    6.5626 C   0  0  1  0  0  0  0  0  0  0  0  0
   35.5826   17.2209   14.7272 N   0  0  0  0  0  0  0  0  0  0  0  0
   34.9486   15.9018    7.6010 O   0  0  0  0  0  0  0  0  0  0  0  0
   35.3827   16.5194    8.7509 C   0  0  1  0  0  0  0  0  0  0  0  0
   31.4332   16.3706   10.2042 N   0  0  0  0  0  0  0  0  0  0  0  0
   35.0503   15.9303    9.9771 O   0  0  0  0  0  0  0  0  0  0  0  0
   35.9828   15.8958   11.1540 C   0  0  2  0  0  0  0  0  0  0  0  0
   36.1111   20.6486   11.4614 N   0  0  0  0  0  0  0  0  0  0  0  0
   36.8993   13.7234   10.3588 O   0  0  0  0  0  0  0  0  0  0  0  0
   36.2691   14.4058   11.5055 C   0  0  1  0  0  0  0  0  0  0  0  0
   35.0998   17.9368   12.0951 O   0  0  0  0  0  0  0  0  0  0  0  0
   37.2555   14.3114   12.7746 C   0  0  1  0  0  0  0  0  0  0  0  0
   33.7698   18.0228   10.1230 O   0  0  0  0  0  0  0  0  0  0  0  0
   36.5495   15.0544   13.9911 C   0  0  0  0  0  0  0  0  0  0  0  0
   31.2075   20.4180   11.3754 O   0  0  0  0  0  0  0  0  0  0  0  0
   36.2539   16.5520   13.5639 C   0  0  1  0  0  0  0  0  0  0  0  0
   33.5325   22.0743   11.4479 O   0  0  0  0  0  0  0  0  0  0  0  0
   35.3091   16.6148   12.4063 C   0  0  2  0  0  0  0  0  0  0  0  0
   37.2712   17.8936    9.2355 O   0  0  0  0  0  0  0  0  0  0  0  0
   35.0198   18.5415   10.7788 C   0  0  1  0  0  0  0  0  0  0  0  0
   36.6751   18.1145    6.5415 O   0  0  0  0  0  0  0  0  0  0  0  0
   32.4593   18.4391   10.7772 C   0  0  2  0  0  0  0  0  0  0  0  0
   31.2882   17.8180   10.0246 C   0  0  0  0  0  0  0  0  0  0  0  0
   32.3920   19.9837   10.7634 C   0  0  2  0  0  0  0  0  0  0  0  0
   33.5900   20.5830   11.4809 C   0  0  1  0  0  0  0  0  0  0  0  0
   34.8738   20.0849   10.7916 C   0  0  1  0  0  0  0  0  0  0  0  0
   36.8695   16.7633    8.5498 C   0  0  2  0  0  0  0  0  0  0  0  0
   37.0514   16.7830    6.9980 C   0  0  1  0  0  0  0  0  0  0  0  0
  1  3  1  0  0  0  0
  4  1  1  1  0  0  0
  4  6  1  0  0  0  0
  4 31  1  0  0  0  0
  6  7  1  0  0  0  0
  7  9  1  1  0  0  0
  7 30  1  0  0  0  0
  8 26  1  0  0  0  0
 10  9  1  6  0  0  0
 10 13  1  0  0  0  0
 10 21  1  0  0  0  0
 13 12  1  6  0  0  0
 13 15  1  0  0  0  0
 15  2  1  1  0  0  0
 15 17  1  0  0  0  0
 16 25  1  0  0  0  0
 16 23  1  0  0  0  0
 17 19  1  0  0  0  0
 19  5  1  1  0  0  0
 19 21  1  0  0  0  0
 21 14  1  6  0  0  0
 23 14  1  1  0  0  0
 23 29  1  0  0  0  0
 25 26  1  6  0  0  0
 25 27  1  0  0  0  0
 27 18  1  1  0  0  0
 27 28  1  0  0  0  0
 28 20  1  6  0  0  0
 28 29  1  0  0  0  0
 29 11  1  1  0  0  0
 30 22  1  6  0  0  0
 30 31  1  0  0  0  0
 31 24  1  6  0  0  0
M  END
>  <CHROM.1>
-52.86688889,142.20724690,-118.98001856,67.38537008,20.70998302,64.37976995
35.19084277,17.08356386,10.39195050,0.25889657,0.96906751,-1.52571306

>  <Name>
ligand

>  <RI>
0

>  <Rbt.Current_Directory>
/home/itssahil/PROJECTS/Mol_Feturizer/New_Systems/rnas/2ET5

>  <Rbt.Executable>
rbdock ($Id: //depot/dev/client3/rdock/2013.1/src/exe/rbdock.cxx#4 $)

>  <Rbt.Library>
libRbt.so (2013.1, Build901 2013/11/27)

>  <Rbt.Parameter_File>
/export/apps/rDock/src/rDock_2013.1_src/data/scripts/dock_solv.prm

>  <Rbt.Receptor>
prm/blind_docking_100.prm

>  <SCORE>
97.9812

>  <SCORE.INTER>
66.3887

>  <SCORE.INTER.CONST>
1

>  <SCORE.INTER.POLAR>
0

>  <SCORE.INTER.ROT>
6

>  <SCORE.INTER.SOLV>
37.5928

>  <SCORE.INTER.VDW>
24.1282

>  <SCORE.INTER.norm>
2.14157

>  <SCORE.INTRA>
10.206

>  <SCORE.INTRA.DIHEDRAL>
6.77967

>  <SCORE.INTRA.DIHEDRAL.0>
11.2357

>  <SCORE.INTRA.POLAR>
0

>  <SCORE.INTRA.POLAR.0>
0

>  <SCORE.INTRA.REPUL>
0.609176

>  <SCORE.INTRA.REPUL.0>
0

>  <SCORE.INTRA.SOLV>
-1.11616

>  <SCORE.INTRA.SOLV.lig_0>
-83.3092

>  <SCORE.INTRA.VDW>
4.32836

>  <SCORE.INTRA.VDW.0>
-4.47057

>  <SCORE.INTRA.norm>
0.329226

>  <SCORE.RESTR>
21.3865

>  <SCORE.RESTR.CAVITY>
21.3865

>  <SCORE.RESTR.norm>
0.689888

>  <SCORE.SYSTEM>
0

>  <SCORE.SYSTEM.CONST>
0

>  <SCORE.SYSTEM.DIHEDRAL>
0

>  <SCORE.SYSTEM.SOLV>
0

>  <SCORE.SYSTEM.norm>
0

>  <SCORE.heavy>
31

>  <SCORE.norm>
3.16068

>  <RMSD>
14.094

$$$$
ligand
 OpenBabel11021811433D
libRbt.so/2013.1/901 2013/11/27
 31 33  0  0  0  0  0  0  0  0999 V2000
   37.6219   14.1158    6.6410 C   0  0  0  0  0  0  0  0  0  0  0  0
   36.3469   12.4097   13.3511 N   0  0  0  0  0  0  0  0  0  0  0  0
   37.7207   14.3331    5.2259 O   0  0  0  0  0  0  0  0  0  0  0  0
   36.2682   14.7100    7.0214 C   0  0  1  0  0  0  0  0  0  0  0  0
   33.0321   16.2482   13.2716 N   0  0  0  0  0  0  0  0  0  0  0  0
   36.0135   14.8122    8.5143 O   0  0  0  0  0  0  0  0  0  0  0  0
   36.0839   16.0982    8.9975 C   0  0  1  0  0  0  0  0  0  0  0  0
   31.0370   16.6845    9.4254 N   0  0  0  0  0  0  0  0  0  0  0  0
   36.8640   16.3283   10.1376 O   0  0  0  0  0  0  0  0  0  0  0  0
   36.4290   15.9478   11.5239 C   0  0  2  0  0  0  0  0  0  0  0  0
   35.9584   20.3694   11.4600 N   0  0  0  0  0  0  0  0  0  0  0  0
   38.0450   14.0557   11.5071 O   0  0  0  0  0  0  0  0  0  0  0  0
   36.6249   14.4119   11.6918 C   0  0  1  0  0  0  0  0  0  0  0  0
   34.7420   17.6727   11.6221 O   0  0  0  0  0  0  0  0  0  0  0  0
   36.1577   13.9471   13.1609 C   0  0  1  0  0  0  0  0  0  0  0  0
   33.5169   18.1573    9.6398 O   0  0  0  0  0  0  0  0  0  0  0  0
   34.6266   14.3442   13.3287 C   0  0  0  0  0  0  0  0  0  0  0  0
   31.0601   20.5102   11.1560 O   0  0  0  0  0  0  0  0  0  0  0  0
   34.4852   15.9085   13.1150 C   0  0  1  0  0  0  0  0  0  0  0  0
   33.4827   21.9629   11.5742 O   0  0  0  0  0  0  0  0  0  0  0  0
   34.8917   16.3113   11.7333 C   0  0  2  0  0  0  0  0  0  0  0  0
   35.9064   18.2330    7.9484 O   0  0  0  0  0  0  0  0  0  0  0  0
   34.7652   18.4770   10.4149 C   0  0  1  0  0  0  0  0  0  0  0  0
   34.5267   16.3752    6.4296 O   0  0  0  0  0  0  0  0  0  0  0  0
   32.2066   18.5616   10.3017 C   0  0  2  0  0  0  0  0  0  0  0  0
   31.0349   18.1502    9.4179 C   0  0  0  0  0  0  0  0  0  0  0  0
   32.2416   20.0907   10.5281 C   0  0  2  0  0  0  0  0  0  0  0  0
   33.4405   20.4841   11.3750 C   0  0  1  0  0  0  0  0  0  0  0  0
   34.7205   20.0065   10.6643 C   0  0  1  0  0  0  0  0  0  0  0  0
   36.4404   16.9670    7.8023 C   0  0  2  0  0  0  0  0  0  0  0  0
   35.9583   16.1410    6.5667 C   0  0  1  0  0  0  0  0  0  0  0  0
  1  3  1  0  0  0  0
  4  1  1  1  0  0  0
  4  6  1  0  0  0  0
  4 31  1  0  0  0  0
  6  7  1  0  0  0  0
  7  9  1  1  0  0  0
  7 30  1  0  0  0  0
  8 26  1  0  0  0  0
 10  9  1  6  0  0  0
 10 13  1  0  0  0  0
 10 21  1  0  0  0  0
 13 12  1  1  0  0  0
 13 15  1  0  0  0  0
 15  2  1  6  0  0  0
 15 17  1  0  0  0  0
 16 25  1  0  0  0  0
 16 23  1  0  0  0  0
 17 19  1  0  0  0  0
 19  5  1  6  0  0  0
 19 21  1  0  0  0  0
 21 14  1  1  0  0  0
 23 14  1  1  0  0  0
 23 29  1  0  0  0  0
 25 26  1  6  0  0  0
 25 27  1  0  0  0  0
 27 18  1  1  0  0  0
 27 28  1  0  0  0  0
 28 20  1  6  0  0  0
 28 29  1  0  0  0  0
 29 11  1  1  0  0  0
 30 22  1  1  0  0  0
 30 31  1  0  0  0  0
 31 24  1  1  0  0  0
M  END
>  <CHROM.1>
-170.48193698,-75.57078194,77.20823795,69.67461295,74.83024245,67.01162788
34.91933771,16.87791855,10.13717355,0.08580709,0.94276094,-1.26971686

>  <Name>
ligand

>  <RI>
0

>  <Rbt.Current_Directory>
/home/itssahil/PROJECTS/Mol_Feturizer/New_Systems/rnas/2ET5

>  <Rbt.Executable>
rbdock ($Id: //depot/dev/client3/rdock/2013.1/src/exe/rbdock.cxx#4 $)

>  <Rbt.Library>
libRbt.so (2013.1, Build901 2013/11/27)

>  <Rbt.Parameter_File>
/export/apps/rDock/src/rDock_2013.1_src/data/scripts/dock_solv.prm

>  <Rbt.Receptor>
prm/blind_docking_100.prm

>  <SCORE>
42.6033

>  <SCORE.INTER>
18.6857

>  <SCORE.INTER.CONST>
1

>  <SCORE.INTER.POLAR>
0

>  <SCORE.INTER.ROT>
6

>  <SCORE.INTER.SOLV>
30.6031

>  <SCORE.INTER.VDW>
-5.3439

>  <SCORE.INTER.norm>
0.602764

>  <SCORE.INTRA>
-3.70714

>  <SCORE.INTRA.DIHEDRAL>
-6.64975

>  <SCORE.INTRA.DIHEDRAL.0>
11.2357

>  <SCORE.INTRA.POLAR>
0

>  <SCORE.INTRA.POLAR.0>
0

>  <SCORE.INTRA.REPUL>
0

>  <SCORE.INTRA.REPUL.0>
0

>  <SCORE.INTRA.SOLV>
-2.87952

>  <SCORE.INTRA.SOLV.lig_0>
-83.3092

>  <SCORE.INTRA.VDW>
1.0575

>  <SCORE.INTRA.VDW.0>
-4.47057

>  <SCORE.INTRA.norm>
-0.119585

>  <SCORE.RESTR>
27.6247

>  <SCORE.RESTR.CAVITY>
27.6247

>  <SCORE.RESTR.norm>
0.89112

>  <SCORE.SYSTEM>
0

>  <SCORE.SYSTEM.CONST>
0

>  <SCORE.SYSTEM.DIHEDRAL>
0

>  <SCORE.SYSTEM.SOLV>
0

>  <SCORE.SYSTEM.norm>
0

>  <SCORE.heavy>
31

>  <SCORE.norm>
1.3743

>  <RMSD>
14.219

$$$$
ligand
 OpenBabel11021811433D
libRbt.so/2013.1/901 2013/11/27
 31 33  0  0  0  0  0  0  0  0999 V2000
   37.3477   13.7584    7.1240 C   0  0  0  0  0  0  0  0  0  0  0  0
   38.0869   12.8663   13.8046 N   0  0  0  0  0  0  0  0  0  0  0  0
   38.4825   14.2487    7.8530 O   0  0  0  0  0  0  0  0  0  0  0  0
   36.2125   14.7026    7.5110 C   0  0  1  0  0  0  0  0  0  0  0  0
   33.9090   15.7374   13.6299 N   0  0  0  0  0  0  0  0  0  0  0  0
   36.1486   15.0517    8.9868 O   0  0  0  0  0  0  0  0  0  0  0  0
   36.5598   16.3341    9.2670 C   0  0  1  0  0  0  0  0  0  0  0  0
   31.1348   17.7995    8.8610 N   0  0  0  0  0  0  0  0  0  0  0  0
   37.4890   16.5139   10.2992 O   0  0  0  0  0  0  0  0  0  0  0  0
   37.2110   16.1516   11.7301 C   0  0  2  0  0  0  0  0  0  0  0  0
   36.1169   20.1291   11.1558 N   0  0  0  0  0  0  0  0  0  0  0  0
   39.2511   14.7273   11.7614 O   0  0  0  0  0  0  0  0  0  0  0  0
   37.7941   14.7321   11.9955 C   0  0  1  0  0  0  0  0  0  0  0  0
   35.1472   17.4035   11.7954 O   0  0  0  0  0  0  0  0  0  0  0  0
   37.5091   14.2871   13.5165 C   0  0  1  0  0  0  0  0  0  0  0  0
   33.5552   17.6080   10.0379 O   0  0  0  0  0  0  0  0  0  0  0  0
   35.9338   14.3023   13.7368 C   0  0  0  0  0  0  0  0  0  0  0  0
   31.2461   19.9735   11.7535 O   0  0  0  0  0  0  0  0  0  0  0  0
   35.3947   15.7591   13.4209 C   0  0  1  0  0  0  0  0  0  0  0  0
   33.5930   21.5905   11.5757 O   0  0  0  0  0  0  0  0  0  0  0  0
   35.6397   16.1362   11.9945 C   0  0  2  0  0  0  0  0  0  0  0  0
   36.7595   18.2982    7.9283 O   0  0  0  0  0  0  0  0  0  0  0  0
   34.8958   18.0749   10.5342 C   0  0  1  0  0  0  0  0  0  0  0  0
   34.8405   16.6470    6.8089 O   0  0  0  0  0  0  0  0  0  0  0  0
   32.3589   18.0095   10.8900 C   0  0  2  0  0  0  0  0  0  0  0  0
   31.0807   17.4441   10.2819 C   0  0  0  0  0  0  0  0  0  0  0  0
   32.3233   19.5537   10.9600 C   0  0  2  0  0  0  0  0  0  0  0  0
   33.6228   20.0987   11.5287 C   0  0  1  0  0  0  0  0  0  0  0  0
   34.7860   19.6177   10.6415 C   0  0  1  0  0  0  0  0  0  0  0  0
   36.9740   16.9332    7.9328 C   0  0  2  0  0  0  0  0  0  0  0  0
   36.1880   16.0964    6.8729 C   0  0  1  0  0  0  0  0  0  0  0  0
  1  3  1  0  0  0  0
  4  1  1  1  0  0  0
  4  6  1  0  0  0  0
  4 31  1  0  0  0  0
  6  7  1  0  0  0  0
  7  9  1  1  0  0  0
  7 30  1  0  0  0  0
  8 26  1  0  0  0  0
 10  9  1  6  0  0  0
 10 13  1  0  0  0  0
 10 21  1  0  0  0  0
 13 12  1  1  0  0  0
 13 15  1  0  0  0  0
 15  2  1  6  0  0  0
 15 17  1  0  0  0  0
 16 25  1  0  0  0  0
 16 23  1  0  0  0  0
 17 19  1  0  0  0  0
 19  5  1  6  0  0  0
 19 21  1  0  0  0  0
 21 14  1  1  0  0  0
 23 14  1  1  0  0  0
 23 29  1  0  0  0  0
 25 26  1  6  0  0  0
 25 27  1  0  0  0  0
 27 18  1  1  0  0  0
 27 28  1  0  0  0  0
 28 20  1  6  0  0  0
 28 29  1  0  0  0  0
 29 11  1  1  0  0  0
 30 22  1  1  0  0  0
 30 31  1  0  0  0  0
 31 24  1  1  0  0  0
M  END
>  <CHROM.1>
-42.96521543,-62.35090723,96.17434801,82.20637832,76.45429787,-48.82564835
35.41321077,16.80847525,10.48982711,-0.00506479,0.76864269,-1.46917736

>  <Name>
ligand

>  <RI>
0

>  <Rbt.Current_Directory>
/home/itssahil/PROJECTS/Mol_Feturizer/New_Systems/rnas/2ET5

>  <Rbt.Executable>
rbdock ($Id: //depot/dev/client3/rdock/2013.1/src/exe/rbdock.cxx#4 $)

>  <Rbt.Library>
libRbt.so (2013.1, Build901 2013/11/27)

>  <Rbt.Parameter_File>
/export/apps/rDock/src/rDock_2013.1_src/data/scripts/dock_solv.prm

>  <Rbt.Receptor>
prm/blind_docking_100.prm

>  <SCORE>
85.7526

>  <SCORE.INTER>
59.0993

>  <SCORE.INTER.CONST>
1

>  <SCORE.INTER.POLAR>
0

>  <SCORE.INTER.ROT>
6

>  <SCORE.INTER.SOLV>
32.5753

>  <SCORE.INTER.VDW>
20.9411

>  <SCORE.INTER.norm>
1.90643

>  <SCORE.INTRA>
1.46834

>  <SCORE.INTRA.DIHEDRAL>
-1.49642

>  <SCORE.INTRA.DIHEDRAL.0>
11.2357

>  <SCORE.INTRA.POLAR>
0

>  <SCORE.INTRA.POLAR.0>
0

>  <SCORE.INTRA.REPUL>
0

>  <SCORE.INTRA.REPUL.0>
0

>  <SCORE.INTRA.SOLV>
-0.0588458

>  <SCORE.INTRA.SOLV.lig_0>
-83.3092

>  <SCORE.INTRA.VDW>
2.24597

>  <SCORE.INTRA.VDW.0>
-4.47057

>  <SCORE.INTRA.norm>
0.0473658

>  <SCORE.RESTR>
25.185

>  <SCORE.RESTR.CAVITY>
25.185

>  <SCORE.RESTR.norm>
0.812418

>  <SCORE.SYSTEM>
0

>  <SCORE.SYSTEM.CONST>
0

>  <SCORE.SYSTEM.DIHEDRAL>
0

>  <SCORE.SYSTEM.SOLV>
0

>  <SCORE.SYSTEM.norm>
0

>  <SCORE.heavy>
31

>  <SCORE.norm>
2.76621

>  <RMSD>
14.234

$$$$
ligand
 OpenBabel11021811433D
libRbt.so/2013.1/901 2013/11/27
 31 33  0  0  0  0  0  0  0  0999 V2000
   37.1605   13.7580    6.7871 C   0  0  0  0  0  0  0  0  0  0  0  0
   36.3807   12.3955   13.3256 N   0  0  0  0  0  0  0  0  0  0  0  0
   38.1908   14.2470    7.6584 O   0  0  0  0  0  0  0  0  0  0  0  0
   35.9439   14.6176    7.1202 C   0  0  1  0  0  0  0  0  0  0  0  0
   33.0676   16.2362   13.2902 N   0  0  0  0  0  0  0  0  0  0  0  0
   35.7292   14.8723    8.6011 O   0  0  0  0  0  0  0  0  0  0  0  0
   36.0407   16.1545    8.9895 C   0  0  1  0  0  0  0  0  0  0  0  0
   31.0129   16.6683    9.4861 N   0  0  0  0  0  0  0  0  0  0  0  0
   36.8627   16.3183   10.1116 O   0  0  0  0  0  0  0  0  0  0  0  0
   36.4436   15.9361   11.5023 C   0  0  2  0  0  0  0  0  0  0  0  0
   35.9671   20.3623   11.4596 N   0  0  0  0  0  0  0  0  0  0  0  0
   38.0581   14.0430   11.4640 O   0  0  0  0  0  0  0  0  0  0  0  0
   36.6405   14.3999   11.6658 C   0  0  1  0  0  0  0  0  0  0  0  0
   34.7590   17.6619   11.6226 O   0  0  0  0  0  0  0  0  0  0  0  0
   36.1903   13.9333   13.1397 C   0  0  1  0  0  0  0  0  0  0  0  0
   33.5229   18.1466    9.6472 O   0  0  0  0  0  0  0  0  0  0  0  0
   34.6615   14.3312   13.3260 C   0  0  0  0  0  0  0  0  0  0  0  0
   31.0669   20.4898   11.1798 O   0  0  0  0  0  0  0  0  0  0  0  0
   34.5186   15.8958   13.1161 C   0  0  1  0  0  0  0  0  0  0  0  0
   33.4874   21.9487   11.5888 O   0  0  0  0  0  0  0  0  0  0  0  0
   34.9092   16.3003   11.7303 C   0  0  2  0  0  0  0  0  0  0  0  0
   36.2477   18.2042    7.7873 O   0  0  0  0  0  0  0  0  0  0  0  0
   34.7741   18.4685   10.4168 C   0  0  1  0  0  0  0  0  0  0  0  0
   34.5323   16.5285    6.4048 O   0  0  0  0  0  0  0  0  0  0  0  0
   32.2147   18.5461   10.3164 C   0  0  2  0  0  0  0  0  0  0  0  0
   31.0398   18.1329    9.4375 C   0  0  0  0  0  0  0  0  0  0  0  0
   32.2465   20.0749   10.5453 C   0  0  2  0  0  0  0  0  0  0  0  0
   33.4484   20.4701   11.3870 C   0  0  1  0  0  0  0  0  0  0  0  0
   34.7263   19.9974   10.6693 C   0  0  1  0  0  0  0  0  0  0  0  0
   36.5376   16.8543    7.7350 C   0  0  2  0  0  0  0  0  0  0  0  0
   35.8977   16.0447    6.5618 C   0  0  1  0  0  0  0  0  0  0  0  0
  1  3  1  0  0  0  0
  4  1  1  1  0  0  0
  4  6  1  0  0  0  0
  4 31  1  0  0  0  0
  6  7  1  0  0  0  0
  7  9  1  1  0  0  0
  7 30  1  0  0  0  0
  8 26  1  0  0  0  0
 10  9  1  6  0  0  0
 10 13  1  0  0  0  0
 10 21  1  0  0  0  0
 13 12  1  1  0  0  0
 13 15  1  0  0  0  0
 15  2  1  6  0  0  0
 15 17  1  0  0  0  0
 16 25  1  0  0  0  0
 16 23  1  0  0  0  0
 17 19  1  0  0  0  0
 19  5  1  6  0  0  0
 19 21  1  0  0  0  0
 21 14  1  1  0  0  0
 23 14  1  1  0  0  0
 23 29  1  0  0  0  0
 25 26  1  6  0  0  0
 25 27  1  0  0  0  0
 27 18  1  1  0  0  0
 27 28  1  0  0  0  0
 28 20  1  6  0  0  0
 28 29  1  0  0  0  0
 29 11  1  1  0  0  0
 30 22  1  1  0  0  0
 30 31  1  0  0  0  0
 31 24  1  1  0  0  0
M  END
>  <CHROM.1>
-42.12788977,-66.42287631,80.68093816,69.46328255,74.55448334,69.23730349
34.92328365,16.85378391,10.22797609,-0.05534391,0.93711585,-1.26110068

>  <Name>
ligand

>  <RI>
0

>  <Rbt.Current_Directory>
/home/itssahil/PROJECTS/Mol_Feturizer/New_Systems/rnas/2ET5

>  <Rbt.Executable>
rbdock ($Id: //depot/dev/client3/rdock/2013.1/src/exe/rbdock.cxx#4 $)

>  <Rbt.Library>
libRbt.so (2013.1, Build901 2013/11/27)

>  <Rbt.Parameter_File>
/export/apps/rDock/src/rDock_2013.1_src/data/scripts/dock_solv.prm

>  <Rbt.Receptor>
prm/blind_docking_100.prm

>  <SCORE>
41.3878

>  <SCORE.INTER>
17.9278

>  <SCORE.INTER.CONST>
1

>  <SCORE.INTER.POLAR>
0

>  <SCORE.INTER.ROT>
6

>  <SCORE.INTER.SOLV>
30.6145

>  <SCORE.INTER.VDW>
-5.85295

>  <SCORE.INTER.norm>
0.578317

>  <SCORE.INTRA>
-3.96875

>  <SCORE.INTRA.DIHEDRAL>
-6.1826

>  <SCORE.INTRA.DIHEDRAL.0>
11.2357

>  <SCORE.INTRA.POLAR>
0

>  <SCORE.INTRA.POLAR.0>
0

>  <SCORE.INTRA.REPUL>
0

>  <SCORE.INTRA.REPUL.0>
0

>  <SCORE.INTRA.SOLV>
-2.52008

>  <SCORE.INTRA.SOLV.lig_0>
-83.3092

>  <SCORE.INTRA.VDW>
0.382586

>  <SCORE.INTRA.VDW.0>
-4.47057

>  <SCORE.INTRA.norm>
-0.128024

>  <SCORE.RESTR>
27.4287

>  <SCORE.RESTR.CAVITY>
27.4287

>  <SCORE.RESTR.norm>
0.884797

>  <SCORE.SYSTEM>
0

>  <SCORE.SYSTEM.CONST>
0

>  <SCORE.SYSTEM.DIHEDRAL>
0

>  <SCORE.SYSTEM.SOLV>
0

>  <SCORE.SYSTEM.norm>
0

>  <SCORE.heavy>
31

>  <SCORE.norm>
1.33509

>  <RMSD>
14.236

$$$$
ligand
 OpenBabel11021811433D
libRbt.so/2013.1/901 2013/11/27
 31 33  0  0  0  0  0  0  0  0999 V2000
   36.9021   13.6963    6.8560 C   0  0  0  0  0  0  0  0  0  0  0  0
   36.5922   12.4676   13.4011 N   0  0  0  0  0  0  0  0  0  0  0  0
   38.0323   14.2472    7.5479 O   0  0  0  0  0  0  0  0  0  0  0  0
   35.7528   14.6415    7.1961 C   0  0  1  0  0  0  0  0  0  0  0  0
   33.1069   16.1523   13.3420 N   0  0  0  0  0  0  0  0  0  0  0  0
   35.5943   14.9466    8.6745 O   0  0  0  0  0  0  0  0  0  0  0  0
   35.9981   16.2151    9.0208 C   0  0  1  0  0  0  0  0  0  0  0  0
   31.0926   16.6723    9.3068 N   0  0  0  0  0  0  0  0  0  0  0  0
   36.8583   16.3529   10.1173 O   0  0  0  0  0  0  0  0  0  0  0  0
   36.4728   15.9758   11.5191 C   0  0  2  0  0  0  0  0  0  0  0  0
   35.9595   20.3071   11.4603 N   0  0  0  0  0  0  0  0  0  0  0  0
   38.1716   14.1578   11.4927 O   0  0  0  0  0  0  0  0  0  0  0  0
   36.7415   14.4531   11.7055 C   0  0  1  0  0  0  0  0  0  0  0  0
   34.7125   17.6249   11.6310 O   0  0  0  0  0  0  0  0  0  0  0  0
   36.3296   13.9917   13.1922 C   0  0  1  0  0  0  0  0  0  0  0  0
   33.5004   18.1131    9.6416 O   0  0  0  0  0  0  0  0  0  0  0  0
   34.7864   14.3227   13.3902 C   0  0  0  0  0  0  0  0  0  0  0  0
   31.0642   20.5007   11.1367 O   0  0  0  0  0  0  0  0  0  0  0  0
   34.5698   15.8754   13.1562 C   0  0  1  0  0  0  0  0  0  0  0  0
   33.5012   21.9286   11.5570 O   0  0  0  0  0  0  0  0  0  0  0  0
   34.9260   16.2735   11.7593 C   0  0  2  0  0  0  0  0  0  0  0  0
   36.3051   18.2163    7.7596 O   0  0  0  0  0  0  0  0  0  0  0  0
   34.7493   18.4229   10.4200 C   0  0  1  0  0  0  0  0  0  0  0  0
   34.4491   16.6220    6.4652 O   0  0  0  0  0  0  0  0  0  0  0  0
   32.1922   18.5353   10.2966 C   0  0  2  0  0  0  0  0  0  0  0  0
   31.0193   18.1325    9.4103 C   0  0  0  0  0  0  0  0  0  0  0  0
   32.2434   20.0651   10.5154 C   0  0  2  0  0  0  0  0  0  0  0  0
   33.4433   20.4493   11.3649 C   0  0  1  0  0  0  0  0  0  0  0  0
   34.7206   19.9540   10.6616 C   0  0  1  0  0  0  0  0  0  0  0  0
   36.5058   16.8494    7.7361 C   0  0  2  0  0  0  0  0  0  0  0  0
   35.7840   16.0542    6.6011 C   0  0  1  0  0  0  0  0  0  0  0  0
  1  3  1  0  0  0  0
  4  1  1  1  0  0  0
  4  6  1  0  0  0  0
  4 31  1  0  0  0  0
  6  7  1  0  0  0  0
  7  9  1  1  0  0  0
  7 30  1  0  0  0  0
  8 26  1  0  0  0  0
 10  9  1  6  0  0  0
 10 13  1  0  0  0  0
 10 21  1  0  0  0  0
 13 12  1  1  0  0  0
 13 15  1  0  0  0  0
 15  2  1  6  0  0  0
 15 17  1  0  0  0  0
 16 25  1  0  0  0  0
 16 23  1  0  0  0  0
 17 19  1  0  0  0  0
 19  5  1  6  0  0  0
 19 21  1  0  0  0  0
 21 14  1  1  0  0  0
 23 14  1  1  0  0  0
 23 29  1  0  0  0  0
 25 26  1  6  0  0  0
 25 27  1  0  0  0  0
 27 18  1  1  0  0  0
 27 28  1  0  0  0  0
 28 20  1  6  0  0  0
 28 29  1  0  0  0  0
 29 11  1  1  0  0  0
 30 22  1  1  0  0  0
 30 31  1  0  0  0  0
 31 24  1  1  0  0  0
M  END
>  <CHROM.1>
-49.69923772,-63.59039970,85.08380159,73.93862625,70.87067897,61.03861645
34.91587028,16.86046920,10.23556265,-0.02668505,0.93457254,-1.34560149

>  <Name>
ligand

>  <RI>
0

>  <Rbt.Current_Directory>
/home/itssahil/PROJECTS/Mol_Feturizer/New_Systems/rnas/2ET5

>  <Rbt.Executable>
rbdock ($Id: //depot/dev/client3/rdock/2013.1/src/exe/rbdock.cxx#4 $)

>  <Rbt.Library>
libRbt.so (2013.1, Build901 2013/11/27)

>  <Rbt.Parameter_File>
/export/apps/rDock/src/rDock_2013.1_src/data/scripts/dock_solv.prm

>  <Rbt.Receptor>
prm/blind_docking_100.prm

>  <SCORE>
42.5597

>  <SCORE.INTER>
19.0585

>  <SCORE.INTER.CONST>
1

>  <SCORE.INTER.POLAR>
0

>  <SCORE.INTER.ROT>
6

>  <SCORE.INTER.SOLV>
30.6307

>  <SCORE.INTER.VDW>
-5.10457

>  <SCORE.INTER.norm>
0.61479

>  <SCORE.INTRA>
-3.72465

>  <SCORE.INTRA.DIHEDRAL>
-6.49363

>  <SCORE.INTRA.DIHEDRAL.0>
11.2357

>  <SCORE.INTRA.POLAR>
0

>  <SCORE.INTRA.POLAR.0>
0

>  <SCORE.INTRA.REPUL>
0

>  <SCORE.INTRA.REPUL.0>
0

>  <SCORE.INTRA.SOLV>
-2.58846

>  <SCORE.INTRA.SOLV.lig_0>
-83.3092

>  <SCORE.INTRA.VDW>
0.81639

>  <SCORE.INTRA.VDW.0>
-4.47057

>  <SCORE.INTRA.norm>
-0.12015

>  <SCORE.RESTR>
27.2259

>  <SCORE.RESTR.CAVITY>
27.2259

>  <SCORE.RESTR.norm>
0.878254

>  <SCORE.SYSTEM>
0

>  <SCORE.SYSTEM.CONST>
0

>  <SCORE.SYSTEM.DIHEDRAL>
0

>  <SCORE.SYSTEM.SOLV>
0

>  <SCORE.SYSTEM.norm>
0

>  <SCORE.heavy>
31

>  <SCORE.norm>
1.37289

>  <RMSD>
14.238

$$$$
ligand
 OpenBabel11021811433D
libRbt.so/2013.1/901 2013/11/27
 31 33  0  0  0  0  0  0  0  0999 V2000
   38.1207   14.0933    7.8280 C   0  0  0  0  0  0  0  0  0  0  0  0
   36.4389   12.6304   13.2680 N   0  0  0  0  0  0  0  0  0  0  0  0
   38.5483   14.3582    9.1721 O   0  0  0  0  0  0  0  0  0  0  0  0
   36.7539   14.7652    7.7264 C   0  0  1  0  0  0  0  0  0  0  0  0
   32.6808   16.0347   13.3969 N   0  0  0  0  0  0  0  0  0  0  0  0
   36.1320   15.1498    9.0566 O   0  0  0  0  0  0  0  0  0  0  0  0
   36.1549   16.5028    9.3037 C   0  0  1  0  0  0  0  0  0  0  0  0
   33.6408   15.5026    8.3056 N   0  0  0  0  0  0  0  0  0  0  0  0
   36.6295   16.9339   10.5489 O   0  0  0  0  0  0  0  0  0  0  0  0
   36.1743   16.3441   11.8530 C   0  0  2  0  0  0  0  0  0  0  0  0
   33.4490   20.6684   12.2632 N   0  0  0  0  0  0  0  0  0  0  0  0
   38.0118   14.6706   11.7328 O   0  0  0  0  0  0  0  0  0  0  0  0
   36.5508   14.8329   11.8623 C   0  0  1  0  0  0  0  0  0  0  0  0
   34.2830   17.8349   12.0308 O   0  0  0  0  0  0  0  0  0  0  0  0
   36.0699   14.1465   13.2372 C   0  0  1  0  0  0  0  0  0  0  0  0
   34.2646   18.0723    9.6626 O   0  0  0  0  0  0  0  0  0  0  0  0
   34.4947   14.3382   13.3473 C   0  0  0  0  0  0  0  0  0  0  0  0
   30.5678   18.1190    9.2127 O   0  0  0  0  0  0  0  0  0  0  0  0
   34.1710   15.8892   13.2992 C   0  0  1  0  0  0  0  0  0  0  0  0
   30.9240   20.4961   10.7543 O   0  0  0  0  0  0  0  0  0  0  0  0
   34.5950   16.4970   12.0002 C   0  0  2  0  0  0  0  0  0  0  0  0
   36.3832   18.4039    7.8813 O   0  0  0  0  0  0  0  0  0  0  0  0
   34.4237   18.8083   10.9643 C   0  0  1  0  0  0  0  0  0  0  0  0
   35.3275   16.3105    6.4099 O   0  0  0  0  0  0  0  0  0  0  0  0
   32.8885   17.4727    9.4067 C   0  0  2  0  0  0  0  0  0  0  0  0
   32.8874   16.7378    8.0712 C   0  0  0  0  0  0  0  0  0  0  0  0
   31.8581   18.6253    9.4249 C   0  0  2  0  0  0  0  0  0  0  0  0
   31.9056   19.3714   10.7479 C   0  0  1  0  0  0  0  0  0  0  0  0
   33.3331   19.9102   10.9559 C   0  0  1  0  0  0  0  0  0  0  0  0
   36.8582   17.1265    8.1092 C   0  0  2  0  0  0  0  0  0  0  0  0
   36.6590   16.0887    6.9584 C   0  0  1  0  0  0  0  0  0  0  0  0
  1  3  1  0  0  0  0
  4  1  1  1  0  0  0
  4  6  1  0  0  0  0
  4 31  1  0  0  0  0
  6  7  1  0  0  0  0
  7  9  1  1  0  0  0
  7 30  1  0  0  0  0
  8 26  1  0  0  0  0
 10  9  1  6  0  0  0
 10 13  1  0  0  0  0
 10 21  1  0  0  0  0
 13 12  1  1  0  0  0
 13 15  1  0  0  0  0
 15  2  1  6  0  0  0
 15 17  1  0  0  0  0
 16 25  1  0  0  0  0
 16 23  1  0  0  0  0
 17 19  1  0  0  0  0
 19  5  1  6  0  0  0
 19 21  1  0  0  0  0
 21 14  1  1  0  0  0
 23 14  1  1  0  0  0
 23 29  1  0  0  0  0
 25 26  1  6  0  0  0
 25 27  1  0  0  0  0
 27 18  1  1  0  0  0
 27 28  1  0  0  0  0
 28 20  1  6  0  0  0
 28 29  1  0  0  0  0
 29 11  1  1  0  0  0
 30 22  1  6  0  0  0
 30 31  1  0  0  0  0
 31 24  1  1  0  0  0
M  END
>  <CHROM.1>
-14.91074073,-48.25939716,61.16879591,29.57334620,66.59117515,74.05059657
34.88697156,16.67846610,10.25046884,-0.10552993,0.72881186,-1.26853865

>  <Name>
ligand

>  <RI>
0

>  <Rbt.Current_Directory>
/home/itssahil/PROJECTS/Mol_Feturizer/New_Systems/rnas/2ET5

>  <Rbt.Executable>
rbdock ($Id: //depot/dev/client3/rdock/2013.1/src/exe/rbdock.cxx#4 $)

>  <Rbt.Library>
libRbt.so (2013.1, Build901 2013/11/27)

>  <Rbt.Parameter_File>
/export/apps/rDock/src/rDock_2013.1_src/data/scripts/dock_solv.prm

>  <Rbt.Receptor>
prm/blind_docking_100.prm

>  <SCORE>
56.4578

>  <SCORE.INTER>
24.4877

>  <SCORE.INTER.CONST>
1

>  <SCORE.INTER.POLAR>
0

>  <SCORE.INTER.ROT>
6

>  <SCORE.INTER.SOLV>
29.0174

>  <SCORE.INTER.VDW>
-0.947361

>  <SCORE.INTER.norm>
0.789925

>  <SCORE.INTRA>
3.78884

>  <SCORE.INTRA.DIHEDRAL>
-1.38642

>  <SCORE.INTRA.DIHEDRAL.0>
11.2357

>  <SCORE.INTRA.POLAR>
0

>  <SCORE.INTRA.POLAR.0>
0

>  <SCORE.INTRA.REPUL>
0

>  <SCORE.INTRA.REPUL.0>
0

>  <SCORE.INTRA.SOLV>
4.60114

>  <SCORE.INTRA.SOLV.lig_0>
-83.3092

>  <SCORE.INTRA.VDW>
2.18148

>  <SCORE.INTRA.VDW.0>
-4.47057

>  <SCORE.INTRA.norm>
0.122221

>  <SCORE.RESTR>
28.1813

>  <SCORE.RESTR.CAVITY>
28.1813

>  <SCORE.RESTR.norm>
0.909073

>  <SCORE.SYSTEM>
0

>  <SCORE.SYSTEM.CONST>
0

>  <SCORE.SYSTEM.DIHEDRAL>
0

>  <SCORE.SYSTEM.SOLV>
0

>  <SCORE.SYSTEM.norm>
0

>  <SCORE.heavy>
31

>  <SCORE.norm>
1.82122

>  <RMSD>
14.254

$$$$
ligand
 OpenBabel11021811433D
libRbt.so/2013.1/901 2013/11/27
 31 33  0  0  0  0  0  0  0  0999 V2000
   37.5479   14.0657    6.6694 C   0  0  0  0  0  0  0  0  0  0  0  0
   36.2948   12.4271   13.3621 N   0  0  0  0  0  0  0  0  0  0  0  0
   37.6163   12.9001    7.5038 O   0  0  0  0  0  0  0  0  0  0  0  0
   36.2172   14.7168    7.0373 C   0  0  1  0  0  0  0  0  0  0  0  0
   33.0065   16.2876   13.2512 N   0  0  0  0  0  0  0  0  0  0  0  0
   35.9588   14.8413    8.5279 O   0  0  0  0  0  0  0  0  0  0  0  0
   36.0781   16.1273    9.0013 C   0  0  1  0  0  0  0  0  0  0  0  0
   30.9620   16.6951    9.5130 N   0  0  0  0  0  0  0  0  0  0  0  0
   36.8607   16.3352   10.1439 O   0  0  0  0  0  0  0  0  0  0  0  0
   36.4135   15.9606   11.5280 C   0  0  2  0  0  0  0  0  0  0  0  0
   35.9461   20.3965   11.4375 N   0  0  0  0  0  0  0  0  0  0  0  0
   38.0167   14.0577   11.5265 O   0  0  0  0  0  0  0  0  0  0  0  0
   36.5978   14.4238   11.7005 C   0  0  1  0  0  0  0  0  0  0  0  0
   34.7374   17.6970   11.6107 O   0  0  0  0  0  0  0  0  0  0  0  0
   36.1173   13.9653   13.1673 C   0  0  1  0  0  0  0  0  0  0  0  0
   33.5101   18.1704    9.6270 O   0  0  0  0  0  0  0  0  0  0  0  0
   34.5877   14.3731   13.3235 C   0  0  0  0  0  0  0  0  0  0  0  0
   31.0473   20.5222   11.1352 O   0  0  0  0  0  0  0  0  0  0  0  0
   34.4583   15.9378   13.1055 C   0  0  1  0  0  0  0  0  0  0  0  0
   33.4659   21.9834   11.5467 O   0  0  0  0  0  0  0  0  0  0  0  0
   34.8773   16.3349   11.7259 C   0  0  2  0  0  0  0  0  0  0  0  0
   35.9921   18.2589    7.9343 O   0  0  0  0  0  0  0  0  0  0  0  0
   34.7579   18.4967   10.4004 C   0  0  1  0  0  0  0  0  0  0  0  0
   34.5471   16.4456    6.4224 O   0  0  0  0  0  0  0  0  0  0  0  0
   32.1990   18.5736   10.2880 C   0  0  2  0  0  0  0  0  0  0  0  0
   31.0280   18.1554    9.4063 C   0  0  0  0  0  0  0  0  0  0  0  0
   32.2297   20.1037   10.5084 C   0  0  2  0  0  0  0  0  0  0  0  0
   33.4279   20.5037   11.3532 C   0  0  1  0  0  0  0  0  0  0  0  0
   34.7089   20.0271   10.6438 C   0  0  1  0  0  0  0  0  0  0  0  0
   36.4757   16.9713    7.8013 C   0  0  2  0  0  0  0  0  0  0  0  0
   35.9674   16.1553    6.5695 C   0  0  1  0  0  0  0  0  0  0  0  0
  1  3  1  0  0  0  0
  4  1  1  1  0  0  0
  4  6  1  0  0  0  0
  4 31  1  0  0  0  0
  6  7  1  0  0  0  0
  7  9  1  1  0  0  0
  7 30  1  0  0  0  0
  8 26  1  0  0  0  0
 10  9  1  6  0  0  0
 10 13  1  0  0  0  0
 10 21  1  0  0  0  0
 13 12  1  1  0  0  0
 13 15  1  0  0  0  0
 15  2  1  6  0  0  0
 15 17  1  0  0  0  0
 16 25  1  0  0  0  0
 16 23  1  0  0  0  0
 17 19  1  0  0  0  0
 19  5  1  6  0  0  0
 19 21  1  0  0  0  0
 21 14  1  1  0  0  0
 23 14  1  1  0  0  0
 23 29  1  0  0  0  0
 25 26  1  6  0  0  0
 25 27  1  0  0  0  0
 27 18  1  1  0  0  0
 27 28  1  0  0  0  0
 28 20  1  6  0  0  0
 28 29  1  0  0  0  0
 29 11  1  1  0  0  0
 30 22  1  1  0  0  0
 30 31  1  0  0  0  0
 31 24  1  1  0  0  0
M  END
>  <CHROM.1>
46.93395562,-74.41313562,78.26062454,68.93259777,75.67495569,71.80990485
34.90016494,16.84273084,10.21813005,-0.04255820,0.95766626,-1.26745462

>  <Name>
ligand

>  <RI>
0

>  <Rbt.Current_Directory>
/home/itssahil/PROJECTS/Mol_Feturizer/New_Systems/rnas/2ET5

>  <Rbt.Executable>
rbdock ($Id: //depot/dev/client3/rdock/2013.1/src/exe/rbdock.cxx#4 $)

>  <Rbt.Library>
libRbt.so (2013.1, Build901 2013/11/27)

>  <Rbt.Parameter_File>
/export/apps/rDock/src/rDock_2013.1_src/data/scripts/dock_solv.prm

>  <Rbt.Receptor>
prm/blind_docking_100.prm

>  <SCORE>
43.638

>  <SCORE.INTER>
19.4701

>  <SCORE.INTER.CONST>
1

>  <SCORE.INTER.POLAR>
0

>  <SCORE.INTER.ROT>
6

>  <SCORE.INTER.SOLV>
30.802

>  <SCORE.INTER.VDW>
-4.88728

>  <SCORE.INTER.norm>
0.628067

>  <SCORE.INTRA>
-3.71293

>  <SCORE.INTRA.DIHEDRAL>
-6.01125

>  <SCORE.INTRA.DIHEDRAL.0>
11.2357

>  <SCORE.INTRA.POLAR>
0

>  <SCORE.INTRA.POLAR.0>
0

>  <SCORE.INTRA.REPUL>
0

>  <SCORE.INTRA.REPUL.0>
0

>  <SCORE.INTRA.SOLV>
-2.81523

>  <SCORE.INTRA.SOLV.lig_0>
-83.3092

>  <SCORE.INTRA.VDW>
0.700309

>  <SCORE.INTRA.VDW.0>
-4.47057

>  <SCORE.INTRA.norm>
-0.119772

>  <SCORE.RESTR>
27.8808

>  <SCORE.RESTR.CAVITY>
27.8808

>  <SCORE.RESTR.norm>
0.899382

>  <SCORE.SYSTEM>
0

>  <SCORE.SYSTEM.CONST>
0

>  <SCORE.SYSTEM.DIHEDRAL>
0

>  <SCORE.SYSTEM.SOLV>
0

>  <SCORE.SYSTEM.norm>
0

>  <SCORE.heavy>
31

>  <SCORE.norm>
1.40768

>  <RMSD>
14.258

$$$$
ligand
 OpenBabel11021811433D
libRbt.so/2013.1/901 2013/11/27
 31 33  0  0  0  0  0  0  0  0999 V2000
   38.3756   14.2452    7.4128 C   0  0  0  0  0  0  0  0  0  0  0  0
   36.7336   12.7801   14.0225 N   0  0  0  0  0  0  0  0  0  0  0  0
   39.2504   15.2755    7.8952 O   0  0  0  0  0  0  0  0  0  0  0  0
   36.9756   14.8321    7.5724 C   0  0  1  0  0  0  0  0  0  0  0  0
   32.8834   15.9700   13.1689 N   0  0  0  0  0  0  0  0  0  0  0  0
   36.5121   14.9941    9.0087 O   0  0  0  0  0  0  0  0  0  0  0  0
   36.4998   16.3007    9.4386 C   0  0  1  0  0  0  0  0  0  0  0  0
   30.9268   16.6510    9.4127 N   0  0  0  0  0  0  0  0  0  0  0  0
   37.1091   16.5930   10.6653 O   0  0  0  0  0  0  0  0  0  0  0  0
   36.5225   16.1993   11.9908 C   0  0  2  0  0  0  0  0  0  0  0  0
   35.8998   20.2450   11.4738 N   0  0  0  0  0  0  0  0  0  0  0  0
   38.4120   14.6215   12.3536 O   0  0  0  0  0  0  0  0  0  0  0  0
   36.9417   14.7300   12.2921 C   0  0  1  0  0  0  0  0  0  0  0  0
   34.5784   17.6036   11.7087 O   0  0  0  0  0  0  0  0  0  0  0  0
   36.3244   14.2512   13.7001 C   0  0  1  0  0  0  0  0  0  0  0  0
   33.4412   18.0428    9.6645 O   0  0  0  0  0  0  0  0  0  0  0  0
   34.7419   14.3797   13.6021 C   0  0  0  0  0  0  0  0  0  0  0  0
   31.0235   20.5476   10.9879 O   0  0  0  0  0  0  0  0  0  0  0  0
   34.3785   15.8847   13.2620 C   0  0  1  0  0  0  0  0  0  0  0  0
   33.4829   21.9298   11.4297 O   0  0  0  0  0  0  0  0  0  0  0  0
   34.9329   16.2954   11.9352 C   0  0  2  0  0  0  0  0  0  0  0  0
   36.4488   18.3850    8.2799 O   0  0  0  0  0  0  0  0  0  0  0  0
   34.6733   18.3519   10.4695 C   0  0  1  0  0  0  0  0  0  0  0  0
   35.3169   16.4402    6.6679 O   0  0  0  0  0  0  0  0  0  0  0  0
   32.1250   18.5231   10.2607 C   0  0  2  0  0  0  0  0  0  0  0  0
   30.9698   18.1148    9.3539 C   0  0  0  0  0  0  0  0  0  0  0  0
   32.2094   20.0585   10.4217 C   0  0  2  0  0  0  0  0  0  0  0  0
   33.3923   20.4460   11.2933 C   0  0  1  0  0  0  0  0  0  0  0  0
   34.6772   19.8916   10.6506 C   0  0  1  0  0  0  0  0  0  0  0  0
   37.0117   17.1232    8.2673 C   0  0  2  0  0  0  0  0  0  0  0  0
   36.7173   16.2366    7.0148 C   0  0  1  0  0  0  0  0  0  0  0  0
  1  3  1  0  0  0  0
  4  1  1  1  0  0  0
  4  6  1  0  0  0  0
  4 31  1  0  0  0  0
  6  7  1  0  0  0  0
  7  9  1  1  0  0  0
  7 30  1  0  0  0  0
  8 26  1  0  0  0  0
 10  9  1  6  0  0  0
 10 13  1  0  0  0  0
 10 21  1  0  0  0  0
 13 12  1  1  0  0  0
 13 15  1  0  0  0  0
 15  2  1  6  0  0  0
 15 17  1  0  0  0  0
 16 25  1  0  0  0  0
 16 23  1  0  0  0  0
 17 19  1  0  0  0  0
 19  5  1  6  0  0  0
 19 21  1  0  0  0  0
 21 14  1  1  0  0  0
 23 14  1  1  0  0  0
 23 29  1  0  0  0  0
 25 26  1  6  0  0  0
 25 27  1  0  0  0  0
 27 18  1  1  0  0  0
 27 28  1  0  0  0  0
 28 20  1  6  0  0  0
 28 29  1  0  0  0  0
 29 11  1  1  0  0  0
 30 22  1  6  0  0  0
 30 31  1  0  0  0  0
 31 24  1  1  0  0  0
M  END
>  <CHROM.1>
-69.16182526,-72.16315105,84.07691339,83.96348555,74.35992612,66.36517533
35.16034699,16.98373593,10.47337454,-0.23176645,0.74856521,-1.11151129

>  <Name>
ligand

>  <RI>
0

>  <Rbt.Current_Directory>
/home/itssahil/PROJECTS/Mol_Feturizer/New_Systems/rnas/2ET5

>  <Rbt.Executable>
rbdock ($Id: //depot/dev/client3/rdock/2013.1/src/exe/rbdock.cxx#4 $)

>  <Rbt.Library>
libRbt.so (2013.1, Build901 2013/11/27)

>  <Rbt.Parameter_File>
/export/apps/rDock/src/rDock_2013.1_src/data/scripts/dock_solv.prm

>  <Rbt.Receptor>
prm/blind_docking_100.prm

>  <SCORE>
57.9362

>  <SCORE.INTER>
34.4909

>  <SCORE.INTER.CONST>
1

>  <SCORE.INTER.POLAR>
0

>  <SCORE.INTER.ROT>
6

>  <SCORE.INTER.SOLV>
32.6661

>  <SCORE.INTER.VDW>
4.50525

>  <SCORE.INTER.norm>
1.11261

>  <SCORE.INTRA>
-1.57714

>  <SCORE.INTRA.DIHEDRAL>
-4.03854

>  <SCORE.INTRA.DIHEDRAL.0>
11.2357

>  <SCORE.INTRA.POLAR>
0

>  <SCORE.INTRA.POLAR.0>
0

>  <SCORE.INTRA.REPUL>
0

>  <SCORE.INTRA.REPUL.0>
0

>  <SCORE.INTRA.SOLV>
-1.71101

>  <SCORE.INTRA.SOLV.lig_0>
-83.3092

>  <SCORE.INTRA.VDW>
1.29763

>  <SCORE.INTRA.VDW.0>
-4.47057

>  <SCORE.INTRA.norm>
-0.0508756

>  <SCORE.RESTR>
25.0224

>  <SCORE.RESTR.CAVITY>
25.0224

>  <SCORE.RESTR.norm>
0.807174

>  <SCORE.SYSTEM>
0

>  <SCORE.SYSTEM.CONST>
0

>  <SCORE.SYSTEM.DIHEDRAL>
0

>  <SCORE.SYSTEM.SOLV>
0

>  <SCORE.SYSTEM.norm>
0

>  <SCORE.heavy>
31

>  <SCORE.norm>
1.86891

>  <RMSD>
14.271

$$$$
ligand
 OpenBabel11021811433D
libRbt.so/2013.1/901 2013/11/27
 31 33  0  0  0  0  0  0  0  0999 V2000
   34.5821   16.4085   15.6343 C   0  0  0  0  0  0  0  0  0  0  0  0
   37.5016   14.2015    7.3549 N   0  0  0  0  0  0  0  0  0  0  0  0
   33.2376   16.7549   15.2713 O   0  0  0  0  0  0  0  0  0  0  0  0
   34.8444   15.0940   14.9040 C   0  0  1  0  0  0  0  0  0  0  0  0
   36.3433   19.0752    8.1511 N   0  0  0  0  0  0  0  0  0  0  0  0
   34.9695   15.2162   13.3962 O   0  0  0  0  0  0  0  0  0  0  0  0
   36.2594   15.0793   12.9383 C   0  0  1  0  0  0  0  0  0  0  0  0
   33.6937   22.3612   11.5674 N   0  0  0  0  0  0  0  0  0  0  0  0
   36.7432   16.0422   12.0439 O   0  0  0  0  0  0  0  0  0  0  0  0
   36.2895   16.1413   10.6155 C   0  0  2  0  0  0  0  0  0  0  0  0
   34.3804   15.8880   11.0962 N   0  0  0  0  0  0  0  0  0  0  0  0
   36.9032   13.7563   10.2595 O   0  0  0  0  0  0  0  0  0  0  0  0
   37.1196   15.1312    9.7693 C   0  0  1  0  0  0  0  0  0  0  0  0
   35.7632   18.4911   10.7962 O   0  0  0  0  0  0  0  0  0  0  0  0
   36.6820   15.2078    8.2216 C   0  0  1  0  0  0  0  0  0  0  0  0
   34.1504   19.4627   12.2521 O   0  0  0  0  0  0  0  0  0  0  0  0
   36.9266   16.6986    7.7239 C   0  0  0  0  0  0  0  0  0  0  0  0
   31.3013   19.5048    9.8539 O   0  0  0  0  0  0  0  0  0  0  0  0
   36.0849   17.6805    8.6405 C   0  0  1  0  0  0  0  0  0  0  0  0
   31.7322   16.6914   10.0846 O   0  0  0  0  0  0  0  0  0  0  0  0
   36.5324   17.6172   10.0661 C   0  0  2  0  0  0  0  0  0  0  0  0
   38.2171   14.0996   13.8853 O   0  0  0  0  0  0  0  0  0  0  0  0
   34.8465   18.1834   11.8777 C   0  0  1  0  0  0  0  0  0  0  0  0
   35.9882   12.8943   14.9994 O   0  0  0  0  0  0  0  0  0  0  0  0
   33.2417   20.0571   11.1846 C   0  0  2  0  0  0  0  0  0  0  0  0
   32.6323   21.3583   11.6935 C   0  0  0  0  0  0  0  0  0  0  0  0
   32.1544   19.0098   10.8505 C   0  0  2  0  0  0  0  0  0  0  0  0
   32.7839   17.7068   10.3866 C   0  0  1  0  0  0  0  0  0  0  0  0
   33.7179   17.1910   11.4970 C   0  0  1  0  0  0  0  0  0  0  0  0
   37.1163   14.8817   14.1781 C   0  0  2  0  0  0  0  0  0  0  0  0
   36.1243   14.3234   15.2485 C   0  0  1  0  0  0  0  0  0  0  0  0
  1  3  1  0  0  0  0
  4  1  1  1  0  0  0
  4  6  1  0  0  0  0
  4 31  1  0  0  0  0
  6  7  1  0  0  0  0
  7  9  1  1  0  0  0
  7 30  1  0  0  0  0
  8 26  1  0  0  0  0
 10  9  1  1  0  0  0
 10 13  1  0  0  0  0
 10 21  1  0  0  0  0
 13 12  1  1  0  0  0
 13 15  1  0  0  0  0
 15  2  1  6  0  0  0
 15 17  1  0  0  0  0
 16 25  1  0  0  0  0
 16 23  1  0  0  0  0
 17 19  1  0  0  0  0
 19  5  1  6  0  0  0
 19 21  1  0  0  0  0
 21 14  1  1  0  0  0
 23 14  1  6  0  0  0
 23 29  1  0  0  0  0
 25 26  1  1  0  0  0
 25 27  1  0  0  0  0
 27 18  1  6  0  0  0
 27 28  1  0  0  0  0
 28 20  1  1  0  0  0
 28 29  1  0  0  0  0
 29 11  1  6  0  0  0
 30 22  1  6  0  0  0
 30 31  1  0  0  0  0
 31 24  1  6  0  0  0
M  END
>  <CHROM.1>
70.21687690,-71.86485502,-83.75878650,-174.46927502,-1.10607075,77.61941109
35.10982272,16.82623874,11.53506939,0.76467052,-0.86291569,1.97846124

>  <Name>
ligand

>  <RI>
0

>  <Rbt.Current_Directory>
/home/itssahil/PROJECTS/Mol_Feturizer/New_Systems/rnas/2ET5

>  <Rbt.Executable>
rbdock ($Id: //depot/dev/client3/rdock/2013.1/src/exe/rbdock.cxx#4 $)

>  <Rbt.Library>
libRbt.so (2013.1, Build901 2013/11/27)

>  <Rbt.Parameter_File>
/export/apps/rDock/src/rDock_2013.1_src/data/scripts/dock_solv.prm

>  <Rbt.Receptor>
prm/blind_docking_100.prm

>  <SCORE>
59.7994

>  <SCORE.INTER>
12.3403

>  <SCORE.INTER.CONST>
1

>  <SCORE.INTER.POLAR>
0

>  <SCORE.INTER.ROT>
6

>  <SCORE.INTER.SOLV>
31.4672

>  <SCORE.INTER.VDW>
-9.86224

>  <SCORE.INTER.norm>
0.398073

>  <SCORE.INTRA>
18.2529

>  <SCORE.INTRA.DIHEDRAL>
0.740931

>  <SCORE.INTRA.DIHEDRAL.0>
11.2357

>  <SCORE.INTRA.POLAR>
0

>  <SCORE.INTRA.POLAR.0>
0

>  <SCORE.INTRA.REPUL>
0

>  <SCORE.INTRA.REPUL.0>
0

>  <SCORE.INTRA.SOLV>
3.36625

>  <SCORE.INTRA.SOLV.lig_0>
-83.3092

>  <SCORE.INTRA.VDW>
16.1993

>  <SCORE.INTRA.VDW.0>
-4.47057

>  <SCORE.INTRA.norm>
0.588804

>  <SCORE.RESTR>
29.2062

>  <SCORE.RESTR.CAVITY>
29.2062

>  <SCORE.RESTR.norm>
0.942135

>  <SCORE.SYSTEM>
0

>  <SCORE.SYSTEM.CONST>
0

>  <SCORE.SYSTEM.DIHEDRAL>
0

>  <SCORE.SYSTEM.SOLV>
0

>  <SCORE.SYSTEM.norm>
0

>  <SCORE.heavy>
31

>  <SCORE.norm>
1.92901

>  <RMSD>
14.492

$$$$
ligand
 OpenBabel11021811433D
libRbt.so/2013.1/901 2013/11/27
 31 33  0  0  0  0  0  0  0  0999 V2000
   34.0800   15.3261    6.6169 C   0  0  0  0  0  0  0  0  0  0  0  0
   37.7205   12.9016   14.1036 N   0  0  0  0  0  0  0  0  0  0  0  0
   33.9809   15.5006    5.1959 O   0  0  0  0  0  0  0  0  0  0  0  0
   35.1193   16.3556    7.0529 C   0  0  1  0  0  0  0  0  0  0  0  0
   35.5667   17.3484   15.2505 N   0  0  0  0  0  0  0  0  0  0  0  0
   34.9707   16.8460    8.4817 O   0  0  0  0  0  0  0  0  0  0  0  0
   35.9262   16.3475    9.3365 C   0  0  1  0  0  0  0  0  0  0  0  0
   32.0283   16.3127    9.9553 N   0  0  0  0  0  0  0  0  0  0  0  0
   35.4967   15.7956   10.5498 O   0  0  0  0  0  0  0  0  0  0  0  0
   36.3142   15.8378   11.8091 C   0  0  2  0  0  0  0  0  0  0  0  0
   36.1107   20.6301   11.6604 N   0  0  0  0  0  0  0  0  0  0  0  0
   37.3208   13.6387   11.2243 O   0  0  0  0  0  0  0  0  0  0  0  0
   36.5792   14.3732   12.2674 C   0  0  1  0  0  0  0  0  0  0  0  0
   35.3283   17.9142   12.5492 O   0  0  0  0  0  0  0  0  0  0  0  0
   37.4422   14.3613   13.6267 C   0  0  1  0  0  0  0  0  0  0  0  0
   33.8829   17.7644   10.6642 O   0  0  0  0  0  0  0  0  0  0  0  0
   36.6180   15.1590   14.7288 C   0  0  0  0  0  0  0  0  0  0  0  0
   31.2382   20.0765   11.9013 O   0  0  0  0  0  0  0  0  0  0  0  0
   36.3508   16.6271   14.1939 C   0  0  1  0  0  0  0  0  0  0  0  0
   33.4431   21.8806   11.7080 O   0  0  0  0  0  0  0  0  0  0  0  0
   35.5190   16.6141   12.9512 C   0  0  2  0  0  0  0  0  0  0  0  0
   38.0848   15.3995    8.9745 O   0  0  0  0  0  0  0  0  0  0  0  0
   35.1300   18.4111   11.2007 C   0  0  1  0  0  0  0  0  0  0  0  0
   37.4838   17.0823    6.8606 O   0  0  0  0  0  0  0  0  0  0  0  0
   32.5870   18.1432   11.3684 C   0  0  2  0  0  0  0  0  0  0  0  0
   31.4199   17.3924   10.7378 C   0  0  0  0  0  0  0  0  0  0  0  0
   32.4122   19.6748   11.2484 C   0  0  2  0  0  0  0  0  0  0  0  0
   33.6057   20.4029   11.8440 C   0  0  1  0  0  0  0  0  0  0  0  0
   34.8785   19.9384   11.1122 C   0  0  1  0  0  0  0  0  0  0  0  0
   36.7899   15.4239    8.4931 C   0  0  2  0  0  0  0  0  0  0  0  0
   36.5950   15.9404    7.0314 C   0  0  1  0  0  0  0  0  0  0  0  0
  1  3  1  0  0  0  0
  4  1  1  1  0  0  0
  4  6  1  0  0  0  0
  4 31  1  0  0  0  0
  6  7  1  0  0  0  0
  7  9  1  1  0  0  0
  7 30  1  0  0  0  0
  8 26  1  0  0  0  0
 10  9  1  6  0  0  0
 10 13  1  0  0  0  0
 10 21  1  0  0  0  0
 13 12  1  6  0  0  0
 13 15  1  0  0  0  0
 15  2  1  1  0  0  0
 15 17  1  0  0  0  0
 16 25  1  0  0  0  0
 16 23  1  0  0  0  0
 17 19  1  0  0  0  0
 19  5  1  1  0  0  0
 19 21  1  0  0  0  0
 21 14  1  6  0  0  0
 23 14  1  1  0  0  0
 23 29  1  0  0  0  0
 25 26  1  6  0  0  0
 25 27  1  0  0  0  0
 27 18  1  1  0  0  0
 27 28  1  0  0  0  0
 28 20  1  6  0  0  0
 28 29  1  0  0  0  0
 29 11  1  1  0  0  0
 30 22  1  1  0  0  0
 30 31  1  0  0  0  0
 31 24  1  1  0  0  0
M  END
>  <CHROM.1>
152.79211346,-148.82329004,-120.38816541,60.51732506,32.75505145,15.76686114
35.15343681,16.95718205,10.74675743,0.75690608,0.88095479,-1.77164446

>  <Name>
ligand

>  <RI>
0

>  <Rbt.Current_Directory>
/home/itssahil/PROJECTS/Mol_Feturizer/New_Systems/rnas/2ET5

>  <Rbt.Executable>
rbdock ($Id: //depot/dev/client3/rdock/2013.1/src/exe/rbdock.cxx#4 $)

>  <Rbt.Library>
libRbt.so (2013.1, Build901 2013/11/27)

>  <Rbt.Parameter_File>
/export/apps/rDock/src/rDock_2013.1_src/data/scripts/dock_solv.prm

>  <Rbt.Receptor>
prm/blind_docking_100.prm

>  <SCORE>
68.071

>  <SCORE.INTER>
31.9371

>  <SCORE.INTER.CONST>
1

>  <SCORE.INTER.POLAR>
0

>  <SCORE.INTER.ROT>
6

>  <SCORE.INTER.SOLV>
28.7807

>  <SCORE.INTER.VDW>
4.09782

>  <SCORE.INTER.norm>
1.03023

>  <SCORE.INTRA>
11.3366

>  <SCORE.INTRA.DIHEDRAL>
9.57777

>  <SCORE.INTRA.DIHEDRAL.0>
11.2357

>  <SCORE.INTRA.POLAR>
0

>  <SCORE.INTRA.POLAR.0>
0

>  <SCORE.INTRA.REPUL>
0.808864

>  <SCORE.INTRA.REPUL.0>
0

>  <SCORE.INTRA.SOLV>
-1.13657

>  <SCORE.INTRA.SOLV.lig_0>
-83.3092

>  <SCORE.INTRA.VDW>
3.07167

>  <SCORE.INTRA.VDW.0>
-4.47057

>  <SCORE.INTRA.norm>
0.365696

>  <SCORE.RESTR>
24.7974

>  <SCORE.RESTR.CAVITY>
24.7974

>  <SCORE.RESTR.norm>
0.799915

>  <SCORE.SYSTEM>
0

>  <SCORE.SYSTEM.CONST>
0

>  <SCORE.SYSTEM.DIHEDRAL>
0

>  <SCORE.SYSTEM.SOLV>
0

>  <SCORE.SYSTEM.norm>
0

>  <SCORE.heavy>
31

>  <SCORE.norm>
2.19584

>  <RMSD>
14.495

$$$$
ligand
 OpenBabel11021811433D
libRbt.so/2013.1/901 2013/11/27
 31 33  0  0  0  0  0  0  0  0999 V2000
   33.7418   15.1443    8.8277 C   0  0  0  0  0  0  0  0  0  0  0  0
   34.3993   13.1266   13.3486 N   0  0  0  0  0  0  0  0  0  0  0  0
   34.3469   14.4275    9.9138 O   0  0  0  0  0  0  0  0  0  0  0  0
   34.8816   15.9709    8.2383 C   0  0  1  0  0  0  0  0  0  0  0  0
   31.9288   17.3786   12.1056 N   0  0  0  0  0  0  0  0  0  0  0  0
   35.3875   17.0884    9.1323 O   0  0  0  0  0  0  0  0  0  0  0  0
   36.6151   16.8289    9.6959 C   0  0  1  0  0  0  0  0  0  0  0  0
   30.6193   16.4102    8.7669 N   0  0  0  0  0  0  0  0  0  0  0  0
   36.7585   17.0271   11.0749 O   0  0  0  0  0  0  0  0  0  0  0  0
   35.6946   16.6705   12.0733 C   0  0  2  0  0  0  0  0  0  0  0  0
   33.5630   21.4532   11.7540 N   0  0  0  0  0  0  0  0  0  0  0  0
   36.9224   14.5785   12.6282 O   0  0  0  0  0  0  0  0  0  0  0  0
   35.6249   15.1181   12.1777 C   0  0  1  0  0  0  0  0  0  0  0  0
   34.3487   18.6042   11.5437 O   0  0  0  0  0  0  0  0  0  0  0  0
   34.4853   14.6801   13.2276 C   0  0  1  0  0  0  0  0  0  0  0  0
   33.5900   18.6098    9.2877 O   0  0  0  0  0  0  0  0  0  0  0  0
   33.1022   15.2757   12.7153 C   0  0  0  0  0  0  0  0  0  0  0  0
   29.9364   18.6407   10.0094 O   0  0  0  0  0  0  0  0  0  0  0  0
   33.2442   16.8501   12.5974 C   0  0  1  0  0  0  0  0  0  0  0  0
   30.6989   21.1540   11.1302 O   0  0  0  0  0  0  0  0  0  0  0  0
   34.2833   17.2325   11.5921 C   0  0  2  0  0  0  0  0  0  0  0  0
   38.3770   15.3289    9.1168 O   0  0  0  0  0  0  0  0  0  0  0  0
   34.1286   19.4679   10.3990 C   0  0  1  0  0  0  0  0  0  0  0  0
   36.9275   15.9258    6.8354 O   0  0  0  0  0  0  0  0  0  0  0  0
   32.2168   17.9987    9.5313 C   0  0  2  0  0  0  0  0  0  0  0  0
   31.8178   17.1372    8.3388 C   0  0  0  0  0  0  0  0  0  0  0  0
   31.2166   19.1555    9.7600 C   0  0  2  0  0  0  0  0  0  0  0  0
   31.6556   20.0265   10.9252 C   0  0  1  0  0  0  0  0  0  0  0  0
   33.0642   20.5721   10.6261 C   0  0  1  0  0  0  0  0  0  0  0  0
   37.0032   15.4407    9.2136 C   0  0  2  0  0  0  0  0  0  0  0  0
   36.1894   15.2488    7.8936 C   0  0  1  0  0  0  0  0  0  0  0  0
  1  3  1  0  0  0  0
  4  1  1  1  0  0  0
  4  6  1  0  0  0  0
  4 31  1  0  0  0  0
  6  7  1  0  0  0  0
  7  9  1  1  0  0  0
  7 30  1  0  0  0  0
  8 26  1  0  0  0  0
 10  9  1  6  0  0  0
 10 13  1  0  0  0  0
 10 21  1  0  0  0  0
 13 12  1  1  0  0  0
 13 15  1  0  0  0  0
 15  2  1  6  0  0  0
 15 17  1  0  0  0  0
 16 25  1  0  0  0  0
 16 23  1  0  0  0  0
 17 19  1  0  0  0  0
 19  5  1  6  0  0  0
 19 21  1  0  0  0  0
 21 14  1  1  0  0  0
 23 14  1  1  0  0  0
 23 29  1  0  0  0  0
 25 26  1  6  0  0  0
 25 27  1  0  0  0  0
 27 18  1  1  0  0  0
 27 28  1  0  0  0  0
 28 20  1  6  0  0  0
 28 29  1  0  0  0  0
 29 11  1  1  0  0  0
 30 22  1  6  0  0  0
 30 31  1  0  0  0  0
 31 24  1  6  0  0  0
M  END
>  <CHROM.1>
-68.46831681,39.30372869,71.56472693,8.95112173,121.07158047,169.95382480
34.11129097,17.04879434,10.44576668,-0.24427486,0.70884577,-1.13241152

>  <Name>
ligand

>  <RI>
0

>  <Rbt.Current_Directory>
/home/itssahil/PROJECTS/Mol_Feturizer/New_Systems/rnas/2ET5

>  <Rbt.Executable>
rbdock ($Id: //depot/dev/client3/rdock/2013.1/src/exe/rbdock.cxx#4 $)

>  <Rbt.Library>
libRbt.so (2013.1, Build901 2013/11/27)

>  <Rbt.Parameter_File>
/export/apps/rDock/src/rDock_2013.1_src/data/scripts/dock_solv.prm

>  <Rbt.Receptor>
prm/blind_docking_100.prm

>  <SCORE>
104.847

>  <SCORE.INTER>
66.0885

>  <SCORE.INTER.CONST>
1

>  <SCORE.INTER.POLAR>
0

>  <SCORE.INTER.ROT>
6

>  <SCORE.INTER.SOLV>
32.212

>  <SCORE.INTER.VDW>
25.7217

>  <SCORE.INTER.norm>
2.13189

>  <SCORE.INTRA>
11.2751

>  <SCORE.INTRA.DIHEDRAL>
5.93558

>  <SCORE.INTRA.DIHEDRAL.0>
11.2357

>  <SCORE.INTRA.POLAR>
0

>  <SCORE.INTRA.POLAR.0>
0

>  <SCORE.INTRA.REPUL>
0.109896

>  <SCORE.INTRA.REPUL.0>
0

>  <SCORE.INTRA.SOLV>
7.41374

>  <SCORE.INTRA.SOLV.lig_0>
-83.3092

>  <SCORE.INTRA.VDW>
4.051

>  <SCORE.INTRA.VDW.0>
-4.47057

>  <SCORE.INTRA.norm>
0.363714

>  <SCORE.RESTR>
27.483

>  <SCORE.RESTR.CAVITY>
27.483

>  <SCORE.RESTR.norm>
0.886549

>  <SCORE.SYSTEM>
0

>  <SCORE.SYSTEM.CONST>
0

>  <SCORE.SYSTEM.DIHEDRAL>
0

>  <SCORE.SYSTEM.SOLV>
0

>  <SCORE.SYSTEM.norm>
0

>  <SCORE.heavy>
31

>  <SCORE.norm>
3.38215

>  <RMSD>
14.558

$$$$
ligand
 OpenBabel11021811433D
libRbt.so/2013.1/901 2013/11/27
 31 33  0  0  0  0  0  0  0  0999 V2000
   37.8468   14.3481    9.2564 C   0  0  0  0  0  0  0  0  0  0  0  0
   38.1440   14.8375   13.8636 N   0  0  0  0  0  0  0  0  0  0  0  0
   37.0556   13.8373   10.3393 O   0  0  0  0  0  0  0  0  0  0  0  0
   36.8421   15.0681    8.3606 C   0  0  1  0  0  0  0  0  0  0  0  0
   33.7691   12.8366   12.2560 N   0  0  0  0  0  0  0  0  0  0  0  0
   35.5618   15.4965    9.0544 O   0  0  0  0  0  0  0  0  0  0  0  0
   35.4844   16.8515    9.2783 C   0  0  1  0  0  0  0  0  0  0  0  0
   32.5592   20.4823   11.9759 N   0  0  0  0  0  0  0  0  0  0  0  0
   35.1329   17.2847   10.5629 O   0  0  0  0  0  0  0  0  0  0  0  0
   35.1328   16.3838   11.7647 C   0  0  2  0  0  0  0  0  0  0  0  0
   30.1773   15.0456   10.6560 N   0  0  0  0  0  0  0  0  0  0  0  0
   37.2963   17.3697   12.4987 O   0  0  0  0  0  0  0  0  0  0  0  0
   36.6119   16.1056   12.1653 C   0  0  1  0  0  0  0  0  0  0  0  0
   33.0980   15.2645   11.1031 O   0  0  0  0  0  0  0  0  0  0  0  0
   36.6693   15.1287   13.4440 C   0  0  1  0  0  0  0  0  0  0  0  0
   32.7080   17.2365   12.3775 O   0  0  0  0  0  0  0  0  0  0  0  0
   35.9249   13.7783   13.0537 C   0  0  0  0  0  0  0  0  0  0  0  0
   31.9094   19.4994    9.5292 O   0  0  0  0  0  0  0  0  0  0  0  0
   34.4394   14.1274   12.6246 C   0  0  1  0  0  0  0  0  0  0  0  0
   29.7534   17.6384    9.3221 O   0  0  0  0  0  0  0  0  0  0  0  0
   34.4112   15.0067   11.4152 C   0  0  2  0  0  0  0  0  0  0  0  0
   36.5948   18.7199    8.2957 O   0  0  0  0  0  0  0  0  0  0  0  0
   32.1037   15.9391   11.9161 C   0  0  1  0  0  0  0  0  0  0  0  0
   36.5532   16.6435    6.4658 O   0  0  0  0  0  0  0  0  0  0  0  0
   33.0086   18.2513   11.2828 C   0  0  2  0  0  0  0  0  0  0  0  0
   33.6406   19.4963   11.8944 C   0  0  0  0  0  0  0  0  0  0  0  0
   31.6803   18.5802   10.5630 C   0  0  2  0  0  0  0  0  0  0  0  0
   31.0457   17.3202    9.9983 C   0  0  1  0  0  0  0  0  0  0  0  0
   30.8114   16.3292   11.1535 C   0  0  1  0  0  0  0  0  0  0  0  0
   36.7877   17.4298    8.7513 C   0  0  2  0  0  0  0  0  0  0  0  0
   37.2789   16.3817    7.7018 C   0  0  1  0  0  0  0  0  0  0  0  0
  1  3  1  0  0  0  0
  4  1  1  1  0  0  0
  4  6  1  0  0  0  0
  4 31  1  0  0  0  0
  6  7  1  0  0  0  0
  7  9  1  1  0  0  0
  7 30  1  0  0  0  0
  8 26  1  0  0  0  0
 10  9  1  6  0  0  0
 10 13  1  0  0  0  0
 10 21  1  0  0  0  0
 13 12  1  1  0  0  0
 13 15  1  0  0  0  0
 15  2  1  6  0  0  0
 15 17  1  0  0  0  0
 16 25  1  0  0  0  0
 16 23  1  0  0  0  0
 17 19  1  0  0  0  0
 19  5  1  6  0  0  0
 19 21  1  0  0  0  0
 21 14  1  1  0  0  0
 23 14  1  6  0  0  0
 23 29  1  0  0  0  0
 25 26  1  1  0  0  0
 25 27  1  0  0  0  0
 27 18  1  6  0  0  0
 27 28  1  0  0  0  0
 28 20  1  1  0  0  0
 28 29  1  0  0  0  0
 29 11  1  6  0  0  0
 30 22  1  6  0  0  0
 30 31  1  0  0  0  0
 31 24  1  6  0  0  0
M  END
>  <CHROM.1>
22.28544195,13.89173074,73.22412258,50.88621727,-56.58226008,-100.98020554
34.52168532,16.43420050,10.70391737,-0.24857257,0.35734519,-0.88725433

>  <Name>
ligand

>  <RI>
0

>  <Rbt.Current_Directory>
/home/itssahil/PROJECTS/Mol_Feturizer/New_Systems/rnas/2ET5

>  <Rbt.Executable>
rbdock ($Id: //depot/dev/client3/rdock/2013.1/src/exe/rbdock.cxx#4 $)

>  <Rbt.Library>
libRbt.so (2013.1, Build901 2013/11/27)

>  <Rbt.Parameter_File>
/export/apps/rDock/src/rDock_2013.1_src/data/scripts/dock_solv.prm

>  <Rbt.Receptor>
prm/blind_docking_100.prm

>  <SCORE>
77.0722

>  <SCORE.INTER>
34.7392

>  <SCORE.INTER.CONST>
1

>  <SCORE.INTER.POLAR>
0

>  <SCORE.INTER.ROT>
6

>  <SCORE.INTER.SOLV>
27.8576

>  <SCORE.INTER.VDW>
6.27362

>  <SCORE.INTER.norm>
1.12062

>  <SCORE.INTRA>
9.27845

>  <SCORE.INTRA.DIHEDRAL>
4.06305

>  <SCORE.INTRA.DIHEDRAL.0>
11.2357

>  <SCORE.INTRA.POLAR>
0

>  <SCORE.INTRA.POLAR.0>
0

>  <SCORE.INTRA.REPUL>
0

>  <SCORE.INTRA.REPUL.0>
0

>  <SCORE.INTRA.SOLV>
0.646662

>  <SCORE.INTRA.SOLV.lig_0>
-83.3092

>  <SCORE.INTRA.VDW>
6.92359

>  <SCORE.INTRA.VDW.0>
-4.47057

>  <SCORE.INTRA.norm>
0.299305

>  <SCORE.RESTR>
33.0546

>  <SCORE.RESTR.CAVITY>
33.0546

>  <SCORE.RESTR.norm>
1.06628

>  <SCORE.SYSTEM>
0

>  <SCORE.SYSTEM.CONST>
0

>  <SCORE.SYSTEM.DIHEDRAL>
0

>  <SCORE.SYSTEM.SOLV>
0

>  <SCORE.SYSTEM.norm>
0

>  <SCORE.heavy>
31

>  <SCORE.norm>
2.4862

>  <RMSD>
14.862

$$$$
