@<TRIPOS>MOLECULE
2ET5_rdock.pdb
 523 581 0 0 0
SMALL
GASTEIGER

@<TRIPOS>ATOM
      1  P         28.1190   19.8070   11.7190 P.3    11  C11         0.1280
      2  C5'       28.0050   21.5410   13.6760 C.3    11  C11         0.1795
      3  O5'       28.7760   20.6010   12.9320 O.3    11  C11        -0.3259
      4  C4'       28.8510   22.1930   14.7470 C.3    11  C11         0.1772
      5  O4'       29.3860   21.1730   15.6360 O.3    11  C11        -0.3307
      6  C3'       30.1050   22.9170   14.2900 C.3    11  C11         0.1860
      7  O3'       29.8190   24.2020   13.7600 O.3    11  C11        -0.3112
      8  C2'       30.8860   22.9950   15.5930 C.3    11  C11         0.2309
      9  O2'       30.3170   23.9130   16.5080 O.3    11  C11        -0.2156
     10  C1'       30.6470   21.5940   16.1380 C.3    11  C11         0.2420
     11  N1        31.6550   20.6390   15.6930 N.ar   11  C11        -0.2535
     12  C2        32.8860   20.6130   16.3390 C.ar   11  C11         0.3532
     13  O2        33.1340   21.4820   17.1900 O.2    11  C11        -0.2443
     14  N3        33.7820   19.6540   16.0120 N.ar   11  C11        -0.1739
     15  C4        33.4870   18.7630   15.0620 C.ar   11  C11         0.1759
     16  N4        34.3710   17.7950   14.8150 N.pl3  11  C11        -0.1070
     17  C5        32.2670   18.8160   14.3340 C.ar   11  C11         0.0566
     18  C6        31.3870   19.7610   14.6790 C.ar   11  C11         0.0850
     19  OP1       27.2180   20.7410   10.9920 O.3    11  C11        -0.1955
     20  OP2       29.2000   19.1050   10.9920 O.co2  11  C11        -0.7863
     21  P         30.7970   24.8360   12.6540 P.3    12  G12         0.2141
     22  C5'       32.0200   26.1520   14.5560 C.3    12  G12         0.1812
     23  O5'       32.1040   25.2430   13.4620 O.3    12  G12        -0.3114
     24  C4'       33.3580   26.2730   15.2510 C.3    12  G12         0.1773
     25  O4'       33.6800   25.0330   15.9290 O.3    12  G12        -0.3307
     26  C3'       34.5490   26.5320   14.3480 C.3    12  G12         0.1860
     27  O3'       34.6410   27.9250   14.0480 O.3    12  G12        -0.3112
     28  C2'       35.7060   26.0220   15.2020 C.3    12  G12         0.2309
     29  O2'       36.0770   26.9340   16.2170 O.3    12  G12        -0.2156
     30  C1'       35.0770   24.7940   15.8610 C.3    12  G12         0.2408
     31  N1        38.1380   20.8240   14.9450 N.ar   12  G12        -0.1709
     32  C2        38.3590   21.9230   15.7410 C.ar   12  G12         0.2606
     33  N2        39.5370   21.9600   16.3810 N.pl3  12  G12        -0.0859
     34  N3        37.4910   22.9090   15.8960 N.ar   12  G12        -0.1918
     35  C4        36.3650   22.7090   15.1810 C.ar   12  G12         0.1723
     36  C5        36.0470   21.6480   14.3600 C.ar   12  G12         0.1748
     37  C6        36.9840   20.5940   14.2070 C.ar   12  G12         0.3023
     38  O6        36.8800   19.5600   13.5320 O.2    12  G12        -0.2633
     39  N7        34.7870   21.8180   13.7980 N.ar   12  G12        -0.2173
     40  C8        34.3680   22.9540   14.2810 C.ar   12  G12         0.1817
     41  N9        35.2700   23.5430   15.1350 N.ar   12  G12        -0.2693
     42  OP1       30.1330   26.0600   12.1490 O.3    12  G12        -0.4373
     43  OP2       31.1820   23.7640   11.7090 O.co2  12  G12        -0.5172
     44  P         35.6120   28.4330   12.8630 P.3    13  G13         0.2141
     45  C5'       38.0850   27.7000   12.5050 C.3    13  G13         0.1812
     46  O5'       37.0540   28.0540   13.3990 O.3    13  G13        -0.3114
     47  C4'       39.2080   27.0410   13.2580 C.3    13  G13         0.1773
     48  O4'       38.7300   25.8310   13.8990 O.3    13  G13        -0.3307
     49  C3'       40.3400   26.5860   12.3610 C.3    13  G13         0.1860
     50  O3'       41.2290   27.6690   12.1710 O.3    13  G13        -0.3112
     51  C2'       40.9550   25.4400   13.1510 C.3    13  G13         0.2309
     52  O2'       41.8540   25.8660   14.1480 O.3    13  G13        -0.2156
     53  C1'       39.7090   24.8130   13.7810 C.3    13  G13         0.2408
     54  N1        40.3880   20.1490   11.9450 N.ar   13  G13        -0.1709
     55  C2        41.2100   20.9050   12.7400 C.ar   13  G13         0.2606
     56  N2        42.3740   20.3420   13.1100 N.pl3  13  G13        -0.0859
     57  N3        40.9190   22.1260   13.1460 N.ar   13  G13        -0.1918
     58  C4        39.7290   22.5420   12.6840 C.ar   13  G13         0.1723
     59  C5        38.8340   21.8750   11.8820 C.ar   13  G13         0.1748
     60  C6        39.1480   20.5550   11.4630 C.ar   13  G13         0.3023
     61  O6        38.4700   19.7820   10.7740 O.2    13  G13        -0.2633
     62  N7        37.7180   22.6610   11.6290 N.ar   13  G13        -0.2173
     63  C8        37.9490   23.7680   12.2810 C.ar   13  G13         0.1817
     64  N9        39.1490   23.7560   12.9480 N.ar   13  G13        -0.2693
     65  OP1       35.4920   29.9150   12.8200 O.3    13  G13        -0.4373
     66  OP2       35.3840   27.6430   11.6290 O.co2  13  G13        -0.5172
     67  P         41.7010   28.0400   10.6930 P.3    14  U14         0.2141
     68  C5'       44.0000   26.9620   11.2570 C.3    14  U14         0.1812
     69  O5'       42.8480   26.9730   10.4260 O.3    14  U14        -0.3114
     70  C4'       44.7200   25.6440   11.1520 C.3    14  U14         0.1773
     71  O4'       43.8730   24.5820   11.6560 O.3    14  U14        -0.3307
     72  C3'       45.0670   25.1730    9.7530 C.3    14  U14         0.1860
     73  O3'       46.2360   25.8130    9.2510 O.3    14  U14        -0.3112
     74  C2'       45.3090   23.6950    9.9990 C.3    14  U14         0.2309
     75  O2'       46.5620   23.4630   10.6040 O.3    14  U14        -0.2156
     76  C1'       44.1820   23.3750   10.9830 C.3    14  U14         0.2420
     77  N1        42.9750   22.9300   10.2800 N.ar   14  U14        -0.2534
     78  C2        42.9220   21.6190    9.8870 C.ar   14  U14         0.3546
     79  O2        43.8250   20.8310   10.1000 O.2    14  U14        -0.2443
     80  N3        41.7750   21.2610    9.2350 N.ar   14  U14        -0.1530
     81  C4        40.7050   22.0700    8.9410 C.ar   14  U14         0.2846
     82  O4        39.7200   21.5890    8.3790 O.2    14  U14        -0.2650
     83  C5        40.8420   23.4160    9.3760 C.ar   14  U14         0.0814
     84  C6        41.9450   23.7900   10.0190 C.ar   14  U14         0.0870
     85  OP1       42.3230   29.3900   10.7450 O.3    14  U14        -0.4373
     86  OP2       40.5590   27.7880    9.7840 O.co2  14  U14        -0.5172
     87  P         46.4750   25.8900    7.6630 P.3    15  G15         0.2141
     88  C5'       47.9440   23.7070    7.6920 C.3    15  G15         0.1812
     89  O5'       46.7680   24.3780    7.2530 O.3    15  G15        -0.3114
     90  C4'       47.9880   22.3040    7.1220 C.3    15  G15         0.1773
     91  O4'       46.9190   21.5040    7.7010 O.3    15  G15        -0.3307
     92  C3'       47.7470   22.1730    5.6240 C.3    15  G15         0.1860
     93  O3'       48.9250   22.4730    4.8760 O.3    15  G15        -0.3112
     94  C2'       47.3580   20.7020    5.5130 C.3    15  G15         0.2309
     95  O2'       48.4870   19.8530    5.6150 O.3    15  G15        -0.2156
     96  C1'       46.4860   20.5270    6.7610 C.3    15  G15         0.2408
     97  N1        42.1470   18.4980    5.0500 N.ar   15  G15        -0.1709
     98  C2        43.3720   17.9120    5.2180 C.ar   15  G15         0.2606
     99  N2        43.4580   16.6280    4.8480 N.pl3  15  G15        -0.0859
    100  N3        44.4330   18.5340    5.7060 N.ar   15  G15        -0.1918
    101  C4        44.1670   19.8240    6.0060 C.ar   15  G15         0.1723
    102  C5        42.9770   20.5070    5.8750 C.ar   15  G15         0.1748
    103  C6        41.8430   19.8160    5.3540 C.ar   15  G15         0.3023
    104  O6        40.6960   20.2390    5.1570 O.2    15  G15        -0.2633
    105  N7        43.1160   21.8220    6.3020 N.ar   15  G15        -0.2173
    106  C8        44.3670   21.9140    6.6670 C.ar   15  G15         0.1817
    107  N9        45.0660   20.7440    6.4970 N.ar   15  G15        -0.2693
    108  OP1       47.6850   26.7140    7.4620 O.3    15  G15        -0.4373
    109  OP2       45.2100   26.2770    7.0040 O.co2  15  G15        -0.5172
    110  P         48.8550   23.5370    3.6620 P.3    16  A16         0.2141
    111  C5'       49.8250   22.2820    1.5730 C.3    16  A16         0.1812
    112  O5'       48.6970   22.6290    2.3620 O.3    16  A16        -0.3114
    113  C4'       49.6760   22.8320    0.1720 C.3    16  A16         0.1773
    114  O4'       50.9860   22.8460   -0.4460 O.3    16  A16        -0.3307
    115  C3'       48.7850   22.0590   -0.7940 C.3    16  A16         0.1860
    116  O3'       47.4240   22.4900   -0.7430 O.3    16  A16        -0.3112
    117  C2'       49.3770   22.4330   -2.1450 C.3    16  A16         0.2309
    118  O2'       48.8950   23.6880   -2.5750 O.3    16  A16        -0.2156
    119  C1'       50.8690   22.5440   -1.8180 C.3    16  A16         0.2408
    120  N1        53.2770   19.6740   -5.3550 N.ar   16  A16        -0.2040
    121  C2        52.5690   20.8080   -5.4470 C.ar   16  A16         0.2016
    122  N3        51.9600   21.5030   -4.4890 N.ar   16  A16        -0.2048
    123  C4        52.1310   20.9130   -3.2940 C.ar   16  A16         0.1692
    124  C5        52.8310   19.7480   -3.0360 C.ar   16  A16         0.1518
    125  C6        53.4310   19.1040   -4.1400 C.ar   16  A16         0.1919
    126  N6        54.1370   17.9680   -4.0490 N.pl3  16  A16        -0.1054
    127  N7        52.7870   19.4380   -1.6840 N.ar   16  A16        -0.2193
    128  C8        52.0740   20.4060   -1.1630 C.ar   16  A16         0.1816
    129  N9        51.6520   21.3370   -2.0780 N.ar   16  A16        -0.2693
    130  OP1       50.1610   24.2250    3.6540 O.2    16  A16        -0.5172
    131  OP2       47.6130   24.3340    3.7480 O.co2  16  A16        -0.4373
    132  P         46.2680   21.5530   -1.3570 P.3    17  A17         0.2141
    133  C5'       46.3760   22.3310   -3.8900 C.3    17  A17         0.1812
    134  O5'       46.6850   21.3520   -2.8880 O.3    17  A17        -0.3114
    135  C4'       46.7820   21.8290   -5.2680 C.3    17  A17         0.1773
    136  O4'       48.2210   21.6250   -5.3060 O.3    17  A17        -0.3307
    137  C3'       46.2160   20.4800   -5.6760 C.3    17  A17         0.1860
    138  O3'       44.9000   20.6050   -6.1930 O.3    17  A17        -0.3112
    139  C2'       47.2110   20.0230   -6.7350 C.3    17  A17         0.2309
    140  O2'       47.0060   20.6270   -7.9990 O.3    17  A17        -0.2156
    141  C1'       48.5290   20.5140   -6.1330 C.3    17  A17         0.2408
    142  N1        51.5340   16.3460   -6.0510 N.ar   17  A17        -0.2040
    143  C2        51.1180   17.1350   -7.0500 C.ar   17  A17         0.2016
    144  N3        50.3390   18.2100   -7.0040 N.ar   17  A17        -0.2048
    145  C4        49.9650   18.4670   -5.7420 C.ar   17  A17         0.1692
    146  C5        50.3070   17.7480   -4.6120 C.ar   17  A17         0.1518
    147  C6        51.1370   16.6320   -4.7940 C.ar   17  A17         0.1919
    148  N6        51.5520   15.8450   -3.7980 N.pl3  17  A17        -0.1054
    149  N7        49.7350   18.3100   -3.4820 N.ar   17  A17        -0.2193
    150  C8        49.0740   19.3410   -3.9440 C.ar   17  A17         0.1816
    151  N9        49.1630   19.4920   -5.3040 N.ar   17  A17        -0.2693
    152  OP1       44.9840   22.2890   -1.3080 O.2    17  A17        -0.5172
    153  OP2       46.3630   20.2200   -0.7070 O.co2  17  A17        -0.4373
    154  P         43.6540   20.1530   -5.2890 P.3    18  G18         0.2141
    155  C5'       43.0190   18.0550   -6.7400 C.3    18  G18         0.1812
    156  O5'       42.6920   19.3630   -6.2790 O.3    18  G18        -0.3114
    157  C4'       41.8120   17.1530   -6.6200 C.3    18  G18         0.1773
    158  O4'       41.6670   16.6810   -5.2520 O.3    18  G18        -0.3307
    159  C3'       40.4940   17.8360   -6.9360 C.3    18  G18         0.1860
    160  O3'       40.2550   17.8550   -8.3400 O.3    18  G18        -0.3112
    161  C2'       39.4980   16.9890   -6.1540 C.3    18  G18         0.2309
    162  O2'       39.1690   15.7780   -6.7980 O.3    18  G18        -0.2156
    163  C1'       40.2940   16.6930   -4.8800 C.3    18  G18         0.2408
    164  N1        37.0470   19.2240   -1.9060 N.ar   18  G18        -0.1709
    165  C2        36.8090   18.1580   -2.7360 C.ar   18  G18         0.2606
    166  N2        35.5460   17.7350   -2.8000 N.pl3  18  G18        -0.0859
    167  N3        37.7440   17.5550   -3.4480 N.ar   18  G18        -0.1918
    168  C4        38.9580   18.1110   -3.2570 C.ar   18  G18         0.1723
    169  C5        39.3000   19.1720   -2.4460 C.ar   18  G18         0.1748
    170  C6        38.2900   19.8130   -1.6980 C.ar   18  G18         0.3023
    171  O6        38.3960   20.7820   -0.9390 O.2    18  G18        -0.2633
    172  N7        40.6590   19.4380   -2.5250 N.ar   18  G18        -0.2173
    173  C8        41.1080   18.5540   -3.3730 C.ar   18  G18         0.1817
    174  N9        40.1260   17.7330   -3.8710 N.ar   18  G18        -0.2693
    175  OP1       42.9590   21.3890   -4.8410 O.2    18  G18        -0.5172
    176  OP2       44.1610   19.1870   -4.2840 O.co2  18  G18        -0.4373
    177  P         39.4270   19.0720   -8.9940 P.3    19  U19         0.2141
    178  C5'       37.3340   17.5370   -8.6730 C.3    19  U19         0.1812
    179  O5'       37.9390   18.8100   -8.4940 O.3    19  U19        -0.3114
    180  C4'       35.9680   17.5260   -8.0490 C.3    19  U19         0.1773
    181  O4'       36.1010   17.6420   -6.6110 O.3    19  U19        -0.3307
    182  C3'       35.1010   18.7120   -8.4250 C.3    19  U19         0.1860
    183  O3'       34.4570   18.5120   -9.6760 O.3    19  U19        -0.3112
    184  C2'       34.1070   18.7580   -7.2750 C.3    19  U19         0.2309
    185  O2'       33.0550   17.8240   -7.4150 O.3    19  U19        -0.2156
    186  C1'       35.0050   18.3770   -6.0960 C.3    19  U19         0.2420
    187  N1        35.5350   19.5530   -5.4050 N.ar   19  U19        -0.2534
    188  C2        34.6470   20.2910   -4.6590 C.ar   19  U19         0.3546
    189  O2        33.4660   20.0090   -4.5860 O.2    19  U19        -0.2443
    190  N3        35.1910   21.3740   -4.0130 N.ar   19  U19        -0.1530
    191  C4        36.5110   21.7820   -4.0500 C.ar   19  U19         0.2846
    192  O4        36.8590   22.7670   -3.3990 O.2    19  U19        -0.2650
    193  C5        37.3660   20.9680   -4.8640 C.ar   19  U19         0.0814
    194  C6        36.8590   19.9050   -5.4960 C.ar   19  U19         0.0870
    195  OP1       39.4610   18.8840  -10.4680 O.2    19  U19        -0.5172
    196  OP2       39.8830   20.3610   -8.4110 O.co2  19  U19        -0.4373
    197  P         34.0800   19.7840  -10.5760 P.3    20  C20         0.2141
    198  C5'       31.5880   19.7990   -9.7770 C.3    20  C20         0.1812
    199  O5'       32.8500   20.4500   -9.8160 O.3    20  C20        -0.3114
    200  C4'       30.5900   20.6390   -9.0210 C.3    20  C20         0.1773
    201  O4'       30.9270   20.6640   -7.6050 O.3    20  C20        -0.3307
    202  C3'       30.5590   22.1100   -9.3930 C.3    20  C20         0.1860
    203  O3'       29.8190   22.3650  -10.5730 O.3    20  C20        -0.3112
    204  C2'       29.8810   22.7090   -8.1750 C.3    20  C20         0.2309
    205  O2'       28.4950   22.4550   -8.1540 O.3    20  C20        -0.2156
    206  C1'       30.5650   21.9240   -7.0600 C.3    20  C20         0.2420
    207  N1        31.7870   22.6170   -6.6470 N.ar   20  C20        -0.2535
    208  C2        31.6680   23.7410   -5.8310 C.ar   20  C20         0.3532
    209  O2        30.5340   24.1220   -5.4980 O.2    20  C20        -0.2443
    210  N3        32.7820   24.3880   -5.4340 N.ar   20  C20        -0.1739
    211  C4        33.9790   23.9560   -5.8320 C.ar   20  C20         0.1759
    212  N4        35.0490   24.6200   -5.4080 N.pl3  20  C20        -0.1070
    213  C5        34.1280   22.8190   -6.6790 C.ar   20  C20         0.0566
    214  C6        33.0170   22.1820   -7.0540 C.ar   20  C20         0.0850
    215  OP1       33.6110   19.2560  -11.8840 O.2    20  C20        -0.5172
    216  OP2       35.2300   20.7250  -10.5260 O.co2  20  C20        -0.4373
    217  P         30.1310   23.6910  -11.4170 P.3    21  G21         0.2141
    218  C5'       28.2600   25.0720  -10.2080 C.3    21  G21         0.1812
    219  O5'       29.6410   24.8840  -10.4820 O.3    21  G21        -0.3114
    220  C4'       28.0660   26.2140   -9.2380 C.3    21  G21         0.1773
    221  O4'       28.7560   25.9070   -7.9930 O.3    21  G21        -0.3307
    222  C3'       28.6750   27.5510   -9.6270 C.3    21  G21         0.1860
    223  O3'       27.9070   28.2760  -10.5850 O.3    21  G21        -0.3112
    224  C2'       28.7180   28.2580   -8.2800 C.3    21  G21         0.2309
    225  O2'       27.4570   28.7400   -7.8600 O.3    21  G21        -0.2156
    226  C1'       29.1710   27.1160   -7.3730 C.3    21  G21         0.2408
    227  N1        33.1530   29.4880   -5.3680 N.ar   21  G21        -0.1709
    228  C2        31.8100   29.7360   -5.2150 C.ar   21  G21         0.2606
    229  N2        31.4780   30.7840   -4.4410 N.pl3  21  G21        -0.0859
    230  N3        30.8590   29.0180   -5.7790 N.ar   21  G21        -0.1918
    231  C4        31.3600   28.0170   -6.5310 C.ar   21  G21         0.1723
    232  C5        32.6770   27.6800   -6.7540 C.ar   21  G21         0.1748
    233  C6        33.6940   28.4590   -6.1330 C.ar   21  G21         0.3023
    234  O6        34.9230   28.3240   -6.2000 O.2    21  G21        -0.2633
    235  N7        32.7670   26.5790   -7.5980 N.ar   21  G21        -0.2173
    236  C8        31.5230   26.2780   -7.8680 C.ar   21  G21         0.1817
    237  N9        30.6230   27.1200   -7.2610 N.ar   21  G21        -0.2693
    238  OP1       29.2590   23.6420  -12.6220 O.2    21  G21        -0.5172
    239  OP2       31.6030   23.8050  -11.5750 O.co2  21  G21        -0.4373
    240  P         28.6430   29.3370  -11.5530 P.3    22  C22         0.2141
    241  C5'       28.2940   31.2940   -9.8390 C.3    22  C22         0.1813
    242  O5'       29.1920   30.4670  -10.5690 O.3    22  C22        -0.3114
    243  C4'       29.0520   32.3610   -9.0810 C.3    22  C22         0.1801
    244  O4'       29.9560   31.7440   -8.1290 O.3    22  C22        -0.3306
    245  C3'       29.9770   33.2620   -9.8850 C.3    22  C22         0.2161
    246  O3'       29.3300   34.2740  -10.6680 O.3    22  C22        -0.2175
    247  C2'       30.8710   33.8390   -8.7940 C.3    22  C22         0.2338
    248  O2'       30.2570   34.8990   -8.0890 O.3    22  C22        -0.2155
    249  C1'       31.0330   32.6310   -7.8670 C.3    22  C22         0.2421
    250  N1        32.2990   31.9210   -8.0890 N.ar   22  C22        -0.2535
    251  C2        33.4680   32.4720   -7.5640 C.ar   22  C22         0.3532
    252  O2        33.3930   33.5270   -6.9120 O.2    22  C22        -0.2443
    253  N3        34.6470   31.8480   -7.7750 N.ar   22  C22        -0.1739
    254  C4        34.6840   30.7140   -8.4790 C.ar   22  C22         0.1759
    255  N4        35.8770   30.1380   -8.6670 N.pl3  22  C22        -0.1070
    256  C5        33.5070   30.1240   -9.0190 C.ar   22  C22         0.0566
    257  C6        32.3450   30.7530   -8.8000 C.ar   22  C22         0.0850
    258  OP1       27.5830   29.9430  -12.3920 O.2    22  C22        -0.5172
    259  OP2       29.8050   28.6800  -12.2040 O.co2  22  C22        -0.4373
    260  P         44.1620   32.7070   -2.8800 P.3    25  G25         0.1280
    261  C5'       43.0470   35.0070   -2.1120 C.3    25  G25         0.1795
    262  O5'       43.0160   33.8600   -2.9780 O.3    25  G25        -0.3259
    263  C4'       41.7250   35.7290   -2.1720 C.3    25  G25         0.1772
    264  O4'       41.3950   36.0060   -3.5580 O.3    25  G25        -0.3307
    265  C3'       40.5450   34.9260   -1.6560 C.3    25  G25         0.1860
    266  O3'       40.3970   35.0920   -0.2530 O.3    25  G25        -0.3112
    267  C2'       39.3810   35.5500   -2.4020 C.3    25  G25         0.2309
    268  O2'       38.9860   36.7750   -1.8280 O.3    25  G25        -0.2156
    269  C1'       40.0100   35.7910   -3.7720 C.3    25  G25         0.2408
    270  N1        36.8160   33.0030   -6.5230 N.ar   25  G25        -0.1709
    271  C2        36.5660   34.1210   -5.7660 C.ar   25  G25         0.2606
    272  N2        35.3000   34.5590   -5.7410 N.pl3  25  G25        -0.0859
    273  N3        37.4900   34.7650   -5.0840 N.ar   25  G25        -0.1918
    274  C4        38.7040   34.1950   -5.2240 C.ar   25  G25         0.1723
    275  C5        39.0560   33.0820   -5.9570 C.ar   25  G25         0.1748
    276  C6        38.0620   32.4020   -6.6800 C.ar   25  G25         0.3023
    277  O6        38.1830   31.3960   -7.3910 O.2    25  G25        -0.2633
    278  N7        40.4130   32.8240   -5.8400 N.ar   25  G25        -0.2173
    279  C8        40.8530   33.7690   -5.0550 C.ar   25  G25         0.1817
    280  N9        39.8650   34.6340   -4.6470 N.ar   25  G25        -0.2693
    281  OP1       43.8100   31.6680   -3.9410 O.3    25  G25        -0.1955
    282  OP2       44.0480   32.1670   -1.4590 O.co2  25  G25        -0.7863
    283  P         39.6430   33.9650    0.5960 P.3    26  C26         0.2141
    284  C5'       37.3750   35.2710    0.4410 C.3    26  C26         0.1812
    285  O5'       38.1170   34.0950    0.1660 O.3    26  C26        -0.3114
    286  C4'       35.9520   35.1010   -0.0300 C.3    26  C26         0.1773
    287  O4'       35.9180   34.9880   -1.4810 O.3    26  C26        -0.3307
    288  C3'       35.2910   33.8170    0.4310 C.3    26  C26         0.1860
    289  O3'       34.8170   33.9080    1.7690 O.3    26  C26        -0.3112
    290  C2'       34.1660   33.6640   -0.5800 C.3    26  C26         0.2309
    291  O2'       33.0720   34.5020   -0.2930 O.3    26  C26        -0.2156
    292  C1'       34.8540   34.1290   -1.8670 C.3    26  C26         0.2420
    293  N1        35.4130   32.9930   -2.6120 N.ar   26  C26        -0.2535
    294  C2        34.5510   32.1890   -3.3570 C.ar   26  C26         0.3532
    295  O2        33.3430   32.4770   -3.3920 O.2    26  C26        -0.2443
    296  N3        35.0480   31.1180   -4.0160 N.ar   26  C26        -0.1739
    297  C4        36.3500   30.8370   -3.9420 C.ar   26  C26         0.1759
    298  N4        36.7980   29.7530   -4.5860 N.pl3  26  C26        -0.1070
    299  C5        37.2530   31.6510   -3.1990 C.ar   26  C26         0.0566
    300  C6        36.7470   32.7100   -2.5610 C.ar   26  C26         0.0850
    301  OP1       39.7570   34.3250    2.0340 O.3    26  C26        -0.4373
    302  OP2       40.1360   32.6490    0.1210 O.co2  26  C26        -0.5172
    303  P         34.7650   32.5820    2.6730 P.3    27  G27         0.2141
    304  C5'       32.2190   32.4600    2.1000 C.3    27  G27         0.1812
    305  O5'       33.4770   31.8120    2.1480 O.3    27  G27        -0.3114
    306  C4'       31.2070   31.5760    1.4220 C.3    27  G27         0.1773
    307  O4'       31.4910   31.4780    0.0000 O.3    27  G27        -0.3307
    308  C3'       31.1920   30.1280    1.8650 C.3    27  G27         0.1860
    309  O3'       30.5240   29.9640    3.1110 O.3    27  G27        -0.3112
    310  C2'       30.4450   29.4740    0.7100 C.3    27  G27         0.2309
    311  O2'       29.0530   29.7020    0.7760 O.3    27  G27        -0.2156
    312  C1'       31.0300   30.2270   -0.4900 C.3    27  G27         0.2408
    313  N1        32.4980   26.4310   -3.5320 N.ar   27  G27        -0.1709
    314  C2        31.2320   26.8780   -3.2450 C.ar   27  G27         0.2606
    315  N2        30.2220   26.2140   -3.8280 N.pl3  27  G27        -0.0859
    316  N3        30.9720   27.9000   -2.4470 N.ar   27  G27        -0.1918
    317  C4        32.0980   28.4560   -1.9550 C.ar   27  G27         0.1723
    318  C5        33.4070   28.0910   -2.1810 C.ar   27  G27         0.1748
    319  C6        33.6740   26.9830   -3.0310 C.ar   27  G27         0.3023
    320  O6        34.7720   26.4910   -3.3390 O.2    27  G27        -0.2633
    321  N7        34.2780   28.9160   -1.4790 N.ar   27  G27        -0.2173
    322  C8        33.4960   29.7490   -0.8470 C.ar   27  G27         0.1817
    323  N9        32.1610   29.5160   -1.0780 N.ar   27  G27        -0.2693
    324  OP1       34.5460   32.9780    4.0850 O.3    27  G27        -0.4373
    325  OP2       35.9500   31.7620    2.3150 O.co2  27  G27        -0.5172
    326  P         30.6760   28.5790    3.9150 P.3    28  U28         0.2141
    327  C5'       30.0270   26.1970    3.0620 C.3    28  U28         0.1812
    328  O5'       29.7840   27.5890    3.0540 O.3    28  U28        -0.3114
    329  C4'       29.0710   25.5180    2.1220 C.3    28  U28         0.1773
    330  O4'       29.3310   25.9610    0.7580 O.3    28  U28        -0.3307
    331  C3'       29.2080   24.0130    2.0450 C.3    28  U28         0.1860
    332  O3'       28.5280   23.3980    3.1300 O.3    28  U28        -0.3112
    333  C2'       28.5590   23.7310    0.6990 C.3    28  U28         0.2309
    334  O2'       27.1530   23.8480    0.7500 O.3    28  U28        -0.2156
    335  C1'       29.1300   24.8790   -0.1370 C.3    28  U28         0.2420
    336  N1        30.4310   24.5140   -0.7080 N.ar   28  U28        -0.2534
    337  C2        30.4410   23.5570   -1.7020 C.ar   28  U28         0.3546
    338  O2        29.4210   23.0440   -2.1330 O.2    28  U28        -0.2443
    339  N3        31.6860   23.2210   -2.1700 N.ar   28  U28        -0.1530
    340  C4        32.8970   23.7340   -1.7530 C.ar   28  U28         0.2846
    341  O4        33.9390   23.2460   -2.1910 O.2    28  U28        -0.2650
    342  C5        32.8030   24.7380   -0.7350 C.ar   28  U28         0.0814
    343  C6        31.6010   25.0850   -0.2580 C.ar   28  U28         0.0870
    344  OP1       30.0410   28.7380    5.2500 O.3    28  U28        -0.4373
    345  OP2       32.0900   28.1260    3.8280 O.co2  28  U28        -0.5172
    346  P         29.3180   22.3670    4.0720 P.3    29  C29         0.2141
    347  C5'       29.0170   20.6320    2.1670 C.3    29  C29         0.1812
    348  O5'       29.8990   21.2950    3.0520 O.3    29  C29        -0.3114
    349  C4'       29.7780   19.8410    1.1380 C.3    29  C29         0.1773
    350  O4'       30.5830   20.7080    0.2920 O.3    29  C29        -0.3307
    351  C3'       30.8170   18.8650    1.6430 C.3    29  C29         0.1860
    352  O3'       30.2230   17.7150    2.2190 O.3    29  C29        -0.3112
    353  C2'       31.5290   18.5410    0.3410 C.3    29  C29         0.2309
    354  O2'       30.7200   17.7180   -0.4730 O.3    29  C29        -0.2156
    355  C1'       31.6250   19.9340   -0.2880 C.3    29  C29         0.2420
    356  N1        32.9260   20.5570    0.0060 N.ar   29  C29        -0.2535
    357  C2        34.0420   20.0920   -0.6950 C.ar   29  C29         0.3532
    358  O2        33.8830   19.1890   -1.5320 O.2    29  C29        -0.2443
    359  N3        35.2590   20.6280   -0.4470 N.ar   29  C29        -0.1739
    360  C4        35.3850   21.5990    0.4570 C.ar   29  C29         0.1759
    361  N4        36.6080   22.0990    0.6590 N.pl3  29  C29        -0.1070
    362  C5        34.2630   22.0990    1.1920 C.ar   29  C29         0.0566
    363  C6        33.0600   21.5520    0.9360 C.ar   29  C29         0.0850
    364  OP1       28.3090   21.6620    4.9050 O.3    29  C29        -0.4373
    365  OP2       30.4470   23.0810    4.7160 O.co2  29  C29        -0.5172
    366  P         31.0430   16.8710    3.3070 P.3    30  A30         0.2141
    367  C5'       31.8700   15.2680    1.4240 C.3    30  A30         0.1812
    368  O5'       32.1870   16.1760    2.4600 O.3    30  A30        -0.3114
    369  C4'       33.1350   14.7770    0.7850 C.3    30  A30         0.1773
    370  O4'       33.7960   15.8800    0.1120 O.3    30  A30        -0.3307
    371  C3'       34.1890   14.3000    1.7630 C.3    30  A30         0.1860
    372  O3'       33.9060   12.9820    2.1880 O.3    30  A30        -0.3112
    373  C2'       35.4430   14.3670    0.9080 C.3    30  A30         0.2309
    374  O2'       35.5410   13.2730    0.0180 O.3    30  A30        -0.2156
    375  C1'       35.1980   15.6630    0.1310 C.3    30  A30         0.2408
    376  N1        39.5730   18.2020    0.8900 N.ar   30  A30        -0.2040
    377  C2        39.2710   17.1160    0.1630 C.ar   30  A30         0.2016
    378  N3        38.1000   16.5150    0.0010 N.ar   30  A30        -0.2048
    379  C4        37.1450   17.1460    0.7030 C.ar   30  A30         0.1692
    380  C5        37.2980   18.2660    1.4990 C.ar   30  A30         0.1518
    381  C6        38.5860   18.8110    1.5850 C.ar   30  A30         0.1919
    382  N6        38.8900   19.8880    2.3190 N.pl3  30  A30        -0.1054
    383  N7        36.0870   18.6280    2.0770 N.ar   30  A30        -0.2193
    384  C8        35.2420   17.7330    1.6230 C.ar   30  A30         0.1816
    385  N9        35.8200   16.8020    0.7900 N.ar   30  A30        -0.2693
    386  OP1       30.1290   15.8300    3.8380 O.2    30  A30        -0.5172
    387  OP2       31.7310   17.7880    4.2400 O.co2  30  A30        -0.4373
    388  P         34.4160   12.4860    3.6280 P.3    31  C31         0.2141
    389  C5'       36.6520   11.5030    2.6720 C.3    31  C31         0.1812
    390  O5'       36.0020   12.4780    3.4810 O.3    31  C31        -0.3114
    391  C4'       38.1480   11.6860    2.7340 C.3    31  C31         0.1773
    392  O4'       38.5160   12.9540    2.1280 O.3    31  C31        -0.3307
    393  C3'       38.7210   11.7930    4.1320 C.3    31  C31         0.1860
    394  O3'       38.8970   10.5160    4.7230 O.3    31  C31        -0.3112
    395  C2'       40.0480   12.4870    3.8710 C.3    31  C31         0.2309
    396  O2'       41.0260   11.6050    3.3740 O.3    31  C31        -0.2156
    397  C1'       39.6470   13.4940    2.7930 C.3    31  C31         0.2420
    398  N1        39.2660   14.7910    3.3720 N.ar   31  C31        -0.2535
    399  C2        40.2680   15.7170    3.6620 C.ar   31  C31         0.3532
    400  O2        41.4470   15.4130    3.4330 O.2    31  C31        -0.2443
    401  N3        39.9350   16.9130    4.1900 N.ar   31  C31        -0.1739
    402  C4        38.6620   17.1980    4.4350 C.ar   31  C31         0.1759
    403  N4        38.3810   18.4010    4.9430 N.pl3  31  C31        -0.1070
    404  C5        37.6150   16.2660    4.1620 C.ar   31  C31         0.0566
    405  C6        37.9600   15.0880    3.6300 C.ar   31  C31         0.0850
    406  OP1       33.9600   11.0820    3.7760 O.2    31  C31        -0.5172
    407  OP2       34.0340   13.4900    4.6530 O.co2  31  C31        -0.4373
    408  P         38.8350   10.3770    6.3170 P.3    32  A32         0.2141
    409  C5'       41.4400   10.5430    6.5100 C.3    32  A32         0.1812
    410  O5'       40.1670   11.1010    6.8040 O.3    32  A32        -0.3114
    411  C4'       42.5380   11.4470    7.0060 C.3    32  A32         0.1773
    412  O4'       42.4990   12.7120    6.3030 O.3    32  A32        -0.3307
    413  C3'       42.4310   11.8580    8.4600 C.3    32  A32         0.1860
    414  O3'       42.9070   10.8190    9.3030 O.3    32  A32        -0.3112
    415  C2'       43.3160   13.0980    8.4950 C.3    32  A32         0.2309
    416  O2'       44.7030   12.8090    8.5050 O.3    32  A32        -0.2156
    417  C1'       42.9480   13.7520    7.1640 C.3    32  A32         0.2408
    418  N1        41.5970   18.5390    8.4930 N.ar   32  A32        -0.2040
    419  C2        42.7780   17.9150    8.4820 C.ar   32  A32         0.2016
    420  N3        43.0670   16.6620    8.1290 N.ar   32  A32        -0.2048
    421  C4        41.9570   16.0110    7.7470 C.ar   32  A32         0.1692
    422  C5        40.6720   16.5180    7.7080 C.ar   32  A32         0.1518
    423  C6        40.5000   17.8550    8.1010 C.ar   32  A32         0.1919
    424  N6        39.3150   18.4820    8.1040 N.pl3  32  A32        -0.1054
    425  N7        39.7780   15.5540    7.2690 N.ar   32  A32        -0.2193
    426  C8        40.5310   14.5020    7.0520 C.ar   32  A32         0.1816
    427  N9        41.8590   14.7110    7.3140 N.ar   32  A32        -0.2693
    428  OP1       38.9320    8.9300    6.6370 O.2    32  A32        -0.5172
    429  OP2       37.6600   11.1540    6.7800 O.co2  32  A32        -0.4373
    430  P         42.3460   10.7010   10.7990 P.3    33  C33         0.2141
    431  C5'       44.4890   11.9660   11.5860 C.3    33  C33         0.1812
    432  O5'       43.0700   11.9050   11.5380 O.3    33  C33        -0.3114
    433  C4'       44.9250   13.3200   12.0770 C.3    33  C33         0.1773
    434  O4'       44.4750   14.3330   11.1380 O.3    33  C33        -0.3307
    435  C3'       44.3020   13.7590   13.3890 C.3    33  C33         0.1860
    436  O3'       44.9960   13.1930   14.4940 O.3    33  C33        -0.3112
    437  C2'       44.4590   15.2690   13.3110 C.3    33  C33         0.2309
    438  O2'       45.7880   15.6790   13.5670 O.3    33  C33        -0.2156
    439  C1'       44.1380   15.5170   11.8380 C.3    33  C33         0.2420
    440  N1        42.7200   15.8200   11.5870 N.ar   33  C33        -0.2535
    441  C2        42.2890   17.1280   11.7480 C.ar   33  C33         0.3532
    442  O2        43.1080   17.9730   12.1250 O.2    33  C33        -0.2443
    443  N3        40.9990   17.4450   11.4960 N.ar   33  C33        -0.1739
    444  C4        40.1480   16.5010   11.0990 C.ar   33  C33         0.1759
    445  N4        38.8850   16.8640   10.8370 N.pl3  33  C33        -0.1070
    446  C5        40.5540   15.1410   10.9440 C.ar   33  C33         0.0566
    447  C6        41.8420   14.8490   11.1970 C.ar   33  C33         0.0850
    448  OP1       42.8620    9.4280   11.3550 O.3    33  C33        -0.4373
    449  OP2       40.8890   10.9520   10.7660 O.co2  33  C33        -0.5172
    450  P         44.2240   12.9740   15.8910 P.3    34  C34         0.2141
    451  C5'       45.3120   15.0860   16.9930 C.3    34  C34         0.1812
    452  O5'       44.1410   14.4410   16.5070 O.3    34  C34        -0.3114
    453  C4'       45.0060   16.5150   17.3510 C.3    34  C34         0.1773
    454  O4'       44.4930   17.1910   16.1750 O.3    34  C34        -0.3307
    455  C3'       43.9060   16.7230   18.3780 C.3    34  C34         0.1860
    456  O3'       44.4130   16.5940   19.7010 O.3    34  C34        -0.3112
    457  C2'       43.4980   18.1590   18.0880 C.3    34  C34         0.2309
    458  O2'       44.4590   19.0690   18.5760 O.3    34  C34        -0.2156
    459  C1'       43.5530   18.1760   16.5620 C.3    34  C34         0.2420
    460  N1        42.2670   17.8420   15.9430 N.ar   34  C34        -0.2535
    461  C2        41.3270   18.8530   15.7610 C.ar   34  C34         0.3532
    462  O2        41.6060   20.0110   16.1330 O.2    34  C34        -0.2443
    463  N3        40.1430   18.5530   15.1830 N.ar   34  C34        -0.1739
    464  C4        39.8920   17.3040   14.7880 C.ar   34  C34         0.1759
    465  N4        38.7220   17.0580   14.2050 N.pl3  34  C34        -0.1070
    466  C5        40.8310   16.2550   14.9690 C.ar   34  C34         0.0566
    467  C6        41.9950   16.5650   15.5460 C.ar   34  C34         0.0850
    468  OP1       45.1370   12.1690   16.7350 O.3    34  C34        -0.4373
    469  OP2       42.8390   12.5020   15.6510 O.co2  34  C34        -0.5172
    470  P         43.4290   16.1370   20.8890 P.3    35  G35         0.2141
    471  C5'       43.1860   18.6320   21.6540 C.3    35  G35         0.1813
    472  O5'       42.5670   17.4330   21.2090 O.3    35  G35        -0.3114
    473  C4'       42.1720   19.7490   21.7020 C.3    35  G35         0.1801
    474  O4'       41.7170   20.0600   20.3590 O.3    35  G35        -0.3306
    475  C3'       40.9010   19.4200   22.4590 C.3    35  G35         0.2161
    476  O3'       41.0960   19.6430   23.8520 O.3    35  G35        -0.2175
    477  C2'       39.9080   20.4010   21.8530 C.3    35  G35         0.2337
    478  O2'       40.0430   21.7030   22.3800 O.3    35  G35        -0.2155
    479  C1'       40.3430   20.4030   20.3870 C.3    35  G35         0.2409
    480  N1        36.1400   19.5160   17.6760 N.ar   35  G35        -0.1709
    481  C2        36.4720   20.6060   18.4310 C.ar   35  G35         0.2606
    482  N2        35.5650   21.5950   18.4670 N.pl3  35  G35        -0.0859
    483  N3        37.6030   20.7210   19.1040 N.ar   35  G35        -0.1918
    484  C4        38.3840   19.6280   18.9750 C.ar   35  G35         0.1723
    485  C5        38.1420   18.4790   18.2540 C.ar   35  G35         0.1748
    486  C6        36.9240   18.3800   17.5170 C.ar   35  G35         0.3023
    487  O6        36.5190   17.4550   16.7960 O.2    35  G35        -0.2633
    488  N7        39.1970   17.5820   18.3880 N.ar   35  G35        -0.2173
    489  C8        40.0480   18.1950   19.1670 C.ar   35  G35         0.1817
    490  N9        39.6220   19.4460   19.5520 N.ar   35  G35        -0.2693
    491  OP1       44.2730   15.8020   22.0590 O.3    35  G35        -0.4373
    492  OP2       42.4830   15.1250   20.3500 O.co2  35  G35        -0.5172
    493  C1        37.1730   22.5510    6.6110 C.3    53  RIO53       0.2142
    494  N1        28.2960   19.1430    6.9100 N.3    53  RIO53      -0.1301
    495  O1        37.4690   22.6450    8.0030 O.3    53  RIO53      -0.2176
    496  C2        36.5140   21.1900    6.4030 C.3    53  RIO53       0.1836
    497  N2        29.8950   23.4490    9.1170 N.3    53  RIO53      -0.1302
    498  O2        35.3090   20.9510    7.3070 O.3    53  RIO53      -0.3256
    499  C3        34.3820   20.1100    6.7330 C.3    53  RIO53       0.2695
    500  N3        31.0870   26.7330    6.9290 N.3    53  RIO53      -0.1286
    501  O3        33.1130   20.6990    6.5780 O.3    53  RIO53      -0.3258
    502  C4        31.9460   20.6490    7.5070 C.3    53  RIO53       0.1779
    503  N4        35.2180   22.5580    9.6580 N.3    53  RIO53      -0.1248
    504  O4        31.2120   18.5740    6.4120 O.3    53  RIO53      -0.2189
    505  C5        30.7980   19.9370    6.7580 C.3    53  RIO53       0.1989
    506  O5        32.5110   22.7410    8.5760 O.3    53  RIO53      -0.3278
    507  C6        29.4710   19.8640    7.6660 C.3    53  RIO53       0.1261
    508  O6        33.1240   24.8050    7.4790 O.3    53  RIO53      -0.3276
    509  C7        29.0630   21.3600    8.0410 C.3    53  RIO53       0.0433
    510  O7        33.3520   27.0480   10.4400 O.3    53  RIO53      -0.2177
    511  C8        30.3000   22.0470    8.7830 C.3    53  RIO53       0.1230
    512  O8        35.3750   25.1320   11.1000 O.3    53  RIO53      -0.2186
    513  C9        31.4880   22.1310    7.8860 C.3    53  RIO53       0.1649
    514  O9        35.6390   18.4770    5.5210 O.3    53  RIO53      -0.2149
    515  C10       33.6230   23.4820    8.0270 C.3    53  RIO53       0.2561
    516  O10       36.8410   20.5050    4.0280 O.3    53  RIO53      -0.2175
    517  C11       32.6290   25.8330    8.5060 C.3    53  RIO53       0.1696
    518  C12       32.1710   27.1130    7.8120 C.3    53  RIO53       0.1415
    519  C13       33.7810   26.1240    9.4830 C.3    53  RIO53       0.2122
    520  C14       34.2540   24.8420   10.1600 C.3    53  RIO53       0.2070
    521  C15       34.7180   23.8530    9.0620 C.3    53  RIO53       0.1807
    522  C16       34.9940   19.7000    5.3980 C.3    53  RIO53       0.2404
    523  C17       35.8790   20.9310    5.0310 C.3    53  RIO53       0.2168
@<TRIPOS>BOND
     1   493   496    1
     2   493   495    1
     3   494   507    1
     4   496   498    1
     5   496   523    1
     6   497   511    1
     7   498   499    1
     8   499   501    1
     9   499   522    1
    10   500   518    1
    11   501   502    1
    12   502   505    1
    13   502   513    1
    14   503   521    1
    15   504   505    1
    16   505   507    1
    17   506   515    1
    18   506   513    1
    19   507   509    1
    20   508   517    1
    21   508   515    1
    22   509   511    1
    23   510   519    1
    24   511   513    1
    25   512   520    1
    26   514   522    1
    27   515   521    1
    28   516   523    1
    29   517   518    1
    30   517   519    1
    31   519   520    1
    32   520   521    1
    33   522   523    1
    34   238   217    2
    35   258   240    2
    36   259   240    1
    37   215   197    2
    38   239   217    1
    39   240   223    1
    40   240   242    1
    41   217   203    1
    42   217   219    1
    43   246   245    1
    44   223   222    1
    45   197   216    1
    46   197   199    1
    47   197   183    1
    48   203   202    1
    49   242   241    1
    50   219   218    1
    51   195   177    2
    52   218   220    1
    53   245   243    1
    54   245   247    1
    55   241   243    1
    56   199   198    1
    57   198   200    1
    58   183   182    1
    59   222   220    1
    60   222   224    1
    61   202   200    1
    62   202   204    1
    63   220   221    1
    64   243   244    1
    65   200   201    1
    66   256   257   ar
    67   256   254   ar
    68   177   179    1
    69   177   196    1
    70   177   160    1
    71   257   250   ar
    72   247   248    1
    73   247   249    1
    74   178   179    1
    75   178   180    1
    76   255   254    1
    77   254   253   ar
    78   182   180    1
    79   182   184    1
    80   160   159    1
    81   224   225    1
    82   224   226    1
    83   204   205    1
    84   204   206    1
    85   244   249    1
    86   250   249    1
    87   250   251   ar
    88   180   181    1
    89   140   139    1
    90   221   226    1
    91   236   235   ar
    92   236   237   ar
    93   253   251   ar
    94   201   206    1
    95   235   232   ar
    96   251   252    2
    97   185   184    1
    98   277   276    2
    99   226   237    1
   100   184   186    1
   101   237   231   ar
   102   206   207    1
   103   214   213   ar
   104   214   207   ar
   105   143   144   ar
   106   143   142   ar
   107   144   145   ar
   108   159   157    1
   109   159   161    1
   110   162   161    1
   111   232   231   ar
   112   232   233   ar
   113   155   157    1
   114   155   156    1
   115   139   141    1
   116   139   137    1
   117   276   270   ar
   118   276   275   ar
   119   213   211   ar
   120   207   208   ar
   121   157   158    1
   122   181   186    1
   123   231   230   ar
   124   270   271   ar
   125   156   154    1
   126   234   233    2
   127   138   137    1
   128   138   154    1
   129   161   163    1
   130   233   227   ar
   131   141   136    1
   132   141   151    1
   133   186   187    1
   134   142   147   ar
   135   275   278   ar
   136   275   274   ar
   137   278   279   ar
   138   211   210   ar
   139   211   212    1
   140   208   209    2
   141   208   210   ar
   142   230   228   ar
   143   271   272    1
   144   271   273   ar
   145   145   151   ar
   146   145   146   ar
   147   137   135    1
   148   194   187   ar
   149   194   193   ar
   150   121   120   ar
   151   121   122   ar
   152   187   188   ar
   153   227   228   ar
   154   120   125   ar
   155   136   135    1
   156   151   150   ar
   157   154   175    2
   158   154   176    1
   159   135   133    1
   160   158   163    1
   161   274   273   ar
   162   274   280   ar
   163   228   229    1
   164   279   280   ar
   165   163   174    1
   166   193   191   ar
   167   147   146   ar
   168   147   148    1
   169   188   189    2
   170   188   190   ar
   171   280   269    1
   172   146   149   ar
   173   298   297    1
   174   122   123   ar
   175   125   126    1
   176   125   124   ar
   177   191   190   ar
   178   191   192    2
   179   296   297   ar
   180   296   294   ar
   181   150   149   ar
   182   297   299   ar
   183   281   260    1
   184   133   134    1
   185   174   173   ar
   186   174   168   ar
   187   315   314    1
   188   269   264    1
   189   269   267    1
   190   264   263    1
   191   313   314   ar
   192   313   319   ar
   193   167   168   ar
   194   167   165   ar
   195   295   294    2
   196   173   172   ar
   197   294   293   ar
   198   320   319    2
   199   123   124   ar
   200   123   129   ar
   201   168   169   ar
   202   314   316   ar
   203   299   300   ar
   204   124   127   ar
   205   319   318   ar
   206   262   260    1
   207   262   261    1
   208   134   132    1
   209   260   282    1
   210   166   165    1
   211   165   164   ar
   212   293   300   ar
   213   293   292    1
   214   118   117    1
   215   172   169   ar
   216   316   317   ar
   217   169   170   ar
   218   267   268    1
   219   267   265    1
   220   341   340    2
   221   318   317   ar
   222   318   321   ar
   223   263   261    1
   224   263   265    1
   225   339   340   ar
   226   339   337   ar
   227   117   119    1
   228   117   115    1
   229   338   337    2
   230   129   119    1
   231   129   128   ar
   232   317   323   ar
   233   164   170   ar
   234   292   287    1
   235   292   290    1
   236   119   114    1
   237   340   342   ar
   238   337   336   ar
   239   170   171    2
   240   127   128   ar
   241   265   266    1
   242   358   357    2
   243   287   286    1
   244   321   322   ar
   245   132   152    2
   246   132   116    1
   247   132   153    1
   248   323   322   ar
   249   323   312    1
   250   115   116    1
   251   115   113    1
   252   342   343   ar
   253   336   343   ar
   254   336   335    1
   255   357   359   ar
   256   357   356   ar
   257   290   291    1
   258   290   288    1
   259   312   307    1
   260   312   310    1
   261   354   353    1
   262   359   360   ar
   263   114   113    1
   264   355   356    1
   265   355   350    1
   266   355   353    1
   267   266   283    1
   268   335   333    1
   269   335   330    1
   270   286   288    1
   271   286   284    1
   272   307   306    1
   273   378   377   ar
   274   378   379   ar
   275   356   363   ar
   276   374   373    1
   277   370   375    1
   278   370   369    1
   279   302   283    2
   280   375   385    1
   281   375   373    1
   282   377   376   ar
   283   285   284    1
   284   285   283    1
   285   113   111    1
   286   350   349    1
   287   353   351    1
   288   288   289    1
   289   360   361    1
   290   360   362   ar
   291   283   301    1
   292   333   334    1
   293   333   331    1
   294   379   385   ar
   295   379   380   ar
   296   310   311    1
   297   310   308    1
   298   330   329    1
   299   369   367    1
   300   369   371    1
   301   385   384   ar
   302   376   381   ar
   303   373   371    1
   304   363   362   ar
   305   349   351    1
   306   349   347    1
   307   306   308    1
   308   306   304    1
   309   367   368    1
   310   380   381   ar
   311   380   383   ar
   312   111   112    1
   313   381   382    1
   314   384   383   ar
   315   351   352    1
   316   371   372    1
   317   289   303    1
   318   308   309    1
   319   331   329    1
   320   331   332    1
   321   304   305    1
   322   329   327    1
   323   392   391    1
   324   392   397    1
   325   305   303    1
   326   347   348    1
   327   372   388    1
   328   352   366    1
   329   325   303    2
   330   112   110    1
   331   368   366    1
   332   389   391    1
   333   389   390    1
   334   303   324    1
   335   391   393    1
   336   397   398    1
   337   397   395    1
   338   348   346    1
   339   328   327    1
   340   328   326    1
   341   309   326    1
   342   332   346    1
   343   366   386    2
   344   366   387    1
   345   398   405   ar
   346   398   399   ar
   347   396   395    1
   348   400   399    2
   349   390   388    1
   350   388   406    2
   351   388   407    1
   352   405   404   ar
   353   130   110    2
   354   399   401   ar
   355   110   131    1
   356   110    93    1
   357   345   326    2
   358   395   393    1
   359   326   344    1
   360   346   365    2
   361   346   364    1
   362   393   394    1
   363   404   402   ar
   364   401   402   ar
   365   402   403    1
   366   394   408    1
   367    99    98    1
   368    93    92    1
   369    97    98   ar
   370    97   103   ar
   371   104   103    2
   372    98   100   ar
   373   103   102   ar
   374    94    95    1
   375    94    92    1
   376    94    96    1
   377    92    90    1
   378   100   101   ar
   379   102   101   ar
   380   102   105   ar
   381   101   107   ar
   382   105   106   ar
   383   412   411    1
   384   412   417    1
   385   408   428    2
   386   408   429    1
   387   408   410    1
   388   107   106   ar
   389   107    96    1
   390   409   410    1
   391   409   411    1
   392    96    91    1
   393   109    87    2
   394   411   413    1
   395   426   425   ar
   396   426   427   ar
   397    90    88    1
   398    90    91    1
   399   417   427    1
   400   417   415    1
   401    89    87    1
   402    89    88    1
   403   425   422   ar
   404   427   421   ar
   405   108    87    1
   406    87    73    1
   407   422   421   ar
   408   422   423   ar
   409   421   420   ar
   410   423   424    1
   411   423   418   ar
   412   420   419   ar
   413    82    81    2
   414   413   415    1
   415   413   414    1
   416   419   418   ar
   417   415   416    1
   418    81    80   ar
   419    81    83   ar
   420    80    78   ar
   421    73    72    1
   422   414   430    1
   423    83    84   ar
   424    72    74    1
   425    72    70    1
   426    86    67    2
   427    78    79    2
   428    78    77   ar
   429    74    75    1
   430    74    76    1
   431    84    77   ar
   432    77    76    1
   433    69    67    1
   434    69    68    1
   435    67    85    1
   436    67    50    1
   437   449   430    2
   438    61    60    2
   439   430   448    1
   440   430   432    1
   441   445   444    1
   442   446   444   ar
   443   446   447   ar
   444    76    71    1
   445    19     1    1
   446    20     1    1
   447   444   443   ar
   448   434   439    1
   449   434   433    1
   450    70    68    1
   451    70    71    1
   452   447   440   ar
   453    60    59   ar
   454    60    54   ar
   455   443   441   ar
   456   432   431    1
   457   431   433    1
   458   440   441   ar
   459   440   439    1
   460    66    44    2
   461    62    59   ar
   462    62    63   ar
   463    43    21    2
   464     1     3    1
   465   441   442    2
   466   439   437    1
   467    59    58   ar
   468    54    55   ar
   469   433   435    1
   470    42    21    1
   471    50    49    1
   472    63    64   ar
   473    49    51    1
   474    49    47    1
   475    45    47    1
   476    45    46    1
   477    21    23    1
   478    21     7    1
   479    58    64   ar
   480    58    57   ar
   481    55    56    1
   482    55    57   ar
   483    65    44    1
   484    44    46    1
   485    44    27    1
   486     3     2    1
   487    64    53    1
   488    51    53    1
   489    51    52    1
   490    47    48    1
   491   437   435    1
   492   437   438    1
   493   435   436    1
   494    23    22    1
   495    38    37    2
   496     2     4    1
   497     7     6    1
   498    53    48    1
   499    39    40   ar
   500    39    36   ar
   501    27    26    1
   502   465   464    1
   503    37    36   ar
   504    37    31   ar
   505    40    41   ar
   506     6     4    1
   507     6     8    1
   508    17    18   ar
   509    17    15   ar
   510    26    28    1
   511    26    24    1
   512    36    35   ar
   513   436   450    1
   514    22    24    1
   515    18    11   ar
   516     4     5    1
   517   464   466   ar
   518   464   463   ar
   519    16    15    1
   520    31    32   ar
   521   466   467   ar
   522    15    14   ar
   523    41    35   ar
   524    41    30    1
   525    35    34   ar
   526   463   461   ar
   527    28    30    1
   528    28    29    1
   529    24    25    1
   530   467   460   ar
   531     8    10    1
   532     8     9    1
   533     5    10    1
   534   469   450    2
   535    11    10    1
   536    11    12   ar
   537    32    34   ar
   538    32    33    1
   539   461   460   ar
   540   461   462    2
   541    30    25    1
   542   450   452    1
   543   450   468    1
   544   460   459    1
   545    14    12   ar
   546   454   459    1
   547   454   453    1
   548    12    13    2
   549   452   451    1
   550   459   457    1
   551   487   486    2
   552   451   453    1
   553   453   455    1
   554   486   480   ar
   555   486   485   ar
   556   480   481   ar
   557   457   455    1
   558   457   458    1
   559   485   488   ar
   560   485   484   ar
   561   455   456    1
   562   488   489   ar
   563   481   482    1
   564   481   483   ar
   565   484   483   ar
   566   484   490   ar
   567   489   490   ar
   568   490   479    1
   569   456   470    1
   570   492   470    2
   571   474   479    1
   572   474   473    1
   573   479   477    1
   574   470   472    1
   575   470   491    1
   576   472   471    1
   577   471   473    1
   578   473   475    1
   579   477   478    1
   580   477   475    1
   581   475   476    1
