ligand
  PyMOL2.2          3D                             0

 26 27  0  0  0  0  0  0  0  0999 V2000
   16.5910   39.6480   64.6850 C   0  0  0  0  0  0  0  0  0  0  0  0
   23.3470   40.9580   65.0150 C   0  0  0  0  0  0  0  0  0  0  0  0
   27.9170   39.6650   68.4430 P   0  0  0  0  0  0  0  0  0  0  0  0
   30.3740   39.1060   67.8620 P   0  0  0  0  0  0  0  0  0  0  0  0
   21.3950   41.8180   66.8370 C   0  0  0  0  0  0  0  0  0  0  0  0
   19.9030   39.8820   66.2560 C   0  0  0  0  0  0  0  0  0  0  0  0
   20.1230   41.2450   66.2670 C   0  0  0  0  0  0  0  0  0  0  0  0
   19.1370   42.0790   65.7370 C   0  0  0  0  0  0  0  0  0  0  0  0
   19.3100   43.4550   65.7240 N   0  0  0  0  0  0  0  0  0  0  0  0
   18.0310   41.5340   65.2390 N   0  0  0  0  0  0  0  0  0  0  0  0
   17.8600   40.2280   65.2530 C   0  0  0  0  0  0  0  0  0  0  0  0
   18.7720   39.4130   65.7460 N   0  0  0  0  0  0  0  0  0  0  0  0
   27.7410   39.2670   69.8580 O   0  5  0  0  0  0  0  0  0  0  0  0
   30.5200   39.8570   69.2040 O   0  0  0  0  0  0  0  0  0  0  0  0
   23.4140   38.9730   68.3910 S   0  0  0  0  0  0  0  0  0  0  0  0
   22.1620   40.1770   68.4070 C   0  0  0  0  0  0  0  0  0  0  0  0
   28.6040   41.1180   68.3750 O   0  0  0  0  0  0  0  0  0  0  0  0
   31.3750   37.8460   67.8390 O   0  5  0  0  0  0  0  0  0  0  0  0
   22.2930   40.7270   67.2220 N   0  0  0  0  0  0  0  0  0  0  0  0
   28.8570   38.5910   67.6970 O   0  0  0  0  0  0  0  0  0  0  0  0
   30.7220   40.0610   66.6980 O   0  0  0  0  0  0  0  0  0  0  0  0
   23.2100   40.3170   66.3730 C   0  0  0  0  0  0  0  0  0  0  0  0
   24.0360   39.3080   66.7500 C   0  0  0  0  0  0  0  0  0  0  0  0
   25.1610   38.6510   65.9940 C   0  0  0  0  0  0  0  0  0  0  0  0
   26.3930   38.5480   66.8960 C   0  0  0  0  0  0  0  0  0  0  0  0
   26.4810   39.7150   67.7160 O   0  0  0  0  0  0  0  0  0  0  0  0
  3 13  1  0  0  0  0
  3 17  2  0  0  0  0
  3 20  1  0  0  0  0
  4 14  1  0  0  0  0
  4 18  1  0  0  0  0
  4 21  2  0  0  0  0
  5 19  1  0  0  0  0
  5  7  1  0  0  0  0
  6  7  4  0  0  0  0
  7  8  4  0  0  0  0
  8  9  1  0  0  0  0
  8 10  4  0  0  0  0
  1 11  1  0  0  0  0
 10 11  4  0  0  0  0
  6 12  4  0  0  0  0
 11 12  4  0  0  0  0
 15 23  4  0  0  0  0
 15 16  4  0  0  0  0
 16 19  4  0  0  0  0
 19 22  4  0  0  0  0
  4 20  1  0  0  0  0
  2 22  1  0  0  0  0
 22 23  4  0  0  0  0
 23 24  1  0  0  0  0
 24 25  1  0  0  0  0
 25 26  1  0  0  0  0
  3 26  1  0  0  0  0
M  END
$$$$
