ligand
 OpenBabel11021811433D
libRbt.so/2013.1/901 2013/11/27
 26 27  0  0  0  0  0  0  0  0999 V2000
   16.3575   38.9807   64.2178 C   0  0  0  0  0  0  0  0  0  0  0  0
   23.0168   40.9430   65.3262 C   0  0  0  0  0  0  0  0  0  0  0  0
   27.8680   39.6066   68.4215 P   0  0  1  0  0  0  0  0  0  0  0  0
   30.1704   38.7697   67.5938 P   0  0  1  0  0  0  0  0  0  0  0  0
   20.7439   41.4307   66.8964 C   0  0  0  0  0  0  0  0  0  0  0  0
   19.5111   39.4115   66.0512 C   0  0  0  0  0  0  0  0  0  0  0  0
   19.5824   40.7836   66.1871 C   0  0  0  0  0  0  0  0  0  0  0  0
   18.5507   41.5564   65.6511 C   0  0  0  0  0  0  0  0  0  0  0  0
   18.5756   42.9387   65.7607 N   0  0  0  0  0  0  0  0  0  0  0  0
   17.5459   40.9475   65.0283 N   0  0  0  0  0  0  0  0  0  0  0  0
   17.5155   39.6347   64.9255 C   0  0  0  0  0  0  0  0  0  0  0  0
   18.4742   38.8765   65.4205 N   0  0  0  0  0  0  0  0  0  0  0  0
   28.1908   39.0368   69.7492 O   0  5  0  0  0  0  0  0  0  0  0  0
   30.4174   38.2455   69.0258 O   0  0  0  0  0  0  0  0  0  0  0  0
   22.8218   38.6570   68.5008 S   0  0  0  0  0  0  0  0  0  0  0  0
   21.4559   39.7275   68.4255 C   0  0  0  0  0  0  0  0  0  0  0  0
   28.3857   41.1280   68.3495 O   0  0  0  0  0  0  0  0  0  0  0  0
   30.9510   37.8388   66.5382 O   0  5  0  0  0  0  0  0  0  0  0  0
   21.6924   40.3994   67.3226 N   0  0  0  0  0  0  0  0  0  0  0  0
   28.5921   38.7380   67.2750 O   0  0  0  0  0  0  0  0  0  0  0  0
   30.6884   40.2213   67.4813 O   0  0  0  0  0  0  0  0  0  0  0  0
   22.7598   40.1636   66.5912 C   0  0  2  0  0  0  0  0  0  0  0  0
   23.6296   39.2073   67.0053 C   0  0  2  0  0  0  0  0  0  0  0  0
   24.9155   38.7379   66.3769 C   0  0  0  0  0  0  0  0  0  0  0  0
   26.0564   39.6726   66.7853 C   0  0  0  0  0  0  0  0  0  0  0  0
   26.2743   39.5700   68.1938 O   0  0  0  0  0  0  0  0  0  0  0  0
  1 11  1  0  0  0  0
  3 13  1  1  0  0  0
  3 17  2  0  0  0  0
  3 20  1  0  0  0  0
  3 26  1  0  0  0  0
  4 14  1  1  0  0  0
  4 18  1  0  0  0  0
  4 21  2  0  0  0  0
  4 20  1  0  0  0  0
  5 19  1  0  0  0  0
  5  7  1  0  0  0  0
  6  7  2  0  0  0  0
  6 12  1  0  0  0  0
  7  8  1  0  0  0  0
  8  9  1  0  0  0  0
  8 10  2  0  0  0  0
 10 11  1  0  0  0  0
 11 12  2  0  0  0  0
 15 23  1  0  0  0  0
 15 16  1  0  0  0  0
 16 19  1  0  0  0  0
 19 22  1  0  0  0  0
 22  2  1  1  0  0  0
 22 23  1  0  0  0  0
 23 24  1  6  0  0  0
 24 25  1  0  0  0  0
 25 26  1  0  0  0  0
M  CHG  2  13  -1  18  -1
M  END
>  <CHROM.1>
-57.88739898,-81.18126224,1.61048018,56.24260398,-96.95749682,65.38298654
140.17218034,-160.08320308,24.31358729,39.68881073,67.09457467,3.02819364
-0.20889104,-0.00132524

>  <Name>
ligand

>  <RI>
0

>  <Rbt.Current_Directory>
/home/itssahil/PROJECTS/Mol_Feturizer/New_Systems/rnas/2HOJ

>  <Rbt.Executable>
rbdock ($Id: //depot/dev/client3/rdock/2013.1/src/exe/rbdock.cxx#4 $)

>  <Rbt.Library>
libRbt.so (2013.1, Build901 2013/11/27)

>  <Rbt.Parameter_File>
/export/apps/rDock/src/rDock_2013.1_src/data/scripts/dock_solv.prm

>  <Rbt.Receptor>
prm/pocket_docking_3.prm

>  <SCORE>
-29.2634

>  <SCORE.INTER>
-26.5068

>  <SCORE.INTER.CONST>
1

>  <SCORE.INTER.POLAR>
-3.83763

>  <SCORE.INTER.ROT>
8

>  <SCORE.INTER.SOLV>
33.092

>  <SCORE.INTER.VDW>
-24.8431

>  <SCORE.INTER.norm>
-1.01949

>  <SCORE.INTRA>
-2.75653

>  <SCORE.INTRA.DIHEDRAL>
-0.77731

>  <SCORE.INTRA.DIHEDRAL.0>
11.6398

>  <SCORE.INTRA.POLAR>
0

>  <SCORE.INTRA.POLAR.0>
0

>  <SCORE.INTRA.REPUL>
0

>  <SCORE.INTRA.REPUL.0>
0

>  <SCORE.INTRA.SOLV>
0.68807

>  <SCORE.INTRA.SOLV.lig_0>
-81.722

>  <SCORE.INTRA.VDW>
-2.71191

>  <SCORE.INTRA.VDW.0>
1.12598

>  <SCORE.INTRA.norm>
-0.10602

>  <SCORE.RESTR>
0

>  <SCORE.RESTR.CAVITY>
0

>  <SCORE.RESTR.norm>
0

>  <SCORE.SYSTEM>
0

>  <SCORE.SYSTEM.CONST>
0

>  <SCORE.SYSTEM.DIHEDRAL>
0

>  <SCORE.SYSTEM.SOLV>
0

>  <SCORE.SYSTEM.norm>
0

>  <SCORE.heavy>
26

>  <SCORE.norm>
-1.12551

>  <RMSD>
0.774

$$$$
ligand
 OpenBabel11021811433D
libRbt.so/2013.1/901 2013/11/27
 26 27  0  0  0  0  0  0  0  0999 V2000
   16.1701   39.1195   64.5360 C   0  0  0  0  0  0  0  0  0  0  0  0
   23.4298   40.3195   65.0199 C   0  0  0  0  0  0  0  0  0  0  0  0
   27.8596   39.5246   68.6584 P   0  0  1  0  0  0  0  0  0  0  0  0
   30.0530   38.6911   67.5715 P   0  0  1  0  0  0  0  0  0  0  0  0
   21.1260   41.3264   66.2642 C   0  0  0  0  0  0  0  0  0  0  0  0
   19.6774   39.3863   65.5941 C   0  0  0  0  0  0  0  0  0  0  0  0
   19.8136   40.7437   65.8067 C   0  0  0  0  0  0  0  0  0  0  0  0
   18.7047   41.5626   65.5874 C   0  0  0  0  0  0  0  0  0  0  0  0
   18.7898   42.9326   65.7861 N   0  0  0  0  0  0  0  0  0  0  0  0
   17.5660   41.0103   65.1792 N   0  0  0  0  0  0  0  0  0  0  0  0
   17.4787   39.7092   64.9932 C   0  0  0  0  0  0  0  0  0  0  0  0
   18.5076   38.9084   65.1912 N   0  0  0  0  0  0  0  0  0  0  0  0
   26.9530   39.4274   69.8246 O   0  5  0  0  0  0  0  0  0  0  0  0
   29.2300   38.3971   66.2977 O   0  0  0  0  0  0  0  0  0  0  0  0
   22.7265   38.6832   68.5084 S   0  0  0  0  0  0  0  0  0  0  0  0
   21.5111   39.8629   68.1231 C   0  0  0  0  0  0  0  0  0  0  0  0
   28.3913   41.0361   68.5157 O   0  0  0  0  0  0  0  0  0  0  0  0
   30.6286   40.1926   67.5054 O   0  5  0  0  0  0  0  0  0  0  0  0
   21.9075   40.2937   66.9479 N   0  0  0  0  0  0  0  0  0  0  0  0
   29.1109   38.5326   68.8680 O   0  0  0  0  0  0  0  0  0  0  0  0
   31.2289   37.6929   67.6655 O   0  0  0  0  0  0  0  0  0  0  0  0
   22.9882   39.8153   66.3707 C   0  0  2  0  0  0  0  0  0  0  0  0
   23.7019   38.8622   67.0224 C   0  0  2  0  0  0  0  0  0  0  0  0
   24.9628   38.1507   66.6067 C   0  0  0  0  0  0  0  0  0  0  0  0
   25.9984   38.2454   67.7294 C   0  0  0  0  0  0  0  0  0  0  0  0
   27.0638   39.1065   67.3224 O   0  0  0  0  0  0  0  0  0  0  0  0
  1 11  1  0  0  0  0
  3 13  1  1  0  0  0
  3 17  2  0  0  0  0
  3 20  1  0  0  0  0
  3 26  1  0  0  0  0
  4 14  1  6  0  0  0
  4 18  1  0  0  0  0
  4 21  2  0  0  0  0
  4 20  1  0  0  0  0
  5 19  1  0  0  0  0
  5  7  1  0  0  0  0
  6  7  2  0  0  0  0
  6 12  1  0  0  0  0
  7  8  1  0  0  0  0
  8  9  1  0  0  0  0
  8 10  2  0  0  0  0
 10 11  1  0  0  0  0
 11 12  2  0  0  0  0
 15 23  1  0  0  0  0
 15 16  1  0  0  0  0
 16 19  1  0  0  0  0
 19 22  1  0  0  0  0
 22  2  1  1  0  0  0
 22 23  1  0  0  0  0
 23 24  1  6  0  0  0
 24 25  1  0  0  0  0
 25 26  1  0  0  0  0
M  CHG  2  13  -1  18  -1
M  END
>  <CHROM.1>
-179.86264547,-70.03009757,-23.89606553,-56.32357100,-51.75227056,-110.18614712
162.93784861,-25.16259758,24.32452107,39.55925102,67.05338544,3.05591782
-0.23650622,0.15957630

>  <Name>
ligand

>  <RI>
0

>  <Rbt.Current_Directory>
/home/itssahil/PROJECTS/Mol_Feturizer/New_Systems/rnas/2HOJ

>  <Rbt.Executable>
rbdock ($Id: //depot/dev/client3/rdock/2013.1/src/exe/rbdock.cxx#4 $)

>  <Rbt.Library>
libRbt.so (2013.1, Build901 2013/11/27)

>  <Rbt.Parameter_File>
/export/apps/rDock/src/rDock_2013.1_src/data/scripts/dock_solv.prm

>  <Rbt.Receptor>
prm/pocket_docking_2.prm

>  <SCORE>
-30.0307

>  <SCORE.INTER>
-28.8877

>  <SCORE.INTER.CONST>
1

>  <SCORE.INTER.POLAR>
-4.29775

>  <SCORE.INTER.ROT>
8

>  <SCORE.INTER.SOLV>
34.041

>  <SCORE.INTER.VDW>
-25.2129

>  <SCORE.INTER.norm>
-1.11106

>  <SCORE.INTRA>
-1.29835

>  <SCORE.INTRA.DIHEDRAL>
1.51307

>  <SCORE.INTRA.DIHEDRAL.0>
11.6398

>  <SCORE.INTRA.POLAR>
0

>  <SCORE.INTRA.POLAR.0>
0

>  <SCORE.INTRA.REPUL>
0

>  <SCORE.INTRA.REPUL.0>
0

>  <SCORE.INTRA.SOLV>
-0.409409

>  <SCORE.INTRA.SOLV.lig_0>
-81.722

>  <SCORE.INTRA.VDW>
-1.85018

>  <SCORE.INTRA.VDW.0>
1.12598

>  <SCORE.INTRA.norm>
-0.0499365

>  <SCORE.RESTR>
0.155278

>  <SCORE.RESTR.CAVITY>
0.155278

>  <SCORE.RESTR.norm>
0.00597223

>  <SCORE.SYSTEM>
0

>  <SCORE.SYSTEM.CONST>
0

>  <SCORE.SYSTEM.DIHEDRAL>
0

>  <SCORE.SYSTEM.SOLV>
0

>  <SCORE.SYSTEM.norm>
0

>  <SCORE.heavy>
26

>  <SCORE.norm>
-1.15503

>  <RMSD>
1.072

$$$$
ligand
 OpenBabel11021811433D
libRbt.so/2013.1/901 2013/11/27
 26 27  0  0  0  0  0  0  0  0999 V2000
   16.5611   39.7455   64.5037 C   0  0  0  0  0  0  0  0  0  0  0  0
   23.7496   40.9000   66.0359 C   0  0  0  0  0  0  0  0  0  0  0  0
   27.9930   39.7083   67.8508 P   0  0  1  0  0  0  0  0  0  0  0  0
   30.3511   38.7874   67.3232 P   0  0  1  0  0  0  0  0  0  0  0  0
   21.2613   41.6523   67.0904 C   0  0  0  0  0  0  0  0  0  0  0  0
   19.7323   39.7989   66.3565 C   0  0  0  0  0  0  0  0  0  0  0  0
   20.0169   41.1490   66.4053 C   0  0  0  0  0  0  0  0  0  0  0  0
   19.1224   42.0362   65.8042 C   0  0  0  0  0  0  0  0  0  0  0  0
   19.3629   43.4020   65.8252 N   0  0  0  0  0  0  0  0  0  0  0  0
   18.0383   41.5519   65.2055 N   0  0  0  0  0  0  0  0  0  0  0  0
   17.8031   40.2560   65.1867 C   0  0  0  0  0  0  0  0  0  0  0  0
   18.6281   39.3918   65.7448 N   0  0  0  0  0  0  0  0  0  0  0  0
   28.6622   40.3227   69.0197 O   0  5  0  0  0  0  0  0  0  0  0  0
   31.1509   39.8220   68.1455 O   0  0  0  0  0  0  0  0  0  0  0  0
   22.6270   38.6798   69.0612 S   0  0  0  0  0  0  0  0  0  0  0  0
   21.4360   39.8949   68.7111 C   0  0  0  0  0  0  0  0  0  0  0  0
   26.8102   40.6720   67.3409 O   0  0  0  0  0  0  0  0  0  0  0  0
   29.8692   37.5913   68.2861 O   0  5  0  0  0  0  0  0  0  0  0  0
   21.9763   40.5259   67.6944 N   0  0  0  0  0  0  0  0  0  0  0  0
   29.0651   39.5012   66.6670 O   0  0  0  0  0  0  0  0  0  0  0  0
   31.2492   38.2161   66.2029 O   0  0  0  0  0  0  0  0  0  0  0  0
   23.1428   40.1660   67.2050 C   0  0  2  0  0  0  0  0  0  0  0  0
   23.7924   39.1228   67.7815 C   0  0  2  0  0  0  0  0  0  0  0  0
   25.1230   38.5074   67.4360 C   0  0  0  0  0  0  0  0  0  0  0  0
   26.0269   38.5144   68.6709 C   0  0  0  0  0  0  0  0  0  0  0  0
   27.3790   38.2805   68.2720 O   0  0  0  0  0  0  0  0  0  0  0  0
  1 11  1  0  0  0  0
  3 13  1  1  0  0  0
  3 17  2  0  0  0  0
  3 20  1  0  0  0  0
  3 26  1  0  0  0  0
  4 14  1  1  0  0  0
  4 18  1  0  0  0  0
  4 21  2  0  0  0  0
  4 20  1  0  0  0  0
  5 19  1  0  0  0  0
  5  7  1  0  0  0  0
  6  7  2  0  0  0  0
  6 12  1  0  0  0  0
  7  8  1  0  0  0  0
  8  9  1  0  0  0  0
  8 10  2  0  0  0  0
 10 11  1  0  0  0  0
 11 12  2  0  0  0  0
 15 23  1  0  0  0  0
 15 16  1  0  0  0  0
 16 19  1  0  0  0  0
 19 22  1  0  0  0  0
 22  2  1  1  0  0  0
 22 23  1  0  0  0  0
 23 24  1  6  0  0  0
 24 25  1  0  0  0  0
 25 26  1  0  0  0  0
M  CHG  2  13  -1  18  -1
M  END
>  <CHROM.1>
48.77814871,-67.77525349,-3.09927902,-75.29001389,-55.95728788,-164.29341969
85.05409393,92.72900667,24.52063481,39.78489381,67.22026231,2.91793251,-0.00360643
-0.74408123

>  <Name>
ligand

>  <RI>
0

>  <Rbt.Current_Directory>
/home/itssahil/PROJECTS/Mol_Feturizer/New_Systems/rnas/2HOJ

>  <Rbt.Executable>
rbdock ($Id: //depot/dev/client3/rdock/2013.1/src/exe/rbdock.cxx#4 $)

>  <Rbt.Library>
libRbt.so (2013.1, Build901 2013/11/27)

>  <Rbt.Parameter_File>
/export/apps/rDock/src/rDock_2013.1_src/data/scripts/dock_solv.prm

>  <Rbt.Receptor>
prm/pocket_docking_2.prm

>  <SCORE>
-28.2515

>  <SCORE.INTER>
-28.0815

>  <SCORE.INTER.CONST>
1

>  <SCORE.INTER.POLAR>
-3.96964

>  <SCORE.INTER.ROT>
8

>  <SCORE.INTER.SOLV>
30.0133

>  <SCORE.INTER.VDW>
-24.4266

>  <SCORE.INTER.norm>
-1.08006

>  <SCORE.INTRA>
-0.179336

>  <SCORE.INTRA.DIHEDRAL>
-1.00115

>  <SCORE.INTRA.DIHEDRAL.0>
11.6398

>  <SCORE.INTRA.POLAR>
0

>  <SCORE.INTRA.POLAR.0>
0

>  <SCORE.INTRA.REPUL>
0

>  <SCORE.INTRA.REPUL.0>
0

>  <SCORE.INTRA.SOLV>
2.59191

>  <SCORE.INTRA.SOLV.lig_0>
-81.722

>  <SCORE.INTRA.VDW>
-0.974717

>  <SCORE.INTRA.VDW.0>
1.12598

>  <SCORE.INTRA.norm>
-0.00689752

>  <SCORE.RESTR>
0.00934358

>  <SCORE.RESTR.CAVITY>
0.00934358

>  <SCORE.RESTR.norm>
0.000359368

>  <SCORE.SYSTEM>
0

>  <SCORE.SYSTEM.CONST>
0

>  <SCORE.SYSTEM.DIHEDRAL>
0

>  <SCORE.SYSTEM.SOLV>
0

>  <SCORE.SYSTEM.norm>
0

>  <SCORE.heavy>
26

>  <SCORE.norm>
-1.08659

>  <RMSD>
1.109

$$$$
ligand
 OpenBabel11021811433D
libRbt.so/2013.1/901 2013/11/27
 26 27  0  0  0  0  0  0  0  0999 V2000
   16.1209   39.2615   64.4057 C   0  0  0  0  0  0  0  0  0  0  0  0
   23.5631   40.6188   65.5083 C   0  0  0  0  0  0  0  0  0  0  0  0
   28.1612   39.2882   69.1912 P   0  0  1  0  0  0  0  0  0  0  0  0
   30.2201   38.6528   67.7615 P   0  0  1  0  0  0  0  0  0  0  0  0
   21.0123   41.4647   66.3131 C   0  0  0  0  0  0  0  0  0  0  0  0
   19.6013   39.5319   65.5482 C   0  0  0  0  0  0  0  0  0  0  0  0
   19.7170   40.8829   65.8082 C   0  0  0  0  0  0  0  0  0  0  0  0
   18.6034   41.6964   65.5918 C   0  0  0  0  0  0  0  0  0  0  0  0
   18.6682   43.0599   65.8372 N   0  0  0  0  0  0  0  0  0  0  0  0
   17.4803   41.1453   65.1409 N   0  0  0  0  0  0  0  0  0  0  0  0
   17.4124   39.8502   64.9105 C   0  0  0  0  0  0  0  0  0  0  0  0
   18.4461   39.0547   65.1044 N   0  0  0  0  0  0  0  0  0  0  0  0
   27.5534   39.2725   70.5410 O   0  5  0  0  0  0  0  0  0  0  0  0
   29.1324   38.3954   66.6953 O   0  0  0  0  0  0  0  0  0  0  0  0
   22.3285   38.8727   68.7899 S   0  0  0  0  0  0  0  0  0  0  0  0
   21.1357   39.9878   68.1971 C   0  0  0  0  0  0  0  0  0  0  0  0
   28.3929   40.8100   68.7239 O   0  0  0  0  0  0  0  0  0  0  0  0
   30.8193   40.1344   67.5720 O   0  5  0  0  0  0  0  0  0  0  0  0
   21.7154   40.4650   67.1200 N   0  0  0  0  0  0  0  0  0  0  0  0
   29.5747   38.5174   69.2308 O   0  0  0  0  0  0  0  0  0  0  0  0
   31.3536   37.6149   67.6005 O   0  0  0  0  0  0  0  0  0  0  0  0
   22.9111   40.0621   66.7488 C   0  0  2  0  0  0  0  0  0  0  0  0
   23.5488   39.1387   67.5124 C   0  0  2  0  0  0  0  0  0  0  0  0
   24.9056   38.5101   67.3311 C   0  0  0  0  0  0  0  0  0  0  0  0
   25.9304   39.2443   68.1987 C   0  0  0  0  0  0  0  0  0  0  0  0
   27.1786   38.5502   68.1506 O   0  0  0  0  0  0  0  0  0  0  0  0
  1 11  1  0  0  0  0
  3 13  1  1  0  0  0
  3 17  2  0  0  0  0
  3 20  1  0  0  0  0
  3 26  1  0  0  0  0
  4 14  1  6  0  0  0
  4 18  1  0  0  0  0
  4 21  2  0  0  0  0
  4 20  1  0  0  0  0
  5 19  1  0  0  0  0
  5  7  1  0  0  0  0
  6  7  2  0  0  0  0
  6 12  1  0  0  0  0
  7  8  1  0  0  0  0
  8  9  1  0  0  0  0
  8 10  2  0  0  0  0
 10 11  1  0  0  0  0
 11 12  2  0  0  0  0
 15 23  1  0  0  0  0
 15 16  1  0  0  0  0
 16 19  1  0  0  0  0
 19 22  1  0  0  0  0
 22  2  1  1  0  0  0
 22 23  1  0  0  0  0
 23 24  1  6  0  0  0
 24 25  1  0  0  0  0
 25 26  1  0  0  0  0
M  CHG  2  13  -1  18  -1
M  END
>  <CHROM.1>
-176.49485131,-60.28155043,-30.80151930,-43.77932610,-82.81752866,173.08137381
-174.56429615,57.82837725,24.33463513,39.63188950,67.30605370,-2.88116667
-0.10002010,1.73694771

>  <Name>
ligand

>  <RI>
0

>  <Rbt.Current_Directory>
/home/itssahil/PROJECTS/Mol_Feturizer/New_Systems/rnas/2HOJ

>  <Rbt.Executable>
rbdock ($Id: //depot/dev/client3/rdock/2013.1/src/exe/rbdock.cxx#4 $)

>  <Rbt.Library>
libRbt.so (2013.1, Build901 2013/11/27)

>  <Rbt.Parameter_File>
/export/apps/rDock/src/rDock_2013.1_src/data/scripts/dock_solv.prm

>  <Rbt.Receptor>
prm/pocket_docking_2.prm

>  <SCORE>
-30.9947

>  <SCORE.INTER>
-25.1709

>  <SCORE.INTER.CONST>
1

>  <SCORE.INTER.POLAR>
-3.60004

>  <SCORE.INTER.ROT>
8

>  <SCORE.INTER.SOLV>
36.8384

>  <SCORE.INTER.VDW>
-25.9933

>  <SCORE.INTER.norm>
-0.968113

>  <SCORE.INTRA>
-5.82382

>  <SCORE.INTRA.DIHEDRAL>
-5.89523

>  <SCORE.INTRA.DIHEDRAL.0>
11.6398

>  <SCORE.INTRA.POLAR>
0

>  <SCORE.INTRA.POLAR.0>
0

>  <SCORE.INTRA.REPUL>
0

>  <SCORE.INTRA.REPUL.0>
0

>  <SCORE.INTRA.SOLV>
-0.472572

>  <SCORE.INTRA.SOLV.lig_0>
-81.722

>  <SCORE.INTRA.VDW>
-2.63992

>  <SCORE.INTRA.VDW.0>
1.12598

>  <SCORE.INTRA.norm>
-0.223993

>  <SCORE.RESTR>
0

>  <SCORE.RESTR.CAVITY>
0

>  <SCORE.RESTR.norm>
0

>  <SCORE.SYSTEM>
0

>  <SCORE.SYSTEM.CONST>
0

>  <SCORE.SYSTEM.DIHEDRAL>
0

>  <SCORE.SYSTEM.SOLV>
0

>  <SCORE.SYSTEM.norm>
0

>  <SCORE.heavy>
26

>  <SCORE.norm>
-1.19211

>  <RMSD>
1.191

$$$$
ligand
 OpenBabel11021811433D
libRbt.so/2013.1/901 2013/11/27
 26 27  0  0  0  0  0  0  0  0999 V2000
   16.0630   38.9965   64.5177 C   0  0  0  0  0  0  0  0  0  0  0  0
   23.2973   40.2701   65.1542 C   0  0  0  0  0  0  0  0  0  0  0  0
   27.9138   39.4140   68.7580 P   0  0  1  0  0  0  0  0  0  0  0  0
   29.9600   38.6414   67.3785 P   0  0  1  0  0  0  0  0  0  0  0  0
   20.9507   41.3460   66.2523 C   0  0  0  0  0  0  0  0  0  0  0  0
   19.5654   39.3675   65.5608 C   0  0  0  0  0  0  0  0  0  0  0  0
   19.6564   40.7255   65.7931 C   0  0  0  0  0  0  0  0  0  0  0  0
   18.5188   41.5091   65.5922 C   0  0  0  0  0  0  0  0  0  0  0  0
   18.5582   42.8780   65.8112 N   0  0  0  0  0  0  0  0  0  0  0  0
   17.3973   40.9242   65.1819 N   0  0  0  0  0  0  0  0  0  0  0  0
   17.3534   39.6238   64.9767 C   0  0  0  0  0  0  0  0  0  0  0  0
   18.4102   38.8559   65.1570 N   0  0  0  0  0  0  0  0  0  0  0  0
   28.6182   38.7767   69.8935 O   0  5  0  0  0  0  0  0  0  0  0  0
   30.9307   38.9898   66.2284 O   0  0  0  0  0  0  0  0  0  0  0  0
   22.4873   38.8712   68.7220 S   0  0  0  0  0  0  0  0  0  0  0  0
   21.2807   40.0148   68.2183 C   0  0  0  0  0  0  0  0  0  0  0  0
   27.0813   40.6847   69.2871 O   0  0  0  0  0  0  0  0  0  0  0  0
   30.8010   38.3011   68.7078 O   0  5  0  0  0  0  0  0  0  0  0  0
   21.7134   40.3668   67.0297 N   0  0  0  0  0  0  0  0  0  0  0  0
   28.9906   39.8959   67.6617 O   0  0  0  0  0  0  0  0  0  0  0  0
   29.1095   37.4144   66.9794 O   0  0  0  0  0  0  0  0  0  0  0  0
   22.8140   39.8566   66.5215 C   0  0  2  0  0  0  0  0  0  0  0  0
   23.5097   38.9543   67.2592 C   0  0  2  0  0  0  0  0  0  0  0  0
   24.7860   38.2235   66.9338 C   0  0  0  0  0  0  0  0  0  0  0  0
   25.9858   39.1034   67.2919 C   0  0  0  0  0  0  0  0  0  0  0  0
   26.9057   38.3526   68.0869 O   0  0  0  0  0  0  0  0  0  0  0  0
  1 11  1  0  0  0  0
  3 13  1  1  0  0  0
  3 17  2  0  0  0  0
  3 20  1  0  0  0  0
  3 26  1  0  0  0  0
  4 14  1  6  0  0  0
  4 18  1  0  0  0  0
  4 21  2  0  0  0  0
  4 20  1  0  0  0  0
  5 19  1  0  0  0  0
  5  7  1  0  0  0  0
  6  7  2  0  0  0  0
  6 12  1  0  0  0  0
  7  8  1  0  0  0  0
  8  9  1  0  0  0  0
  8 10  2  0  0  0  0
 10 11  1  0  0  0  0
 11 12  2  0  0  0  0
 15 23  1  0  0  0  0
 15 16  1  0  0  0  0
 16 19  1  0  0  0  0
 19 22  1  0  0  0  0
 22  2  1  1  0  0  0
 22 23  1  0  0  0  0
 23 24  1  6  0  0  0
 24 25  1  0  0  0  0
 25 26  1  0  0  0  0
M  CHG  2  13  -1  18  -1
M  END
>  <CHROM.1>
49.76837375,-70.06382590,-29.39478718,174.30000778,-95.52583426,129.79281095
-164.78946540,162.95013203,24.21902279,39.51123654,67.10996109,-2.96300440
-0.18359668,1.33364359

>  <Name>
ligand

>  <RI>
0

>  <Rbt.Current_Directory>
/home/itssahil/PROJECTS/Mol_Feturizer/New_Systems/rnas/2HOJ

>  <Rbt.Executable>
rbdock ($Id: //depot/dev/client3/rdock/2013.1/src/exe/rbdock.cxx#4 $)

>  <Rbt.Library>
libRbt.so (2013.1, Build901 2013/11/27)

>  <Rbt.Parameter_File>
/export/apps/rDock/src/rDock_2013.1_src/data/scripts/dock_solv.prm

>  <Rbt.Receptor>
prm/pocket_docking_2.prm

>  <SCORE>
-23.217

>  <SCORE.INTER>
-21.6272

>  <SCORE.INTER.CONST>
1

>  <SCORE.INTER.POLAR>
-1.71847

>  <SCORE.INTER.ROT>
8

>  <SCORE.INTER.SOLV>
29.7679

>  <SCORE.INTER.VDW>
-27.5459

>  <SCORE.INTER.norm>
-0.831815

>  <SCORE.INTRA>
-1.85849

>  <SCORE.INTRA.DIHEDRAL>
0.0606579

>  <SCORE.INTRA.DIHEDRAL.0>
11.6398

>  <SCORE.INTRA.POLAR>
0

>  <SCORE.INTRA.POLAR.0>
0

>  <SCORE.INTRA.REPUL>
0

>  <SCORE.INTRA.REPUL.0>
0

>  <SCORE.INTRA.SOLV>
2.41095

>  <SCORE.INTRA.SOLV.lig_0>
-81.722

>  <SCORE.INTRA.VDW>
-3.09429

>  <SCORE.INTRA.VDW.0>
1.12598

>  <SCORE.INTRA.norm>
-0.0714803

>  <SCORE.RESTR>
0.268676

>  <SCORE.RESTR.CAVITY>
0.268676

>  <SCORE.RESTR.norm>
0.0103337

>  <SCORE.SYSTEM>
0

>  <SCORE.SYSTEM.CONST>
0

>  <SCORE.SYSTEM.DIHEDRAL>
0

>  <SCORE.SYSTEM.SOLV>
0

>  <SCORE.SYSTEM.norm>
0

>  <SCORE.heavy>
26

>  <SCORE.norm>
-0.892961

>  <RMSD>
1.213

$$$$
ligand
 OpenBabel11021811433D
libRbt.so/2013.1/901 2013/11/27
 26 27  0  0  0  0  0  0  0  0999 V2000
   16.3004   39.0059   64.5758 C   0  0  0  0  0  0  0  0  0  0  0  0
   23.7918   41.2068   65.5508 C   0  0  0  0  0  0  0  0  0  0  0  0
   28.3289   39.1815   68.7896 P   0  0  1  0  0  0  0  0  0  0  0  0
   30.5146   39.0136   67.4179 P   0  0  1  0  0  0  0  0  0  0  0  0
   21.0941   41.6098   66.2063 C   0  0  0  0  0  0  0  0  0  0  0  0
   19.7996   39.5607   65.5452 C   0  0  0  0  0  0  0  0  0  0  0  0
   19.8245   40.9219   65.7747 C   0  0  0  0  0  0  0  0  0  0  0  0
   18.6437   41.6449   65.5971 C   0  0  0  0  0  0  0  0  0  0  0  0
   18.6163   43.0144   65.8143 N   0  0  0  0  0  0  0  0  0  0  0  0
   17.5459   41.0017   65.2107 N   0  0  0  0  0  0  0  0  0  0  0  0
   17.5656   39.7004   65.0073 C   0  0  0  0  0  0  0  0  0  0  0  0
   18.6645   38.9889   65.1660 N   0  0  0  0  0  0  0  0  0  0  0  0
   28.1712   37.7684   68.3777 O   0  5  0  0  0  0  0  0  0  0  0  0
   31.8585   39.7221   67.1382 O   0  0  0  0  0  0  0  0  0  0  0  0
   22.6420   39.1376   68.6715 S   0  0  0  0  0  0  0  0  0  0  0  0
   21.3288   40.0821   68.0385 C   0  0  0  0  0  0  0  0  0  0  0  0
   27.7202   39.3822   70.2651 O   0  0  0  0  0  0  0  0  0  0  0  0
   30.7573   37.4270   67.5357 O   0  5  0  0  0  0  0  0  0  0  0  0
   21.8931   40.6935   67.0229 N   0  0  0  0  0  0  0  0  0  0  0  0
   29.8927   39.5665   68.7968 O   0  0  0  0  0  0  0  0  0  0  0  0
   29.5320   39.2993   66.2599 O   0  0  0  0  0  0  0  0  0  0  0  0
   23.1583   40.4981   66.7214 C   0  0  2  0  0  0  0  0  0  0  0  0
   23.8837   39.6489   67.4930 C   0  0  2  0  0  0  0  0  0  0  0  0
   25.3311   39.2467   67.3837 C   0  0  0  0  0  0  0  0  0  0  0  0
   26.1939   40.2107   68.2013 C   0  0  0  0  0  0  0  0  0  0  0  0
   27.5484   40.1342   67.7522 O   0  0  0  0  0  0  0  0  0  0  0  0
  1 11  1  0  0  0  0
  3 13  1  6  0  0  0
  3 17  2  0  0  0  0
  3 20  1  0  0  0  0
  3 26  1  0  0  0  0
  4 14  1  6  0  0  0
  4 18  1  0  0  0  0
  4 21  2  0  0  0  0
  4 20  1  0  0  0  0
  5 19  1  0  0  0  0
  5  7  1  0  0  0  0
  6  7  2  0  0  0  0
  6 12  1  0  0  0  0
  7  8  1  0  0  0  0
  8  9  1  0  0  0  0
  8 10  2  0  0  0  0
 10 11  1  0  0  0  0
 11 12  2  0  0  0  0
 15 23  1  0  0  0  0
 15 16  1  0  0  0  0
 16 19  1  0  0  0  0
 19 22  1  0  0  0  0
 22  2  1  1  0  0  0
 22 23  1  0  0  0  0
 23 24  1  6  0  0  0
 24 25  1  0  0  0  0
 25 26  1  0  0  0  0
M  CHG  2  13  -1  18  -1
M  END
>  <CHROM.1>
46.52668638,-51.15326717,-32.11301148,161.76302651,-90.45005145,-160.28141708
-99.48009805,86.26435320,24.54016931,39.77030393,67.15270471,-2.90119795
-0.03174805,2.00413055

>  <Name>
ligand

>  <RI>
0

>  <Rbt.Current_Directory>
/home/itssahil/PROJECTS/Mol_Feturizer/New_Systems/rnas/2HOJ

>  <Rbt.Executable>
rbdock ($Id: //depot/dev/client3/rdock/2013.1/src/exe/rbdock.cxx#4 $)

>  <Rbt.Library>
libRbt.so (2013.1, Build901 2013/11/27)

>  <Rbt.Parameter_File>
/export/apps/rDock/src/rDock_2013.1_src/data/scripts/dock_solv.prm

>  <Rbt.Receptor>
prm/pocket_docking_3.prm

>  <SCORE>
-23.5269

>  <SCORE.INTER>
-23.9259

>  <SCORE.INTER.CONST>
1

>  <SCORE.INTER.POLAR>
-2.75017

>  <SCORE.INTER.ROT>
8

>  <SCORE.INTER.SOLV>
31.2479

>  <SCORE.INTER.VDW>
-26.1327

>  <SCORE.INTER.norm>
-0.920227

>  <SCORE.INTRA>
0.398973

>  <SCORE.INTRA.DIHEDRAL>
1.641

>  <SCORE.INTRA.DIHEDRAL.0>
11.6398

>  <SCORE.INTRA.POLAR>
0

>  <SCORE.INTRA.POLAR.0>
0

>  <SCORE.INTRA.REPUL>
0

>  <SCORE.INTRA.REPUL.0>
0

>  <SCORE.INTRA.SOLV>
3.14623

>  <SCORE.INTRA.SOLV.lig_0>
-81.722

>  <SCORE.INTRA.VDW>
-1.99465

>  <SCORE.INTRA.VDW.0>
1.12598

>  <SCORE.INTRA.norm>
0.0153451

>  <SCORE.RESTR>
0

>  <SCORE.RESTR.CAVITY>
0

>  <SCORE.RESTR.norm>
0

>  <SCORE.SYSTEM>
0

>  <SCORE.SYSTEM.CONST>
0

>  <SCORE.SYSTEM.DIHEDRAL>
0

>  <SCORE.SYSTEM.SOLV>
0

>  <SCORE.SYSTEM.norm>
0

>  <SCORE.heavy>
26

>  <SCORE.norm>
-0.904882

>  <RMSD>
1.254

$$$$
ligand
 OpenBabel11021811433D
libRbt.so/2013.1/901 2013/11/27
 26 27  0  0  0  0  0  0  0  0999 V2000
   16.3210   39.0915   64.3415 C   0  0  0  0  0  0  0  0  0  0  0  0
   23.4721   41.5667   65.9528 C   0  0  0  0  0  0  0  0  0  0  0  0
   28.4630   38.7781   68.8524 P   0  0  1  0  0  0  0  0  0  0  0  0
   30.0206   37.8740   66.9967 P   0  0  1  0  0  0  0  0  0  0  0  0
   20.8482   41.3796   66.9275 C   0  0  0  0  0  0  0  0  0  0  0  0
   19.3383   39.4403   66.4070 C   0  0  0  0  0  0  0  0  0  0  0  0
   19.6497   40.7753   66.2423 C   0  0  0  0  0  0  0  0  0  0  0  0
   18.8257   41.5513   65.4253 C   0  0  0  0  0  0  0  0  0  0  0  0
   19.0957   42.8971   65.2271 N   0  0  0  0  0  0  0  0  0  0  0  0
   17.7806   40.9794   64.8346 N   0  0  0  0  0  0  0  0  0  0  0  0
   17.5174   39.7026   65.0231 C   0  0  0  0  0  0  0  0  0  0  0  0
   18.2760   38.9423   65.7884 N   0  0  0  0  0  0  0  0  0  0  0  0
   28.0728   38.6807   70.2771 O   0  5  0  0  0  0  0  0  0  0  0  0
   31.2006   36.9358   66.6597 O   0  0  0  0  0  0  0  0  0  0  0  0
   22.8603   38.3586   68.1151 S   0  0  0  0  0  0  0  0  0  0  0  0
   21.4134   39.3133   68.0031 C   0  0  0  0  0  0  0  0  0  0  0  0
   28.8230   40.3051   68.4971 O   0  0  0  0  0  0  0  0  0  0  0  0
   28.7018   37.3810   66.2172 O   0  5  0  0  0  0  0  0  0  0  0  0
   21.8056   40.3224   67.2603 N   0  0  0  0  0  0  0  0  0  0  0  0
   29.7491   37.8467   68.5840 O   0  0  0  0  0  0  0  0  0  0  0  0
   30.3684   39.3148   66.5595 O   0  0  0  0  0  0  0  0  0  0  0  0
   23.0373   40.4020   66.8061 C   0  0  2  0  0  0  0  0  0  0  0  0
   23.9112   39.4150   67.1294 C   0  0  2  0  0  0  0  0  0  0  0  0
   25.3619   39.2532   66.7575 C   0  0  0  0  0  0  0  0  0  0  0  0
   26.2213   39.2792   68.0234 C   0  0  0  0  0  0  0  0  0  0  0  0
   27.2422   38.2841   67.9257 O   0  0  0  0  0  0  0  0  0  0  0  0
  1 11  1  0  0  0  0
  3 13  1  1  0  0  0
  3 17  2  0  0  0  0
  3 20  1  0  0  0  0
  3 26  1  0  0  0  0
  4 14  1  6  0  0  0
  4 18  1  0  0  0  0
  4 21  2  0  0  0  0
  4 20  1  0  0  0  0
  5 19  1  0  0  0  0
  5  7  1  0  0  0  0
  6  7  2  0  0  0  0
  6 12  1  0  0  0  0
  7  8  1  0  0  0  0
  8  9  1  0  0  0  0
  8 10  2  0  0  0  0
 10 11  1  0  0  0  0
 11 12  2  0  0  0  0
 15 23  1  0  0  0  0
 15 16  1  0  0  0  0
 16 19  1  0  0  0  0
 19 22  1  0  0  0  0
 22  2  1  1  0  0  0
 22 23  1  0  0  0  0
 23 24  1  6  0  0  0
 24 25  1  0  0  0  0
 25 26  1  0  0  0  0
M  CHG  2  13  -1  18  -1
M  END
>  <CHROM.1>
174.02055360,-56.72665385,22.28479564,-176.97537915,-62.91096299,138.77099525
153.92508140,70.27082484,24.45591844,39.33896031,67.05420907,2.98628396,-0.22142405
0.16754755

>  <Name>
ligand

>  <RI>
0

>  <Rbt.Current_Directory>
/home/itssahil/PROJECTS/Mol_Feturizer/New_Systems/rnas/2HOJ

>  <Rbt.Executable>
rbdock ($Id: //depot/dev/client3/rdock/2013.1/src/exe/rbdock.cxx#4 $)

>  <Rbt.Library>
libRbt.so (2013.1, Build901 2013/11/27)

>  <Rbt.Parameter_File>
/export/apps/rDock/src/rDock_2013.1_src/data/scripts/dock_solv.prm

>  <Rbt.Receptor>
prm/pocket_docking_2.prm

>  <SCORE>
-18.1899

>  <SCORE.INTER>
-19.4975

>  <SCORE.INTER.CONST>
1

>  <SCORE.INTER.POLAR>
-2.15958

>  <SCORE.INTER.ROT>
8

>  <SCORE.INTER.SOLV>
26.8368

>  <SCORE.INTER.VDW>
-23.6787

>  <SCORE.INTER.norm>
-0.749904

>  <SCORE.INTRA>
0.925129

>  <SCORE.INTRA.DIHEDRAL>
0.916217

>  <SCORE.INTRA.DIHEDRAL.0>
11.6398

>  <SCORE.INTRA.POLAR>
0

>  <SCORE.INTRA.POLAR.0>
0

>  <SCORE.INTRA.REPUL>
0

>  <SCORE.INTRA.REPUL.0>
0

>  <SCORE.INTRA.SOLV>
3.21295

>  <SCORE.INTRA.SOLV.lig_0>
-81.722

>  <SCORE.INTRA.VDW>
-1.13945

>  <SCORE.INTRA.VDW.0>
1.12598

>  <SCORE.INTRA.norm>
0.0355819

>  <SCORE.RESTR>
0.382468

>  <SCORE.RESTR.CAVITY>
0.382468

>  <SCORE.RESTR.norm>
0.0147103

>  <SCORE.SYSTEM>
0

>  <SCORE.SYSTEM.CONST>
0

>  <SCORE.SYSTEM.DIHEDRAL>
0

>  <SCORE.SYSTEM.SOLV>
0

>  <SCORE.SYSTEM.norm>
0

>  <SCORE.heavy>
26

>  <SCORE.norm>
-0.699611

>  <RMSD>
1.282

$$$$
ligand
 OpenBabel11021811433D
libRbt.so/2013.1/901 2013/11/27
 26 27  0  0  0  0  0  0  0  0999 V2000
   16.1166   38.9121   64.3378 C   0  0  0  0  0  0  0  0  0  0  0  0
   23.2805   40.6293   65.6359 C   0  0  0  0  0  0  0  0  0  0  0  0
   28.2623   40.0206   67.5338 P   0  0  1  0  0  0  0  0  0  0  0  0
   29.8438   38.0748   66.9019 P   0  0  1  0  0  0  0  0  0  0  0  0
   20.7504   41.2560   66.6729 C   0  0  0  0  0  0  0  0  0  0  0  0
   19.3821   39.2654   65.9821 C   0  0  0  0  0  0  0  0  0  0  0  0
   19.5234   40.6369   66.0545 C   0  0  0  0  0  0  0  0  0  0  0  0
   18.5005   41.4358   65.5406 C   0  0  0  0  0  0  0  0  0  0  0  0
   18.5945   42.8187   65.5886 N   0  0  0  0  0  0  0  0  0  0  0  0
   17.4363   40.8510   64.9985 N   0  0  0  0  0  0  0  0  0  0  0  0
   17.3402   39.5381   64.9544 C   0  0  0  0  0  0  0  0  0  0  0  0
   18.2888   38.7555   65.4307 N   0  0  0  0  0  0  0  0  0  0  0  0
   28.7679   40.2427   68.9074 O   0  5  0  0  0  0  0  0  0  0  0  0
   31.1031   37.6570   66.1108 O   0  0  0  0  0  0  0  0  0  0  0  0
   22.3338   38.4906   68.7779 S   0  0  0  0  0  0  0  0  0  0  0  0
   21.0577   39.5992   68.3778 C   0  0  0  0  0  0  0  0  0  0  0  0
   27.5802   41.3712   66.9874 O   0  0  0  0  0  0  0  0  0  0  0  0
   30.1216   37.9146   68.4791 O   0  5  0  0  0  0  0  0  0  0  0  0
   21.5467   40.2148   67.3262 N   0  0  0  0  0  0  0  0  0  0  0  0
   29.4868   39.6101   66.5717 O   0  0  0  0  0  0  0  0  0  0  0  0
   28.6576   37.1722   66.4941 O   0  0  0  0  0  0  0  0  0  0  0  0
   22.7333   39.9141   66.8454 C   0  0  2  0  0  0  0  0  0  0  0  0
   23.4582   38.9498   67.4677 C   0  0  2  0  0  0  0  0  0  0  0  0
   24.8276   38.4134   67.1419 C   0  0  0  0  0  0  0  0  0  0  0  0
   25.8863   39.4573   67.5044 C   0  0  0  0  0  0  0  0  0  0  0  0
   27.1722   38.8354   67.5472 O   0  0  0  0  0  0  0  0  0  0  0  0
  1 11  1  0  0  0  0
  3 13  1  1  0  0  0
  3 17  2  0  0  0  0
  3 20  1  0  0  0  0
  3 26  1  0  0  0  0
  4 14  1  6  0  0  0
  4 18  1  0  0  0  0
  4 21  2  0  0  0  0
  4 20  1  0  0  0  0
  5 19  1  0  0  0  0
  5  7  1  0  0  0  0
  6  7  2  0  0  0  0
  6 12  1  0  0  0  0
  7  8  1  0  0  0  0
  8  9  1  0  0  0  0
  8 10  2  0  0  0  0
 10 11  1  0  0  0  0
 11 12  2  0  0  0  0
 15 23  1  0  0  0  0
 15 16  1  0  0  0  0
 16 19  1  0  0  0  0
 19 22  1  0  0  0  0
 22  2  1  1  0  0  0
 22 23  1  0  0  0  0
 23 24  1  6  0  0  0
 24 25  1  0  0  0  0
 25 26  1  0  0  0  0
M  CHG  2  13  -1  18  -1
M  END
>  <CHROM.1>
75.95022848,-66.35074238,-9.43386840,-174.49186515,-107.92424340,164.22000666
165.05472805,101.08370347,24.20710330,39.49162961,66.85036615,3.00335352
-0.13227576,-0.06298995

>  <Name>
ligand

>  <RI>
0

>  <Rbt.Current_Directory>
/home/itssahil/PROJECTS/Mol_Feturizer/New_Systems/rnas/2HOJ

>  <Rbt.Executable>
rbdock ($Id: //depot/dev/client3/rdock/2013.1/src/exe/rbdock.cxx#4 $)

>  <Rbt.Library>
libRbt.so (2013.1, Build901 2013/11/27)

>  <Rbt.Parameter_File>
/export/apps/rDock/src/rDock_2013.1_src/data/scripts/dock_solv.prm

>  <Rbt.Receptor>
prm/pocket_docking_2.prm

>  <SCORE>
-25.6171

>  <SCORE.INTER>
-24.9838

>  <SCORE.INTER.CONST>
1

>  <SCORE.INTER.POLAR>
-2.92858

>  <SCORE.INTER.ROT>
8

>  <SCORE.INTER.SOLV>
28.0089

>  <SCORE.INTER.VDW>
-25.1635

>  <SCORE.INTER.norm>
-0.960915

>  <SCORE.INTRA>
-1.43188

>  <SCORE.INTRA.DIHEDRAL>
-2.77769

>  <SCORE.INTRA.DIHEDRAL.0>
11.6398

>  <SCORE.INTRA.POLAR>
0

>  <SCORE.INTRA.POLAR.0>
0

>  <SCORE.INTRA.REPUL>
0

>  <SCORE.INTRA.REPUL.0>
0

>  <SCORE.INTRA.SOLV>
2.44393

>  <SCORE.INTRA.SOLV.lig_0>
-81.722

>  <SCORE.INTRA.VDW>
-1.26501

>  <SCORE.INTRA.VDW.0>
1.12598

>  <SCORE.INTRA.norm>
-0.0550724

>  <SCORE.RESTR>
0.798549

>  <SCORE.RESTR.CAVITY>
0.798549

>  <SCORE.RESTR.norm>
0.0307134

>  <SCORE.SYSTEM>
0

>  <SCORE.SYSTEM.CONST>
0

>  <SCORE.SYSTEM.DIHEDRAL>
0

>  <SCORE.SYSTEM.SOLV>
0

>  <SCORE.SYSTEM.norm>
0

>  <SCORE.heavy>
26

>  <SCORE.norm>
-0.985274

>  <RMSD>
1.385

$$$$
ligand
 OpenBabel11021811433D
libRbt.so/2013.1/901 2013/11/27
 26 27  0  0  0  0  0  0  0  0999 V2000
   16.4682   39.6845   64.3510 C   0  0  0  0  0  0  0  0  0  0  0  0
   23.2380   40.6751   65.4112 C   0  0  0  0  0  0  0  0  0  0  0  0
   27.8481   40.4586   67.3207 P   0  0  1  0  0  0  0  0  0  0  0  0
   29.6346   38.6620   67.8380 P   0  0  1  0  0  0  0  0  0  0  0  0
   21.1280   41.5440   67.0428 C   0  0  0  0  0  0  0  0  0  0  0  0
   19.5837   39.7084   66.2964 C   0  0  0  0  0  0  0  0  0  0  0  0
   19.8943   41.0532   66.3299 C   0  0  0  0  0  0  0  0  0  0  0  0
   19.0362   41.9470   65.6868 C   0  0  0  0  0  0  0  0  0  0  0  0
   19.3039   43.3078   65.6909 N   0  0  0  0  0  0  0  0  0  0  0  0
   17.9606   41.4736   65.0646 N   0  0  0  0  0  0  0  0  0  0  0  0
   17.6996   40.1825   65.0616 C   0  0  0  0  0  0  0  0  0  0  0  0
   18.4899   39.3123   65.6592 N   0  0  0  0  0  0  0  0  0  0  0  0
   27.2785   41.7689   67.7085 O   0  5  0  0  0  0  0  0  0  0  0  0
   28.5217   37.6328   68.1353 O   0  0  0  0  0  0  0  0  0  0  0  0
   22.8420   38.5471   68.6757 S   0  0  0  0  0  0  0  0  0  0  0  0
   21.6455   39.8047   68.6090 C   0  0  0  0  0  0  0  0  0  0  0  0
   28.2996   40.5045   65.7774 O   0  0  0  0  0  0  0  0  0  0  0  0
   29.9911   38.6308   66.2689 O   0  5  0  0  0  0  0  0  0  0  0  0
   21.9321   40.3982   67.4734 N   0  0  0  0  0  0  0  0  0  0  0  0
   29.1266   40.1351   68.2451 O   0  0  0  0  0  0  0  0  0  0  0  0
   30.8949   38.3079   68.6591 O   0  0  0  0  0  0  0  0  0  0  0  0
   22.9223   39.9837   66.7135 C   0  0  2  0  0  0  0  0  0  0  0  0
   23.6590   38.9233   67.1320 C   0  0  2  0  0  0  0  0  0  0  0  0
   24.8353   38.2489   66.4759 C   0  0  0  0  0  0  0  0  0  0  0  0
   25.9774   39.2545   66.3136 C   0  0  0  0  0  0  0  0  0  0  0  0
   26.7382   39.3092   67.5220 O   0  0  0  0  0  0  0  0  0  0  0  0
  1 11  1  0  0  0  0
  3 13  1  1  0  0  0
  3 17  2  0  0  0  0
  3 20  1  0  0  0  0
  3 26  1  0  0  0  0
  4 14  1  1  0  0  0
  4 18  1  0  0  0  0
  4 21  2  0  0  0  0
  4 20  1  0  0  0  0
  5 19  1  0  0  0  0
  5  7  1  0  0  0  0
  6  7  2  0  0  0  0
  6 12  1  0  0  0  0
  7  8  1  0  0  0  0
  8  9  1  0  0  0  0
  8 10  2  0  0  0  0
 10 11  1  0  0  0  0
 11 12  2  0  0  0  0
 15 23  1  0  0  0  0
 15 16  1  0  0  0  0
 16 19  1  0  0  0  0
 19 22  1  0  0  0  0
 22  2  1  1  0  0  0
 22 23  1  0  0  0  0
 23 24  1  6  0  0  0
 24 25  1  0  0  0  0
 25 26  1  0  0  0  0
M  CHG  2  13  -1  18  -1
M  END
>  <CHROM.1>
176.36527860,-84.44892598,7.34607004,-61.97084059,-119.54048947,84.75959613
-175.88249449,87.09187332,24.28016490,39.85899789,66.92086659,2.93772132
-0.09482717,-0.45652031

>  <Name>
ligand

>  <RI>
0

>  <Rbt.Current_Directory>
/home/itssahil/PROJECTS/Mol_Feturizer/New_Systems/rnas/2HOJ

>  <Rbt.Executable>
rbdock ($Id: //depot/dev/client3/rdock/2013.1/src/exe/rbdock.cxx#4 $)

>  <Rbt.Library>
libRbt.so (2013.1, Build901 2013/11/27)

>  <Rbt.Parameter_File>
/export/apps/rDock/src/rDock_2013.1_src/data/scripts/dock_solv.prm

>  <Rbt.Receptor>
prm/pocket_docking_3.prm

>  <SCORE>
-28.9072

>  <SCORE.INTER>
-24.6777

>  <SCORE.INTER.CONST>
1

>  <SCORE.INTER.POLAR>
-2.74141

>  <SCORE.INTER.ROT>
8

>  <SCORE.INTER.SOLV>
27.8224

>  <SCORE.INTER.VDW>
-25.5213

>  <SCORE.INTER.norm>
-0.949143

>  <SCORE.INTRA>
-4.22948

>  <SCORE.INTRA.DIHEDRAL>
-3.94745

>  <SCORE.INTRA.DIHEDRAL.0>
11.6398

>  <SCORE.INTRA.POLAR>
0

>  <SCORE.INTRA.POLAR.0>
0

>  <SCORE.INTRA.REPUL>
0

>  <SCORE.INTRA.REPUL.0>
0

>  <SCORE.INTRA.SOLV>
0.295998

>  <SCORE.INTRA.SOLV.lig_0>
-81.722

>  <SCORE.INTRA.VDW>
-2.40375

>  <SCORE.INTRA.VDW.0>
1.12598

>  <SCORE.INTRA.norm>
-0.162672

>  <SCORE.RESTR>
0

>  <SCORE.RESTR.CAVITY>
0

>  <SCORE.RESTR.norm>
0

>  <SCORE.SYSTEM>
0

>  <SCORE.SYSTEM.CONST>
0

>  <SCORE.SYSTEM.DIHEDRAL>
0

>  <SCORE.SYSTEM.SOLV>
0

>  <SCORE.SYSTEM.norm>
0

>  <SCORE.heavy>
26

>  <SCORE.norm>
-1.11182

>  <RMSD>
1.396

$$$$
ligand
 OpenBabel11021811433D
libRbt.so/2013.1/901 2013/11/27
 26 27  0  0  0  0  0  0  0  0999 V2000
   16.5408   39.5532   64.6741 C   0  0  0  0  0  0  0  0  0  0  0  0
   23.9700   40.5499   65.5539 C   0  0  0  0  0  0  0  0  0  0  0  0
   28.7632   38.7782   68.7117 P   0  0  1  0  0  0  0  0  0  0  0  0
   29.9102   39.9417   66.7073 P   0  0  1  0  0  0  0  0  0  0  0  0
   21.5406   41.4475   66.6318 C   0  0  0  0  0  0  0  0  0  0  0  0
   19.9400   39.5957   66.0654 C   0  0  0  0  0  0  0  0  0  0  0  0
   20.2168   40.9475   66.1133 C   0  0  0  0  0  0  0  0  0  0  0  0
   19.2391   41.8396   65.6695 C   0  0  0  0  0  0  0  0  0  0  0  0
   19.4682   43.2071   65.6965 N   0  0  0  0  0  0  0  0  0  0  0  0
   18.0860   41.3582   65.2146 N   0  0  0  0  0  0  0  0  0  0  0  0
   17.8618   40.0604   65.1910 C   0  0  0  0  0  0  0  0  0  0  0  0
   18.7645   39.1917   65.6027 N   0  0  0  0  0  0  0  0  0  0  0  0
   29.9728   37.9255   68.7522 O   0  5  0  0  0  0  0  0  0  0  0  0
   31.2812   39.2916   66.9970 O   0  0  0  0  0  0  0  0  0  0  0  0
   22.9061   38.6009   68.7806 S   0  0  0  0  0  0  0  0  0  0  0  0
   21.7325   39.8166   68.3780 C   0  0  0  0  0  0  0  0  0  0  0  0
   28.1888   38.9670   70.2024 O   0  0  0  0  0  0  0  0  0  0  0  0
   29.0289   38.9536   65.7924 O   0  5  0  0  0  0  0  0  0  0  0  0
   22.2501   40.3525   67.2969 N   0  0  0  0  0  0  0  0  0  0  0  0
   29.1422   40.2172   68.0958 O   0  0  0  0  0  0  0  0  0  0  0  0
   30.1225   41.2794   65.9633 O   0  0  0  0  0  0  0  0  0  0  0  0
   23.3890   39.9249   66.7971 C   0  0  2  0  0  0  0  0  0  0  0  0
   24.0341   38.9124   67.4306 C   0  0  2  0  0  0  0  0  0  0  0  0
   25.3362   38.2369   67.0884 C   0  0  0  0  0  0  0  0  0  0  0  0
   26.4771   38.9015   67.8622 C   0  0  0  0  0  0  0  0  0  0  0  0
   27.6437   38.0796   67.7889 O   0  0  0  0  0  0  0  0  0  0  0  0
  1 11  1  0  0  0  0
  3 13  1  1  0  0  0
  3 17  2  0  0  0  0
  3 20  1  0  0  0  0
  3 26  1  0  0  0  0
  4 14  1  1  0  0  0
  4 18  1  0  0  0  0
  4 21  2  0  0  0  0
  4 20  1  0  0  0  0
  5 19  1  0  0  0  0
  5  7  1  0  0  0  0
  6  7  2  0  0  0  0
  6 12  1  0  0  0  0
  7  8  1  0  0  0  0
  8  9  1  0  0  0  0
  8 10  2  0  0  0  0
 10 11  1  0  0  0  0
 11 12  2  0  0  0  0
 15 23  1  0  0  0  0
 15 16  1  0  0  0  0
 16 19  1  0  0  0  0
 19 22  1  0  0  0  0
 22  2  1  1  0  0  0
 22 23  1  0  0  0  0
 23 24  1  6  0  0  0
 24 25  1  0  0  0  0
 25 26  1  0  0  0  0
M  CHG  2  13  -1  18  -1
M  END
>  <CHROM.1>
51.59872906,-63.94564099,-12.41277822,-68.18758703,-86.06423039,166.47578166
-175.77550613,176.21665227,24.70903279,39.72116239,67.06452737,2.93190567
-0.02126582,-0.85531296

>  <Name>
ligand

>  <RI>
0

>  <Rbt.Current_Directory>
/home/itssahil/PROJECTS/Mol_Feturizer/New_Systems/rnas/2HOJ

>  <Rbt.Executable>
rbdock ($Id: //depot/dev/client3/rdock/2013.1/src/exe/rbdock.cxx#4 $)

>  <Rbt.Library>
libRbt.so (2013.1, Build901 2013/11/27)

>  <Rbt.Parameter_File>
/export/apps/rDock/src/rDock_2013.1_src/data/scripts/dock_solv.prm

>  <Rbt.Receptor>
prm/pocket_docking_5.prm

>  <SCORE>
-28.4645

>  <SCORE.INTER>
-22.9863

>  <SCORE.INTER.CONST>
1

>  <SCORE.INTER.POLAR>
-2.74776

>  <SCORE.INTER.ROT>
8

>  <SCORE.INTER.SOLV>
27.1383

>  <SCORE.INTER.VDW>
-24.1444

>  <SCORE.INTER.norm>
-0.884088

>  <SCORE.INTRA>
-5.47817

>  <SCORE.INTRA.DIHEDRAL>
-5.71137

>  <SCORE.INTRA.DIHEDRAL.0>
11.6398

>  <SCORE.INTRA.POLAR>
0

>  <SCORE.INTRA.POLAR.0>
0

>  <SCORE.INTRA.REPUL>
0

>  <SCORE.INTRA.REPUL.0>
0

>  <SCORE.INTRA.SOLV>
0.837712

>  <SCORE.INTRA.SOLV.lig_0>
-81.722

>  <SCORE.INTRA.VDW>
-3.04134

>  <SCORE.INTRA.VDW.0>
1.12598

>  <SCORE.INTRA.norm>
-0.210699

>  <SCORE.RESTR>
0

>  <SCORE.RESTR.CAVITY>
0

>  <SCORE.RESTR.norm>
0

>  <SCORE.SYSTEM>
0

>  <SCORE.SYSTEM.CONST>
0

>  <SCORE.SYSTEM.DIHEDRAL>
0

>  <SCORE.SYSTEM.SOLV>
0

>  <SCORE.SYSTEM.norm>
0

>  <SCORE.heavy>
26

>  <SCORE.norm>
-1.09479

>  <RMSD>
1.414

$$$$
ligand
 OpenBabel11021811433D
libRbt.so/2013.1/901 2013/11/27
 26 27  0  0  0  0  0  0  0  0999 V2000
   15.7938   38.9917   64.1394 C   0  0  0  0  0  0  0  0  0  0  0  0
   23.3324   40.2214   65.6231 C   0  0  0  0  0  0  0  0  0  0  0  0
   27.7824   38.7410   69.1775 P   0  0  1  0  0  0  0  0  0  0  0  0
   29.7230   38.9171   67.4776 P   0  0  1  0  0  0  0  0  0  0  0  0
   20.6986   40.8797   66.3297 C   0  0  0  0  0  0  0  0  0  0  0  0
   19.2246   39.0450   65.4506 C   0  0  0  0  0  0  0  0  0  0  0  0
   19.3998   40.3814   65.7499 C   0  0  0  0  0  0  0  0  0  0  0  0
   18.3432   41.2593   65.5021 C   0  0  0  0  0  0  0  0  0  0  0  0
   18.4691   42.6113   65.7849 N   0  0  0  0  0  0  0  0  0  0  0  0
   17.2153   40.7810   64.9852 N   0  0  0  0  0  0  0  0  0  0  0  0
   17.0892   39.4971   64.7190 C   0  0  0  0  0  0  0  0  0  0  0  0
   18.0682   38.6420   64.9411 N   0  0  0  0  0  0  0  0  0  0  0  0
   27.3636   38.2737   70.5184 O   0  5  0  0  0  0  0  0  0  0  0  0
   29.6019   40.4571   67.4813 O   0  0  0  0  0  0  0  0  0  0  0  0
   21.9045   37.9757   68.4971 S   0  0  0  0  0  0  0  0  0  0  0  0
   20.7243   39.1401   67.9786 C   0  0  0  0  0  0  0  0  0  0  0  0
   27.6200   40.3391   69.0906 O   0  0  0  0  0  0  0  0  0  0  0  0
   31.2380   38.4975   67.1326 O   0  5  0  0  0  0  0  0  0  0  0  0
   21.3701   39.7863   67.0356 N   0  0  0  0  0  0  0  0  0  0  0  0
   29.3230   38.3434   68.9283 O   0  0  0  0  0  0  0  0  0  0  0  0
   28.7708   38.3292   66.4119 O   0  0  0  0  0  0  0  0  0  0  0  0
   22.6045   39.4705   66.7094 C   0  0  2  0  0  0  0  0  0  0  0  0
   23.2116   38.4575   67.3785 C   0  0  2  0  0  0  0  0  0  0  0  0
   24.5993   37.8938   67.2194 C   0  0  0  0  0  0  0  0  0  0  0  0
   25.5332   38.5331   68.2495 C   0  0  0  0  0  0  0  0  0  0  0  0
   26.8621   38.0454   68.0540 O   0  0  0  0  0  0  0  0  0  0  0  0
  1 11  1  0  0  0  0
  3 13  1  1  0  0  0
  3 17  2  0  0  0  0
  3 20  1  0  0  0  0
  3 26  1  0  0  0  0
  4 14  1  1  0  0  0
  4 18  1  0  0  0  0
  4 21  2  0  0  0  0
  4 20  1  0  0  0  0
  5 19  1  0  0  0  0
  5  7  1  0  0  0  0
  6  7  2  0  0  0  0
  6 12  1  0  0  0  0
  7  8  1  0  0  0  0
  8  9  1  0  0  0  0
  8 10  2  0  0  0  0
 10 11  1  0  0  0  0
 11 12  2  0  0  0  0
 15 23  1  0  0  0  0
 15 16  1  0  0  0  0
 16 19  1  0  0  0  0
 19 22  1  0  0  0  0
 22  2  1  1  0  0  0
 22 23  1  0  0  0  0
 23 24  1  6  0  0  0
 24 25  1  0  0  0  0
 25 26  1  0  0  0  0
M  CHG  2  13  -1  18  -1
M  END
>  <CHROM.1>
-178.36271781,-54.88842967,-25.39094683,62.41428386,-83.95281393,-177.19525408
-179.28239551,65.40769824,23.95297006,39.23971411,67.18126214,-2.88257641
0.06493532,2.21072929

>  <Name>
ligand

>  <RI>
0

>  <Rbt.Current_Directory>
/home/itssahil/PROJECTS/Mol_Feturizer/New_Systems/rnas/2HOJ

>  <Rbt.Executable>
rbdock ($Id: //depot/dev/client3/rdock/2013.1/src/exe/rbdock.cxx#4 $)

>  <Rbt.Library>
libRbt.so (2013.1, Build901 2013/11/27)

>  <Rbt.Parameter_File>
/export/apps/rDock/src/rDock_2013.1_src/data/scripts/dock_solv.prm

>  <Rbt.Receptor>
prm/pocket_docking_3.prm

>  <SCORE>
-24.0728

>  <SCORE.INTER>
-18.3937

>  <SCORE.INTER.CONST>
1

>  <SCORE.INTER.POLAR>
-1.02216

>  <SCORE.INTER.ROT>
8

>  <SCORE.INTER.SOLV>
29.3404

>  <SCORE.INTER.VDW>
-27.5687

>  <SCORE.INTER.norm>
-0.70745

>  <SCORE.INTRA>
-5.67914

>  <SCORE.INTRA.DIHEDRAL>
-6.57898

>  <SCORE.INTRA.DIHEDRAL.0>
11.6398

>  <SCORE.INTRA.POLAR>
0

>  <SCORE.INTRA.POLAR.0>
0

>  <SCORE.INTRA.REPUL>
0

>  <SCORE.INTRA.REPUL.0>
0

>  <SCORE.INTRA.SOLV>
0.592968

>  <SCORE.INTRA.SOLV.lig_0>
-81.722

>  <SCORE.INTRA.VDW>
-2.68613

>  <SCORE.INTRA.VDW.0>
1.12598

>  <SCORE.INTRA.norm>
-0.218428

>  <SCORE.RESTR>
0

>  <SCORE.RESTR.CAVITY>
0

>  <SCORE.RESTR.norm>
0

>  <SCORE.SYSTEM>
0

>  <SCORE.SYSTEM.CONST>
0

>  <SCORE.SYSTEM.DIHEDRAL>
0

>  <SCORE.SYSTEM.SOLV>
0

>  <SCORE.SYSTEM.norm>
0

>  <SCORE.heavy>
26

>  <SCORE.norm>
-0.925878

>  <RMSD>
1.432

$$$$
ligand
 OpenBabel11021811433D
libRbt.so/2013.1/901 2013/11/27
 26 27  0  0  0  0  0  0  0  0999 V2000
   16.6706   40.0288   64.4537 C   0  0  0  0  0  0  0  0  0  0  0  0
   23.3523   41.1141   65.1355 C   0  0  0  0  0  0  0  0  0  0  0  0
   27.7809   37.7820   67.9529 P   0  0  1  0  0  0  0  0  0  0  0  0
   30.1416   38.7562   67.5463 P   0  0  1  0  0  0  0  0  0  0  0  0
   21.4724   41.3746   67.2014 C   0  0  0  0  0  0  0  0  0  0  0  0
   19.7710   39.7101   66.3975 C   0  0  0  0  0  0  0  0  0  0  0  0
   20.2013   41.0198   66.4737 C   0  0  0  0  0  0  0  0  0  0  0  0
   19.4287   42.0072   65.8598 C   0  0  0  0  0  0  0  0  0  0  0  0
   19.8178   43.3376   65.9072 N   0  0  0  0  0  0  0  0  0  0  0  0
   18.3163   41.6526   65.2233 N   0  0  0  0  0  0  0  0  0  0  0  0
   17.9402   40.3910   65.1792 C   0  0  0  0  0  0  0  0  0  0  0  0
   18.6475   39.4347   65.7485 N   0  0  0  0  0  0  0  0  0  0  0  0
   28.3661   36.6306   67.2295 O   0  5  0  0  0  0  0  0  0  0  0  0
   29.5347   39.0388   66.1542 O   0  0  0  0  0  0  0  0  0  0  0  0
   23.5174   38.1949   67.7418 S   0  0  0  0  0  0  0  0  0  0  0  0
   22.2780   39.3346   68.1685 C   0  0  0  0  0  0  0  0  0  0  0  0
   26.7790   37.2478   69.0924 O   0  0  0  0  0  0  0  0  0  0  0  0
   31.1339   39.9558   67.9542 O   0  5  0  0  0  0  0  0  0  0  0  0
   22.3730   40.2198   67.2034 N   0  0  0  0  0  0  0  0  0  0  0  0
   28.9597   38.6421   68.6344 O   0  0  0  0  0  0  0  0  0  0  0  0
   30.9303   37.4280   67.5032 O   0  0  0  0  0  0  0  0  0  0  0  0
   23.2563   40.0895   66.2377 C   0  0  2  0  0  0  0  0  0  0  0  0
   24.0855   39.0150   66.2597 C   0  0  2  0  0  0  0  0  0  0  0  0
   25.1776   38.6216   65.2998 C   0  0  0  0  0  0  0  0  0  0  0  0
   26.2561   37.8330   66.0461 C   0  0  0  0  0  0  0  0  0  0  0  0
   26.9704   38.7118   66.9176 O   0  0  0  0  0  0  0  0  0  0  0  0
  1 11  1  0  0  0  0
  3 13  1  6  0  0  0
  3 17  2  0  0  0  0
  3 20  1  0  0  0  0
  3 26  1  0  0  0  0
  4 14  1  6  0  0  0
  4 18  1  0  0  0  0
  4 21  2  0  0  0  0
  4 20  1  0  0  0  0
  5 19  1  0  0  0  0
  5  7  1  0  0  0  0
  6  7  2  0  0  0  0
  6 12  1  0  0  0  0
  7  8  1  0  0  0  0
  8  9  1  0  0  0  0
  8 10  2  0  0  0  0
 10 11  1  0  0  0  0
 11 12  2  0  0  0  0
 15 23  1  0  0  0  0
 15 16  1  0  0  0  0
 16 19  1  0  0  0  0
 19 22  1  0  0  0  0
 22  2  1  1  0  0  0
 22 23  1  0  0  0  0
 23 24  1  6  0  0  0
 24 25  1  0  0  0  0
 25 26  1  0  0  0  0
M  CHG  2  13  -1  18  -1
M  END
>  <CHROM.1>
42.89164260,-88.06426582,25.98919458,42.29382471,-29.44129724,-70.38694472
164.41731271,41.58099888,24.59955699,39.30187006,66.84042474,2.85385329,-0.08859918
-0.33544952

>  <Name>
ligand

>  <RI>
0

>  <Rbt.Current_Directory>
/home/itssahil/PROJECTS/Mol_Feturizer/New_Systems/rnas/2HOJ

>  <Rbt.Executable>
rbdock ($Id: //depot/dev/client3/rdock/2013.1/src/exe/rbdock.cxx#4 $)

>  <Rbt.Library>
libRbt.so (2013.1, Build901 2013/11/27)

>  <Rbt.Parameter_File>
/export/apps/rDock/src/rDock_2013.1_src/data/scripts/dock_solv.prm

>  <Rbt.Receptor>
prm/pocket_docking_6.prm

>  <SCORE>
-28.3087

>  <SCORE.INTER>
-23.7172

>  <SCORE.INTER.CONST>
1

>  <SCORE.INTER.POLAR>
-3.0175

>  <SCORE.INTER.ROT>
8

>  <SCORE.INTER.SOLV>
28.6974

>  <SCORE.INTER.VDW>
-24.2523

>  <SCORE.INTER.norm>
-0.912201

>  <SCORE.INTRA>
-4.60232

>  <SCORE.INTRA.DIHEDRAL>
-3.8312

>  <SCORE.INTRA.DIHEDRAL.0>
11.6398

>  <SCORE.INTRA.POLAR>
0

>  <SCORE.INTRA.POLAR.0>
0

>  <SCORE.INTRA.REPUL>
0

>  <SCORE.INTRA.REPUL.0>
0

>  <SCORE.INTRA.SOLV>
0.354753

>  <SCORE.INTRA.SOLV.lig_0>
-81.722

>  <SCORE.INTRA.VDW>
-2.8641

>  <SCORE.INTRA.VDW.0>
1.12598

>  <SCORE.INTRA.norm>
-0.177012

>  <SCORE.RESTR>
0.0108599

>  <SCORE.RESTR.CAVITY>
0.0108599

>  <SCORE.RESTR.norm>
0.000417689

>  <SCORE.SYSTEM>
0

>  <SCORE.SYSTEM.CONST>
0

>  <SCORE.SYSTEM.DIHEDRAL>
0

>  <SCORE.SYSTEM.SOLV>
0

>  <SCORE.SYSTEM.norm>
0

>  <SCORE.heavy>
26

>  <SCORE.norm>
-1.0888

>  <RMSD>
1.553

$$$$
ligand
 OpenBabel11021811433D
libRbt.so/2013.1/901 2013/11/27
 26 27  0  0  0  0  0  0  0  0999 V2000
   16.2906   39.8460   64.1407 C   0  0  0  0  0  0  0  0  0  0  0  0
   23.5521   41.7732   66.0252 C   0  0  0  0  0  0  0  0  0  0  0  0
   27.0277   38.2372   67.8707 P   0  0  1  0  0  0  0  0  0  0  0  0
   29.5819   38.4834   67.5504 P   0  0  1  0  0  0  0  0  0  0  0  0
   21.1836   40.5918   66.9549 C   0  0  0  0  0  0  0  0  0  0  0  0
   19.2694   39.1621   66.1781 C   0  0  0  0  0  0  0  0  0  0  0  0
   19.8885   40.3958   66.2096 C   0  0  0  0  0  0  0  0  0  0  0  0
   19.2842   41.4572   65.5336 C   0  0  0  0  0  0  0  0  0  0  0  0
   19.8663   42.7160   65.5343 N   0  0  0  0  0  0  0  0  0  0  0  0
   18.1443   41.2421   64.8836 N   0  0  0  0  0  0  0  0  0  0  0  0
   17.5852   40.0494   64.8835 C   0  0  0  0  0  0  0  0  0  0  0  0
   18.1306   39.0263   65.5119 N   0  0  0  0  0  0  0  0  0  0  0  0
   25.9444   37.4727   68.5291 O   0  5  0  0  0  0  0  0  0  0  0  0
   29.5027   39.8777   68.2108 O   0  0  0  0  0  0  0  0  0  0  0  0
   23.4816   37.8864   65.5459 S   0  0  0  0  0  0  0  0  0  0  0  0
   22.0140   38.4438   66.2894 C   0  0  0  0  0  0  0  0  0  0  0  0
   27.0478   39.7410   68.4419 O   0  0  0  0  0  0  0  0  0  0  0  0
   31.0310   37.8395   67.8252 O   0  5  0  0  0  0  0  0  0  0  0  0
   22.2192   39.7383   66.3683 N   0  0  0  0  0  0  0  0  0  0  0  0
   28.4427   37.5295   68.1717 O   0  0  0  0  0  0  0  0  0  0  0  0
   29.3611   38.6228   66.0273 O   0  0  0  0  0  0  0  0  0  0  0  0
   23.3319   40.2845   65.9288 C   0  0  2  0  0  0  0  0  0  0  0  0
   24.2818   39.4764   65.3929 C   0  0  2  0  0  0  0  0  0  0  0  0
   25.6325   39.8238   64.8240 C   0  0  0  0  0  0  0  0  0  0  0  0
   26.7038   39.6457   65.9023 C   0  0  0  0  0  0  0  0  0  0  0  0
   26.7734   38.2696   66.2810 O   0  0  0  0  0  0  0  0  0  0  0  0
  1 11  1  0  0  0  0
  3 13  1  1  0  0  0
  3 17  2  0  0  0  0
  3 20  1  0  0  0  0
  3 26  1  0  0  0  0
  4 14  1  1  0  0  0
  4 18  1  0  0  0  0
  4 21  2  0  0  0  0
  4 20  1  0  0  0  0
  5 19  1  0  0  0  0
  5  7  1  0  0  0  0
  6  7  2  0  0  0  0
  6 12  1  0  0  0  0
  7  8  1  0  0  0  0
  8  9  1  0  0  0  0
  8 10  2  0  0  0  0
 10 11  1  0  0  0  0
 11 12  2  0  0  0  0
 15 23  1  0  0  0  0
 15 16  1  0  0  0  0
 16 19  1  0  0  0  0
 19 22  1  0  0  0  0
 22  2  1  1  0  0  0
 22 23  1  0  0  0  0
 23 24  1  6  0  0  0
 24 25  1  0  0  0  0
 25 26  1  0  0  0  0
M  CHG  2  13  -1  18  -1
M  END
>  <CHROM.1>
-174.70462001,-56.41861982,61.68162471,59.49111680,-84.90350142,63.96934540
-142.10096023,122.37327002,24.27473984,39.31830429,66.47885427,2.93304943
-0.19076753,-0.13976250

>  <Name>
ligand

>  <RI>
0

>  <Rbt.Current_Directory>
/home/itssahil/PROJECTS/Mol_Feturizer/New_Systems/rnas/2HOJ

>  <Rbt.Executable>
rbdock ($Id: //depot/dev/client3/rdock/2013.1/src/exe/rbdock.cxx#4 $)

>  <Rbt.Library>
libRbt.so (2013.1, Build901 2013/11/27)

>  <Rbt.Parameter_File>
/export/apps/rDock/src/rDock_2013.1_src/data/scripts/dock_solv.prm

>  <Rbt.Receptor>
prm/pocket_docking_5.prm

>  <SCORE>
-25.8994

>  <SCORE.INTER>
-26.0066

>  <SCORE.INTER.CONST>
1

>  <SCORE.INTER.POLAR>
-2.67936

>  <SCORE.INTER.ROT>
8

>  <SCORE.INTER.SOLV>
22.6296

>  <SCORE.INTER.VDW>
-24.8831

>  <SCORE.INTER.norm>
-1.00025

>  <SCORE.INTRA>
0.107168

>  <SCORE.INTRA.DIHEDRAL>
0.85589

>  <SCORE.INTRA.DIHEDRAL.0>
11.6398

>  <SCORE.INTRA.POLAR>
0

>  <SCORE.INTRA.POLAR.0>
0

>  <SCORE.INTRA.REPUL>
0

>  <SCORE.INTRA.REPUL.0>
0

>  <SCORE.INTRA.SOLV>
2.69605

>  <SCORE.INTRA.SOLV.lig_0>
-81.722

>  <SCORE.INTRA.VDW>
-1.6688

>  <SCORE.INTRA.VDW.0>
1.12598

>  <SCORE.INTRA.norm>
0.00412186

>  <SCORE.RESTR>
0

>  <SCORE.RESTR.CAVITY>
0

>  <SCORE.RESTR.norm>
0

>  <SCORE.SYSTEM>
0

>  <SCORE.SYSTEM.CONST>
0

>  <SCORE.SYSTEM.DIHEDRAL>
0

>  <SCORE.SYSTEM.SOLV>
0

>  <SCORE.SYSTEM.norm>
0

>  <SCORE.heavy>
26

>  <SCORE.norm>
-0.996131

>  <RMSD>
1.554

$$$$
ligand
 OpenBabel11021811433D
libRbt.so/2013.1/901 2013/11/27
 26 27  0  0  0  0  0  0  0  0999 V2000
   16.3770   39.2040   64.8365 C   0  0  0  0  0  0  0  0  0  0  0  0
   23.0732   40.6348   68.3321 C   0  0  0  0  0  0  0  0  0  0  0  0
   27.7867   39.5840   69.0820 P   0  0  1  0  0  0  0  0  0  0  0  0
   29.9845   38.9319   67.8856 P   0  0  1  0  0  0  0  0  0  0  0  0
   21.5785   41.1917   66.0244 C   0  0  0  0  0  0  0  0  0  0  0  0
   19.9592   39.3094   65.6419 C   0  0  0  0  0  0  0  0  0  0  0  0
   20.2013   40.6670   65.7098 C   0  0  0  0  0  0  0  0  0  0  0  0
   19.1376   41.5414   65.4800 C   0  0  0  0  0  0  0  0  0  0  0  0
   19.3288   42.9139   65.5361 N   0  0  0  0  0  0  0  0  0  0  0  0
   17.9387   41.0387   65.2005 N   0  0  0  0  0  0  0  0  0  0  0  0
   17.7510   39.7359   65.1504 C   0  0  0  0  0  0  0  0  0  0  0  0
   18.7346   38.8834   65.3623 N   0  0  0  0  0  0  0  0  0  0  0  0
   27.2037   39.8794   70.4103 O   0  5  0  0  0  0  0  0  0  0  0  0
   31.4831   39.2701   67.7246 O   0  0  0  0  0  0  0  0  0  0  0  0
   23.8957   38.2317   65.3504 S   0  0  0  0  0  0  0  0  0  0  0  0
   22.6814   39.3875   64.8954 C   0  0  0  0  0  0  0  0  0  0  0  0
   27.2104   40.6244   67.9989 O   0  0  0  0  0  0  0  0  0  0  0  0
   29.8114   37.3471   68.1061 O   0  5  0  0  0  0  0  0  0  0  0  0
   22.5402   40.0875   65.9973 N   0  0  0  0  0  0  0  0  0  0  0  0
   29.3896   39.7202   69.1578 O   0  0  0  0  0  0  0  0  0  0  0  0
   29.2210   39.3606   66.6123 O   0  0  0  0  0  0  0  0  0  0  0  0
   23.2459   39.8207   67.0746 C   0  0  2  0  0  0  0  0  0  0  0  0
   24.1285   38.7904   67.0314 C   0  0  2  0  0  0  0  0  0  0  0  0
   25.0503   38.2664   68.1012 C   0  0  0  0  0  0  0  0  0  0  0  0
   26.4789   38.1956   67.5570 C   0  0  0  0  0  0  0  0  0  0  0  0
   27.3975   38.0835   68.6458 O   0  0  0  0  0  0  0  0  0  0  0  0
  1 11  1  0  0  0  0
  3 13  1  1  0  0  0
  3 17  2  0  0  0  0
  3 20  1  0  0  0  0
  3 26  1  0  0  0  0
  4 14  1  6  0  0  0
  4 18  1  0  0  0  0
  4 21  2  0  0  0  0
  4 20  1  0  0  0  0
  5 19  1  0  0  0  0
  5  7  1  0  0  0  0
  6  7  2  0  0  0  0
  6 12  1  0  0  0  0
  7  8  1  0  0  0  0
  8  9  1  0  0  0  0
  8 10  2  0  0  0  0
 10 11  1  0  0  0  0
 11 12  2  0  0  0  0
 15 23  1  0  0  0  0
 15 16  1  0  0  0  0
 16 19  1  0  0  0  0
 19 22  1  0  0  0  0
 22  2  1  1  0  0  0
 22 23  1  0  0  0  0
 23 24  1  6  0  0  0
 24 25  1  0  0  0  0
 25 26  1  0  0  0  0
M  CHG  2  13  -1  18  -1
M  END
>  <CHROM.1>
161.42365081,58.86429586,9.44392336,168.00889642,52.46987453,163.16318946
-89.37008186,110.66310651,24.55052265,39.52789315,67.02778362,-3.06686424
-0.29571457,0.65227441

>  <Name>
ligand

>  <RI>
0

>  <Rbt.Current_Directory>
/home/itssahil/PROJECTS/Mol_Feturizer/New_Systems/rnas/2HOJ

>  <Rbt.Executable>
rbdock ($Id: //depot/dev/client3/rdock/2013.1/src/exe/rbdock.cxx#4 $)

>  <Rbt.Library>
libRbt.so (2013.1, Build901 2013/11/27)

>  <Rbt.Parameter_File>
/export/apps/rDock/src/rDock_2013.1_src/data/scripts/dock_solv.prm

>  <Rbt.Receptor>
prm/pocket_docking_3.prm

>  <SCORE>
-22.7821

>  <SCORE.INTER>
-24.5192

>  <SCORE.INTER.CONST>
1

>  <SCORE.INTER.POLAR>
-2.73436

>  <SCORE.INTER.ROT>
8

>  <SCORE.INTER.SOLV>
26.8786

>  <SCORE.INTER.VDW>
-25.1245

>  <SCORE.INTER.norm>
-0.943046

>  <SCORE.INTRA>
1.73713

>  <SCORE.INTRA.DIHEDRAL>
0.994901

>  <SCORE.INTRA.DIHEDRAL.0>
11.6398

>  <SCORE.INTRA.POLAR>
0

>  <SCORE.INTRA.POLAR.0>
0

>  <SCORE.INTRA.REPUL>
0

>  <SCORE.INTRA.REPUL.0>
0

>  <SCORE.INTRA.SOLV>
4.64654

>  <SCORE.INTRA.SOLV.lig_0>
-81.722

>  <SCORE.INTRA.VDW>
-1.08359

>  <SCORE.INTRA.VDW.0>
1.12598

>  <SCORE.INTRA.norm>
0.0668126

>  <SCORE.RESTR>
0

>  <SCORE.RESTR.CAVITY>
0

>  <SCORE.RESTR.norm>
0

>  <SCORE.SYSTEM>
0

>  <SCORE.SYSTEM.CONST>
0

>  <SCORE.SYSTEM.DIHEDRAL>
0

>  <SCORE.SYSTEM.SOLV>
0

>  <SCORE.SYSTEM.norm>
0

>  <SCORE.heavy>
26

>  <SCORE.norm>
-0.876234

>  <RMSD>
1.617

$$$$
ligand
 OpenBabel11021811433D
libRbt.so/2013.1/901 2013/11/27
 26 27  0  0  0  0  0  0  0  0999 V2000
   16.2098   39.3005   64.2738 C   0  0  0  0  0  0  0  0  0  0  0  0
   22.5750   40.1167   65.0910 C   0  0  0  0  0  0  0  0  0  0  0  0
   27.4570   39.1649   68.1213 P   0  0  1  0  0  0  0  0  0  0  0  0
   29.9136   38.7444   67.4320 P   0  0  1  0  0  0  0  0  0  0  0  0
   20.8196   41.5631   66.7331 C   0  0  0  0  0  0  0  0  0  0  0  0
   18.7558   41.7365   65.3111 C   0  0  0  0  0  0  0  0  0  0  0  0
   19.5998   40.9629   66.0828 C   0  0  0  0  0  0  0  0  0  0  0  0
   19.2946   39.6104   66.2451 C   0  0  0  0  0  0  0  0  0  0  0  0
   20.1103   38.7909   67.0109 N   0  0  0  0  0  0  0  0  0  0  0  0
   18.2064   39.1202   65.6589 N   0  0  0  0  0  0  0  0  0  0  0  0
   17.4309   39.8935   64.9269 C   0  0  0  0  0  0  0  0  0  0  0  0
   17.6911   41.1747   64.7542 N   0  0  0  0  0  0  0  0  0  0  0  0
   27.9662   39.0213   69.5040 O   0  5  0  0  0  0  0  0  0  0  0  0
   30.3358   38.1623   68.7991 O   0  0  0  0  0  0  0  0  0  0  0  0
   22.6458   38.9430   68.8273 S   0  0  0  0  0  0  0  0  0  0  0  0
   21.5161   40.2445   68.6099 C   0  0  0  0  0  0  0  0  0  0  0  0
   27.4772   40.7172   67.6999 O   0  0  0  0  0  0  0  0  0  0  0  0
   30.8807   38.1700   66.2809 O   0  5  0  0  0  0  0  0  0  0  0  0
   21.6310   40.4981   67.3268 N   0  0  0  0  0  0  0  0  0  0  0  0
   28.3917   38.3231   67.1157 O   0  0  0  0  0  0  0  0  0  0  0  0
   30.0222   40.2854   67.4737 O   0  0  0  0  0  0  0  0  0  0  0  0
   22.4554   39.8144   66.5635 C   0  0  2  0  0  0  0  0  0  0  0  0
   23.2024   38.8346   67.1331 C   0  0  2  0  0  0  0  0  0  0  0  0
   24.2155   37.9105   66.5097 C   0  0  0  0  0  0  0  0  0  0  0  0
   25.6155   38.5109   66.6569 C   0  0  0  0  0  0  0  0  0  0  0  0
   25.9487   38.6064   68.0432 O   0  0  0  0  0  0  0  0  0  0  0  0
  1 11  1  0  0  0  0
  3 13  1  1  0  0  0
  3 17  2  0  0  0  0
  3 20  1  0  0  0  0
  3 26  1  0  0  0  0
  4 14  1  1  0  0  0
  4 18  1  0  0  0  0
  4 21  2  0  0  0  0
  4 20  1  0  0  0  0
  5 19  1  0  0  0  0
  5  7  1  0  0  0  0
  6  7  2  0  0  0  0
  6 12  1  0  0  0  0
  7  8  1  0  0  0  0
  8  9  1  0  0  0  0
  8 10  2  0  0  0  0
 10 11  1  0  0  0  0
 11 12  2  0  0  0  0
 15 23  1  0  0  0  0
 15 16  1  0  0  0  0
 16 19  1  0  0  0  0
 19 22  1  0  0  0  0
 22  2  1  1  0  0  0
 22 23  1  0  0  0  0
 23 24  1  6  0  0  0
 24 25  1  0  0  0  0
 25 26  1  0  0  0  0
M  CHG  2  13  -1  18  -1
M  END
>  <CHROM.1>
-50.07851811,-97.75986788,-172.05331673,71.02416654,-86.51520478,63.45333065
176.88781905,-168.19374048,24.12265189,39.43633492,67.05055533,-2.93744375
-0.08690534,1.72473824

>  <Name>
ligand

>  <RI>
0

>  <Rbt.Current_Directory>
/home/itssahil/PROJECTS/Mol_Feturizer/New_Systems/rnas/2HOJ

>  <Rbt.Executable>
rbdock ($Id: //depot/dev/client3/rdock/2013.1/src/exe/rbdock.cxx#4 $)

>  <Rbt.Library>
libRbt.so (2013.1, Build901 2013/11/27)

>  <Rbt.Parameter_File>
/export/apps/rDock/src/rDock_2013.1_src/data/scripts/dock_solv.prm

>  <Rbt.Receptor>
prm/pocket_docking_2.prm

>  <SCORE>
-26.6519

>  <SCORE.INTER>
-27.504

>  <SCORE.INTER.CONST>
1

>  <SCORE.INTER.POLAR>
-2.67381

>  <SCORE.INTER.ROT>
8

>  <SCORE.INTER.SOLV>
21.5266

>  <SCORE.INTER.VDW>
-25.5321

>  <SCORE.INTER.norm>
-1.05784

>  <SCORE.INTRA>
0.852029

>  <SCORE.INTRA.DIHEDRAL>
-6.05025

>  <SCORE.INTRA.DIHEDRAL.0>
11.6398

>  <SCORE.INTRA.POLAR>
0

>  <SCORE.INTRA.POLAR.0>
0

>  <SCORE.INTRA.REPUL>
0

>  <SCORE.INTRA.REPUL.0>
0

>  <SCORE.INTRA.SOLV>
7.37176

>  <SCORE.INTRA.SOLV.lig_0>
-81.722

>  <SCORE.INTRA.VDW>
0.191277

>  <SCORE.INTRA.VDW.0>
1.12598

>  <SCORE.INTRA.norm>
0.0327704

>  <SCORE.RESTR>
0

>  <SCORE.RESTR.CAVITY>
0

>  <SCORE.RESTR.norm>
0

>  <SCORE.SYSTEM>
0

>  <SCORE.SYSTEM.CONST>
0

>  <SCORE.SYSTEM.DIHEDRAL>
0

>  <SCORE.SYSTEM.SOLV>
0

>  <SCORE.SYSTEM.norm>
0

>  <SCORE.heavy>
26

>  <SCORE.norm>
-1.02507

>  <RMSD>
1.627

$$$$
ligand
 OpenBabel11021811433D
libRbt.so/2013.1/901 2013/11/27
 26 27  0  0  0  0  0  0  0  0999 V2000
   16.3741   39.7144   64.2658 C   0  0  0  0  0  0  0  0  0  0  0  0
   22.3270   39.9775   64.9819 C   0  0  0  0  0  0  0  0  0  0  0  0
   27.7140   38.2551   66.4745 P   0  0  1  0  0  0  0  0  0  0  0  0
   30.0332   38.7241   67.5176 P   0  0  1  0  0  0  0  0  0  0  0  0
   21.0509   41.3215   67.0878 C   0  0  0  0  0  0  0  0  0  0  0  0
   19.4555   39.5663   66.2597 C   0  0  0  0  0  0  0  0  0  0  0  0
   19.8128   40.8975   66.3405 C   0  0  0  0  0  0  0  0  0  0  0  0
   18.9977   41.8410   65.7125 C   0  0  0  0  0  0  0  0  0  0  0  0
   19.3132   43.1905   65.7639 N   0  0  0  0  0  0  0  0  0  0  0  0
   17.9167   41.4259   65.0589 N   0  0  0  0  0  0  0  0  0  0  0  0
   17.6103   40.1457   65.0110 C   0  0  0  0  0  0  0  0  0  0  0  0
   18.3593   39.2297   65.5932 N   0  0  0  0  0  0  0  0  0  0  0  0
   27.6290   39.7211   66.2868 O   0  5  0  0  0  0  0  0  0  0  0  0
   29.7650   40.2451   67.5448 O   0  0  0  0  0  0  0  0  0  0  0  0
   23.0149   38.3572   68.4810 S   0  0  0  0  0  0  0  0  0  0  0  0
   21.9801   39.7438   68.6350 C   0  0  0  0  0  0  0  0  0  0  0  0
   28.3438   37.5803   65.1570 O   0  0  0  0  0  0  0  0  0  0  0  0
   31.0710   38.3399   68.6861 O   0  5  0  0  0  0  0  0  0  0  0  0
   21.8671   40.1434   67.3894 N   0  0  0  0  0  0  0  0  0  0  0  0
   28.6502   37.9306   67.7441 O   0  0  0  0  0  0  0  0  0  0  0  0
   30.6322   38.3322   66.1480 O   0  0  0  0  0  0  0  0  0  0  0  0
   22.4677   39.5069   66.4076 C   0  0  2  0  0  0  0  0  0  0  0  0
   23.2237   38.4203   66.7077 C   0  0  2  0  0  0  0  0  0  0  0  0
   24.0150   37.5168   65.7986 C   0  0  0  0  0  0  0  0  0  0  0  0
   25.4304   38.0735   65.6285 C   0  0  0  0  0  0  0  0  0  0  0  0
   26.2399   37.6597   66.7309 O   0  0  0  0  0  0  0  0  0  0  0  0
  1 11  1  0  0  0  0
  3 13  1  6  0  0  0
  3 17  2  0  0  0  0
  3 20  1  0  0  0  0
  3 26  1  0  0  0  0
  4 14  1  1  0  0  0
  4 18  1  0  0  0  0
  4 21  2  0  0  0  0
  4 20  1  0  0  0  0
  5 19  1  0  0  0  0
  5  7  1  0  0  0  0
  6  7  2  0  0  0  0
  6 12  1  0  0  0  0
  7  8  1  0  0  0  0
  8  9  1  0  0  0  0
  8 10  2  0  0  0  0
 10 11  1  0  0  0  0
 11 12  2  0  0  0  0
 15 23  1  0  0  0  0
 15 16  1  0  0  0  0
 16 19  1  0  0  0  0
 19 22  1  0  0  0  0
 22  2  1  1  0  0  0
 22 23  1  0  0  0  0
 23 24  1  6  0  0  0
 24 25  1  0  0  0  0
 25 26  1  0  0  0  0
M  CHG  2  13  -1  18  -1
M  END
>  <CHROM.1>
-52.25036415,-110.83420293,12.39597387,64.96970432,-91.36352533,83.16587727
178.99993105,55.32289474,24.25172891,39.28298127,66.57868605,3.03238217,-0.20321030
0.48781595

>  <Name>
ligand

>  <RI>
0

>  <Rbt.Current_Directory>
/home/itssahil/PROJECTS/Mol_Feturizer/New_Systems/rnas/2HOJ

>  <Rbt.Executable>
rbdock ($Id: //depot/dev/client3/rdock/2013.1/src/exe/rbdock.cxx#4 $)

>  <Rbt.Library>
libRbt.so (2013.1, Build901 2013/11/27)

>  <Rbt.Parameter_File>
/export/apps/rDock/src/rDock_2013.1_src/data/scripts/dock_solv.prm

>  <Rbt.Receptor>
prm/pocket_docking_4.prm

>  <SCORE>
-29.8204

>  <SCORE.INTER>
-26.1091

>  <SCORE.INTER.CONST>
1

>  <SCORE.INTER.POLAR>
-2.66091

>  <SCORE.INTER.ROT>
8

>  <SCORE.INTER.SOLV>
29.3009

>  <SCORE.INTER.VDW>
-27.2367

>  <SCORE.INTER.norm>
-1.0042

>  <SCORE.INTRA>
-3.71133

>  <SCORE.INTRA.DIHEDRAL>
-4.81827

>  <SCORE.INTRA.DIHEDRAL.0>
11.6398

>  <SCORE.INTRA.POLAR>
0

>  <SCORE.INTRA.POLAR.0>
0

>  <SCORE.INTRA.REPUL>
0

>  <SCORE.INTRA.REPUL.0>
0

>  <SCORE.INTRA.SOLV>
1.63683

>  <SCORE.INTRA.SOLV.lig_0>
-81.722

>  <SCORE.INTRA.VDW>
-2.12061

>  <SCORE.INTRA.VDW.0>
1.12598

>  <SCORE.INTRA.norm>
-0.142744

>  <SCORE.RESTR>
0

>  <SCORE.RESTR.CAVITY>
0

>  <SCORE.RESTR.norm>
0

>  <SCORE.SYSTEM>
0

>  <SCORE.SYSTEM.CONST>
0

>  <SCORE.SYSTEM.DIHEDRAL>
0

>  <SCORE.SYSTEM.SOLV>
0

>  <SCORE.SYSTEM.norm>
0

>  <SCORE.heavy>
26

>  <SCORE.norm>
-1.14694

>  <RMSD>
1.628

$$$$
ligand
 OpenBabel11021811433D
libRbt.so/2013.1/901 2013/11/27
 26 27  0  0  0  0  0  0  0  0999 V2000
   16.8515   39.5865   64.7995 C   0  0  0  0  0  0  0  0  0  0  0  0
   22.6550   39.4581   68.5542 C   0  0  0  0  0  0  0  0  0  0  0  0
   27.7573   39.8189   68.9348 P   0  0  1  0  0  0  0  0  0  0  0  0
   29.8974   38.8916   67.8181 P   0  0  1  0  0  0  0  0  0  0  0  0
   21.6290   41.6392   67.1190 C   0  0  0  0  0  0  0  0  0  0  0  0
   20.0794   39.7468   66.5451 C   0  0  0  0  0  0  0  0  0  0  0  0
   20.3641   41.0972   66.5046 C   0  0  0  0  0  0  0  0  0  0  0  0
   19.4502   41.9480   65.8803 C   0  0  0  0  0  0  0  0  0  0  0  0
   19.6900   43.3123   65.8126 N   0  0  0  0  0  0  0  0  0  0  0  0
   18.3483   41.4300   65.3459 N   0  0  0  0  0  0  0  0  0  0  0  0
   18.1138   40.1354   65.4114 C   0  0  0  0  0  0  0  0  0  0  0  0
   18.9568   39.3052   65.9937 N   0  0  0  0  0  0  0  0  0  0  0  0
   27.1587   40.0999   70.2593 O   0  5  0  0  0  0  0  0  0  0  0  0
   29.7926   37.3828   68.1324 O   0  0  0  0  0  0  0  0  0  0  0  0
   24.6077   40.1697   65.2341 S   0  0  0  0  0  0  0  0  0  0  0  0
   23.3099   41.3052   65.4430 C   0  0  0  0  0  0  0  0  0  0  0  0
   27.3660   40.9939   67.9081 O   0  0  0  0  0  0  0  0  0  0  0  0
   29.0099   39.2337   66.5199 O   0  5  0  0  0  0  0  0  0  0  0  0
   22.7828   40.9156   66.5807 N   0  0  0  0  0  0  0  0  0  0  0  0
   29.3596   39.7409   69.0764 O   0  0  0  0  0  0  0  0  0  0  0  0
   31.3733   39.2582   67.5437 O   0  0  0  0  0  0  0  0  0  0  0  0
   23.2708   39.8927   67.2481 C   0  0  2  0  0  0  0  0  0  0  0  0
   24.3374   39.2317   66.7305 C   0  0  2  0  0  0  0  0  0  0  0  0
   25.0868   38.0415   67.2694 C   0  0  0  0  0  0  0  0  0  0  0  0
   25.7849   38.4244   68.5763 C   0  0  0  0  0  0  0  0  0  0  0  0
   27.2004   38.4134   68.3804 O   0  0  0  0  0  0  0  0  0  0  0  0
  1 11  1  0  0  0  0
  3 13  1  1  0  0  0
  3 17  2  0  0  0  0
  3 20  1  0  0  0  0
  3 26  1  0  0  0  0
  4 14  1  1  0  0  0
  4 18  1  0  0  0  0
  4 21  2  0  0  0  0
  4 20  1  0  0  0  0
  5 19  1  0  0  0  0
  5  7  1  0  0  0  0
  6  7  2  0  0  0  0
  6 12  1  0  0  0  0
  7  8  1  0  0  0  0
  8  9  1  0  0  0  0
  8 10  2  0  0  0  0
 10 11  1  0  0  0  0
 11 12  2  0  0  0  0
 15 23  1  0  0  0  0
 15 16  1  0  0  0  0
 16 19  1  0  0  0  0
 19 22  1  0  0  0  0
 22  2  1  6  0  0  0
 22 23  1  0  0  0  0
 23 24  1  1  0  0  0
 24 25  1  0  0  0  0
 25 26  1  0  0  0  0
M  CHG  2  13  -1  18  -1
M  END
>  <CHROM.1>
158.15605087,84.94650012,53.51594399,-83.71996836,114.52982772,-112.39186114
129.48582326,46.52197880,24.65435028,39.89567434,67.15527593,2.87170130,-0.10669565
-0.59473566

>  <Name>
ligand

>  <RI>
0

>  <Rbt.Current_Directory>
/home/itssahil/PROJECTS/Mol_Feturizer/New_Systems/rnas/2HOJ

>  <Rbt.Executable>
rbdock ($Id: //depot/dev/client3/rdock/2013.1/src/exe/rbdock.cxx#4 $)

>  <Rbt.Library>
libRbt.so (2013.1, Build901 2013/11/27)

>  <Rbt.Parameter_File>
/export/apps/rDock/src/rDock_2013.1_src/data/scripts/dock_solv.prm

>  <Rbt.Receptor>
prm/pocket_docking_2.prm

>  <SCORE>
-20.3704

>  <SCORE.INTER>
-21.105

>  <SCORE.INTER.CONST>
1

>  <SCORE.INTER.POLAR>
-2.35138

>  <SCORE.INTER.ROT>
8

>  <SCORE.INTER.SOLV>
26.6325

>  <SCORE.INTER.VDW>
-24.0429

>  <SCORE.INTER.norm>
-0.811731

>  <SCORE.INTRA>
0.72914

>  <SCORE.INTRA.DIHEDRAL>
6.80271

>  <SCORE.INTRA.DIHEDRAL.0>
11.6398

>  <SCORE.INTRA.POLAR>
0

>  <SCORE.INTRA.POLAR.0>
0

>  <SCORE.INTRA.REPUL>
0

>  <SCORE.INTRA.REPUL.0>
0

>  <SCORE.INTRA.SOLV>
1.33174

>  <SCORE.INTRA.SOLV.lig_0>
-81.722

>  <SCORE.INTRA.VDW>
-3.33809

>  <SCORE.INTRA.VDW.0>
1.12598

>  <SCORE.INTRA.norm>
0.0280439

>  <SCORE.RESTR>
0.00551057

>  <SCORE.RESTR.CAVITY>
0.00551057

>  <SCORE.RESTR.norm>
0.000211945

>  <SCORE.SYSTEM>
0

>  <SCORE.SYSTEM.CONST>
0

>  <SCORE.SYSTEM.DIHEDRAL>
0

>  <SCORE.SYSTEM.SOLV>
0

>  <SCORE.SYSTEM.norm>
0

>  <SCORE.heavy>
26

>  <SCORE.norm>
-0.783475

>  <RMSD>
1.660

$$$$
ligand
 OpenBabel11021811433D
libRbt.so/2013.1/901 2013/11/27
 26 27  0  0  0  0  0  0  0  0999 V2000
   16.2537   39.1123   64.4797 C   0  0  0  0  0  0  0  0  0  0  0  0
   22.0997   40.2741   68.7238 C   0  0  0  0  0  0  0  0  0  0  0  0
   27.6912   39.8535   68.0163 P   0  0  1  0  0  0  0  0  0  0  0  0
   29.8885   38.7201   67.2589 P   0  0  1  0  0  0  0  0  0  0  0  0
   21.1447   41.3694   66.3242 C   0  0  0  0  0  0  0  0  0  0  0  0
   19.7246   39.4118   65.6438 C   0  0  0  0  0  0  0  0  0  0  0  0
   19.8495   40.7733   65.8359 C   0  0  0  0  0  0  0  0  0  0  0  0
   18.7454   41.5839   65.5666 C   0  0  0  0  0  0  0  0  0  0  0  0
   18.8197   42.9575   65.7430 N   0  0  0  0  0  0  0  0  0  0  0  0
   17.6222   41.0199   65.1325 N   0  0  0  0  0  0  0  0  0  0  0  0
   17.5452   39.7153   64.9675 C   0  0  0  0  0  0  0  0  0  0  0  0
   18.5698   38.9222   65.2126 N   0  0  0  0  0  0  0  0  0  0  0  0
   28.3455   40.9864   68.7091 O   0  5  0  0  0  0  0  0  0  0  0  0
   30.5026   40.1147   67.5125 O   0  0  0  0  0  0  0  0  0  0  0  0
   23.8654   38.8028   65.5521 S   0  0  0  0  0  0  0  0  0  0  0  0
   22.6751   39.9858   65.1036 C   0  0  0  0  0  0  0  0  0  0  0  0
   27.5383   40.1962   66.4521 O   0  0  0  0  0  0  0  0  0  0  0  0
   30.9730   37.5833   67.6077 O   0  5  0  0  0  0  0  0  0  0  0  0
   22.2002   40.3555   66.2705 N   0  0  0  0  0  0  0  0  0  0  0  0
   28.5890   38.5279   68.1905 O   0  0  0  0  0  0  0  0  0  0  0  0
   29.4783   38.6014   65.7737 O   0  0  0  0  0  0  0  0  0  0  0  0
   22.6544   39.8380   67.3911 C   0  0  2  0  0  0  0  0  0  0  0  0
   23.6293   38.8962   67.3205 C   0  0  2  0  0  0  0  0  0  0  0  0
   24.3220   38.1425   68.4255 C   0  0  0  0  0  0  0  0  0  0  0  0
   25.8379   38.2836   68.2699 C   0  0  0  0  0  0  0  0  0  0  0  0
   26.2350   39.6009   68.6559 O   0  0  0  0  0  0  0  0  0  0  0  0
  1 11  1  0  0  0  0
  3 13  1  1  0  0  0
  3 17  2  0  0  0  0
  3 20  1  0  0  0  0
  3 26  1  0  0  0  0
  4 14  1  1  0  0  0
  4 18  1  0  0  0  0
  4 21  2  0  0  0  0
  4 20  1  0  0  0  0
  5 19  1  0  0  0  0
  5  7  1  0  0  0  0
  6  7  2  0  0  0  0
  6 12  1  0  0  0  0
  7  8  1  0  0  0  0
  8  9  1  0  0  0  0
  8 10  2  0  0  0  0
 10 11  1  0  0  0  0
 11 12  2  0  0  0  0
 15 23  1  0  0  0  0
 15 16  1  0  0  0  0
 16 19  1  0  0  0  0
 19 22  1  0  0  0  0
 22  2  1  6  0  0  0
 22 23  1  0  0  0  0
 23 24  1  1  0  0  0
 24 25  1  0  0  0  0
 25 26  1  0  0  0  0
M  CHG  2  13  -1  18  -1
M  END
>  <CHROM.1>
-72.36523364,72.20388339,11.25131048,48.32122805,52.53695910,73.88002719
-161.15858669,-162.00182306,24.32195717,39.65357818,66.77694761,-3.13002554
-0.23078130,0.59150176

>  <Name>
ligand

>  <RI>
0

>  <Rbt.Current_Directory>
/home/itssahil/PROJECTS/Mol_Feturizer/New_Systems/rnas/2HOJ

>  <Rbt.Executable>
rbdock ($Id: //depot/dev/client3/rdock/2013.1/src/exe/rbdock.cxx#4 $)

>  <Rbt.Library>
libRbt.so (2013.1, Build901 2013/11/27)

>  <Rbt.Parameter_File>
/export/apps/rDock/src/rDock_2013.1_src/data/scripts/dock_solv.prm

>  <Rbt.Receptor>
prm/pocket_docking_3.prm

>  <SCORE>
-33.9995

>  <SCORE.INTER>
-29.6001

>  <SCORE.INTER.CONST>
1

>  <SCORE.INTER.POLAR>
-3.88686

>  <SCORE.INTER.ROT>
8

>  <SCORE.INTER.SOLV>
29.4844

>  <SCORE.INTER.VDW>
-25.5386

>  <SCORE.INTER.norm>
-1.13846

>  <SCORE.INTRA>
-4.39942

>  <SCORE.INTRA.DIHEDRAL>
-3.23375

>  <SCORE.INTRA.DIHEDRAL.0>
11.6398

>  <SCORE.INTRA.POLAR>
0

>  <SCORE.INTRA.POLAR.0>
0

>  <SCORE.INTRA.REPUL>
0

>  <SCORE.INTRA.REPUL.0>
0

>  <SCORE.INTRA.SOLV>
0.757318

>  <SCORE.INTRA.SOLV.lig_0>
-81.722

>  <SCORE.INTRA.VDW>
-3.16121

>  <SCORE.INTRA.VDW.0>
1.12598

>  <SCORE.INTRA.norm>
-0.169209

>  <SCORE.RESTR>
0

>  <SCORE.RESTR.CAVITY>
0

>  <SCORE.RESTR.norm>
0

>  <SCORE.SYSTEM>
0

>  <SCORE.SYSTEM.CONST>
0

>  <SCORE.SYSTEM.DIHEDRAL>
0

>  <SCORE.SYSTEM.SOLV>
0

>  <SCORE.SYSTEM.norm>
0

>  <SCORE.heavy>
26

>  <SCORE.norm>
-1.30767

>  <RMSD>
1.670

$$$$
ligand
 OpenBabel11021811433D
libRbt.so/2013.1/901 2013/11/27
 26 27  0  0  0  0  0  0  0  0999 V2000
   16.6520   39.7273   64.6484 C   0  0  0  0  0  0  0  0  0  0  0  0
   22.6380   39.8436   68.3845 C   0  0  0  0  0  0  0  0  0  0  0  0
   27.8746   39.2231   69.2339 P   0  0  1  0  0  0  0  0  0  0  0  0
   29.9458   38.6479   67.7965 P   0  0  1  0  0  0  0  0  0  0  0  0
   21.4543   41.8629   66.8382 C   0  0  0  0  0  0  0  0  0  0  0  0
   19.9830   39.9349   66.1824 C   0  0  0  0  0  0  0  0  0  0  0  0
   20.1827   41.2990   66.2583 C   0  0  0  0  0  0  0  0  0  0  0  0
   19.1766   42.1427   65.7845 C   0  0  0  0  0  0  0  0  0  0  0  0
   19.3288   43.5202   65.8377 N   0  0  0  0  0  0  0  0  0  0  0  0
   18.0716   41.6058   65.2755 N   0  0  0  0  0  0  0  0  0  0  0  0
   17.9204   40.2982   65.2267 C   0  0  0  0  0  0  0  0  0  0  0  0
   18.8517   39.4742   65.6656 N   0  0  0  0  0  0  0  0  0  0  0  0
   27.4928   39.6800   70.5893 O   0  5  0  0  0  0  0  0  0  0  0  0
   28.8567   38.2589   66.7724 O   0  0  0  0  0  0  0  0  0  0  0  0
   24.3797   40.3411   64.9116 S   0  0  0  0  0  0  0  0  0  0  0  0
   23.0533   41.4466   65.1016 C   0  0  0  0  0  0  0  0  0  0  0  0
   27.8918   40.4789   68.2286 O   0  0  0  0  0  0  0  0  0  0  0  0
   30.4418   40.1517   67.5092 O   0  5  0  0  0  0  0  0  0  0  0  0
   22.6037   41.1355   66.2953 N   0  0  0  0  0  0  0  0  0  0  0  0
   29.3397   38.5566   69.2858 O   0  0  0  0  0  0  0  0  0  0  0  0
   31.1420   37.6780   67.6681 O   0  0  0  0  0  0  0  0  0  0  0  0
   23.1652   40.1883   67.0145 C   0  0  2  0  0  0  0  0  0  0  0  0
   24.2263   39.5222   66.4921 C   0  0  2  0  0  0  0  0  0  0  0  0
   25.0481   38.4062   67.0820 C   0  0  0  0  0  0  0  0  0  0  0  0
   25.5961   38.8383   68.4441 C   0  0  0  0  0  0  0  0  0  0  0  0
   26.8093   38.1331   68.7140 O   0  0  0  0  0  0  0  0  0  0  0  0
  1 11  1  0  0  0  0
  3 13  1  1  0  0  0
  3 17  2  0  0  0  0
  3 20  1  0  0  0  0
  3 26  1  0  0  0  0
  4 14  1  6  0  0  0
  4 18  1  0  0  0  0
  4 21  2  0  0  0  0
  4 20  1  0  0  0  0
  5 19  1  0  0  0  0
  5  7  1  0  0  0  0
  6  7  2  0  0  0  0
  6 12  1  0  0  0  0
  7  8  1  0  0  0  0
  8  9  1  0  0  0  0
  8 10  2  0  0  0  0
 10 11  1  0  0  0  0
 11 12  2  0  0  0  0
 15 23  1  0  0  0  0
 15 16  1  0  0  0  0
 16 19  1  0  0  0  0
 19 22  1  0  0  0  0
 22  2  1  6  0  0  0
 22 23  1  0  0  0  0
 23 24  1  1  0  0  0
 24 25  1  0  0  0  0
 25 26  1  0  0  0  0
M  CHG  2  13  -1  18  -1
M  END
>  <CHROM.1>
-156.84803731,80.54254320,45.35963954,-43.46995219,124.76269347,-152.95077363
133.30130810,70.94420843,24.58931716,39.88379372,67.08471011,2.84522173,0.15692508
-1.37364671

>  <Name>
ligand

>  <RI>
0

>  <Rbt.Current_Directory>
/home/itssahil/PROJECTS/Mol_Feturizer/New_Systems/rnas/2HOJ

>  <Rbt.Executable>
rbdock ($Id: //depot/dev/client3/rdock/2013.1/src/exe/rbdock.cxx#4 $)

>  <Rbt.Library>
libRbt.so (2013.1, Build901 2013/11/27)

>  <Rbt.Parameter_File>
/export/apps/rDock/src/rDock_2013.1_src/data/scripts/dock_solv.prm

>  <Rbt.Receptor>
prm/pocket_docking_2.prm

>  <SCORE>
-22.6956

>  <SCORE.INTER>
-21.823

>  <SCORE.INTER.CONST>
1

>  <SCORE.INTER.POLAR>
-2.70956

>  <SCORE.INTER.ROT>
8

>  <SCORE.INTER.SOLV>
31.6104

>  <SCORE.INTER.VDW>
-24.9869

>  <SCORE.INTER.norm>
-0.839346

>  <SCORE.INTRA>
-0.875839

>  <SCORE.INTRA.DIHEDRAL>
3.02906

>  <SCORE.INTRA.DIHEDRAL.0>
11.6398

>  <SCORE.INTRA.POLAR>
0

>  <SCORE.INTRA.POLAR.0>
0

>  <SCORE.INTRA.REPUL>
0

>  <SCORE.INTRA.REPUL.0>
0

>  <SCORE.INTRA.SOLV>
0.150057

>  <SCORE.INTRA.SOLV.lig_0>
-81.722

>  <SCORE.INTRA.VDW>
-2.4654

>  <SCORE.INTRA.VDW.0>
1.12598

>  <SCORE.INTRA.norm>
-0.0336861

>  <SCORE.RESTR>
0.00323505

>  <SCORE.RESTR.CAVITY>
0.00323505

>  <SCORE.RESTR.norm>
0.000124425

>  <SCORE.SYSTEM>
0

>  <SCORE.SYSTEM.CONST>
0

>  <SCORE.SYSTEM.DIHEDRAL>
0

>  <SCORE.SYSTEM.SOLV>
0

>  <SCORE.SYSTEM.norm>
0

>  <SCORE.heavy>
26

>  <SCORE.norm>
-0.872908

>  <RMSD>
1.689

$$$$
ligand
 OpenBabel11021811433D
libRbt.so/2013.1/901 2013/11/27
 26 27  0  0  0  0  0  0  0  0999 V2000
   16.7635   40.0408   64.5914 C   0  0  0  0  0  0  0  0  0  0  0  0
   23.0213   40.5385   65.1019 C   0  0  0  0  0  0  0  0  0  0  0  0
   28.4363   38.4789   66.3136 P   0  0  1  0  0  0  0  0  0  0  0  0
   30.8084   39.3476   66.8661 P   0  0  1  0  0  0  0  0  0  0  0  0
   21.5748   41.1540   67.4253 C   0  0  0  0  0  0  0  0  0  0  0  0
   19.8619   39.5629   66.5055 C   0  0  0  0  0  0  0  0  0  0  0  0
   20.3011   40.8608   66.6749 C   0  0  0  0  0  0  0  0  0  0  0  0
   19.5352   41.8948   66.1337 C   0  0  0  0  0  0  0  0  0  0  0  0
   19.9333   43.2157   66.2760 N   0  0  0  0  0  0  0  0  0  0  0  0
   18.4203   41.5942   65.4743 N   0  0  0  0  0  0  0  0  0  0  0  0
   18.0356   40.3415   65.3402 C   0  0  0  0  0  0  0  0  0  0  0  0
   18.7365   39.3421   65.8392 N   0  0  0  0  0  0  0  0  0  0  0  0
   28.9186   37.3173   65.5327 O   0  5  0  0  0  0  0  0  0  0  0  0
   31.1383   37.8566   66.6333 O   0  0  0  0  0  0  0  0  0  0  0  0
   23.6084   37.9736   68.0034 S   0  0  0  0  0  0  0  0  0  0  0  0
   22.5002   39.2180   68.4937 C   0  0  0  0  0  0  0  0  0  0  0  0
   28.3816   38.0920   67.8740 O   0  0  0  0  0  0  0  0  0  0  0  0
   32.0067   40.2589   66.2973 O   0  5  0  0  0  0  0  0  0  0  0  0
   22.4315   39.9662   67.4170 N   0  0  0  0  0  0  0  0  0  0  0  0
   29.4401   39.7205   66.1029 O   0  0  0  0  0  0  0  0  0  0  0  0
   30.6392   39.6063   68.3802 O   0  0  0  0  0  0  0  0  0  0  0  0
   23.1119   39.6699   66.3312 C   0  0  2  0  0  0  0  0  0  0  0  0
   23.9041   38.5678   66.3446 C   0  0  2  0  0  0  0  0  0  0  0  0
   24.7843   38.0012   65.2615 C   0  0  0  0  0  0  0  0  0  0  0  0
   26.1717   37.7012   65.8333 C   0  0  0  0  0  0  0  0  0  0  0  0
   26.9632   38.8908   65.8101 O   0  0  0  0  0  0  0  0  0  0  0  0
  1 11  1  0  0  0  0
  3 13  1  6  0  0  0
  3 17  2  0  0  0  0
  3 20  1  0  0  0  0
  3 26  1  0  0  0  0
  4 14  1  6  0  0  0
  4 18  1  0  0  0  0
  4 21  2  0  0  0  0
  4 20  1  0  0  0  0
  5 19  1  0  0  0  0
  5  7  1  0  0  0  0
  6  7  2  0  0  0  0
  6 12  1  0  0  0  0
  7  8  1  0  0  0  0
  8  9  1  0  0  0  0
  8 10  2  0  0  0  0
 10 11  1  0  0  0  0
 11 12  2  0  0  0  0
 15 23  1  0  0  0  0
 15 16  1  0  0  0  0
 16 19  1  0  0  0  0
 19 22  1  0  0  0  0
 22  2  1  1  0  0  0
 22 23  1  0  0  0  0
 23 24  1  6  0  0  0
 24 25  1  0  0  0  0
 25 26  1  0  0  0  0
M  CHG  2  13  -1  18  -1
M  END
>  <CHROM.1>
-70.27141672,-102.55319362,22.39637771,40.35771242,-48.92576139,-84.23790470
-175.65174695,51.60640830,24.88802472,39.42446555,66.49608406,2.97806164
-0.05079564,-0.07412679

>  <Name>
ligand

>  <RI>
0

>  <Rbt.Current_Directory>
/home/itssahil/PROJECTS/Mol_Feturizer/New_Systems/rnas/2HOJ

>  <Rbt.Executable>
rbdock ($Id: //depot/dev/client3/rdock/2013.1/src/exe/rbdock.cxx#4 $)

>  <Rbt.Library>
libRbt.so (2013.1, Build901 2013/11/27)

>  <Rbt.Parameter_File>
/export/apps/rDock/src/rDock_2013.1_src/data/scripts/dock_solv.prm

>  <Rbt.Receptor>
prm/pocket_docking_4.prm

>  <SCORE>
-21.5581

>  <SCORE.INTER>
-17.6691

>  <SCORE.INTER.CONST>
1

>  <SCORE.INTER.POLAR>
-1.29904

>  <SCORE.INTER.ROT>
8

>  <SCORE.INTER.SOLV>
27.1346

>  <SCORE.INTER.VDW>
-25.4275

>  <SCORE.INTER.norm>
-0.679581

>  <SCORE.INTRA>
-3.88902

>  <SCORE.INTRA.DIHEDRAL>
-3.64654

>  <SCORE.INTRA.DIHEDRAL.0>
11.6398

>  <SCORE.INTRA.POLAR>
0

>  <SCORE.INTRA.POLAR.0>
0

>  <SCORE.INTRA.REPUL>
0

>  <SCORE.INTRA.REPUL.0>
0

>  <SCORE.INTRA.SOLV>
1.35523

>  <SCORE.INTRA.SOLV.lig_0>
-81.722

>  <SCORE.INTRA.VDW>
-2.74336

>  <SCORE.INTRA.VDW.0>
1.12598

>  <SCORE.INTRA.norm>
-0.149578

>  <SCORE.RESTR>
0

>  <SCORE.RESTR.CAVITY>
0

>  <SCORE.RESTR.norm>
0

>  <SCORE.SYSTEM>
0

>  <SCORE.SYSTEM.CONST>
0

>  <SCORE.SYSTEM.DIHEDRAL>
0

>  <SCORE.SYSTEM.SOLV>
0

>  <SCORE.SYSTEM.norm>
0

>  <SCORE.heavy>
26

>  <SCORE.norm>
-0.829159

>  <RMSD>
1.699

$$$$
ligand
 OpenBabel11021811433D
libRbt.so/2013.1/901 2013/11/27
 26 27  0  0  0  0  0  0  0  0999 V2000
   16.5452   39.5558   64.7256 C   0  0  0  0  0  0  0  0  0  0  0  0
   24.0354   40.1937   65.7755 C   0  0  0  0  0  0  0  0  0  0  0  0
   27.8307   39.9730   68.2674 P   0  0  1  0  0  0  0  0  0  0  0  0
   30.0259   38.8803   67.4463 P   0  0  1  0  0  0  0  0  0  0  0  0
   21.6098   41.2792   66.6743 C   0  0  0  0  0  0  0  0  0  0  0  0
   19.1842   41.6747   66.1531 C   0  0  0  0  0  0  0  0  0  0  0  0
   20.2699   40.8217   66.1583 C   0  0  0  0  0  0  0  0  0  0  0  0
   20.0949   39.5246   65.6729 C   0  0  0  0  0  0  0  0  0  0  0  0
   21.1538   38.6291   65.6571 N   0  0  0  0  0  0  0  0  0  0  0  0
   18.8955   39.1579   65.2310 N   0  0  0  0  0  0  0  0  0  0  0  0
   17.8876   40.0061   65.2399 C   0  0  0  0  0  0  0  0  0  0  0  0
   18.0199   41.2378   65.6918 N   0  0  0  0  0  0  0  0  0  0  0  0
   28.7155   40.2996   69.4085 O   0  5  0  0  0  0  0  0  0  0  0  0
   30.3769   40.3801   67.3294 O   0  0  0  0  0  0  0  0  0  0  0  0
   22.7306   38.5240   69.0697 S   0  0  0  0  0  0  0  0  0  0  0  0
   21.6399   39.7643   68.5318 C   0  0  0  0  0  0  0  0  0  0  0  0
   27.7470   41.2355   67.2740 O   0  0  0  0  0  0  0  0  0  0  0  0
   30.6561   38.2844   68.8021 O   0  5  0  0  0  0  0  0  0  0  0  0
   22.2320   40.1994   67.4436 N   0  0  0  0  0  0  0  0  0  0  0  0
   28.4253   38.7038   67.4742 O   0  0  0  0  0  0  0  0  0  0  0  0
   30.6057   38.1205   66.2320 O   0  0  0  0  0  0  0  0  0  0  0  0
   23.3685   39.6841   67.0283 C   0  0  2  0  0  0  0  0  0  0  0  0
   23.9320   38.6875   67.7575 C   0  0  2  0  0  0  0  0  0  0  0  0
   25.2116   37.9281   67.5234 C   0  0  0  0  0  0  0  0  0  0  0  0
   26.1902   38.2086   68.6661 C   0  0  0  0  0  0  0  0  0  0  0  0
   26.3575   39.6201   68.8134 O   0  0  0  0  0  0  0  0  0  0  0  0
  1 11  1  0  0  0  0
  3 13  1  1  0  0  0
  3 17  2  0  0  0  0
  3 20  1  0  0  0  0
  3 26  1  0  0  0  0
  4 14  1  6  0  0  0
  4 18  1  0  0  0  0
  4 21  2  0  0  0  0
  4 20  1  0  0  0  0
  5 19  1  0  0  0  0
  5  7  1  0  0  0  0
  6  7  2  0  0  0  0
  6 12  1  0  0  0  0
  7  8  1  0  0  0  0
  8  9  1  0  0  0  0
  8 10  2  0  0  0  0
 10 11  1  0  0  0  0
 11 12  2  0  0  0  0
 15 23  1  0  0  0  0
 15 16  1  0  0  0  0
 16 19  1  0  0  0  0
 19 22  1  0  0  0  0
 22  2  1  1  0  0  0
 22 23  1  0  0  0  0
 23 24  1  6  0  0  0
 24 25  1  0  0  0  0
 25 26  1  0  0  0  0
M  CHG  2  13  -1  18  -1
M  END
>  <CHROM.1>
-39.04762076,-62.44493937,140.04631047,-34.87892354,-64.17283941,-53.70671166
-107.79929530,-107.46890889,24.58761428,39.55660354,67.26080999,-2.93906639
0.01150802,2.02495227

>  <Name>
ligand

>  <RI>
0

>  <Rbt.Current_Directory>
/home/itssahil/PROJECTS/Mol_Feturizer/New_Systems/rnas/2HOJ

>  <Rbt.Executable>
rbdock ($Id: //depot/dev/client3/rdock/2013.1/src/exe/rbdock.cxx#4 $)

>  <Rbt.Library>
libRbt.so (2013.1, Build901 2013/11/27)

>  <Rbt.Parameter_File>
/export/apps/rDock/src/rDock_2013.1_src/data/scripts/dock_solv.prm

>  <Rbt.Receptor>
prm/pocket_docking_3.prm

>  <SCORE>
-25.4273

>  <SCORE.INTER>
-28.6943

>  <SCORE.INTER.CONST>
1

>  <SCORE.INTER.POLAR>
-4.04011

>  <SCORE.INTER.ROT>
8

>  <SCORE.INTER.SOLV>
24.4888

>  <SCORE.INTER.VDW>
-22.7588

>  <SCORE.INTER.norm>
-1.10363

>  <SCORE.INTRA>
3.26704

>  <SCORE.INTRA.DIHEDRAL>
3.85942

>  <SCORE.INTRA.DIHEDRAL.0>
11.6398

>  <SCORE.INTRA.POLAR>
0

>  <SCORE.INTRA.POLAR.0>
0

>  <SCORE.INTRA.REPUL>
0

>  <SCORE.INTRA.REPUL.0>
0

>  <SCORE.INTRA.SOLV>
5.93718

>  <SCORE.INTRA.SOLV.lig_0>
-81.722

>  <SCORE.INTRA.VDW>
-1.63126

>  <SCORE.INTRA.VDW.0>
1.12598

>  <SCORE.INTRA.norm>
0.125655

>  <SCORE.RESTR>
0

>  <SCORE.RESTR.CAVITY>
0

>  <SCORE.RESTR.norm>
0

>  <SCORE.SYSTEM>
0

>  <SCORE.SYSTEM.CONST>
0

>  <SCORE.SYSTEM.DIHEDRAL>
0

>  <SCORE.SYSTEM.SOLV>
0

>  <SCORE.SYSTEM.norm>
0

>  <SCORE.heavy>
26

>  <SCORE.norm>
-0.977973

>  <RMSD>
1.714

$$$$
ligand
 OpenBabel11021811433D
libRbt.so/2013.1/901 2013/11/27
 26 27  0  0  0  0  0  0  0  0999 V2000
   16.5033   39.7881   64.5689 C   0  0  0  0  0  0  0  0  0  0  0  0
   23.4787   40.9058   65.2723 C   0  0  0  0  0  0  0  0  0  0  0  0
   27.5581   39.4079   68.4721 P   0  0  1  0  0  0  0  0  0  0  0  0
   30.0577   39.2125   67.8392 P   0  0  1  0  0  0  0  0  0  0  0  0
   21.3387   41.6575   66.9231 C   0  0  0  0  0  0  0  0  0  0  0  0
   19.0431   42.0379   65.9760 C   0  0  0  0  0  0  0  0  0  0  0  0
   20.0593   41.1613   66.3001 C   0  0  0  0  0  0  0  0  0  0  0  0
   19.8718   39.8035   66.0356 C   0  0  0  0  0  0  0  0  0  0  0  0
   20.8619   38.8823   66.3430 N   0  0  0  0  0  0  0  0  0  0  0  0
   18.7266   39.4052   65.4897 N   0  0  0  0  0  0  0  0  0  0  0  0
   17.7848   40.2768   65.1919 C   0  0  0  0  0  0  0  0  0  0  0  0
   17.9307   41.5657   65.4292 N   0  0  0  0  0  0  0  0  0  0  0  0
   27.6422   38.5749   69.6930 O   0  5  0  0  0  0  0  0  0  0  0  0
   29.8055   38.7939   66.3738 O   0  0  0  0  0  0  0  0  0  0  0  0
   23.1153   38.6393   68.4462 S   0  0  0  0  0  0  0  0  0  0  0  0
   21.8891   39.8695   68.4218 C   0  0  0  0  0  0  0  0  0  0  0  0
   26.3121   40.4179   68.5956 O   0  0  0  0  0  0  0  0  0  0  0  0
   31.5035   39.9095   67.9583 O   0  5  0  0  0  0  0  0  0  0  0  0
   22.1678   40.5149   67.3129 N   0  0  0  0  0  0  0  0  0  0  0  0
   28.9192   40.2522   68.3044 O   0  0  0  0  0  0  0  0  0  0  0  0
   30.0131   37.9619   68.7460 O   0  0  0  0  0  0  0  0  0  0  0  0
   23.1722   40.1552   66.5437 C   0  0  2  0  0  0  0  0  0  0  0  0
   23.9320   39.0967   66.9244 C   0  0  2  0  0  0  0  0  0  0  0  0
   25.1281   38.4777   66.2499 C   0  0  0  0  0  0  0  0  0  0  0  0
   26.0570   37.8748   67.3061 C   0  0  0  0  0  0  0  0  0  0  0  0
   27.3555   38.4592   67.1868 O   0  0  0  0  0  0  0  0  0  0  0  0
  1 11  1  0  0  0  0
  3 13  1  1  0  0  0
  3 17  2  0  0  0  0
  3 20  1  0  0  0  0
  3 26  1  0  0  0  0
  4 14  1  6  0  0  0
  4 18  1  0  0  0  0
  4 21  2  0  0  0  0
  4 20  1  0  0  0  0
  5 19  1  0  0  0  0
  5  7  1  0  0  0  0
  6  7  2  0  0  0  0
  6 12  1  0  0  0  0
  7  8  1  0  0  0  0
  8  9  1  0  0  0  0
  8 10  2  0  0  0  0
 10 11  1  0  0  0  0
 11 12  2  0  0  0  0
 15 23  1  0  0  0  0
 15 16  1  0  0  0  0
 16 19  1  0  0  0  0
 19 22  1  0  0  0  0
 22  2  1  1  0  0  0
 22 23  1  0  0  0  0
 23 24  1  6  0  0  0
 24 25  1  0  0  0  0
 25 26  1  0  0  0  0
M  CHG  2  13  -1  18  -1
M  END
>  <CHROM.1>
73.16100130,-79.08329483,173.07577147,72.07920424,-30.35847502,-122.65708305
109.34398012,67.61463575,24.47190386,39.61763295,67.19738105,-2.90381316
0.06799172,2.36913573

>  <Name>
ligand

>  <RI>
0

>  <Rbt.Current_Directory>
/home/itssahil/PROJECTS/Mol_Feturizer/New_Systems/rnas/2HOJ

>  <Rbt.Executable>
rbdock ($Id: //depot/dev/client3/rdock/2013.1/src/exe/rbdock.cxx#4 $)

>  <Rbt.Library>
libRbt.so (2013.1, Build901 2013/11/27)

>  <Rbt.Parameter_File>
/export/apps/rDock/src/rDock_2013.1_src/data/scripts/dock_solv.prm

>  <Rbt.Receptor>
prm/pocket_docking_2.prm

>  <SCORE>
-18.2994

>  <SCORE.INTER>
-25.35

>  <SCORE.INTER.CONST>
1

>  <SCORE.INTER.POLAR>
-2.79732

>  <SCORE.INTER.ROT>
8

>  <SCORE.INTER.SOLV>
22.6073

>  <SCORE.INTER.VDW>
-24.0447

>  <SCORE.INTER.norm>
-0.975001

>  <SCORE.INTRA>
6.7887

>  <SCORE.INTRA.DIHEDRAL>
5.95779

>  <SCORE.INTRA.DIHEDRAL.0>
11.6398

>  <SCORE.INTRA.POLAR>
0

>  <SCORE.INTRA.POLAR.0>
0

>  <SCORE.INTRA.REPUL>
0

>  <SCORE.INTRA.REPUL.0>
0

>  <SCORE.INTRA.SOLV>
7.76779

>  <SCORE.INTRA.SOLV.lig_0>
-81.722

>  <SCORE.INTRA.VDW>
-0.0740934

>  <SCORE.INTRA.VDW.0>
1.12598

>  <SCORE.INTRA.norm>
0.261104

>  <SCORE.RESTR>
0.261936

>  <SCORE.RESTR.CAVITY>
0.261936

>  <SCORE.RESTR.norm>
0.0100745

>  <SCORE.SYSTEM>
0

>  <SCORE.SYSTEM.CONST>
0

>  <SCORE.SYSTEM.DIHEDRAL>
0

>  <SCORE.SYSTEM.SOLV>
0

>  <SCORE.SYSTEM.norm>
0

>  <SCORE.heavy>
26

>  <SCORE.norm>
-0.703823

>  <RMSD>
1.716

$$$$
ligand
 OpenBabel11021811433D
libRbt.so/2013.1/901 2013/11/27
 26 27  0  0  0  0  0  0  0  0999 V2000
   16.0265   39.1463   64.0770 C   0  0  0  0  0  0  0  0  0  0  0  0
   22.4330   40.0820   68.5984 C   0  0  0  0  0  0  0  0  0  0  0  0
   27.9350   39.3871   69.2372 P   0  0  1  0  0  0  0  0  0  0  0  0
   29.9860   38.7070   67.8167 P   0  0  1  0  0  0  0  0  0  0  0  0
   20.8724   40.9719   66.4439 C   0  0  0  0  0  0  0  0  0  0  0  0
   19.3166   39.1409   65.7102 C   0  0  0  0  0  0  0  0  0  0  0  0
   19.5894   40.4901   65.8171 C   0  0  0  0  0  0  0  0  0  0  0  0
   18.6462   41.3968   65.3302 C   0  0  0  0  0  0  0  0  0  0  0  0
   18.8730   42.7625   65.4133 N   0  0  0  0  0  0  0  0  0  0  0  0
   17.5289   40.9314   64.7796 N   0  0  0  0  0  0  0  0  0  0  0  0
   17.3068   39.6353   64.7022 C   0  0  0  0  0  0  0  0  0  0  0  0
   18.1774   38.7530   65.1524 N   0  0  0  0  0  0  0  0  0  0  0  0
   27.6900   40.0778   70.5235 O   0  5  0  0  0  0  0  0  0  0  0  0
   31.2050   37.7625   67.7267 O   0  0  0  0  0  0  0  0  0  0  0  0
   23.4563   38.4576   65.1843 S   0  0  0  0  0  0  0  0  0  0  0  0
   22.1332   39.5627   64.9707 C   0  0  0  0  0  0  0  0  0  0  0  0
   27.9504   40.4648   68.0431 O   0  0  0  0  0  0  0  0  0  0  0  0
   28.8787   38.2606   66.7374 O   0  5  0  0  0  0  0  0  0  0  0  0
   21.9351   39.9955   66.1943 N   0  0  0  0  0  0  0  0  0  0  0  0
   29.3558   38.6311   69.2968 O   0  0  0  0  0  0  0  0  0  0  0  0
   30.4357   40.1561   67.5233 O   0  0  0  0  0  0  0  0  0  0  0  0
   22.6721   39.5742   67.1989 C   0  0  2  0  0  0  0  0  0  0  0  0
   23.6488   38.6655   66.9483 C   0  0  2  0  0  0  0  0  0  0  0  0
   24.6256   38.0163   67.8934 C   0  0  0  0  0  0  0  0  0  0  0  0
   25.8688   38.8982   68.0310 C   0  0  0  0  0  0  0  0  0  0  0  0
   26.7669   38.3103   68.9742 O   0  0  0  0  0  0  0  0  0  0  0  0
  1 11  1  0  0  0  0
  3 13  1  1  0  0  0
  3 17  2  0  0  0  0
  3 20  1  0  0  0  0
  3 26  1  0  0  0  0
  4 14  1  6  0  0  0
  4 18  1  0  0  0  0
  4 21  2  0  0  0  0
  4 20  1  0  0  0  0
  5 19  1  0  0  0  0
  5  7  1  0  0  0  0
  6  7  2  0  0  0  0
  6 12  1  0  0  0  0
  7  8  1  0  0  0  0
  8  9  1  0  0  0  0
  8 10  2  0  0  0  0
 10 11  1  0  0  0  0
 11 12  2  0  0  0  0
 15 23  1  0  0  0  0
 15 16  1  0  0  0  0
 16 19  1  0  0  0  0
 19 22  1  0  0  0  0
 22  2  1  1  0  0  0
 22 23  1  0  0  0  0
 23 24  1  6  0  0  0
 24 25  1  0  0  0  0
 25 26  1  0  0  0  0
M  CHG  2  13  -1  18  -1
M  END
>  <CHROM.1>
-145.62539113,50.13020936,31.16350307,-168.58174882,92.31773428,177.39060864
-171.60551507,101.58451533,24.27879451,39.43733466,67.00575785,-2.97934053
-0.26530757,0.91180892

>  <Name>
ligand

>  <RI>
0

>  <Rbt.Current_Directory>
/home/itssahil/PROJECTS/Mol_Feturizer/New_Systems/rnas/2HOJ

>  <Rbt.Executable>
rbdock ($Id: //depot/dev/client3/rdock/2013.1/src/exe/rbdock.cxx#4 $)

>  <Rbt.Library>
libRbt.so (2013.1, Build901 2013/11/27)

>  <Rbt.Parameter_File>
/export/apps/rDock/src/rDock_2013.1_src/data/scripts/dock_solv.prm

>  <Rbt.Receptor>
prm/pocket_docking_2.prm

>  <SCORE>
-27.64

>  <SCORE.INTER>
-27.4246

>  <SCORE.INTER.CONST>
1

>  <SCORE.INTER.POLAR>
-2.47967

>  <SCORE.INTER.ROT>
8

>  <SCORE.INTER.SOLV>
28.8508

>  <SCORE.INTER.VDW>
-28.5677

>  <SCORE.INTER.norm>
-1.05479

>  <SCORE.INTRA>
-0.500721

>  <SCORE.INTRA.DIHEDRAL>
-2.89837

>  <SCORE.INTRA.DIHEDRAL.0>
11.6398

>  <SCORE.INTRA.POLAR>
0

>  <SCORE.INTRA.POLAR.0>
0

>  <SCORE.INTRA.REPUL>
0

>  <SCORE.INTRA.REPUL.0>
0

>  <SCORE.INTRA.SOLV>
3.51433

>  <SCORE.INTRA.SOLV.lig_0>
-81.722

>  <SCORE.INTRA.VDW>
-0.808699

>  <SCORE.INTRA.VDW.0>
1.12598

>  <SCORE.INTRA.norm>
-0.0192585

>  <SCORE.RESTR>
0.285306

>  <SCORE.RESTR.CAVITY>
0.285306

>  <SCORE.RESTR.norm>
0.0109733

>  <SCORE.SYSTEM>
0

>  <SCORE.SYSTEM.CONST>
0

>  <SCORE.SYSTEM.DIHEDRAL>
0

>  <SCORE.SYSTEM.SOLV>
0

>  <SCORE.SYSTEM.norm>
0

>  <SCORE.heavy>
26

>  <SCORE.norm>
-1.06308

>  <RMSD>
1.727

$$$$
ligand
 OpenBabel11021811433D
libRbt.so/2013.1/901 2013/11/27
 26 27  0  0  0  0  0  0  0  0999 V2000
   16.2089   40.2479   64.1872 C   0  0  0  0  0  0  0  0  0  0  0  0
   23.7186   40.6902   66.2733 C   0  0  0  0  0  0  0  0  0  0  0  0
   26.9271   38.4735   68.4831 P   0  0  1  0  0  0  0  0  0  0  0  0
   29.4887   38.8263   68.5040 P   0  0  1  0  0  0  0  0  0  0  0  0
   21.1182   39.9910   67.0598 C   0  0  0  0  0  0  0  0  0  0  0  0
   19.0374   38.9351   66.1285 C   0  0  0  0  0  0  0  0  0  0  0  0
   19.8190   40.0604   66.2991 C   0  0  0  0  0  0  0  0  0  0  0  0
   19.3751   41.2644   65.7495 C   0  0  0  0  0  0  0  0  0  0  0  0
   20.1238   42.4230   65.8925 N   0  0  0  0  0  0  0  0  0  0  0  0
   18.2257   41.2829   65.0811 N   0  0  0  0  0  0  0  0  0  0  0  0
   17.5087   40.1861   64.9462 C   0  0  0  0  0  0  0  0  0  0  0  0
   17.9001   39.0333   65.4531 N   0  0  0  0  0  0  0  0  0  0  0  0
   26.6209   37.7853   69.7575 O   0  5  0  0  0  0  0  0  0  0  0  0
   29.4919   40.2011   67.7997 O   0  0  0  0  0  0  0  0  0  0  0  0
   22.8644   36.9292   65.5897 S   0  0  0  0  0  0  0  0  0  0  0  0
   21.5132   37.7482   66.3115 C   0  0  0  0  0  0  0  0  0  0  0  0
   27.0577   40.0554   68.7446 O   0  0  0  0  0  0  0  0  0  0  0  0
   29.2421   39.0304   70.0812 O   0  5  0  0  0  0  0  0  0  0  0  0
   21.9788   38.9663   66.4646 N   0  0  0  0  0  0  0  0  0  0  0  0
   28.3146   37.9108   67.8899 O   0  0  0  0  0  0  0  0  0  0  0  0
   30.8513   38.1318   68.2819 O   0  0  0  0  0  0  0  0  0  0  0  0
   23.1988   39.2863   66.0920 C   0  0  2  0  0  0  0  0  0  0  0  0
   23.9830   38.3216   65.5470 C   0  0  2  0  0  0  0  0  0  0  0  0
   25.4000   38.4032   65.0428 C   0  0  0  0  0  0  0  0  0  0  0  0
   26.3647   37.9895   66.1565 C   0  0  0  0  0  0  0  0  0  0  0  0
   25.7435   38.1995   67.4262 O   0  0  0  0  0  0  0  0  0  0  0  0
  1 11  1  0  0  0  0
  3 13  1  1  0  0  0
  3 17  2  0  0  0  0
  3 20  1  0  0  0  0
  3 26  1  0  0  0  0
  4 14  1  6  0  0  0
  4 18  1  0  0  0  0
  4 21  2  0  0  0  0
  4 20  1  0  0  0  0
  5 19  1  0  0  0  0
  5  7  1  0  0  0  0
  6  7  2  0  0  0  0
  6 12  1  0  0  0  0
  7  8  1  0  0  0  0
  8  9  1  0  0  0  0
  8 10  2  0  0  0  0
 10 11  1  0  0  0  0
 11 12  2  0  0  0  0
 15 23  1  0  0  0  0
 15 16  1  0  0  0  0
 16 19  1  0  0  0  0
 19 22  1  0  0  0  0
 22  2  1  1  0  0  0
 22 23  1  0  0  0  0
 23 24  1  6  0  0  0
 24 25  1  0  0  0  0
 25 26  1  0  0  0  0
M  CHG  2  13  -1  18  -1
M  END
>  <CHROM.1>
-89.40116984,-53.90482370,55.45232841,-74.72978662,-86.24315437,-24.30603628
-152.23061150,-139.87732165,24.12542637,39.08141143,66.91531155,-3.11562562
0.32517834,-2.81163003

>  <Name>
ligand

>  <RI>
0

>  <Rbt.Current_Directory>
/home/itssahil/PROJECTS/Mol_Feturizer/New_Systems/rnas/2HOJ

>  <Rbt.Executable>
rbdock ($Id: //depot/dev/client3/rdock/2013.1/src/exe/rbdock.cxx#4 $)

>  <Rbt.Library>
libRbt.so (2013.1, Build901 2013/11/27)

>  <Rbt.Parameter_File>
/export/apps/rDock/src/rDock_2013.1_src/data/scripts/dock_solv.prm

>  <Rbt.Receptor>
prm/pocket_docking_3.prm

>  <SCORE>
-20.7688

>  <SCORE.INTER>
-22.8636

>  <SCORE.INTER.CONST>
1

>  <SCORE.INTER.POLAR>
-2.45251

>  <SCORE.INTER.ROT>
8

>  <SCORE.INTER.SOLV>
25.5559

>  <SCORE.INTER.VDW>
-24.5193

>  <SCORE.INTER.norm>
-0.879369

>  <SCORE.INTRA>
2.02188

>  <SCORE.INTRA.DIHEDRAL>
3.34548

>  <SCORE.INTRA.DIHEDRAL.0>
11.6398

>  <SCORE.INTRA.POLAR>
0

>  <SCORE.INTRA.POLAR.0>
0

>  <SCORE.INTRA.REPUL>
0

>  <SCORE.INTRA.REPUL.0>
0

>  <SCORE.INTRA.SOLV>
2.46572

>  <SCORE.INTRA.SOLV.lig_0>
-81.722

>  <SCORE.INTRA.VDW>
-0.883717

>  <SCORE.INTRA.VDW.0>
1.12598

>  <SCORE.INTRA.norm>
0.0777648

>  <SCORE.RESTR>
0.0729044

>  <SCORE.RESTR.CAVITY>
0.0729044

>  <SCORE.RESTR.norm>
0.00280402

>  <SCORE.SYSTEM>
0

>  <SCORE.SYSTEM.CONST>
0

>  <SCORE.SYSTEM.DIHEDRAL>
0

>  <SCORE.SYSTEM.SOLV>
0

>  <SCORE.SYSTEM.norm>
0

>  <SCORE.heavy>
26

>  <SCORE.norm>
-0.7988

>  <RMSD>
1.734

$$$$
ligand
 OpenBabel11021811433D
libRbt.so/2013.1/901 2013/11/27
 26 27  0  0  0  0  0  0  0  0999 V2000
   16.5831   40.0652   64.5866 C   0  0  0  0  0  0  0  0  0  0  0  0
   22.8129   40.0158   64.8694 C   0  0  0  0  0  0  0  0  0  0  0  0
   27.8736   38.5227   66.3849 P   0  0  1  0  0  0  0  0  0  0  0  0
   30.1598   38.7684   67.5682 P   0  0  1  0  0  0  0  0  0  0  0  0
   21.5688   41.1486   67.1140 C   0  0  0  0  0  0  0  0  0  0  0  0
   19.7449   39.5790   66.3919 C   0  0  0  0  0  0  0  0  0  0  0  0
   20.2490   40.8633   66.4446 C   0  0  0  0  0  0  0  0  0  0  0  0
   19.5050   41.8910   65.8624 C   0  0  0  0  0  0  0  0  0  0  0  0
   19.9679   43.1981   65.8882 N   0  0  0  0  0  0  0  0  0  0  0  0
   18.3477   41.5972   65.2771 N   0  0  0  0  0  0  0  0  0  0  0  0
   17.9016   40.3580   65.2539 C   0  0  0  0  0  0  0  0  0  0  0  0
   18.5803   39.3649   65.7943 N   0  0  0  0  0  0  0  0  0  0  0  0
   27.8819   39.8258   65.6825 O   0  5  0  0  0  0  0  0  0  0  0  0
   30.7432   37.3403   67.4888 O   0  0  0  0  0  0  0  0  0  0  0  0
   23.3487   37.9295   68.1408 S   0  0  0  0  0  0  0  0  0  0  0  0
   22.3849   39.3394   68.4581 C   0  0  0  0  0  0  0  0  0  0  0  0
   28.6845   37.4387   65.5159 O   0  0  0  0  0  0  0  0  0  0  0  0
   30.4400   39.5416   66.1848 O   0  5  0  0  0  0  0  0  0  0  0  0
   22.3166   39.8994   67.2726 N   0  0  0  0  0  0  0  0  0  0  0  0
   28.5723   38.6864   67.8267 O   0  0  0  0  0  0  0  0  0  0  0  0
   30.8310   39.5340   68.7307 O   0  0  0  0  0  0  0  0  0  0  0  0
   22.9016   39.3611   66.2249 C   0  0  2  0  0  0  0  0  0  0  0  0
   23.5942   38.2058   66.3929 C   0  0  2  0  0  0  0  0  0  0  0  0
   24.3544   37.3836   65.3855 C   0  0  0  0  0  0  0  0  0  0  0  0
   25.7879   37.9075   65.2736 C   0  0  0  0  0  0  0  0  0  0  0  0
   26.3540   38.0269   66.5803 O   0  0  0  0  0  0  0  0  0  0  0  0
  1 11  1  0  0  0  0
  3 13  1  6  0  0  0
  3 17  2  0  0  0  0
  3 20  1  0  0  0  0
  3 26  1  0  0  0  0
  4 14  1  6  0  0  0
  4 18  1  0  0  0  0
  4 21  2  0  0  0  0
  4 20  1  0  0  0  0
  5 19  1  0  0  0  0
  5  7  1  0  0  0  0
  6  7  2  0  0  0  0
  6 12  1  0  0  0  0
  7  8  1  0  0  0  0
  8  9  1  0  0  0  0
  8 10  2  0  0  0  0
 10 11  1  0  0  0  0
 11 12  2  0  0  0  0
 15 23  1  0  0  0  0
 15 16  1  0  0  0  0
 16 19  1  0  0  0  0
 19 22  1  0  0  0  0
 22  2  1  1  0  0  0
 22 23  1  0  0  0  0
 23 24  1  6  0  0  0
 24 25  1  0  0  0  0
 25 26  1  0  0  0  0
M  CHG  2  13  -1  18  -1
M  END
>  <CHROM.1>
-75.71775012,-104.28096076,16.98213636,-85.38717149,-93.09807330,50.21686186
177.74442151,59.76289575,24.54650426,39.28111505,66.53431000,2.94747990,-0.11586530
-0.01465851

>  <Name>
ligand

>  <RI>
0

>  <Rbt.Current_Directory>
/home/itssahil/PROJECTS/Mol_Feturizer/New_Systems/rnas/2HOJ

>  <Rbt.Executable>
rbdock ($Id: //depot/dev/client3/rdock/2013.1/src/exe/rbdock.cxx#4 $)

>  <Rbt.Library>
libRbt.so (2013.1, Build901 2013/11/27)

>  <Rbt.Parameter_File>
/export/apps/rDock/src/rDock_2013.1_src/data/scripts/dock_solv.prm

>  <Rbt.Receptor>
prm/pocket_docking_4.prm

>  <SCORE>
-27.6242

>  <SCORE.INTER>
-23.3227

>  <SCORE.INTER.CONST>
1

>  <SCORE.INTER.POLAR>
-2.67381

>  <SCORE.INTER.ROT>
8

>  <SCORE.INTER.SOLV>
25.5987

>  <SCORE.INTER.VDW>
-24.102

>  <SCORE.INTER.norm>
-0.897026

>  <SCORE.INTRA>
-4.3015

>  <SCORE.INTRA.DIHEDRAL>
-5.14944

>  <SCORE.INTRA.DIHEDRAL.0>
11.6398

>  <SCORE.INTRA.POLAR>
0

>  <SCORE.INTRA.POLAR.0>
0

>  <SCORE.INTRA.REPUL>
0

>  <SCORE.INTRA.REPUL.0>
0

>  <SCORE.INTRA.SOLV>
2.33116

>  <SCORE.INTRA.SOLV.lig_0>
-81.722

>  <SCORE.INTRA.VDW>
-2.89235

>  <SCORE.INTRA.VDW.0>
1.12598

>  <SCORE.INTRA.norm>
-0.165442

>  <SCORE.RESTR>
0

>  <SCORE.RESTR.CAVITY>
0

>  <SCORE.RESTR.norm>
0

>  <SCORE.SYSTEM>
0

>  <SCORE.SYSTEM.CONST>
0

>  <SCORE.SYSTEM.DIHEDRAL>
0

>  <SCORE.SYSTEM.SOLV>
0

>  <SCORE.SYSTEM.norm>
0

>  <SCORE.heavy>
26

>  <SCORE.norm>
-1.06247

>  <RMSD>
1.735

$$$$
ligand
 OpenBabel11021811433D
libRbt.so/2013.1/901 2013/11/27
 26 27  0  0  0  0  0  0  0  0999 V2000
   16.5077   39.1952   64.3151 C   0  0  0  0  0  0  0  0  0  0  0  0
   22.1819   39.8048   68.5605 C   0  0  0  0  0  0  0  0  0  0  0  0
   27.8770   37.8780   67.5285 P   0  0  1  0  0  0  0  0  0  0  0  0
   30.1860   38.9951   67.2002 P   0  0  1  0  0  0  0  0  0  0  0  0
   20.8163   41.7283   67.0423 C   0  0  0  0  0  0  0  0  0  0  0  0
   19.5617   39.6833   66.2968 C   0  0  0  0  0  0  0  0  0  0  0  0
   19.6754   41.0591   66.3200 C   0  0  0  0  0  0  0  0  0  0  0  0
   18.7064   41.8147   65.6575 C   0  0  0  0  0  0  0  0  0  0  0  0
   18.7758   43.1999   65.6507 N   0  0  0  0  0  0  0  0  0  0  0  0
   17.7182   41.1862   65.0277 N   0  0  0  0  0  0  0  0  0  0  0  0
   17.6454   39.8711   65.0350 C   0  0  0  0  0  0  0  0  0  0  0  0
   18.5446   39.1287   65.6510 N   0  0  0  0  0  0  0  0  0  0  0  0
   28.3547   36.9506   68.5789 O   0  5  0  0  0  0  0  0  0  0  0  0
   29.5977   40.3628   67.6120 O   0  0  0  0  0  0  0  0  0  0  0  0
   24.0378   40.7455   65.2419 S   0  0  0  0  0  0  0  0  0  0  0  0
   22.5585   41.6425   65.3981 C   0  0  0  0  0  0  0  0  0  0  0  0
   27.4588   39.2794   68.1986 O   0  0  0  0  0  0  0  0  0  0  0  0
   30.6919   38.2105   68.5111 O   0  5  0  0  0  0  0  0  0  0  0  0
   22.0878   41.2015   66.5417 N   0  0  0  0  0  0  0  0  0  0  0  0
   29.0530   38.1251   66.4563 O   0  0  0  0  0  0  0  0  0  0  0  0
   31.3771   39.2157   66.2408 O   0  0  0  0  0  0  0  0  0  0  0  0
   22.7350   40.3004   67.2481 C   0  0  2  0  0  0  0  0  0  0  0  0
   23.9093   39.8206   66.7651 C   0  0  2  0  0  0  0  0  0  0  0  0
   24.8454   38.7967   67.3517 C   0  0  0  0  0  0  0  0  0  0  0  0
   25.8283   38.3259   66.2773 C   0  0  0  0  0  0  0  0  0  0  0  0
   26.6012   37.2363   66.7844 O   0  0  0  0  0  0  0  0  0  0  0  0
  1 11  1  0  0  0  0
  3 13  1  1  0  0  0
  3 17  2  0  0  0  0
  3 20  1  0  0  0  0
  3 26  1  0  0  0  0
  4 14  1  1  0  0  0
  4 18  1  0  0  0  0
  4 21  2  0  0  0  0
  4 20  1  0  0  0  0
  5 19  1  0  0  0  0
  5  7  1  0  0  0  0
  6  7  2  0  0  0  0
  6 12  1  0  0  0  0
  7  8  1  0  0  0  0
  8  9  1  0  0  0  0
  8 10  2  0  0  0  0
 10 11  1  0  0  0  0
 11 12  2  0  0  0  0
 15 23  1  0  0  0  0
 15 16  1  0  0  0  0
 16 19  1  0  0  0  0
 19 22  1  0  0  0  0
 22  2  1  6  0  0  0
 22 23  1  0  0  0  0
 23 24  1  1  0  0  0
 24 25  1  0  0  0  0
 25 26  1  0  0  0  0
M  CHG  2  13  -1  18  -1
M  END
>  <CHROM.1>
-69.74248951,78.80119479,55.03370833,-62.54497878,-15.12298480,-172.66991436
-87.82802207,153.49680626,24.44184220,39.62318642,66.64505329,2.90516152
-0.12082046,-0.21391909

>  <Name>
ligand

>  <RI>
0

>  <Rbt.Current_Directory>
/home/itssahil/PROJECTS/Mol_Feturizer/New_Systems/rnas/2HOJ

>  <Rbt.Executable>
rbdock ($Id: //depot/dev/client3/rdock/2013.1/src/exe/rbdock.cxx#4 $)

>  <Rbt.Library>
libRbt.so (2013.1, Build901 2013/11/27)

>  <Rbt.Parameter_File>
/export/apps/rDock/src/rDock_2013.1_src/data/scripts/dock_solv.prm

>  <Rbt.Receptor>
prm/pocket_docking_2.prm

>  <SCORE>
-20.1423

>  <SCORE.INTER>
-19.3608

>  <SCORE.INTER.CONST>
1

>  <SCORE.INTER.POLAR>
-2.71675

>  <SCORE.INTER.ROT>
8

>  <SCORE.INTER.SOLV>
30.693

>  <SCORE.INTER.VDW>
-23.0157

>  <SCORE.INTER.norm>
-0.744646

>  <SCORE.INTRA>
-1.4684

>  <SCORE.INTRA.DIHEDRAL>
-2.45539

>  <SCORE.INTRA.DIHEDRAL.0>
11.6398

>  <SCORE.INTRA.POLAR>
0

>  <SCORE.INTRA.POLAR.0>
0

>  <SCORE.INTRA.REPUL>
0

>  <SCORE.INTRA.REPUL.0>
0

>  <SCORE.INTRA.SOLV>
2.28618

>  <SCORE.INTRA.SOLV.lig_0>
-81.722

>  <SCORE.INTRA.VDW>
-1.38379

>  <SCORE.INTRA.VDW.0>
1.12598

>  <SCORE.INTRA.norm>
-0.056477

>  <SCORE.RESTR>
0.686922

>  <SCORE.RESTR.CAVITY>
0.686922

>  <SCORE.RESTR.norm>
0.0264201

>  <SCORE.SYSTEM>
0

>  <SCORE.SYSTEM.CONST>
0

>  <SCORE.SYSTEM.DIHEDRAL>
0

>  <SCORE.SYSTEM.SOLV>
0

>  <SCORE.SYSTEM.norm>
0

>  <SCORE.heavy>
26

>  <SCORE.norm>
-0.774703

>  <RMSD>
1.739

$$$$
ligand
 OpenBabel11021811433D
libRbt.so/2013.1/901 2013/11/27
 26 27  0  0  0  0  0  0  0  0999 V2000
   15.9535   38.9423   64.5484 C   0  0  0  0  0  0  0  0  0  0  0  0
   23.3469   40.8063   65.1812 C   0  0  0  0  0  0  0  0  0  0  0  0
   28.0074   39.3994   69.2325 P   0  0  1  0  0  0  0  0  0  0  0  0
   30.0956   38.6714   67.8924 P   0  0  1  0  0  0  0  0  0  0  0  0
   20.7884   41.5355   66.0710 C   0  0  0  0  0  0  0  0  0  0  0  0
   18.3462   41.5682   65.4822 C   0  0  0  0  0  0  0  0  0  0  0  0
   19.5093   40.8478   65.6681 C   0  0  0  0  0  0  0  0  0  0  0  0
   19.4705   39.4661   65.4729 C   0  0  0  0  0  0  0  0  0  0  0  0
   20.6116   38.6973   65.6475 N   0  0  0  0  0  0  0  0  0  0  0  0
   18.3212   38.8965   65.1226 N   0  0  0  0  0  0  0  0  0  0  0  0
   17.2357   39.6228   64.9512 C   0  0  0  0  0  0  0  0  0  0  0  0
   17.2390   40.9296   65.1279 N   0  0  0  0  0  0  0  0  0  0  0  0
   27.2674   39.2834   70.5095 O   0  5  0  0  0  0  0  0  0  0  0  0
   31.4671   37.9623   67.9439 O   0  0  0  0  0  0  0  0  0  0  0  0
   22.3884   39.1738   68.6103 S   0  0  0  0  0  0  0  0  0  0  0  0
   21.0984   40.1773   68.0217 C   0  0  0  0  0  0  0  0  0  0  0  0
   28.3327   40.9472   68.9388 O   0  0  0  0  0  0  0  0  0  0  0  0
   29.1663   37.9654   66.7842 O   0  5  0  0  0  0  0  0  0  0  0  0
   21.5932   40.6285   66.8923 N   0  0  0  0  0  0  0  0  0  0  0  0
   29.3846   38.5709   69.3340 O   0  0  0  0  0  0  0  0  0  0  0  0
   30.2990   40.1578   67.5221 O   0  0  0  0  0  0  0  0  0  0  0  0
   22.7932   40.2807   66.4816 C   0  0  2  0  0  0  0  0  0  0  0  0
   23.5257   39.4431   67.2590 C   0  0  2  0  0  0  0  0  0  0  0  0
   24.9102   38.8912   67.0412 C   0  0  0  0  0  0  0  0  0  0  0  0
   25.8776   39.5238   68.0442 C   0  0  0  0  0  0  0  0  0  0  0  0
   27.1110   38.8022   68.0355 O   0  0  0  0  0  0  0  0  0  0  0  0
  1 11  1  0  0  0  0
  3 13  1  1  0  0  0
  3 17  2  0  0  0  0
  3 20  1  0  0  0  0
  3 26  1  0  0  0  0
  4 14  1  1  0  0  0
  4 18  1  0  0  0  0
  4 21  2  0  0  0  0
  4 20  1  0  0  0  0
  5 19  1  0  0  0  0
  5  7  1  0  0  0  0
  6  7  2  0  0  0  0
  6 12  1  0  0  0  0
  7  8  1  0  0  0  0
  8  9  1  0  0  0  0
  8 10  2  0  0  0  0
 10 11  1  0  0  0  0
 11 12  2  0  0  0  0
 15 23  1  0  0  0  0
 15 16  1  0  0  0  0
 16 19  1  0  0  0  0
 19 22  1  0  0  0  0
 22  2  1  1  0  0  0
 22 23  1  0  0  0  0
 23 24  1  6  0  0  0
 24 25  1  0  0  0  0
 25 26  1  0  0  0  0
M  CHG  2  13  -1  18  -1
M  END
>  <CHROM.1>
176.92208644,-60.14957176,148.55398340,176.78962022,-70.23795572,167.58976319
-173.10177244,56.85366578,24.27976171,39.55367184,67.25462180,-2.90385545
-0.14063898,1.39047983

>  <Name>
ligand

>  <RI>
0

>  <Rbt.Current_Directory>
/home/itssahil/PROJECTS/Mol_Feturizer/New_Systems/rnas/2HOJ

>  <Rbt.Executable>
rbdock ($Id: //depot/dev/client3/rdock/2013.1/src/exe/rbdock.cxx#4 $)

>  <Rbt.Library>
libRbt.so (2013.1, Build901 2013/11/27)

>  <Rbt.Parameter_File>
/export/apps/rDock/src/rDock_2013.1_src/data/scripts/dock_solv.prm

>  <Rbt.Receptor>
prm/pocket_docking_2.prm

>  <SCORE>
-30.2857

>  <SCORE.INTER>
-28.7553

>  <SCORE.INTER.CONST>
1

>  <SCORE.INTER.POLAR>
-3.50261

>  <SCORE.INTER.ROT>
8

>  <SCORE.INTER.SOLV>
24.5801

>  <SCORE.INTER.VDW>
-24.6215

>  <SCORE.INTER.norm>
-1.10597

>  <SCORE.INTRA>
-1.5446

>  <SCORE.INTRA.DIHEDRAL>
-5.67354

>  <SCORE.INTRA.DIHEDRAL.0>
11.6398

>  <SCORE.INTRA.POLAR>
0

>  <SCORE.INTRA.POLAR.0>
0

>  <SCORE.INTRA.REPUL>
0

>  <SCORE.INTRA.REPUL.0>
0

>  <SCORE.INTRA.SOLV>
7.85048

>  <SCORE.INTRA.SOLV.lig_0>
-81.722

>  <SCORE.INTRA.VDW>
-2.63307

>  <SCORE.INTRA.VDW.0>
1.12598

>  <SCORE.INTRA.norm>
-0.0594076

>  <SCORE.RESTR>
0.0141482

>  <SCORE.RESTR.CAVITY>
0.0141482

>  <SCORE.RESTR.norm>
0.000544163

>  <SCORE.SYSTEM>
0

>  <SCORE.SYSTEM.CONST>
0

>  <SCORE.SYSTEM.DIHEDRAL>
0

>  <SCORE.SYSTEM.SOLV>
0

>  <SCORE.SYSTEM.norm>
0

>  <SCORE.heavy>
26

>  <SCORE.norm>
-1.16484

>  <RMSD>
1.744

$$$$
ligand
 OpenBabel11021811433D
libRbt.so/2013.1/901 2013/11/27
 26 27  0  0  0  0  0  0  0  0999 V2000
   15.8915   39.3719   63.9905 C   0  0  0  0  0  0  0  0  0  0  0  0
   22.8691   42.2858   65.8551 C   0  0  0  0  0  0  0  0  0  0  0  0
   27.8347   39.4472   67.0010 P   0  0  1  0  0  0  0  0  0  0  0  0
   29.9923   38.0371   66.7925 P   0  0  1  0  0  0  0  0  0  0  0  0
   20.6643   40.7987   66.7478 C   0  0  0  0  0  0  0  0  0  0  0  0
   18.9365   39.1223   66.0296 C   0  0  0  0  0  0  0  0  0  0  0  0
   19.4009   40.4225   66.0175 C   0  0  0  0  0  0  0  0  0  0  0  0
   18.6701   41.3799   65.3118 C   0  0  0  0  0  0  0  0  0  0  0  0
   19.0946   42.6995   65.2683 N   0  0  0  0  0  0  0  0  0  0  0  0
   17.5633   41.0066   64.6763 N   0  0  0  0  0  0  0  0  0  0  0  0
   17.1536   39.7554   64.7181 C   0  0  0  0  0  0  0  0  0  0  0  0
   17.8210   38.8273   65.3754 N   0  0  0  0  0  0  0  0  0  0  0  0
   27.8670   39.2098   68.4619 O   0  5  0  0  0  0  0  0  0  0  0  0
   30.7232   36.9285   66.0033 O   0  0  0  0  0  0  0  0  0  0  0  0
   23.2903   38.4307   65.3050 S   0  0  0  0  0  0  0  0  0  0  0  0
   21.7612   38.7852   66.0489 C   0  0  0  0  0  0  0  0  0  0  0  0
   28.6712   40.7767   66.6540 O   0  0  0  0  0  0  0  0  0  0  0  0
   30.7742   39.4320   66.6103 O   0  5  0  0  0  0  0  0  0  0  0  0
   21.8014   40.0934   66.1526 N   0  0  0  0  0  0  0  0  0  0  0  0
   28.4875   38.1877   66.2387 O   0  0  0  0  0  0  0  0  0  0  0  0
   29.9533   37.6610   68.2909 O   0  0  0  0  0  0  0  0  0  0  0  0
   22.8385   40.7834   65.7303 C   0  0  2  0  0  0  0  0  0  0  0  0
   23.8847   40.1114   65.1861 C   0  0  2  0  0  0  0  0  0  0  0  0
   25.1834   40.6365   64.6324 C   0  0  0  0  0  0  0  0  0  0  0  0
   26.3363   39.7430   65.0955 C   0  0  0  0  0  0  0  0  0  0  0  0
   26.3090   39.6313   66.5199 O   0  0  0  0  0  0  0  0  0  0  0  0
  1 11  1  0  0  0  0
  3 13  1  1  0  0  0
  3 17  2  0  0  0  0
  3 20  1  0  0  0  0
  3 26  1  0  0  0  0
  4 14  1  6  0  0  0
  4 18  1  0  0  0  0
  4 21  2  0  0  0  0
  4 20  1  0  0  0  0
  5 19  1  0  0  0  0
  5  7  1  0  0  0  0
  6  7  2  0  0  0  0
  6 12  1  0  0  0  0
  7  8  1  0  0  0  0
  8  9  1  0  0  0  0
  8 10  2  0  0  0  0
 10 11  1  0  0  0  0
 11 12  2  0  0  0  0
 15 23  1  0  0  0  0
 15 16  1  0  0  0  0
 16 19  1  0  0  0  0
 19 22  1  0  0  0  0
 22  2  1  1  0  0  0
 22 23  1  0  0  0  0
 23 24  1  6  0  0  0
 24 25  1  0  0  0  0
 25 26  1  0  0  0  0
M  CHG  2  13  -1  18  -1
M  END
>  <CHROM.1>
-58.55462764,-54.68031638,63.59267177,-174.61174741,-42.68088122,-54.05846396
-149.12344182,-175.22562508,24.28955587,39.57817535,66.04073055,2.99821277
-0.15894722,0.04682533

>  <Name>
ligand

>  <RI>
0

>  <Rbt.Current_Directory>
/home/itssahil/PROJECTS/Mol_Feturizer/New_Systems/rnas/2HOJ

>  <Rbt.Executable>
rbdock ($Id: //depot/dev/client3/rdock/2013.1/src/exe/rbdock.cxx#4 $)

>  <Rbt.Library>
libRbt.so (2013.1, Build901 2013/11/27)

>  <Rbt.Parameter_File>
/export/apps/rDock/src/rDock_2013.1_src/data/scripts/dock_solv.prm

>  <Rbt.Receptor>
prm/pocket_docking_3.prm

>  <SCORE>
-24.1289

>  <SCORE.INTER>
-22.1924

>  <SCORE.INTER.CONST>
1

>  <SCORE.INTER.POLAR>
-1.71847

>  <SCORE.INTER.ROT>
8

>  <SCORE.INTER.SOLV>
26.4483

>  <SCORE.INTER.VDW>
-26.8162

>  <SCORE.INTER.norm>
-0.853554

>  <SCORE.INTRA>
-1.93653

>  <SCORE.INTRA.DIHEDRAL>
-2.61655

>  <SCORE.INTRA.DIHEDRAL.0>
11.6398

>  <SCORE.INTRA.POLAR>
0

>  <SCORE.INTRA.POLAR.0>
0

>  <SCORE.INTRA.REPUL>
0

>  <SCORE.INTRA.REPUL.0>
0

>  <SCORE.INTRA.SOLV>
4.21498

>  <SCORE.INTRA.SOLV.lig_0>
-81.722

>  <SCORE.INTRA.VDW>
-2.73575

>  <SCORE.INTRA.VDW.0>
1.12598

>  <SCORE.INTRA.norm>
-0.074482

>  <SCORE.RESTR>
0

>  <SCORE.RESTR.CAVITY>
0

>  <SCORE.RESTR.norm>
0

>  <SCORE.SYSTEM>
0

>  <SCORE.SYSTEM.CONST>
0

>  <SCORE.SYSTEM.DIHEDRAL>
0

>  <SCORE.SYSTEM.SOLV>
0

>  <SCORE.SYSTEM.norm>
0

>  <SCORE.heavy>
26

>  <SCORE.norm>
-0.928036

>  <RMSD>
1.762

$$$$
ligand
 OpenBabel11021811433D
libRbt.so/2013.1/901 2013/11/27
 26 27  0  0  0  0  0  0  0  0999 V2000
   16.2733   39.8181   64.2336 C   0  0  0  0  0  0  0  0  0  0  0  0
   22.4957   38.3906   67.3939 C   0  0  0  0  0  0  0  0  0  0  0  0
   27.4170   39.6605   68.0083 P   0  0  1  0  0  0  0  0  0  0  0  0
   29.2579   37.9419   67.4215 P   0  0  1  0  0  0  0  0  0  0  0  0
   20.9906   40.7552   67.2811 C   0  0  0  0  0  0  0  0  0  0  0  0
   19.1842   39.2478   66.4000 C   0  0  0  0  0  0  0  0  0  0  0  0
   19.7420   40.5086   66.4740 C   0  0  0  0  0  0  0  0  0  0  0  0
   19.1197   41.5494   65.7824 C   0  0  0  0  0  0  0  0  0  0  0  0
   19.6407   42.8340   65.8243 N   0  0  0  0  0  0  0  0  0  0  0  0
   18.0225   41.2897   65.0776 N   0  0  0  0  0  0  0  0  0  0  0  0
   17.5212   40.0722   65.0382 C   0  0  0  0  0  0  0  0  0  0  0  0
   18.0850   39.0675   65.6799 N   0  0  0  0  0  0  0  0  0  0  0  0
   27.7409   39.3349   69.4157 O   0  5  0  0  0  0  0  0  0  0  0  0
   30.0035   37.9561   68.7743 O   0  0  0  0  0  0  0  0  0  0  0  0
   23.9045   40.9888   64.8235 S   0  0  0  0  0  0  0  0  0  0  0  0
   22.4871   41.6081   65.6141 C   0  0  0  0  0  0  0  0  0  0  0  0
   26.9608   41.1996   67.9042 O   0  0  0  0  0  0  0  0  0  0  0  0
   28.0150   36.9226   67.5029 O   0  5  0  0  0  0  0  0  0  0  0  0
   22.1655   40.6205   66.4172 N   0  0  0  0  0  0  0  0  0  0  0  0
   28.7183   39.4227   67.0899 O   0  0  0  0  0  0  0  0  0  0  0  0
   30.2253   37.4857   66.3061 O   0  0  0  0  0  0  0  0  0  0  0  0
   22.8773   39.5156   66.4651 C   0  0  2  0  0  0  0  0  0  0  0  0
   23.9598   39.4075   65.6533 C   0  0  2  0  0  0  0  0  0  0  0  0
   24.9376   38.2724   65.4980 C   0  0  0  0  0  0  0  0  0  0  0  0
   26.2956   38.6839   66.0712 C   0  0  0  0  0  0  0  0  0  0  0  0
   26.2214   38.7100   67.4981 O   0  0  0  0  0  0  0  0  0  0  0  0
  1 11  1  0  0  0  0
  3 13  1  1  0  0  0
  3 17  2  0  0  0  0
  3 20  1  0  0  0  0
  3 26  1  0  0  0  0
  4 14  1  1  0  0  0
  4 18  1  0  0  0  0
  4 21  2  0  0  0  0
  4 20  1  0  0  0  0
  5 19  1  0  0  0  0
  5  7  1  0  0  0  0
  6  7  2  0  0  0  0
  6 12  1  0  0  0  0
  7  8  1  0  0  0  0
  8  9  1  0  0  0  0
  8 10  2  0  0  0  0
 10 11  1  0  0  0  0
 11 12  2  0  0  0  0
 15 23  1  0  0  0  0
 15 16  1  0  0  0  0
 16 19  1  0  0  0  0
 19 22  1  0  0  0  0
 22  2  1  6  0  0  0
 22 23  1  0  0  0  0
 23 24  1  1  0  0  0
 24 25  1  0  0  0  0
 25 26  1  0  0  0  0
M  CHG  2  13  -1  18  -1
M  END
>  <CHROM.1>
51.05382157,78.47042791,92.64340817,-76.73024145,69.76835563,72.86558200
-158.51948172,-158.11818031,24.18470164,39.59651397,66.60679577,2.94883011
-0.22216270,0.04983028

>  <Name>
ligand

>  <RI>
0

>  <Rbt.Current_Directory>
/home/itssahil/PROJECTS/Mol_Feturizer/New_Systems/rnas/2HOJ

>  <Rbt.Executable>
rbdock ($Id: //depot/dev/client3/rdock/2013.1/src/exe/rbdock.cxx#4 $)

>  <Rbt.Library>
libRbt.so (2013.1, Build901 2013/11/27)

>  <Rbt.Parameter_File>
/export/apps/rDock/src/rDock_2013.1_src/data/scripts/dock_solv.prm

>  <Rbt.Receptor>
prm/pocket_docking_2.prm

>  <SCORE>
-20.9478

>  <SCORE.INTER>
-17.9038

>  <SCORE.INTER.CONST>
1

>  <SCORE.INTER.POLAR>
-1.36051

>  <SCORE.INTER.ROT>
8

>  <SCORE.INTER.SOLV>
20.9398

>  <SCORE.INTER.VDW>
-23.3141

>  <SCORE.INTER.norm>
-0.688606

>  <SCORE.INTRA>
-3.26635

>  <SCORE.INTRA.DIHEDRAL>
-2.60891

>  <SCORE.INTRA.DIHEDRAL.0>
11.6398

>  <SCORE.INTRA.POLAR>
0

>  <SCORE.INTRA.POLAR.0>
0

>  <SCORE.INTRA.REPUL>
0

>  <SCORE.INTRA.REPUL.0>
0

>  <SCORE.INTRA.SOLV>
2.88752

>  <SCORE.INTRA.SOLV.lig_0>
-81.722

>  <SCORE.INTRA.VDW>
-3.40565

>  <SCORE.INTRA.VDW.0>
1.12598

>  <SCORE.INTRA.norm>
-0.125629

>  <SCORE.RESTR>
0.222289

>  <SCORE.RESTR.CAVITY>
0.222289

>  <SCORE.RESTR.norm>
0.00854956

>  <SCORE.SYSTEM>
0

>  <SCORE.SYSTEM.CONST>
0

>  <SCORE.SYSTEM.DIHEDRAL>
0

>  <SCORE.SYSTEM.SOLV>
0

>  <SCORE.SYSTEM.norm>
0

>  <SCORE.heavy>
26

>  <SCORE.norm>
-0.805685

>  <RMSD>
1.763

$$$$
ligand
 OpenBabel11021811433D
libRbt.so/2013.1/901 2013/11/27
 26 27  0  0  0  0  0  0  0  0999 V2000
   16.2153   39.6809   64.4089 C   0  0  0  0  0  0  0  0  0  0  0  0
   23.4586   40.0814   65.3649 C   0  0  0  0  0  0  0  0  0  0  0  0
   27.4602   40.0619   67.9937 P   0  0  1  0  0  0  0  0  0  0  0  0
   29.6950   38.8736   67.4643 P   0  0  1  0  0  0  0  0  0  0  0  0
   21.2316   41.2897   66.5690 C   0  0  0  0  0  0  0  0  0  0  0  0
   18.9031   41.7846   65.7662 C   0  0  0  0  0  0  0  0  0  0  0  0
   19.9043   40.8625   65.9973 C   0  0  0  0  0  0  0  0  0  0  0  0
   19.6561   39.5242   65.6875 C   0  0  0  0  0  0  0  0  0  0  0  0
   20.6288   38.5590   65.9015 N   0  0  0  0  0  0  0  0  0  0  0  0
   18.4702   39.1870   65.1894 N   0  0  0  0  0  0  0  0  0  0  0  0
   17.5445   40.1005   64.9802 C   0  0  0  0  0  0  0  0  0  0  0  0
   17.7474   41.3726   65.2624 N   0  0  0  0  0  0  0  0  0  0  0  0
   26.7006   40.6386   69.1260 O   0  5  0  0  0  0  0  0  0  0  0  0
   30.5839   37.6515   67.7845 O   0  0  0  0  0  0  0  0  0  0  0  0
   22.4401   38.3984   68.7520 S   0  0  0  0  0  0  0  0  0  0  0  0
   21.3784   39.7207   68.3753 C   0  0  0  0  0  0  0  0  0  0  0  0
   28.2545   41.2325   67.2278 O   0  0  0  0  0  0  0  0  0  0  0  0
   29.0628   38.7084   65.9936 O   0  5  0  0  0  0  0  0  0  0  0  0
   21.8667   40.1502   67.2347 N   0  0  0  0  0  0  0  0  0  0  0  0
   28.5105   38.9756   68.5507 O   0  0  0  0  0  0  0  0  0  0  0  0
   30.5510   40.1592   67.5151 O   0  0  0  0  0  0  0  0  0  0  0  0
   22.9104   39.5772   66.6760 C   0  0  2  0  0  0  0  0  0  0  0  0
   23.4881   38.5255   67.3107 C   0  0  2  0  0  0  0  0  0  0  0  0
   24.6787   37.6946   66.9096 C   0  0  0  0  0  0  0  0  0  0  0  0
   25.9242   38.1959   67.6439 C   0  0  0  0  0  0  0  0  0  0  0  0
   26.4417   39.3461   66.9722 O   0  0  0  0  0  0  0  0  0  0  0  0
  1 11  1  0  0  0  0
  3 13  1  1  0  0  0
  3 17  2  0  0  0  0
  3 20  1  0  0  0  0
  3 26  1  0  0  0  0
  4 14  1  1  0  0  0
  4 18  1  0  0  0  0
  4 21  2  0  0  0  0
  4 20  1  0  0  0  0
  5 19  1  0  0  0  0
  5  7  1  0  0  0  0
  6  7  2  0  0  0  0
  6 12  1  0  0  0  0
  7  8  1  0  0  0  0
  8  9  1  0  0  0  0
  8 10  2  0  0  0  0
 10 11  1  0  0  0  0
 11 12  2  0  0  0  0
 15 23  1  0  0  0  0
 15 16  1  0  0  0  0
 16 19  1  0  0  0  0
 19 22  1  0  0  0  0
 22  2  1  1  0  0  0
 22 23  1  0  0  0  0
 23 24  1  6  0  0  0
 24 25  1  0  0  0  0
 25 26  1  0  0  0  0
M  CHG  2  13  -1  18  -1
M  END
>  <CHROM.1>
-155.54682563,-72.04660724,155.95604164,-168.45658142,-82.03395117,-80.66603797
164.19294581,-68.68277437,24.20741537,39.54776192,66.98542105,-2.97690763
0.11959585,2.60300734

>  <Name>
ligand

>  <RI>
0

>  <Rbt.Current_Directory>
/home/itssahil/PROJECTS/Mol_Feturizer/New_Systems/rnas/2HOJ

>  <Rbt.Executable>
rbdock ($Id: //depot/dev/client3/rdock/2013.1/src/exe/rbdock.cxx#4 $)

>  <Rbt.Library>
libRbt.so (2013.1, Build901 2013/11/27)

>  <Rbt.Parameter_File>
/export/apps/rDock/src/rDock_2013.1_src/data/scripts/dock_solv.prm

>  <Rbt.Receptor>
prm/pocket_docking_2.prm

>  <SCORE>
-23.5689

>  <SCORE.INTER>
-25.0779

>  <SCORE.INTER.CONST>
1

>  <SCORE.INTER.POLAR>
-2.65204

>  <SCORE.INTER.ROT>
8

>  <SCORE.INTER.SOLV>
18.9601

>  <SCORE.INTER.VDW>
-23.1318

>  <SCORE.INTER.norm>
-0.964533

>  <SCORE.INTRA>
0.701065

>  <SCORE.INTRA.DIHEDRAL>
-2.82759

>  <SCORE.INTRA.DIHEDRAL.0>
11.6398

>  <SCORE.INTRA.POLAR>
0

>  <SCORE.INTRA.POLAR.0>
0

>  <SCORE.INTRA.REPUL>
0

>  <SCORE.INTRA.REPUL.0>
0

>  <SCORE.INTRA.SOLV>
8.77187

>  <SCORE.INTRA.SOLV.lig_0>
-81.722

>  <SCORE.INTRA.VDW>
-2.27108

>  <SCORE.INTRA.VDW.0>
1.12598

>  <SCORE.INTRA.norm>
0.026964

>  <SCORE.RESTR>
0.807877

>  <SCORE.RESTR.CAVITY>
0.807877

>  <SCORE.RESTR.norm>
0.0310722

>  <SCORE.SYSTEM>
0

>  <SCORE.SYSTEM.CONST>
0

>  <SCORE.SYSTEM.DIHEDRAL>
0

>  <SCORE.SYSTEM.SOLV>
0

>  <SCORE.SYSTEM.norm>
0

>  <SCORE.heavy>
26

>  <SCORE.norm>
-0.906497

>  <RMSD>
1.763

$$$$
ligand
 OpenBabel11021811433D
libRbt.so/2013.1/901 2013/11/27
 26 27  0  0  0  0  0  0  0  0999 V2000
   16.5191   39.1209   64.5835 C   0  0  0  0  0  0  0  0  0  0  0  0
   23.3182   42.1007   65.0789 C   0  0  0  0  0  0  0  0  0  0  0  0
   27.9954   38.1094   68.2179 P   0  0  1  0  0  0  0  0  0  0  0  0
   30.3691   38.7279   67.3992 P   0  0  1  0  0  0  0  0  0  0  0  0
   20.8857   42.2514   66.4681 C   0  0  0  0  0  0  0  0  0  0  0  0
   18.4610   41.9562   65.8806 C   0  0  0  0  0  0  0  0  0  0  0  0
   19.7308   41.4216   65.9692 C   0  0  0  0  0  0  0  0  0  0  0  0
   19.9180   40.0928   65.5845 C   0  0  0  0  0  0  0  0  0  0  0  0
   21.1739   39.5088   65.6551 N   0  0  0  0  0  0  0  0  0  0  0  0
   18.8724   39.3928   65.1545 N   0  0  0  0  0  0  0  0  0  0  0  0
   17.6783   39.9442   65.0814 C   0  0  0  0  0  0  0  0  0  0  0  0
   17.4682   41.1965   65.4373 N   0  0  0  0  0  0  0  0  0  0  0  0
   26.9937   37.0242   68.3201 O   0  5  0  0  0  0  0  0  0  0  0  0
   31.2554   38.3340   68.6015 O   0  0  0  0  0  0  0  0  0  0  0  0
   23.2160   39.8083   68.2533 S   0  0  0  0  0  0  0  0  0  0  0  0
   21.7189   40.6687   68.0641 C   0  0  0  0  0  0  0  0  0  0  0  0
   28.5998   38.4218   69.6757 O   0  0  0  0  0  0  0  0  0  0  0  0
   31.2613   38.7582   66.0602 O   0  5  0  0  0  0  0  0  0  0  0  0
   21.9386   41.3687   66.9752 N   0  0  0  0  0  0  0  0  0  0  0  0
   29.1829   37.6516   67.2310 O   0  0  0  0  0  0  0  0  0  0  0  0
   29.7620   40.1276   67.6449 O   0  0  0  0  0  0  0  0  0  0  0  0
   23.0815   41.2913   66.3290 C   0  0  2  0  0  0  0  0  0  0  0  0
   24.0468   40.4714   66.8173 C   0  0  2  0  0  0  0  0  0  0  0  0
   25.4313   40.1946   66.2926 C   0  0  0  0  0  0  0  0  0  0  0  0
   26.0477   39.0260   67.0647 C   0  0  0  0  0  0  0  0  0  0  0  0
   27.2940   39.4351   67.6316 O   0  0  0  0  0  0  0  0  0  0  0  0
  1 11  1  0  0  0  0
  3 13  1  1  0  0  0
  3 17  2  0  0  0  0
  3 20  1  0  0  0  0
  3 26  1  0  0  0  0
  4 14  1  1  0  0  0
  4 18  1  0  0  0  0
  4 21  2  0  0  0  0
  4 20  1  0  0  0  0
  5 19  1  0  0  0  0
  5  7  1  0  0  0  0
  6  7  2  0  0  0  0
  6 12  1  0  0  0  0
  7  8  1  0  0  0  0
  8  9  1  0  0  0  0
  8 10  2  0  0  0  0
 10 11  1  0  0  0  0
 11 12  2  0  0  0  0
 15 23  1  0  0  0  0
 15 16  1  0  0  0  0
 16 19  1  0  0  0  0
 19 22  1  0  0  0  0
 22  2  1  1  0  0  0
 22 23  1  0  0  0  0
 23 24  1  6  0  0  0
 24 25  1  0  0  0  0
 25 26  1  0  0  0  0
M  CHG  2  13  -1  18  -1
M  END
>  <CHROM.1>
-168.58061323,-67.85433738,157.13778011,85.05419498,9.02384097,-124.19548711
-171.00819875,-15.66048488,24.59163855,39.66938058,66.94489728,2.88779567
-0.10499591,-0.40751640

>  <Name>
ligand

>  <RI>
0

>  <Rbt.Current_Directory>
/home/itssahil/PROJECTS/Mol_Feturizer/New_Systems/rnas/2HOJ

>  <Rbt.Executable>
rbdock ($Id: //depot/dev/client3/rdock/2013.1/src/exe/rbdock.cxx#4 $)

>  <Rbt.Library>
libRbt.so (2013.1, Build901 2013/11/27)

>  <Rbt.Parameter_File>
/export/apps/rDock/src/rDock_2013.1_src/data/scripts/dock_solv.prm

>  <Rbt.Receptor>
prm/pocket_docking_2.prm

>  <SCORE>
-15.8833

>  <SCORE.INTER>
-21.8932

>  <SCORE.INTER.CONST>
1

>  <SCORE.INTER.POLAR>
-2.47484

>  <SCORE.INTER.ROT>
8

>  <SCORE.INTER.SOLV>
22.5029

>  <SCORE.INTER.VDW>
-22.7803

>  <SCORE.INTER.norm>
-0.842048

>  <SCORE.INTRA>
5.20399

>  <SCORE.INTRA.DIHEDRAL>
1.92243

>  <SCORE.INTRA.DIHEDRAL.0>
11.6398

>  <SCORE.INTRA.POLAR>
0

>  <SCORE.INTRA.POLAR.0>
0

>  <SCORE.INTRA.REPUL>
0

>  <SCORE.INTRA.REPUL.0>
0

>  <SCORE.INTRA.SOLV>
6.77626

>  <SCORE.INTRA.SOLV.lig_0>
-81.722

>  <SCORE.INTRA.VDW>
0.854646

>  <SCORE.INTRA.VDW.0>
1.12598

>  <SCORE.INTRA.norm>
0.200153

>  <SCORE.RESTR>
0.805922

>  <SCORE.RESTR.CAVITY>
0.805922

>  <SCORE.RESTR.norm>
0.030997

>  <SCORE.SYSTEM>
0

>  <SCORE.SYSTEM.CONST>
0

>  <SCORE.SYSTEM.DIHEDRAL>
0

>  <SCORE.SYSTEM.SOLV>
0

>  <SCORE.SYSTEM.norm>
0

>  <SCORE.heavy>
26

>  <SCORE.norm>
-0.610897

>  <RMSD>
1.764

$$$$
ligand
 OpenBabel11021811433D
libRbt.so/2013.1/901 2013/11/27
 26 27  0  0  0  0  0  0  0  0999 V2000
   16.1795   39.1335   64.3106 C   0  0  0  0  0  0  0  0  0  0  0  0
   21.8900   39.4341   68.6973 C   0  0  0  0  0  0  0  0  0  0  0  0
   27.7363   39.7099   67.1756 P   0  0  1  0  0  0  0  0  0  0  0  0
   30.1939   38.9233   67.3442 P   0  0  1  0  0  0  0  0  0  0  0  0
   20.7708   41.2797   66.9054 C   0  0  0  0  0  0  0  0  0  0  0  0
   19.2991   39.3564   66.2371 C   0  0  0  0  0  0  0  0  0  0  0  0
   19.5552   40.7130   66.2181 C   0  0  0  0  0  0  0  0  0  0  0  0
   18.6593   41.5465   65.5463 C   0  0  0  0  0  0  0  0  0  0  0  0
   18.8718   42.9161   65.4977 N   0  0  0  0  0  0  0  0  0  0  0  0
   17.6012   41.0069   64.9483 N   0  0  0  0  0  0  0  0  0  0  0  0
   17.3926   39.7072   64.9953 C   0  0  0  0  0  0  0  0  0  0  0  0
   18.2197   38.8928   65.6212 N   0  0  0  0  0  0  0  0  0  0  0  0
   28.1360   41.1189   67.3917 O   0  5  0  0  0  0  0  0  0  0  0  0
   30.5454   40.4263   67.2833 O   0  0  0  0  0  0  0  0  0  0  0  0
   23.8207   39.6392   65.2954 S   0  0  0  0  0  0  0  0  0  0  0  0
   22.4716   40.7333   65.3070 C   0  0  0  0  0  0  0  0  0  0  0  0
   27.8155   39.3636   65.6067 O   0  0  0  0  0  0  0  0  0  0  0  0
   31.2809   38.1528   68.2469 O   0  5  0  0  0  0  0  0  0  0  0  0
   21.9585   40.5261   66.4977 N   0  0  0  0  0  0  0  0  0  0  0  0
   28.7303   38.7397   67.9907 O   0  0  0  0  0  0  0  0  0  0  0  0
   30.2020   38.3352   65.9151 O   0  0  0  0  0  0  0  0  0  0  0  0
   22.4902   39.6599   67.3325 C   0  0  2  0  0  0  0  0  0  0  0  0
   23.5878   38.9676   66.9345 C   0  0  2  0  0  0  0  0  0  0  0  0
   24.3889   37.9261   67.6711 C   0  0  0  0  0  0  0  0  0  0  0  0
   25.8797   38.1395   67.3992 C   0  0  0  0  0  0  0  0  0  0  0  0
   26.2289   39.4924   67.6985 O   0  0  0  0  0  0  0  0  0  0  0  0
  1 11  1  0  0  0  0
  3 13  1  1  0  0  0
  3 17  2  0  0  0  0
  3 20  1  0  0  0  0
  3 26  1  0  0  0  0
  4 14  1  6  0  0  0
  4 18  1  0  0  0  0
  4 21  2  0  0  0  0
  4 20  1  0  0  0  0
  5 19  1  0  0  0  0
  5  7  1  0  0  0  0
  6  7  2  0  0  0  0
  6 12  1  0  0  0  0
  7  8  1  0  0  0  0
  8  9  1  0  0  0  0
  8 10  2  0  0  0  0
 10 11  1  0  0  0  0
 11 12  2  0  0  0  0
 15 23  1  0  0  0  0
 15 16  1  0  0  0  0
 16 19  1  0  0  0  0
 19 22  1  0  0  0  0
 22  2  1  6  0  0  0
 22 23  1  0  0  0  0
 23 24  1  1  0  0  0
 24 25  1  0  0  0  0
 25 26  1  0  0  0  0
M  CHG  2  13  -1  18  -1
M  END
>  <CHROM.1>
-64.30282643,75.79040663,49.79016507,51.48112369,39.84072907,53.08760458
-171.26870129,177.01911979,24.31619756,39.69495464,66.58159693,2.99239091
-0.11770155,-0.29481702

>  <Name>
ligand

>  <RI>
0

>  <Rbt.Current_Directory>
/home/itssahil/PROJECTS/Mol_Feturizer/New_Systems/rnas/2HOJ

>  <Rbt.Executable>
rbdock ($Id: //depot/dev/client3/rdock/2013.1/src/exe/rbdock.cxx#4 $)

>  <Rbt.Library>
libRbt.so (2013.1, Build901 2013/11/27)

>  <Rbt.Parameter_File>
/export/apps/rDock/src/rDock_2013.1_src/data/scripts/dock_solv.prm

>  <Rbt.Receptor>
prm/pocket_docking_3.prm

>  <SCORE>
-30.0819

>  <SCORE.INTER>
-23.9936

>  <SCORE.INTER.CONST>
1

>  <SCORE.INTER.POLAR>
-2.7111

>  <SCORE.INTER.ROT>
8

>  <SCORE.INTER.SOLV>
29.9576

>  <SCORE.INTER.VDW>
-25.8779

>  <SCORE.INTER.norm>
-0.922831

>  <SCORE.INTRA>
-6.0883

>  <SCORE.INTRA.DIHEDRAL>
-5.90823

>  <SCORE.INTRA.DIHEDRAL.0>
11.6398

>  <SCORE.INTRA.POLAR>
0

>  <SCORE.INTRA.POLAR.0>
0

>  <SCORE.INTRA.REPUL>
0

>  <SCORE.INTRA.REPUL.0>
0

>  <SCORE.INTRA.SOLV>
0.797355

>  <SCORE.INTRA.SOLV.lig_0>
-81.722

>  <SCORE.INTRA.VDW>
-3.53286

>  <SCORE.INTRA.VDW.0>
1.12598

>  <SCORE.INTRA.norm>
-0.234165

>  <SCORE.RESTR>
0

>  <SCORE.RESTR.CAVITY>
0

>  <SCORE.RESTR.norm>
0

>  <SCORE.SYSTEM>
0

>  <SCORE.SYSTEM.CONST>
0

>  <SCORE.SYSTEM.DIHEDRAL>
0

>  <SCORE.SYSTEM.SOLV>
0

>  <SCORE.SYSTEM.norm>
0

>  <SCORE.heavy>
26

>  <SCORE.norm>
-1.157

>  <RMSD>
1.780

$$$$
ligand
 OpenBabel11021811433D
libRbt.so/2013.1/901 2013/11/27
 26 27  0  0  0  0  0  0  0  0999 V2000
   16.5248   39.8237   64.4650 C   0  0  0  0  0  0  0  0  0  0  0  0
   23.5063   41.6753   65.3513 C   0  0  0  0  0  0  0  0  0  0  0  0
   28.6492   39.4435   66.9574 P   0  0  1  0  0  0  0  0  0  0  0  0
   28.6548   38.7950   69.4607 P   0  0  1  0  0  0  0  0  0  0  0  0
   21.4147   41.0483   67.1123 C   0  0  0  0  0  0  0  0  0  0  0  0
   19.6316   39.4345   66.3856 C   0  0  0  0  0  0  0  0  0  0  0  0
   20.1203   40.7256   66.4112 C   0  0  0  0  0  0  0  0  0  0  0  0
   19.3847   41.7246   65.7712 C   0  0  0  0  0  0  0  0  0  0  0  0
   19.8328   43.0371   65.7677 N   0  0  0  0  0  0  0  0  0  0  0  0
   18.2500   41.3981   65.1595 N   0  0  0  0  0  0  0  0  0  0  0  0
   17.8179   40.1538   65.1638 C   0  0  0  0  0  0  0  0  0  0  0  0
   18.4892   39.1872   65.7587 N   0  0  0  0  0  0  0  0  0  0  0  0
   29.3549   40.6276   67.4972 O   0  5  0  0  0  0  0  0  0  0  0  0
   27.9187   38.0320   70.5842 O   0  0  0  0  0  0  0  0  0  0  0  0
   23.6708   37.9965   66.6860 S   0  0  0  0  0  0  0  0  0  0  0  0
   22.2985   38.8324   67.3459 C   0  0  0  0  0  0  0  0  0  0  0  0
   29.7254   38.3754   66.4200 O   0  0  0  0  0  0  0  0  0  0  0  0
   30.0734   38.0915   69.1727 O   0  5  0  0  0  0  0  0  0  0  0  0
   22.4098   40.0206   66.7986 N   0  0  0  0  0  0  0  0  0  0  0  0
   27.7611   38.7721   68.1211 O   0  0  0  0  0  0  0  0  0  0  0  0
   28.8859   40.2587   69.8993 O   0  0  0  0  0  0  0  0  0  0  0  0
   23.3929   40.3061   65.9729 C   0  0  2  0  0  0  0  0  0  0  0  0
   24.3081   39.3420   65.6984 C   0  0  2  0  0  0  0  0  0  0  0  0
   25.5209   39.3914   64.8065 C   0  0  0  0  0  0  0  0  0  0  0  0
   26.7353   38.8478   65.5625 C   0  0  0  0  0  0  0  0  0  0  0  0
   27.6896   39.8955   65.7458 O   0  0  0  0  0  0  0  0  0  0  0  0
  1 11  1  0  0  0  0
  3 13  1  1  0  0  0
  3 17  2  0  0  0  0
  3 20  1  0  0  0  0
  3 26  1  0  0  0  0
  4 14  1  1  0  0  0
  4 18  1  0  0  0  0
  4 21  2  0  0  0  0
  4 20  1  0  0  0  0
  5 19  1  0  0  0  0
  5  7  1  0  0  0  0
  6  7  2  0  0  0  0
  6 12  1  0  0  0  0
  7  8  1  0  0  0  0
  8  9  1  0  0  0  0
  8 10  2  0  0  0  0
 10 11  1  0  0  0  0
 11 12  2  0  0  0  0
 15 23  1  0  0  0  0
 15 16  1  0  0  0  0
 16 19  1  0  0  0  0
 19 22  1  0  0  0  0
 22  2  1  1  0  0  0
 22 23  1  0  0  0  0
 23 24  1  6  0  0  0
 24 25  1  0  0  0  0
 25 26  1  0  0  0  0
M  CHG  2  13  -1  18  -1
M  END
>  <CHROM.1>
-41.56377454,-73.35718987,43.11829960,-174.15559340,-49.40064743,-114.91538357
159.97040156,-161.37149970,24.53708551,39.65537895,66.87874545,2.84027845
0.01705555,-1.10787279

>  <Name>
ligand

>  <RI>
0

>  <Rbt.Current_Directory>
/home/itssahil/PROJECTS/Mol_Feturizer/New_Systems/rnas/2HOJ

>  <Rbt.Executable>
rbdock ($Id: //depot/dev/client3/rdock/2013.1/src/exe/rbdock.cxx#4 $)

>  <Rbt.Library>
libRbt.so (2013.1, Build901 2013/11/27)

>  <Rbt.Parameter_File>
/export/apps/rDock/src/rDock_2013.1_src/data/scripts/dock_solv.prm

>  <Rbt.Receptor>
prm/pocket_docking_2.prm

>  <SCORE>
-22.1268

>  <SCORE.INTER>
-23.6914

>  <SCORE.INTER.CONST>
1

>  <SCORE.INTER.POLAR>
-4.23581

>  <SCORE.INTER.ROT>
8

>  <SCORE.INTER.SOLV>
26.8804

>  <SCORE.INTER.VDW>
-19.5684

>  <SCORE.INTER.norm>
-0.911208

>  <SCORE.INTRA>
0.228861

>  <SCORE.INTRA.DIHEDRAL>
1.79136

>  <SCORE.INTRA.DIHEDRAL.0>
11.6398

>  <SCORE.INTRA.POLAR>
0

>  <SCORE.INTRA.POLAR.0>
0

>  <SCORE.INTRA.REPUL>
0

>  <SCORE.INTRA.REPUL.0>
0

>  <SCORE.INTRA.SOLV>
3.63502

>  <SCORE.INTRA.SOLV.lig_0>
-81.722

>  <SCORE.INTRA.VDW>
-2.48433

>  <SCORE.INTRA.VDW.0>
1.12598

>  <SCORE.INTRA.norm>
0.00880233

>  <SCORE.RESTR>
1.33571

>  <SCORE.RESTR.CAVITY>
1.33571

>  <SCORE.RESTR.norm>
0.0513734

>  <SCORE.SYSTEM>
0

>  <SCORE.SYSTEM.CONST>
0

>  <SCORE.SYSTEM.DIHEDRAL>
0

>  <SCORE.SYSTEM.SOLV>
0

>  <SCORE.SYSTEM.norm>
0

>  <SCORE.heavy>
26

>  <SCORE.norm>
-0.851032

>  <RMSD>
1.785

$$$$
ligand
 OpenBabel11021811433D
libRbt.so/2013.1/901 2013/11/27
 26 27  0  0  0  0  0  0  0  0999 V2000
   16.4327   39.9865   64.4913 C   0  0  0  0  0  0  0  0  0  0  0  0
   23.8915   40.3436   65.9266 C   0  0  0  0  0  0  0  0  0  0  0  0
   28.4568   39.0417   68.5129 P   0  0  1  0  0  0  0  0  0  0  0  0
   30.7584   38.9897   67.3353 P   0  0  1  0  0  0  0  0  0  0  0  0
   21.4430   41.4004   66.7971 C   0  0  0  0  0  0  0  0  0  0  0  0
   19.1361   41.9749   65.9848 C   0  0  0  0  0  0  0  0  0  0  0  0
   20.1173   41.0247   66.1867 C   0  0  0  0  0  0  0  0  0  0  0  0
   19.8502   39.7071   65.8109 C   0  0  0  0  0  0  0  0  0  0  0  0
   20.8024   38.7154   65.9933 N   0  0  0  0  0  0  0  0  0  0  0  0
   18.6663   39.4154   65.2803 N   0  0  0  0  0  0  0  0  0  0  0  0
   17.7603   40.3545   65.1009 C   0  0  0  0  0  0  0  0  0  0  0  0
   17.9812   41.6081   65.4454 N   0  0  0  0  0  0  0  0  0  0  0  0
   29.4141   38.4225   69.4573 O   0  5  0  0  0  0  0  0  0  0  0  0
   30.8992   37.4619   67.5153 O   0  0  0  0  0  0  0  0  0  0  0  0
   22.3878   38.4189   68.9887 S   0  0  0  0  0  0  0  0  0  0  0  0
   21.3493   39.7266   68.5105 C   0  0  0  0  0  0  0  0  0  0  0  0
   27.8855   40.4064   69.1445 O   0  0  0  0  0  0  0  0  0  0  0  0
   31.6045   39.4600   66.0495 O   0  5  0  0  0  0  0  0  0  0  0  0
   22.0046   40.2427   67.4965 N   0  0  0  0  0  0  0  0  0  0  0  0
   29.2064   39.3649   67.1247 O   0  0  0  0  0  0  0  0  0  0  0  0
   31.2943   39.7073   68.5946 O   0  0  0  0  0  0  0  0  0  0  0  0
   23.1515   39.7404   67.0938 C   0  0  2  0  0  0  0  0  0  0  0  0
   23.6582   38.6705   67.7579 C   0  0  2  0  0  0  0  0  0  0  0  0
   24.9340   37.9058   67.5207 C   0  0  0  0  0  0  0  0  0  0  0  0
   26.1345   38.8152   67.7924 C   0  0  0  0  0  0  0  0  0  0  0  0
   27.2384   38.0251   68.2386 O   0  0  0  0  0  0  0  0  0  0  0  0
  1 11  1  0  0  0  0
  3 13  1  1  0  0  0
  3 17  2  0  0  0  0
  3 20  1  0  0  0  0
  3 26  1  0  0  0  0
  4 14  1  1  0  0  0
  4 18  1  0  0  0  0
  4 21  2  0  0  0  0
  4 20  1  0  0  0  0
  5 19  1  0  0  0  0
  5  7  1  0  0  0  0
  6  7  2  0  0  0  0
  6 12  1  0  0  0  0
  7  8  1  0  0  0  0
  8  9  1  0  0  0  0
  8 10  2  0  0  0  0
 10 11  1  0  0  0  0
 11 12  2  0  0  0  0
 15 23  1  0  0  0  0
 15 16  1  0  0  0  0
 16 19  1  0  0  0  0
 19 22  1  0  0  0  0
 22  2  1  1  0  0  0
 22 23  1  0  0  0  0
 23 24  1  6  0  0  0
 24 25  1  0  0  0  0
 25 26  1  0  0  0  0
M  CHG  2  13  -1  18  -1
M  END
>  <CHROM.1>
-4.28560422,-61.92825633,152.10315340,66.97914258,-114.90465611,150.64050432
-179.65399319,157.47047732,24.74692948,39.44211137,67.27020537,-2.93119671
-0.01751796,2.09471376

>  <Name>
ligand

>  <RI>
0

>  <Rbt.Current_Directory>
/home/itssahil/PROJECTS/Mol_Feturizer/New_Systems/rnas/2HOJ

>  <Rbt.Executable>
rbdock ($Id: //depot/dev/client3/rdock/2013.1/src/exe/rbdock.cxx#4 $)

>  <Rbt.Library>
libRbt.so (2013.1, Build901 2013/11/27)

>  <Rbt.Parameter_File>
/export/apps/rDock/src/rDock_2013.1_src/data/scripts/dock_solv.prm

>  <Rbt.Receptor>
prm/pocket_docking_2.prm

>  <SCORE>
-18.3869

>  <SCORE.INTER>
-22.7378

>  <SCORE.INTER.CONST>
1

>  <SCORE.INTER.POLAR>
-2.63096

>  <SCORE.INTER.ROT>
8

>  <SCORE.INTER.SOLV>
27.5631

>  <SCORE.INTER.VDW>
-24.5097

>  <SCORE.INTER.norm>
-0.874532

>  <SCORE.INTRA>
3.75348

>  <SCORE.INTRA.DIHEDRAL>
-1.20327

>  <SCORE.INTRA.DIHEDRAL.0>
11.6398

>  <SCORE.INTRA.POLAR>
0

>  <SCORE.INTRA.POLAR.0>
0

>  <SCORE.INTRA.REPUL>
0

>  <SCORE.INTRA.REPUL.0>
0

>  <SCORE.INTRA.SOLV>
6.25658

>  <SCORE.INTRA.SOLV.lig_0>
-81.722

>  <SCORE.INTRA.VDW>
1.22682

>  <SCORE.INTRA.VDW.0>
1.12598

>  <SCORE.INTRA.norm>
0.144365

>  <SCORE.RESTR>
0.597507

>  <SCORE.RESTR.CAVITY>
0.597507

>  <SCORE.RESTR.norm>
0.022981

>  <SCORE.SYSTEM>
0

>  <SCORE.SYSTEM.CONST>
0

>  <SCORE.SYSTEM.DIHEDRAL>
0

>  <SCORE.SYSTEM.SOLV>
0

>  <SCORE.SYSTEM.norm>
0

>  <SCORE.heavy>
26

>  <SCORE.norm>
-0.707187

>  <RMSD>
1.804

$$$$
ligand
 OpenBabel11021811433D
libRbt.so/2013.1/901 2013/11/27
 26 27  0  0  0  0  0  0  0  0999 V2000
   16.3453   39.5142   64.2156 C   0  0  0  0  0  0  0  0  0  0  0  0
   22.2775   39.3982   68.6907 C   0  0  0  0  0  0  0  0  0  0  0  0
   28.5116   38.3117   68.1761 P   0  0  1  0  0  0  0  0  0  0  0  0
   30.5410   39.3293   66.9379 P   0  0  1  0  0  0  0  0  0  0  0  0
   20.9294   41.2735   67.0983 C   0  0  0  0  0  0  0  0  0  0  0  0
   19.4033   39.4670   66.2500 C   0  0  0  0  0  0  0  0  0  0  0  0
   19.7158   40.8092   66.3349 C   0  0  0  0  0  0  0  0  0  0  0  0
   18.8787   41.7255   65.6958 C   0  0  0  0  0  0  0  0  0  0  0  0
   19.1492   43.0846   65.7506 N   0  0  0  0  0  0  0  0  0  0  0  0
   17.8205   41.2753   65.0282 N   0  0  0  0  0  0  0  0  0  0  0  0
   17.5568   39.9857   64.9768 C   0  0  0  0  0  0  0  0  0  0  0  0
   18.3275   39.0947   65.5694 N   0  0  0  0  0  0  0  0  0  0  0  0
   29.5336   37.2699   68.4246 O   0  5  0  0  0  0  0  0  0  0  0  0
   31.1908   38.0010   66.4908 O   0  0  0  0  0  0  0  0  0  0  0  0
   23.9396   39.9133   65.1815 S   0  0  0  0  0  0  0  0  0  0  0  0
   22.5363   40.9224   65.3546 C   0  0  0  0  0  0  0  0  0  0  0  0
   28.3977   39.2703   69.4629 O   0  0  0  0  0  0  0  0  0  0  0  0
   31.0029   40.5132   65.9504 O   0  5  0  0  0  0  0  0  0  0  0  0
   22.1241   40.6168   66.5631 N   0  0  0  0  0  0  0  0  0  0  0  0
   28.9376   39.1850   66.8918 O   0  0  0  0  0  0  0  0  0  0  0  0
   30.9860   39.6593   68.3805 O   0  0  0  0  0  0  0  0  0  0  0  0
   22.7627   39.7374   67.3038 C   0  0  2  0  0  0  0  0  0  0  0  0
   23.8650   39.1360   66.7884 C   0  0  2  0  0  0  0  0  0  0  0  0
   24.7743   38.1037   67.4018 C   0  0  0  0  0  0  0  0  0  0  0  0
   26.2078   38.6387   67.4353 C   0  0  0  0  0  0  0  0  0  0  0  0
   27.0877   37.6126   67.8990 O   0  0  0  0  0  0  0  0  0  0  0  0
  1 11  1  0  0  0  0
  3 13  1  1  0  0  0
  3 17  2  0  0  0  0
  3 20  1  0  0  0  0
  3 26  1  0  0  0  0
  4 14  1  6  0  0  0
  4 18  1  0  0  0  0
  4 21  2  0  0  0  0
  4 20  1  0  0  0  0
  5 19  1  0  0  0  0
  5  7  1  0  0  0  0
  6  7  2  0  0  0  0
  6 12  1  0  0  0  0
  7  8  1  0  0  0  0
  8  9  1  0  0  0  0
  8 10  2  0  0  0  0
 10 11  1  0  0  0  0
 11 12  2  0  0  0  0
 15 23  1  0  0  0  0
 15 16  1  0  0  0  0
 16 19  1  0  0  0  0
 19 22  1  0  0  0  0
 22  2  1  6  0  0  0
 22 23  1  0  0  0  0
 23 24  1  1  0  0  0
 24 25  1  0  0  0  0
 25 26  1  0  0  0  0
M  CHG  2  13  -1  18  -1
M  END
>  <CHROM.1>
-36.53942264,68.26516400,56.65963700,75.85112545,57.85545167,-174.54027908
-169.49342928,-169.89015762,24.68017852,39.57585820,66.75609209,2.91119291
-0.02469290,-0.73623922

>  <Name>
ligand

>  <RI>
0

>  <Rbt.Current_Directory>
/home/itssahil/PROJECTS/Mol_Feturizer/New_Systems/rnas/2HOJ

>  <Rbt.Executable>
rbdock ($Id: //depot/dev/client3/rdock/2013.1/src/exe/rbdock.cxx#4 $)

>  <Rbt.Library>
libRbt.so (2013.1, Build901 2013/11/27)

>  <Rbt.Parameter_File>
/export/apps/rDock/src/rDock_2013.1_src/data/scripts/dock_solv.prm

>  <Rbt.Receptor>
prm/pocket_docking_2.prm

>  <SCORE>
-26.7254

>  <SCORE.INTER>
-22.4018

>  <SCORE.INTER.CONST>
1

>  <SCORE.INTER.POLAR>
-2.89384

>  <SCORE.INTER.ROT>
8

>  <SCORE.INTER.SOLV>
31.1787

>  <SCORE.INTER.VDW>
-24.6147

>  <SCORE.INTER.norm>
-0.861609

>  <SCORE.INTRA>
-4.4368

>  <SCORE.INTRA.DIHEDRAL>
-4.48111

>  <SCORE.INTRA.DIHEDRAL.0>
11.6398

>  <SCORE.INTRA.POLAR>
0

>  <SCORE.INTRA.POLAR.0>
0

>  <SCORE.INTRA.REPUL>
0

>  <SCORE.INTRA.REPUL.0>
0

>  <SCORE.INTRA.SOLV>
1.17135

>  <SCORE.INTRA.SOLV.lig_0>
-81.722

>  <SCORE.INTRA.VDW>
-2.78192

>  <SCORE.INTRA.VDW.0>
1.12598

>  <SCORE.INTRA.norm>
-0.170646

>  <SCORE.RESTR>
0.113229

>  <SCORE.RESTR.CAVITY>
0.113229

>  <SCORE.RESTR.norm>
0.00435496

>  <SCORE.SYSTEM>
0

>  <SCORE.SYSTEM.CONST>
0

>  <SCORE.SYSTEM.DIHEDRAL>
0

>  <SCORE.SYSTEM.SOLV>
0

>  <SCORE.SYSTEM.norm>
0

>  <SCORE.heavy>
26

>  <SCORE.norm>
-1.0279

>  <RMSD>
1.809

$$$$
ligand
 OpenBabel11021811433D
libRbt.so/2013.1/901 2013/11/27
 26 27  0  0  0  0  0  0  0  0999 V2000
   15.9840   39.1029   64.1176 C   0  0  0  0  0  0  0  0  0  0  0  0
   22.7663   40.6891   68.6092 C   0  0  0  0  0  0  0  0  0  0  0  0
   28.0122   39.3664   68.7917 P   0  0  1  0  0  0  0  0  0  0  0  0
   30.1098   39.1009   67.3029 P   0  0  1  0  0  0  0  0  0  0  0  0
   20.6346   40.9851   66.8097 C   0  0  0  0  0  0  0  0  0  0  0  0
   18.9945   39.1754   66.2209 C   0  0  0  0  0  0  0  0  0  0  0  0
   19.4035   40.4882   66.0965 C   0  0  0  0  0  0  0  0  0  0  0  0
   18.6474   41.3439   65.2935 C   0  0  0  0  0  0  0  0  0  0  0  0
   19.0163   42.6715   65.1355 N   0  0  0  0  0  0  0  0  0  0  0  0
   17.5706   40.8656   64.6770 N   0  0  0  0  0  0  0  0  0  0  0  0
   17.2136   39.6067   64.8274 C   0  0  0  0  0  0  0  0  0  0  0  0
   17.9062   38.7729   65.5784 N   0  0  0  0  0  0  0  0  0  0  0  0
   27.7884   37.9035   68.8320 O   0  5  0  0  0  0  0  0  0  0  0  0
   29.5006   39.9432   66.1601 O   0  0  0  0  0  0  0  0  0  0  0  0
   23.3278   38.7832   65.2336 S   0  0  0  0  0  0  0  0  0  0  0  0
   21.7995   39.6089   65.2301 C   0  0  0  0  0  0  0  0  0  0  0  0
   27.3984   40.0405   70.1171 O   0  0  0  0  0  0  0  0  0  0  0  0
   31.7154   39.1917   67.2411 O   0  5  0  0  0  0  0  0  0  0  0  0
   21.7888   40.1745   66.4149 N   0  0  0  0  0  0  0  0  0  0  0  0
   29.5931   39.6650   68.7201 O   0  0  0  0  0  0  0  0  0  0  0  0
   29.6713   37.6275   67.1455 O   0  0  0  0  0  0  0  0  0  0  0  0
   22.7929   40.0319   67.2523 C   0  0  2  0  0  0  0  0  0  0  0  0
   23.8513   39.2728   66.8701 C   0  0  2  0  0  0  0  0  0  0  0  0
   25.1166   38.9394   67.6162 C   0  0  0  0  0  0  0  0  0  0  0  0
   25.9272   40.2168   67.8467 C   0  0  0  0  0  0  0  0  0  0  0  0
   27.2917   39.9849   67.4912 O   0  0  0  0  0  0  0  0  0  0  0  0
  1 11  1  0  0  0  0
  3 13  1  1  0  0  0
  3 17  2  0  0  0  0
  3 20  1  0  0  0  0
  3 26  1  0  0  0  0
  4 14  1  6  0  0  0
  4 18  1  0  0  0  0
  4 21  2  0  0  0  0
  4 20  1  0  0  0  0
  5 19  1  0  0  0  0
  5  7  1  0  0  0  0
  6  7  2  0  0  0  0
  6 12  1  0  0  0  0
  7  8  1  0  0  0  0
  8  9  1  0  0  0  0
  8 10  2  0  0  0  0
 10 11  1  0  0  0  0
 11 12  2  0  0  0  0
 15 23  1  0  0  0  0
 15 16  1  0  0  0  0
 16 19  1  0  0  0  0
 19 22  1  0  0  0  0
 22  2  1  1  0  0  0
 22 23  1  0  0  0  0
 23 24  1  6  0  0  0
 24 25  1  0  0  0  0
 25 26  1  0  0  0  0
M  CHG  2  13  -1  18  -1
M  END
>  <CHROM.1>
65.80847908,28.16354812,57.09197688,67.21662775,115.14628414,-132.76560173
-86.31479400,84.46244032,24.30529745,39.64424074,66.85873589,-2.97499287
-0.18777257,1.09774720

>  <Name>
ligand

>  <RI>
0

>  <Rbt.Current_Directory>
/home/itssahil/PROJECTS/Mol_Feturizer/New_Systems/rnas/2HOJ

>  <Rbt.Executable>
rbdock ($Id: //depot/dev/client3/rdock/2013.1/src/exe/rbdock.cxx#4 $)

>  <Rbt.Library>
libRbt.so (2013.1, Build901 2013/11/27)

>  <Rbt.Parameter_File>
/export/apps/rDock/src/rDock_2013.1_src/data/scripts/dock_solv.prm

>  <Rbt.Receptor>
prm/pocket_docking_2.prm

>  <SCORE>
-17.1393

>  <SCORE.INTER>
-17.5889

>  <SCORE.INTER.CONST>
1

>  <SCORE.INTER.POLAR>
-0.998422

>  <SCORE.INTER.ROT>
8

>  <SCORE.INTER.SOLV>
29.8096

>  <SCORE.INTER.VDW>
-27.2678

>  <SCORE.INTER.norm>
-0.676498

>  <SCORE.INTRA>
0.253042

>  <SCORE.INTRA.DIHEDRAL>
1.75207

>  <SCORE.INTRA.DIHEDRAL.0>
11.6398

>  <SCORE.INTRA.POLAR>
0

>  <SCORE.INTRA.POLAR.0>
0

>  <SCORE.INTRA.REPUL>
0

>  <SCORE.INTRA.REPUL.0>
0

>  <SCORE.INTRA.SOLV>
0.985795

>  <SCORE.INTRA.SOLV.lig_0>
-81.722

>  <SCORE.INTRA.VDW>
-1.11589

>  <SCORE.INTRA.VDW.0>
1.12598

>  <SCORE.INTRA.norm>
0.00973239

>  <SCORE.RESTR>
0.196586

>  <SCORE.RESTR.CAVITY>
0.196586

>  <SCORE.RESTR.norm>
0.007561

>  <SCORE.SYSTEM>
0

>  <SCORE.SYSTEM.CONST>
0

>  <SCORE.SYSTEM.DIHEDRAL>
0

>  <SCORE.SYSTEM.SOLV>
0

>  <SCORE.SYSTEM.norm>
0

>  <SCORE.heavy>
26

>  <SCORE.norm>
-0.659204

>  <RMSD>
1.810

$$$$
ligand
 OpenBabel11021811433D
libRbt.so/2013.1/901 2013/11/27
 26 27  0  0  0  0  0  0  0  0999 V2000
   16.1168   39.1274   64.6069 C   0  0  0  0  0  0  0  0  0  0  0  0
   23.4763   40.3800   65.2051 C   0  0  0  0  0  0  0  0  0  0  0  0
   28.2049   38.4317   69.0130 P   0  0  1  0  0  0  0  0  0  0  0  0
   30.2665   38.6493   67.4672 P   0  0  1  0  0  0  0  0  0  0  0  0
   21.0750   41.4111   66.2250 C   0  0  0  0  0  0  0  0  0  0  0  0
   18.6547   41.5988   65.5779 C   0  0  0  0  0  0  0  0  0  0  0  0
   19.7632   40.8053   65.7968 C   0  0  0  0  0  0  0  0  0  0  0  0
   19.6382   39.4274   65.6111 C   0  0  0  0  0  0  0  0  0  0  0  0
   20.7217   38.5870   65.8185 N   0  0  0  0  0  0  0  0  0  0  0  0
   18.4622   38.9314   65.2376 N   0  0  0  0  0  0  0  0  0  0  0  0
   17.4313   39.7258   65.0351 C   0  0  0  0  0  0  0  0  0  0  0  0
   17.5164   41.0311   65.2021 N   0  0  0  0  0  0  0  0  0  0  0  0
   27.7271   37.9315   70.3219 O   0  5  0  0  0  0  0  0  0  0  0  0
   29.1140   39.1944   66.5949 O   0  0  0  0  0  0  0  0  0  0  0  0
   22.5619   38.9440   68.7326 S   0  0  0  0  0  0  0  0  0  0  0  0
   21.3559   40.0718   68.1931 C   0  0  0  0  0  0  0  0  0  0  0  0
   28.3065   40.0366   69.0557 O   0  0  0  0  0  0  0  0  0  0  0  0
   31.1398   39.8769   68.0332 O   0  5  0  0  0  0  0  0  0  0  0  0
   21.8251   40.4388   67.0231 N   0  0  0  0  0  0  0  0  0  0  0  0
   29.6568   37.8098   68.6990 O   0  0  0  0  0  0  0  0  0  0  0  0
   31.1664   37.7282   66.6129 O   0  0  0  0  0  0  0  0  0  0  0  0
   22.9511   39.9496   66.5514 C   0  0  2  0  0  0  0  0  0  0  0  0
   23.6344   39.0533   67.3080 C   0  0  2  0  0  0  0  0  0  0  0  0
   24.9331   38.3451   67.0239 C   0  0  0  0  0  0  0  0  0  0  0  0
   25.9283   38.6279   68.1515 C   0  0  0  0  0  0  0  0  0  0  0  0
   27.1726   37.9891   67.8590 O   0  0  0  0  0  0  0  0  0  0  0  0
  1 11  1  0  0  0  0
  3 13  1  1  0  0  0
  3 17  2  0  0  0  0
  3 20  1  0  0  0  0
  3 26  1  0  0  0  0
  4 14  1  6  0  0  0
  4 18  1  0  0  0  0
  4 21  2  0  0  0  0
  4 20  1  0  0  0  0
  5 19  1  0  0  0  0
  5  7  1  0  0  0  0
  6  7  2  0  0  0  0
  6 12  1  0  0  0  0
  7  8  1  0  0  0  0
  8  9  1  0  0  0  0
  8 10  2  0  0  0  0
 10 11  1  0  0  0  0
 11 12  2  0  0  0  0
 15 23  1  0  0  0  0
 15 16  1  0  0  0  0
 16 19  1  0  0  0  0
 19 22  1  0  0  0  0
 22  2  1  1  0  0  0
 22 23  1  0  0  0  0
 23 24  1  6  0  0  0
 24 25  1  0  0  0  0
 25 26  1  0  0  0  0
M  CHG  2  13  -1  18  -1
M  END
>  <CHROM.1>
-166.64134569,-66.11425009,151.02595102,-28.22248271,-56.50759998,-178.21391403
175.15955825,63.17240655,24.45804910,39.25440660,67.19264138,-2.89049538
-0.06043458,1.86443715

>  <Name>
ligand

>  <RI>
0

>  <Rbt.Current_Directory>
/home/itssahil/PROJECTS/Mol_Feturizer/New_Systems/rnas/2HOJ

>  <Rbt.Executable>
rbdock ($Id: //depot/dev/client3/rdock/2013.1/src/exe/rbdock.cxx#4 $)

>  <Rbt.Library>
libRbt.so (2013.1, Build901 2013/11/27)

>  <Rbt.Parameter_File>
/export/apps/rDock/src/rDock_2013.1_src/data/scripts/dock_solv.prm

>  <Rbt.Receptor>
prm/pocket_docking_2.prm

>  <SCORE>
-23.7672

>  <SCORE.INTER>
-22.2508

>  <SCORE.INTER.CONST>
1

>  <SCORE.INTER.POLAR>
-2.15328

>  <SCORE.INTER.ROT>
8

>  <SCORE.INTER.SOLV>
26.7571

>  <SCORE.INTER.VDW>
-25.5086

>  <SCORE.INTER.norm>
-0.8558

>  <SCORE.INTRA>
-1.63814

>  <SCORE.INTRA.DIHEDRAL>
-4.74888

>  <SCORE.INTRA.DIHEDRAL.0>
11.6398

>  <SCORE.INTRA.POLAR>
0

>  <SCORE.INTRA.POLAR.0>
0

>  <SCORE.INTRA.REPUL>
0

>  <SCORE.INTRA.REPUL.0>
0

>  <SCORE.INTRA.SOLV>
5.03658

>  <SCORE.INTRA.SOLV.lig_0>
-81.722

>  <SCORE.INTRA.VDW>
-1.78199

>  <SCORE.INTRA.VDW.0>
1.12598

>  <SCORE.INTRA.norm>
-0.0630053

>  <SCORE.RESTR>
0.121749

>  <SCORE.RESTR.CAVITY>
0.121749

>  <SCORE.RESTR.norm>
0.00468267

>  <SCORE.SYSTEM>
0

>  <SCORE.SYSTEM.CONST>
0

>  <SCORE.SYSTEM.DIHEDRAL>
0

>  <SCORE.SYSTEM.SOLV>
0

>  <SCORE.SYSTEM.norm>
0

>  <SCORE.heavy>
26

>  <SCORE.norm>
-0.914122

>  <RMSD>
1.811

$$$$
ligand
 OpenBabel11021811433D
libRbt.so/2013.1/901 2013/11/27
 26 27  0  0  0  0  0  0  0  0999 V2000
   16.1562   39.0456   64.5361 C   0  0  0  0  0  0  0  0  0  0  0  0
   23.3675   40.9348   65.1300 C   0  0  0  0  0  0  0  0  0  0  0  0
   27.5748   39.5674   68.3373 P   0  0  1  0  0  0  0  0  0  0  0  0
   29.9822   38.8223   67.7575 P   0  0  1  0  0  0  0  0  0  0  0  0
   20.9106   41.6468   66.2818 C   0  0  0  0  0  0  0  0  0  0  0  0
   18.5101   41.6800   65.5415 C   0  0  0  0  0  0  0  0  0  0  0  0
   19.6529   40.9569   65.8198 C   0  0  0  0  0  0  0  0  0  0  0  0
   19.6138   39.5705   65.6622 C   0  0  0  0  0  0  0  0  0  0  0  0
   20.7348   38.7989   65.9293 N   0  0  0  0  0  0  0  0  0  0  0  0
   18.4832   38.9993   65.2574 N   0  0  0  0  0  0  0  0  0  0  0  0
   17.4171   39.7282   64.9983 C   0  0  0  0  0  0  0  0  0  0  0  0
   17.4212   41.0395   65.1374 N   0  0  0  0  0  0  0  0  0  0  0  0
   27.1672   38.2471   68.8686 O   0  5  0  0  0  0  0  0  0  0  0  0
   29.0980   37.6256   67.3422 O   0  0  0  0  0  0  0  0  0  0  0  0
   22.6851   39.1266   68.5368 S   0  0  0  0  0  0  0  0  0  0  0  0
   21.3666   40.1781   68.1206 C   0  0  0  0  0  0  0  0  0  0  0  0
   26.6762   40.7187   69.0117 O   0  0  0  0  0  0  0  0  0  0  0  0
   30.4882   39.5993   66.4420 O   0  5  0  0  0  0  0  0  0  0  0  0
   21.7681   40.6850   66.9779 N   0  0  0  0  0  0  0  0  0  0  0  0
   29.1267   39.8274   68.6803 O   0  0  0  0  0  0  0  0  0  0  0  0
   31.2031   38.3077   68.5528 O   0  0  0  0  0  0  0  0  0  0  0  0
   22.9209   40.3449   66.4439 C   0  0  2  0  0  0  0  0  0  0  0  0
   23.7038   39.4558   67.1065 C   0  0  2  0  0  0  0  0  0  0  0  0
   25.0536   38.8987   66.7370 C   0  0  0  0  0  0  0  0  0  0  0  0
   26.0360   40.0487   66.5033 C   0  0  0  0  0  0  0  0  0  0  0  0
   27.3688   39.5913   66.7404 O   0  0  0  0  0  0  0  0  0  0  0  0
  1 11  1  0  0  0  0
  3 13  1  1  0  0  0
  3 17  2  0  0  0  0
  3 20  1  0  0  0  0
  3 26  1  0  0  0  0
  4 14  1  6  0  0  0
  4 18  1  0  0  0  0
  4 21  2  0  0  0  0
  4 20  1  0  0  0  0
  5 19  1  0  0  0  0
  5  7  1  0  0  0  0
  6  7  2  0  0  0  0
  6 12  1  0  0  0  0
  7  8  1  0  0  0  0
  8  9  1  0  0  0  0
  8 10  2  0  0  0  0
 10 11  1  0  0  0  0
 11 12  2  0  0  0  0
 15 23  1  0  0  0  0
 15 16  1  0  0  0  0
 16 19  1  0  0  0  0
 19 22  1  0  0  0  0
 22  2  1  1  0  0  0
 22 23  1  0  0  0  0
 23 24  1  6  0  0  0
 24 25  1  0  0  0  0
 25 26  1  0  0  0  0
M  CHG  2  13  -1  18  -1
M  END
>  <CHROM.1>
70.52574009,-66.50028316,158.55184148,-23.08138934,-124.71938778,154.51251422
-78.72388824,89.48410361,24.26777859,39.63932358,67.01176518,-2.90845579
-0.05105051,1.79767956

>  <Name>
ligand

>  <RI>
0

>  <Rbt.Current_Directory>
/home/itssahil/PROJECTS/Mol_Feturizer/New_Systems/rnas/2HOJ

>  <Rbt.Executable>
rbdock ($Id: //depot/dev/client3/rdock/2013.1/src/exe/rbdock.cxx#4 $)

>  <Rbt.Library>
libRbt.so (2013.1, Build901 2013/11/27)

>  <Rbt.Parameter_File>
/export/apps/rDock/src/rDock_2013.1_src/data/scripts/dock_solv.prm

>  <Rbt.Receptor>
prm/pocket_docking_2.prm

>  <SCORE>
-20.7687

>  <SCORE.INTER>
-25.3828

>  <SCORE.INTER.CONST>
1

>  <SCORE.INTER.POLAR>
-2.43733

>  <SCORE.INTER.ROT>
8

>  <SCORE.INTER.SOLV>
22.0987

>  <SCORE.INTER.VDW>
-25.097

>  <SCORE.INTER.norm>
-0.97626

>  <SCORE.INTRA>
4.35178

>  <SCORE.INTRA.DIHEDRAL>
-0.394927

>  <SCORE.INTRA.DIHEDRAL.0>
11.6398

>  <SCORE.INTRA.POLAR>
0

>  <SCORE.INTRA.POLAR.0>
0

>  <SCORE.INTRA.REPUL>
0

>  <SCORE.INTRA.REPUL.0>
0

>  <SCORE.INTRA.SOLV>
6.12579

>  <SCORE.INTRA.SOLV.lig_0>
-81.722

>  <SCORE.INTRA.VDW>
1.48635

>  <SCORE.INTRA.VDW.0>
1.12598

>  <SCORE.INTRA.norm>
0.167376

>  <SCORE.RESTR>
0.262242

>  <SCORE.RESTR.CAVITY>
0.262242

>  <SCORE.RESTR.norm>
0.0100862

>  <SCORE.SYSTEM>
0

>  <SCORE.SYSTEM.CONST>
0

>  <SCORE.SYSTEM.DIHEDRAL>
0

>  <SCORE.SYSTEM.SOLV>
0

>  <SCORE.SYSTEM.norm>
0

>  <SCORE.heavy>
26

>  <SCORE.norm>
-0.798798

>  <RMSD>
1.819

$$$$
ligand
 OpenBabel11021811433D
libRbt.so/2013.1/901 2013/11/27
 26 27  0  0  0  0  0  0  0  0999 V2000
   17.1295   39.7986   64.9201 C   0  0  0  0  0  0  0  0  0  0  0  0
   23.1808   38.9368   68.1733 C   0  0  0  0  0  0  0  0  0  0  0  0
   28.7574   38.6787   68.3278 P   0  0  1  0  0  0  0  0  0  0  0  0
   31.0766   39.1620   67.2912 P   0  0  1  0  0  0  0  0  0  0  0  0
   22.0542   41.3582   67.3147 C   0  0  0  0  0  0  0  0  0  0  0  0
   20.3401   39.6286   66.6965 C   0  0  0  0  0  0  0  0  0  0  0  0
   20.7505   40.9468   66.6804 C   0  0  0  0  0  0  0  0  0  0  0  0
   19.9269   41.8890   66.0619 C   0  0  0  0  0  0  0  0  0  0  0  0
   20.2941   43.2257   66.0183 N   0  0  0  0  0  0  0  0  0  0  0  0
   18.7868   41.4849   65.5094 N   0  0  0  0  0  0  0  0  0  0  0  0
   18.4314   40.2173   65.5520 C   0  0  0  0  0  0  0  0  0  0  0  0
   19.1868   39.3027   66.1282 N   0  0  0  0  0  0  0  0  0  0  0  0
   29.4485   37.3737   68.4317 O   0  5  0  0  0  0  0  0  0  0  0  0
   32.0847   40.2547   66.8718 O   0  0  0  0  0  0  0  0  0  0  0  0
   24.8963   40.3769   64.9600 S   0  0  0  0  0  0  0  0  0  0  0  0
   23.6147   41.4197   65.4962 C   0  0  0  0  0  0  0  0  0  0  0  0
   27.9642   38.9770   69.6952 O   0  0  0  0  0  0  0  0  0  0  0  0
   31.8048   38.1004   68.2570 O   0  5  0  0  0  0  0  0  0  0  0  0
   23.1687   40.7861   66.5561 N   0  0  0  0  0  0  0  0  0  0  0  0
   29.8423   39.8410   68.0717 O   0  0  0  0  0  0  0  0  0  0  0  0
   30.5515   38.4363   66.0319 O   0  0  0  0  0  0  0  0  0  0  0  0
   23.7034   39.6518   66.9529 C   0  0  2  0  0  0  0  0  0  0  0  0
   24.7323   39.1350   66.2339 C   0  0  2  0  0  0  0  0  0  0  0  0
   25.5191   37.8693   66.4517 C   0  0  0  0  0  0  0  0  0  0  0  0
   26.5056   38.0711   67.6042 C   0  0  0  0  0  0  0  0  0  0  0  0
   27.7160   38.6393   67.1002 O   0  0  0  0  0  0  0  0  0  0  0  0
  1 11  1  0  0  0  0
  3 13  1  1  0  0  0
  3 17  2  0  0  0  0
  3 20  1  0  0  0  0
  3 26  1  0  0  0  0
  4 14  1  6  0  0  0
  4 18  1  0  0  0  0
  4 21  2  0  0  0  0
  4 20  1  0  0  0  0
  5 19  1  0  0  0  0
  5  7  1  0  0  0  0
  6  7  2  0  0  0  0
  6 12  1  0  0  0  0
  7  8  1  0  0  0  0
  8  9  1  0  0  0  0
  8 10  2  0  0  0  0
 10 11  1  0  0  0  0
 11 12  2  0  0  0  0
 15 23  1  0  0  0  0
 15 16  1  0  0  0  0
 16 19  1  0  0  0  0
 19 22  1  0  0  0  0
 22  2  1  6  0  0  0
 22 23  1  0  0  0  0
 23 24  1  1  0  0  0
 24 25  1  0  0  0  0
 25 26  1  0  0  0  0
M  CHG  2  13  -1  18  -1
M  END
>  <CHROM.1>
28.71766902,84.62232764,67.33629774,173.63780118,103.73803528,-86.50924279
-174.13241985,85.15710355,25.36094924,39.65612972,66.87240672,2.90034603
-0.02363668,-0.64428978

>  <Name>
ligand

>  <RI>
0

>  <Rbt.Current_Directory>
/home/itssahil/PROJECTS/Mol_Feturizer/New_Systems/rnas/2HOJ

>  <Rbt.Executable>
rbdock ($Id: //depot/dev/client3/rdock/2013.1/src/exe/rbdock.cxx#4 $)

>  <Rbt.Library>
libRbt.so (2013.1, Build901 2013/11/27)

>  <Rbt.Parameter_File>
/export/apps/rDock/src/rDock_2013.1_src/data/scripts/dock_solv.prm

>  <Rbt.Receptor>
prm/pocket_docking_2.prm

>  <SCORE>
-27.5273

>  <SCORE.INTER>
-25.9679

>  <SCORE.INTER.CONST>
1

>  <SCORE.INTER.POLAR>
-3.90909

>  <SCORE.INTER.ROT>
8

>  <SCORE.INTER.SOLV>
29.9664

>  <SCORE.INTER.VDW>
-23.2038

>  <SCORE.INTER.norm>
-0.998765

>  <SCORE.INTRA>
-1.60648

>  <SCORE.INTRA.DIHEDRAL>
-2.31374

>  <SCORE.INTRA.DIHEDRAL.0>
11.6398

>  <SCORE.INTRA.POLAR>
0

>  <SCORE.INTRA.POLAR.0>
0

>  <SCORE.INTRA.REPUL>
0

>  <SCORE.INTRA.REPUL.0>
0

>  <SCORE.INTRA.SOLV>
2.73398

>  <SCORE.INTRA.SOLV.lig_0>
-81.722

>  <SCORE.INTRA.VDW>
-1.8166

>  <SCORE.INTRA.VDW.0>
1.12598

>  <SCORE.INTRA.norm>
-0.0617876

>  <SCORE.RESTR>
0.047014

>  <SCORE.RESTR.CAVITY>
0.047014

>  <SCORE.RESTR.norm>
0.00180823

>  <SCORE.SYSTEM>
0

>  <SCORE.SYSTEM.CONST>
0

>  <SCORE.SYSTEM.DIHEDRAL>
0

>  <SCORE.SYSTEM.SOLV>
0

>  <SCORE.SYSTEM.norm>
0

>  <SCORE.heavy>
26

>  <SCORE.norm>
-1.05874

>  <RMSD>
1.835

$$$$
ligand
 OpenBabel11021811433D
libRbt.so/2013.1/901 2013/11/27
 26 27  0  0  0  0  0  0  0  0999 V2000
   15.7872   39.3529   64.0320 C   0  0  0  0  0  0  0  0  0  0  0  0
   22.9266   42.1065   65.8437 C   0  0  0  0  0  0  0  0  0  0  0  0
   27.4014   38.6039   67.2773 P   0  0  1  0  0  0  0  0  0  0  0  0
   29.9497   38.7757   67.6821 P   0  0  1  0  0  0  0  0  0  0  0  0
   20.6232   40.7493   66.6932 C   0  0  0  0  0  0  0  0  0  0  0  0
   18.8428   39.0959   66.0543 C   0  0  0  0  0  0  0  0  0  0  0  0
   19.3431   40.3811   65.9882 C   0  0  0  0  0  0  0  0  0  0  0  0
   18.6328   41.3309   65.2521 C   0  0  0  0  0  0  0  0  0  0  0  0
   19.0934   42.6355   65.1544 N   0  0  0  0  0  0  0  0  0  0  0  0
   17.5101   40.9649   64.6406 N   0  0  0  0  0  0  0  0  0  0  0  0
   17.0661   39.7283   64.7340 C   0  0  0  0  0  0  0  0  0  0  0  0
   17.7136   38.8076   65.4211 N   0  0  0  0  0  0  0  0  0  0  0  0
   27.2759   37.1855   66.8724 O   0  5  0  0  0  0  0  0  0  0  0  0
   29.8459   37.2620   67.9718 O   0  0  0  0  0  0  0  0  0  0  0  0
   23.1446   38.2309   65.3201 S   0  0  0  0  0  0  0  0  0  0  0  0
   21.6215   38.6740   66.0279 C   0  0  0  0  0  0  0  0  0  0  0  0
   27.4263   38.7043   68.8826 O   0  0  0  0  0  0  0  0  0  0  0  0
   31.3742   39.0977   67.0059 O   0  5  0  0  0  0  0  0  0  0  0  0
   21.7322   39.9785   66.1267 N   0  0  0  0  0  0  0  0  0  0  0  0
   28.7673   39.2130   66.6798 O   0  0  0  0  0  0  0  0  0  0  0  0
   29.8187   39.5626   69.0056 O   0  0  0  0  0  0  0  0  0  0  0  0
   22.8152   40.6075   65.7249 C   0  0  2  0  0  0  0  0  0  0  0  0
   23.8342   39.8753   65.2072 C   0  0  2  0  0  0  0  0  0  0  0  0
   25.1720   40.3243   64.6806 C   0  0  0  0  0  0  0  0  0  0  0  0
   26.2779   39.4546   65.2829 C   0  0  0  0  0  0  0  0  0  0  0  0
   26.1486   39.4389   66.7060 O   0  0  0  0  0  0  0  0  0  0  0  0
  1 11  1  0  0  0  0
  3 13  1  6  0  0  0
  3 17  2  0  0  0  0
  3 20  1  0  0  0  0
  3 26  1  0  0  0  0
  4 14  1  1  0  0  0
  4 18  1  0  0  0  0
  4 21  2  0  0  0  0
  4 20  1  0  0  0  0
  5 19  1  0  0  0  0
  5  7  1  0  0  0  0
  6  7  2  0  0  0  0
  6 12  1  0  0  0  0
  7  8  1  0  0  0  0
  8  9  1  0  0  0  0
  8 10  2  0  0  0  0
 10 11  1  0  0  0  0
 11 12  2  0  0  0  0
 15 23  1  0  0  0  0
 15 16  1  0  0  0  0
 16 19  1  0  0  0  0
 19 22  1  0  0  0  0
 22  2  1  1  0  0  0
 22 23  1  0  0  0  0
 23 24  1  6  0  0  0
 24 25  1  0  0  0  0
 25 26  1  0  0  0  0
M  CHG  2  13  -1  18  -1
M  END
>  <CHROM.1>
-82.11048463,-51.46879708,62.94241930,48.87523961,-48.19625959,-52.31549251
-175.78458038,-67.14616575,24.13453149,39.44683600,66.29569558,2.98637302
-0.20686576,-0.08132426

>  <Name>
ligand

>  <RI>
0

>  <Rbt.Current_Directory>
/home/itssahil/PROJECTS/Mol_Feturizer/New_Systems/rnas/2HOJ

>  <Rbt.Executable>
rbdock ($Id: //depot/dev/client3/rdock/2013.1/src/exe/rbdock.cxx#4 $)

>  <Rbt.Library>
libRbt.so (2013.1, Build901 2013/11/27)

>  <Rbt.Parameter_File>
/export/apps/rDock/src/rDock_2013.1_src/data/scripts/dock_solv.prm

>  <Rbt.Receptor>
prm/pocket_docking_5.prm

>  <SCORE>
-28.5695

>  <SCORE.INTER>
-24.1904

>  <SCORE.INTER.CONST>
1

>  <SCORE.INTER.POLAR>
-2.63963

>  <SCORE.INTER.ROT>
8

>  <SCORE.INTER.SOLV>
28.3148

>  <SCORE.INTER.VDW>
-25.6998

>  <SCORE.INTER.norm>
-0.930402

>  <SCORE.INTRA>
-4.37905

>  <SCORE.INTRA.DIHEDRAL>
-5.23493

>  <SCORE.INTRA.DIHEDRAL.0>
11.6398

>  <SCORE.INTRA.POLAR>
0

>  <SCORE.INTRA.POLAR.0>
0

>  <SCORE.INTRA.REPUL>
0

>  <SCORE.INTRA.REPUL.0>
0

>  <SCORE.INTRA.SOLV>
1.46756

>  <SCORE.INTRA.SOLV.lig_0>
-81.722

>  <SCORE.INTRA.VDW>
-2.49537

>  <SCORE.INTRA.VDW.0>
1.12598

>  <SCORE.INTRA.norm>
-0.168425

>  <SCORE.RESTR>
0

>  <SCORE.RESTR.CAVITY>
0

>  <SCORE.RESTR.norm>
0

>  <SCORE.SYSTEM>
0

>  <SCORE.SYSTEM.CONST>
0

>  <SCORE.SYSTEM.DIHEDRAL>
0

>  <SCORE.SYSTEM.SOLV>
0

>  <SCORE.SYSTEM.norm>
0

>  <SCORE.heavy>
26

>  <SCORE.norm>
-1.09883

>  <RMSD>
1.836

$$$$
ligand
 OpenBabel11021811433D
libRbt.so/2013.1/901 2013/11/27
 26 27  0  0  0  0  0  0  0  0999 V2000
   15.7283   39.4098   63.8825 C   0  0  0  0  0  0  0  0  0  0  0  0
   23.0195   41.3065   67.5225 C   0  0  0  0  0  0  0  0  0  0  0  0
   27.9120   39.1510   68.5842 P   0  0  1  0  0  0  0  0  0  0  0  0
   30.2500   39.0479   67.4842 P   0  0  1  0  0  0  0  0  0  0  0  0
   20.4467   40.3623   66.9235 C   0  0  0  0  0  0  0  0  0  0  0  0
   18.5324   38.9047   66.2006 C   0  0  0  0  0  0  0  0  0  0  0  0
   19.1980   40.1115   66.1179 C   0  0  0  0  0  0  0  0  0  0  0  0
   18.6845   41.0938   65.2693 C   0  0  0  0  0  0  0  0  0  0  0  0
   19.3162   42.3228   65.1503 N   0  0  0  0  0  0  0  0  0  0  0  0
   17.5832   40.8317   64.5717 N   0  0  0  0  0  0  0  0  0  0  0  0
   16.9771   39.6677   64.6846 C   0  0  0  0  0  0  0  0  0  0  0  0
   17.4365   38.7189   65.4769 N   0  0  0  0  0  0  0  0  0  0  0  0
   27.9967   37.7599   69.0834 O   0  5  0  0  0  0  0  0  0  0  0  0
   29.5936   39.2351   66.0985 O   0  0  0  0  0  0  0  0  0  0  0  0
   23.0155   38.4491   64.8434 S   0  0  0  0  0  0  0  0  0  0  0  0
   21.3978   38.8125   65.3615 C   0  0  0  0  0  0  0  0  0  0  0  0
   26.9270   40.0020   69.5293 O   0  0  0  0  0  0  0  0  0  0  0  0
   31.7421   39.6506   67.4585 O   0  5  0  0  0  0  0  0  0  0  0  0
   21.5973   39.7686   66.2389 N   0  0  0  0  0  0  0  0  0  0  0  0
   29.3786   39.8163   68.5995 O   0  0  0  0  0  0  0  0  0  0  0  0
   30.3092   37.5420   67.8258 O   0  0  0  0  0  0  0  0  0  0  0  0
   22.8068   40.2066   66.5131 C   0  0  2  0  0  0  0  0  0  0  0  0
   23.8608   39.6405   65.8720 C   0  0  2  0  0  0  0  0  0  0  0  0
   25.3328   39.9368   65.9915 C   0  0  0  0  0  0  0  0  0  0  0  0
   25.9164   39.1644   67.1767 C   0  0  0  0  0  0  0  0  0  0  0  0
   27.3419   39.1480   67.0781 O   0  0  0  0  0  0  0  0  0  0  0  0
  1 11  1  0  0  0  0
  3 13  1  1  0  0  0
  3 17  2  0  0  0  0
  3 20  1  0  0  0  0
  3 26  1  0  0  0  0
  4 14  1  6  0  0  0
  4 18  1  0  0  0  0
  4 21  2  0  0  0  0
  4 20  1  0  0  0  0
  5 19  1  0  0  0  0
  5  7  1  0  0  0  0
  6  7  2  0  0  0  0
  6 12  1  0  0  0  0
  7  8  1  0  0  0  0
  8  9  1  0  0  0  0
  8 10  2  0  0  0  0
 10 11  1  0  0  0  0
 11 12  2  0  0  0  0
 15 23  1  0  0  0  0
 15 16  1  0  0  0  0
 16 19  1  0  0  0  0
 19 22  1  0  0  0  0
 22  2  1  1  0  0  0
 22 23  1  0  0  0  0
 23 24  1  6  0  0  0
 24 25  1  0  0  0  0
 25 26  1  0  0  0  0
M  CHG  2  13  -1  18  -1
M  END
>  <CHROM.1>
67.73821620,-21.17029414,81.56360491,60.68495357,-95.99822138,164.36576505
147.59962878,86.71180093,24.25001443,39.50371986,66.64174722,-3.00190721
-0.21118121,0.92752781

>  <Name>
ligand

>  <RI>
0

>  <Rbt.Current_Directory>
/home/itssahil/PROJECTS/Mol_Feturizer/New_Systems/rnas/2HOJ

>  <Rbt.Executable>
rbdock ($Id: //depot/dev/client3/rdock/2013.1/src/exe/rbdock.cxx#4 $)

>  <Rbt.Library>
libRbt.so (2013.1, Build901 2013/11/27)

>  <Rbt.Parameter_File>
/export/apps/rDock/src/rDock_2013.1_src/data/scripts/dock_solv.prm

>  <Rbt.Receptor>
prm/pocket_docking_3.prm

>  <SCORE>
-23.1729

>  <SCORE.INTER>
-21.5398

>  <SCORE.INTER.CONST>
1

>  <SCORE.INTER.POLAR>
-2.73633

>  <SCORE.INTER.ROT>
8

>  <SCORE.INTER.SOLV>
30.1362

>  <SCORE.INTER.VDW>
-24.2175

>  <SCORE.INTER.norm>
-0.828452

>  <SCORE.INTRA>
-1.72077

>  <SCORE.INTRA.DIHEDRAL>
-0.839547

>  <SCORE.INTRA.DIHEDRAL.0>
11.6398

>  <SCORE.INTRA.POLAR>
0

>  <SCORE.INTRA.POLAR.0>
0

>  <SCORE.INTRA.REPUL>
0

>  <SCORE.INTRA.REPUL.0>
0

>  <SCORE.INTRA.SOLV>
0.45727

>  <SCORE.INTRA.SOLV.lig_0>
-81.722

>  <SCORE.INTRA.VDW>
-1.52963

>  <SCORE.INTRA.VDW.0>
1.12598

>  <SCORE.INTRA.norm>
-0.0661834

>  <SCORE.RESTR>
0.0876388

>  <SCORE.RESTR.CAVITY>
0.0876388

>  <SCORE.RESTR.norm>
0.00337072

>  <SCORE.SYSTEM>
0

>  <SCORE.SYSTEM.CONST>
0

>  <SCORE.SYSTEM.DIHEDRAL>
0

>  <SCORE.SYSTEM.SOLV>
0

>  <SCORE.SYSTEM.norm>
0

>  <SCORE.heavy>
26

>  <SCORE.norm>
-0.891265

>  <RMSD>
1.838

$$$$
ligand
 OpenBabel11021811433D
libRbt.so/2013.1/901 2013/11/27
 26 27  0  0  0  0  0  0  0  0999 V2000
   16.3199   39.3420   64.4745 C   0  0  0  0  0  0  0  0  0  0  0  0
   23.6029   39.9859   65.6745 C   0  0  0  0  0  0  0  0  0  0  0  0
   27.4719   40.5222   67.7603 P   0  0  1  0  0  0  0  0  0  0  0  0
   29.4346   38.8892   67.3505 P   0  0  1  0  0  0  0  0  0  0  0  0
   21.2611   41.2485   66.5643 C   0  0  0  0  0  0  0  0  0  0  0  0
   18.8608   41.5787   65.9003 C   0  0  0  0  0  0  0  0  0  0  0  0
   19.9538   40.7425   66.0110 C   0  0  0  0  0  0  0  0  0  0  0  0
   19.8174   39.4164   65.5970 C   0  0  0  0  0  0  0  0  0  0  0  0
   20.8853   38.5362   65.6881 N   0  0  0  0  0  0  0  0  0  0  0  0
   18.6458   39.0074   65.1192 N   0  0  0  0  0  0  0  0  0  0  0  0
   17.6298   39.8407   65.0266 C   0  0  0  0  0  0  0  0  0  0  0  0
   17.7259   41.0990   65.4091 N   0  0  0  0  0  0  0  0  0  0  0  0
   28.3376   40.9624   68.8776 O   0  5  0  0  0  0  0  0  0  0  0  0
   28.6964   38.0279   68.3992 O   0  0  0  0  0  0  0  0  0  0  0  0
   22.3687   38.6644   69.1491 S   0  0  0  0  0  0  0  0  0  0  0  0
   21.3070   39.8997   68.5453 C   0  0  0  0  0  0  0  0  0  0  0  0
   26.6875   41.7903   67.1566 O   0  0  0  0  0  0  0  0  0  0  0  0
   30.1391   37.9305   66.2667 O   0  5  0  0  0  0  0  0  0  0  0  0
   21.8708   40.2132   67.4018 N   0  0  0  0  0  0  0  0  0  0  0  0
   28.3797   39.8547   66.6097 O   0  0  0  0  0  0  0  0  0  0  0  0
   30.5098   39.7470   68.0548 O   0  0  0  0  0  0  0  0  0  0  0  0
   22.9681   39.6155   66.9912 C   0  0  2  0  0  0  0  0  0  0  0  0
   23.5209   38.6622   67.7836 C   0  0  2  0  0  0  0  0  0  0  0  0
   24.7587   37.8310   67.5697 C   0  0  0  0  0  0  0  0  0  0  0  0
   25.9192   38.7377   67.1536 C   0  0  0  0  0  0  0  0  0  0  0  0
   26.4087   39.4391   68.2984 O   0  0  0  0  0  0  0  0  0  0  0  0
  1 11  1  0  0  0  0
  3 13  1  1  0  0  0
  3 17  2  0  0  0  0
  3 20  1  0  0  0  0
  3 26  1  0  0  0  0
  4 14  1  1  0  0  0
  4 18  1  0  0  0  0
  4 21  2  0  0  0  0
  4 20  1  0  0  0  0
  5 19  1  0  0  0  0
  5  7  1  0  0  0  0
  6  7  2  0  0  0  0
  6 12  1  0  0  0  0
  7  8  1  0  0  0  0
  8  9  1  0  0  0  0
  8 10  2  0  0  0  0
 10 11  1  0  0  0  0
 11 12  2  0  0  0  0
 15 23  1  0  0  0  0
 15 16  1  0  0  0  0
 16 19  1  0  0  0  0
 19 22  1  0  0  0  0
 22  2  1  1  0  0  0
 22 23  1  0  0  0  0
 23 24  1  6  0  0  0
 24 25  1  0  0  0  0
 25 26  1  0  0  0  0
M  CHG  2  13  -1  18  -1
M  END
>  <CHROM.1>
44.10937225,-68.92603026,141.39358867,46.63987966,-131.69824573,76.02843954
-171.95687248,-161.23471145,24.18149767,39.62535003,67.05952459,-2.99654094
0.12197864,2.55214330

>  <Name>
ligand

>  <RI>
0

>  <Rbt.Current_Directory>
/home/itssahil/PROJECTS/Mol_Feturizer/New_Systems/rnas/2HOJ

>  <Rbt.Executable>
rbdock ($Id: //depot/dev/client3/rdock/2013.1/src/exe/rbdock.cxx#4 $)

>  <Rbt.Library>
libRbt.so (2013.1, Build901 2013/11/27)

>  <Rbt.Parameter_File>
/export/apps/rDock/src/rDock_2013.1_src/data/scripts/dock_solv.prm

>  <Rbt.Receptor>
prm/pocket_docking_5.prm

>  <SCORE>
-25.3687

>  <SCORE.INTER>
-24.2515

>  <SCORE.INTER.CONST>
1

>  <SCORE.INTER.POLAR>
-2.58066

>  <SCORE.INTER.ROT>
8

>  <SCORE.INTER.SOLV>
20.7751

>  <SCORE.INTER.VDW>
-23.4239

>  <SCORE.INTER.norm>
-0.932751

>  <SCORE.INTRA>
-1.11713

>  <SCORE.INTRA.DIHEDRAL>
-4.60274

>  <SCORE.INTRA.DIHEDRAL.0>
11.6398

>  <SCORE.INTRA.POLAR>
0

>  <SCORE.INTRA.POLAR.0>
0

>  <SCORE.INTRA.REPUL>
0

>  <SCORE.INTRA.REPUL.0>
0

>  <SCORE.INTRA.SOLV>
5.51241

>  <SCORE.INTRA.SOLV.lig_0>
-81.722

>  <SCORE.INTRA.VDW>
-1.57197

>  <SCORE.INTRA.VDW.0>
1.12598

>  <SCORE.INTRA.norm>
-0.0429667

>  <SCORE.RESTR>
0

>  <SCORE.RESTR.CAVITY>
0

>  <SCORE.RESTR.norm>
0

>  <SCORE.SYSTEM>
0

>  <SCORE.SYSTEM.CONST>
0

>  <SCORE.SYSTEM.DIHEDRAL>
0

>  <SCORE.SYSTEM.SOLV>
0

>  <SCORE.SYSTEM.norm>
0

>  <SCORE.heavy>
26

>  <SCORE.norm>
-0.975718

>  <RMSD>
1.864

$$$$
ligand
 OpenBabel11021811433D
libRbt.so/2013.1/901 2013/11/27
 26 27  0  0  0  0  0  0  0  0999 V2000
   16.6025   40.1200   64.5011 C   0  0  0  0  0  0  0  0  0  0  0  0
   22.5400   38.4050   67.3248 C   0  0  0  0  0  0  0  0  0  0  0  0
   27.9320   38.0573   67.6631 P   0  0  1  0  0  0  0  0  0  0  0  0
   30.3768   38.8463   67.3679 P   0  0  1  0  0  0  0  0  0  0  0  0
   21.5422   41.0231   67.1849 C   0  0  0  0  0  0  0  0  0  0  0  0
   19.6528   39.5334   66.4616 C   0  0  0  0  0  0  0  0  0  0  0  0
   20.2347   40.7855   66.4740 C   0  0  0  0  0  0  0  0  0  0  0  0
   19.5809   41.8259   65.8117 C   0  0  0  0  0  0  0  0  0  0  0  0
   20.1242   43.1018   65.7943 N   0  0  0  0  0  0  0  0  0  0  0  0
   18.4315   41.5742   65.1921 N   0  0  0  0  0  0  0  0  0  0  0  0
   17.9093   40.3651   65.2094 C   0  0  0  0  0  0  0  0  0  0  0  0
   18.5017   39.3609   65.8256 N   0  0  0  0  0  0  0  0  0  0  0  0
   28.2948   36.6289   67.5220 O   0  5  0  0  0  0  0  0  0  0  0  0
   30.7820   37.3605   67.4888 O   0  0  0  0  0  0  0  0  0  0  0  0
   24.4028   40.6215   64.6868 S   0  0  0  0  0  0  0  0  0  0  0  0
   23.1529   41.5278   65.4829 C   0  0  0  0  0  0  0  0  0  0  0  0
   28.0988   38.5047   69.1993 O   0  0  0  0  0  0  0  0  0  0  0  0
   31.4239   39.6138   66.4167 O   0  5  0  0  0  0  0  0  0  0  0  0
   22.6514   40.6391   66.3091 N   0  0  0  0  0  0  0  0  0  0  0  0
   28.8993   38.9503   66.7355 O   0  0  0  0  0  0  0  0  0  0  0  0
   30.3827   39.4964   68.7698 O   0  0  0  0  0  0  0  0  0  0  0  0
   23.1259   39.4139   66.3695 C   0  0  2  0  0  0  0  0  0  0  0  0
   24.1509   39.0757   65.5464 C   0  0  2  0  0  0  0  0  0  0  0  0
   24.8765   37.7638   65.4011 C   0  0  0  0  0  0  0  0  0  0  0  0
   26.3392   37.9386   65.8158 C   0  0  0  0  0  0  0  0  0  0  0  0
   26.4034   38.2716   67.2040 O   0  0  0  0  0  0  0  0  0  0  0  0
  1 11  1  0  0  0  0
  3 13  1  6  0  0  0
  3 17  2  0  0  0  0
  3 20  1  0  0  0  0
  3 26  1  0  0  0  0
  4 14  1  1  0  0  0
  4 18  1  0  0  0  0
  4 21  2  0  0  0  0
  4 20  1  0  0  0  0
  5 19  1  0  0  0  0
  5  7  1  0  0  0  0
  6  7  2  0  0  0  0
  6 12  1  0  0  0  0
  7  8  1  0  0  0  0
  8  9  1  0  0  0  0
  8 10  2  0  0  0  0
 10 11  1  0  0  0  0
 11 12  2  0  0  0  0
 15 23  1  0  0  0  0
 15 16  1  0  0  0  0
 16 19  1  0  0  0  0
 19 22  1  0  0  0  0
 22  2  1  6  0  0  0
 22 23  1  0  0  0  0
 23 24  1  1  0  0  0
 24 25  1  0  0  0  0
 25 26  1  0  0  0  0
M  CHG  2  13  -1  18  -1
M  END
>  <CHROM.1>
-67.46940850,88.49474288,83.25294515,55.03150847,64.03986251,64.21538040
165.28192949,-63.48973272,24.76390146,39.45722738,66.51672027,2.87899590
-0.10028194,-0.33227981

>  <Name>
ligand

>  <RI>
0

>  <Rbt.Current_Directory>
/home/itssahil/PROJECTS/Mol_Feturizer/New_Systems/rnas/2HOJ

>  <Rbt.Executable>
rbdock ($Id: //depot/dev/client3/rdock/2013.1/src/exe/rbdock.cxx#4 $)

>  <Rbt.Library>
libRbt.so (2013.1, Build901 2013/11/27)

>  <Rbt.Parameter_File>
/export/apps/rDock/src/rDock_2013.1_src/data/scripts/dock_solv.prm

>  <Rbt.Receptor>
prm/pocket_docking_3.prm

>  <SCORE>
-28.818

>  <SCORE.INTER>
-23.4628

>  <SCORE.INTER.CONST>
1

>  <SCORE.INTER.POLAR>
-2.67381

>  <SCORE.INTER.ROT>
8

>  <SCORE.INTER.SOLV>
26.492

>  <SCORE.INTER.VDW>
-24.4932

>  <SCORE.INTER.norm>
-0.902414

>  <SCORE.INTRA>
-5.35526

>  <SCORE.INTRA.DIHEDRAL>
-5.24839

>  <SCORE.INTRA.DIHEDRAL.0>
11.6398

>  <SCORE.INTRA.POLAR>
0

>  <SCORE.INTRA.POLAR.0>
0

>  <SCORE.INTRA.REPUL>
0

>  <SCORE.INTRA.REPUL.0>
0

>  <SCORE.INTRA.SOLV>
1.55714

>  <SCORE.INTRA.SOLV.lig_0>
-81.722

>  <SCORE.INTRA.VDW>
-3.50963

>  <SCORE.INTRA.VDW.0>
1.12598

>  <SCORE.INTRA.norm>
-0.205971

>  <SCORE.RESTR>
0

>  <SCORE.RESTR.CAVITY>
0

>  <SCORE.RESTR.norm>
0

>  <SCORE.SYSTEM>
0

>  <SCORE.SYSTEM.CONST>
0

>  <SCORE.SYSTEM.DIHEDRAL>
0

>  <SCORE.SYSTEM.SOLV>
0

>  <SCORE.SYSTEM.norm>
0

>  <SCORE.heavy>
26

>  <SCORE.norm>
-1.10839

>  <RMSD>
1.878

$$$$
ligand
 OpenBabel11021811433D
libRbt.so/2013.1/901 2013/11/27
 26 27  0  0  0  0  0  0  0  0999 V2000
   16.0540   39.7335   64.0956 C   0  0  0  0  0  0  0  0  0  0  0  0
   23.4258   41.1634   65.8060 C   0  0  0  0  0  0  0  0  0  0  0  0
   27.7187   37.6050   67.0732 P   0  0  1  0  0  0  0  0  0  0  0  0
   30.0435   38.6425   67.5267 P   0  0  1  0  0  0  0  0  0  0  0  0
   20.9267   40.5527   66.9246 C   0  0  0  0  0  0  0  0  0  0  0  0
   19.0452   39.0908   66.1281 C   0  0  0  0  0  0  0  0  0  0  0  0
   19.6370   40.3373   66.1753 C   0  0  0  0  0  0  0  0  0  0  0  0
   19.0100   41.3933   65.5117 C   0  0  0  0  0  0  0  0  0  0  0  0
   19.5642   42.6646   65.5284 N   0  0  0  0  0  0  0  0  0  0  0  0
   17.8758   41.1611   64.8577 N   0  0  0  0  0  0  0  0  0  0  0  0
   17.3431   39.9564   64.8424 C   0  0  0  0  0  0  0  0  0  0  0  0
   17.9103   38.9380   65.4589 N   0  0  0  0  0  0  0  0  0  0  0  0
   28.2641   36.4265   66.3624 O   0  5  0  0  0  0  0  0  0  0  0  0
   31.3068   38.1703   68.2800 O   0  0  0  0  0  0  0  0  0  0  0  0
   22.8895   37.3243   66.3676 S   0  0  0  0  0  0  0  0  0  0  0  0
   21.4956   38.2245   66.8816 C   0  0  0  0  0  0  0  0  0  0  0  0
   26.2897   37.2334   67.7117 O   0  0  0  0  0  0  0  0  0  0  0  0
   30.1035   38.1303   66.0021 O   0  5  0  0  0  0  0  0  0  0  0  0
   21.8551   39.4607   66.6236 N   0  0  0  0  0  0  0  0  0  0  0  0
   28.7335   38.0412   68.2451 O   0  0  0  0  0  0  0  0  0  0  0  0
   29.9789   40.1863   67.5487 O   0  0  0  0  0  0  0  0  0  0  0  0
   23.0282   39.7385   66.0978 C   0  0  2  0  0  0  0  0  0  0  0  0
   23.8766   38.7132   65.8306 C   0  0  2  0  0  0  0  0  0  0  0  0
   25.2627   38.7389   65.2416 C   0  0  0  0  0  0  0  0  0  0  0  0
   26.2352   39.3599   66.2469 C   0  0  0  0  0  0  0  0  0  0  0  0
   27.5433   38.8245   66.0363 O   0  0  0  0  0  0  0  0  0  0  0  0
  1 11  1  0  0  0  0
  3 13  1  6  0  0  0
  3 17  2  0  0  0  0
  3 20  1  0  0  0  0
  3 26  1  0  0  0  0
  4 14  1  1  0  0  0
  4 18  1  0  0  0  0
  4 21  2  0  0  0  0
  4 20  1  0  0  0  0
  5 19  1  0  0  0  0
  5  7  1  0  0  0  0
  6  7  2  0  0  0  0
  6 12  1  0  0  0  0
  7  8  1  0  0  0  0
  8  9  1  0  0  0  0
  8 10  2  0  0  0  0
 10 11  1  0  0  0  0
 11 12  2  0  0  0  0
 15 23  1  0  0  0  0
 15 16  1  0  0  0  0
 16 19  1  0  0  0  0
 19 22  1  0  0  0  0
 22  2  1  1  0  0  0
 22 23  1  0  0  0  0
 23 24  1  6  0  0  0
 24 25  1  0  0  0  0
 25 26  1  0  0  0  0
M  CHG  2  13  -1  18  -1
M  END
>  <CHROM.1>
69.71874265,-58.15901979,44.24694364,-139.96424467,-110.61557129,151.66949873
-95.64458266,132.51639777,24.32000473,39.00860255,66.40571126,2.95530943
-0.15972025,-0.06090700

>  <Name>
ligand

>  <RI>
0

>  <Rbt.Current_Directory>
/home/itssahil/PROJECTS/Mol_Feturizer/New_Systems/rnas/2HOJ

>  <Rbt.Executable>
rbdock ($Id: //depot/dev/client3/rdock/2013.1/src/exe/rbdock.cxx#4 $)

>  <Rbt.Library>
libRbt.so (2013.1, Build901 2013/11/27)

>  <Rbt.Parameter_File>
/export/apps/rDock/src/rDock_2013.1_src/data/scripts/dock_solv.prm

>  <Rbt.Receptor>
prm/pocket_docking_4.prm

>  <SCORE>
-22.7248

>  <SCORE.INTER>
-27.1568

>  <SCORE.INTER.CONST>
1

>  <SCORE.INTER.POLAR>
-2.62316

>  <SCORE.INTER.ROT>
8

>  <SCORE.INTER.SOLV>
24.707

>  <SCORE.INTER.VDW>
-26.5297

>  <SCORE.INTER.norm>
-1.04449

>  <SCORE.INTRA>
4.43204

>  <SCORE.INTRA.DIHEDRAL>
4.24

>  <SCORE.INTRA.DIHEDRAL.0>
11.6398

>  <SCORE.INTRA.POLAR>
0

>  <SCORE.INTRA.POLAR.0>
0

>  <SCORE.INTRA.REPUL>
0

>  <SCORE.INTRA.REPUL.0>
0

>  <SCORE.INTRA.SOLV>
3.95067

>  <SCORE.INTRA.SOLV.lig_0>
-81.722

>  <SCORE.INTRA.VDW>
0.336703

>  <SCORE.INTRA.VDW.0>
1.12598

>  <SCORE.INTRA.norm>
0.170463

>  <SCORE.RESTR>
0

>  <SCORE.RESTR.CAVITY>
0

>  <SCORE.RESTR.norm>
0

>  <SCORE.SYSTEM>
0

>  <SCORE.SYSTEM.CONST>
0

>  <SCORE.SYSTEM.DIHEDRAL>
0

>  <SCORE.SYSTEM.SOLV>
0

>  <SCORE.SYSTEM.norm>
0

>  <SCORE.heavy>
26

>  <SCORE.norm>
-0.87403

>  <RMSD>
1.881

$$$$
ligand
 OpenBabel11021811433D
libRbt.so/2013.1/901 2013/11/27
 26 27  0  0  0  0  0  0  0  0999 V2000
   16.0433   39.7488   64.0535 C   0  0  0  0  0  0  0  0  0  0  0  0
   22.9899   42.1213   65.7534 C   0  0  0  0  0  0  0  0  0  0  0  0
   27.7269   40.7110   67.3164 P   0  0  1  0  0  0  0  0  0  0  0  0
   28.8987   38.4087   67.4318 P   0  0  1  0  0  0  0  0  0  0  0  0
   20.8842   40.6696   66.9058 C   0  0  0  0  0  0  0  0  0  0  0  0
   19.0297   39.1718   66.1128 C   0  0  0  0  0  0  0  0  0  0  0  0
   19.6029   40.4273   66.1504 C   0  0  0  0  0  0  0  0  0  0  0  0
   18.9652   41.4668   65.4711 C   0  0  0  0  0  0  0  0  0  0  0  0
   19.5007   42.7461   65.4778 N   0  0  0  0  0  0  0  0  0  0  0  0
   17.8389   41.2110   64.8121 N   0  0  0  0  0  0  0  0  0  0  0  0
   17.3240   39.9986   64.8064 C   0  0  0  0  0  0  0  0  0  0  0  0
   17.9017   38.9952   65.4377 N   0  0  0  0  0  0  0  0  0  0  0  0
   27.1017   41.8092   68.0877 O   0  5  0  0  0  0  0  0  0  0  0  0
   29.7563   37.4736   68.3129 O   0  0  0  0  0  0  0  0  0  0  0  0
   23.4137   38.2447   65.3869 S   0  0  0  0  0  0  0  0  0  0  0  0
   21.9459   38.6285   66.2329 C   0  0  0  0  0  0  0  0  0  0  0  0
   28.9224   41.3000   66.4156 O   0  0  0  0  0  0  0  0  0  0  0  0
   27.6809   37.5754   66.7895 O   0  5  0  0  0  0  0  0  0  0  0  0
   21.9779   39.9408   66.2596 N   0  0  0  0  0  0  0  0  0  0  0  0
   28.3135   39.6083   68.3331 O   0  0  0  0  0  0  0  0  0  0  0  0
   29.7739   38.9952   66.3012 O   0  0  0  0  0  0  0  0  0  0  0  0
   22.9682   40.6140   65.7157 C   0  0  2  0  0  0  0  0  0  0  0  0
   23.9751   39.9206   65.1258 C   0  0  2  0  0  0  0  0  0  0  0  0
   25.2175   40.4239   64.4389 C   0  0  0  0  0  0  0  0  0  0  0  0
   26.1596   41.0437   65.4735 C   0  0  0  0  0  0  0  0  0  0  0  0
   26.6233   40.0268   66.3640 O   0  0  0  0  0  0  0  0  0  0  0  0
  1 11  1  0  0  0  0
  3 13  1  1  0  0  0
  3 17  2  0  0  0  0
  3 20  1  0  0  0  0
  3 26  1  0  0  0  0
  4 14  1  1  0  0  0
  4 18  1  0  0  0  0
  4 21  2  0  0  0  0
  4 20  1  0  0  0  0
  5 19  1  0  0  0  0
  5  7  1  0  0  0  0
  6  7  2  0  0  0  0
  6 12  1  0  0  0  0
  7  8  1  0  0  0  0
  8  9  1  0  0  0  0
  8 10  2  0  0  0  0
 10 11  1  0  0  0  0
 11 12  2  0  0  0  0
 15 23  1  0  0  0  0
 15 16  1  0  0  0  0
 16 19  1  0  0  0  0
 19 22  1  0  0  0  0
 22  2  1  1  0  0  0
 22 23  1  0  0  0  0
 23 24  1  6  0  0  0
 24 25  1  0  0  0  0
 25 26  1  0  0  0  0
M  CHG  2  13  -1  18  -1
M  END
>  <CHROM.1>
176.78014246,-64.47556499,66.27164303,167.28375163,-111.07336219,65.69490393
173.89108982,61.07001096,24.11088079,39.91972928,66.23130121,3.04656165,-0.19379287
-0.00721277

>  <Name>
ligand

>  <RI>
0

>  <Rbt.Current_Directory>
/home/itssahil/PROJECTS/Mol_Feturizer/New_Systems/rnas/2HOJ

>  <Rbt.Executable>
rbdock ($Id: //depot/dev/client3/rdock/2013.1/src/exe/rbdock.cxx#4 $)

>  <Rbt.Library>
libRbt.so (2013.1, Build901 2013/11/27)

>  <Rbt.Parameter_File>
/export/apps/rDock/src/rDock_2013.1_src/data/scripts/dock_solv.prm

>  <Rbt.Receptor>
prm/pocket_docking_4.prm

>  <SCORE>
-23.0935

>  <SCORE.INTER>
-18.6308

>  <SCORE.INTER.CONST>
1

>  <SCORE.INTER.POLAR>
-1.37477

>  <SCORE.INTER.ROT>
8

>  <SCORE.INTER.SOLV>
20.8517

>  <SCORE.INTER.VDW>
-23.7219

>  <SCORE.INTER.norm>
-0.716571

>  <SCORE.INTRA>
-4.46267

>  <SCORE.INTRA.DIHEDRAL>
-6.46638

>  <SCORE.INTRA.DIHEDRAL.0>
11.6398

>  <SCORE.INTRA.POLAR>
0

>  <SCORE.INTRA.POLAR.0>
0

>  <SCORE.INTRA.REPUL>
0

>  <SCORE.INTRA.REPUL.0>
0

>  <SCORE.INTRA.SOLV>
4.08954

>  <SCORE.INTRA.SOLV.lig_0>
-81.722

>  <SCORE.INTRA.VDW>
-3.27425

>  <SCORE.INTRA.VDW.0>
1.12598

>  <SCORE.INTRA.norm>
-0.171641

>  <SCORE.RESTR>
0

>  <SCORE.RESTR.CAVITY>
0

>  <SCORE.RESTR.norm>
0

>  <SCORE.SYSTEM>
0

>  <SCORE.SYSTEM.CONST>
0

>  <SCORE.SYSTEM.DIHEDRAL>
0

>  <SCORE.SYSTEM.SOLV>
0

>  <SCORE.SYSTEM.norm>
0

>  <SCORE.heavy>
26

>  <SCORE.norm>
-0.888212

>  <RMSD>
1.885

$$$$
ligand
 OpenBabel11021811433D
libRbt.so/2013.1/901 2013/11/27
 26 27  0  0  0  0  0  0  0  0999 V2000
   17.1447   40.1318   64.8199 C   0  0  0  0  0  0  0  0  0  0  0  0
   23.4600   43.1306   65.1862 C   0  0  0  0  0  0  0  0  0  0  0  0
   27.3977   38.1238   66.8997 P   0  0  1  0  0  0  0  0  0  0  0  0
   29.8009   38.6992   67.6614 P   0  0  1  0  0  0  0  0  0  0  0  0
   21.5577   42.8093   67.2228 C   0  0  0  0  0  0  0  0  0  0  0  0
   20.3552   40.7241   66.5032 C   0  0  0  0  0  0  0  0  0  0  0  0
   20.3890   42.1019   66.5864 C   0  0  0  0  0  0  0  0  0  0  0  0
   19.3129   42.8231   66.0665 C   0  0  0  0  0  0  0  0  0  0  0  0
   19.2990   44.2087   66.1249 N   0  0  0  0  0  0  0  0  0  0  0  0
   18.3031   42.1619   65.5085 N   0  0  0  0  0  0  0  0  0  0  0  0
   18.3095   40.8458   65.4545 C   0  0  0  0  0  0  0  0  0  0  0  0
   19.3107   40.1354   65.9361 N   0  0  0  0  0  0  0  0  0  0  0  0
   27.8599   37.4222   65.6808 O   0  5  0  0  0  0  0  0  0  0  0  0
   29.5325   40.2194   67.7176 O   0  0  0  0  0  0  0  0  0  0  0  0
   24.3612   40.2588   67.6927 S   0  0  0  0  0  0  0  0  0  0  0  0
   22.8616   41.0162   68.1343 C   0  0  0  0  0  0  0  0  0  0  0  0
   25.9695   37.5355   67.3492 O   0  0  0  0  0  0  0  0  0  0  0  0
   30.9937   38.3258   68.6753 O   0  5  0  0  0  0  0  0  0  0  0  0
   22.7302   41.9318   67.2025 N   0  0  0  0  0  0  0  0  0  0  0  0
   28.4666   37.9023   68.0837 O   0  0  0  0  0  0  0  0  0  0  0  0
   30.2040   38.3011   66.2237 O   0  0  0  0  0  0  0  0  0  0  0  0
   23.6260   42.0751   66.2503 C   0  0  2  0  0  0  0  0  0  0  0  0
   24.7081   41.2557   66.2513 C   0  0  2  0  0  0  0  0  0  0  0  0
   25.8745   41.1997   65.2999 C   0  0  0  0  0  0  0  0  0  0  0  0
   26.5276   39.8174   65.3706 C   0  0  0  0  0  0  0  0  0  0  0  0
   27.2578   39.6985   66.5932 O   0  0  0  0  0  0  0  0  0  0  0  0
  1 11  1  0  0  0  0
  3 13  1  6  0  0  0
  3 17  2  0  0  0  0
  3 20  1  0  0  0  0
  3 26  1  0  0  0  0
  4 14  1  1  0  0  0
  4 18  1  0  0  0  0
  4 21  2  0  0  0  0
  4 20  1  0  0  0  0
  5 19  1  0  0  0  0
  5  7  1  0  0  0  0
  6  7  2  0  0  0  0
  6 12  1  0  0  0  0
  7  8  1  0  0  0  0
  8  9  1  0  0  0  0
  8 10  2  0  0  0  0
 10 11  1  0  0  0  0
 11 12  2  0  0  0  0
 15 23  1  0  0  0  0
 15 16  1  0  0  0  0
 16 19  1  0  0  0  0
 19 22  1  0  0  0  0
 22  2  1  1  0  0  0
 22 23  1  0  0  0  0
 23 24  1  6  0  0  0
 24 25  1  0  0  0  0
 25 26  1  0  0  0  0
M  CHG  2  13  -1  18  -1
M  END
>  <CHROM.1>
68.12865526,-82.11342132,22.01880374,69.20666888,21.87713520,-73.45859311
157.31475589,48.18760805,24.66651012,40.21877048,66.68163791,2.81984473,-0.15841966
0.06511948

>  <Name>
ligand

>  <RI>
0

>  <Rbt.Current_Directory>
/home/itssahil/PROJECTS/Mol_Feturizer/New_Systems/rnas/2HOJ

>  <Rbt.Executable>
rbdock ($Id: //depot/dev/client3/rdock/2013.1/src/exe/rbdock.cxx#4 $)

>  <Rbt.Library>
libRbt.so (2013.1, Build901 2013/11/27)

>  <Rbt.Parameter_File>
/export/apps/rDock/src/rDock_2013.1_src/data/scripts/dock_solv.prm

>  <Rbt.Receptor>
prm/pocket_docking_5.prm

>  <SCORE>
-25.4926

>  <SCORE.INTER>
-20.9516

>  <SCORE.INTER.CONST>
1

>  <SCORE.INTER.POLAR>
-2.70765

>  <SCORE.INTER.ROT>
8

>  <SCORE.INTER.SOLV>
28.3427

>  <SCORE.INTER.VDW>
-23.3231

>  <SCORE.INTER.norm>
-0.805831

>  <SCORE.INTRA>
-4.54094

>  <SCORE.INTRA.DIHEDRAL>
-3.51654

>  <SCORE.INTRA.DIHEDRAL.0>
11.6398

>  <SCORE.INTRA.POLAR>
0

>  <SCORE.INTRA.POLAR.0>
0

>  <SCORE.INTRA.REPUL>
0

>  <SCORE.INTRA.REPUL.0>
0

>  <SCORE.INTRA.SOLV>
1.06678

>  <SCORE.INTRA.SOLV.lig_0>
-81.722

>  <SCORE.INTRA.VDW>
-3.31606

>  <SCORE.INTRA.VDW.0>
1.12598

>  <SCORE.INTRA.norm>
-0.174652

>  <SCORE.RESTR>
0

>  <SCORE.RESTR.CAVITY>
0

>  <SCORE.RESTR.norm>
0

>  <SCORE.SYSTEM>
0

>  <SCORE.SYSTEM.CONST>
0

>  <SCORE.SYSTEM.DIHEDRAL>
0

>  <SCORE.SYSTEM.SOLV>
0

>  <SCORE.SYSTEM.norm>
0

>  <SCORE.heavy>
26

>  <SCORE.norm>
-0.980483

>  <RMSD>
1.910

$$$$
ligand
 OpenBabel11021811433D
libRbt.so/2013.1/901 2013/11/27
 26 27  0  0  0  0  0  0  0  0999 V2000
   15.9916   39.0364   64.6854 C   0  0  0  0  0  0  0  0  0  0  0  0
   22.9285   39.1417   65.6475 C   0  0  0  0  0  0  0  0  0  0  0  0
   27.0360   39.8699   67.1987 P   0  0  1  0  0  0  0  0  0  0  0  0
   28.7975   38.2380   68.1583 P   0  0  1  0  0  0  0  0  0  0  0  0
   21.0968   41.2528   65.8869 C   0  0  0  0  0  0  0  0  0  0  0  0
   19.5678   39.3011   65.4812 C   0  0  0  0  0  0  0  0  0  0  0  0
   19.7449   40.6675   65.5687 C   0  0  0  0  0  0  0  0  0  0  0  0
   18.6399   41.4933   65.3553 C   0  0  0  0  0  0  0  0  0  0  0  0
   18.7654   42.8724   65.4314 N   0  0  0  0  0  0  0  0  0  0  0  0
   17.4653   40.9381   65.0720 N   0  0  0  0  0  0  0  0  0  0  0  0
   17.3399   39.6287   65.0030 C   0  0  0  0  0  0  0  0  0  0  0  0
   18.3639   38.8212   65.1990 N   0  0  0  0  0  0  0  0  0  0  0  0
   26.6941   41.2839   66.9239 O   0  5  0  0  0  0  0  0  0  0  0  0
   27.8219   37.7646   69.2586 O   0  0  0  0  0  0  0  0  0  0  0  0
   22.1067   40.0498   69.3680 S   0  0  0  0  0  0  0  0  0  0  0  0
   21.2276   41.0730   68.2737 C   0  0  0  0  0  0  0  0  0  0  0  0
   26.9844   39.0287   65.8285 O   0  0  0  0  0  0  0  0  0  0  0  0
   28.5813   37.3539   66.8310 O   0  5  0  0  0  0  0  0  0  0  0  0
   21.6248   40.6306   67.1030 N   0  0  0  0  0  0  0  0  0  0  0  0
   28.5180   39.7884   67.8235 O   0  0  0  0  0  0  0  0  0  0  0  0
   30.2515   38.0735   68.6551 O   0  0  0  0  0  0  0  0  0  0  0  0
   22.4830   39.6394   66.9994 C   0  0  2  0  0  0  0  0  0  0  0  0
   22.9648   39.0789   68.1379 C   0  0  2  0  0  0  0  0  0  0  0  0
   23.9464   37.9502   68.3150 C   0  0  0  0  0  0  0  0  0  0  0  0
   25.2305   38.2621   67.5431 C   0  0  0  0  0  0  0  0  0  0  0  0
   25.9792   39.2552   68.2468 O   0  0  0  0  0  0  0  0  0  0  0  0
  1 11  1  0  0  0  0
  3 13  1  6  0  0  0
  3 17  2  0  0  0  0
  3 20  1  0  0  0  0
  3 26  1  0  0  0  0
  4 14  1  1  0  0  0
  4 18  1  0  0  0  0
  4 21  2  0  0  0  0
  4 20  1  0  0  0  0
  5 19  1  0  0  0  0
  5  7  1  0  0  0  0
  6  7  2  0  0  0  0
  6 12  1  0  0  0  0
  7  8  1  0  0  0  0
  8  9  1  0  0  0  0
  8 10  2  0  0  0  0
 10 11  1  0  0  0  0
 11 12  2  0  0  0  0
 15 23  1  0  0  0  0
 15 16  1  0  0  0  0
 16 19  1  0  0  0  0
 19 22  1  0  0  0  0
 22  2  1  1  0  0  0
 22 23  1  0  0  0  0
 23 24  1  6  0  0  0
 24 25  1  0  0  0  0
 25 26  1  0  0  0  0
M  CHG  2  13  -1  18  -1
M  END
>  <CHROM.1>
177.49456234,-81.95035339,-52.49253135,-64.69996958,-125.96291227,74.80799195
-162.41730683,113.16710053,23.66707318,39.56271681,67.05587027,-2.92883258
-0.19266057,1.48655004

>  <Name>
ligand

>  <RI>
0

>  <Rbt.Current_Directory>
/home/itssahil/PROJECTS/Mol_Feturizer/New_Systems/rnas/2HOJ

>  <Rbt.Executable>
rbdock ($Id: //depot/dev/client3/rdock/2013.1/src/exe/rbdock.cxx#4 $)

>  <Rbt.Library>
libRbt.so (2013.1, Build901 2013/11/27)

>  <Rbt.Parameter_File>
/export/apps/rDock/src/rDock_2013.1_src/data/scripts/dock_solv.prm

>  <Rbt.Receptor>
prm/pocket_docking_2.prm

>  <SCORE>
-19.0182

>  <SCORE.INTER>
-17.6312

>  <SCORE.INTER.CONST>
1

>  <SCORE.INTER.POLAR>
-1.71214

>  <SCORE.INTER.ROT>
8

>  <SCORE.INTER.SOLV>
23.7529

>  <SCORE.INTER.VDW>
-22.8979

>  <SCORE.INTER.norm>
-0.678123

>  <SCORE.INTRA>
-2.16024

>  <SCORE.INTRA.DIHEDRAL>
-2.496

>  <SCORE.INTRA.DIHEDRAL.0>
11.6398

>  <SCORE.INTRA.POLAR>
0

>  <SCORE.INTRA.POLAR.0>
0

>  <SCORE.INTRA.REPUL>
0

>  <SCORE.INTRA.REPUL.0>
0

>  <SCORE.INTRA.SOLV>
1.2447

>  <SCORE.INTRA.SOLV.lig_0>
-81.722

>  <SCORE.INTRA.VDW>
-1.53459

>  <SCORE.INTRA.VDW.0>
1.12598

>  <SCORE.INTRA.norm>
-0.083086

>  <SCORE.RESTR>
0.773229

>  <SCORE.RESTR.CAVITY>
0.773229

>  <SCORE.RESTR.norm>
0.0297396

>  <SCORE.SYSTEM>
0

>  <SCORE.SYSTEM.CONST>
0

>  <SCORE.SYSTEM.DIHEDRAL>
0

>  <SCORE.SYSTEM.SOLV>
0

>  <SCORE.SYSTEM.norm>
0

>  <SCORE.heavy>
26

>  <SCORE.norm>
-0.731469

>  <RMSD>
1.914

$$$$
ligand
 OpenBabel11021811433D
libRbt.so/2013.1/901 2013/11/27
 26 27  0  0  0  0  0  0  0  0999 V2000
   16.4176   38.9316   64.5035 C   0  0  0  0  0  0  0  0  0  0  0  0
   23.2971   41.5532   65.3163 C   0  0  0  0  0  0  0  0  0  0  0  0
   27.8477   37.9225   66.3591 P   0  0  1  0  0  0  0  0  0  0  0  0
   28.7511   38.6834   68.6595 P   0  0  1  0  0  0  0  0  0  0  0  0
   20.8465   41.7855   66.6618 C   0  0  0  0  0  0  0  0  0  0  0  0
   19.7238   39.6613   65.9278 C   0  0  0  0  0  0  0  0  0  0  0  0
   19.6735   41.0314   66.0903 C   0  0  0  0  0  0  0  0  0  0  0  0
   18.5082   41.7006   65.7122 C   0  0  0  0  0  0  0  0  0  0  0  0
   18.4077   43.0764   65.8548 N   0  0  0  0  0  0  0  0  0  0  0  0
   17.4973   40.9996   65.2073 N   0  0  0  0  0  0  0  0  0  0  0  0
   17.5862   39.6921   65.0740 C   0  0  0  0  0  0  0  0  0  0  0  0
   18.6727   39.0305   65.4213 N   0  0  0  0  0  0  0  0  0  0  0  0
   28.6236   39.0701   65.8369 O   0  5  0  0  0  0  0  0  0  0  0  0
   29.8922   37.6814   68.3766 O   0  0  0  0  0  0  0  0  0  0  0  0
   23.0118   39.1724   68.4135 S   0  0  0  0  0  0  0  0  0  0  0  0
   21.5645   40.1138   68.2225 C   0  0  0  0  0  0  0  0  0  0  0  0
   28.7505   36.5923   66.3002 O   0  0  0  0  0  0  0  0  0  0  0  0
   29.1823   40.1477   68.1498 O   0  5  0  0  0  0  0  0  0  0  0  0
   21.8424   40.8348   67.1610 N   0  0  0  0  0  0  0  0  0  0  0  0
   27.4198   38.2142   67.8840 O   0  0  0  0  0  0  0  0  0  0  0  0
   28.4717   38.7289   70.1787 O   0  0  0  0  0  0  0  0  0  0  0  0
   22.9933   40.7189   66.5351 C   0  0  2  0  0  0  0  0  0  0  0  0
   23.9053   39.8360   67.0159 C   0  0  2  0  0  0  0  0  0  0  0  0
   25.2849   39.5049   66.5098 C   0  0  0  0  0  0  0  0  0  0  0  0
   25.4073   37.9929   66.3077 C   0  0  0  0  0  0  0  0  0  0  0  0
   26.5259   37.7150   65.4631 O   0  0  0  0  0  0  0  0  0  0  0  0
  1 11  1  0  0  0  0
  3 13  1  6  0  0  0
  3 17  2  0  0  0  0
  3 20  1  0  0  0  0
  3 26  1  0  0  0  0
  4 14  1  6  0  0  0
  4 18  1  0  0  0  0
  4 21  2  0  0  0  0
  4 20  1  0  0  0  0
  5 19  1  0  0  0  0
  5  7  1  0  0  0  0
  6  7  2  0  0  0  0
  6 12  1  0  0  0  0
  7  8  1  0  0  0  0
  8  9  1  0  0  0  0
  8 10  2  0  0  0  0
 10 11  1  0  0  0  0
 11 12  2  0  0  0  0
 15 23  1  0  0  0  0
 15 16  1  0  0  0  0
 16 19  1  0  0  0  0
 19 22  1  0  0  0  0
 22  2  1  1  0  0  0
 22 23  1  0  0  0  0
 23 24  1  6  0  0  0
 24 25  1  0  0  0  0
 25 26  1  0  0  0  0
M  CHG  2  13  -1  18  -1
M  END
>  <CHROM.1>
-49.57161622,-68.92299846,-8.68000216,-49.71368712,52.84334405,162.37591850
75.16209196,-114.31669305,24.08227457,39.43636702,66.83167403,3.11800126
-0.29749830,0.79283245

>  <Name>
ligand

>  <RI>
0

>  <Rbt.Current_Directory>
/home/itssahil/PROJECTS/Mol_Feturizer/New_Systems/rnas/2HOJ

>  <Rbt.Executable>
rbdock ($Id: //depot/dev/client3/rdock/2013.1/src/exe/rbdock.cxx#4 $)

>  <Rbt.Library>
libRbt.so (2013.1, Build901 2013/11/27)

>  <Rbt.Parameter_File>
/export/apps/rDock/src/rDock_2013.1_src/data/scripts/dock_solv.prm

>  <Rbt.Receptor>
prm/pocket_docking_8.prm

>  <SCORE>
-23.4657

>  <SCORE.INTER>
-23.5959

>  <SCORE.INTER.CONST>
1

>  <SCORE.INTER.POLAR>
-2.63876

>  <SCORE.INTER.ROT>
8

>  <SCORE.INTER.SOLV>
26.7055

>  <SCORE.INTER.VDW>
-24.7699

>  <SCORE.INTER.norm>
-0.907533

>  <SCORE.INTRA>
0.130208

>  <SCORE.INTRA.DIHEDRAL>
-1.63335

>  <SCORE.INTRA.DIHEDRAL.0>
11.6398

>  <SCORE.INTRA.POLAR>
0

>  <SCORE.INTRA.POLAR.0>
0

>  <SCORE.INTRA.REPUL>
0

>  <SCORE.INTRA.REPUL.0>
0

>  <SCORE.INTRA.SOLV>
1.83751

>  <SCORE.INTRA.SOLV.lig_0>
-81.722

>  <SCORE.INTRA.VDW>
0.0281296

>  <SCORE.INTRA.VDW.0>
1.12598

>  <SCORE.INTRA.norm>
0.005008

>  <SCORE.RESTR>
0

>  <SCORE.RESTR.CAVITY>
0

>  <SCORE.RESTR.norm>
0

>  <SCORE.SYSTEM>
0

>  <SCORE.SYSTEM.CONST>
0

>  <SCORE.SYSTEM.DIHEDRAL>
0

>  <SCORE.SYSTEM.SOLV>
0

>  <SCORE.SYSTEM.norm>
0

>  <SCORE.heavy>
26

>  <SCORE.norm>
-0.902525

>  <RMSD>
1.932

$$$$
ligand
 OpenBabel11021811433D
libRbt.so/2013.1/901 2013/11/27
 26 27  0  0  0  0  0  0  0  0999 V2000
   15.8719   38.9478   64.3277 C   0  0  0  0  0  0  0  0  0  0  0  0
   23.2869   40.7215   65.4258 C   0  0  0  0  0  0  0  0  0  0  0  0
   27.9893   39.3846   68.9443 P   0  0  1  0  0  0  0  0  0  0  0  0
   30.0435   39.0372   67.4125 P   0  0  1  0  0  0  0  0  0  0  0  0
   20.6821   41.2496   66.3233 C   0  0  0  0  0  0  0  0  0  0  0  0
   18.2439   41.3762   65.7307 C   0  0  0  0  0  0  0  0  0  0  0  0
   19.4096   40.6390   65.7949 C   0  0  0  0  0  0  0  0  0  0  0  0
   19.3796   39.3137   65.3576 C   0  0  0  0  0  0  0  0  0  0  0  0
   20.5235   38.5308   65.4020 N   0  0  0  0  0  0  0  0  0  0  0  0
   18.2357   38.8106   64.9030 N   0  0  0  0  0  0  0  0  0  0  0  0
   17.1476   39.5513   64.8547 C   0  0  0  0  0  0  0  0  0  0  0  0
   17.1426   40.8061   65.2603 N   0  0  0  0  0  0  0  0  0  0  0  0
   28.6108   38.4212   69.8808 O   0  5  0  0  0  0  0  0  0  0  0  0
   29.1352   38.0982   66.5881 O   0  0  0  0  0  0  0  0  0  0  0  0
   22.2279   38.4941   68.4688 S   0  0  0  0  0  0  0  0  0  0  0  0
   20.9425   39.5703   68.0140 C   0  0  0  0  0  0  0  0  0  0  0  0
   27.1079   40.4459   69.7716 O   0  0  0  0  0  0  0  0  0  0  0  0
   31.1106   39.7456   66.4380 O   0  5  0  0  0  0  0  0  0  0  0  0
   21.4718   40.2210   67.0039 N   0  0  0  0  0  0  0  0  0  0  0  0
   29.1421   40.1616   68.1314 O   0  0  0  0  0  0  0  0  0  0  0  0
   30.7928   38.2157   68.4857 O   0  0  0  0  0  0  0  0  0  0  0  0
   22.6935   39.9664   66.5884 C   0  0  2  0  0  0  0  0  0  0  0  0
   23.4114   39.0131   67.2350 C   0  0  2  0  0  0  0  0  0  0  0  0
   24.8137   38.5256   66.9809 C   0  0  0  0  0  0  0  0  0  0  0  0
   25.7899   39.2775   67.8885 C   0  0  0  0  0  0  0  0  0  0  0  0
   27.0445   38.5935   67.9077 O   0  0  0  0  0  0  0  0  0  0  0  0
  1 11  1  0  0  0  0
  3 13  1  1  0  0  0
  3 17  2  0  0  0  0
  3 20  1  0  0  0  0
  3 26  1  0  0  0  0
  4 14  1  6  0  0  0
  4 18  1  0  0  0  0
  4 21  2  0  0  0  0
  4 20  1  0  0  0  0
  5 19  1  0  0  0  0
  5  7  1  0  0  0  0
  6  7  2  0  0  0  0
  6 12  1  0  0  0  0
  7  8  1  0  0  0  0
  8  9  1  0  0  0  0
  8 10  2  0  0  0  0
 10 11  1  0  0  0  0
 11 12  2  0  0  0  0
 15 23  1  0  0  0  0
 15 16  1  0  0  0  0
 16 19  1  0  0  0  0
 19 22  1  0  0  0  0
 22  2  1  1  0  0  0
 22 23  1  0  0  0  0
 23 24  1  6  0  0  0
 24 25  1  0  0  0  0
 25 26  1  0  0  0  0
M  CHG  2  13  -1  18  -1
M  END
>  <CHROM.1>
56.12269348,-58.13306555,147.26573806,53.15572046,-85.38577307,165.06665556
-176.68513490,131.00488740,24.20954356,39.41135353,67.11707299,-2.90688054
-0.04377745,1.66657405

>  <Name>
ligand

>  <RI>
0

>  <Rbt.Current_Directory>
/home/itssahil/PROJECTS/Mol_Feturizer/New_Systems/rnas/2HOJ

>  <Rbt.Executable>
rbdock ($Id: //depot/dev/client3/rdock/2013.1/src/exe/rbdock.cxx#4 $)

>  <Rbt.Library>
libRbt.so (2013.1, Build901 2013/11/27)

>  <Rbt.Parameter_File>
/export/apps/rDock/src/rDock_2013.1_src/data/scripts/dock_solv.prm

>  <Rbt.Receptor>
prm/pocket_docking_2.prm

>  <SCORE>
-24.0078

>  <SCORE.INTER>
-23.7681

>  <SCORE.INTER.CONST>
1

>  <SCORE.INTER.POLAR>
-2.68599

>  <SCORE.INTER.ROT>
8

>  <SCORE.INTER.SOLV>
26.6813

>  <SCORE.INTER.VDW>
-24.7192

>  <SCORE.INTER.norm>
-0.914157

>  <SCORE.INTRA>
-0.565451

>  <SCORE.INTRA.DIHEDRAL>
-3.53372

>  <SCORE.INTRA.DIHEDRAL.0>
11.6398

>  <SCORE.INTRA.POLAR>
0

>  <SCORE.INTRA.POLAR.0>
0

>  <SCORE.INTRA.REPUL>
0

>  <SCORE.INTRA.REPUL.0>
0

>  <SCORE.INTRA.SOLV>
4.51827

>  <SCORE.INTRA.SOLV.lig_0>
-81.722

>  <SCORE.INTRA.VDW>
-1.05773

>  <SCORE.INTRA.VDW.0>
1.12598

>  <SCORE.INTRA.norm>
-0.0217481

>  <SCORE.RESTR>
0.325698

>  <SCORE.RESTR.CAVITY>
0.325698

>  <SCORE.RESTR.norm>
0.0125268

>  <SCORE.SYSTEM>
0

>  <SCORE.SYSTEM.CONST>
0

>  <SCORE.SYSTEM.DIHEDRAL>
0

>  <SCORE.SYSTEM.SOLV>
0

>  <SCORE.SYSTEM.norm>
0

>  <SCORE.heavy>
26

>  <SCORE.norm>
-0.923378

>  <RMSD>
1.933

$$$$
ligand
 OpenBabel11021811433D
libRbt.so/2013.1/901 2013/11/27
 26 27  0  0  0  0  0  0  0  0999 V2000
   15.9192   39.3369   64.2915 C   0  0  0  0  0  0  0  0  0  0  0  0
   23.1348   40.4401   64.9051 C   0  0  0  0  0  0  0  0  0  0  0  0
   28.2850   38.6224   67.0692 P   0  0  1  0  0  0  0  0  0  0  0  0
   30.8391   38.9462   67.3114 P   0  0  1  0  0  0  0  0  0  0  0  0
   20.8891   41.0677   66.4648 C   0  0  0  0  0  0  0  0  0  0  0  0
   18.4863   41.4571   65.8430 C   0  0  0  0  0  0  0  0  0  0  0  0
   19.5742   40.6082   65.8893 C   0  0  0  0  0  0  0  0  0  0  0  0
   19.4254   39.3135   65.3891 C   0  0  0  0  0  0  0  0  0  0  0  0
   20.4877   38.4222   65.4131 N   0  0  0  0  0  0  0  0  0  0  0  0
   18.2474   38.9450   64.8943 N   0  0  0  0  0  0  0  0  0  0  0  0
   17.2367   39.7891   64.8653 C   0  0  0  0  0  0  0  0  0  0  0  0
   17.3445   41.0186   65.3299 N   0  0  0  0  0  0  0  0  0  0  0  0
   28.5762   37.4451   67.9183 O   0  5  0  0  0  0  0  0  0  0  0  0
   31.2525   37.4670   67.4770 O   0  0  0  0  0  0  0  0  0  0  0  0
   22.5850   37.9521   67.8799 S   0  0  0  0  0  0  0  0  0  0  0  0
   21.3547   39.1783   67.8646 C   0  0  0  0  0  0  0  0  0  0  0  0
   27.8008   39.8458   67.9948 O   0  0  0  0  0  0  0  0  0  0  0  0
   32.0893   39.7955   66.7584 O   0  5  0  0  0  0  0  0  0  0  0  0
   21.6992   39.9018   66.8246 N   0  0  0  0  0  0  0  0  0  0  0  0
   29.6159   39.0484   66.2688 O   0  0  0  0  0  0  0  0  0  0  0  0
   30.3969   39.5126   68.6795 O   0  0  0  0  0  0  0  0  0  0  0  0
   22.7529   39.6000   66.0976 C   0  0  2  0  0  0  0  0  0  0  0  0
   23.4939   38.5186   66.4499 C   0  0  2  0  0  0  0  0  0  0  0  0
   24.7346   37.9518   65.8110 C   0  0  0  0  0  0  0  0  0  0  0  0
   25.9183   38.1005   66.7695 C   0  0  0  0  0  0  0  0  0  0  0  0
   27.1235   38.2522   66.0170 O   0  0  0  0  0  0  0  0  0  0  0  0
  1 11  1  0  0  0  0
  3 13  1  1  0  0  0
  3 17  2  0  0  0  0
  3 20  1  0  0  0  0
  3 26  1  0  0  0  0
  4 14  1  1  0  0  0
  4 18  1  0  0  0  0
  4 21  2  0  0  0  0
  4 20  1  0  0  0  0
  5 19  1  0  0  0  0
  5  7  1  0  0  0  0
  6  7  2  0  0  0  0
  6 12  1  0  0  0  0
  7  8  1  0  0  0  0
  8  9  1  0  0  0  0
  8 10  2  0  0  0  0
 10 11  1  0  0  0  0
 11 12  2  0  0  0  0
 15 23  1  0  0  0  0
 15 16  1  0  0  0  0
 16 19  1  0  0  0  0
 19 22  1  0  0  0  0
 22  2  1  1  0  0  0
 22 23  1  0  0  0  0
 23 24  1  6  0  0  0
 24 25  1  0  0  0  0
 25 26  1  0  0  0  0
M  CHG  2  13  -1  18  -1
M  END
>  <CHROM.1>
-42.32235185,-71.77293309,160.39551085,78.37650498,-66.32021889,-149.64407309
171.70144852,69.44659967,24.51720984,39.12668240,66.56325059,2.99661057,-0.10994601
-0.39373840

>  <Name>
ligand

>  <RI>
0

>  <Rbt.Current_Directory>
/home/itssahil/PROJECTS/Mol_Feturizer/New_Systems/rnas/2HOJ

>  <Rbt.Executable>
rbdock ($Id: //depot/dev/client3/rdock/2013.1/src/exe/rbdock.cxx#4 $)

>  <Rbt.Library>
libRbt.so (2013.1, Build901 2013/11/27)

>  <Rbt.Parameter_File>
/export/apps/rDock/src/rDock_2013.1_src/data/scripts/dock_solv.prm

>  <Rbt.Receptor>
prm/pocket_docking_2.prm

>  <SCORE>
-22.7995

>  <SCORE.INTER>
-24.9518

>  <SCORE.INTER.CONST>
1

>  <SCORE.INTER.POLAR>
-2.64578

>  <SCORE.INTER.ROT>
8

>  <SCORE.INTER.SOLV>
26.6449

>  <SCORE.INTER.VDW>
-25.6302

>  <SCORE.INTER.norm>
-0.959683

>  <SCORE.INTRA>
1.95694

>  <SCORE.INTRA.DIHEDRAL>
-2.21164

>  <SCORE.INTRA.DIHEDRAL.0>
11.6398

>  <SCORE.INTRA.POLAR>
0

>  <SCORE.INTRA.POLAR.0>
0

>  <SCORE.INTRA.REPUL>
0

>  <SCORE.INTRA.REPUL.0>
0

>  <SCORE.INTRA.SOLV>
7.71462

>  <SCORE.INTRA.SOLV.lig_0>
-81.722

>  <SCORE.INTRA.VDW>
-0.794552

>  <SCORE.INTRA.VDW.0>
1.12598

>  <SCORE.INTRA.norm>
0.0752669

>  <SCORE.RESTR>
0.195298

>  <SCORE.RESTR.CAVITY>
0.195298

>  <SCORE.RESTR.norm>
0.00751147

>  <SCORE.SYSTEM>
0

>  <SCORE.SYSTEM.CONST>
0

>  <SCORE.SYSTEM.DIHEDRAL>
0

>  <SCORE.SYSTEM.SOLV>
0

>  <SCORE.SYSTEM.norm>
0

>  <SCORE.heavy>
26

>  <SCORE.norm>
-0.876905

>  <RMSD>
1.939

$$$$
ligand
 OpenBabel11021811433D
libRbt.so/2013.1/901 2013/11/27
 26 27  0  0  0  0  0  0  0  0999 V2000
   16.2090   39.9683   64.0762 C   0  0  0  0  0  0  0  0  0  0  0  0
   23.3715   40.8795   65.3416 C   0  0  0  0  0  0  0  0  0  0  0  0
   27.6740   39.4206   66.8305 P   0  0  1  0  0  0  0  0  0  0  0  0
   27.7277   39.2625   69.4110 P   0  0  1  0  0  0  0  0  0  0  0  0
   21.0329   41.1233   66.8716 C   0  0  0  0  0  0  0  0  0  0  0  0
   19.4517   39.5290   65.7447 C   0  0  0  0  0  0  0  0  0  0  0  0
   19.7557   40.8190   66.1317 C   0  0  0  0  0  0  0  0  0  0  0  0
   18.8498   41.8344   65.8204 C   0  0  0  0  0  0  0  0  0  0  0  0
   19.1089   43.1468   66.1864 N   0  0  0  0  0  0  0  0  0  0  0  0
   17.7365   41.5256   65.1620 N   0  0  0  0  0  0  0  0  0  0  0  0
   17.4837   40.2800   64.8160 C   0  0  0  0  0  0  0  0  0  0  0  0
   18.3187   39.2982   65.0948 N   0  0  0  0  0  0  0  0  0  0  0  0
   27.3638   40.4206   65.7839 O   0  5  0  0  0  0  0  0  0  0  0  0
   26.8095   39.0020   70.6257 O   0  0  0  0  0  0  0  0  0  0  0  0
   22.6761   37.7527   67.5959 S   0  0  0  0  0  0  0  0  0  0  0  0
   21.4362   38.9515   67.8028 C   0  0  0  0  0  0  0  0  0  0  0  0
   29.2486   39.4566   67.1581 O   0  0  0  0  0  0  0  0  0  0  0  0
   28.4925   37.9034   69.0136 O   0  5  0  0  0  0  0  0  0  0  0  0
   21.8328   39.9020   66.9884 N   0  0  0  0  0  0  0  0  0  0  0  0
   26.8400   39.7645   68.1645 O   0  0  0  0  0  0  0  0  0  0  0  0
   28.7646   40.3492   69.7742 O   0  0  0  0  0  0  0  0  0  0  0  0
   22.9299   39.7794   66.2735 C   0  0  2  0  0  0  0  0  0  0  0  0
   23.6604   38.6423   66.3993 C   0  0  2  0  0  0  0  0  0  0  0  0
   24.9419   38.2405   65.7171 C   0  0  0  0  0  0  0  0  0  0  0  0
   25.9318   37.7110   66.7571 C   0  0  0  0  0  0  0  0  0  0  0  0
   27.2671   37.9525   66.3089 O   0  0  0  0  0  0  0  0  0  0  0  0
  1 11  1  0  0  0  0
  3 13  1  6  0  0  0
  3 17  2  0  0  0  0
  3 20  1  0  0  0  0
  3 26  1  0  0  0  0
  4 14  1  1  0  0  0
  4 18  1  0  0  0  0
  4 21  2  0  0  0  0
  4 20  1  0  0  0  0
  5 19  1  0  0  0  0
  5  7  1  0  0  0  0
  6  7  2  0  0  0  0
  6 12  1  0  0  0  0
  7  8  1  0  0  0  0
  8  9  1  0  0  0  0
  8 10  2  0  0  0  0
 10 11  1  0  0  0  0
 11 12  2  0  0  0  0
 15 23  1  0  0  0  0
 15 16  1  0  0  0  0
 16 19  1  0  0  0  0
 19 22  1  0  0  0  0
 22  2  1  1  0  0  0
 22 23  1  0  0  0  0
 23 24  1  6  0  0  0
 24 25  1  0  0  0  0
 25 26  1  0  0  0  0
M  CHG  2  13  -1  18  -1
M  END
>  <CHROM.1>
-149.40155825,-71.53851763,3.69565329,-156.35949621,-47.98096902,-151.44098382
88.23080712,-92.77411754,23.82752666,39.59050737,66.96533932,3.03230561,-0.30413887
0.13470694

>  <Name>
ligand

>  <RI>
0

>  <Rbt.Current_Directory>
/home/itssahil/PROJECTS/Mol_Feturizer/New_Systems/rnas/2HOJ

>  <Rbt.Executable>
rbdock ($Id: //depot/dev/client3/rdock/2013.1/src/exe/rbdock.cxx#4 $)

>  <Rbt.Library>
libRbt.so (2013.1, Build901 2013/11/27)

>  <Rbt.Parameter_File>
/export/apps/rDock/src/rDock_2013.1_src/data/scripts/dock_solv.prm

>  <Rbt.Receptor>
prm/pocket_docking_2.prm

>  <SCORE>
-12.3155

>  <SCORE.INTER>
-15.448

>  <SCORE.INTER.CONST>
1

>  <SCORE.INTER.POLAR>
-1.29904

>  <SCORE.INTER.ROT>
8

>  <SCORE.INTER.SOLV>
23.7224

>  <SCORE.INTER.VDW>
-22.8093

>  <SCORE.INTER.norm>
-0.594153

>  <SCORE.INTRA>
1.82343

>  <SCORE.INTRA.DIHEDRAL>
2.69786

>  <SCORE.INTRA.DIHEDRAL.0>
11.6398

>  <SCORE.INTRA.POLAR>
0

>  <SCORE.INTRA.POLAR.0>
0

>  <SCORE.INTRA.REPUL>
0

>  <SCORE.INTRA.REPUL.0>
0

>  <SCORE.INTRA.SOLV>
3.95761

>  <SCORE.INTRA.SOLV.lig_0>
-81.722

>  <SCORE.INTRA.VDW>
-1.50431

>  <SCORE.INTRA.VDW.0>
1.12598

>  <SCORE.INTRA.norm>
0.0701319

>  <SCORE.RESTR>
1.30904

>  <SCORE.RESTR.CAVITY>
1.30904

>  <SCORE.RESTR.norm>
0.0503476

>  <SCORE.SYSTEM>
0

>  <SCORE.SYSTEM.CONST>
0

>  <SCORE.SYSTEM.DIHEDRAL>
0

>  <SCORE.SYSTEM.SOLV>
0

>  <SCORE.SYSTEM.norm>
0

>  <SCORE.heavy>
26

>  <SCORE.norm>
-0.473674

>  <RMSD>
1.941

$$$$
ligand
 OpenBabel11021811433D
libRbt.so/2013.1/901 2013/11/27
 26 27  0  0  0  0  0  0  0  0999 V2000
   15.9442   39.7621   63.9896 C   0  0  0  0  0  0  0  0  0  0  0  0
   23.3878   40.7601   66.0913 C   0  0  0  0  0  0  0  0  0  0  0  0
   28.0606   38.4209   65.9959 P   0  0  1  0  0  0  0  0  0  0  0  0
   30.0192   38.7397   67.6540 P   0  0  1  0  0  0  0  0  0  0  0  0
   20.7332   40.5356   66.9703 C   0  0  0  0  0  0  0  0  0  0  0  0
   18.8444   39.0999   66.1442 C   0  0  0  0  0  0  0  0  0  0  0  0
   19.4657   40.3323   66.1809 C   0  0  0  0  0  0  0  0  0  0  0  0
   18.8897   41.3855   65.4684 C   0  0  0  0  0  0  0  0  0  0  0  0
   19.4752   42.6428   65.4726 N   0  0  0  0  0  0  0  0  0  0  0  0
   17.7737   41.1640   64.7801 N   0  0  0  0  0  0  0  0  0  0  0  0
   17.2114   39.9729   64.7764 C   0  0  0  0  0  0  0  0  0  0  0  0
   17.7303   38.9574   65.4387 N   0  0  0  0  0  0  0  0  0  0  0  0
   27.8986   39.8853   66.1404 O   0  5  0  0  0  0  0  0  0  0  0  0
   31.3361   38.1215   68.1735 O   0  0  0  0  0  0  0  0  0  0  0  0
   22.3651   37.0828   66.9710 S   0  0  0  0  0  0  0  0  0  0  0  0
   21.0364   38.1718   67.2278 C   0  0  0  0  0  0  0  0  0  0  0  0
   27.6558   37.9803   64.5027 O   0  0  0  0  0  0  0  0  0  0  0  0
   30.2290   40.3144   67.3965 O   0  5  0  0  0  0  0  0  0  0  0  0
   21.5582   39.3282   66.8898 N   0  0  0  0  0  0  0  0  0  0  0  0
   29.5952   38.0211   66.2765 O   0  0  0  0  0  0  0  0  0  0  0  0
   28.9051   38.5340   68.7050 O   0  0  0  0  0  0  0  0  0  0  0  0
   22.8033   39.4247   66.4774 C   0  0  2  0  0  0  0  0  0  0  0  0
   23.5534   38.2952   66.4142 C   0  0  2  0  0  0  0  0  0  0  0  0
   24.9871   38.1137   65.9892 C   0  0  0  0  0  0  0  0  0  0  0  0
   25.9145   38.4440   67.1609 C   0  0  0  0  0  0  0  0  0  0  0  0
   27.1096   37.6677   67.0549 O   0  0  0  0  0  0  0  0  0  0  0  0
  1 11  1  0  0  0  0
  3 13  1  1  0  0  0
  3 17  2  0  0  0  0
  3 20  1  0  0  0  0
  3 26  1  0  0  0  0
  4 14  1  1  0  0  0
  4 18  1  0  0  0  0
  4 21  2  0  0  0  0
  4 20  1  0  0  0  0
  5 19  1  0  0  0  0
  5  7  1  0  0  0  0
  6  7  2  0  0  0  0
  6 12  1  0  0  0  0
  7  8  1  0  0  0  0
  8  9  1  0  0  0  0
  8 10  2  0  0  0  0
 10 11  1  0  0  0  0
 11 12  2  0  0  0  0
 15 23  1  0  0  0  0
 15 16  1  0  0  0  0
 16 19  1  0  0  0  0
 19 22  1  0  0  0  0
 22  2  1  1  0  0  0
 22 23  1  0  0  0  0
 23 24  1  6  0  0  0
 24 25  1  0  0  0  0
 25 26  1  0  0  0  0
M  CHG  2  13  -1  18  -1
M  END
>  <CHROM.1>
48.99847326,-54.21210741,35.96115005,165.53145319,-97.68423318,150.18105442
81.03287053,35.75163246,24.22179951,39.09973897,66.41007952,2.98301757,-0.11870696
-0.20168735

>  <Name>
ligand

>  <RI>
0

>  <Rbt.Current_Directory>
/home/itssahil/PROJECTS/Mol_Feturizer/New_Systems/rnas/2HOJ

>  <Rbt.Executable>
rbdock ($Id: //depot/dev/client3/rdock/2013.1/src/exe/rbdock.cxx#4 $)

>  <Rbt.Library>
libRbt.so (2013.1, Build901 2013/11/27)

>  <Rbt.Parameter_File>
/export/apps/rDock/src/rDock_2013.1_src/data/scripts/dock_solv.prm

>  <Rbt.Receptor>
prm/pocket_docking_3.prm

>  <SCORE>
-24.9754

>  <SCORE.INTER>
-27.0767

>  <SCORE.INTER.CONST>
1

>  <SCORE.INTER.POLAR>
-2.65887

>  <SCORE.INTER.ROT>
8

>  <SCORE.INTER.SOLV>
24.7922

>  <SCORE.INTER.VDW>
-26.3856

>  <SCORE.INTER.norm>
-1.04141

>  <SCORE.INTRA>
1.70137

>  <SCORE.INTRA.DIHEDRAL>
-0.814676

>  <SCORE.INTRA.DIHEDRAL.0>
11.6398

>  <SCORE.INTRA.POLAR>
0

>  <SCORE.INTRA.POLAR.0>
0

>  <SCORE.INTRA.REPUL>
0

>  <SCORE.INTRA.REPUL.0>
0

>  <SCORE.INTRA.SOLV>
4.31018

>  <SCORE.INTRA.SOLV.lig_0>
-81.722

>  <SCORE.INTRA.VDW>
-0.0463823

>  <SCORE.INTRA.VDW.0>
1.12598

>  <SCORE.INTRA.norm>
0.0654373

>  <SCORE.RESTR>
0.399864

>  <SCORE.RESTR.CAVITY>
0.399864

>  <SCORE.RESTR.norm>
0.0153794

>  <SCORE.SYSTEM>
0

>  <SCORE.SYSTEM.CONST>
0

>  <SCORE.SYSTEM.DIHEDRAL>
0

>  <SCORE.SYSTEM.SOLV>
0

>  <SCORE.SYSTEM.norm>
0

>  <SCORE.heavy>
26

>  <SCORE.norm>
-0.960594

>  <RMSD>
1.953

$$$$
ligand
 OpenBabel11021811433D
libRbt.so/2013.1/901 2013/11/27
 26 27  0  0  0  0  0  0  0  0999 V2000
   16.1732   39.2681   64.3214 C   0  0  0  0  0  0  0  0  0  0  0  0
   21.8125   39.4772   68.7278 C   0  0  0  0  0  0  0  0  0  0  0  0
   27.3757   39.0402   69.0965 P   0  0  1  0  0  0  0  0  0  0  0  0
   28.8594   38.7840   66.9942 P   0  0  1  0  0  0  0  0  0  0  0  0
   21.0437   41.1380   66.6017 C   0  0  0  0  0  0  0  0  0  0  0  0
   19.4458   39.2987   65.9891 C   0  0  0  0  0  0  0  0  0  0  0  0
   19.7542   40.6445   65.9977 C   0  0  0  0  0  0  0  0  0  0  0  0
   18.8409   41.5366   65.4331 C   0  0  0  0  0  0  0  0  0  0  0  0
   19.1040   42.8982   65.4163 N   0  0  0  0  0  0  0  0  0  0  0  0
   17.7167   41.0607   64.9058 N   0  0  0  0  0  0  0  0  0  0  0  0
   17.4602   39.7688   64.9233 C   0  0  0  0  0  0  0  0  0  0  0  0
   18.3020   38.9002   65.4486 N   0  0  0  0  0  0  0  0  0  0  0  0
   27.1994   38.5907   70.4960 O   0  5  0  0  0  0  0  0  0  0  0  0
   28.0496   37.6079   66.4047 O   0  0  0  0  0  0  0  0  0  0  0  0
   23.8092   38.7786   65.4312 S   0  0  0  0  0  0  0  0  0  0  0  0
   22.6587   40.0588   65.1971 C   0  0  0  0  0  0  0  0  0  0  0  0
   27.1519   40.6309   69.0109 O   0  0  0  0  0  0  0  0  0  0  0  0
   28.1875   40.1767   66.5480 O   0  5  0  0  0  0  0  0  0  0  0  0
   22.0980   40.1457   66.3811 N   0  0  0  0  0  0  0  0  0  0  0  0
   28.8651   38.6799   68.6013 O   0  0  0  0  0  0  0  0  0  0  0  0
   30.3117   38.7220   66.4699 O   0  0  0  0  0  0  0  0  0  0  0  0
   22.4652   39.3641   67.3731 C   0  0  2  0  0  0  0  0  0  0  0  0
   23.4406   38.4474   67.1477 C   0  0  2  0  0  0  0  0  0  0  0  0
   24.0463   37.4356   68.0847 C   0  0  0  0  0  0  0  0  0  0  0  0
   25.1241   38.1082   68.9380 C   0  0  0  0  0  0  0  0  0  0  0  0
   26.3038   38.2953   68.1536 O   0  0  0  0  0  0  0  0  0  0  0  0
  1 11  1  0  0  0  0
  3 13  1  1  0  0  0
  3 17  2  0  0  0  0
  3 20  1  0  0  0  0
  3 26  1  0  0  0  0
  4 14  1  6  0  0  0
  4 18  1  0  0  0  0
  4 21  2  0  0  0  0
  4 20  1  0  0  0  0
  5 19  1  0  0  0  0
  5  7  1  0  0  0  0
  6  7  2  0  0  0  0
  6 12  1  0  0  0  0
  7  8  1  0  0  0  0
  8  9  1  0  0  0  0
  8 10  2  0  0  0  0
 10 11  1  0  0  0  0
 11 12  2  0  0  0  0
 15 23  1  0  0  0  0
 15 16  1  0  0  0  0
 16 19  1  0  0  0  0
 19 22  1  0  0  0  0
 22  2  1  6  0  0  0
 22 23  1  0  0  0  0
 23 24  1  1  0  0  0
 24 25  1  0  0  0  0
 25 26  1  0  0  0  0
M  CHG  2  13  -1  18  -1
M  END
>  <CHROM.1>
163.67293488,77.31736478,33.90057081,-71.02036582,97.52735872,-76.40488893
178.47168357,33.41734815,23.93288214,39.38508092,66.94900337,-2.86452666
-0.11425082,1.71933825

>  <Name>
ligand

>  <RI>
0

>  <Rbt.Current_Directory>
/home/itssahil/PROJECTS/Mol_Feturizer/New_Systems/rnas/2HOJ

>  <Rbt.Executable>
rbdock ($Id: //depot/dev/client3/rdock/2013.1/src/exe/rbdock.cxx#4 $)

>  <Rbt.Library>
libRbt.so (2013.1, Build901 2013/11/27)

>  <Rbt.Parameter_File>
/export/apps/rDock/src/rDock_2013.1_src/data/scripts/dock_solv.prm

>  <Rbt.Receptor>
prm/pocket_docking_2.prm

>  <SCORE>
-20.5261

>  <SCORE.INTER>
-15.8192

>  <SCORE.INTER.CONST>
1

>  <SCORE.INTER.POLAR>
0

>  <SCORE.INTER.ROT>
8

>  <SCORE.INTER.SOLV>
22.7298

>  <SCORE.INTER.VDW>
-27.0561

>  <SCORE.INTER.norm>
-0.608432

>  <SCORE.INTRA>
-5.14731

>  <SCORE.INTRA.DIHEDRAL>
-4.34053

>  <SCORE.INTRA.DIHEDRAL.0>
11.6398

>  <SCORE.INTRA.POLAR>
0

>  <SCORE.INTRA.POLAR.0>
0

>  <SCORE.INTRA.REPUL>
0

>  <SCORE.INTRA.REPUL.0>
0

>  <SCORE.INTRA.SOLV>
-0.0420413

>  <SCORE.INTRA.SOLV.lig_0>
-81.722

>  <SCORE.INTRA.VDW>
-2.95603

>  <SCORE.INTRA.VDW.0>
1.12598

>  <SCORE.INTRA.norm>
-0.197974

>  <SCORE.RESTR>
0.440409

>  <SCORE.RESTR.CAVITY>
0.440409

>  <SCORE.RESTR.norm>
0.0169388

>  <SCORE.SYSTEM>
0

>  <SCORE.SYSTEM.CONST>
0

>  <SCORE.SYSTEM.DIHEDRAL>
0

>  <SCORE.SYSTEM.SOLV>
0

>  <SCORE.SYSTEM.norm>
0

>  <SCORE.heavy>
26

>  <SCORE.norm>
-0.789466

>  <RMSD>
1.955

$$$$
ligand
 OpenBabel11021811433D
libRbt.so/2013.1/901 2013/11/27
 26 27  0  0  0  0  0  0  0  0999 V2000
   15.6088   38.7860   63.8869 C   0  0  0  0  0  0  0  0  0  0  0  0
   23.0977   41.0578   66.8195 C   0  0  0  0  0  0  0  0  0  0  0  0
   27.3143   39.1482   67.9115 P   0  0  1  0  0  0  0  0  0  0  0  0
   29.4293   37.8573   67.1716 P   0  0  1  0  0  0  0  0  0  0  0  0
   20.3548   40.8314   66.2766 C   0  0  0  0  0  0  0  0  0  0  0  0
   19.0276   38.9807   65.2158 C   0  0  0  0  0  0  0  0  0  0  0  0
   19.0979   40.2914   65.6442 C   0  0  0  0  0  0  0  0  0  0  0  0
   17.9750   41.1036   65.4770 C   0  0  0  0  0  0  0  0  0  0  0  0
   17.9949   42.4274   65.8901 N   0  0  0  0  0  0  0  0  0  0  0  0
   16.8870   40.5907   64.9100 N   0  0  0  0  0  0  0  0  0  0  0  0
   16.8617   39.3329   64.5199 C   0  0  0  0  0  0  0  0  0  0  0  0
   17.9054   38.5397   64.6633 N   0  0  0  0  0  0  0  0  0  0  0  0
   26.6977   40.0009   68.9528 O   0  5  0  0  0  0  0  0  0  0  0  0
   28.5656   36.5856   67.0201 O   0  0  0  0  0  0  0  0  0  0  0  0
   21.5113   37.7780   68.2576 S   0  0  0  0  0  0  0  0  0  0  0  0
   20.3167   38.7320   67.4330 C   0  0  0  0  0  0  0  0  0  0  0  0
   27.3330   39.9392   66.5109 O   0  0  0  0  0  0  0  0  0  0  0  0
   29.4300   38.6753   65.7856 O   0  5  0  0  0  0  0  0  0  0  0  0
   21.0187   39.7663   67.0313 N   0  0  0  0  0  0  0  0  0  0  0  0
   28.8225   38.7824   68.3419 O   0  0  0  0  0  0  0  0  0  0  0  0
   30.8771   37.4554   67.5327 O   0  0  0  0  0  0  0  0  0  0  0  0
   22.3047   39.8642   67.2888 C   0  0  2  0  0  0  0  0  0  0  0  0
   22.9011   38.8693   67.9939 C   0  0  2  0  0  0  0  0  0  0  0  0
   24.3357   38.7238   68.4292 C   0  0  0  0  0  0  0  0  0  0  0  0
   25.1694   38.1725   67.2703 C   0  0  0  0  0  0  0  0  0  0  0  0
   26.4601   37.7924   67.7516 O   0  0  0  0  0  0  0  0  0  0  0  0
  1 11  1  0  0  0  0
  3 13  1  1  0  0  0
  3 17  2  0  0  0  0
  3 20  1  0  0  0  0
  3 26  1  0  0  0  0
  4 14  1  6  0  0  0
  4 18  1  0  0  0  0
  4 21  2  0  0  0  0
  4 20  1  0  0  0  0
  5 19  1  0  0  0  0
  5  7  1  0  0  0  0
  6  7  2  0  0  0  0
  6 12  1  0  0  0  0
  7  8  1  0  0  0  0
  8  9  1  0  0  0  0
  8 10  2  0  0  0  0
 10 11  1  0  0  0  0
 11 12  2  0  0  0  0
 15 23  1  0  0  0  0
 15 16  1  0  0  0  0
 16 19  1  0  0  0  0
 19 22  1  0  0  0  0
 22  2  1  1  0  0  0
 22 23  1  0  0  0  0
 23 24  1  6  0  0  0
 24 25  1  0  0  0  0
 25 26  1  0  0  0  0
M  CHG  2  13  -1  18  -1
M  END
>  <CHROM.1>
179.94493171,-22.02137561,-33.02381852,-59.41110959,98.04857954,-168.87465671
-78.13836049,64.47878577,23.61480108,39.07736269,66.86148317,3.00526471,-0.19292840
0.04806449

>  <Name>
ligand

>  <RI>
0

>  <Rbt.Current_Directory>
/home/itssahil/PROJECTS/Mol_Feturizer/New_Systems/rnas/2HOJ

>  <Rbt.Executable>
rbdock ($Id: //depot/dev/client3/rdock/2013.1/src/exe/rbdock.cxx#4 $)

>  <Rbt.Library>
libRbt.so (2013.1, Build901 2013/11/27)

>  <Rbt.Parameter_File>
/export/apps/rDock/src/rDock_2013.1_src/data/scripts/dock_solv.prm

>  <Rbt.Receptor>
prm/pocket_docking_3.prm

>  <SCORE>
-20.3623

>  <SCORE.INTER>
-19.9115

>  <SCORE.INTER.CONST>
1

>  <SCORE.INTER.POLAR>
-1.71847

>  <SCORE.INTER.ROT>
8

>  <SCORE.INTER.SOLV>
26.6626

>  <SCORE.INTER.VDW>
-25.367

>  <SCORE.INTER.norm>
-0.765826

>  <SCORE.INTRA>
-0.450786

>  <SCORE.INTRA.DIHEDRAL>
-4.91423

>  <SCORE.INTRA.DIHEDRAL.0>
11.6398

>  <SCORE.INTRA.POLAR>
0

>  <SCORE.INTRA.POLAR.0>
0

>  <SCORE.INTRA.REPUL>
0

>  <SCORE.INTRA.REPUL.0>
0

>  <SCORE.INTRA.SOLV>
1.6988

>  <SCORE.INTRA.SOLV.lig_0>
-81.722

>  <SCORE.INTRA.VDW>
1.15693

>  <SCORE.INTRA.VDW.0>
1.12598

>  <SCORE.INTRA.norm>
-0.0173379

>  <SCORE.RESTR>
0

>  <SCORE.RESTR.CAVITY>
0

>  <SCORE.RESTR.norm>
0

>  <SCORE.SYSTEM>
0

>  <SCORE.SYSTEM.CONST>
0

>  <SCORE.SYSTEM.DIHEDRAL>
0

>  <SCORE.SYSTEM.SOLV>
0

>  <SCORE.SYSTEM.norm>
0

>  <SCORE.heavy>
26

>  <SCORE.norm>
-0.783164

>  <RMSD>
1.979

$$$$
ligand
 OpenBabel11021811433D
libRbt.so/2013.1/901 2013/11/27
 26 27  0  0  0  0  0  0  0  0999 V2000
   15.5317   39.0744   63.9937 C   0  0  0  0  0  0  0  0  0  0  0  0
   22.7675   40.7772   67.9654 C   0  0  0  0  0  0  0  0  0  0  0  0
   28.2025   38.2927   66.6296 P   0  0  1  0  0  0  0  0  0  0  0  0
   30.6032   38.9343   67.3450 P   0  0  1  0  0  0  0  0  0  0  0  0
   20.3970   40.6955   66.4675 C   0  0  0  0  0  0  0  0  0  0  0  0
   18.6698   38.9618   65.8995 C   0  0  0  0  0  0  0  0  0  0  0  0
   19.1090   40.2678   65.8122 C   0  0  0  0  0  0  0  0  0  0  0  0
   18.3296   41.1823   65.1017 C   0  0  0  0  0  0  0  0  0  0  0  0
   18.7271   42.5058   64.9842 N   0  0  0  0  0  0  0  0  0  0  0  0
   17.2022   40.7642   64.5337 N   0  0  0  0  0  0  0  0  0  0  0  0
   16.8181   39.5093   64.6461 C   0  0  0  0  0  0  0  0  0  0  0  0
   17.5316   38.6209   65.3100 N   0  0  0  0  0  0  0  0  0  0  0  0
   28.4445   36.9480   66.0597 O   0  5  0  0  0  0  0  0  0  0  0  0
   30.2130   39.5204   68.7200 O   0  0  0  0  0  0  0  0  0  0  0  0
   22.6938   37.8517   65.3620 S   0  0  0  0  0  0  0  0  0  0  0  0
   21.2277   38.7804   65.2892 C   0  0  0  0  0  0  0  0  0  0  0  0
   28.0501   38.1798   68.2271 O   0  0  0  0  0  0  0  0  0  0  0  0
   30.7895   37.3409   67.4727 O   0  5  0  0  0  0  0  0  0  0  0  0
   21.4322   39.6914   66.2124 N   0  0  0  0  0  0  0  0  0  0  0  0
   29.4432   39.2563   66.2752 O   0  0  0  0  0  0  0  0  0  0  0  0
   31.9295   39.5713   66.8724 O   0  0  0  0  0  0  0  0  0  0  0  0
   22.5470   39.7236   66.9094 C   0  0  2  0  0  0  0  0  0  0  0  0
   23.4924   38.7816   66.6618 C   0  0  2  0  0  0  0  0  0  0  0  0
   24.8409   38.5791   67.3017 C   0  0  0  0  0  0  0  0  0  0  0  0
   25.8067   37.9734   66.2808 C   0  0  0  0  0  0  0  0  0  0  0  0
   26.8523   38.9071   66.0031 O   0  0  0  0  0  0  0  0  0  0  0  0
  1 11  1  0  0  0  0
  3 13  1  6  0  0  0
  3 17  2  0  0  0  0
  3 20  1  0  0  0  0
  3 26  1  0  0  0  0
  4 14  1  1  0  0  0
  4 18  1  0  0  0  0
  4 21  2  0  0  0  0
  4 20  1  0  0  0  0
  5 19  1  0  0  0  0
  5  7  1  0  0  0  0
  6  7  2  0  0  0  0
  6 12  1  0  0  0  0
  7  8  1  0  0  0  0
  8  9  1  0  0  0  0
  8 10  2  0  0  0  0
 10 11  1  0  0  0  0
 11 12  2  0  0  0  0
 15 23  1  0  0  0  0
 15 16  1  0  0  0  0
 16 19  1  0  0  0  0
 19 22  1  0  0  0  0
 22  2  1  1  0  0  0
 22 23  1  0  0  0  0
 23 24  1  6  0  0  0
 24 25  1  0  0  0  0
 25 26  1  0  0  0  0
M  CHG  2  13  -1  18  -1
M  END
>  <CHROM.1>
-81.08888152,13.90386783,43.82913586,-73.26405154,30.67364478,114.83272171
111.06899723,56.70359848,24.25699842,39.11202964,66.30911967,3.09208960,-0.19939529
0.34352978

>  <Name>
ligand

>  <RI>
0

>  <Rbt.Current_Directory>
/home/itssahil/PROJECTS/Mol_Feturizer/New_Systems/rnas/2HOJ

>  <Rbt.Executable>
rbdock ($Id: //depot/dev/client3/rdock/2013.1/src/exe/rbdock.cxx#4 $)

>  <Rbt.Library>
libRbt.so (2013.1, Build901 2013/11/27)

>  <Rbt.Parameter_File>
/export/apps/rDock/src/rDock_2013.1_src/data/scripts/dock_solv.prm

>  <Rbt.Receptor>
prm/pocket_docking_3.prm

>  <SCORE>
-22.4166

>  <SCORE.INTER>
-26.6074

>  <SCORE.INTER.CONST>
1

>  <SCORE.INTER.POLAR>
-2.7577

>  <SCORE.INTER.ROT>
8

>  <SCORE.INTER.SOLV>
32.181

>  <SCORE.INTER.VDW>
-28.2063

>  <SCORE.INTER.norm>
-1.02336

>  <SCORE.INTRA>
4.19045

>  <SCORE.INTRA.DIHEDRAL>
6.42436

>  <SCORE.INTRA.DIHEDRAL.0>
11.6398

>  <SCORE.INTRA.POLAR>
0

>  <SCORE.INTRA.POLAR.0>
0

>  <SCORE.INTRA.REPUL>
0

>  <SCORE.INTRA.REPUL.0>
0

>  <SCORE.INTRA.SOLV>
2.21483

>  <SCORE.INTRA.SOLV.lig_0>
-81.722

>  <SCORE.INTRA.VDW>
-0.12914

>  <SCORE.INTRA.VDW.0>
1.12598

>  <SCORE.INTRA.norm>
0.161171

>  <SCORE.RESTR>
0.000378736

>  <SCORE.RESTR.CAVITY>
0.000378736

>  <SCORE.RESTR.norm>
1.45668e-05

>  <SCORE.SYSTEM>
0

>  <SCORE.SYSTEM.CONST>
0

>  <SCORE.SYSTEM.DIHEDRAL>
0

>  <SCORE.SYSTEM.SOLV>
0

>  <SCORE.SYSTEM.norm>
0

>  <SCORE.heavy>
26

>  <SCORE.norm>
-0.862177

>  <RMSD>
1.990

$$$$
ligand
 OpenBabel11021811433D
libRbt.so/2013.1/901 2013/11/27
 26 27  0  0  0  0  0  0  0  0999 V2000
   16.4485   39.2913   64.3329 C   0  0  0  0  0  0  0  0  0  0  0  0
   22.3211   39.7235   68.8240 C   0  0  0  0  0  0  0  0  0  0  0  0
   27.3638   40.8378   68.0538 P   0  0  1  0  0  0  0  0  0  0  0  0
   29.1264   40.8968   66.1626 P   0  0  1  0  0  0  0  0  0  0  0  0
   21.0742   41.3674   66.9234 C   0  0  0  0  0  0  0  0  0  0  0  0
   19.5885   39.4635   66.2311 C   0  0  0  0  0  0  0  0  0  0  0  0
   19.8495   40.8193   66.2373 C   0  0  0  0  0  0  0  0  0  0  0  0
   18.9499   41.6696   65.5920 C   0  0  0  0  0  0  0  0  0  0  0  0
   19.1671   43.0392   65.5693 N   0  0  0  0  0  0  0  0  0  0  0  0
   17.8837   41.1462   64.9940 N   0  0  0  0  0  0  0  0  0  0  0  0
   17.6707   39.8465   65.0166 C   0  0  0  0  0  0  0  0  0  0  0  0
   18.5011   39.0165   65.6170 N   0  0  0  0  0  0  0  0  0  0  0  0
   28.4594   40.5443   69.0052 O   0  5  0  0  0  0  0  0  0  0  0  0
   30.1921   40.5608   67.2292 O   0  0  0  0  0  0  0  0  0  0  0  0
   24.0515   39.5995   65.3122 S   0  0  0  0  0  0  0  0  0  0  0  0
   22.6891   40.6769   65.2920 C   0  0  0  0  0  0  0  0  0  0  0  0
   26.1935   41.6392   68.8127 O   0  0  0  0  0  0  0  0  0  0  0  0
   28.5401   39.5335   65.5399 O   0  5  0  0  0  0  0  0  0  0  0  0
   22.2479   40.5871   66.5253 N   0  0  0  0  0  0  0  0  0  0  0  0
   27.9314   41.7351   66.8429 O   0  0  0  0  0  0  0  0  0  0  0  0
   29.7712   41.7400   65.0395 O   0  0  0  0  0  0  0  0  0  0  0  0
   22.8391   39.8149   67.4108 C   0  0  2  0  0  0  0  0  0  0  0  0
   23.9225   39.0957   67.0215 C   0  0  2  0  0  0  0  0  0  0  0  0
   24.7796   38.1417   67.8115 C   0  0  0  0  0  0  0  0  0  0  0  0
   25.9242   38.9107   68.4751 C   0  0  0  0  0  0  0  0  0  0  0  0
   26.7770   39.4577   67.4673 O   0  0  0  0  0  0  0  0  0  0  0  0
  1 11  1  0  0  0  0
  3 13  1  1  0  0  0
  3 17  2  0  0  0  0
  3 20  1  0  0  0  0
  3 26  1  0  0  0  0
  4 14  1  1  0  0  0
  4 18  1  0  0  0  0
  4 21  2  0  0  0  0
  4 20  1  0  0  0  0
  5 19  1  0  0  0  0
  5  7  1  0  0  0  0
  6  7  2  0  0  0  0
  6 12  1  0  0  0  0
  7  8  1  0  0  0  0
  8  9  1  0  0  0  0
  8 10  2  0  0  0  0
 10 11  1  0  0  0  0
 11 12  2  0  0  0  0
 15 23  1  0  0  0  0
 15 16  1  0  0  0  0
 16 19  1  0  0  0  0
 19 22  1  0  0  0  0
 22  2  1  6  0  0  0
 22 23  1  0  0  0  0
 23 24  1  1  0  0  0
 24 25  1  0  0  0  0
 25 26  1  0  0  0  0
M  CHG  2  13  -1  18  -1
M  END
>  <CHROM.1>
58.09151141,69.16595810,47.75808866,-56.83897946,90.40897329,-64.38689997
147.93465281,78.24875322,24.18052029,40.37536411,66.61099666,-3.01721559
0.09053791,2.01602004

>  <Name>
ligand

>  <RI>
0

>  <Rbt.Current_Directory>
/home/itssahil/PROJECTS/Mol_Feturizer/New_Systems/rnas/2HOJ

>  <Rbt.Executable>
rbdock ($Id: //depot/dev/client3/rdock/2013.1/src/exe/rbdock.cxx#4 $)

>  <Rbt.Library>
libRbt.so (2013.1, Build901 2013/11/27)

>  <Rbt.Parameter_File>
/export/apps/rDock/src/rDock_2013.1_src/data/scripts/dock_solv.prm

>  <Rbt.Receptor>
prm/pocket_docking_3.prm

>  <SCORE>
-22.4318

>  <SCORE.INTER>
-17.7816

>  <SCORE.INTER.CONST>
1

>  <SCORE.INTER.POLAR>
-2.10502

>  <SCORE.INTER.ROT>
8

>  <SCORE.INTER.SOLV>
26.4752

>  <SCORE.INTER.VDW>
-22.5961

>  <SCORE.INTER.norm>
-0.683909

>  <SCORE.INTRA>
-4.65129

>  <SCORE.INTRA.DIHEDRAL>
-2.20732

>  <SCORE.INTRA.DIHEDRAL.0>
11.6398

>  <SCORE.INTRA.POLAR>
0

>  <SCORE.INTRA.POLAR.0>
0

>  <SCORE.INTRA.REPUL>
0

>  <SCORE.INTRA.REPUL.0>
0

>  <SCORE.INTRA.SOLV>
0.579235

>  <SCORE.INTRA.SOLV.lig_0>
-81.722

>  <SCORE.INTRA.VDW>
-3.83725

>  <SCORE.INTRA.VDW.0>
1.12598

>  <SCORE.INTRA.norm>
-0.178896

>  <SCORE.RESTR>
0.0011189

>  <SCORE.RESTR.CAVITY>
0.0011189

>  <SCORE.RESTR.norm>
4.30347e-05

>  <SCORE.SYSTEM>
0

>  <SCORE.SYSTEM.CONST>
0

>  <SCORE.SYSTEM.DIHEDRAL>
0

>  <SCORE.SYSTEM.SOLV>
0

>  <SCORE.SYSTEM.norm>
0

>  <SCORE.heavy>
26

>  <SCORE.norm>
-0.862762

>  <RMSD>
2.019

$$$$
ligand
 OpenBabel11021811433D
libRbt.so/2013.1/901 2013/11/27
 26 27  0  0  0  0  0  0  0  0999 V2000
   15.5802   38.8869   63.7299 C   0  0  0  0  0  0  0  0  0  0  0  0
   22.4839   42.2095   67.0030 C   0  0  0  0  0  0  0  0  0  0  0  0
   27.3717   38.5094   67.6536 P   0  0  1  0  0  0  0  0  0  0  0  0
   29.9318   38.8575   67.5447 P   0  0  1  0  0  0  0  0  0  0  0  0
   20.0508   40.8576   66.6536 C   0  0  0  0  0  0  0  0  0  0  0  0
   18.4637   39.0226   66.0012 C   0  0  0  0  0  0  0  0  0  0  0  0
   18.8674   40.3373   65.8791 C   0  0  0  0  0  0  0  0  0  0  0  0
   18.1511   41.1726   65.0201 C   0  0  0  0  0  0  0  0  0  0  0  0
   18.5166   42.5011   64.8618 N   0  0  0  0  0  0  0  0  0  0  0  0
   17.1160   40.6739   64.3507 N   0  0  0  0  0  0  0  0  0  0  0  0
   16.7622   39.4140   64.5008 C   0  0  0  0  0  0  0  0  0  0  0  0
   17.4179   38.5991   65.3040 N   0  0  0  0  0  0  0  0  0  0  0  0
   27.6113   37.4387   66.6597 O   0  5  0  0  0  0  0  0  0  0  0  0
   29.7967   37.5653   68.3802 O   0  0  0  0  0  0  0  0  0  0  0  0
   22.8745   38.8074   65.1015 S   0  0  0  0  0  0  0  0  0  0  0  0
   21.2125   39.0961   65.5162 C   0  0  0  0  0  0  0  0  0  0  0  0
   27.4026   37.8839   69.1353 O   0  0  0  0  0  0  0  0  0  0  0  0
   30.3658   38.4830   66.0409 O   0  5  0  0  0  0  0  0  0  0  0  0
   21.2792   40.2528   66.1339 N   0  0  0  0  0  0  0  0  0  0  0  0
   28.5195   39.6312   67.5201 O   0  0  0  0  0  0  0  0  0  0  0  0
   31.0064   39.7695   68.1785 O   0  0  0  0  0  0  0  0  0  0  0  0
   22.4239   40.8808   66.2924 C   0  0  2  0  0  0  0  0  0  0  0  0
   23.5521   40.3019   65.8081 C   0  0  2  0  0  0  0  0  0  0  0  0
   24.9777   40.7864   65.8508 C   0  0  0  0  0  0  0  0  0  0  0  0
   25.9201   39.5919   66.0151 C   0  0  0  0  0  0  0  0  0  0  0  0
   25.9333   39.1813   67.3838 O   0  0  0  0  0  0  0  0  0  0  0  0
  1 11  1  0  0  0  0
  3 13  1  6  0  0  0
  3 17  2  0  0  0  0
  3 20  1  0  0  0  0
  3 26  1  0  0  0  0
  4 14  1  1  0  0  0
  4 18  1  0  0  0  0
  4 21  2  0  0  0  0
  4 20  1  0  0  0  0
  5 19  1  0  0  0  0
  5  7  1  0  0  0  0
  6  7  2  0  0  0  0
  6 12  1  0  0  0  0
  7  8  1  0  0  0  0
  8  9  1  0  0  0  0
  8 10  2  0  0  0  0
 10 11  1  0  0  0  0
 11 12  2  0  0  0  0
 15 23  1  0  0  0  0
 15 16  1  0  0  0  0
 16 19  1  0  0  0  0
 19 22  1  0  0  0  0
 22  2  1  1  0  0  0
 22 23  1  0  0  0  0
 23 24  1  6  0  0  0
 24 25  1  0  0  0  0
 25 26  1  0  0  0  0
M  CHG  2  13  -1  18  -1
M  END
>  <CHROM.1>
-50.40869912,-24.48890706,69.17346525,-29.40392199,-35.36242246,-79.11090133
-152.06421424,-54.03365767,23.91264120,39.48447556,66.37425656,3.03737738
-0.23684981,0.08903085

>  <Name>
ligand

>  <RI>
0

>  <Rbt.Current_Directory>
/home/itssahil/PROJECTS/Mol_Feturizer/New_Systems/rnas/2HOJ

>  <Rbt.Executable>
rbdock ($Id: //depot/dev/client3/rdock/2013.1/src/exe/rbdock.cxx#4 $)

>  <Rbt.Library>
libRbt.so (2013.1, Build901 2013/11/27)

>  <Rbt.Parameter_File>
/export/apps/rDock/src/rDock_2013.1_src/data/scripts/dock_solv.prm

>  <Rbt.Receptor>
prm/pocket_docking_2.prm

>  <SCORE>
-24.0263

>  <SCORE.INTER>
-24.3813

>  <SCORE.INTER.CONST>
1

>  <SCORE.INTER.POLAR>
-2.67381

>  <SCORE.INTER.ROT>
8

>  <SCORE.INTER.SOLV>
28.8809

>  <SCORE.INTER.VDW>
-25.9018

>  <SCORE.INTER.norm>
-0.937744

>  <SCORE.INTRA>
-0.819059

>  <SCORE.INTRA.DIHEDRAL>
-0.773314

>  <SCORE.INTRA.DIHEDRAL.0>
11.6398

>  <SCORE.INTRA.POLAR>
0

>  <SCORE.INTRA.POLAR.0>
0

>  <SCORE.INTRA.REPUL>
0

>  <SCORE.INTRA.REPUL.0>
0

>  <SCORE.INTRA.SOLV>
0.876927

>  <SCORE.INTRA.SOLV.lig_0>
-81.722

>  <SCORE.INTRA.VDW>
-0.870865

>  <SCORE.INTRA.VDW.0>
1.12598

>  <SCORE.INTRA.norm>
-0.0315023

>  <SCORE.RESTR>
1.1741

>  <SCORE.RESTR.CAVITY>
1.1741

>  <SCORE.RESTR.norm>
0.0451576

>  <SCORE.SYSTEM>
0

>  <SCORE.SYSTEM.CONST>
0

>  <SCORE.SYSTEM.DIHEDRAL>
0

>  <SCORE.SYSTEM.SOLV>
0

>  <SCORE.SYSTEM.norm>
0

>  <SCORE.heavy>
26

>  <SCORE.norm>
-0.924088

>  <RMSD>
2.027

$$$$
ligand
 OpenBabel11021811433D
libRbt.so/2013.1/901 2013/11/27
 26 27  0  0  0  0  0  0  0  0999 V2000
   16.3920   39.7766   64.2358 C   0  0  0  0  0  0  0  0  0  0  0  0
   23.4267   42.9498   66.6058 C   0  0  0  0  0  0  0  0  0  0  0  0
   27.5849   39.9654   68.3258 P   0  0  1  0  0  0  0  0  0  0  0  0
   28.3633   37.5141   68.0571 P   0  0  1  0  0  0  0  0  0  0  0  0
   21.1041   41.4210   66.9764 C   0  0  0  0  0  0  0  0  0  0  0  0
   19.4486   39.6683   66.2699 C   0  0  0  0  0  0  0  0  0  0  0  0
   19.8567   40.9871   66.2505 C   0  0  0  0  0  0  0  0  0  0  0  0
   19.0842   41.9087   65.5415 C   0  0  0  0  0  0  0  0  0  0  0  0
   19.4515   43.2451   65.4907 N   0  0  0  0  0  0  0  0  0  0  0  0
   17.9932   41.4851   64.9102 N   0  0  0  0  0  0  0  0  0  0  0  0
   17.6377   40.2177   64.9590 C   0  0  0  0  0  0  0  0  0  0  0  0
   18.3456   39.3223   65.6195 N   0  0  0  0  0  0  0  0  0  0  0  0
   27.0506   40.9684   69.2745 O   0  5  0  0  0  0  0  0  0  0  0  0
   28.1075   37.8486   66.5709 O   0  0  0  0  0  0  0  0  0  0  0  0
   23.7905   39.2658   65.3260 S   0  0  0  0  0  0  0  0  0  0  0  0
   22.2066   39.5371   65.9856 C   0  0  0  0  0  0  0  0  0  0  0  0
   29.1207   40.3074   67.9907 O   0  0  0  0  0  0  0  0  0  0  0  0
   29.9267   37.7024   68.3895 O   0  5  0  0  0  0  0  0  0  0  0  0
   22.2736   40.7952   66.3554 N   0  0  0  0  0  0  0  0  0  0  0  0
   27.4930   38.4998   68.9870 O   0  0  0  0  0  0  0  0  0  0  0  0
   27.9513   36.0504   68.3329 O   0  0  0  0  0  0  0  0  0  0  0  0
   23.3660   41.5055   66.1768 C   0  0  2  0  0  0  0  0  0  0  0  0
   24.4410   40.9064   65.6042 C   0  0  2  0  0  0  0  0  0  0  0  0
   25.8019   41.4691   65.2876 C   0  0  0  0  0  0  0  0  0  0  0  0
   26.7040   41.3509   66.5181 C   0  0  0  0  0  0  0  0  0  0  0  0
   26.7193   39.9948   66.9683 O   0  0  0  0  0  0  0  0  0  0  0  0
  1 11  1  0  0  0  0
  3 13  1  1  0  0  0
  3 17  2  0  0  0  0
  3 20  1  0  0  0  0
  3 26  1  0  0  0  0
  4 14  1  6  0  0  0
  4 18  1  0  0  0  0
  4 21  2  0  0  0  0
  4 20  1  0  0  0  0
  5 19  1  0  0  0  0
  5  7  1  0  0  0  0
  6  7  2  0  0  0  0
  6 12  1  0  0  0  0
  7  8  1  0  0  0  0
  8  9  1  0  0  0  0
  8 10  2  0  0  0  0
 10 11  1  0  0  0  0
 11 12  2  0  0  0  0
 15 23  1  0  0  0  0
 15 16  1  0  0  0  0
 16 19  1  0  0  0  0
 19 22  1  0  0  0  0
 22  2  1  1  0  0  0
 22 23  1  0  0  0  0
 23 24  1  6  0  0  0
 24 25  1  0  0  0  0
 25 26  1  0  0  0  0
M  CHG  2  13  -1  18  -1
M  END
>  <CHROM.1>
-168.16269870,-41.45851717,65.36792077,-41.20080505,-94.34523424,53.98382264
-175.51777125,53.14294415,24.18641849,39.96543359,66.72348613,2.91212640
-0.27248230,-0.02147115

>  <Name>
ligand

>  <RI>
0

>  <Rbt.Current_Directory>
/home/itssahil/PROJECTS/Mol_Feturizer/New_Systems/rnas/2HOJ

>  <Rbt.Executable>
rbdock ($Id: //depot/dev/client3/rdock/2013.1/src/exe/rbdock.cxx#4 $)

>  <Rbt.Library>
libRbt.so (2013.1, Build901 2013/11/27)

>  <Rbt.Parameter_File>
/export/apps/rDock/src/rDock_2013.1_src/data/scripts/dock_solv.prm

>  <Rbt.Receptor>
prm/pocket_docking_8.prm

>  <SCORE>
-28.2342

>  <SCORE.INTER>
-22.9957

>  <SCORE.INTER.CONST>
1

>  <SCORE.INTER.POLAR>
-2.98504

>  <SCORE.INTER.ROT>
8

>  <SCORE.INTER.SOLV>
26.1124

>  <SCORE.INTER.VDW>
-23.0178

>  <SCORE.INTER.norm>
-0.884451

>  <SCORE.INTRA>
-5.23851

>  <SCORE.INTRA.DIHEDRAL>
-5.75571

>  <SCORE.INTRA.DIHEDRAL.0>
11.6398

>  <SCORE.INTRA.POLAR>
0

>  <SCORE.INTRA.POLAR.0>
0

>  <SCORE.INTRA.REPUL>
0

>  <SCORE.INTRA.REPUL.0>
0

>  <SCORE.INTRA.SOLV>
0.426989

>  <SCORE.INTRA.SOLV.lig_0>
-81.722

>  <SCORE.INTRA.VDW>
-2.57415

>  <SCORE.INTRA.VDW.0>
1.12598

>  <SCORE.INTRA.norm>
-0.201481

>  <SCORE.RESTR>
0

>  <SCORE.RESTR.CAVITY>
0

>  <SCORE.RESTR.norm>
0

>  <SCORE.SYSTEM>
0

>  <SCORE.SYSTEM.CONST>
0

>  <SCORE.SYSTEM.DIHEDRAL>
0

>  <SCORE.SYSTEM.SOLV>
0

>  <SCORE.SYSTEM.norm>
0

>  <SCORE.heavy>
26

>  <SCORE.norm>
-1.08593

>  <RMSD>
2.032

$$$$
ligand
 OpenBabel11021811433D
libRbt.so/2013.1/901 2013/11/27
 26 27  0  0  0  0  0  0  0  0999 V2000
   16.1321   39.1755   64.1469 C   0  0  0  0  0  0  0  0  0  0  0  0
   22.1720   40.0217   68.8582 C   0  0  0  0  0  0  0  0  0  0  0  0
   27.7144   38.3859   66.9515 P   0  0  1  0  0  0  0  0  0  0  0  0
   30.2031   38.7561   67.5483 P   0  0  1  0  0  0  0  0  0  0  0  0
   20.6781   41.2860   66.8484 C   0  0  0  0  0  0  0  0  0  0  0  0
   19.2460   39.3680   66.0857 C   0  0  0  0  0  0  0  0  0  0  0  0
   19.4745   40.7288   66.1329 C   0  0  0  0  0  0  0  0  0  0  0  0
   18.5620   41.5755   65.5012 C   0  0  0  0  0  0  0  0  0  0  0  0
   18.7466   42.9500   65.5193 N   0  0  0  0  0  0  0  0  0  0  0  0
   17.5153   41.0443   64.8764 N   0  0  0  0  0  0  0  0  0  0  0  0
   17.3331   39.7398   64.8601 C   0  0  0  0  0  0  0  0  0  0  0  0
   18.1764   38.9130   65.4467 N   0  0  0  0  0  0  0  0  0  0  0  0
   27.9324   39.7385   66.3907 O   0  5  0  0  0  0  0  0  0  0  0  0
   30.5802   39.6158   66.3216 O   0  0  0  0  0  0  0  0  0  0  0  0
   23.6380   39.4608   65.2696 S   0  0  0  0  0  0  0  0  0  0  0  0
   22.2086   40.4457   65.2060 C   0  0  0  0  0  0  0  0  0  0  0  0
   26.7683   37.5404   65.9627 O   0  0  0  0  0  0  0  0  0  0  0  0
   29.5641   39.6959   68.6879 O   0  5  0  0  0  0  0  0  0  0  0  0
   21.8684   40.5203   66.4719 N   0  0  0  0  0  0  0  0  0  0  0  0
   29.1311   37.6368   67.1106 O   0  0  0  0  0  0  0  0  0  0  0  0
   31.4702   38.0657   68.1013 O   0  0  0  0  0  0  0  0  0  0  0  0
   22.5750   39.9256   67.4083 C   0  0  2  0  0  0  0  0  0  0  0  0
   23.6720   39.2165   67.0391 C   0  0  2  0  0  0  0  0  0  0  0  0
   24.6483   38.4426   67.8857 C   0  0  0  0  0  0  0  0  0  0  0  0
   25.8514   39.3277   68.2189 C   0  0  0  0  0  0  0  0  0  0  0  0
   27.0098   38.5094   68.3943 O   0  0  0  0  0  0  0  0  0  0  0  0
  1 11  1  0  0  0  0
  3 13  1  6  0  0  0
  3 17  2  0  0  0  0
  3 20  1  0  0  0  0
  3 26  1  0  0  0  0
  4 14  1  6  0  0  0
  4 18  1  0  0  0  0
  4 21  2  0  0  0  0
  4 20  1  0  0  0  0
  5 19  1  0  0  0  0
  5  7  1  0  0  0  0
  6  7  2  0  0  0  0
  6 12  1  0  0  0  0
  7  8  1  0  0  0  0
  8  9  1  0  0  0  0
  8 10  2  0  0  0  0
 10 11  1  0  0  0  0
 11 12  2  0  0  0  0
 15 23  1  0  0  0  0
 15 16  1  0  0  0  0
 16 19  1  0  0  0  0
 19 22  1  0  0  0  0
 22  2  1  6  0  0  0
 22 23  1  0  0  0  0
 23 24  1  1  0  0  0
 24 25  1  0  0  0  0
 25 26  1  0  0  0  0
M  CHG  2  13  -1  18  -1
M  END
>  <CHROM.1>
36.42901877,58.10749507,46.13679652,-75.95818555,85.05202342,-150.99764678
90.54141673,52.72302673,24.27327726,39.47818729,66.62470527,-3.12627475,-0.23901833
0.79118655

>  <Name>
ligand

>  <RI>
0

>  <Rbt.Current_Directory>
/home/itssahil/PROJECTS/Mol_Feturizer/New_Systems/rnas/2HOJ

>  <Rbt.Executable>
rbdock ($Id: //depot/dev/client3/rdock/2013.1/src/exe/rbdock.cxx#4 $)

>  <Rbt.Library>
libRbt.so (2013.1, Build901 2013/11/27)

>  <Rbt.Parameter_File>
/export/apps/rDock/src/rDock_2013.1_src/data/scripts/dock_solv.prm

>  <Rbt.Receptor>
prm/pocket_docking_2.prm

>  <SCORE>
-26.5736

>  <SCORE.INTER>
-25.4394

>  <SCORE.INTER.CONST>
1

>  <SCORE.INTER.POLAR>
-3.00387

>  <SCORE.INTER.ROT>
8

>  <SCORE.INTER.SOLV>
30.764

>  <SCORE.INTER.VDW>
-26.1347

>  <SCORE.INTER.norm>
-0.978438

>  <SCORE.INTRA>
-1.17165

>  <SCORE.INTRA.DIHEDRAL>
0.884109

>  <SCORE.INTRA.DIHEDRAL.0>
11.6398

>  <SCORE.INTRA.POLAR>
0

>  <SCORE.INTRA.POLAR.0>
0

>  <SCORE.INTRA.REPUL>
0

>  <SCORE.INTRA.REPUL.0>
0

>  <SCORE.INTRA.SOLV>
2.30637

>  <SCORE.INTRA.SOLV.lig_0>
-81.722

>  <SCORE.INTRA.VDW>
-2.76689

>  <SCORE.INTRA.VDW.0>
1.12598

>  <SCORE.INTRA.norm>
-0.0450635

>  <SCORE.RESTR>
0.0374302

>  <SCORE.RESTR.CAVITY>
0.0374302

>  <SCORE.RESTR.norm>
0.00143962

>  <SCORE.SYSTEM>
0

>  <SCORE.SYSTEM.CONST>
0

>  <SCORE.SYSTEM.DIHEDRAL>
0

>  <SCORE.SYSTEM.SOLV>
0

>  <SCORE.SYSTEM.norm>
0

>  <SCORE.heavy>
26

>  <SCORE.norm>
-1.02206

>  <RMSD>
2.043

$$$$
ligand
 OpenBabel11021811433D
libRbt.so/2013.1/901 2013/11/27
 26 27  0  0  0  0  0  0  0  0999 V2000
   16.8117   40.0639   64.6143 C   0  0  0  0  0  0  0  0  0  0  0  0
   23.6616   42.4995   65.4271 C   0  0  0  0  0  0  0  0  0  0  0  0
   28.9283   38.6697   67.3788 P   0  0  1  0  0  0  0  0  0  0  0  0
   29.4561   36.8434   65.6258 P   0  0  1  0  0  0  0  0  0  0  0  0
   21.3748   42.4427   67.0510 C   0  0  0  0  0  0  0  0  0  0  0  0
   20.0896   40.4475   66.2269 C   0  0  0  0  0  0  0  0  0  0  0  0
   20.1665   41.8144   66.4058 C   0  0  0  0  0  0  0  0  0  0  0  0
   19.0961   42.5997   65.9742 C   0  0  0  0  0  0  0  0  0  0  0  0
   19.1248   43.9775   66.1305 N   0  0  0  0  0  0  0  0  0  0  0  0
   18.0503   42.0076   65.4051 N   0  0  0  0  0  0  0  0  0  0  0  0
   18.0164   40.6990   65.2583 C   0  0  0  0  0  0  0  0  0  0  0  0
   19.0109   39.9292   65.6550 N   0  0  0  0  0  0  0  0  0  0  0  0
   28.2129   37.7359   68.2777 O   0  5  0  0  0  0  0  0  0  0  0  0
   28.4351   35.9694   66.3872 O   0  0  0  0  0  0  0  0  0  0  0  0
   23.6908   39.5652   68.0214 S   0  0  0  0  0  0  0  0  0  0  0  0
   22.2412   40.5101   68.1738 C   0  0  0  0  0  0  0  0  0  0  0  0
   29.5247   39.8918   68.2382 O   0  0  0  0  0  0  0  0  0  0  0  0
   28.7060   37.6457   64.4495 O   0  5  0  0  0  0  0  0  0  0  0  0
   22.4092   41.4245   67.2467 N   0  0  0  0  0  0  0  0  0  0  0  0
   30.1321   37.8910   66.6453 O   0  0  0  0  0  0  0  0  0  0  0  0
   30.5516   35.9405   65.0154 O   0  0  0  0  0  0  0  0  0  0  0  0
   23.4838   41.4434   66.4886 C   0  0  2  0  0  0  0  0  0  0  0  0
   24.4335   40.4944   66.6885 C   0  0  2  0  0  0  0  0  0  0  0  0
   25.7461   40.2816   65.9809 C   0  0  0  0  0  0  0  0  0  0  0  0
   26.7927   39.7851   66.9810 C   0  0  0  0  0  0  0  0  0  0  0  0
   27.9067   39.2392   66.2720 O   0  0  0  0  0  0  0  0  0  0  0  0
  1 11  1  0  0  0  0
  3 13  1  1  0  0  0
  3 17  2  0  0  0  0
  3 20  1  0  0  0  0
  3 26  1  0  0  0  0
  4 14  1  1  0  0  0
  4 18  1  0  0  0  0
  4 21  2  0  0  0  0
  4 20  1  0  0  0  0
  5 19  1  0  0  0  0
  5  7  1  0  0  0  0
  6  7  2  0  0  0  0
  6 12  1  0  0  0  0
  7  8  1  0  0  0  0
  8  9  1  0  0  0  0
  8 10  2  0  0  0  0
 10 11  1  0  0  0  0
 11 12  2  0  0  0  0
 15 23  1  0  0  0  0
 15 16  1  0  0  0  0
 16 19  1  0  0  0  0
 19 22  1  0  0  0  0
 22  2  1  1  0  0  0
 22 23  1  0  0  0  0
 23 24  1  6  0  0  0
 24 25  1  0  0  0  0
 25 26  1  0  0  0  0
M  CHG  2  13  -1  18  -1
M  END
>  <CHROM.1>
68.89886448,-72.04586151,7.28024893,-53.13545209,-36.02819532,164.20709951
-177.11579133,53.76978159,24.72497166,39.68637730,66.45911236,2.85117428
-0.24664892,0.57292061

>  <Name>
ligand

>  <RI>
0

>  <Rbt.Current_Directory>
/home/itssahil/PROJECTS/Mol_Feturizer/New_Systems/rnas/2HOJ

>  <Rbt.Executable>
rbdock ($Id: //depot/dev/client3/rdock/2013.1/src/exe/rbdock.cxx#4 $)

>  <Rbt.Library>
libRbt.so (2013.1, Build901 2013/11/27)

>  <Rbt.Parameter_File>
/export/apps/rDock/src/rDock_2013.1_src/data/scripts/dock_solv.prm

>  <Rbt.Receptor>
prm/pocket_docking_4.prm

>  <SCORE>
-21.8312

>  <SCORE.INTER>
-16.5418

>  <SCORE.INTER.CONST>
1

>  <SCORE.INTER.POLAR>
-1.29904

>  <SCORE.INTER.ROT>
8

>  <SCORE.INTER.SOLV>
26.4772

>  <SCORE.INTER.VDW>
-24.4568

>  <SCORE.INTER.norm>
-0.636222

>  <SCORE.INTRA>
-5.2955

>  <SCORE.INTRA.DIHEDRAL>
-5.49915

>  <SCORE.INTRA.DIHEDRAL.0>
11.6398

>  <SCORE.INTRA.POLAR>
0

>  <SCORE.INTRA.POLAR.0>
0

>  <SCORE.INTRA.REPUL>
0

>  <SCORE.INTRA.REPUL.0>
0

>  <SCORE.INTRA.SOLV>
0.0854746

>  <SCORE.INTRA.SOLV.lig_0>
-81.722

>  <SCORE.INTRA.VDW>
-2.58867

>  <SCORE.INTRA.VDW.0>
1.12598

>  <SCORE.INTRA.norm>
-0.203673

>  <SCORE.RESTR>
0.00606349

>  <SCORE.RESTR.CAVITY>
0.00606349

>  <SCORE.RESTR.norm>
0.000233211

>  <SCORE.SYSTEM>
0

>  <SCORE.SYSTEM.CONST>
0

>  <SCORE.SYSTEM.DIHEDRAL>
0

>  <SCORE.SYSTEM.SOLV>
0

>  <SCORE.SYSTEM.norm>
0

>  <SCORE.heavy>
26

>  <SCORE.norm>
-0.839662

>  <RMSD>
2.043

$$$$
ligand
 OpenBabel11021811433D
libRbt.so/2013.1/901 2013/11/27
 26 27  0  0  0  0  0  0  0  0999 V2000
   16.1921   39.9017   64.1022 C   0  0  0  0  0  0  0  0  0  0  0  0
   22.0295   39.6200   65.0290 C   0  0  0  0  0  0  0  0  0  0  0  0
   26.4283   39.0743   66.2615 P   0  0  1  0  0  0  0  0  0  0  0  0
   28.5675   40.4708   66.6619 P   0  0  1  0  0  0  0  0  0  0  0  0
   20.8988   41.2606   67.0038 C   0  0  0  0  0  0  0  0  0  0  0  0
   19.1894   39.6021   66.2043 C   0  0  0  0  0  0  0  0  0  0  0  0
   19.6529   40.9023   66.2353 C   0  0  0  0  0  0  0  0  0  0  0  0
   18.9379   41.8768   65.5369 C   0  0  0  0  0  0  0  0  0  0  0  0
   19.3621   43.1972   65.5361 N   0  0  0  0  0  0  0  0  0  0  0  0
   17.8463   41.5192   64.8669 N   0  0  0  0  0  0  0  0  0  0  0  0
   17.4367   40.2673   64.8681 C   0  0  0  0  0  0  0  0  0  0  0  0
   18.0896   39.3232   65.5174 N   0  0  0  0  0  0  0  0  0  0  0  0
   25.6545   39.8238   67.2769 O   0  5  0  0  0  0  0  0  0  0  0  0
   27.6439   41.4302   67.4447 O   0  0  0  0  0  0  0  0  0  0  0  0
   22.5529   38.2418   68.6579 S   0  0  0  0  0  0  0  0  0  0  0  0
   21.6645   39.7343   68.6860 C   0  0  0  0  0  0  0  0  0  0  0  0
   26.3401   39.8371   64.8479 O   0  0  0  0  0  0  0  0  0  0  0  0
   30.0382   40.4873   67.3153 O   0  5  0  0  0  0  0  0  0  0  0  0
   21.5914   40.0359   67.4103 N   0  0  0  0  0  0  0  0  0  0  0  0
   27.9677   38.9775   66.7245 O   0  0  0  0  0  0  0  0  0  0  0  0
   28.6539   40.9286   65.1884 O   0  0  0  0  0  0  0  0  0  0  0  0
   22.1231   39.2606   66.4905 C   0  0  2  0  0  0  0  0  0  0  0  0
   22.7651   38.1324   66.8873 C   0  0  2  0  0  0  0  0  0  0  0  0
   23.4596   37.0794   66.0641 C   0  0  0  0  0  0  0  0  0  0  0  0
   24.6382   37.7078   65.3170 C   0  0  0  0  0  0  0  0  0  0  0  0
   25.8211   37.5905   66.1102 O   0  0  0  0  0  0  0  0  0  0  0  0
  1 11  1  0  0  0  0
  3 13  1  1  0  0  0
  3 17  2  0  0  0  0
  3 20  1  0  0  0  0
  3 26  1  0  0  0  0
  4 14  1  1  0  0  0
  4 18  1  0  0  0  0
  4 21  2  0  0  0  0
  4 20  1  0  0  0  0
  5 19  1  0  0  0  0
  5  7  1  0  0  0  0
  6  7  2  0  0  0  0
  6 12  1  0  0  0  0
  7  8  1  0  0  0  0
  8  9  1  0  0  0  0
  8 10  2  0  0  0  0
 10 11  1  0  0  0  0
 11 12  2  0  0  0  0
 15 23  1  0  0  0  0
 15 16  1  0  0  0  0
 16 19  1  0  0  0  0
 19 22  1  0  0  0  0
 22  2  1  1  0  0  0
 22 23  1  0  0  0  0
 23 24  1  6  0  0  0
 24 25  1  0  0  0  0
 25 26  1  0  0  0  0
M  CHG  2  13  -1  18  -1
M  END
>  <CHROM.1>
-67.57537564,-113.19275871,11.28065761,51.68152135,-117.63076133,91.56391983
-125.69860142,77.85649788,23.48434987,39.77647546,66.35423251,-3.04828537
0.07037692,2.77490021

>  <Name>
ligand

>  <RI>
0

>  <Rbt.Current_Directory>
/home/itssahil/PROJECTS/Mol_Feturizer/New_Systems/rnas/2HOJ

>  <Rbt.Executable>
rbdock ($Id: //depot/dev/client3/rdock/2013.1/src/exe/rbdock.cxx#4 $)

>  <Rbt.Library>
libRbt.so (2013.1, Build901 2013/11/27)

>  <Rbt.Parameter_File>
/export/apps/rDock/src/rDock_2013.1_src/data/scripts/dock_solv.prm

>  <Rbt.Receptor>
prm/pocket_docking_5.prm

>  <SCORE>
-17.5189

>  <SCORE.INTER>
-18.731

>  <SCORE.INTER.CONST>
1

>  <SCORE.INTER.POLAR>
-1.29904

>  <SCORE.INTER.ROT>
8

>  <SCORE.INTER.SOLV>
24.4651

>  <SCORE.INTER.VDW>
-25.2456

>  <SCORE.INTER.norm>
-0.720422

>  <SCORE.INTRA>
1.21204

>  <SCORE.INTRA.DIHEDRAL>
3.63631

>  <SCORE.INTRA.DIHEDRAL.0>
11.6398

>  <SCORE.INTRA.POLAR>
0

>  <SCORE.INTRA.POLAR.0>
0

>  <SCORE.INTRA.REPUL>
0

>  <SCORE.INTRA.REPUL.0>
0

>  <SCORE.INTRA.SOLV>
2.81442

>  <SCORE.INTRA.SOLV.lig_0>
-81.722

>  <SCORE.INTRA.VDW>
-2.01333

>  <SCORE.INTRA.VDW.0>
1.12598

>  <SCORE.INTRA.norm>
0.0466167

>  <SCORE.RESTR>
0

>  <SCORE.RESTR.CAVITY>
0

>  <SCORE.RESTR.norm>
0

>  <SCORE.SYSTEM>
0

>  <SCORE.SYSTEM.CONST>
0

>  <SCORE.SYSTEM.DIHEDRAL>
0

>  <SCORE.SYSTEM.SOLV>
0

>  <SCORE.SYSTEM.norm>
0

>  <SCORE.heavy>
26

>  <SCORE.norm>
-0.673806

>  <RMSD>
2.064

$$$$
ligand
 OpenBabel11021811433D
libRbt.so/2013.1/901 2013/11/27
 26 27  0  0  0  0  0  0  0  0999 V2000
   16.5564   40.0761   64.2878 C   0  0  0  0  0  0  0  0  0  0  0  0
   22.7837   39.4188   68.4452 C   0  0  0  0  0  0  0  0  0  0  0  0
   28.2230   38.5431   69.1284 P   0  0  1  0  0  0  0  0  0  0  0  0
   30.3798   38.7165   67.7124 P   0  0  1  0  0  0  0  0  0  0  0  0
   21.2341   41.4234   67.2411 C   0  0  0  0  0  0  0  0  0  0  0  0
   19.1595   42.0480   65.9692 C   0  0  0  0  0  0  0  0  0  0  0  0
   19.9962   41.0654   66.4596 C   0  0  0  0  0  0  0  0  0  0  0  0
   19.6667   39.7315   66.2128 C   0  0  0  0  0  0  0  0  0  0  0  0
   20.4741   38.7072   66.6842 N   0  0  0  0  0  0  0  0  0  0  0  0
   18.5632   39.4570   65.5235 N   0  0  0  0  0  0  0  0  0  0  0  0
   17.7953   40.4264   65.0698 C   0  0  0  0  0  0  0  0  0  0  0  0
   18.0785   41.6961   65.2860 N   0  0  0  0  0  0  0  0  0  0  0  0
   27.5452   37.8497   70.2470 O   0  5  0  0  0  0  0  0  0  0  0  0
   29.8876   40.1768   67.6041 O   0  0  0  0  0  0  0  0  0  0  0  0
   24.1605   40.5372   64.9529 S   0  0  0  0  0  0  0  0  0  0  0  0
   22.7259   41.4257   65.3648 C   0  0  0  0  0  0  0  0  0  0  0  0
   28.2056   40.1301   69.3905 O   0  0  0  0  0  0  0  0  0  0  0  0
   31.9857   38.6965   67.8166 O   0  5  0  0  0  0  0  0  0  0  0  0
   22.4176   40.9235   66.5381 N   0  0  0  0  0  0  0  0  0  0  0  0
   29.7469   38.0323   69.0258 O   0  0  0  0  0  0  0  0  0  0  0  0
   29.9357   37.9301   66.4585 O   0  0  0  0  0  0  0  0  0  0  0  0
   23.1502   39.9846   67.0964 C   0  0  2  0  0  0  0  0  0  0  0  0
   24.2403   39.5308   66.4270 C   0  0  2  0  0  0  0  0  0  0  0  0
   25.2410   38.4755   66.8194 C   0  0  0  0  0  0  0  0  0  0  0  0
   26.3380   39.1048   67.6812 C   0  0  0  0  0  0  0  0  0  0  0  0
   27.4561   38.2176   67.7504 O   0  0  0  0  0  0  0  0  0  0  0  0
  1 11  1  0  0  0  0
  3 13  1  1  0  0  0
  3 17  2  0  0  0  0
  3 20  1  0  0  0  0
  3 26  1  0  0  0  0
  4 14  1  6  0  0  0
  4 18  1  0  0  0  0
  4 21  2  0  0  0  0
  4 20  1  0  0  0  0
  5 19  1  0  0  0  0
  5  7  1  0  0  0  0
  6  7  2  0  0  0  0
  6 12  1  0  0  0  0
  7  8  1  0  0  0  0
  8  9  1  0  0  0  0
  8 10  2  0  0  0  0
 10 11  1  0  0  0  0
 11 12  2  0  0  0  0
 15 23  1  0  0  0  0
 15 16  1  0  0  0  0
 16 19  1  0  0  0  0
 19 22  1  0  0  0  0
 22  2  1  6  0  0  0
 22 23  1  0  0  0  0
 23 24  1  1  0  0  0
 24 25  1  0  0  0  0
 25 26  1  0  0  0  0
M  CHG  2  13  -1  18  -1
M  END
>  <CHROM.1>
174.74854595,65.39933855,-118.89717697,39.81270615,94.03538115,-164.42107230
-153.83662659,81.89541952,24.75763701,39.59087196,67.07158046,-2.84763699
-0.06060132,2.00417570

>  <Name>
ligand

>  <RI>
0

>  <Rbt.Current_Directory>
/home/itssahil/PROJECTS/Mol_Feturizer/New_Systems/rnas/2HOJ

>  <Rbt.Executable>
rbdock ($Id: //depot/dev/client3/rdock/2013.1/src/exe/rbdock.cxx#4 $)

>  <Rbt.Library>
libRbt.so (2013.1, Build901 2013/11/27)

>  <Rbt.Parameter_File>
/export/apps/rDock/src/rDock_2013.1_src/data/scripts/dock_solv.prm

>  <Rbt.Receptor>
prm/pocket_docking_2.prm

>  <SCORE>
-19.7621

>  <SCORE.INTER>
-18.0059

>  <SCORE.INTER.CONST>
1

>  <SCORE.INTER.POLAR>
-1.75931

>  <SCORE.INTER.ROT>
8

>  <SCORE.INTER.SOLV>
26.2289

>  <SCORE.INTER.VDW>
-23.8159

>  <SCORE.INTER.norm>
-0.692536

>  <SCORE.INTRA>
-1.81317

>  <SCORE.INTRA.DIHEDRAL>
-1.74797

>  <SCORE.INTRA.DIHEDRAL.0>
11.6398

>  <SCORE.INTRA.POLAR>
0

>  <SCORE.INTRA.POLAR.0>
0

>  <SCORE.INTRA.REPUL>
0

>  <SCORE.INTRA.REPUL.0>
0

>  <SCORE.INTRA.SOLV>
3.68574

>  <SCORE.INTRA.SOLV.lig_0>
-81.722

>  <SCORE.INTRA.VDW>
-2.78206

>  <SCORE.INTRA.VDW.0>
1.12598

>  <SCORE.INTRA.norm>
-0.0697372

>  <SCORE.RESTR>
0.0570289

>  <SCORE.RESTR.CAVITY>
0.0570289

>  <SCORE.RESTR.norm>
0.00219342

>  <SCORE.SYSTEM>
0

>  <SCORE.SYSTEM.CONST>
0

>  <SCORE.SYSTEM.DIHEDRAL>
0

>  <SCORE.SYSTEM.SOLV>
0

>  <SCORE.SYSTEM.norm>
0

>  <SCORE.heavy>
26

>  <SCORE.norm>
-0.76008

>  <RMSD>
2.083

$$$$
ligand
 OpenBabel11021811433D
libRbt.so/2013.1/901 2013/11/27
 26 27  0  0  0  0  0  0  0  0999 V2000
   16.4760   39.9497   64.3255 C   0  0  0  0  0  0  0  0  0  0  0  0
   22.4156   39.6767   68.7584 C   0  0  0  0  0  0  0  0  0  0  0  0
   28.3503   39.1759   67.8324 P   0  0  1  0  0  0  0  0  0  0  0  0
   30.8669   38.8815   67.3157 P   0  0  1  0  0  0  0  0  0  0  0  0
   21.2481   41.5260   67.0016 C   0  0  0  0  0  0  0  0  0  0  0  0
   19.1745   42.0414   65.6801 C   0  0  0  0  0  0  0  0  0  0  0  0
   19.9852   41.1073   66.2937 C   0  0  0  0  0  0  0  0  0  0  0  0
   19.6055   39.7650   66.2414 C   0  0  0  0  0  0  0  0  0  0  0  0
   20.3852   38.7881   66.8425 N   0  0  0  0  0  0  0  0  0  0  0  0
   18.4814   39.4371   65.6113 N   0  0  0  0  0  0  0  0  0  0  0  0
   17.7398   40.3607   65.0350 C   0  0  0  0  0  0  0  0  0  0  0  0
   18.0703   41.6369   65.0666 N   0  0  0  0  0  0  0  0  0  0  0  0
   28.5440   37.9872   68.6931 O   0  5  0  0  0  0  0  0  0  0  0  0
   31.9758   39.5133   66.4454 O   0  0  0  0  0  0  0  0  0  0  0  0
   24.0927   39.7052   65.2188 S   0  0  0  0  0  0  0  0  0  0  0  0
   22.7982   40.8607   65.2984 C   0  0  0  0  0  0  0  0  0  0  0  0
   28.5436   40.5111   68.7087 O   0  0  0  0  0  0  0  0  0  0  0  0
   30.9008   39.5330   68.7869 O   0  5  0  0  0  0  0  0  0  0  0  0
   22.3673   40.7079   66.5292 N   0  0  0  0  0  0  0  0  0  0  0  0
   29.4314   39.1556   66.6389 O   0  0  0  0  0  0  0  0  0  0  0  0
   31.1023   37.3579   67.4220 O   0  0  0  0  0  0  0  0  0  0  0  0
   22.9211   39.8395   67.3471 C   0  0  2  0  0  0  0  0  0  0  0  0
   23.9540   39.0871   66.8894 C   0  0  2  0  0  0  0  0  0  0  0  0
   24.7610   38.0287   67.5946 C   0  0  0  0  0  0  0  0  0  0  0  0
   25.9958   38.6674   68.2343 C   0  0  0  0  0  0  0  0  0  0  0  0
   26.8655   39.1523   67.2094 O   0  0  0  0  0  0  0  0  0  0  0  0
  1 11  1  0  0  0  0
  3 13  1  1  0  0  0
  3 17  2  0  0  0  0
  3 20  1  0  0  0  0
  3 26  1  0  0  0  0
  4 14  1  6  0  0  0
  4 18  1  0  0  0  0
  4 21  2  0  0  0  0
  4 20  1  0  0  0  0
  5 19  1  0  0  0  0
  5  7  1  0  0  0  0
  6  7  2  0  0  0  0
  6 12  1  0  0  0  0
  7  8  1  0  0  0  0
  8  9  1  0  0  0  0
  8 10  2  0  0  0  0
 10 11  1  0  0  0  0
 11 12  2  0  0  0  0
 15 23  1  0  0  0  0
 15 16  1  0  0  0  0
 16 19  1  0  0  0  0
 19 22  1  0  0  0  0
 22  2  1  6  0  0  0
 22 23  1  0  0  0  0
 23 24  1  1  0  0  0
 24 25  1  0  0  0  0
 25 26  1  0  0  0  0
M  CHG  2  13  -1  18  -1
M  END
>  <CHROM.1>
-48.85957616,68.92236339,-129.25926447,-152.13012052,87.61390544,-66.12902325
-154.62492656,38.51024687,24.83055325,39.60778891,66.85378867,-2.92536408
-0.04912138,2.01151314

>  <Name>
ligand

>  <RI>
0

>  <Rbt.Current_Directory>
/home/itssahil/PROJECTS/Mol_Feturizer/New_Systems/rnas/2HOJ

>  <Rbt.Executable>
rbdock ($Id: //depot/dev/client3/rdock/2013.1/src/exe/rbdock.cxx#4 $)

>  <Rbt.Library>
libRbt.so (2013.1, Build901 2013/11/27)

>  <Rbt.Parameter_File>
/export/apps/rDock/src/rDock_2013.1_src/data/scripts/dock_solv.prm

>  <Rbt.Receptor>
prm/pocket_docking_4.prm

>  <SCORE>
-27.1547

>  <SCORE.INTER>
-28.0196

>  <SCORE.INTER.CONST>
1

>  <SCORE.INTER.POLAR>
-4.13253

>  <SCORE.INTER.ROT>
8

>  <SCORE.INTER.SOLV>
27.7783

>  <SCORE.INTER.VDW>
-23.0974

>  <SCORE.INTER.norm>
-1.07768

>  <SCORE.INTRA>
0.864862

>  <SCORE.INTRA.DIHEDRAL>
-1.919

>  <SCORE.INTRA.DIHEDRAL.0>
11.6398

>  <SCORE.INTRA.POLAR>
0

>  <SCORE.INTRA.POLAR.0>
0

>  <SCORE.INTRA.REPUL>
0

>  <SCORE.INTRA.REPUL.0>
0

>  <SCORE.INTRA.SOLV>
7.7944

>  <SCORE.INTRA.SOLV.lig_0>
-81.722

>  <SCORE.INTRA.VDW>
-2.07284

>  <SCORE.INTRA.VDW.0>
1.12598

>  <SCORE.INTRA.norm>
0.0332639

>  <SCORE.RESTR>
0

>  <SCORE.RESTR.CAVITY>
0

>  <SCORE.RESTR.norm>
0

>  <SCORE.SYSTEM>
0

>  <SCORE.SYSTEM.CONST>
0

>  <SCORE.SYSTEM.DIHEDRAL>
0

>  <SCORE.SYSTEM.SOLV>
0

>  <SCORE.SYSTEM.norm>
0

>  <SCORE.heavy>
26

>  <SCORE.norm>
-1.04441

>  <RMSD>
2.086

$$$$
ligand
 OpenBabel11021811433D
libRbt.so/2013.1/901 2013/11/27
 26 27  0  0  0  0  0  0  0  0999 V2000
   16.2107   39.2224   64.3682 C   0  0  0  0  0  0  0  0  0  0  0  0
   21.8704   40.1508   68.9565 C   0  0  0  0  0  0  0  0  0  0  0  0
   27.6099   37.9602   66.5414 P   0  0  1  0  0  0  0  0  0  0  0  0
   29.7545   38.8313   67.6940 P   0  0  1  0  0  0  0  0  0  0  0  0
   20.8531   41.5216   66.7305 C   0  0  0  0  0  0  0  0  0  0  0  0
   19.4105   39.5508   66.1418 C   0  0  0  0  0  0  0  0  0  0  0  0
   19.6239   40.9144   66.1047 C   0  0  0  0  0  0  0  0  0  0  0  0
   18.6718   41.7165   65.4732 C   0  0  0  0  0  0  0  0  0  0  0  0
   18.8399   43.0917   65.4085 N   0  0  0  0  0  0  0  0  0  0  0  0
   17.6034   41.1417   64.9288 N   0  0  0  0  0  0  0  0  0  0  0  0
   17.4370   39.8365   64.9914 C   0  0  0  0  0  0  0  0  0  0  0  0
   18.3176   39.0512   65.5804 N   0  0  0  0  0  0  0  0  0  0  0  0
   27.1636   37.5177   65.2010 O   0  5  0  0  0  0  0  0  0  0  0  0
   28.8680   38.8818   68.9581 O   0  0  0  0  0  0  0  0  0  0  0  0
   23.7904   39.3377   65.6408 S   0  0  0  0  0  0  0  0  0  0  0  0
   22.5091   40.4739   65.3500 C   0  0  0  0  0  0  0  0  0  0  0  0
   28.0941   36.6852   67.3945 O   0  0  0  0  0  0  0  0  0  0  0  0
   30.5255   37.4199   67.6338 O   0  5  0  0  0  0  0  0  0  0  0  0
   21.9914   40.6184   66.5479 N   0  0  0  0  0  0  0  0  0  0  0  0
   28.8322   38.9969   66.3842 O   0  0  0  0  0  0  0  0  0  0  0  0
   30.7870   39.9800   67.7441 O   0  0  0  0  0  0  0  0  0  0  0  0
   22.4752   39.9730   67.5867 C   0  0  2  0  0  0  0  0  0  0  0  0
   23.5273   39.1367   67.3964 C   0  0  2  0  0  0  0  0  0  0  0  0
   24.2690   38.2808   68.3895 C   0  0  0  0  0  0  0  0  0  0  0  0
   25.4897   37.6525   67.7134 C   0  0  0  0  0  0  0  0  0  0  0  0
   26.3893   38.6840   67.3026 O   0  0  0  0  0  0  0  0  0  0  0  0
  1 11  1  0  0  0  0
  3 13  1  6  0  0  0
  3 17  2  0  0  0  0
  3 20  1  0  0  0  0
  3 26  1  0  0  0  0
  4 14  1  1  0  0  0
  4 18  1  0  0  0  0
  4 21  2  0  0  0  0
  4 20  1  0  0  0  0
  5 19  1  0  0  0  0
  5  7  1  0  0  0  0
  6  7  2  0  0  0  0
  6 12  1  0  0  0  0
  7  8  1  0  0  0  0
  8  9  1  0  0  0  0
  8 10  2  0  0  0  0
 10 11  1  0  0  0  0
 11 12  2  0  0  0  0
 15 23  1  0  0  0  0
 15 16  1  0  0  0  0
 16 19  1  0  0  0  0
 19 22  1  0  0  0  0
 22  2  1  6  0  0  0
 22 23  1  0  0  0  0
 23 24  1  1  0  0  0
 24 25  1  0  0  0  0
 25 26  1  0  0  0  0
M  CHG  2  13  -1  18  -1
M  END
>  <CHROM.1>
-150.03866122,71.24701323,35.75742909,-49.10656958,6.84125736,63.16660381
-177.38151734,74.46810605,24.17996659,39.32775017,66.65599326,3.02379551
-0.24360473,0.42318785

>  <Name>
ligand

>  <RI>
0

>  <Rbt.Current_Directory>
/home/itssahil/PROJECTS/Mol_Feturizer/New_Systems/rnas/2HOJ

>  <Rbt.Executable>
rbdock ($Id: //depot/dev/client3/rdock/2013.1/src/exe/rbdock.cxx#4 $)

>  <Rbt.Library>
libRbt.so (2013.1, Build901 2013/11/27)

>  <Rbt.Parameter_File>
/export/apps/rDock/src/rDock_2013.1_src/data/scripts/dock_solv.prm

>  <Rbt.Receptor>
prm/pocket_docking_2.prm

>  <SCORE>
-30.324

>  <SCORE.INTER>
-26.2656

>  <SCORE.INTER.CONST>
1

>  <SCORE.INTER.POLAR>
-3.00041

>  <SCORE.INTER.ROT>
8

>  <SCORE.INTER.SOLV>
30.4453

>  <SCORE.INTER.VDW>
-26.5908

>  <SCORE.INTER.norm>
-1.01022

>  <SCORE.INTRA>
-5.09631

>  <SCORE.INTRA.DIHEDRAL>
-5.26546

>  <SCORE.INTRA.DIHEDRAL.0>
11.6398

>  <SCORE.INTRA.POLAR>
0

>  <SCORE.INTRA.POLAR.0>
0

>  <SCORE.INTRA.REPUL>
0

>  <SCORE.INTRA.REPUL.0>
0

>  <SCORE.INTRA.SOLV>
0.349745

>  <SCORE.INTRA.SOLV.lig_0>
-81.722

>  <SCORE.INTRA.VDW>
-2.63846

>  <SCORE.INTRA.VDW.0>
1.12598

>  <SCORE.INTRA.norm>
-0.196012

>  <SCORE.RESTR>
1.0379

>  <SCORE.RESTR.CAVITY>
1.0379

>  <SCORE.RESTR.norm>
0.0399193

>  <SCORE.SYSTEM>
0

>  <SCORE.SYSTEM.CONST>
0

>  <SCORE.SYSTEM.DIHEDRAL>
0

>  <SCORE.SYSTEM.SOLV>
0

>  <SCORE.SYSTEM.norm>
0

>  <SCORE.heavy>
26

>  <SCORE.norm>
-1.16631

>  <RMSD>
2.091

$$$$
ligand
 OpenBabel11021811433D
libRbt.so/2013.1/901 2013/11/27
 26 27  0  0  0  0  0  0  0  0999 V2000
   15.7847   38.8307   64.3632 C   0  0  0  0  0  0  0  0  0  0  0  0
   22.9858   42.4760   66.8999 C   0  0  0  0  0  0  0  0  0  0  0  0
   27.8096   39.3399   68.5468 P   0  0  1  0  0  0  0  0  0  0  0  0
   30.0722   38.5314   67.5910 P   0  0  1  0  0  0  0  0  0  0  0  0
   20.4480   41.3977   66.3839 C   0  0  0  0  0  0  0  0  0  0  0  0
   18.3631   41.3725   64.9823 C   0  0  0  0  0  0  0  0  0  0  0  0
   19.2140   40.7170   65.8499 C   0  0  0  0  0  0  0  0  0  0  0  0
   18.9023   39.4075   66.2197 C   0  0  0  0  0  0  0  0  0  0  0  0
   19.7243   38.7060   67.0889 N   0  0  0  0  0  0  0  0  0  0  0  0
   17.8016   38.8441   65.7304 N   0  0  0  0  0  0  0  0  0  0  0  0
   17.0200   39.5047   64.9011 C   0  0  0  0  0  0  0  0  0  0  0  0
   17.2861   40.7425   64.5325 N   0  0  0  0  0  0  0  0  0  0  0  0
   26.5913   38.9497   69.2920 O   0  5  0  0  0  0  0  0  0  0  0  0
   31.0223   37.3267   67.4111 O   0  0  0  0  0  0  0  0  0  0  0  0
   23.1296   38.9811   65.1373 S   0  0  0  0  0  0  0  0  0  0  0  0
   21.4846   39.4729   65.4006 C   0  0  0  0  0  0  0  0  0  0  0  0
   28.6937   40.3376   69.4472 O   0  0  0  0  0  0  0  0  0  0  0  0
   29.8162   39.2322   66.1650 O   0  5  0  0  0  0  0  0  0  0  0  0
   21.6355   40.6373   65.9882 N   0  0  0  0  0  0  0  0  0  0  0  0
   28.6706   38.0237   68.2003 O   0  0  0  0  0  0  0  0  0  0  0  0
   30.7136   39.5519   68.5581 O   0  0  0  0  0  0  0  0  0  0  0  0
   22.8290   41.1365   66.2253 C   0  0  2  0  0  0  0  0  0  0  0  0
   23.9174   40.4147   65.8556 C   0  0  2  0  0  0  0  0  0  0  0  0
   25.3816   40.7349   66.0055 C   0  0  0  0  0  0  0  0  0  0  0  0
   26.0494   39.6780   66.8882 C   0  0  0  0  0  0  0  0  0  0  0  0
   27.3896   40.0794   67.1794 O   0  0  0  0  0  0  0  0  0  0  0  0
  1 11  1  0  0  0  0
  3 13  1  1  0  0  0
  3 17  2  0  0  0  0
  3 20  1  0  0  0  0
  3 26  1  0  0  0  0
  4 14  1  6  0  0  0
  4 18  1  0  0  0  0
  4 21  2  0  0  0  0
  4 20  1  0  0  0  0
  5 19  1  0  0  0  0
  5  7  1  0  0  0  0
  6  7  2  0  0  0  0
  6 12  1  0  0  0  0
  7  8  1  0  0  0  0
  8  9  1  0  0  0  0
  8 10  2  0  0  0  0
 10 11  1  0  0  0  0
 11 12  2  0  0  0  0
 15 23  1  0  0  0  0
 15 16  1  0  0  0  0
 16 19  1  0  0  0  0
 19 22  1  0  0  0  0
 22  2  1  1  0  0  0
 22 23  1  0  0  0  0
 23 24  1  6  0  0  0
 24 25  1  0  0  0  0
 25 26  1  0  0  0  0
M  CHG  2  13  -1  18  -1
M  END
>  <CHROM.1>
-171.80907306,-7.26395182,-120.04426759,172.50567480,-61.67637745,-172.13821526
155.98303254,-21.52271109,24.25502071,39.64569027,66.70609814,3.12796862
-0.24945228,0.31112692

>  <Name>
ligand

>  <RI>
0

>  <Rbt.Current_Directory>
/home/itssahil/PROJECTS/Mol_Feturizer/New_Systems/rnas/2HOJ

>  <Rbt.Executable>
rbdock ($Id: //depot/dev/client3/rdock/2013.1/src/exe/rbdock.cxx#4 $)

>  <Rbt.Library>
libRbt.so (2013.1, Build901 2013/11/27)

>  <Rbt.Parameter_File>
/export/apps/rDock/src/rDock_2013.1_src/data/scripts/dock_solv.prm

>  <Rbt.Receptor>
prm/pocket_docking_2.prm

>  <SCORE>
-22.3292

>  <SCORE.INTER>
-27.702

>  <SCORE.INTER.CONST>
1

>  <SCORE.INTER.POLAR>
-3.65912

>  <SCORE.INTER.ROT>
8

>  <SCORE.INTER.SOLV>
25.628

>  <SCORE.INTER.VDW>
-23.7469

>  <SCORE.INTER.norm>
-1.06546

>  <SCORE.INTRA>
3.74525

>  <SCORE.INTRA.DIHEDRAL>
-1.84504

>  <SCORE.INTRA.DIHEDRAL.0>
11.6398

>  <SCORE.INTRA.POLAR>
0

>  <SCORE.INTRA.POLAR.0>
0

>  <SCORE.INTRA.REPUL>
0

>  <SCORE.INTRA.REPUL.0>
0

>  <SCORE.INTRA.SOLV>
4.54611

>  <SCORE.INTRA.SOLV.lig_0>
-81.722

>  <SCORE.INTRA.VDW>
2.39472

>  <SCORE.INTRA.VDW.0>
1.12598

>  <SCORE.INTRA.norm>
0.144048

>  <SCORE.RESTR>
1.62755

>  <SCORE.RESTR.CAVITY>
1.62755

>  <SCORE.RESTR.norm>
0.0625981

>  <SCORE.SYSTEM>
0

>  <SCORE.SYSTEM.CONST>
0

>  <SCORE.SYSTEM.DIHEDRAL>
0

>  <SCORE.SYSTEM.SOLV>
0

>  <SCORE.SYSTEM.norm>
0

>  <SCORE.heavy>
26

>  <SCORE.norm>
-0.858814

>  <RMSD>
2.096

$$$$
ligand
 OpenBabel11021811433D
libRbt.so/2013.1/901 2013/11/27
 26 27  0  0  0  0  0  0  0  0999 V2000
   15.7346   39.0508   64.1004 C   0  0  0  0  0  0  0  0  0  0  0  0
   23.0717   41.2690   67.7113 C   0  0  0  0  0  0  0  0  0  0  0  0
   28.0688   38.0099   66.7503 P   0  0  1  0  0  0  0  0  0  0  0  0
   29.3329   40.2389   66.4030 P   0  0  1  0  0  0  0  0  0  0  0  0
   20.5072   40.7458   66.7018 C   0  0  0  0  0  0  0  0  0  0  0  0
   18.7848   39.0032   66.1464 C   0  0  0  0  0  0  0  0  0  0  0  0
   19.2438   40.2985   66.0126 C   0  0  0  0  0  0  0  0  0  0  0  0
   18.5077   41.1835   65.2230 C   0  0  0  0  0  0  0  0  0  0  0  0
   18.9266   42.4950   65.0564 N   0  0  0  0  0  0  0  0  0  0  0  0
   17.4010   40.7486   64.6276 N   0  0  0  0  0  0  0  0  0  0  0  0
   16.9966   39.5051   64.7863 C   0  0  0  0  0  0  0  0  0  0  0  0
   17.6692   38.6445   65.5251 N   0  0  0  0  0  0  0  0  0  0  0  0
   27.5892   36.8436   65.9748 O   0  5  0  0  0  0  0  0  0  0  0  0
   29.0370   40.4773   67.9003 O   0  0  0  0  0  0  0  0  0  0  0  0
   23.0094   38.3338   65.1185 S   0  0  0  0  0  0  0  0  0  0  0  0
   21.4169   38.9881   65.3494 C   0  0  0  0  0  0  0  0  0  0  0  0
   29.5075   37.6762   67.3881 O   0  0  0  0  0  0  0  0  0  0  0  0
   30.7717   39.5354   66.2444 O   0  5  0  0  0  0  0  0  0  0  0  0
   21.6334   39.9360   66.2317 N   0  0  0  0  0  0  0  0  0  0  0  0
   28.1961   39.2859   65.7760 O   0  0  0  0  0  0  0  0  0  0  0  0
   29.3371   41.5927   65.6579 O   0  0  0  0  0  0  0  0  0  0  0  0
   22.8391   40.1758   66.6991 C   0  0  2  0  0  0  0  0  0  0  0  0
   23.8691   39.4114   66.2550 C   0  0  2  0  0  0  0  0  0  0  0  0
   25.3305   39.4605   66.6166 C   0  0  0  0  0  0  0  0  0  0  0  0
   25.7142   38.1867   67.3732 C   0  0  0  0  0  0  0  0  0  0  0  0
   27.0219   38.3391   67.9287 O   0  0  0  0  0  0  0  0  0  0  0  0
  1 11  1  0  0  0  0
  3 13  1  6  0  0  0
  3 17  2  0  0  0  0
  3 20  1  0  0  0  0
  3 26  1  0  0  0  0
  4 14  1  1  0  0  0
  4 18  1  0  0  0  0
  4 21  2  0  0  0  0
  4 20  1  0  0  0  0
  5 19  1  0  0  0  0
  5  7  1  0  0  0  0
  6  7  2  0  0  0  0
  6 12  1  0  0  0  0
  7  8  1  0  0  0  0
  8  9  1  0  0  0  0
  8 10  2  0  0  0  0
 10 11  1  0  0  0  0
 11 12  2  0  0  0  0
 15 23  1  0  0  0  0
 15 16  1  0  0  0  0
 16 19  1  0  0  0  0
 19 22  1  0  0  0  0
 22  2  1  1  0  0  0
 22 23  1  0  0  0  0
 23 24  1  6  0  0  0
 24 25  1  0  0  0  0
 25 26  1  0  0  0  0
M  CHG  2  13  -1  18  -1
M  END
>  <CHROM.1>
-152.75449618,-0.64039565,60.12354792,-50.37167097,-67.19329912,-169.34573361
-82.06514870,-41.05865794,24.11618072,39.48102118,66.15805971,3.07264215
-0.13644978,0.03540094

>  <Name>
ligand

>  <RI>
0

>  <Rbt.Current_Directory>
/home/itssahil/PROJECTS/Mol_Feturizer/New_Systems/rnas/2HOJ

>  <Rbt.Executable>
rbdock ($Id: //depot/dev/client3/rdock/2013.1/src/exe/rbdock.cxx#4 $)

>  <Rbt.Library>
libRbt.so (2013.1, Build901 2013/11/27)

>  <Rbt.Parameter_File>
/export/apps/rDock/src/rDock_2013.1_src/data/scripts/dock_solv.prm

>  <Rbt.Receptor>
prm/pocket_docking_3.prm

>  <SCORE>
-17.327

>  <SCORE.INTER>
-16.7749

>  <SCORE.INTER.CONST>
1

>  <SCORE.INTER.POLAR>
-1.01658

>  <SCORE.INTER.ROT>
8

>  <SCORE.INTER.SOLV>
26.0805

>  <SCORE.INTER.VDW>
-25.4215

>  <SCORE.INTER.norm>
-0.645188

>  <SCORE.INTRA>
-0.552118

>  <SCORE.INTRA.DIHEDRAL>
-2.21014

>  <SCORE.INTRA.DIHEDRAL.0>
11.6398

>  <SCORE.INTRA.POLAR>
0

>  <SCORE.INTRA.POLAR.0>
0

>  <SCORE.INTRA.REPUL>
0

>  <SCORE.INTRA.REPUL.0>
0

>  <SCORE.INTRA.SOLV>
0.993287

>  <SCORE.INTRA.SOLV.lig_0>
-81.722

>  <SCORE.INTRA.VDW>
0.0563106

>  <SCORE.INTRA.VDW.0>
1.12598

>  <SCORE.INTRA.norm>
-0.0212353

>  <SCORE.RESTR>
0

>  <SCORE.RESTR.CAVITY>
0

>  <SCORE.RESTR.norm>
0

>  <SCORE.SYSTEM>
0

>  <SCORE.SYSTEM.CONST>
0

>  <SCORE.SYSTEM.DIHEDRAL>
0

>  <SCORE.SYSTEM.SOLV>
0

>  <SCORE.SYSTEM.norm>
0

>  <SCORE.heavy>
26

>  <SCORE.norm>
-0.666424

>  <RMSD>
2.115

$$$$
ligand
 OpenBabel11021811433D
libRbt.so/2013.1/901 2013/11/27
 26 27  0  0  0  0  0  0  0  0999 V2000
   15.5141   38.9919   63.8272 C   0  0  0  0  0  0  0  0  0  0  0  0
   22.9736   40.0409   65.6066 C   0  0  0  0  0  0  0  0  0  0  0  0
   27.4973   38.4753   68.6856 P   0  0  1  0  0  0  0  0  0  0  0  0
   28.4134   40.2194   67.0105 P   0  0  1  0  0  0  0  0  0  0  0  0
   20.3385   40.6165   66.3775 C   0  0  0  0  0  0  0  0  0  0  0  0
   18.8274   38.8596   65.4072 C   0  0  0  0  0  0  0  0  0  0  0  0
   19.0611   40.1880   65.7024 C   0  0  0  0  0  0  0  0  0  0  0  0
   18.0838   41.1240   65.3599 C   0  0  0  0  0  0  0  0  0  0  0  0
   18.2706   42.4706   65.6344 N   0  0  0  0  0  0  0  0  0  0  0  0
   16.9727   40.7061   64.7607 N   0  0  0  0  0  0  0  0  0  0  0  0
   16.7886   39.4278   64.5018 C   0  0  0  0  0  0  0  0  0  0  0  0
   17.6921   38.5188   64.8123 N   0  0  0  0  0  0  0  0  0  0  0  0
   28.8802   37.9762   68.5120 O   0  5  0  0  0  0  0  0  0  0  0  0
   28.2568   39.0168   66.0537 O   0  0  0  0  0  0  0  0  0  0  0  0
   21.5308   37.4721   68.1876 S   0  0  0  0  0  0  0  0  0  0  0  0
   20.3548   38.6928   67.8075 C   0  0  0  0  0  0  0  0  0  0  0  0
   27.0546   38.3079   70.2230 O   0  0  0  0  0  0  0  0  0  0  0  0
   28.0346   41.5774   66.2342 O   0  5  0  0  0  0  0  0  0  0  0  0
   21.0053   39.4452   66.9505 N   0  0  0  0  0  0  0  0  0  0  0  0
   27.4334   40.0312   68.2746 O   0  0  0  0  0  0  0  0  0  0  0  0
   29.8764   40.2984   67.5017 O   0  0  0  0  0  0  0  0  0  0  0  0
   22.2402   39.1676   66.5932 C   0  0  2  0  0  0  0  0  0  0  0  0
   22.8429   38.0807   67.1389 C   0  0  2  0  0  0  0  0  0  0  0  0
   24.2302   37.5367   66.9186 C   0  0  0  0  0  0  0  0  0  0  0  0
   25.2124   38.2433   67.8556 C   0  0  0  0  0  0  0  0  0  0  0  0
   26.4993   37.6322   67.7442 O   0  0  0  0  0  0  0  0  0  0  0  0
  1 11  1  0  0  0  0
  3 13  1  6  0  0  0
  3 17  2  0  0  0  0
  3 20  1  0  0  0  0
  3 26  1  0  0  0  0
  4 14  1  6  0  0  0
  4 18  1  0  0  0  0
  4 21  2  0  0  0  0
  4 20  1  0  0  0  0
  5 19  1  0  0  0  0
  5  7  1  0  0  0  0
  6  7  2  0  0  0  0
  6 12  1  0  0  0  0
  7  8  1  0  0  0  0
  8  9  1  0  0  0  0
  8 10  2  0  0  0  0
 10 11  1  0  0  0  0
 11 12  2  0  0  0  0
 15 23  1  0  0  0  0
 15 16  1  0  0  0  0
 16 19  1  0  0  0  0
 19 22  1  0  0  0  0
 22  2  1  1  0  0  0
 22 23  1  0  0  0  0
 23 24  1  6  0  0  0
 24 25  1  0  0  0  0
 25 26  1  0  0  0  0
M  CHG  2  13  -1  18  -1
M  END
>  <CHROM.1>
37.39061436,-56.55771809,-15.47478220,40.48307798,-94.37046820,174.07387259
176.74134864,-174.40797013,23.45813653,39.26671786,66.88764947,-2.96132850
0.17081316,2.52069859

>  <Name>
ligand

>  <RI>
0

>  <Rbt.Current_Directory>
/home/itssahil/PROJECTS/Mol_Feturizer/New_Systems/rnas/2HOJ

>  <Rbt.Executable>
rbdock ($Id: //depot/dev/client3/rdock/2013.1/src/exe/rbdock.cxx#4 $)

>  <Rbt.Library>
libRbt.so (2013.1, Build901 2013/11/27)

>  <Rbt.Parameter_File>
/export/apps/rDock/src/rDock_2013.1_src/data/scripts/dock_solv.prm

>  <Rbt.Receptor>
prm/pocket_docking_3.prm

>  <SCORE>
-23.6562

>  <SCORE.INTER>
-18.4141

>  <SCORE.INTER.CONST>
1

>  <SCORE.INTER.POLAR>
-1.29904

>  <SCORE.INTER.ROT>
8

>  <SCORE.INTER.SOLV>
27.4221

>  <SCORE.INTER.VDW>
-26.02

>  <SCORE.INTER.norm>
-0.708236

>  <SCORE.INTRA>
-5.24209

>  <SCORE.INTRA.DIHEDRAL>
-5.28362

>  <SCORE.INTRA.DIHEDRAL.0>
11.6398

>  <SCORE.INTRA.POLAR>
0

>  <SCORE.INTRA.POLAR.0>
0

>  <SCORE.INTRA.REPUL>
0

>  <SCORE.INTRA.REPUL.0>
0

>  <SCORE.INTRA.SOLV>
-0.623466

>  <SCORE.INTRA.SOLV.lig_0>
-81.722

>  <SCORE.INTRA.VDW>
-2.28855

>  <SCORE.INTRA.VDW.0>
1.12598

>  <SCORE.INTRA.norm>
-0.201619

>  <SCORE.RESTR>
0

>  <SCORE.RESTR.CAVITY>
0

>  <SCORE.RESTR.norm>
0

>  <SCORE.SYSTEM>
0

>  <SCORE.SYSTEM.CONST>
0

>  <SCORE.SYSTEM.DIHEDRAL>
0

>  <SCORE.SYSTEM.SOLV>
0

>  <SCORE.SYSTEM.norm>
0

>  <SCORE.heavy>
26

>  <SCORE.norm>
-0.909855

>  <RMSD>
2.126

$$$$
ligand
 OpenBabel11021811433D
libRbt.so/2013.1/901 2013/11/27
 26 27  0  0  0  0  0  0  0  0999 V2000
   15.7708   39.2538   63.8822 C   0  0  0  0  0  0  0  0  0  0  0  0
   22.9435   40.2686   64.9449 C   0  0  0  0  0  0  0  0  0  0  0  0
   26.3618   40.1416   67.6107 P   0  0  1  0  0  0  0  0  0  0  0  0
   28.0266   39.2281   69.3659 P   0  0  1  0  0  0  0  0  0  0  0  0
   20.6388   40.6040   66.5087 C   0  0  0  0  0  0  0  0  0  0  0  0
   19.0723   38.9421   65.4619 C   0  0  0  0  0  0  0  0  0  0  0  0
   19.3500   40.2481   65.8134 C   0  0  0  0  0  0  0  0  0  0  0  0
   18.4063   41.2306   65.5088 C   0  0  0  0  0  0  0  0  0  0  0  0
   18.6378   42.5572   65.8403 N   0  0  0  0  0  0  0  0  0  0  0  0
   17.2836   40.8764   64.8903 N   0  0  0  0  0  0  0  0  0  0  0  0
   17.0570   39.6172   64.5773 C   0  0  0  0  0  0  0  0  0  0  0  0
   17.9280   38.6656   64.8508 N   0  0  0  0  0  0  0  0  0  0  0  0
   25.3227   41.1574   67.3276 O   0  5  0  0  0  0  0  0  0  0  0  0
   27.7114   37.8401   68.7656 O   0  0  0  0  0  0  0  0  0  0  0  0
   22.3155   37.2946   67.4154 S   0  0  0  0  0  0  0  0  0  0  0  0
   21.0744   38.4999   67.5712 C   0  0  0  0  0  0  0  0  0  0  0  0
   27.6649   40.4424   66.7166 O   0  0  0  0  0  0  0  0  0  0  0  0
   29.3049   39.8594   68.6192 O   0  5  0  0  0  0  0  0  0  0  0  0
   21.4475   39.3961   66.6873 N   0  0  0  0  0  0  0  0  0  0  0  0
   26.7561   40.1986   69.1710 O   0  0  0  0  0  0  0  0  0  0  0  0
   28.3328   39.0788   70.8732 O   0  0  0  0  0  0  0  0  0  0  0  0
   22.5288   39.2306   65.9571 C   0  0  2  0  0  0  0  0  0  0  0  0
   23.2679   38.1070   66.1406 C   0  0  2  0  0  0  0  0  0  0  0  0
   24.5356   37.6659   65.4572 C   0  0  0  0  0  0  0  0  0  0  0  0
   25.6769   38.6136   65.8331 C   0  0  0  0  0  0  0  0  0  0  0  0
   25.7929   38.6775   67.2560 O   0  0  0  0  0  0  0  0  0  0  0  0
  1 11  1  0  0  0  0
  3 13  1  6  0  0  0
  3 17  2  0  0  0  0
  3 20  1  0  0  0  0
  3 26  1  0  0  0  0
  4 14  1  6  0  0  0
  4 18  1  0  0  0  0
  4 21  2  0  0  0  0
  4 20  1  0  0  0  0
  5 19  1  0  0  0  0
  5  7  1  0  0  0  0
  6  7  2  0  0  0  0
  6 12  1  0  0  0  0
  7  8  1  0  0  0  0
  8  9  1  0  0  0  0
  8 10  2  0  0  0  0
 10 11  1  0  0  0  0
 11 12  2  0  0  0  0
 15 23  1  0  0  0  0
 15 16  1  0  0  0  0
 16 19  1  0  0  0  0
 19 22  1  0  0  0  0
 22  2  1  1  0  0  0
 22 23  1  0  0  0  0
 23 24  1  6  0  0  0
 24 25  1  0  0  0  0
 25 26  1  0  0  0  0
M  CHG  2  13  -1  18  -1
M  END
>  <CHROM.1>
-172.04919883,-71.82646277,0.83749185,-52.08002174,-113.57622852,55.13644256
-150.34031312,69.70178442,23.37147499,39.45087488,66.91035398,3.06909572
-0.34658178,-0.06327834

>  <Name>
ligand

>  <RI>
0

>  <Rbt.Current_Directory>
/home/itssahil/PROJECTS/Mol_Feturizer/New_Systems/rnas/2HOJ

>  <Rbt.Executable>
rbdock ($Id: //depot/dev/client3/rdock/2013.1/src/exe/rbdock.cxx#4 $)

>  <Rbt.Library>
libRbt.so (2013.1, Build901 2013/11/27)

>  <Rbt.Parameter_File>
/export/apps/rDock/src/rDock_2013.1_src/data/scripts/dock_solv.prm

>  <Rbt.Receptor>
prm/pocket_docking_3.prm

>  <SCORE>
-25.2712

>  <SCORE.INTER>
-20.825

>  <SCORE.INTER.CONST>
1

>  <SCORE.INTER.POLAR>
-1.29904

>  <SCORE.INTER.ROT>
8

>  <SCORE.INTER.SOLV>
25.9417

>  <SCORE.INTER.VDW>
-27.1337

>  <SCORE.INTER.norm>
-0.80096

>  <SCORE.INTRA>
-4.44624

>  <SCORE.INTRA.DIHEDRAL>
-3.08133

>  <SCORE.INTRA.DIHEDRAL.0>
11.6398

>  <SCORE.INTRA.POLAR>
0

>  <SCORE.INTRA.POLAR.0>
0

>  <SCORE.INTRA.REPUL>
0

>  <SCORE.INTRA.REPUL.0>
0

>  <SCORE.INTRA.SOLV>
1.05155

>  <SCORE.INTRA.SOLV.lig_0>
-81.722

>  <SCORE.INTRA.VDW>
-3.43135

>  <SCORE.INTRA.VDW.0>
1.12598

>  <SCORE.INTRA.norm>
-0.171009

>  <SCORE.RESTR>
0

>  <SCORE.RESTR.CAVITY>
0

>  <SCORE.RESTR.norm>
0

>  <SCORE.SYSTEM>
0

>  <SCORE.SYSTEM.CONST>
0

>  <SCORE.SYSTEM.DIHEDRAL>
0

>  <SCORE.SYSTEM.SOLV>
0

>  <SCORE.SYSTEM.norm>
0

>  <SCORE.heavy>
26

>  <SCORE.norm>
-0.97197

>  <RMSD>
2.127

$$$$
ligand
 OpenBabel11021811433D
libRbt.so/2013.1/901 2013/11/27
 26 27  0  0  0  0  0  0  0  0999 V2000
   16.1610   39.2850   64.2727 C   0  0  0  0  0  0  0  0  0  0  0  0
   22.7531   40.3093   65.1074 C   0  0  0  0  0  0  0  0  0  0  0  0
   28.0385   37.4988   67.4298 P   0  0  1  0  0  0  0  0  0  0  0  0
   27.9093   40.0386   67.8986 P   0  0  1  0  0  0  0  0  0  0  0  0
   20.8099   41.2929   66.8755 C   0  0  0  0  0  0  0  0  0  0  0  0
   19.2722   39.4171   66.2208 C   0  0  0  0  0  0  0  0  0  0  0  0
   19.5791   40.7628   66.1860 C   0  0  0  0  0  0  0  0  0  0  0  0
   18.7201   41.6201   65.4962 C   0  0  0  0  0  0  0  0  0  0  0  0
   18.9842   42.9801   65.4313 N   0  0  0  0  0  0  0  0  0  0  0  0
   17.6471   41.1124   64.8969 N   0  0  0  0  0  0  0  0  0  0  0  0
   17.3895   39.8222   64.9594 C   0  0  0  0  0  0  0  0  0  0  0  0
   18.1809   38.9859   65.6025 N   0  0  0  0  0  0  0  0  0  0  0  0
   29.3428   37.6322   66.7423 O   0  5  0  0  0  0  0  0  0  0  0  0
   28.9298   40.0650   66.7392 O   0  0  0  0  0  0  0  0  0  0  0  0
   22.6768   38.3987   68.5259 S   0  0  0  0  0  0  0  0  0  0  0  0
   21.4783   39.6556   68.4937 C   0  0  0  0  0  0  0  0  0  0  0  0
   27.9098   36.0228   68.0563 O   0  0  0  0  0  0  0  0  0  0  0  0
   26.4338   40.3250   67.3231 O   0  5  0  0  0  0  0  0  0  0  0  0
   21.6530   40.1730   67.2997 N   0  0  0  0  0  0  0  0  0  0  0  0
   27.9390   38.5928   68.6074 O   0  0  0  0  0  0  0  0  0  0  0  0
   28.2782   41.1258   68.9329 O   0  0  0  0  0  0  0  0  0  0  0  0
   22.5655   39.7051   66.4762 C   0  0  2  0  0  0  0  0  0  0  0  0
   23.3404   38.6701   66.8894 C   0  0  2  0  0  0  0  0  0  0  0  0
   24.4483   37.9485   66.1678 C   0  0  0  0  0  0  0  0  0  0  0  0
   25.6282   37.7388   67.1196 C   0  0  0  0  0  0  0  0  0  0  0  0
   26.8470   37.7401   66.3737 O   0  0  0  0  0  0  0  0  0  0  0  0
  1 11  1  0  0  0  0
  3 13  1  6  0  0  0
  3 17  2  0  0  0  0
  3 20  1  0  0  0  0
  3 26  1  0  0  0  0
  4 14  1  6  0  0  0
  4 18  1  0  0  0  0
  4 21  2  0  0  0  0
  4 20  1  0  0  0  0
  5 19  1  0  0  0  0
  5  7  1  0  0  0  0
  6  7  2  0  0  0  0
  6 12  1  0  0  0  0
  7  8  1  0  0  0  0
  8  9  1  0  0  0  0
  8 10  2  0  0  0  0
 10 11  1  0  0  0  0
 11 12  2  0  0  0  0
 15 23  1  0  0  0  0
 15 16  1  0  0  0  0
 16 19  1  0  0  0  0
 19 22  1  0  0  0  0
 22  2  1  1  0  0  0
 22 23  1  0  0  0  0
 23 24  1  6  0  0  0
 24 25  1  0  0  0  0
 25 26  1  0  0  0  0
M  CHG  2  13  -1  18  -1
M  END
>  <CHROM.1>
66.13527555,-90.40682964,10.49013172,-41.63914836,-44.35018507,-149.49772208
-179.35496439,-174.02846590,23.79115404,39.35295948,66.88301051,2.96057532
-0.21252260,0.01820551

>  <Name>
ligand

>  <RI>
0

>  <Rbt.Current_Directory>
/home/itssahil/PROJECTS/Mol_Feturizer/New_Systems/rnas/2HOJ

>  <Rbt.Executable>
rbdock ($Id: //depot/dev/client3/rdock/2013.1/src/exe/rbdock.cxx#4 $)

>  <Rbt.Library>
libRbt.so (2013.1, Build901 2013/11/27)

>  <Rbt.Parameter_File>
/export/apps/rDock/src/rDock_2013.1_src/data/scripts/dock_solv.prm

>  <Rbt.Receptor>
prm/pocket_docking_2.prm

>  <SCORE>
-20.5225

>  <SCORE.INTER>
-18.5871

>  <SCORE.INTER.CONST>
1

>  <SCORE.INTER.POLAR>
-1.25411

>  <SCORE.INTER.ROT>
8

>  <SCORE.INTER.SOLV>
25.487

>  <SCORE.INTER.VDW>
-25.64

>  <SCORE.INTER.norm>
-0.714887

>  <SCORE.INTRA>
-3.14928

>  <SCORE.INTRA.DIHEDRAL>
-3.12036

>  <SCORE.INTRA.DIHEDRAL.0>
11.6398

>  <SCORE.INTRA.POLAR>
0

>  <SCORE.INTRA.POLAR.0>
0

>  <SCORE.INTRA.REPUL>
0

>  <SCORE.INTRA.REPUL.0>
0

>  <SCORE.INTRA.SOLV>
1.3502

>  <SCORE.INTRA.SOLV.lig_0>
-81.722

>  <SCORE.INTRA.VDW>
-2.26421

>  <SCORE.INTRA.VDW.0>
1.12598

>  <SCORE.INTRA.norm>
-0.121126

>  <SCORE.RESTR>
1.21385

>  <SCORE.RESTR.CAVITY>
1.21385

>  <SCORE.RESTR.norm>
0.0466865

>  <SCORE.SYSTEM>
0

>  <SCORE.SYSTEM.CONST>
0

>  <SCORE.SYSTEM.DIHEDRAL>
0

>  <SCORE.SYSTEM.SOLV>
0

>  <SCORE.SYSTEM.norm>
0

>  <SCORE.heavy>
26

>  <SCORE.norm>
-0.789327

>  <RMSD>
2.131

$$$$
ligand
 OpenBabel11021811433D
libRbt.so/2013.1/901 2013/11/27
 26 27  0  0  0  0  0  0  0  0999 V2000
   15.6473   39.2993   63.8700 C   0  0  0  0  0  0  0  0  0  0  0  0
   21.7021   39.6387   68.8388 C   0  0  0  0  0  0  0  0  0  0  0  0
   26.9613   38.4652   68.2463 P   0  0  1  0  0  0  0  0  0  0  0  0
   29.2148   39.2635   67.2608 P   0  0  1  0  0  0  0  0  0  0  0  0
   20.6116   40.4811   66.3953 C   0  0  0  0  0  0  0  0  0  0  0  0
   18.8408   38.8701   65.6334 C   0  0  0  0  0  0  0  0  0  0  0  0
   19.2975   40.1697   65.7265 C   0  0  0  0  0  0  0  0  0  0  0  0
   18.5107   41.1882   65.1857 C   0  0  0  0  0  0  0  0  0  0  0  0
   18.9251   42.5100   65.2530 N   0  0  0  0  0  0  0  0  0  0  0  0
   17.3599   40.8716   64.5995 N   0  0  0  0  0  0  0  0  0  0  0  0
   16.9599   39.6181   64.5369 C   0  0  0  0  0  0  0  0  0  0  0  0
   17.6796   38.6331   65.0377 N   0  0  0  0  0  0  0  0  0  0  0  0
   27.4149   38.2614   69.6407 O   0  5  0  0  0  0  0  0  0  0  0  0
   29.4302   39.7275   68.7184 O   0  0  0  0  0  0  0  0  0  0  0  0
   22.6687   37.3116   65.8400 S   0  0  0  0  0  0  0  0  0  0  0  0
   21.6608   38.6215   65.3056 C   0  0  0  0  0  0  0  0  0  0  0  0
   26.5740   40.0112   68.0278 O   0  0  0  0  0  0  0  0  0  0  0  0
   30.6126   38.7553   66.6459 O   0  5  0  0  0  0  0  0  0  0  0  0
   21.4436   39.2761   66.4228 N   0  0  0  0  0  0  0  0  0  0  0  0
   28.1454   38.0597   67.2328 O   0  0  0  0  0  0  0  0  0  0  0  0
   28.6814   40.4445   66.4189 O   0  0  0  0  0  0  0  0  0  0  0  0
   21.9597   38.8752   67.5642 C   0  0  2  0  0  0  0  0  0  0  0  0
   22.7239   37.7534   67.5703 C   0  0  2  0  0  0  0  0  0  0  0  0
   23.4262   37.0728   68.7158 C   0  0  0  0  0  0  0  0  0  0  0  0
   24.7414   37.7967   69.0133 C   0  0  0  0  0  0  0  0  0  0  0  0
   25.6729   37.5428   67.9598 O   0  0  0  0  0  0  0  0  0  0  0  0
  1 11  1  0  0  0  0
  3 13  1  1  0  0  0
  3 17  2  0  0  0  0
  3 20  1  0  0  0  0
  3 26  1  0  0  0  0
  4 14  1  1  0  0  0
  4 18  1  0  0  0  0
  4 21  2  0  0  0  0
  4 20  1  0  0  0  0
  5 19  1  0  0  0  0
  5  7  1  0  0  0  0
  6  7  2  0  0  0  0
  6 12  1  0  0  0  0
  7  8  1  0  0  0  0
  8  9  1  0  0  0  0
  8 10  2  0  0  0  0
 10 11  1  0  0  0  0
 11 12  2  0  0  0  0
 15 23  1  0  0  0  0
 15 16  1  0  0  0  0
 16 19  1  0  0  0  0
 19 22  1  0  0  0  0
 22  2  1  1  0  0  0
 22 23  1  0  0  0  0
 23 24  1  6  0  0  0
 24 25  1  0  0  0  0
 25 26  1  0  0  0  0
M  CHG  2  13  -1  18  -1
M  END
>  <CHROM.1>
-76.34257183,52.63968272,20.81420176,42.69091459,99.35144781,-71.09473394
173.50694754,51.11363153,23.60900480,39.05872139,66.85829775,-2.92867887
0.16346859,2.55501515

>  <Name>
ligand

>  <RI>
0

>  <Rbt.Current_Directory>
/home/itssahil/PROJECTS/Mol_Feturizer/New_Systems/rnas/2HOJ

>  <Rbt.Executable>
rbdock ($Id: //depot/dev/client3/rdock/2013.1/src/exe/rbdock.cxx#4 $)

>  <Rbt.Library>
libRbt.so (2013.1, Build901 2013/11/27)

>  <Rbt.Parameter_File>
/export/apps/rDock/src/rDock_2013.1_src/data/scripts/dock_solv.prm

>  <Rbt.Receptor>
prm/pocket_docking_4.prm

>  <SCORE>
-26.4324

>  <SCORE.INTER>
-21.8239

>  <SCORE.INTER.CONST>
1

>  <SCORE.INTER.POLAR>
-0.961531

>  <SCORE.INTER.ROT>
8

>  <SCORE.INTER.SOLV>
24.422

>  <SCORE.INTER.VDW>
-28.4182

>  <SCORE.INTER.norm>
-0.839381

>  <SCORE.INTRA>
-4.60854

>  <SCORE.INTRA.DIHEDRAL>
-5.27743

>  <SCORE.INTRA.DIHEDRAL.0>
11.6398

>  <SCORE.INTRA.POLAR>
0

>  <SCORE.INTRA.POLAR.0>
0

>  <SCORE.INTRA.REPUL>
0

>  <SCORE.INTRA.REPUL.0>
0

>  <SCORE.INTRA.SOLV>
0.798417

>  <SCORE.INTRA.SOLV.lig_0>
-81.722

>  <SCORE.INTRA.VDW>
-2.36904

>  <SCORE.INTRA.VDW.0>
1.12598

>  <SCORE.INTRA.norm>
-0.177252

>  <SCORE.RESTR>
0

>  <SCORE.RESTR.CAVITY>
0

>  <SCORE.RESTR.norm>
0

>  <SCORE.SYSTEM>
0

>  <SCORE.SYSTEM.CONST>
0

>  <SCORE.SYSTEM.DIHEDRAL>
0

>  <SCORE.SYSTEM.SOLV>
0

>  <SCORE.SYSTEM.norm>
0

>  <SCORE.heavy>
26

>  <SCORE.norm>
-1.01663

>  <RMSD>
2.131

$$$$
ligand
 OpenBabel11021811433D
libRbt.so/2013.1/901 2013/11/27
 26 27  0  0  0  0  0  0  0  0999 V2000
   17.0741   40.0847   64.8423 C   0  0  0  0  0  0  0  0  0  0  0  0
   24.1636   40.6483   65.3759 C   0  0  0  0  0  0  0  0  0  0  0  0
   28.4629   40.0148   67.0878 P   0  0  1  0  0  0  0  0  0  0  0  0
   27.8232   39.5329   69.5466 P   0  0  1  0  0  0  0  0  0  0  0  0
   22.1417   40.9119   67.3026 C   0  0  0  0  0  0  0  0  0  0  0  0
   20.2343   39.4362   66.5985 C   0  0  0  0  0  0  0  0  0  0  0  0
   20.8003   40.6944   66.6510 C   0  0  0  0  0  0  0  0  0  0  0  0
   20.0983   41.7602   66.0855 C   0  0  0  0  0  0  0  0  0  0  0  0
   20.6237   43.0434   66.1117 N   0  0  0  0  0  0  0  0  0  0  0  0
   18.9199   41.5260   65.5155 N   0  0  0  0  0  0  0  0  0  0  0  0
   18.4145   40.3098   65.4919 C   0  0  0  0  0  0  0  0  0  0  0  0
   19.0523   39.2819   66.0168 N   0  0  0  0  0  0  0  0  0  0  0  0
   27.7459   41.2903   66.8629 O   0  5  0  0  0  0  0  0  0  0  0  0
   28.1120   39.9851   70.9951 O   0  0  0  0  0  0  0  0  0  0  0  0
   23.7959   37.4884   67.6611 S   0  0  0  0  0  0  0  0  0  0  0  0
   22.6453   38.7109   68.1074 C   0  0  0  0  0  0  0  0  0  0  0  0
   29.6802   39.8913   66.0435 O   0  0  0  0  0  0  0  0  0  0  0  0
   26.4574   40.2119   69.0332 O   0  5  0  0  0  0  0  0  0  0  0  0
   22.9164   39.6700   67.2528 N   0  0  0  0  0  0  0  0  0  0  0  0
   29.0395   39.9819   68.5912 O   0  0  0  0  0  0  0  0  0  0  0  0
   27.6797   37.9947   69.5072 O   0  0  0  0  0  0  0  0  0  0  0  0
   23.8651   39.5380   66.3516 C   0  0  2  0  0  0  0  0  0  0  0  0
   24.5754   38.3816   66.3244 C   0  0  2  0  0  0  0  0  0  0  0  0
   25.7038   37.9655   65.4175 C   0  0  0  0  0  0  0  0  0  0  0  0
   26.8748   38.9378   65.5774 C   0  0  0  0  0  0  0  0  0  0  0  0
   27.4473   38.7829   66.8775 O   0  0  0  0  0  0  0  0  0  0  0  0
  1 11  1  0  0  0  0
  3 13  1  6  0  0  0
  3 17  2  0  0  0  0
  3 20  1  0  0  0  0
  3 26  1  0  0  0  0
  4 14  1  1  0  0  0
  4 18  1  0  0  0  0
  4 21  2  0  0  0  0
  4 20  1  0  0  0  0
  5 19  1  0  0  0  0
  5  7  1  0  0  0  0
  6  7  2  0  0  0  0
  6 12  1  0  0  0  0
  7  8  1  0  0  0  0
  8  9  1  0  0  0  0
  8 10  2  0  0  0  0
 10 11  1  0  0  0  0
 11 12  2  0  0  0  0
 15 23  1  0  0  0  0
 15 16  1  0  0  0  0
 16 19  1  0  0  0  0
 19 22  1  0  0  0  0
 22  2  1  1  0  0  0
 22 23  1  0  0  0  0
 23 24  1  6  0  0  0
 24 25  1  0  0  0  0
 25 26  1  0  0  0  0
M  CHG  2  13  -1  18  -1
M  END
>  <CHROM.1>
81.61678826,-78.03084995,25.83762440,-158.53317639,-119.72001532,68.25905542
-168.95736858,54.66076447,24.53952900,39.74020825,67.15878469,-2.87397256
0.05833709,2.16154067

>  <Name>
ligand

>  <RI>
0

>  <Rbt.Current_Directory>
/home/itssahil/PROJECTS/Mol_Feturizer/New_Systems/rnas/2HOJ

>  <Rbt.Executable>
rbdock ($Id: //depot/dev/client3/rdock/2013.1/src/exe/rbdock.cxx#4 $)

>  <Rbt.Library>
libRbt.so (2013.1, Build901 2013/11/27)

>  <Rbt.Parameter_File>
/export/apps/rDock/src/rDock_2013.1_src/data/scripts/dock_solv.prm

>  <Rbt.Receptor>
prm/pocket_docking_2.prm

>  <SCORE>
-18.7593

>  <SCORE.INTER>
-15.3811

>  <SCORE.INTER.CONST>
1

>  <SCORE.INTER.POLAR>
-0.876288

>  <SCORE.INTER.ROT>
8

>  <SCORE.INTER.SOLV>
17.993

>  <SCORE.INTER.VDW>
-22.2641

>  <SCORE.INTER.norm>
-0.591582

>  <SCORE.INTRA>
-4.09979

>  <SCORE.INTRA.DIHEDRAL>
-4.82238

>  <SCORE.INTRA.DIHEDRAL.0>
11.6398

>  <SCORE.INTRA.POLAR>
0

>  <SCORE.INTRA.POLAR.0>
0

>  <SCORE.INTRA.REPUL>
0

>  <SCORE.INTRA.REPUL.0>
0

>  <SCORE.INTRA.SOLV>
3.82068

>  <SCORE.INTRA.SOLV.lig_0>
-81.722

>  <SCORE.INTRA.VDW>
-3.59893

>  <SCORE.INTRA.VDW.0>
1.12598

>  <SCORE.INTRA.norm>
-0.157684

>  <SCORE.RESTR>
0.721587

>  <SCORE.RESTR.CAVITY>
0.721587

>  <SCORE.RESTR.norm>
0.0277534

>  <SCORE.SYSTEM>
0

>  <SCORE.SYSTEM.CONST>
0

>  <SCORE.SYSTEM.DIHEDRAL>
0

>  <SCORE.SYSTEM.SOLV>
0

>  <SCORE.SYSTEM.norm>
0

>  <SCORE.heavy>
26

>  <SCORE.norm>
-0.721513

>  <RMSD>
2.159

$$$$
ligand
 OpenBabel11021811433D
libRbt.so/2013.1/901 2013/11/27
 26 27  0  0  0  0  0  0  0  0999 V2000
   16.7399   40.1145   64.5605 C   0  0  0  0  0  0  0  0  0  0  0  0
   23.7751   43.2797   67.3619 C   0  0  0  0  0  0  0  0  0  0  0  0
   28.3296   39.8945   67.4980 P   0  0  1  0  0  0  0  0  0  0  0  0
   28.7198   37.3408   67.3838 P   0  0  1  0  0  0  0  0  0  0  0  0
   21.5058   41.6325   67.2808 C   0  0  0  0  0  0  0  0  0  0  0  0
   19.8347   39.9139   66.5288 C   0  0  0  0  0  0  0  0  0  0  0  0
   20.2442   41.2321   66.5603 C   0  0  0  0  0  0  0  0  0  0  0  0
   19.4596   42.1848   65.9082 C   0  0  0  0  0  0  0  0  0  0  0  0
   19.8276   43.5220   65.9100 N   0  0  0  0  0  0  0  0  0  0  0  0
   18.3561   41.7903   65.2795 N   0  0  0  0  0  0  0  0  0  0  0  0
   17.9999   40.5222   65.2786 C   0  0  0  0  0  0  0  0  0  0  0  0
   18.7191   39.5979   65.8848 N   0  0  0  0  0  0  0  0  0  0  0  0
   28.9834   40.0564   68.8163 O   0  5  0  0  0  0  0  0  0  0  0  0
   29.7761   37.6169   68.4766 O   0  0  0  0  0  0  0  0  0  0  0  0
   24.1871   40.2118   64.9618 S   0  0  0  0  0  0  0  0  0  0  0  0
   22.6206   40.2030   65.7124 C   0  0  0  0  0  0  0  0  0  0  0  0
   29.4404   39.9567   66.3361 O   0  0  0  0  0  0  0  0  0  0  0  0
   28.0585   35.8940   67.6281 O   0  5  0  0  0  0  0  0  0  0  0  0
   22.6686   41.2788   66.4636 N   0  0  0  0  0  0  0  0  0  0  0  0
   27.5756   38.4725   67.4445 O   0  0  0  0  0  0  0  0  0  0  0  0
   29.3973   37.3690   65.9952 O   0  0  0  0  0  0  0  0  0  0  0  0
   23.7360   42.0466   66.4949 C   0  0  2  0  0  0  0  0  0  0  0  0
   24.8053   41.6995   65.7343 C   0  0  2  0  0  0  0  0  0  0  0  0
   26.1398   42.3809   65.5811 C   0  0  0  0  0  0  0  0  0  0  0  0
   27.2615   41.3852   65.8854 C   0  0  0  0  0  0  0  0  0  0  0  0
   27.2578   41.0766   67.2806 O   0  0  0  0  0  0  0  0  0  0  0  0
  1 11  1  0  0  0  0
  3 13  1  1  0  0  0
  3 17  2  0  0  0  0
  3 20  1  0  0  0  0
  3 26  1  0  0  0  0
  4 14  1  1  0  0  0
  4 18  1  0  0  0  0
  4 21  2  0  0  0  0
  4 20  1  0  0  0  0
  5 19  1  0  0  0  0
  5  7  1  0  0  0  0
  6  7  2  0  0  0  0
  6 12  1  0  0  0  0
  7  8  1  0  0  0  0
  8  9  1  0  0  0  0
  8 10  2  0  0  0  0
 10 11  1  0  0  0  0
 11 12  2  0  0  0  0
 15 23  1  0  0  0  0
 15 16  1  0  0  0  0
 16 19  1  0  0  0  0
 19 22  1  0  0  0  0
 22  2  1  1  0  0  0
 22 23  1  0  0  0  0
 23 24  1  6  0  0  0
 24 25  1  0  0  0  0
 25 26  1  0  0  0  0
M  CHG  2  13  -1  18  -1
M  END
>  <CHROM.1>
-70.61863123,-33.67467524,77.21964061,48.51030096,-54.94278988,-69.53256969
173.01080891,146.02165718,24.65135623,40.18023769,66.52853868,2.86568992
-0.16742135,-0.01908093

>  <Name>
ligand

>  <RI>
0

>  <Rbt.Current_Directory>
/home/itssahil/PROJECTS/Mol_Feturizer/New_Systems/rnas/2HOJ

>  <Rbt.Executable>
rbdock ($Id: //depot/dev/client3/rdock/2013.1/src/exe/rbdock.cxx#4 $)

>  <Rbt.Library>
libRbt.so (2013.1, Build901 2013/11/27)

>  <Rbt.Parameter_File>
/export/apps/rDock/src/rDock_2013.1_src/data/scripts/dock_solv.prm

>  <Rbt.Receptor>
prm/pocket_docking_5.prm

>  <SCORE>
-23.7531

>  <SCORE.INTER>
-20.7819

>  <SCORE.INTER.CONST>
1

>  <SCORE.INTER.POLAR>
-2.67381

>  <SCORE.INTER.ROT>
8

>  <SCORE.INTER.SOLV>
23.9739

>  <SCORE.INTER.VDW>
-21.8666

>  <SCORE.INTER.norm>
-0.799305

>  <SCORE.INTRA>
-2.97119

>  <SCORE.INTRA.DIHEDRAL>
-4.07224

>  <SCORE.INTRA.DIHEDRAL.0>
11.6398

>  <SCORE.INTRA.POLAR>
0

>  <SCORE.INTRA.POLAR.0>
0

>  <SCORE.INTRA.REPUL>
0

>  <SCORE.INTRA.REPUL.0>
0

>  <SCORE.INTRA.SOLV>
1.75603

>  <SCORE.INTRA.SOLV.lig_0>
-81.722

>  <SCORE.INTRA.VDW>
-1.81308

>  <SCORE.INTRA.VDW.0>
1.12598

>  <SCORE.INTRA.norm>
-0.114276

>  <SCORE.RESTR>
0

>  <SCORE.RESTR.CAVITY>
0

>  <SCORE.RESTR.norm>
0

>  <SCORE.SYSTEM>
0

>  <SCORE.SYSTEM.CONST>
0

>  <SCORE.SYSTEM.DIHEDRAL>
0

>  <SCORE.SYSTEM.SOLV>
0

>  <SCORE.SYSTEM.norm>
0

>  <SCORE.heavy>
26

>  <SCORE.norm>
-0.913581

>  <RMSD>
2.165

$$$$
ligand
 OpenBabel11021811433D
libRbt.so/2013.1/901 2013/11/27
 26 27  0  0  0  0  0  0  0  0999 V2000
   16.6865   39.8319   64.6498 C   0  0  0  0  0  0  0  0  0  0  0  0
   24.0096   42.9354   66.9812 C   0  0  0  0  0  0  0  0  0  0  0  0
   27.5706   37.9831   66.5445 P   0  0  1  0  0  0  0  0  0  0  0  0
   29.6544   38.7322   67.8800 P   0  0  1  0  0  0  0  0  0  0  0  0
   21.5362   41.6133   67.0427 C   0  0  0  0  0  0  0  0  0  0  0  0
   19.8784   39.8153   66.4674 C   0  0  0  0  0  0  0  0  0  0  0  0
   20.2523   41.1431   66.4088 C   0  0  0  0  0  0  0  0  0  0  0  0
   19.4106   42.0393   65.7477 C   0  0  0  0  0  0  0  0  0  0  0  0
   19.7412   43.3834   65.6605 N   0  0  0  0  0  0  0  0  0  0  0  0
   18.2890   41.5840   65.1971 N   0  0  0  0  0  0  0  0  0  0  0  0
   17.9684   40.3091   65.2810 C   0  0  0  0  0  0  0  0  0  0  0  0
   18.7417   39.4372   65.8980 N   0  0  0  0  0  0  0  0  0  0  0  0
   27.0735   37.5124   65.2319 O   0  5  0  0  0  0  0  0  0  0  0  0
   29.7690   40.2450   67.5894 O   0  0  0  0  0  0  0  0  0  0  0  0
   24.0896   39.4412   65.2131 S   0  0  0  0  0  0  0  0  0  0  0  0
   22.5060   39.7794   65.8416 C   0  0  0  0  0  0  0  0  0  0  0  0
   27.0209   37.0152   67.7058 O   0  0  0  0  0  0  0  0  0  0  0  0
   28.5778   38.4894   69.0513 O   0  5  0  0  0  0  0  0  0  0  0  0
   22.6722   40.9624   66.3864 N   0  0  0  0  0  0  0  0  0  0  0  0
   29.1809   37.9635   66.5463 O   0  0  0  0  0  0  0  0  0  0  0  0
   31.0307   38.1886   68.3253 O   0  0  0  0  0  0  0  0  0  0  0  0
   23.8349   41.5762   66.3521 C   0  0  2  0  0  0  0  0  0  0  0  0
   24.8770   40.9546   65.7436 C   0  0  2  0  0  0  0  0  0  0  0  0
   26.2999   41.4145   65.5626 C   0  0  0  0  0  0  0  0  0  0  0  0
   27.2364   40.2043   65.5862 C   0  0  0  0  0  0  0  0  0  0  0  0
   27.0539   39.4854   66.8076 O   0  0  0  0  0  0  0  0  0  0  0  0
  1 11  1  0  0  0  0
  3 13  1  6  0  0  0
  3 17  2  0  0  0  0
  3 20  1  0  0  0  0
  3 26  1  0  0  0  0
  4 14  1  6  0  0  0
  4 18  1  0  0  0  0
  4 21  2  0  0  0  0
  4 20  1  0  0  0  0
  5 19  1  0  0  0  0
  5  7  1  0  0  0  0
  6  7  2  0  0  0  0
  6 12  1  0  0  0  0
  7  8  1  0  0  0  0
  8  9  1  0  0  0  0
  8 10  2  0  0  0  0
 10 11  1  0  0  0  0
 11 12  2  0  0  0  0
 15 23  1  0  0  0  0
 15 16  1  0  0  0  0
 16 19  1  0  0  0  0
 19 22  1  0  0  0  0
 22  2  1  1  0  0  0
 22 23  1  0  0  0  0
 23 24  1  6  0  0  0
 24 25  1  0  0  0  0
 25 26  1  0  0  0  0
M  CHG  2  13  -1  18  -1
M  END
>  <CHROM.1>
169.81980916,-28.01168768,62.83622904,-87.81376633,-32.72697135,-56.65711366
157.72599129,-43.80329679,24.63553119,39.83818199,66.43323856,2.91989376
-0.20036777,0.10480452

>  <Name>
ligand

>  <RI>
0

>  <Rbt.Current_Directory>
/home/itssahil/PROJECTS/Mol_Feturizer/New_Systems/rnas/2HOJ

>  <Rbt.Executable>
rbdock ($Id: //depot/dev/client3/rdock/2013.1/src/exe/rbdock.cxx#4 $)

>  <Rbt.Library>
libRbt.so (2013.1, Build901 2013/11/27)

>  <Rbt.Parameter_File>
/export/apps/rDock/src/rDock_2013.1_src/data/scripts/dock_solv.prm

>  <Rbt.Receptor>
prm/pocket_docking_5.prm

>  <SCORE>
-25.674

>  <SCORE.INTER>
-23.3631

>  <SCORE.INTER.CONST>
1

>  <SCORE.INTER.POLAR>
-2.75368

>  <SCORE.INTER.ROT>
8

>  <SCORE.INTER.SOLV>
25.2647

>  <SCORE.INTER.VDW>
-23.7514

>  <SCORE.INTER.norm>
-0.898581

>  <SCORE.INTRA>
-2.31093

>  <SCORE.INTRA.DIHEDRAL>
-2.88879

>  <SCORE.INTRA.DIHEDRAL.0>
11.6398

>  <SCORE.INTRA.POLAR>
0

>  <SCORE.INTRA.POLAR.0>
0

>  <SCORE.INTRA.REPUL>
0

>  <SCORE.INTRA.REPUL.0>
0

>  <SCORE.INTRA.SOLV>
1.29137

>  <SCORE.INTRA.SOLV.lig_0>
-81.722

>  <SCORE.INTRA.VDW>
-1.51222

>  <SCORE.INTRA.VDW.0>
1.12598

>  <SCORE.INTRA.norm>
-0.0888821

>  <SCORE.RESTR>
0

>  <SCORE.RESTR.CAVITY>
0

>  <SCORE.RESTR.norm>
0

>  <SCORE.SYSTEM>
0

>  <SCORE.SYSTEM.CONST>
0

>  <SCORE.SYSTEM.DIHEDRAL>
0

>  <SCORE.SYSTEM.SOLV>
0

>  <SCORE.SYSTEM.norm>
0

>  <SCORE.heavy>
26

>  <SCORE.norm>
-0.987463

>  <RMSD>
2.169

$$$$
ligand
 OpenBabel11021811433D
libRbt.so/2013.1/901 2013/11/27
 26 27  0  0  0  0  0  0  0  0999 V2000
   15.6440   39.0634   64.0117 C   0  0  0  0  0  0  0  0  0  0  0  0
   21.7337   40.1863   68.6199 C   0  0  0  0  0  0  0  0  0  0  0  0
   27.4003   38.1596   67.6376 P   0  0  1  0  0  0  0  0  0  0  0  0
   29.8284   39.0008   67.3486 P   0  0  1  0  0  0  0  0  0  0  0  0
   20.5901   40.8934   66.1578 C   0  0  0  0  0  0  0  0  0  0  0  0
   19.0123   39.0608   65.4769 C   0  0  0  0  0  0  0  0  0  0  0  0
   19.2806   40.4105   65.5895 C   0  0  0  0  0  0  0  0  0  0  0  0
   18.3077   41.3165   65.1638 C   0  0  0  0  0  0  0  0  0  0  0  0
   18.5286   42.6826   65.2552 N   0  0  0  0  0  0  0  0  0  0  0  0
   17.1672   40.8502   64.6635 N   0  0  0  0  0  0  0  0  0  0  0  0
   16.9508   39.5536   64.5787 C   0  0  0  0  0  0  0  0  0  0  0  0
   17.8492   38.6719   64.9716 N   0  0  0  0  0  0  0  0  0  0  0  0
   27.6492   37.2868   66.4681 O   0  5  0  0  0  0  0  0  0  0  0  0
   30.1547   37.9467   68.4297 O   0  0  0  0  0  0  0  0  0  0  0  0
   22.9716   37.9511   65.6511 S   0  0  0  0  0  0  0  0  0  0  0  0
   21.8394   39.1453   65.0950 C   0  0  0  0  0  0  0  0  0  0  0  0
   27.7830   37.3720   68.9871 O   0  0  0  0  0  0  0  0  0  0  0  0
   30.0283   38.3536   65.8887 O   0  5  0  0  0  0  0  0  0  0  0  0
   21.5424   39.7817   66.2043 N   0  0  0  0  0  0  0  0  0  0  0  0
   28.3026   39.4880   67.5168 O   0  0  0  0  0  0  0  0  0  0  0  0
   30.7752   40.2115   67.5088 O   0  0  0  0  0  0  0  0  0  0  0  0
   22.0840   39.4447   67.3545 C   0  0  2  0  0  0  0  0  0  0  0  0
   22.9605   38.4086   67.3781 C   0  0  2  0  0  0  0  0  0  0  0  0
   23.7164   37.8129   68.5368 C   0  0  0  0  0  0  0  0  0  0  0  0
   25.1194   37.4074   68.0793 C   0  0  0  0  0  0  0  0  0  0  0  0
   25.8442   38.5721   67.6791 O   0  0  0  0  0  0  0  0  0  0  0  0
  1 11  1  0  0  0  0
  3 13  1  6  0  0  0
  3 17  2  0  0  0  0
  3 20  1  0  0  0  0
  3 26  1  0  0  0  0
  4 14  1  1  0  0  0
  4 18  1  0  0  0  0
  4 21  2  0  0  0  0
  4 20  1  0  0  0  0
  5 19  1  0  0  0  0
  5  7  1  0  0  0  0
  6  7  2  0  0  0  0
  6 12  1  0  0  0  0
  7  8  1  0  0  0  0
  8  9  1  0  0  0  0
  8 10  2  0  0  0  0
 10 11  1  0  0  0  0
 11 12  2  0  0  0  0
 15 23  1  0  0  0  0
 15 16  1  0  0  0  0
 16 19  1  0  0  0  0
 19 22  1  0  0  0  0
 22  2  1  1  0  0  0
 22 23  1  0  0  0  0
 23 24  1  6  0  0  0
 24 25  1  0  0  0  0
 25 26  1  0  0  0  0
M  CHG  2  13  -1  18  -1
M  END
>  <CHROM.1>
-55.10490127,57.64488365,14.27061413,-48.89034601,37.28176984,63.63342943
163.42500459,72.56710312,23.88921891,39.05353831,66.64157803,2.95394458,-0.17678732
-0.25138601

>  <Name>
ligand

>  <RI>
0

>  <Rbt.Current_Directory>
/home/itssahil/PROJECTS/Mol_Feturizer/New_Systems/rnas/2HOJ

>  <Rbt.Executable>
rbdock ($Id: //depot/dev/client3/rdock/2013.1/src/exe/rbdock.cxx#4 $)

>  <Rbt.Library>
libRbt.so (2013.1, Build901 2013/11/27)

>  <Rbt.Parameter_File>
/export/apps/rDock/src/rDock_2013.1_src/data/scripts/dock_solv.prm

>  <Rbt.Receptor>
prm/pocket_docking_4.prm

>  <SCORE>
-31.5203

>  <SCORE.INTER>
-27.4274

>  <SCORE.INTER.CONST>
1

>  <SCORE.INTER.POLAR>
-2.56725

>  <SCORE.INTER.ROT>
8

>  <SCORE.INTER.SOLV>
28.3126

>  <SCORE.INTER.VDW>
-28.0983

>  <SCORE.INTER.norm>
-1.0549

>  <SCORE.INTRA>
-4.09297

>  <SCORE.INTRA.DIHEDRAL>
-4.8482

>  <SCORE.INTRA.DIHEDRAL.0>
11.6398

>  <SCORE.INTRA.POLAR>
0

>  <SCORE.INTRA.POLAR.0>
0

>  <SCORE.INTRA.REPUL>
0

>  <SCORE.INTRA.REPUL.0>
0

>  <SCORE.INTRA.SOLV>
1.00238

>  <SCORE.INTRA.SOLV.lig_0>
-81.722

>  <SCORE.INTRA.VDW>
-2.17006

>  <SCORE.INTRA.VDW.0>
1.12598

>  <SCORE.INTRA.norm>
-0.157422

>  <SCORE.RESTR>
0

>  <SCORE.RESTR.CAVITY>
0

>  <SCORE.RESTR.norm>
0

>  <SCORE.SYSTEM>
0

>  <SCORE.SYSTEM.CONST>
0

>  <SCORE.SYSTEM.DIHEDRAL>
0

>  <SCORE.SYSTEM.SOLV>
0

>  <SCORE.SYSTEM.norm>
0

>  <SCORE.heavy>
26

>  <SCORE.norm>
-1.21232

>  <RMSD>
2.170

$$$$
ligand
 OpenBabel11021811433D
libRbt.so/2013.1/901 2013/11/27
 26 27  0  0  0  0  0  0  0  0999 V2000
   16.7141   38.1996   64.4894 C   0  0  0  0  0  0  0  0  0  0  0  0
   22.9955   42.8782   66.1106 C   0  0  0  0  0  0  0  0  0  0  0  0
   27.6271   39.2755   65.9475 P   0  0  1  0  0  0  0  0  0  0  0  0
   29.2847   37.8439   67.3221 P   0  0  1  0  0  0  0  0  0  0  0  0
   20.3485   42.0637   66.5576 C   0  0  0  0  0  0  0  0  0  0  0  0
   19.4227   39.7311   66.4413 C   0  0  0  0  0  0  0  0  0  0  0  0
   19.3860   41.0420   66.0093 C   0  0  0  0  0  0  0  0  0  0  0  0
   18.4342   41.3970   65.0518 C   0  0  0  0  0  0  0  0  0  0  0  0
   18.3565   42.7006   64.5848 N   0  0  0  0  0  0  0  0  0  0  0  0
   17.6062   40.4649   64.5894 N   0  0  0  0  0  0  0  0  0  0  0  0
   17.6730   39.2264   65.0329 C   0  0  0  0  0  0  0  0  0  0  0  0
   18.5604   38.8588   65.9365 N   0  0  0  0  0  0  0  0  0  0  0  0
   27.4120   39.9924   64.6702 O   0  5  0  0  0  0  0  0  0  0  0  0
   30.7718   37.6237   67.6778 O   0  0  0  0  0  0  0  0  0  0  0  0
   22.7053   39.9363   68.6802 S   0  0  0  0  0  0  0  0  0  0  0  0
   21.1370   40.4068   68.1001 C   0  0  0  0  0  0  0  0  0  0  0  0
   26.7035   37.9590   65.9869 O   0  0  0  0  0  0  0  0  0  0  0  0
   28.5170   38.4765   68.5873 O   0  5  0  0  0  0  0  0  0  0  0  0
   21.4305   41.3822   67.2715 N   0  0  0  0  0  0  0  0  0  0  0  0
   29.1754   38.8492   66.0687 O   0  0  0  0  0  0  0  0  0  0  0  0
   28.6386   36.4896   66.9526 O   0  0  0  0  0  0  0  0  0  0  0  0
   22.6744   41.7571   67.0665 C   0  0  2  0  0  0  0  0  0  0  0  0
   23.6629   41.1166   67.7412 C   0  0  2  0  0  0  0  0  0  0  0  0
   25.1525   41.3369   67.7052 C   0  0  0  0  0  0  0  0  0  0  0  0
   25.8624   40.0015   67.4713 C   0  0  0  0  0  0  0  0  0  0  0  0
   27.2403   40.2404   67.1773 O   0  0  0  0  0  0  0  0  0  0  0  0
  1 11  1  0  0  0  0
  3 13  1  6  0  0  0
  3 17  2  0  0  0  0
  3 20  1  0  0  0  0
  3 26  1  0  0  0  0
  4 14  1  1  0  0  0
  4 18  1  0  0  0  0
  4 21  2  0  0  0  0
  4 20  1  0  0  0  0
  5 19  1  0  0  0  0
  5  7  1  0  0  0  0
  6  7  2  0  0  0  0
  6 12  1  0  0  0  0
  7  8  1  0  0  0  0
  8  9  1  0  0  0  0
  8 10  2  0  0  0  0
 10 11  1  0  0  0  0
 11 12  2  0  0  0  0
 15 23  1  0  0  0  0
 15 16  1  0  0  0  0
 16 19  1  0  0  0  0
 19 22  1  0  0  0  0
 22  2  1  1  0  0  0
 22 23  1  0  0  0  0
 23 24  1  6  0  0  0
 24 25  1  0  0  0  0
 25 26  1  0  0  0  0
M  CHG  2  13  -1  18  -1
M  END
>  <CHROM.1>
-169.43173092,-45.20171693,14.01860360,-168.41951477,50.43404930,168.75103399
-136.50567783,91.39752088,23.99976791,39.78636464,66.61494331,2.98824383
-0.19212361,0.34628303

>  <Name>
ligand

>  <RI>
0

>  <Rbt.Current_Directory>
/home/itssahil/PROJECTS/Mol_Feturizer/New_Systems/rnas/2HOJ

>  <Rbt.Executable>
rbdock ($Id: //depot/dev/client3/rdock/2013.1/src/exe/rbdock.cxx#4 $)

>  <Rbt.Library>
libRbt.so (2013.1, Build901 2013/11/27)

>  <Rbt.Parameter_File>
/export/apps/rDock/src/rDock_2013.1_src/data/scripts/dock_solv.prm

>  <Rbt.Receptor>
prm/pocket_docking_3.prm

>  <SCORE>
-10.2053

>  <SCORE.INTER>
-14.2968

>  <SCORE.INTER.CONST>
1

>  <SCORE.INTER.POLAR>
-1.31895

>  <SCORE.INTER.ROT>
8

>  <SCORE.INTER.SOLV>
24.8763

>  <SCORE.INTER.VDW>
-22.3601

>  <SCORE.INTER.norm>
-0.549878

>  <SCORE.INTRA>
3.91984

>  <SCORE.INTRA.DIHEDRAL>
1.57533

>  <SCORE.INTRA.DIHEDRAL.0>
11.6398

>  <SCORE.INTRA.POLAR>
0

>  <SCORE.INTRA.POLAR.0>
0

>  <SCORE.INTRA.REPUL>
0

>  <SCORE.INTRA.REPUL.0>
0

>  <SCORE.INTRA.SOLV>
3.43408

>  <SCORE.INTRA.SOLV.lig_0>
-81.722

>  <SCORE.INTRA.VDW>
1.41513

>  <SCORE.INTRA.VDW.0>
1.12598

>  <SCORE.INTRA.norm>
0.150763

>  <SCORE.RESTR>
0.171743

>  <SCORE.RESTR.CAVITY>
0.171743

>  <SCORE.RESTR.norm>
0.00660551

>  <SCORE.SYSTEM>
0

>  <SCORE.SYSTEM.CONST>
0

>  <SCORE.SYSTEM.DIHEDRAL>
0

>  <SCORE.SYSTEM.SOLV>
0

>  <SCORE.SYSTEM.norm>
0

>  <SCORE.heavy>
26

>  <SCORE.norm>
-0.39251

>  <RMSD>
2.193

$$$$
ligand
 OpenBabel11021811433D
libRbt.so/2013.1/901 2013/11/27
 26 27  0  0  0  0  0  0  0  0999 V2000
   15.3551   39.0572   63.6826 C   0  0  0  0  0  0  0  0  0  0  0  0
   22.5653   41.8480   66.5653 C   0  0  0  0  0  0  0  0  0  0  0  0
   27.6771   40.0223   67.9234 P   0  0  1  0  0  0  0  0  0  0  0  0
   28.5176   37.6200   67.4655 P   0  0  1  0  0  0  0  0  0  0  0  0
   20.0663   40.5754   66.4965 C   0  0  0  0  0  0  0  0  0  0  0  0
   18.3767   38.8671   65.7626 C   0  0  0  0  0  0  0  0  0  0  0  0
   18.8192   40.1749   65.7512 C   0  0  0  0  0  0  0  0  0  0  0  0
   18.0817   41.1171   65.0321 C   0  0  0  0  0  0  0  0  0  0  0  0
   18.4844   42.4435   64.9888 N   0  0  0  0  0  0  0  0  0  0  0  0
   16.9898   40.7226   64.3836 N   0  0  0  0  0  0  0  0  0  0  0  0
   16.6008   39.4649   64.4252 C   0  0  0  0  0  0  0  0  0  0  0  0
   17.2751   38.5507   65.0950 N   0  0  0  0  0  0  0  0  0  0  0  0
   27.0586   40.8865   68.9539 O   0  5  0  0  0  0  0  0  0  0  0  0
   28.6987   38.2576   66.0702 O   0  0  0  0  0  0  0  0  0  0  0  0
   22.6755   38.3362   64.8342 S   0  0  0  0  0  0  0  0  0  0  0  0
   21.0658   38.7114   65.3684 C   0  0  0  0  0  0  0  0  0  0  0  0
   29.2544   40.3275   67.8422 O   0  0  0  0  0  0  0  0  0  0  0  0
   29.9292   37.6067   68.2382 O   0  5  0  0  0  0  0  0  0  0  0  0
   21.2245   39.8961   65.9118 N   0  0  0  0  0  0  0  0  0  0  0  0
   27.4486   38.4763   68.3126 O   0  0  0  0  0  0  0  0  0  0  0  0
   28.0046   36.1710   67.3059 O   0  0  0  0  0  0  0  0  0  0  0  0
   22.3994   40.4865   65.9387 C   0  0  2  0  0  0  0  0  0  0  0  0
   23.4618   39.8389   65.3961 C   0  0  2  0  0  0  0  0  0  0  0  0
   24.9016   40.2689   65.2928 C   0  0  0  0  0  0  0  0  0  0  0  0
   25.6059   40.0266   66.6297 C   0  0  0  0  0  0  0  0  0  0  0  0
   26.9979   40.3198   66.4939 O   0  0  0  0  0  0  0  0  0  0  0  0
  1 11  1  0  0  0  0
  3 13  1  1  0  0  0
  3 17  2  0  0  0  0
  3 20  1  0  0  0  0
  3 26  1  0  0  0  0
  4 14  1  6  0  0  0
  4 18  1  0  0  0  0
  4 21  2  0  0  0  0
  4 20  1  0  0  0  0
  5 19  1  0  0  0  0
  5  7  1  0  0  0  0
  6  7  2  0  0  0  0
  6 12  1  0  0  0  0
  7  8  1  0  0  0  0
  8  9  1  0  0  0  0
  8 10  2  0  0  0  0
 10 11  1  0  0  0  0
 11 12  2  0  0  0  0
 15 23  1  0  0  0  0
 15 16  1  0  0  0  0
 16 19  1  0  0  0  0
 19 22  1  0  0  0  0
 22  2  1  1  0  0  0
 22 23  1  0  0  0  0
 23 24  1  6  0  0  0
 24 25  1  0  0  0  0
 25 26  1  0  0  0  0
M  CHG  2  13  -1  18  -1
M  END
>  <CHROM.1>
-161.83012868,-30.70554617,64.07756103,-36.27532884,-100.34034826,174.74426971
-179.12342506,-60.11632642,23.64353358,39.47088493,66.29628337,3.09061075
-0.27428618,0.23795485

>  <Name>
ligand

>  <RI>
0

>  <Rbt.Current_Directory>
/home/itssahil/PROJECTS/Mol_Feturizer/New_Systems/rnas/2HOJ

>  <Rbt.Executable>
rbdock ($Id: //depot/dev/client3/rdock/2013.1/src/exe/rbdock.cxx#4 $)

>  <Rbt.Library>
libRbt.so (2013.1, Build901 2013/11/27)

>  <Rbt.Parameter_File>
/export/apps/rDock/src/rDock_2013.1_src/data/scripts/dock_solv.prm

>  <Rbt.Receptor>
prm/pocket_docking_3.prm

>  <SCORE>
-30.4808

>  <SCORE.INTER>
-26.3708

>  <SCORE.INTER.CONST>
1

>  <SCORE.INTER.POLAR>
-3.0081

>  <SCORE.INTER.ROT>
8

>  <SCORE.INTER.SOLV>
28.8926

>  <SCORE.INTER.VDW>
-26.1177

>  <SCORE.INTER.norm>
-1.01426

>  <SCORE.INTRA>
-4.36444

>  <SCORE.INTRA.DIHEDRAL>
-5.48974

>  <SCORE.INTRA.DIHEDRAL.0>
11.6398

>  <SCORE.INTRA.POLAR>
0

>  <SCORE.INTRA.POLAR.0>
0

>  <SCORE.INTRA.REPUL>
0

>  <SCORE.INTRA.REPUL.0>
0

>  <SCORE.INTRA.SOLV>
-0.0161983

>  <SCORE.INTRA.SOLV.lig_0>
-81.722

>  <SCORE.INTRA.VDW>
-1.61147

>  <SCORE.INTRA.VDW.0>
1.12598

>  <SCORE.INTRA.norm>
-0.167863

>  <SCORE.RESTR>
0.254346

>  <SCORE.RESTR.CAVITY>
0.254346

>  <SCORE.RESTR.norm>
0.00978253

>  <SCORE.SYSTEM>
0

>  <SCORE.SYSTEM.CONST>
0

>  <SCORE.SYSTEM.DIHEDRAL>
0

>  <SCORE.SYSTEM.SOLV>
0

>  <SCORE.SYSTEM.norm>
0

>  <SCORE.heavy>
26

>  <SCORE.norm>
-1.17234

>  <RMSD>
2.194

$$$$
ligand
 OpenBabel11021811433D
libRbt.so/2013.1/901 2013/11/27
 26 27  0  0  0  0  0  0  0  0999 V2000
   15.8152   39.1670   63.9804 C   0  0  0  0  0  0  0  0  0  0  0  0
   22.5370   40.0577   68.4843 C   0  0  0  0  0  0  0  0  0  0  0  0
   28.3324   37.5061   67.2123 P   0  0  1  0  0  0  0  0  0  0  0  0
   30.7093   38.4203   67.6614 P   0  0  1  0  0  0  0  0  0  0  0  0
   20.7303   40.6730   66.4284 C   0  0  0  0  0  0  0  0  0  0  0  0
   19.0443   38.9513   65.7179 C   0  0  0  0  0  0  0  0  0  0  0  0
   19.4291   40.2758   65.7801 C   0  0  0  0  0  0  0  0  0  0  0  0
   18.5820   41.2379   65.2274 C   0  0  0  0  0  0  0  0  0  0  0  0
   18.9231   42.5817   65.2637 N   0  0  0  0  0  0  0  0  0  0  0  0
   17.4450   40.8462   64.6599 N   0  0  0  0  0  0  0  0  0  0  0  0
   17.1144   39.5716   64.6268 C   0  0  0  0  0  0  0  0  0  0  0  0
   17.8925   38.6384   65.1394 N   0  0  0  0  0  0  0  0  0  0  0  0
   28.4255   38.7517   66.4177 O   0  5  0  0  0  0  0  0  0  0  0  0
   32.0310   38.1886   68.4266 O   0  0  0  0  0  0  0  0  0  0  0  0
   23.0666   37.8829   65.2700 S   0  0  0  0  0  0  0  0  0  0  0  0
   21.7539   38.9992   65.0512 C   0  0  0  0  0  0  0  0  0  0  0  0
   28.3626   36.2359   66.2257 O   0  0  0  0  0  0  0  0  0  0  0  0
   30.9379   38.1346   66.0941 O   0  5  0  0  0  0  0  0  0  0  0  0
   21.7276   39.6238   66.2058 N   0  0  0  0  0  0  0  0  0  0  0  0
   29.5778   37.4253   68.2302 O   0  0  0  0  0  0  0  0  0  0  0  0
   30.2521   39.8835   67.8563 O   0  0  0  0  0  0  0  0  0  0  0  0
   22.5791   39.3302   67.1641 C   0  0  2  0  0  0  0  0  0  0  0  0
   23.4927   38.3515   66.9405 C   0  0  2  0  0  0  0  0  0  0  0  0
   24.5686   37.8132   67.8469 C   0  0  0  0  0  0  0  0  0  0  0  0
   25.9276   37.9262   67.1523 C   0  0  0  0  0  0  0  0  0  0  0  0
   26.9567   37.5040   68.0493 O   0  0  0  0  0  0  0  0  0  0  0  0
  1 11  1  0  0  0  0
  3 13  1  6  0  0  0
  3 17  2  0  0  0  0
  3 20  1  0  0  0  0
  3 26  1  0  0  0  0
  4 14  1  1  0  0  0
  4 18  1  0  0  0  0
  4 21  2  0  0  0  0
  4 20  1  0  0  0  0
  5 19  1  0  0  0  0
  5  7  1  0  0  0  0
  6  7  2  0  0  0  0
  6 12  1  0  0  0  0
  7  8  1  0  0  0  0
  8  9  1  0  0  0  0
  8 10  2  0  0  0  0
 10 11  1  0  0  0  0
 11 12  2  0  0  0  0
 15 23  1  0  0  0  0
 15 16  1  0  0  0  0
 16 19  1  0  0  0  0
 19 22  1  0  0  0  0
 22  2  1  1  0  0  0
 22 23  1  0  0  0  0
 23 24  1  6  0  0  0
 24 25  1  0  0  0  0
 25 26  1  0  0  0  0
M  CHG  2  13  -1  18  -1
M  END
>  <CHROM.1>
-19.72016635,37.89188151,33.41968638,-168.99114113,55.80498799,175.90666968
174.41429971,45.13757674,24.43090095,38.81939429,66.50994282,3.04712059,-0.23814271
0.32231638

>  <Name>
ligand

>  <RI>
0

>  <Rbt.Current_Directory>
/home/itssahil/PROJECTS/Mol_Feturizer/New_Systems/rnas/2HOJ

>  <Rbt.Executable>
rbdock ($Id: //depot/dev/client3/rdock/2013.1/src/exe/rbdock.cxx#4 $)

>  <Rbt.Library>
libRbt.so (2013.1, Build901 2013/11/27)

>  <Rbt.Parameter_File>
/export/apps/rDock/src/rDock_2013.1_src/data/scripts/dock_solv.prm

>  <Rbt.Receptor>
prm/pocket_docking_4.prm

>  <SCORE>
-29.0215

>  <SCORE.INTER>
-28.6399

>  <SCORE.INTER.CONST>
1

>  <SCORE.INTER.POLAR>
-2.54145

>  <SCORE.INTER.ROT>
8

>  <SCORE.INTER.SOLV>
31.0297

>  <SCORE.INTER.VDW>
-29.8983

>  <SCORE.INTER.norm>
-1.10153

>  <SCORE.INTRA>
-0.381653

>  <SCORE.INTRA.DIHEDRAL>
-3.91488

>  <SCORE.INTRA.DIHEDRAL.0>
11.6398

>  <SCORE.INTRA.POLAR>
0

>  <SCORE.INTRA.POLAR.0>
0

>  <SCORE.INTRA.REPUL>
0

>  <SCORE.INTRA.REPUL.0>
0

>  <SCORE.INTRA.SOLV>
2.98957

>  <SCORE.INTRA.SOLV.lig_0>
-81.722

>  <SCORE.INTRA.VDW>
0.0810055

>  <SCORE.INTRA.VDW.0>
1.12598

>  <SCORE.INTRA.norm>
-0.014679

>  <SCORE.RESTR>
0

>  <SCORE.RESTR.CAVITY>
0

>  <SCORE.RESTR.norm>
0

>  <SCORE.SYSTEM>
0

>  <SCORE.SYSTEM.CONST>
0

>  <SCORE.SYSTEM.DIHEDRAL>
0

>  <SCORE.SYSTEM.SOLV>
0

>  <SCORE.SYSTEM.norm>
0

>  <SCORE.heavy>
26

>  <SCORE.norm>
-1.11621

>  <RMSD>
2.217

$$$$
ligand
 OpenBabel11021811433D
libRbt.so/2013.1/901 2013/11/27
 26 27  0  0  0  0  0  0  0  0999 V2000
   16.4375   39.8897   64.2762 C   0  0  0  0  0  0  0  0  0  0  0  0
   22.3349   39.5641   68.7460 C   0  0  0  0  0  0  0  0  0  0  0  0
   27.8143   39.6533   68.8945 P   0  0  1  0  0  0  0  0  0  0  0  0
   29.7784   38.9801   67.3531 P   0  0  1  0  0  0  0  0  0  0  0  0
   21.2099   41.4260   66.9747 C   0  0  0  0  0  0  0  0  0  0  0  0
   19.1700   41.9528   65.6062 C   0  0  0  0  0  0  0  0  0  0  0  0
   19.9469   41.0179   66.2609 C   0  0  0  0  0  0  0  0  0  0  0  0
   19.5329   39.6849   66.2446 C   0  0  0  0  0  0  0  0  0  0  0  0
   20.2778   38.7076   66.8877 N   0  0  0  0  0  0  0  0  0  0  0  0
   18.4098   39.3663   65.6079 N   0  0  0  0  0  0  0  0  0  0  0  0
   17.7011   40.2901   64.9919 C   0  0  0  0  0  0  0  0  0  0  0  0
   18.0646   41.5577   64.9888 N   0  0  0  0  0  0  0  0  0  0  0  0
   28.2443   38.6560   69.9005 O   0  5  0  0  0  0  0  0  0  0  0  0
   28.7718   38.3971   66.3366 O   0  0  0  0  0  0  0  0  0  0  0  0
   24.0469   39.5636   65.2230 S   0  0  0  0  0  0  0  0  0  0  0  0
   22.7675   40.7367   65.2880 C   0  0  0  0  0  0  0  0  0  0  0  0
   27.0495   40.8627   69.6296 O   0  0  0  0  0  0  0  0  0  0  0  0
   31.0990   39.4759   66.5784 O   0  5  0  0  0  0  0  0  0  0  0  0
   22.3225   40.5920   66.5147 N   0  0  0  0  0  0  0  0  0  0  0  0
   29.1057   40.2257   68.1210 O   0  0  0  0  0  0  0  0  0  0  0  0
   30.1623   37.8903   68.3792 O   0  0  0  0  0  0  0  0  0  0  0  0
   22.8564   39.7176   67.3395 C   0  0  2  0  0  0  0  0  0  0  0  0
   23.8834   38.9504   66.8931 C   0  0  2  0  0  0  0  0  0  0  0  0
   24.6690   37.8824   67.6080 C   0  0  0  0  0  0  0  0  0  0  0  0
   25.6681   38.5357   68.5656 C   0  0  0  0  0  0  0  0  0  0  0  0
   26.8225   38.9552   67.8352 O   0  0  0  0  0  0  0  0  0  0  0  0
  1 11  1  0  0  0  0
  3 13  1  1  0  0  0
  3 17  2  0  0  0  0
  3 20  1  0  0  0  0
  3 26  1  0  0  0  0
  4 14  1  6  0  0  0
  4 18  1  0  0  0  0
  4 21  2  0  0  0  0
  4 20  1  0  0  0  0
  5 19  1  0  0  0  0
  5  7  1  0  0  0  0
  6  7  2  0  0  0  0
  6 12  1  0  0  0  0
  7  8  1  0  0  0  0
  8  9  1  0  0  0  0
  8 10  2  0  0  0  0
 10 11  1  0  0  0  0
 11 12  2  0  0  0  0
 15 23  1  0  0  0  0
 15 16  1  0  0  0  0
 16 19  1  0  0  0  0
 19 22  1  0  0  0  0
 22  2  1  6  0  0  0
 22 23  1  0  0  0  0
 23 24  1  1  0  0  0
 24 25  1  0  0  0  0
 25 26  1  0  0  0  0
M  CHG  2  13  -1  18  -1
M  END
>  <CHROM.1>
62.66523682,69.24766749,-127.52824645,61.03507622,103.13630376,-80.88206238
179.01420860,63.20874378,24.43657618,39.63658742,67.04768611,-2.90744276
-0.12372428,1.57386006

>  <Name>
ligand

>  <RI>
0

>  <Rbt.Current_Directory>
/home/itssahil/PROJECTS/Mol_Feturizer/New_Systems/rnas/2HOJ

>  <Rbt.Executable>
rbdock ($Id: //depot/dev/client3/rdock/2013.1/src/exe/rbdock.cxx#4 $)

>  <Rbt.Library>
libRbt.so (2013.1, Build901 2013/11/27)

>  <Rbt.Parameter_File>
/export/apps/rDock/src/rDock_2013.1_src/data/scripts/dock_solv.prm

>  <Rbt.Receptor>
prm/pocket_docking_3.prm

>  <SCORE>
-28.2085

>  <SCORE.INTER>
-24.4798

>  <SCORE.INTER.CONST>
1

>  <SCORE.INTER.POLAR>
-2.72853

>  <SCORE.INTER.ROT>
8

>  <SCORE.INTER.SOLV>
23.6289

>  <SCORE.INTER.VDW>
-24.0344

>  <SCORE.INTER.norm>
-0.941533

>  <SCORE.INTRA>
-3.72864

>  <SCORE.INTRA.DIHEDRAL>
-5.44972

>  <SCORE.INTRA.DIHEDRAL.0>
11.6398

>  <SCORE.INTRA.POLAR>
0

>  <SCORE.INTRA.POLAR.0>
0

>  <SCORE.INTRA.REPUL>
0

>  <SCORE.INTRA.REPUL.0>
0

>  <SCORE.INTRA.SOLV>
4.39285

>  <SCORE.INTRA.SOLV.lig_0>
-81.722

>  <SCORE.INTRA.VDW>
-3.20021

>  <SCORE.INTRA.VDW.0>
1.12598

>  <SCORE.INTRA.norm>
-0.143409

>  <SCORE.RESTR>
0

>  <SCORE.RESTR.CAVITY>
0

>  <SCORE.RESTR.norm>
0

>  <SCORE.SYSTEM>
0

>  <SCORE.SYSTEM.CONST>
0

>  <SCORE.SYSTEM.DIHEDRAL>
0

>  <SCORE.SYSTEM.SOLV>
0

>  <SCORE.SYSTEM.norm>
0

>  <SCORE.heavy>
26

>  <SCORE.norm>
-1.08494

>  <RMSD>
2.220

$$$$
ligand
 OpenBabel11021811433D
libRbt.so/2013.1/901 2013/11/27
 26 27  0  0  0  0  0  0  0  0999 V2000
   16.2966   39.2077   64.5017 C   0  0  0  0  0  0  0  0  0  0  0  0
   23.5523   42.4403   67.4514 C   0  0  0  0  0  0  0  0  0  0  0  0
   27.5708   39.1043   69.1342 P   0  0  1  0  0  0  0  0  0  0  0  0
   29.7401   38.6730   67.7944 P   0  0  1  0  0  0  0  0  0  0  0  0
   21.0045   41.5822   66.6502 C   0  0  0  0  0  0  0  0  0  0  0  0
   18.9089   41.6738   65.2674 C   0  0  0  0  0  0  0  0  0  0  0  0
   19.7587   40.9525   66.0822 C   0  0  0  0  0  0  0  0  0  0  0  0
   19.4347   39.6247   66.3664 C   0  0  0  0  0  0  0  0  0  0  0  0
   20.2551   38.8576   67.1800 N   0  0  0  0  0  0  0  0  0  0  0  0
   18.3239   39.1074   65.8499 N   0  0  0  0  0  0  0  0  0  0  0  0
   17.5436   39.8305   65.0731 C   0  0  0  0  0  0  0  0  0  0  0  0
   17.8212   41.0872   64.7857 N   0  0  0  0  0  0  0  0  0  0  0  0
   26.7425   38.0514   68.5042 O   0  5  0  0  0  0  0  0  0  0  0  0
   28.6816   38.2836   66.7388 O   0  0  0  0  0  0  0  0  0  0  0  0
   23.6446   39.2203   65.2232 S   0  0  0  0  0  0  0  0  0  0  0  0
   22.0107   39.7590   65.4629 C   0  0  0  0  0  0  0  0  0  0  0  0
   26.9909   39.4408   70.5965 O   0  0  0  0  0  0  0  0  0  0  0  0
   30.2464   40.1758   67.5196 O   0  5  0  0  0  0  0  0  0  0  0  0
   22.1782   40.8211   66.2165 N   0  0  0  0  0  0  0  0  0  0  0  0
   29.0896   38.5850   69.2651 O   0  0  0  0  0  0  0  0  0  0  0  0
   30.9384   37.7015   67.7035 O   0  0  0  0  0  0  0  0  0  0  0  0
   23.3763   41.2175   66.5868 C   0  0  2  0  0  0  0  0  0  0  0  0
   24.4513   40.4961   66.1789 C   0  0  2  0  0  0  0  0  0  0  0  0
   25.9166   40.7131   66.4524 C   0  0  0  0  0  0  0  0  0  0  0  0
   26.1605   40.7179   67.9632 C   0  0  0  0  0  0  0  0  0  0  0  0
   27.5362   40.4321   68.2238 O   0  0  0  0  0  0  0  0  0  0  0  0
  1 11  1  0  0  0  0
  3 13  1  6  0  0  0
  3 17  2  0  0  0  0
  3 20  1  0  0  0  0
  3 26  1  0  0  0  0
  4 14  1  6  0  0  0
  4 18  1  0  0  0  0
  4 21  2  0  0  0  0
  4 20  1  0  0  0  0
  5 19  1  0  0  0  0
  5  7  1  0  0  0  0
  6  7  2  0  0  0  0
  6 12  1  0  0  0  0
  7  8  1  0  0  0  0
  8  9  1  0  0  0  0
  8 10  2  0  0  0  0
 10 11  1  0  0  0  0
 11 12  2  0  0  0  0
 15 23  1  0  0  0  0
 15 16  1  0  0  0  0
 16 19  1  0  0  0  0
 19 22  1  0  0  0  0
 22  2  1  1  0  0  0
 22 23  1  0  0  0  0
 23 24  1  6  0  0  0
 24 25  1  0  0  0  0
 25 26  1  0  0  0  0
M  CHG  2  13  -1  18  -1
M  END
>  <CHROM.1>
75.89523321,-0.88112027,-121.16953282,-37.41364661,-122.40206965,158.96517204
-120.84444684,50.80760995,24.40828015,39.75336027,67.01258588,-3.11802078
-0.29040552,0.51054469

>  <Name>
ligand

>  <RI>
0

>  <Rbt.Current_Directory>
/home/itssahil/PROJECTS/Mol_Feturizer/New_Systems/rnas/2HOJ

>  <Rbt.Executable>
rbdock ($Id: //depot/dev/client3/rdock/2013.1/src/exe/rbdock.cxx#4 $)

>  <Rbt.Library>
libRbt.so (2013.1, Build901 2013/11/27)

>  <Rbt.Parameter_File>
/export/apps/rDock/src/rDock_2013.1_src/data/scripts/dock_solv.prm

>  <Rbt.Receptor>
prm/pocket_docking_5.prm

>  <SCORE>
-22.4045

>  <SCORE.INTER>
-24.8404

>  <SCORE.INTER.CONST>
1

>  <SCORE.INTER.POLAR>
-2.99686

>  <SCORE.INTER.ROT>
8

>  <SCORE.INTER.SOLV>
24.773

>  <SCORE.INTER.VDW>
-23.7617

>  <SCORE.INTER.norm>
-0.955399

>  <SCORE.INTRA>
2.43583

>  <SCORE.INTRA.DIHEDRAL>
2.90948

>  <SCORE.INTRA.DIHEDRAL.0>
11.6398

>  <SCORE.INTRA.POLAR>
0

>  <SCORE.INTRA.POLAR.0>
0

>  <SCORE.INTRA.REPUL>
0

>  <SCORE.INTRA.REPUL.0>
0

>  <SCORE.INTRA.SOLV>
1.98241

>  <SCORE.INTRA.SOLV.lig_0>
-81.722

>  <SCORE.INTRA.VDW>
-0.0101125

>  <SCORE.INTRA.VDW.0>
1.12598

>  <SCORE.INTRA.norm>
0.0936857

>  <SCORE.RESTR>
0

>  <SCORE.RESTR.CAVITY>
0

>  <SCORE.RESTR.norm>
0

>  <SCORE.SYSTEM>
0

>  <SCORE.SYSTEM.CONST>
0

>  <SCORE.SYSTEM.DIHEDRAL>
0

>  <SCORE.SYSTEM.SOLV>
0

>  <SCORE.SYSTEM.norm>
0

>  <SCORE.heavy>
26

>  <SCORE.norm>
-0.861713

>  <RMSD>
2.225

$$$$
ligand
 OpenBabel11021811433D
libRbt.so/2013.1/901 2013/11/27
 26 27  0  0  0  0  0  0  0  0999 V2000
   16.5769   39.1050   64.4956 C   0  0  0  0  0  0  0  0  0  0  0  0
   22.1421   39.6938   68.4928 C   0  0  0  0  0  0  0  0  0  0  0  0
   27.9344   37.9902   66.7229 P   0  0  1  0  0  0  0  0  0  0  0  0
   28.7824   38.8210   69.0202 P   0  0  1  0  0  0  0  0  0  0  0  0
   20.9348   41.7568   67.0245 C   0  0  0  0  0  0  0  0  0  0  0  0
   19.6554   39.6826   66.4143 C   0  0  0  0  0  0  0  0  0  0  0  0
   19.7808   41.0562   66.3546 C   0  0  0  0  0  0  0  0  0  0  0  0
   18.8112   41.7798   65.6582 C   0  0  0  0  0  0  0  0  0  0  0  0
   18.8921   43.1615   65.5685 N   0  0  0  0  0  0  0  0  0  0  0  0
   17.8113   41.1240   65.0767 N   0  0  0  0  0  0  0  0  0  0  0  0
   17.7276   39.8122   65.1627 C   0  0  0  0  0  0  0  0  0  0  0  0
   18.6270   39.0997   65.8127 N   0  0  0  0  0  0  0  0  0  0  0  0
   29.1826   38.7477   66.4782 O   0  5  0  0  0  0  0  0  0  0  0  0
   28.9405   40.2205   68.3856 O   0  0  0  0  0  0  0  0  0  0  0  0
   24.1698   40.6950   65.2946 S   0  0  0  0  0  0  0  0  0  0  0  0
   22.7326   41.6595   65.4420 C   0  0  0  0  0  0  0  0  0  0  0  0
   28.1339   36.4623   66.2607 O   0  0  0  0  0  0  0  0  0  0  0  0
   28.4536   38.9753   70.5881 O   0  5  0  0  0  0  0  0  0  0  0  0
   22.1965   41.1890   66.5444 N   0  0  0  0  0  0  0  0  0  0  0  0
   27.5797   38.0343   68.2932 O   0  0  0  0  0  0  0  0  0  0  0  0
   30.0960   38.0261   68.8458 O   0  0  0  0  0  0  0  0  0  0  0  0
   22.7697   40.2225   67.2277 C   0  0  2  0  0  0  0  0  0  0  0  0
   23.9361   39.7059   66.7639 C   0  0  2  0  0  0  0  0  0  0  0  0
   24.7961   38.6074   67.3320 C   0  0  0  0  0  0  0  0  0  0  0  0
   25.5508   37.9094   66.1983 C   0  0  0  0  0  0  0  0  0  0  0  0
   26.7302   38.6526   65.8839 O   0  0  0  0  0  0  0  0  0  0  0  0
  1 11  1  0  0  0  0
  3 13  1  6  0  0  0
  3 17  2  0  0  0  0
  3 20  1  0  0  0  0
  3 26  1  0  0  0  0
  4 14  1  6  0  0  0
  4 18  1  0  0  0  0
  4 21  2  0  0  0  0
  4 20  1  0  0  0  0
  5 19  1  0  0  0  0
  5  7  1  0  0  0  0
  6  7  2  0  0  0  0
  6 12  1  0  0  0  0
  7  8  1  0  0  0  0
  8  9  1  0  0  0  0
  8 10  2  0  0  0  0
 10 11  1  0  0  0  0
 11 12  2  0  0  0  0
 15 23  1  0  0  0  0
 15 16  1  0  0  0  0
 16 19  1  0  0  0  0
 19 22  1  0  0  0  0
 22  2  1  6  0  0  0
 22 23  1  0  0  0  0
 23 24  1  1  0  0  0
 24 25  1  0  0  0  0
 25 26  1  0  0  0  0
M  CHG  2  13  -1  18  -1
M  END
>  <CHROM.1>
-3.40113287,86.03500249,54.97886741,56.76299319,-28.75830444,83.37767189
94.72403493,-177.98867941,24.22389182,39.56553028,66.82748922,3.11033538
-0.32761376,0.67826140

>  <Name>
ligand

>  <RI>
0

>  <Rbt.Current_Directory>
/home/itssahil/PROJECTS/Mol_Feturizer/New_Systems/rnas/2HOJ

>  <Rbt.Executable>
rbdock ($Id: //depot/dev/client3/rdock/2013.1/src/exe/rbdock.cxx#4 $)

>  <Rbt.Library>
libRbt.so (2013.1, Build901 2013/11/27)

>  <Rbt.Parameter_File>
/export/apps/rDock/src/rDock_2013.1_src/data/scripts/dock_solv.prm

>  <Rbt.Receptor>
prm/pocket_docking_2.prm

>  <SCORE>
-19.4787

>  <SCORE.INTER>
-21.5136

>  <SCORE.INTER.CONST>
1

>  <SCORE.INTER.POLAR>
-2.73036

>  <SCORE.INTER.ROT>
8

>  <SCORE.INTER.SOLV>
27.1799

>  <SCORE.INTER.VDW>
-23.2345

>  <SCORE.INTER.norm>
-0.827445

>  <SCORE.INTRA>
0.985036

>  <SCORE.INTRA.DIHEDRAL>
1.90183

>  <SCORE.INTRA.DIHEDRAL.0>
11.6398

>  <SCORE.INTRA.POLAR>
0

>  <SCORE.INTRA.POLAR.0>
0

>  <SCORE.INTRA.REPUL>
0

>  <SCORE.INTRA.REPUL.0>
0

>  <SCORE.INTRA.SOLV>
1.07063

>  <SCORE.INTRA.SOLV.lig_0>
-81.722

>  <SCORE.INTRA.VDW>
-0.501191

>  <SCORE.INTRA.VDW.0>
1.12598

>  <SCORE.INTRA.norm>
0.037886

>  <SCORE.RESTR>
1.04987

>  <SCORE.RESTR.CAVITY>
1.04987

>  <SCORE.RESTR.norm>
0.0403796

>  <SCORE.SYSTEM>
0

>  <SCORE.SYSTEM.CONST>
0

>  <SCORE.SYSTEM.DIHEDRAL>
0

>  <SCORE.SYSTEM.SOLV>
0

>  <SCORE.SYSTEM.norm>
0

>  <SCORE.heavy>
26

>  <SCORE.norm>
-0.74918

>  <RMSD>
2.249

$$$$
ligand
 OpenBabel11021811433D
libRbt.so/2013.1/901 2013/11/27
 26 27  0  0  0  0  0  0  0  0999 V2000
   16.7392   40.2803   64.4321 C   0  0  0  0  0  0  0  0  0  0  0  0
   22.9480   41.1463   65.1782 C   0  0  0  0  0  0  0  0  0  0  0  0
   28.3770   37.9809   66.7414 P   0  0  1  0  0  0  0  0  0  0  0  0
   28.9994   38.7629   69.1264 P   0  0  1  0  0  0  0  0  0  0  0  0
   21.3665   41.7113   67.4252 C   0  0  0  0  0  0  0  0  0  0  0  0
   19.3578   42.2970   66.0345 C   0  0  0  0  0  0  0  0  0  0  0  0
   20.1419   41.3311   66.6333 C   0  0  0  0  0  0  0  0  0  0  0  0
   19.7718   39.9932   66.4863 C   0  0  0  0  0  0  0  0  0  0  0  0
   20.5256   38.9852   67.0687 N   0  0  0  0  0  0  0  0  0  0  0  0
   18.6815   39.6994   65.7840 N   0  0  0  0  0  0  0  0  0  0  0  0
   17.9646   40.6528   65.2252 C   0  0  0  0  0  0  0  0  0  0  0  0
   18.2871   41.9258   65.3454 N   0  0  0  0  0  0  0  0  0  0  0  0
   29.6450   38.7318   66.5999 O   0  5  0  0  0  0  0  0  0  0  0  0
   30.4664   38.2815   69.0780 O   0  0  0  0  0  0  0  0  0  0  0  0
   23.5499   38.6620   68.1460 S   0  0  0  0  0  0  0  0  0  0  0  0
   22.3519   39.8476   68.5661 C   0  0  0  0  0  0  0  0  0  0  0  0
   28.5056   36.5632   65.9921 O   0  0  0  0  0  0  0  0  0  0  0  0
   28.8924   40.2291   68.4714 O   0  5  0  0  0  0  0  0  0  0  0  0
   22.2889   40.5748   67.4747 N   0  0  0  0  0  0  0  0  0  0  0  0
   28.0700   37.7369   68.3034 O   0  0  0  0  0  0  0  0  0  0  0  0
   28.5253   38.8201   70.5961 O   0  0  0  0  0  0  0  0  0  0  0  0
   23.0329   40.3024   66.4249 C   0  0  2  0  0  0  0  0  0  0  0  0
   23.8851   39.2480   66.4918 C   0  0  2  0  0  0  0  0  0  0  0  0
   24.8436   38.7174   65.4581 C   0  0  0  0  0  0  0  0  0  0  0  0
   26.0067   38.0073   66.1545 C   0  0  0  0  0  0  0  0  0  0  0  0
   27.1745   38.8280   66.0860 O   0  0  0  0  0  0  0  0  0  0  0  0
  1 11  1  0  0  0  0
  3 13  1  6  0  0  0
  3 17  2  0  0  0  0
  3 20  1  0  0  0  0
  3 26  1  0  0  0  0
  4 14  1  6  0  0  0
  4 18  1  0  0  0  0
  4 21  2  0  0  0  0
  4 20  1  0  0  0  0
  5 19  1  0  0  0  0
  5  7  1  0  0  0  0
  6  7  2  0  0  0  0
  6 12  1  0  0  0  0
  7  8  1  0  0  0  0
  8  9  1  0  0  0  0
  8 10  2  0  0  0  0
 10 11  1  0  0  0  0
 11 12  2  0  0  0  0
 15 23  1  0  0  0  0
 15 16  1  0  0  0  0
 16 19  1  0  0  0  0
 19 22  1  0  0  0  0
 22  2  1  1  0  0  0
 22 23  1  0  0  0  0
 23 24  1  6  0  0  0
 24 25  1  0  0  0  0
 25 26  1  0  0  0  0
M  CHG  2  13  -1  18  -1
M  END
>  <CHROM.1>
16.67089507,-102.14804091,-156.84060111,-73.21359414,-27.12886455,-105.61115415
-176.10443838,175.30410313,24.48104584,39.38678065,67.06889471,-3.03542973
-0.29754618,1.18749962

>  <Name>
ligand

>  <RI>
0

>  <Rbt.Current_Directory>
/home/itssahil/PROJECTS/Mol_Feturizer/New_Systems/rnas/2HOJ

>  <Rbt.Executable>
rbdock ($Id: //depot/dev/client3/rdock/2013.1/src/exe/rbdock.cxx#4 $)

>  <Rbt.Library>
libRbt.so (2013.1, Build901 2013/11/27)

>  <Rbt.Parameter_File>
/export/apps/rDock/src/rDock_2013.1_src/data/scripts/dock_solv.prm

>  <Rbt.Receptor>
prm/pocket_docking_2.prm

>  <SCORE>
-15.8507

>  <SCORE.INTER>
-20.8338

>  <SCORE.INTER.CONST>
1

>  <SCORE.INTER.POLAR>
-2.49329

>  <SCORE.INTER.ROT>
8

>  <SCORE.INTER.SOLV>
20.2342

>  <SCORE.INTER.VDW>
-21.2563

>  <SCORE.INTER.norm>
-0.801299

>  <SCORE.INTRA>
3.94726

>  <SCORE.INTRA.DIHEDRAL>
0.287587

>  <SCORE.INTRA.DIHEDRAL.0>
11.6398

>  <SCORE.INTRA.POLAR>
0

>  <SCORE.INTRA.POLAR.0>
0

>  <SCORE.INTRA.REPUL>
0

>  <SCORE.INTRA.REPUL.0>
0

>  <SCORE.INTRA.SOLV>
6.05387

>  <SCORE.INTRA.SOLV.lig_0>
-81.722

>  <SCORE.INTRA.VDW>
0.77653

>  <SCORE.INTRA.VDW.0>
1.12598

>  <SCORE.INTRA.norm>
0.151818

>  <SCORE.RESTR>
1.03584

>  <SCORE.RESTR.CAVITY>
1.03584

>  <SCORE.RESTR.norm>
0.03984

>  <SCORE.SYSTEM>
0

>  <SCORE.SYSTEM.CONST>
0

>  <SCORE.SYSTEM.DIHEDRAL>
0

>  <SCORE.SYSTEM.SOLV>
0

>  <SCORE.SYSTEM.norm>
0

>  <SCORE.heavy>
26

>  <SCORE.norm>
-0.609641

>  <RMSD>
2.257

$$$$
ligand
 OpenBabel11021811433D
libRbt.so/2013.1/901 2013/11/27
 26 27  0  0  0  0  0  0  0  0999 V2000
   15.8050   39.1680   64.1699 C   0  0  0  0  0  0  0  0  0  0  0  0
   21.8011   39.9121   68.6661 C   0  0  0  0  0  0  0  0  0  0  0  0
   27.2031   38.0445   67.8269 P   0  0  1  0  0  0  0  0  0  0  0  0
   29.5876   38.9656   67.4362 P   0  0  1  0  0  0  0  0  0  0  0  0
   20.9399   40.6811   66.1094 C   0  0  0  0  0  0  0  0  0  0  0  0
   19.2903   38.9625   65.3113 C   0  0  0  0  0  0  0  0  0  0  0  0
   19.5804   40.2820   65.5960 C   0  0  0  0  0  0  0  0  0  0  0  0
   18.5821   41.2372   65.3966 C   0  0  0  0  0  0  0  0  0  0  0  0
   18.8233   42.5759   65.6671 N   0  0  0  0  0  0  0  0  0  0  0  0
   17.3972   40.8452   64.9375 N   0  0  0  0  0  0  0  0  0  0  0  0
   17.1617   39.5744   64.6833 C   0  0  0  0  0  0  0  0  0  0  0  0
   18.0831   38.6478   64.8608 N   0  0  0  0  0  0  0  0  0  0  0  0
   27.1782   37.5432   66.4342 O   0  5  0  0  0  0  0  0  0  0  0  0
   30.1471   37.8921   68.3957 O   0  0  0  0  0  0  0  0  0  0  0  0
   23.0789   37.5295   65.8320 S   0  0  0  0  0  0  0  0  0  0  0  0
   22.1111   38.8118   65.1714 C   0  0  0  0  0  0  0  0  0  0  0  0
   27.8314   36.9208   68.7913 O   0  0  0  0  0  0  0  0  0  0  0  0
   29.5389   38.3763   65.9393 O   0  5  0  0  0  0  0  0  0  0  0  0
   21.7799   39.4892   66.2462 N   0  0  0  0  0  0  0  0  0  0  0  0
   28.1018   39.3789   67.9002 O   0  0  0  0  0  0  0  0  0  0  0  0
   30.5015   40.2112   67.4693 O   0  0  0  0  0  0  0  0  0  0  0  0
   22.1890   39.1227   67.4412 C   0  0  2  0  0  0  0  0  0  0  0  0
   22.9626   38.0125   67.5481 C   0  0  2  0  0  0  0  0  0  0  0  0
   23.5600   37.3692   68.7721 C   0  0  0  0  0  0  0  0  0  0  0  0
   25.0555   37.1334   68.5487 C   0  0  0  0  0  0  0  0  0  0  0  0
   25.7026   38.3835   68.3031 O   0  0  0  0  0  0  0  0  0  0  0  0
  1 11  1  0  0  0  0
  3 13  1  6  0  0  0
  3 17  2  0  0  0  0
  3 20  1  0  0  0  0
  3 26  1  0  0  0  0
  4 14  1  1  0  0  0
  4 18  1  0  0  0  0
  4 21  2  0  0  0  0
  4 20  1  0  0  0  0
  5 19  1  0  0  0  0
  5  7  1  0  0  0  0
  6  7  2  0  0  0  0
  6 12  1  0  0  0  0
  7  8  1  0  0  0  0
  8  9  1  0  0  0  0
  8 10  2  0  0  0  0
 10 11  1  0  0  0  0
 11 12  2  0  0  0  0
 15 23  1  0  0  0  0
 15 16  1  0  0  0  0
 16 19  1  0  0  0  0
 19 22  1  0  0  0  0
 22  2  1  1  0  0  0
 22 23  1  0  0  0  0
 23 24  1  6  0  0  0
 24 25  1  0  0  0  0
 25 26  1  0  0  0  0
M  CHG  2  13  -1  18  -1
M  END
>  <CHROM.1>
-60.92427176,64.76248034,-0.92597921,-60.69297645,50.64775712,59.93682122
-170.35261626,74.67221306,23.89357275,38.89999788,66.76952030,2.93053632
-0.16654756,-0.34564397

>  <Name>
ligand

>  <RI>
0

>  <Rbt.Current_Directory>
/home/itssahil/PROJECTS/Mol_Feturizer/New_Systems/rnas/2HOJ

>  <Rbt.Executable>
rbdock ($Id: //depot/dev/client3/rdock/2013.1/src/exe/rbdock.cxx#4 $)

>  <Rbt.Library>
libRbt.so (2013.1, Build901 2013/11/27)

>  <Rbt.Parameter_File>
/export/apps/rDock/src/rDock_2013.1_src/data/scripts/dock_solv.prm

>  <Rbt.Receptor>
prm/pocket_docking_6.prm

>  <SCORE>
-32.9676

>  <SCORE.INTER>
-28.2746

>  <SCORE.INTER.CONST>
1

>  <SCORE.INTER.POLAR>
-2.64977

>  <SCORE.INTER.ROT>
8

>  <SCORE.INTER.SOLV>
26.3149

>  <SCORE.INTER.VDW>
-27.7222

>  <SCORE.INTER.norm>
-1.08749

>  <SCORE.INTRA>
-4.69295

>  <SCORE.INTRA.DIHEDRAL>
-5.7215

>  <SCORE.INTRA.DIHEDRAL.0>
11.6398

>  <SCORE.INTRA.POLAR>
0

>  <SCORE.INTRA.POLAR.0>
0

>  <SCORE.INTRA.REPUL>
0

>  <SCORE.INTRA.REPUL.0>
0

>  <SCORE.INTRA.SOLV>
1.25957

>  <SCORE.INTRA.SOLV.lig_0>
-81.722

>  <SCORE.INTRA.VDW>
-2.46199

>  <SCORE.INTRA.VDW.0>
1.12598

>  <SCORE.INTRA.norm>
-0.180498

>  <SCORE.RESTR>
0

>  <SCORE.RESTR.CAVITY>
0

>  <SCORE.RESTR.norm>
0

>  <SCORE.SYSTEM>
0

>  <SCORE.SYSTEM.CONST>
0

>  <SCORE.SYSTEM.DIHEDRAL>
0

>  <SCORE.SYSTEM.SOLV>
0

>  <SCORE.SYSTEM.norm>
0

>  <SCORE.heavy>
26

>  <SCORE.norm>
-1.26798

>  <RMSD>
2.266

$$$$
ligand
 OpenBabel11021811433D
libRbt.so/2013.1/901 2013/11/27
 26 27  0  0  0  0  0  0  0  0999 V2000
   16.7921   39.8145   64.5110 C   0  0  0  0  0  0  0  0  0  0  0  0
   23.0349   39.5756   67.6851 C   0  0  0  0  0  0  0  0  0  0  0  0
   29.2307   39.9167   66.5711 P   0  0  1  0  0  0  0  0  0  0  0  0
   28.8638   38.9033   68.9217 P   0  0  1  0  0  0  0  0  0  0  0  0
   21.3027   41.7622   67.3884 C   0  0  0  0  0  0  0  0  0  0  0  0
   19.8576   39.8936   66.5331 C   0  0  0  0  0  0  0  0  0  0  0  0
   20.1085   41.2480   66.6264 C   0  0  0  0  0  0  0  0  0  0  0  0
   19.2275   42.1294   65.9972 C   0  0  0  0  0  0  0  0  0  0  0  0
   19.4356   43.4991   66.0608 N   0  0  0  0  0  0  0  0  0  0  0  0
   18.1882   41.6357   65.3305 N   0  0  0  0  0  0  0  0  0  0  0  0
   17.9838   40.3358   65.2709 C   0  0  0  0  0  0  0  0  0  0  0  0
   18.7972   39.4770   65.8539 N   0  0  0  0  0  0  0  0  0  0  0  0
   29.5189   41.1466   65.7992 O   0  5  0  0  0  0  0  0  0  0  0  0
   28.5763   39.1959   70.4110 O   0  0  0  0  0  0  0  0  0  0  0  0
   24.2057   42.1018   64.9302 S   0  0  0  0  0  0  0  0  0  0  0  0
   22.7251   42.6334   65.6668 C   0  0  0  0  0  0  0  0  0  0  0  0
   30.4569   38.8867   66.4183 O   0  0  0  0  0  0  0  0  0  0  0  0
   27.6402   38.0694   68.2913 O   0  5  0  0  0  0  0  0  0  0  0  0
   22.4947   41.6815   66.5413 N   0  0  0  0  0  0  0  0  0  0  0  0
   29.0352   40.2924   68.1249 O   0  0  0  0  0  0  0  0  0  0  0  0
   30.1649   38.0781   68.8018 O   0  0  0  0  0  0  0  0  0  0  0  0
   23.3126   40.6603   66.6751 C   0  0  2  0  0  0  0  0  0  0  0  0
   24.4093   40.6008   65.8775 C   0  0  2  0  0  0  0  0  0  0  0  0
   25.4972   39.5610   65.8120 C   0  0  0  0  0  0  0  0  0  0  0  0
   26.8447   40.2080   66.1400 C   0  0  0  0  0  0  0  0  0  0  0  0
   27.8832   39.2347   66.0122 O   0  0  0  0  0  0  0  0  0  0  0  0
  1 11  1  0  0  0  0
  3 13  1  6  0  0  0
  3 17  2  0  0  0  0
  3 20  1  0  0  0  0
  3 26  1  0  0  0  0
  4 14  1  1  0  0  0
  4 18  1  0  0  0  0
  4 21  2  0  0  0  0
  4 20  1  0  0  0  0
  5 19  1  0  0  0  0
  5  7  1  0  0  0  0
  6  7  2  0  0  0  0
  6 12  1  0  0  0  0
  7  8  1  0  0  0  0
  8  9  1  0  0  0  0
  8 10  2  0  0  0  0
 10 11  1  0  0  0  0
 11 12  2  0  0  0  0
 15 23  1  0  0  0  0
 15 16  1  0  0  0  0
 16 19  1  0  0  0  0
 19 22  1  0  0  0  0
 22  2  1  6  0  0  0
 22 23  1  0  0  0  0
 23 24  1  1  0  0  0
 24 25  1  0  0  0  0
 25 26  1  0  0  0  0
M  CHG  2  13  -1  18  -1
M  END
>  <CHROM.1>
-174.81674599,82.08425369,81.73301286,-176.21294196,60.64482315,-177.14147887
-172.04428507,-58.31091908,24.71683228,40.33435952,66.69371437,2.87395418
0.00199904,-0.82225798

>  <Name>
ligand

>  <RI>
0

>  <Rbt.Current_Directory>
/home/itssahil/PROJECTS/Mol_Feturizer/New_Systems/rnas/2HOJ

>  <Rbt.Executable>
rbdock ($Id: //depot/dev/client3/rdock/2013.1/src/exe/rbdock.cxx#4 $)

>  <Rbt.Library>
libRbt.so (2013.1, Build901 2013/11/27)

>  <Rbt.Parameter_File>
/export/apps/rDock/src/rDock_2013.1_src/data/scripts/dock_solv.prm

>  <Rbt.Receptor>
prm/pocket_docking_8.prm

>  <SCORE>
-23.2707

>  <SCORE.INTER>
-18.4723

>  <SCORE.INTER.CONST>
1

>  <SCORE.INTER.POLAR>
-2.71429

>  <SCORE.INTER.ROT>
8

>  <SCORE.INTER.SOLV>
27.2472

>  <SCORE.INTER.VDW>
-21.283

>  <SCORE.INTER.norm>
-0.710473

>  <SCORE.INTRA>
-4.79838

>  <SCORE.INTRA.DIHEDRAL>
-6.06276

>  <SCORE.INTRA.DIHEDRAL.0>
11.6398

>  <SCORE.INTRA.POLAR>
0

>  <SCORE.INTRA.POLAR.0>
0

>  <SCORE.INTRA.REPUL>
0

>  <SCORE.INTRA.REPUL.0>
0

>  <SCORE.INTRA.SOLV>
3.92993

>  <SCORE.INTRA.SOLV.lig_0>
-81.722

>  <SCORE.INTRA.VDW>
-3.73197

>  <SCORE.INTRA.VDW.0>
1.12598

>  <SCORE.INTRA.norm>
-0.184553

>  <SCORE.RESTR>
0

>  <SCORE.RESTR.CAVITY>
0

>  <SCORE.RESTR.norm>
0

>  <SCORE.SYSTEM>
0

>  <SCORE.SYSTEM.CONST>
0

>  <SCORE.SYSTEM.DIHEDRAL>
0

>  <SCORE.SYSTEM.SOLV>
0

>  <SCORE.SYSTEM.norm>
0

>  <SCORE.heavy>
26

>  <SCORE.norm>
-0.895026

>  <RMSD>
2.286

$$$$
ligand
 OpenBabel11021811433D
libRbt.so/2013.1/901 2013/11/27
 26 27  0  0  0  0  0  0  0  0999 V2000
   15.7869   38.9540   64.1129 C   0  0  0  0  0  0  0  0  0  0  0  0
   22.8447   42.3792   67.3106 C   0  0  0  0  0  0  0  0  0  0  0  0
   27.4179   39.2124   69.3119 P   0  0  1  0  0  0  0  0  0  0  0  0
   29.2598   38.3202   67.7313 P   0  0  1  0  0  0  0  0  0  0  0  0
   20.3463   41.4333   66.4546 C   0  0  0  0  0  0  0  0  0  0  0  0
   18.3414   41.4602   64.9408 C   0  0  0  0  0  0  0  0  0  0  0  0
   19.1397   40.7758   65.8356 C   0  0  0  0  0  0  0  0  0  0  0  0
   18.8010   39.4591   66.1522 C   0  0  0  0  0  0  0  0  0  0  0  0
   19.5703   38.7288   67.0457 N   0  0  0  0  0  0  0  0  0  0  0  0
   17.7258   38.9167   65.5884 N   0  0  0  0  0  0  0  0  0  0  0  0
   16.9944   39.6046   64.7357 C   0  0  0  0  0  0  0  0  0  0  0  0
   17.2872   40.8500   64.4159 N   0  0  0  0  0  0  0  0  0  0  0  0
   26.5807   37.9914   69.3058 O   0  5  0  0  0  0  0  0  0  0  0  0
   29.2866   39.5516   66.7989 O   0  0  0  0  0  0  0  0  0  0  0  0
   23.0835   39.0638   65.2386 S   0  0  0  0  0  0  0  0  0  0  0  0
   21.4317   39.5791   65.3916 C   0  0  0  0  0  0  0  0  0  0  0  0
   27.1446   40.0444   70.6613 O   0  0  0  0  0  0  0  0  0  0  0  0
   30.6797   37.5654   67.6666 O   0  5  0  0  0  0  0  0  0  0  0  0
   21.5499   40.6775   66.1011 N   0  0  0  0  0  0  0  0  0  0  0  0
   28.9723   38.7970   69.2425 O   0  0  0  0  0  0  0  0  0  0  0  0
   28.1425   37.3547   67.2756 O   0  0  0  0  0  0  0  0  0  0  0  0
   22.7252   41.1150   66.4974 C   0  0  2  0  0  0  0  0  0  0  0  0
   23.8286   40.3982   66.1640 C   0  0  2  0  0  0  0  0  0  0  0  0
   25.2779   40.6574   66.4821 C   0  0  0  0  0  0  0  0  0  0  0  0
   25.6702   39.8896   67.7465 C   0  0  0  0  0  0  0  0  0  0  0  0
   27.0501   40.1227   68.0355 O   0  0  0  0  0  0  0  0  0  0  0  0
  1 11  1  0  0  0  0
  3 13  1  6  0  0  0
  3 17  2  0  0  0  0
  3 20  1  0  0  0  0
  3 26  1  0  0  0  0
  4 14  1  6  0  0  0
  4 18  1  0  0  0  0
  4 21  2  0  0  0  0
  4 20  1  0  0  0  0
  5 19  1  0  0  0  0
  5  7  1  0  0  0  0
  6  7  2  0  0  0  0
  6 12  1  0  0  0  0
  7  8  1  0  0  0  0
  8  9  1  0  0  0  0
  8 10  2  0  0  0  0
 10 11  1  0  0  0  0
 11 12  2  0  0  0  0
 15 23  1  0  0  0  0
 15 16  1  0  0  0  0
 16 19  1  0  0  0  0
 19 22  1  0  0  0  0
 22  2  1  1  0  0  0
 22 23  1  0  0  0  0
 23 24  1  6  0  0  0
 24 25  1  0  0  0  0
 25 26  1  0  0  0  0
M  CHG  2  13  -1  18  -1
M  END
>  <CHROM.1>
74.36261167,-2.55663848,-119.89749776,73.30705440,-85.73832776,179.20837084
-176.28525857,30.48473238,23.92092643,39.57291052,66.94016094,-3.04827672
-0.30276315,0.70176634

>  <Name>
ligand

>  <RI>
0

>  <Rbt.Current_Directory>
/home/itssahil/PROJECTS/Mol_Feturizer/New_Systems/rnas/2HOJ

>  <Rbt.Executable>
rbdock ($Id: //depot/dev/client3/rdock/2013.1/src/exe/rbdock.cxx#4 $)

>  <Rbt.Library>
libRbt.so (2013.1, Build901 2013/11/27)

>  <Rbt.Parameter_File>
/export/apps/rDock/src/rDock_2013.1_src/data/scripts/dock_solv.prm

>  <Rbt.Receptor>
prm/pocket_docking_2.prm

>  <SCORE>
-20.326

>  <SCORE.INTER>
-20.2855

>  <SCORE.INTER.CONST>
1

>  <SCORE.INTER.POLAR>
-1.70696

>  <SCORE.INTER.ROT>
8

>  <SCORE.INTER.SOLV>
24.5753

>  <SCORE.INTER.VDW>
-24.9589

>  <SCORE.INTER.norm>
-0.780212

>  <SCORE.INTRA>
-1.09377

>  <SCORE.INTRA.DIHEDRAL>
-4.85148

>  <SCORE.INTRA.DIHEDRAL.0>
11.6398

>  <SCORE.INTRA.POLAR>
0

>  <SCORE.INTRA.POLAR.0>
0

>  <SCORE.INTRA.REPUL>
0

>  <SCORE.INTRA.REPUL.0>
0

>  <SCORE.INTRA.SOLV>
2.56218

>  <SCORE.INTRA.SOLV.lig_0>
-81.722

>  <SCORE.INTRA.VDW>
0.0508822

>  <SCORE.INTRA.VDW.0>
1.12598

>  <SCORE.INTRA.norm>
-0.042068

>  <SCORE.RESTR>
1.0533

>  <SCORE.RESTR.CAVITY>
1.0533

>  <SCORE.RESTR.norm>
0.0405117

>  <SCORE.SYSTEM>
0

>  <SCORE.SYSTEM.CONST>
0

>  <SCORE.SYSTEM.DIHEDRAL>
0

>  <SCORE.SYSTEM.SOLV>
0

>  <SCORE.SYSTEM.norm>
0

>  <SCORE.heavy>
26

>  <SCORE.norm>
-0.781768

>  <RMSD>
2.288

$$$$
ligand
 OpenBabel11021811433D
libRbt.so/2013.1/901 2013/11/27
 26 27  0  0  0  0  0  0  0  0999 V2000
   19.5425   44.2986   66.2227 C   0  0  0  0  0  0  0  0  0  0  0  0
   22.9266   38.5717   65.2105 C   0  0  0  0  0  0  0  0  0  0  0  0
   27.9226   39.8185   68.3028 P   0  0  1  0  0  0  0  0  0  0  0  0
   30.1423   38.8082   67.4429 P   0  0  1  0  0  0  0  0  0  0  0  0
   20.4607   38.6886   66.5428 C   0  0  0  0  0  0  0  0  0  0  0  0
   21.1456   41.0727   66.9409 C   0  0  0  0  0  0  0  0  0  0  0  0
   20.2163   40.1732   66.4575 C   0  0  0  0  0  0  0  0  0  0  0  0
   19.0447   40.6740   65.8872 C   0  0  0  0  0  0  0  0  0  0  0  0
   18.0798   39.8121   65.3875 N   0  0  0  0  0  0  0  0  0  0  0  0
   18.8645   41.9904   65.8354 N   0  0  0  0  0  0  0  0  0  0  0  0
   19.7799   42.8132   66.3046 C   0  0  0  0  0  0  0  0  0  0  0  0
   20.8969   42.3723   66.8494 N   0  0  0  0  0  0  0  0  0  0  0  0
   28.3066   41.0081   69.0958 O   0  5  0  0  0  0  0  0  0  0  0  0
   30.6154   40.2784   67.4110 O   0  0  0  0  0  0  0  0  0  0  0  0
   23.2387   38.0115   69.0745 S   0  0  0  0  0  0  0  0  0  0  0  0
   21.5824   38.2705   68.6196 C   0  0  0  0  0  0  0  0  0  0  0  0
   27.9022   40.1983   66.7398 O   0  0  0  0  0  0  0  0  0  0  0  0
   31.3842   37.8511   67.8058 O   0  5  0  0  0  0  0  0  0  0  0  0
   21.6759   38.4372   67.3206 N   0  0  0  0  0  0  0  0  0  0  0  0
   28.9897   38.6389   68.5550 O   0  0  0  0  0  0  0  0  0  0  0  0
   29.5804   38.4188   66.0570 O   0  0  0  0  0  0  0  0  0  0  0  0
   22.8358   38.3795   66.7033 C   0  0  2  0  0  0  0  0  0  0  0  0
   23.9513   38.1505   67.4421 C   0  0  2  0  0  0  0  0  0  0  0  0
   25.3890   38.0402   67.0065 C   0  0  0  0  0  0  0  0  0  0  0  0
   26.2959   37.9983   68.2385 C   0  0  0  0  0  0  0  0  0  0  0  0
   26.4591   39.3210   68.7541 O   0  0  0  0  0  0  0  0  0  0  0  0
  1 11  1  0  0  0  0
  3 13  1  1  0  0  0
  3 17  2  0  0  0  0
  3 20  1  0  0  0  0
  3 26  1  0  0  0  0
  4 14  1  6  0  0  0
  4 18  1  0  0  0  0
  4 21  2  0  0  0  0
  4 20  1  0  0  0  0
  5 19  1  0  0  0  0
  5  7  1  0  0  0  0
  6  7  2  0  0  0  0
  6 12  1  0  0  0  0
  7  8  1  0  0  0  0
  8  9  1  0  0  0  0
  8 10  2  0  0  0  0
 10 11  1  0  0  0  0
 11 12  2  0  0  0  0
 15 23  1  0  0  0  0
 15 16  1  0  0  0  0
 16 19  1  0  0  0  0
 19 22  1  0  0  0  0
 22  2  1  1  0  0  0
 22 23  1  0  0  0  0
 23 24  1  6  0  0  0
 24 25  1  0  0  0  0
 25 26  1  0  0  0  0
M  CHG  2  13  -1  18  -1
M  END
>  <CHROM.1>
-90.22656811,90.45990608,6.71435165,48.85878255,-9.17653995,-78.67217292
-103.34922004,-164.66392743,24.73066875,39.58237147,67.32389424,-2.93459860
0.09557251,2.92021406

>  <Name>
ligand

>  <RI>
0

>  <Rbt.Current_Directory>
/home/itssahil/PROJECTS/Mol_Feturizer/New_Systems/rnas/2HOJ

>  <Rbt.Executable>
rbdock ($Id: //depot/dev/client3/rdock/2013.1/src/exe/rbdock.cxx#4 $)

>  <Rbt.Library>
libRbt.so (2013.1, Build901 2013/11/27)

>  <Rbt.Parameter_File>
/export/apps/rDock/src/rDock_2013.1_src/data/scripts/dock_solv.prm

>  <Rbt.Receptor>
prm/pocket_docking_3.prm

>  <SCORE>
-22.8017

>  <SCORE.INTER>
-22.2039

>  <SCORE.INTER.CONST>
1

>  <SCORE.INTER.POLAR>
-3.98652

>  <SCORE.INTER.ROT>
8

>  <SCORE.INTER.SOLV>
29.619

>  <SCORE.INTER.VDW>
-20.3205

>  <SCORE.INTER.norm>
-0.853996

>  <SCORE.INTRA>
-0.59783

>  <SCORE.INTRA.DIHEDRAL>
1.8615

>  <SCORE.INTRA.DIHEDRAL.0>
11.6398

>  <SCORE.INTRA.POLAR>
0

>  <SCORE.INTRA.POLAR.0>
0

>  <SCORE.INTRA.REPUL>
0

>  <SCORE.INTRA.REPUL.0>
0

>  <SCORE.INTRA.SOLV>
1.70962

>  <SCORE.INTRA.SOLV.lig_0>
-81.722

>  <SCORE.INTRA.VDW>
-2.38339

>  <SCORE.INTRA.VDW.0>
1.12598

>  <SCORE.INTRA.norm>
-0.0229935

>  <SCORE.RESTR>
0

>  <SCORE.RESTR.CAVITY>
0

>  <SCORE.RESTR.norm>
0

>  <SCORE.SYSTEM>
0

>  <SCORE.SYSTEM.CONST>
0

>  <SCORE.SYSTEM.DIHEDRAL>
0

>  <SCORE.SYSTEM.SOLV>
0

>  <SCORE.SYSTEM.norm>
0

>  <SCORE.heavy>
26

>  <SCORE.norm>
-0.87699

>  <RMSD>
2.293

$$$$
ligand
 OpenBabel11021811433D
libRbt.so/2013.1/901 2013/11/27
 26 27  0  0  0  0  0  0  0  0999 V2000
   15.9131   39.0311   64.1814 C   0  0  0  0  0  0  0  0  0  0  0  0
   22.6239   40.3632   68.4880 C   0  0  0  0  0  0  0  0  0  0  0  0
   28.4419   37.5459   67.1849 P   0  0  1  0  0  0  0  0  0  0  0  0
   28.9247   40.0788   66.9902 P   0  0  1  0  0  0  0  0  0  0  0  0
   20.8214   40.8756   66.4004 C   0  0  0  0  0  0  0  0  0  0  0  0
   19.1697   39.0555   65.8802 C   0  0  0  0  0  0  0  0  0  0  0  0
   19.5220   40.3888   65.8126 C   0  0  0  0  0  0  0  0  0  0  0  0
   18.6436   41.2746   65.1861 C   0  0  0  0  0  0  0  0  0  0  0  0
   18.9513   42.6236   65.0917 N   0  0  0  0  0  0  0  0  0  0  0  0
   17.5092   40.8047   64.6756 N   0  0  0  0  0  0  0  0  0  0  0  0
   17.2103   39.5250   64.7666 C   0  0  0  0  0  0  0  0  0  0  0  0
   18.0184   38.6626   65.3517 N   0  0  0  0  0  0  0  0  0  0  0  0
   28.2511   36.2728   66.4538 O   0  5  0  0  0  0  0  0  0  0  0  0
   30.2602   39.9637   67.7579 O   0  0  0  0  0  0  0  0  0  0  0  0
   23.2640   38.1440   65.3245 S   0  0  0  0  0  0  0  0  0  0  0  0
   21.9169   39.2105   65.0688 C   0  0  0  0  0  0  0  0  0  0  0  0
   29.7189   37.4220   68.1552 O   0  0  0  0  0  0  0  0  0  0  0  0
   28.9794   41.3487   66.0030 O   0  5  0  0  0  0  0  0  0  0  0  0
   21.8561   39.8567   66.2101 N   0  0  0  0  0  0  0  0  0  0  0  0
   28.6824   38.7389   66.1302 O   0  0  0  0  0  0  0  0  0  0  0  0
   27.7666   40.2595   67.9974 O   0  0  0  0  0  0  0  0  0  0  0  0
   22.7059   39.6114   67.1834 C   0  0  2  0  0  0  0  0  0  0  0  0
   23.6546   38.6601   66.9898 C   0  0  2  0  0  0  0  0  0  0  0  0
   24.7374   38.1769   67.9186 C   0  0  0  0  0  0  0  0  0  0  0  0
   26.0473   38.0228   67.1423 C   0  0  0  0  0  0  0  0  0  0  0  0
   27.1294   37.8640   68.0620 O   0  0  0  0  0  0  0  0  0  0  0  0
  1 11  1  0  0  0  0
  3 13  1  6  0  0  0
  3 17  2  0  0  0  0
  3 20  1  0  0  0  0
  3 26  1  0  0  0  0
  4 14  1  1  0  0  0
  4 18  1  0  0  0  0
  4 21  2  0  0  0  0
  4 20  1  0  0  0  0
  5 19  1  0  0  0  0
  5  7  1  0  0  0  0
  6  7  2  0  0  0  0
  6 12  1  0  0  0  0
  7  8  1  0  0  0  0
  8  9  1  0  0  0  0
  8 10  2  0  0  0  0
 10 11  1  0  0  0  0
 11 12  2  0  0  0  0
 15 23  1  0  0  0  0
 15 16  1  0  0  0  0
 16 19  1  0  0  0  0
 19 22  1  0  0  0  0
 22  2  1  1  0  0  0
 22 23  1  0  0  0  0
 23 24  1  6  0  0  0
 24 25  1  0  0  0  0
 25 26  1  0  0  0  0
M  CHG  2  13  -1  18  -1
M  END
>  <CHROM.1>
-178.36184635,40.98801802,35.80112425,67.32089211,43.13327497,166.91587584
173.87913975,-62.54086731,24.15654825,39.25088613,66.45547500,3.02248722
-0.19502505,0.01269499

>  <Name>
ligand

>  <RI>
0

>  <Rbt.Current_Directory>
/home/itssahil/PROJECTS/Mol_Feturizer/New_Systems/rnas/2HOJ

>  <Rbt.Executable>
rbdock ($Id: //depot/dev/client3/rdock/2013.1/src/exe/rbdock.cxx#4 $)

>  <Rbt.Library>
libRbt.so (2013.1, Build901 2013/11/27)

>  <Rbt.Parameter_File>
/export/apps/rDock/src/rDock_2013.1_src/data/scripts/dock_solv.prm

>  <Rbt.Receptor>
prm/pocket_docking_3.prm

>  <SCORE>
-26.856

>  <SCORE.INTER>
-22.6798

>  <SCORE.INTER.CONST>
1

>  <SCORE.INTER.POLAR>
-2.13414

>  <SCORE.INTER.ROT>
8

>  <SCORE.INTER.SOLV>
27.2224

>  <SCORE.INTER.VDW>
-26.0135

>  <SCORE.INTER.norm>
-0.872298

>  <SCORE.INTRA>
-4.30345

>  <SCORE.INTRA.DIHEDRAL>
-5.6758

>  <SCORE.INTRA.DIHEDRAL.0>
11.6398

>  <SCORE.INTRA.POLAR>
0

>  <SCORE.INTRA.POLAR.0>
0

>  <SCORE.INTRA.REPUL>
0

>  <SCORE.INTRA.REPUL.0>
0

>  <SCORE.INTRA.SOLV>
1.17436

>  <SCORE.INTRA.SOLV.lig_0>
-81.722

>  <SCORE.INTRA.VDW>
-2.05273

>  <SCORE.INTRA.VDW.0>
1.12598

>  <SCORE.INTRA.norm>
-0.165517

>  <SCORE.RESTR>
0.127207

>  <SCORE.RESTR.CAVITY>
0.127207

>  <SCORE.RESTR.norm>
0.00489258

>  <SCORE.SYSTEM>
0

>  <SCORE.SYSTEM.CONST>
0

>  <SCORE.SYSTEM.DIHEDRAL>
0

>  <SCORE.SYSTEM.SOLV>
0

>  <SCORE.SYSTEM.norm>
0

>  <SCORE.heavy>
26

>  <SCORE.norm>
-1.03292

>  <RMSD>
2.307

$$$$
ligand
 OpenBabel11021811433D
libRbt.so/2013.1/901 2013/11/27
 26 27  0  0  0  0  0  0  0  0999 V2000
   15.6130   39.2417   63.7916 C   0  0  0  0  0  0  0  0  0  0  0  0
   22.8459   41.4258   65.7099 C   0  0  0  0  0  0  0  0  0  0  0  0
   27.6302   38.1444   66.5350 P   0  0  1  0  0  0  0  0  0  0  0  0
   27.8259   39.7395   68.5609 P   0  0  1  0  0  0  0  0  0  0  0  0
   20.3238   40.6507   66.6625 C   0  0  0  0  0  0  0  0  0  0  0  0
   18.5952   38.9853   65.9207 C   0  0  0  0  0  0  0  0  0  0  0  0
   19.0768   40.2791   65.9021 C   0  0  0  0  0  0  0  0  0  0  0  0
   18.3791   41.2346   65.1612 C   0  0  0  0  0  0  0  0  0  0  0  0
   18.8219   42.5479   65.1099 N   0  0  0  0  0  0  0  0  0  0  0  0
   17.2860   40.8655   64.5000 N   0  0  0  0  0  0  0  0  0  0  0  0
   16.8588   39.6205   64.5492 C   0  0  0  0  0  0  0  0  0  0  0  0
   17.4950   38.6943   65.2394 N   0  0  0  0  0  0  0  0  0  0  0  0
   29.0949   38.2841   66.3716 O   0  5  0  0  0  0  0  0  0  0  0  0
   27.2343   40.9705   69.2826 O   0  0  0  0  0  0  0  0  0  0  0  0
   22.5509   37.5675   66.3171 S   0  0  0  0  0  0  0  0  0  0  0  0
   21.0620   38.3706   66.7114 C   0  0  0  0  0  0  0  0  0  0  0  0
   27.3138   36.8989   67.5027 O   0  0  0  0  0  0  0  0  0  0  0  0
   27.6824   38.4428   69.5034 O   0  5  0  0  0  0  0  0  0  0  0  0
   21.3482   39.6255   66.4521 N   0  0  0  0  0  0  0  0  0  0  0  0
   27.0319   39.4926   67.1816 O   0  0  0  0  0  0  0  0  0  0  0  0
   29.3198   39.9912   68.2559 O   0  0  0  0  0  0  0  0  0  0  0  0
   22.5329   39.9804   66.0044 C   0  0  2  0  0  0  0  0  0  0  0  0
   23.4706   39.0165   65.8205 C   0  0  2  0  0  0  0  0  0  0  0  0
   24.8900   39.1348   65.3304 C   0  0  0  0  0  0  0  0  0  0  0  0
   25.5465   37.7524   65.3233 C   0  0  0  0  0  0  0  0  0  0  0  0
   26.9504   37.8937   65.0969 O   0  0  0  0  0  0  0  0  0  0  0  0
  1 11  1  0  0  0  0
  3 13  1  6  0  0  0
  3 17  2  0  0  0  0
  3 20  1  0  0  0  0
  3 26  1  0  0  0  0
  4 14  1  1  0  0  0
  4 18  1  0  0  0  0
  4 21  2  0  0  0  0
  4 20  1  0  0  0  0
  5 19  1  0  0  0  0
  5  7  1  0  0  0  0
  6  7  2  0  0  0  0
  6 12  1  0  0  0  0
  7  8  1  0  0  0  0
  8  9  1  0  0  0  0
  8 10  2  0  0  0  0
 10 11  1  0  0  0  0
 11 12  2  0  0  0  0
 15 23  1  0  0  0  0
 15 16  1  0  0  0  0
 16 19  1  0  0  0  0
 19 22  1  0  0  0  0
 22  2  1  1  0  0  0
 22 23  1  0  0  0  0
 23 24  1  6  0  0  0
 24 25  1  0  0  0  0
 25 26  1  0  0  0  0
M  CHG  2  13  -1  18  -1
M  END
>  <CHROM.1>
-56.06192644,-54.37064421,44.09746091,-176.24049885,-1.20181762,-169.47814560
86.21019545,179.33743156,23.56548175,39.27711880,66.42324949,-3.13418634
-0.27135424,0.46040461

>  <Name>
ligand

>  <RI>
0

>  <Rbt.Current_Directory>
/home/itssahil/PROJECTS/Mol_Feturizer/New_Systems/rnas/2HOJ

>  <Rbt.Executable>
rbdock ($Id: //depot/dev/client3/rdock/2013.1/src/exe/rbdock.cxx#4 $)

>  <Rbt.Library>
libRbt.so (2013.1, Build901 2013/11/27)

>  <Rbt.Parameter_File>
/export/apps/rDock/src/rDock_2013.1_src/data/scripts/dock_solv.prm

>  <Rbt.Receptor>
prm/pocket_docking_3.prm

>  <SCORE>
-21.9572

>  <SCORE.INTER>
-21.2862

>  <SCORE.INTER.CONST>
1

>  <SCORE.INTER.POLAR>
-1.29904

>  <SCORE.INTER.ROT>
8

>  <SCORE.INTER.SOLV>
24.3904

>  <SCORE.INTER.VDW>
-26.9242

>  <SCORE.INTER.norm>
-0.818701

>  <SCORE.INTRA>
-0.670988

>  <SCORE.INTRA.DIHEDRAL>
-3.72974

>  <SCORE.INTRA.DIHEDRAL.0>
11.6398

>  <SCORE.INTRA.POLAR>
0

>  <SCORE.INTRA.POLAR.0>
0

>  <SCORE.INTRA.REPUL>
0

>  <SCORE.INTRA.REPUL.0>
0

>  <SCORE.INTRA.SOLV>
4.29411

>  <SCORE.INTRA.SOLV.lig_0>
-81.722

>  <SCORE.INTRA.VDW>
-0.953172

>  <SCORE.INTRA.VDW.0>
1.12598

>  <SCORE.INTRA.norm>
-0.0258072

>  <SCORE.RESTR>
0

>  <SCORE.RESTR.CAVITY>
0

>  <SCORE.RESTR.norm>
0

>  <SCORE.SYSTEM>
0

>  <SCORE.SYSTEM.CONST>
0

>  <SCORE.SYSTEM.DIHEDRAL>
0

>  <SCORE.SYSTEM.SOLV>
0

>  <SCORE.SYSTEM.norm>
0

>  <SCORE.heavy>
26

>  <SCORE.norm>
-0.844508

>  <RMSD>
2.315

$$$$
ligand
 OpenBabel11021811433D
libRbt.so/2013.1/901 2013/11/27
 26 27  0  0  0  0  0  0  0  0999 V2000
   16.3937   39.4626   64.1881 C   0  0  0  0  0  0  0  0  0  0  0  0
   22.0300   40.2055   69.1029 C   0  0  0  0  0  0  0  0  0  0  0  0
   27.5807   40.1711   67.6714 P   0  0  1  0  0  0  0  0  0  0  0  0
   29.7250   38.7292   67.7701 P   0  0  1  0  0  0  0  0  0  0  0  0
   20.9650   41.5368   66.8751 C   0  0  0  0  0  0  0  0  0  0  0  0
   18.9435   41.8082   65.4082 C   0  0  0  0  0  0  0  0  0  0  0  0
   19.7553   40.9864   66.1645 C   0  0  0  0  0  0  0  0  0  0  0  0
   19.4272   39.6325   66.2539 C   0  0  0  0  0  0  0  0  0  0  0  0
   20.2101   38.7655   67.0015 N   0  0  0  0  0  0  0  0  0  0  0  0
   18.3488   39.1870   65.6161 N   0  0  0  0  0  0  0  0  0  0  0  0
   17.6045   40.0056   64.9013 C   0  0  0  0  0  0  0  0  0  0  0  0
   17.8870   41.2894   64.7969 N   0  0  0  0  0  0  0  0  0  0  0  0
   27.5227   41.5897   67.2519 O   0  5  0  0  0  0  0  0  0  0  0  0
   30.1658   39.2040   66.3678 O   0  0  0  0  0  0  0  0  0  0  0  0
   23.8772   39.3314   65.7613 S   0  0  0  0  0  0  0  0  0  0  0  0
   22.5902   40.4631   65.4780 C   0  0  0  0  0  0  0  0  0  0  0  0
   27.5735   39.2252   66.3703 O   0  0  0  0  0  0  0  0  0  0  0  0
   31.0219   38.3275   68.6343 O   0  5  0  0  0  0  0  0  0  0  0  0
   22.0988   40.6296   66.6841 N   0  0  0  0  0  0  0  0  0  0  0  0
   28.9296   39.9159   68.5135 O   0  0  0  0  0  0  0  0  0  0  0  0
   28.7995   37.4997   67.6292 O   0  0  0  0  0  0  0  0  0  0  0  0
   22.6048   40.0027   67.7236 C   0  0  2  0  0  0  0  0  0  0  0  0
   23.6523   39.1623   67.5256 C   0  0  2  0  0  0  0  0  0  0  0  0
   24.4151   38.3239   68.5176 C   0  0  0  0  0  0  0  0  0  0  0  0
   25.9178   38.4895   68.2800 C   0  0  0  0  0  0  0  0  0  0  0  0
   26.3036   39.8298   68.5910 O   0  0  0  0  0  0  0  0  0  0  0  0
  1 11  1  0  0  0  0
  3 13  1  6  0  0  0
  3 17  2  0  0  0  0
  3 20  1  0  0  0  0
  3 26  1  0  0  0  0
  4 14  1  6  0  0  0
  4 18  1  0  0  0  0
  4 21  2  0  0  0  0
  4 20  1  0  0  0  0
  5 19  1  0  0  0  0
  5  7  1  0  0  0  0
  6  7  2  0  0  0  0
  6 12  1  0  0  0  0
  7  8  1  0  0  0  0
  8  9  1  0  0  0  0
  8 10  2  0  0  0  0
 10 11  1  0  0  0  0
 11 12  2  0  0  0  0
 15 23  1  0  0  0  0
 15 16  1  0  0  0  0
 16 19  1  0  0  0  0
 19 22  1  0  0  0  0
 22  2  1  6  0  0  0
 22 23  1  0  0  0  0
 23 24  1  1  0  0  0
 24 25  1  0  0  0  0
 25 26  1  0  0  0  0
M  CHG  2  13  -1  18  -1
M  END
>  <CHROM.1>
-123.51084939,65.44456600,-135.90776258,65.04592477,46.23617233,66.56294989
-151.61177460,143.99319714,24.29100495,39.68631236,66.95278156,-2.91727734
0.05446722,2.28863612

>  <Name>
ligand

>  <RI>
0

>  <Rbt.Current_Directory>
/home/itssahil/PROJECTS/Mol_Feturizer/New_Systems/rnas/2HOJ

>  <Rbt.Executable>
rbdock ($Id: //depot/dev/client3/rdock/2013.1/src/exe/rbdock.cxx#4 $)

>  <Rbt.Library>
libRbt.so (2013.1, Build901 2013/11/27)

>  <Rbt.Parameter_File>
/export/apps/rDock/src/rDock_2013.1_src/data/scripts/dock_solv.prm

>  <Rbt.Receptor>
prm/pocket_docking_2.prm

>  <SCORE>
-20.227

>  <SCORE.INTER>
-23.7297

>  <SCORE.INTER.CONST>
1

>  <SCORE.INTER.POLAR>
-2.14751

>  <SCORE.INTER.ROT>
8

>  <SCORE.INTER.SOLV>
21.6192

>  <SCORE.INTER.VDW>
-24.8012

>  <SCORE.INTER.norm>
-0.912681

>  <SCORE.INTRA>
2.99606

>  <SCORE.INTRA.DIHEDRAL>
0.910327

>  <SCORE.INTRA.DIHEDRAL.0>
11.6398

>  <SCORE.INTRA.POLAR>
0

>  <SCORE.INTRA.POLAR.0>
0

>  <SCORE.INTRA.REPUL>
0

>  <SCORE.INTRA.REPUL.0>
0

>  <SCORE.INTRA.SOLV>
6.99262

>  <SCORE.INTRA.SOLV.lig_0>
-81.722

>  <SCORE.INTRA.VDW>
-0.95541

>  <SCORE.INTRA.VDW.0>
1.12598

>  <SCORE.INTRA.norm>
0.115233

>  <SCORE.RESTR>
0.506608

>  <SCORE.RESTR.CAVITY>
0.506608

>  <SCORE.RESTR.norm>
0.0194849

>  <SCORE.SYSTEM>
0

>  <SCORE.SYSTEM.CONST>
0

>  <SCORE.SYSTEM.DIHEDRAL>
0

>  <SCORE.SYSTEM.SOLV>
0

>  <SCORE.SYSTEM.norm>
0

>  <SCORE.heavy>
26

>  <SCORE.norm>
-0.777963

>  <RMSD>
2.329

$$$$
ligand
 OpenBabel11021811433D
libRbt.so/2013.1/901 2013/11/27
 26 27  0  0  0  0  0  0  0  0999 V2000
   17.2193   40.5305   64.9079 C   0  0  0  0  0  0  0  0  0  0  0  0
   24.2263   41.5185   66.5123 C   0  0  0  0  0  0  0  0  0  0  0  0
   29.1338   39.2649   66.8168 P   0  0  1  0  0  0  0  0  0  0  0  0
   28.7141   38.7672   69.3194 P   0  0  1  0  0  0  0  0  0  0  0  0
   22.1975   39.9168   67.6023 C   0  0  0  0  0  0  0  0  0  0  0  0
   20.1544   38.9796   66.4802 C   0  0  0  0  0  0  0  0  0  0  0  0
   20.8800   40.0808   66.8892 C   0  0  0  0  0  0  0  0  0  0  0  0
   20.3620   41.3500   66.6256 C   0  0  0  0  0  0  0  0  0  0  0  0
   21.0524   42.4879   67.0155 N   0  0  0  0  0  0  0  0  0  0  0  0
   19.1987   41.4522   65.9896 N   0  0  0  0  0  0  0  0  0  0  0  0
   18.5370   40.3745   65.6212 C   0  0  0  0  0  0  0  0  0  0  0  0
   18.9990   39.1616   65.8549 N   0  0  0  0  0  0  0  0  0  0  0  0
   29.6355   40.5544   67.3432 O   0  5  0  0  0  0  0  0  0  0  0  0
   28.8178   40.2575   69.7124 O   0  0  0  0  0  0  0  0  0  0  0  0
   24.4115   37.7880   65.3327 S   0  0  0  0  0  0  0  0  0  0  0  0
   23.0717   38.0289   66.4117 C   0  0  0  0  0  0  0  0  0  0  0  0
   30.3633   38.2435   66.6358 O   0  0  0  0  0  0  0  0  0  0  0  0
   27.7864   37.9936   70.3830 O   0  5  0  0  0  0  0  0  0  0  0  0
   23.1719   39.3071   66.6948 N   0  0  0  0  0  0  0  0  0  0  0  0
   28.0665   38.6429   67.8501 O   0  0  0  0  0  0  0  0  0  0  0  0
   30.1254   38.1377   69.3139 O   0  0  0  0  0  0  0  0  0  0  0  0
   24.1254   40.0514   66.1784 C   0  0  2  0  0  0  0  0  0  0  0  0
   25.0219   39.4671   65.3434 C   0  0  2  0  0  0  0  0  0  0  0  0
   26.2006   40.0677   64.6232 C   0  0  0  0  0  0  0  0  0  0  0  0
   27.3125   40.3760   65.6286 C   0  0  0  0  0  0  0  0  0  0  0  0
   28.4215   39.5061   65.3929 O   0  0  0  0  0  0  0  0  0  0  0  0
  1 11  1  0  0  0  0
  3 13  1  1  0  0  0
  3 17  2  0  0  0  0
  3 20  1  0  0  0  0
  3 26  1  0  0  0  0
  4 14  1  1  0  0  0
  4 18  1  0  0  0  0
  4 21  2  0  0  0  0
  4 20  1  0  0  0  0
  5 19  1  0  0  0  0
  5  7  1  0  0  0  0
  6  7  2  0  0  0  0
  6 12  1  0  0  0  0
  7  8  1  0  0  0  0
  8  9  1  0  0  0  0
  8 10  2  0  0  0  0
 10 11  1  0  0  0  0
 11 12  2  0  0  0  0
 15 23  1  0  0  0  0
 15 16  1  0  0  0  0
 16 19  1  0  0  0  0
 19 22  1  0  0  0  0
 22  2  1  1  0  0  0
 22 23  1  0  0  0  0
 23 24  1  6  0  0  0
 24 25  1  0  0  0  0
 25 26  1  0  0  0  0
M  CHG  2  13  -1  18  -1
M  END
>  <CHROM.1>
-46.26233443,-74.07487774,65.38454784,67.16585877,-108.29709468,111.93837357
-149.26054086,-62.10649136,25.08700986,39.54830985,66.88569203,-2.93492791
-0.14036965,1.55891770

>  <Name>
ligand

>  <RI>
0

>  <Rbt.Current_Directory>
/home/itssahil/PROJECTS/Mol_Feturizer/New_Systems/rnas/2HOJ

>  <Rbt.Executable>
rbdock ($Id: //depot/dev/client3/rdock/2013.1/src/exe/rbdock.cxx#4 $)

>  <Rbt.Library>
libRbt.so (2013.1, Build901 2013/11/27)

>  <Rbt.Parameter_File>
/export/apps/rDock/src/rDock_2013.1_src/data/scripts/dock_solv.prm

>  <Rbt.Receptor>
prm/pocket_docking_4.prm

>  <SCORE>
-22.6734

>  <SCORE.INTER>
-21.9137

>  <SCORE.INTER.CONST>
1

>  <SCORE.INTER.POLAR>
-3.84107

>  <SCORE.INTER.ROT>
8

>  <SCORE.INTER.SOLV>
24.4412

>  <SCORE.INTER.VDW>
-18.886

>  <SCORE.INTER.norm>
-0.842834

>  <SCORE.INTRA>
-0.794705

>  <SCORE.INTRA.DIHEDRAL>
2.38569

>  <SCORE.INTRA.DIHEDRAL.0>
11.6398

>  <SCORE.INTRA.POLAR>
0

>  <SCORE.INTRA.POLAR.0>
0

>  <SCORE.INTRA.REPUL>
0

>  <SCORE.INTRA.REPUL.0>
0

>  <SCORE.INTRA.SOLV>
2.69774

>  <SCORE.INTRA.SOLV.lig_0>
-81.722

>  <SCORE.INTRA.VDW>
-3.33642

>  <SCORE.INTRA.VDW.0>
1.12598

>  <SCORE.INTRA.norm>
-0.0305656

>  <SCORE.RESTR>
0.0350002

>  <SCORE.RESTR.CAVITY>
0.0350002

>  <SCORE.RESTR.norm>
0.00134616

>  <SCORE.SYSTEM>
0

>  <SCORE.SYSTEM.CONST>
0

>  <SCORE.SYSTEM.DIHEDRAL>
0

>  <SCORE.SYSTEM.SOLV>
0

>  <SCORE.SYSTEM.norm>
0

>  <SCORE.heavy>
26

>  <SCORE.norm>
-0.872054

>  <RMSD>
2.332

$$$$
ligand
 OpenBabel11021811433D
libRbt.so/2013.1/901 2013/11/27
 26 27  0  0  0  0  0  0  0  0999 V2000
   16.5339   39.8161   64.4246 C   0  0  0  0  0  0  0  0  0  0  0  0
   23.5695   43.3267   67.5612 C   0  0  0  0  0  0  0  0  0  0  0  0
   27.7367   39.9371   68.0375 P   0  0  1  0  0  0  0  0  0  0  0  0
   29.1304   37.9445   67.1575 P   0  0  1  0  0  0  0  0  0  0  0  0
   21.0903   42.2315   66.8376 C   0  0  0  0  0  0  0  0  0  0  0  0
   18.9966   42.3397   65.4532 C   0  0  0  0  0  0  0  0  0  0  0  0
   19.8846   41.5909   66.1996 C   0  0  0  0  0  0  0  0  0  0  0  0
   19.6375   40.2250   66.3478 C   0  0  0  0  0  0  0  0  0  0  0  0
   20.4989   39.4292   67.0882 N   0  0  0  0  0  0  0  0  0  0  0  0
   18.5599   39.6988   65.7732 N   0  0  0  0  0  0  0  0  0  0  0  0
   17.7411   40.4495   65.0654 C   0  0  0  0  0  0  0  0  0  0  0  0
   17.9461   41.7425   64.9065 N   0  0  0  0  0  0  0  0  0  0  0  0
   26.4451   40.3499   68.6315 O   0  5  0  0  0  0  0  0  0  0  0  0
   29.9782   37.7887   68.4394 O   0  0  0  0  0  0  0  0  0  0  0  0
   23.8754   40.4150   64.9592 S   0  0  0  0  0  0  0  0  0  0  0  0
   22.2129   40.7016   65.3731 C   0  0  0  0  0  0  0  0  0  0  0  0
   28.9031   40.0786   69.1363 O   0  0  0  0  0  0  0  0  0  0  0  0
   29.0705   36.5379   66.3779 O   0  5  0  0  0  0  0  0  0  0  0  0
   22.3092   41.6862   66.2363 N   0  0  0  0  0  0  0  0  0  0  0  0
   27.6384   38.4044   67.5529 O   0  0  0  0  0  0  0  0  0  0  0  0
   29.7721   39.0126   66.2434 O   0  0  0  0  0  0  0  0  0  0  0  0
   23.4755   42.1950   66.5692 C   0  0  2  0  0  0  0  0  0  0  0  0
   24.5941   41.6728   66.0049 C   0  0  2  0  0  0  0  0  0  0  0  0
   26.0387   42.0510   66.2022 C   0  0  0  0  0  0  0  0  0  0  0  0
   26.9291   40.8395   65.9169 C   0  0  0  0  0  0  0  0  0  0  0  0
   28.0721   40.8770   66.7737 O   0  0  0  0  0  0  0  0  0  0  0  0
  1 11  1  0  0  0  0
  3 13  1  1  0  0  0
  3 17  2  0  0  0  0
  3 20  1  0  0  0  0
  3 26  1  0  0  0  0
  4 14  1  1  0  0  0
  4 18  1  0  0  0  0
  4 21  2  0  0  0  0
  4 20  1  0  0  0  0
  5 19  1  0  0  0  0
  5  7  1  0  0  0  0
  6  7  2  0  0  0  0
  6 12  1  0  0  0  0
  7  8  1  0  0  0  0
  8  9  1  0  0  0  0
  8 10  2  0  0  0  0
 10 11  1  0  0  0  0
 11 12  2  0  0  0  0
 15 23  1  0  0  0  0
 15 16  1  0  0  0  0
 16 19  1  0  0  0  0
 19 22  1  0  0  0  0
 22  2  1  1  0  0  0
 22 23  1  0  0  0  0
 23 24  1  6  0  0  0
 24 25  1  0  0  0  0
 25 26  1  0  0  0  0
M  CHG  2  13  -1  18  -1
M  END
>  <CHROM.1>
-170.43970822,-5.64157165,-115.16741033,71.68436744,-26.86800657,-146.48376210
96.26548307,-52.74519725,24.47678796,40.24287243,66.58691532,2.97516151,-0.23086810
0.19801863

>  <Name>
ligand

>  <RI>
0

>  <Rbt.Current_Directory>
/home/itssahil/PROJECTS/Mol_Feturizer/New_Systems/rnas/2HOJ

>  <Rbt.Executable>
rbdock ($Id: //depot/dev/client3/rdock/2013.1/src/exe/rbdock.cxx#4 $)

>  <Rbt.Library>
libRbt.so (2013.1, Build901 2013/11/27)

>  <Rbt.Parameter_File>
/export/apps/rDock/src/rDock_2013.1_src/data/scripts/dock_solv.prm

>  <Rbt.Receptor>
prm/pocket_docking_4.prm

>  <SCORE>
-22.5803

>  <SCORE.INTER>
-23.9566

>  <SCORE.INTER.CONST>
1

>  <SCORE.INTER.POLAR>
-2.66474

>  <SCORE.INTER.ROT>
8

>  <SCORE.INTER.SOLV>
18.5226

>  <SCORE.INTER.VDW>
-22.1962

>  <SCORE.INTER.norm>
-0.921409

>  <SCORE.INTRA>
1.37629

>  <SCORE.INTRA.DIHEDRAL>
1.63813

>  <SCORE.INTRA.DIHEDRAL.0>
11.6398

>  <SCORE.INTRA.POLAR>
0

>  <SCORE.INTRA.POLAR.0>
0

>  <SCORE.INTRA.REPUL>
0

>  <SCORE.INTRA.REPUL.0>
0

>  <SCORE.INTRA.SOLV>
3.75485

>  <SCORE.INTRA.SOLV.lig_0>
-81.722

>  <SCORE.INTRA.VDW>
-1.32019

>  <SCORE.INTRA.VDW.0>
1.12598

>  <SCORE.INTRA.norm>
0.0529344

>  <SCORE.RESTR>
0

>  <SCORE.RESTR.CAVITY>
0

>  <SCORE.RESTR.norm>
0

>  <SCORE.SYSTEM>
0

>  <SCORE.SYSTEM.CONST>
0

>  <SCORE.SYSTEM.DIHEDRAL>
0

>  <SCORE.SYSTEM.SOLV>
0

>  <SCORE.SYSTEM.norm>
0

>  <SCORE.heavy>
26

>  <SCORE.norm>
-0.868474

>  <RMSD>
2.334

$$$$
ligand
 OpenBabel11021811433D
libRbt.so/2013.1/901 2013/11/27
 26 27  0  0  0  0  0  0  0  0999 V2000
   17.1844   40.0742   65.0773 C   0  0  0  0  0  0  0  0  0  0  0  0
   24.7862   41.6303   66.3247 C   0  0  0  0  0  0  0  0  0  0  0  0
   29.6121   38.9788   67.3688 P   0  0  1  0  0  0  0  0  0  0  0  0
   27.8708   39.3157   69.2506 P   0  0  1  0  0  0  0  0  0  0  0  0
   22.3644   40.6697   67.3647 C   0  0  0  0  0  0  0  0  0  0  0  0
   20.3042   39.3217   66.8642 C   0  0  0  0  0  0  0  0  0  0  0  0
   20.9934   40.5134   66.7587 C   0  0  0  0  0  0  0  0  0  0  0  0
   20.3878   41.5702   66.0767 C   0  0  0  0  0  0  0  0  0  0  0  0
   21.0386   42.7876   65.9425 N   0  0  0  0  0  0  0  0  0  0  0  0
   19.1792   41.3906   65.5520 N   0  0  0  0  0  0  0  0  0  0  0  0
   18.5552   40.2377   65.6804 C   0  0  0  0  0  0  0  0  0  0  0  0
   19.0997   39.2201   66.3182 N   0  0  0  0  0  0  0  0  0  0  0  0
   30.6677   39.9232   67.7997 O   0  5  0  0  0  0  0  0  0  0  0  0
   26.5462   39.1714   68.4690 O   0  0  0  0  0  0  0  0  0  0  0  0
   24.3359   37.7678   65.8556 S   0  0  0  0  0  0  0  0  0  0  0  0
   22.9618   38.4561   66.6651 C   0  0  0  0  0  0  0  0  0  0  0  0
   30.2553   37.8508   66.4192 O   0  0  0  0  0  0  0  0  0  0  0  0
   27.6138   38.9996   70.8075 O   0  5  0  0  0  0  0  0  0  0  0  0
   23.2887   39.7260   66.7323 N   0  0  0  0  0  0  0  0  0  0  0  0
   28.9562   38.2809   68.6635 O   0  0  0  0  0  0  0  0  0  0  0  0
   28.4023   40.7588   69.0993 O   0  0  0  0  0  0  0  0  0  0  0  0
   24.4256   40.1685   66.2410 C   0  0  2  0  0  0  0  0  0  0  0  0
   25.2712   39.2778   65.6632 C   0  0  2  0  0  0  0  0  0  0  0  0
   26.6206   39.5007   65.0320 C   0  0  0  0  0  0  0  0  0  0  0  0
   27.6974   38.8001   65.8638 C   0  0  0  0  0  0  0  0  0  0  0  0
   28.4737   39.7786   66.5580 O   0  0  0  0  0  0  0  0  0  0  0  0
  1 11  1  0  0  0  0
  3 13  1  1  0  0  0
  3 17  2  0  0  0  0
  3 20  1  0  0  0  0
  3 26  1  0  0  0  0
  4 14  1  6  0  0  0
  4 18  1  0  0  0  0
  4 21  2  0  0  0  0
  4 20  1  0  0  0  0
  5 19  1  0  0  0  0
  5  7  1  0  0  0  0
  6  7  2  0  0  0  0
  6 12  1  0  0  0  0
  7  8  1  0  0  0  0
  8  9  1  0  0  0  0
  8 10  2  0  0  0  0
 10 11  1  0  0  0  0
 11 12  2  0  0  0  0
 15 23  1  0  0  0  0
 15 16  1  0  0  0  0
 16 19  1  0  0  0  0
 19 22  1  0  0  0  0
 22  2  1  1  0  0  0
 22 23  1  0  0  0  0
 23 24  1  6  0  0  0
 24 25  1  0  0  0  0
 25 26  1  0  0  0  0
M  CHG  2  13  -1  18  -1
M  END
>  <CHROM.1>
81.61835586,-51.66984311,62.05021019,82.77816186,-66.31746733,-107.89260374
-178.13288292,164.37566647,25.04521778,39.62060695,66.99749830,-3.01008688
-0.21479345,1.13343698

>  <Name>
ligand

>  <RI>
0

>  <Rbt.Current_Directory>
/home/itssahil/PROJECTS/Mol_Feturizer/New_Systems/rnas/2HOJ

>  <Rbt.Executable>
rbdock ($Id: //depot/dev/client3/rdock/2013.1/src/exe/rbdock.cxx#4 $)

>  <Rbt.Library>
libRbt.so (2013.1, Build901 2013/11/27)

>  <Rbt.Parameter_File>
/export/apps/rDock/src/rDock_2013.1_src/data/scripts/dock_solv.prm

>  <Rbt.Receptor>
prm/pocket_docking_2.prm

>  <SCORE>
-20.9032

>  <SCORE.INTER>
-20.1731

>  <SCORE.INTER.CONST>
1

>  <SCORE.INTER.POLAR>
-2.57419

>  <SCORE.INTER.ROT>
8

>  <SCORE.INTER.SOLV>
22.2398

>  <SCORE.INTER.VDW>
-21.2147

>  <SCORE.INTER.norm>
-0.775889

>  <SCORE.INTRA>
-2.34666

>  <SCORE.INTRA.DIHEDRAL>
0.344796

>  <SCORE.INTRA.DIHEDRAL.0>
11.6398

>  <SCORE.INTRA.POLAR>
0

>  <SCORE.INTRA.POLAR.0>
0

>  <SCORE.INTRA.REPUL>
0

>  <SCORE.INTRA.REPUL.0>
0

>  <SCORE.INTRA.SOLV>
1.26681

>  <SCORE.INTRA.SOLV.lig_0>
-81.722

>  <SCORE.INTRA.VDW>
-3.15246

>  <SCORE.INTRA.VDW.0>
1.12598

>  <SCORE.INTRA.norm>
-0.090256

>  <SCORE.RESTR>
1.61661

>  <SCORE.RESTR.CAVITY>
1.61661

>  <SCORE.RESTR.norm>
0.0621773

>  <SCORE.SYSTEM>
0

>  <SCORE.SYSTEM.CONST>
0

>  <SCORE.SYSTEM.DIHEDRAL>
0

>  <SCORE.SYSTEM.SOLV>
0

>  <SCORE.SYSTEM.norm>
0

>  <SCORE.heavy>
26

>  <SCORE.norm>
-0.803968

>  <RMSD>
2.359

$$$$
ligand
 OpenBabel11021811433D
libRbt.so/2013.1/901 2013/11/27
 26 27  0  0  0  0  0  0  0  0999 V2000
   17.4575   40.1960   65.2364 C   0  0  0  0  0  0  0  0  0  0  0  0
   25.2187   41.1485   64.7172 C   0  0  0  0  0  0  0  0  0  0  0  0
   29.5278   39.0159   67.4460 P   0  0  1  0  0  0  0  0  0  0  0  0
   28.0535   39.5894   69.4916 P   0  0  1  0  0  0  0  0  0  0  0  0
   22.9247   41.3619   66.3176 C   0  0  0  0  0  0  0  0  0  0  0  0
   21.0473   39.7521   65.8752 C   0  0  0  0  0  0  0  0  0  0  0  0
   21.4773   41.0548   66.0314 C   0  0  0  0  0  0  0  0  0  0  0  0
   20.5370   42.0803   65.9177 C   0  0  0  0  0  0  0  0  0  0  0  0
   20.9182   43.4056   66.0657 N   0  0  0  0  0  0  0  0  0  0  0  0
   19.2705   41.7681   65.6596 N   0  0  0  0  0  0  0  0  0  0  0  0
   18.9026   40.5107   65.5226 C   0  0  0  0  0  0  0  0  0  0  0  0
   19.7660   39.5191   65.6238 N   0  0  0  0  0  0  0  0  0  0  0  0
   30.4726   39.5392   66.4335 O   0  5  0  0  0  0  0  0  0  0  0  0
   28.9626   38.7762   70.4395 O   0  0  0  0  0  0  0  0  0  0  0  0
   24.4911   37.9126   66.8008 S   0  0  0  0  0  0  0  0  0  0  0  0
   23.2900   39.1290   67.1091 C   0  0  0  0  0  0  0  0  0  0  0  0
   30.2941   37.9843   68.4136 O   0  0  0  0  0  0  0  0  0  0  0  0
   27.3219   40.7592   70.3201 O   0  5  0  0  0  0  0  0  0  0  0  0
   23.6932   40.1155   66.3422 N   0  0  0  0  0  0  0  0  0  0  0  0
   28.9451   40.2382   68.3178 O   0  0  0  0  0  0  0  0  0  0  0  0
   26.9898   38.6550   68.8723 O   0  0  0  0  0  0  0  0  0  0  0  0
   24.7692   40.0069   65.5938 C   0  0  2  0  0  0  0  0  0  0  0  0
   25.4709   38.8456   65.6340 C   0  0  2  0  0  0  0  0  0  0  0  0
   26.7242   38.4518   64.8971 C   0  0  0  0  0  0  0  0  0  0  0  0
   27.9413   39.0686   65.5902 C   0  0  0  0  0  0  0  0  0  0  0  0
   28.3133   38.2591   66.7075 O   0  0  0  0  0  0  0  0  0  0  0  0
  1 11  1  0  0  0  0
  3 13  1  6  0  0  0
  3 17  2  0  0  0  0
  3 20  1  0  0  0  0
  3 26  1  0  0  0  0
  4 14  1  1  0  0  0
  4 18  1  0  0  0  0
  4 21  2  0  0  0  0
  4 20  1  0  0  0  0
  5 19  1  0  0  0  0
  5  7  1  0  0  0  0
  6  7  2  0  0  0  0
  6 12  1  0  0  0  0
  7  8  1  0  0  0  0
  8  9  1  0  0  0  0
  8 10  2  0  0  0  0
 10 11  1  0  0  0  0
 11 12  2  0  0  0  0
 15 23  1  0  0  0  0
 15 16  1  0  0  0  0
 16 19  1  0  0  0  0
 19 22  1  0  0  0  0
 22  2  1  1  0  0  0
 22 23  1  0  0  0  0
 23 24  1  6  0  0  0
 24 25  1  0  0  0  0
 25 26  1  0  0  0  0
M  CHG  2  13  -1  18  -1
M  END
>  <CHROM.1>
-174.12243513,-52.56902389,1.81781773,65.32782882,-100.88262454,81.63810025
-176.16439849,-42.51821527,25.24432466,39.72675099,66.96355893,2.95358263
0.27418598,-1.90670995

>  <Name>
ligand

>  <RI>
0

>  <Rbt.Current_Directory>
/home/itssahil/PROJECTS/Mol_Feturizer/New_Systems/rnas/2HOJ

>  <Rbt.Executable>
rbdock ($Id: //depot/dev/client3/rdock/2013.1/src/exe/rbdock.cxx#4 $)

>  <Rbt.Library>
libRbt.so (2013.1, Build901 2013/11/27)

>  <Rbt.Parameter_File>
/export/apps/rDock/src/rDock_2013.1_src/data/scripts/dock_solv.prm

>  <Rbt.Receptor>
prm/pocket_docking_7.prm

>  <SCORE>
-22.9493

>  <SCORE.INTER>
-19.2305

>  <SCORE.INTER.CONST>
1

>  <SCORE.INTER.POLAR>
-2.70263

>  <SCORE.INTER.ROT>
8

>  <SCORE.INTER.SOLV>
23.3462

>  <SCORE.INTER.VDW>
-20.527

>  <SCORE.INTER.norm>
-0.739636

>  <SCORE.INTRA>
-3.71871

>  <SCORE.INTRA.DIHEDRAL>
-4.69685

>  <SCORE.INTRA.DIHEDRAL.0>
11.6398

>  <SCORE.INTRA.POLAR>
0

>  <SCORE.INTRA.POLAR.0>
0

>  <SCORE.INTRA.REPUL>
0

>  <SCORE.INTRA.REPUL.0>
0

>  <SCORE.INTRA.SOLV>
1.02581

>  <SCORE.INTRA.SOLV.lig_0>
-81.722

>  <SCORE.INTRA.VDW>
-1.88319

>  <SCORE.INTRA.VDW.0>
1.12598

>  <SCORE.INTRA.norm>
-0.143027

>  <SCORE.RESTR>
0

>  <SCORE.RESTR.CAVITY>
0

>  <SCORE.RESTR.norm>
0

>  <SCORE.SYSTEM>
0

>  <SCORE.SYSTEM.CONST>
0

>  <SCORE.SYSTEM.DIHEDRAL>
0

>  <SCORE.SYSTEM.SOLV>
0

>  <SCORE.SYSTEM.norm>
0

>  <SCORE.heavy>
26

>  <SCORE.norm>
-0.882664

>  <RMSD>
2.376

$$$$
ligand
 OpenBabel11021811433D
libRbt.so/2013.1/901 2013/11/27
 26 27  0  0  0  0  0  0  0  0999 V2000
   16.1850   39.5633   64.0499 C   0  0  0  0  0  0  0  0  0  0  0  0
   21.9950   38.6336   67.8265 C   0  0  0  0  0  0  0  0  0  0  0  0
   28.3713   37.8406   66.0414 P   0  0  1  0  0  0  0  0  0  0  0  0
   28.8570   38.7784   68.4018 P   0  0  1  0  0  0  0  0  0  0  0  0
   20.7458   41.0440   67.1200 C   0  0  0  0  0  0  0  0  0  0  0  0
   19.1699   39.3292   66.1777 C   0  0  0  0  0  0  0  0  0  0  0  0
   19.5384   40.6535   66.3070 C   0  0  0  0  0  0  0  0  0  0  0  0
   18.7638   41.6218   65.6657 C   0  0  0  0  0  0  0  0  0  0  0  0
   19.0921   42.9657   65.7641 N   0  0  0  0  0  0  0  0  0  0  0  0
   17.7091   41.2360   64.9537 N   0  0  0  0  0  0  0  0  0  0  0  0
   17.3906   39.9612   64.8608 C   0  0  0  0  0  0  0  0  0  0  0  0
   18.1015   39.0223   65.4541 N   0  0  0  0  0  0  0  0  0  0  0  0
   28.4674   38.1051   64.5880 O   0  5  0  0  0  0  0  0  0  0  0  0
   30.1811   38.0047   68.5873 O   0  0  0  0  0  0  0  0  0  0  0  0
   23.8445   40.5373   64.9459 S   0  0  0  0  0  0  0  0  0  0  0  0
   22.4407   41.4179   65.4666 C   0  0  0  0  0  0  0  0  0  0  0  0
   29.4340   36.7049   66.4522 O   0  0  0  0  0  0  0  0  0  0  0  0
   28.8757   40.1034   69.3151 O   0  5  0  0  0  0  0  0  0  0  0  0
   21.9629   40.6417   66.4116 N   0  0  0  0  0  0  0  0  0  0  0  0
   28.6898   39.1936   66.8548 O   0  0  0  0  0  0  0  0  0  0  0  0
   27.6730   37.8794   68.8236 O   0  0  0  0  0  0  0  0  0  0  0  0
   22.5554   39.5137   66.7378 C   0  0  2  0  0  0  0  0  0  0  0  0
   23.6795   39.1556   66.0665 C   0  0  2  0  0  0  0  0  0  0  0  0
   24.5482   37.9354   66.2249 C   0  0  0  0  0  0  0  0  0  0  0  0
   25.9793   38.2659   65.7950 C   0  0  0  0  0  0  0  0  0  0  0  0
   26.8836   37.3390   66.3994 O   0  0  0  0  0  0  0  0  0  0  0  0
  1 11  1  0  0  0  0
  3 13  1  6  0  0  0
  3 17  2  0  0  0  0
  3 20  1  0  0  0  0
  3 26  1  0  0  0  0
  4 14  1  1  0  0  0
  4 18  1  0  0  0  0
  4 21  2  0  0  0  0
  4 20  1  0  0  0  0
  5 19  1  0  0  0  0
  5  7  1  0  0  0  0
  6  7  2  0  0  0  0
  6 12  1  0  0  0  0
  7  8  1  0  0  0  0
  8  9  1  0  0  0  0
  8 10  2  0  0  0  0
 10 11  1  0  0  0  0
 11 12  2  0  0  0  0
 15 23  1  0  0  0  0
 15 16  1  0  0  0  0
 16 19  1  0  0  0  0
 19 22  1  0  0  0  0
 22  2  1  6  0  0  0
 22 23  1  0  0  0  0
 23 24  1  1  0  0  0
 24 25  1  0  0  0  0
 25 26  1  0  0  0  0
M  CHG  2  13  -1  18  -1
M  END
>  <CHROM.1>
-169.01938681,82.56591003,71.40026935,71.45548885,27.35872951,157.92982487
-173.81153994,-49.47368121,24.18281567,39.32585516,66.41092785,3.13448543
-0.28902829,0.87034992

>  <Name>
ligand

>  <RI>
0

>  <Rbt.Current_Directory>
/home/itssahil/PROJECTS/Mol_Feturizer/New_Systems/rnas/2HOJ

>  <Rbt.Executable>
rbdock ($Id: //depot/dev/client3/rdock/2013.1/src/exe/rbdock.cxx#4 $)

>  <Rbt.Library>
libRbt.so (2013.1, Build901 2013/11/27)

>  <Rbt.Parameter_File>
/export/apps/rDock/src/rDock_2013.1_src/data/scripts/dock_solv.prm

>  <Rbt.Receptor>
prm/pocket_docking_3.prm

>  <SCORE>
-27.7825

>  <SCORE.INTER>
-23.3565

>  <SCORE.INTER.CONST>
1

>  <SCORE.INTER.POLAR>
-2.6481

>  <SCORE.INTER.ROT>
8

>  <SCORE.INTER.SOLV>
25.8532

>  <SCORE.INTER.VDW>
-24.2951

>  <SCORE.INTER.norm>
-0.898326

>  <SCORE.INTRA>
-4.73796

>  <SCORE.INTRA.DIHEDRAL>
-4.38809

>  <SCORE.INTRA.DIHEDRAL.0>
11.6398

>  <SCORE.INTRA.POLAR>
0

>  <SCORE.INTRA.POLAR.0>
0

>  <SCORE.INTRA.REPUL>
0

>  <SCORE.INTRA.REPUL.0>
0

>  <SCORE.INTRA.SOLV>
1.31915

>  <SCORE.INTRA.SOLV.lig_0>
-81.722

>  <SCORE.INTRA.VDW>
-3.20349

>  <SCORE.INTRA.VDW.0>
1.12598

>  <SCORE.INTRA.norm>
-0.182229

>  <SCORE.RESTR>
0.31198

>  <SCORE.RESTR.CAVITY>
0.31198

>  <SCORE.RESTR.norm>
0.0119992

>  <SCORE.SYSTEM>
0

>  <SCORE.SYSTEM.CONST>
0

>  <SCORE.SYSTEM.DIHEDRAL>
0

>  <SCORE.SYSTEM.SOLV>
0

>  <SCORE.SYSTEM.norm>
0

>  <SCORE.heavy>
26

>  <SCORE.norm>
-1.06856

>  <RMSD>
2.383

$$$$
ligand
 OpenBabel11021811433D
libRbt.so/2013.1/901 2013/11/27
 26 27  0  0  0  0  0  0  0  0999 V2000
   16.5873   39.9298   64.4552 C   0  0  0  0  0  0  0  0  0  0  0  0
   23.6488   42.2948   65.6521 C   0  0  0  0  0  0  0  0  0  0  0  0
   28.4866   39.8471   66.9980 P   0  0  1  0  0  0  0  0  0  0  0  0
   27.3207   40.2948   69.2623 P   0  0  1  0  0  0  0  0  0  0  0  0
   21.5765   40.9647   66.9960 C   0  0  0  0  0  0  0  0  0  0  0  0
   19.7118   39.4232   66.3188 C   0  0  0  0  0  0  0  0  0  0  0  0
   20.2558   40.6922   66.3230 C   0  0  0  0  0  0  0  0  0  0  0  0
   19.5513   41.7166   65.6883 C   0  0  0  0  0  0  0  0  0  0  0  0
   20.0552   43.0085   65.6639 N   0  0  0  0  0  0  0  0  0  0  0  0
   18.3918   41.4342   65.1017 N   0  0  0  0  0  0  0  0  0  0  0  0
   17.9069   40.2097   65.1258 C   0  0  0  0  0  0  0  0  0  0  0  0
   18.5477   39.2201   65.7165 N   0  0  0  0  0  0  0  0  0  0  0  0
   29.6642   40.1449   66.1517 O   0  5  0  0  0  0  0  0  0  0  0  0
   26.8282   38.8377   69.1183 O   0  0  0  0  0  0  0  0  0  0  0  0
   23.9912   38.3948   65.5297 S   0  0  0  0  0  0  0  0  0  0  0  0
   22.5716   38.8629   66.4145 C   0  0  0  0  0  0  0  0  0  0  0  0
   28.3004   38.2538   67.1181 O   0  0  0  0  0  0  0  0  0  0  0  0
   27.5476   40.6345   70.8190 O   0  5  0  0  0  0  0  0  0  0  0  0
   22.6263   40.1731   66.3508 N   0  0  0  0  0  0  0  0  0  0  0  0
   28.7084   40.4740   68.4648 O   0  0  0  0  0  0  0  0  0  0  0  0
   26.2625   41.2556   68.6748 O   0  0  0  0  0  0  0  0  0  0  0  0
   23.6007   40.7891   65.7176 C   0  0  2  0  0  0  0  0  0  0  0  0
   24.5670   40.0382   65.1302 C   0  0  2  0  0  0  0  0  0  0  0  0
   25.7837   40.4701   64.3543 C   0  0  0  0  0  0  0  0  0  0  0  0
   27.0431   39.9227   65.0298 C   0  0  0  0  0  0  0  0  0  0  0  0
   27.1698   40.4935   66.3337 O   0  0  0  0  0  0  0  0  0  0  0  0
  1 11  1  0  0  0  0
  3 13  1  6  0  0  0
  3 17  2  0  0  0  0
  3 20  1  0  0  0  0
  3 26  1  0  0  0  0
  4 14  1  6  0  0  0
  4 18  1  0  0  0  0
  4 21  2  0  0  0  0
  4 20  1  0  0  0  0
  5 19  1  0  0  0  0
  5  7  1  0  0  0  0
  6  7  2  0  0  0  0
  6 12  1  0  0  0  0
  7  8  1  0  0  0  0
  8  9  1  0  0  0  0
  8 10  2  0  0  0  0
 10 11  1  0  0  0  0
 11 12  2  0  0  0  0
 15 23  1  0  0  0  0
 15 16  1  0  0  0  0
 16 19  1  0  0  0  0
 19 22  1  0  0  0  0
 22  2  1  1  0  0  0
 22 23  1  0  0  0  0
 23 24  1  6  0  0  0
 24 25  1  0  0  0  0
 25 26  1  0  0  0  0
M  CHG  2  13  -1  18  -1
M  END
>  <CHROM.1>
172.32211194,-64.19025823,61.45137626,48.97543714,-58.69195404,-63.58783296
178.51865803,58.83471281,24.27389886,40.19474870,66.64276352,-2.90723226
-0.13222542,1.30413865

>  <Name>
ligand

>  <RI>
0

>  <Rbt.Current_Directory>
/home/itssahil/PROJECTS/Mol_Feturizer/New_Systems/rnas/2HOJ

>  <Rbt.Executable>
rbdock ($Id: //depot/dev/client3/rdock/2013.1/src/exe/rbdock.cxx#4 $)

>  <Rbt.Library>
libRbt.so (2013.1, Build901 2013/11/27)

>  <Rbt.Parameter_File>
/export/apps/rDock/src/rDock_2013.1_src/data/scripts/dock_solv.prm

>  <Rbt.Receptor>
prm/pocket_docking_4.prm

>  <SCORE>
-22.7993

>  <SCORE.INTER>
-16.4531

>  <SCORE.INTER.CONST>
1

>  <SCORE.INTER.POLAR>
-1.03923

>  <SCORE.INTER.ROT>
8

>  <SCORE.INTER.SOLV>
21.7002

>  <SCORE.INTER.VDW>
-23.6713

>  <SCORE.INTER.norm>
-0.63281

>  <SCORE.INTRA>
-6.34627

>  <SCORE.INTRA.DIHEDRAL>
-6.13329

>  <SCORE.INTRA.DIHEDRAL.0>
11.6398

>  <SCORE.INTRA.POLAR>
0

>  <SCORE.INTRA.POLAR.0>
0

>  <SCORE.INTRA.REPUL>
0

>  <SCORE.INTRA.REPUL.0>
0

>  <SCORE.INTRA.SOLV>
1.51706

>  <SCORE.INTRA.SOLV.lig_0>
-81.722

>  <SCORE.INTRA.VDW>
-4.03816

>  <SCORE.INTRA.VDW.0>
1.12598

>  <SCORE.INTRA.norm>
-0.244087

>  <SCORE.RESTR>
0

>  <SCORE.RESTR.CAVITY>
0

>  <SCORE.RESTR.norm>
0

>  <SCORE.SYSTEM>
0

>  <SCORE.SYSTEM.CONST>
0

>  <SCORE.SYSTEM.DIHEDRAL>
0

>  <SCORE.SYSTEM.SOLV>
0

>  <SCORE.SYSTEM.norm>
0

>  <SCORE.heavy>
26

>  <SCORE.norm>
-0.876897

>  <RMSD>
2.389

$$$$
ligand
 OpenBabel11021811433D
libRbt.so/2013.1/901 2013/11/27
 26 27  0  0  0  0  0  0  0  0999 V2000
   16.0134   40.0372   64.0394 C   0  0  0  0  0  0  0  0  0  0  0  0
   23.5277   40.6485   65.8178 C   0  0  0  0  0  0  0  0  0  0  0  0
   26.8169   38.0501   68.6328 P   0  0  1  0  0  0  0  0  0  0  0  0
   27.6185   40.0438   70.0713 P   0  0  1  0  0  0  0  0  0  0  0  0
   20.9495   40.2951   66.8655 C   0  0  0  0  0  0  0  0  0  0  0  0
   18.9409   39.0432   66.0228 C   0  0  0  0  0  0  0  0  0  0  0  0
   19.6431   40.2283   66.1170 C   0  0  0  0  0  0  0  0  0  0  0  0
   19.1121   41.3632   65.5017 C   0  0  0  0  0  0  0  0  0  0  0  0
   19.7790   42.5774   65.5667 N   0  0  0  0  0  0  0  0  0  0  0  0
   17.9593   41.2616   64.8467 N   0  0  0  0  0  0  0  0  0  0  0  0
   17.3198   40.1116   64.7857 C   0  0  0  0  0  0  0  0  0  0  0  0
   17.7946   39.0214   65.3559 N   0  0  0  0  0  0  0  0  0  0  0  0
   28.2155   37.9255   68.1636 O   0  5  0  0  0  0  0  0  0  0  0  0
   27.5514   39.1174   71.3056 O   0  0  0  0  0  0  0  0  0  0  0  0
   22.5459   36.8811   66.2478 S   0  0  0  0  0  0  0  0  0  0  0  0
   21.2514   37.9194   66.7612 C   0  0  0  0  0  0  0  0  0  0  0  0
   26.6053   37.1366   69.9399 O   0  0  0  0  0  0  0  0  0  0  0  0
   29.0811   39.9492   69.4065 O   0  5  0  0  0  0  0  0  0  0  0  0
   21.7548   39.1133   66.5495 N   0  0  0  0  0  0  0  0  0  0  0  0
   26.5086   39.5883   68.9969 O   0  0  0  0  0  0  0  0  0  0  0  0
   27.3445   41.5010   70.5068 O   0  0  0  0  0  0  0  0  0  0  0  0
   22.9641   39.2704   66.0567 C   0  0  2  0  0  0  0  0  0  0  0  0
   23.6968   38.1631   65.7748 C   0  0  2  0  0  0  0  0  0  0  0  0
   25.0905   38.0473   65.2154 C   0  0  0  0  0  0  0  0  0  0  0  0
   26.1108   38.3517   66.3146 C   0  0  0  0  0  0  0  0  0  0  0  0
   25.8144   37.5646   67.4699 O   0  0  0  0  0  0  0  0  0  0  0  0
  1 11  1  0  0  0  0
  3 13  1  6  0  0  0
  3 17  2  0  0  0  0
  3 20  1  0  0  0  0
  3 26  1  0  0  0  0
  4 14  1  1  0  0  0
  4 18  1  0  0  0  0
  4 21  2  0  0  0  0
  4 20  1  0  0  0  0
  5 19  1  0  0  0  0
  5  7  1  0  0  0  0
  6  7  2  0  0  0  0
  6 12  1  0  0  0  0
  7  8  1  0  0  0  0
  8  9  1  0  0  0  0
  8 10  2  0  0  0  0
 10 11  1  0  0  0  0
 11 12  2  0  0  0  0
 15 23  1  0  0  0  0
 15 16  1  0  0  0  0
 16 19  1  0  0  0  0
 19 22  1  0  0  0  0
 22  2  1  1  0  0  0
 22 23  1  0  0  0  0
 23 24  1  6  0  0  0
 24 25  1  0  0  0  0
 25 26  1  0  0  0  0
M  CHG  2  13  -1  18  -1
M  END
>  <CHROM.1>
-55.44511610,-56.38231630,42.28173375,-57.84966922,-103.40982306,50.82794746
-173.86818626,-56.19169641,23.60393343,39.21154681,67.27727264,3.06117847
0.44123120,-2.71875266

>  <Name>
ligand

>  <RI>
0

>  <Rbt.Current_Directory>
/home/itssahil/PROJECTS/Mol_Feturizer/New_Systems/rnas/2HOJ

>  <Rbt.Executable>
rbdock ($Id: //depot/dev/client3/rdock/2013.1/src/exe/rbdock.cxx#4 $)

>  <Rbt.Library>
libRbt.so (2013.1, Build901 2013/11/27)

>  <Rbt.Parameter_File>
/export/apps/rDock/src/rDock_2013.1_src/data/scripts/dock_solv.prm

>  <Rbt.Receptor>
prm/pocket_docking_6.prm

>  <SCORE>
-25.4859

>  <SCORE.INTER>
-21.0417

>  <SCORE.INTER.CONST>
1

>  <SCORE.INTER.POLAR>
-1.29904

>  <SCORE.INTER.ROT>
8

>  <SCORE.INTER.SOLV>
25.1253

>  <SCORE.INTER.VDW>
-27.0061

>  <SCORE.INTER.norm>
-0.809295

>  <SCORE.INTRA>
-4.44421

>  <SCORE.INTRA.DIHEDRAL>
-6.40228

>  <SCORE.INTRA.DIHEDRAL.0>
11.6398

>  <SCORE.INTRA.POLAR>
0

>  <SCORE.INTRA.POLAR.0>
0

>  <SCORE.INTRA.REPUL>
0

>  <SCORE.INTRA.REPUL.0>
0

>  <SCORE.INTRA.SOLV>
1.47737

>  <SCORE.INTRA.SOLV.lig_0>
-81.722

>  <SCORE.INTRA.VDW>
-1.98176

>  <SCORE.INTRA.VDW.0>
1.12598

>  <SCORE.INTRA.norm>
-0.170931

>  <SCORE.RESTR>
0

>  <SCORE.RESTR.CAVITY>
0

>  <SCORE.RESTR.norm>
0

>  <SCORE.SYSTEM>
0

>  <SCORE.SYSTEM.CONST>
0

>  <SCORE.SYSTEM.DIHEDRAL>
0

>  <SCORE.SYSTEM.SOLV>
0

>  <SCORE.SYSTEM.norm>
0

>  <SCORE.heavy>
26

>  <SCORE.norm>
-0.980226

>  <RMSD>
2.395

$$$$
ligand
 OpenBabel11021811433D
libRbt.so/2013.1/901 2013/11/27
 26 27  0  0  0  0  0  0  0  0999 V2000
   16.4008   39.8717   64.1370 C   0  0  0  0  0  0  0  0  0  0  0  0
   23.4048   39.0531   67.7847 C   0  0  0  0  0  0  0  0  0  0  0  0
   27.6747   37.6910   66.9597 P   0  0  1  0  0  0  0  0  0  0  0  0
   28.1911   38.9597   69.1531 P   0  0  1  0  0  0  0  0  0  0  0  0
   21.0112   40.4709   67.4239 C   0  0  0  0  0  0  0  0  0  0  0  0
   19.2987   39.0616   66.2437 C   0  0  0  0  0  0  0  0  0  0  0  0
   19.7908   40.3138   66.5537 C   0  0  0  0  0  0  0  0  0  0  0  0
   19.1290   41.4307   66.0408 C   0  0  0  0  0  0  0  0  0  0  0  0
   19.5838   42.7103   66.3224 N   0  0  0  0  0  0  0  0  0  0  0  0
   18.0587   41.2496   65.2729 N   0  0  0  0  0  0  0  0  0  0  0  0
   17.6202   40.0365   65.0061 C   0  0  0  0  0  0  0  0  0  0  0  0
   18.2226   38.9612   65.4747 N   0  0  0  0  0  0  0  0  0  0  0  0
   28.1940   38.9588   66.3987 O   0  5  0  0  0  0  0  0  0  0  0  0
   28.4989   38.8210   70.6605 O   0  0  0  0  0  0  0  0  0  0  0  0
   23.6408   41.7809   64.9837 S   0  0  0  0  0  0  0  0  0  0  0  0
   22.0563   41.7616   65.6953 C   0  0  0  0  0  0  0  0  0  0  0  0
   28.1697   36.4590   66.0515 O   0  0  0  0  0  0  0  0  0  0  0  0
   29.2943   39.9072   68.4637 O   0  5  0  0  0  0  0  0  0  0  0  0
   22.1669   40.8061   66.5891 N   0  0  0  0  0  0  0  0  0  0  0  0
   28.2237   37.5052   68.4623 O   0  0  0  0  0  0  0  0  0  0  0  0
   26.7895   39.5842   68.9700 O   0  0  0  0  0  0  0  0  0  0  0  0
   23.2932   40.1470   66.7529 C   0  0  2  0  0  0  0  0  0  0  0  0
   24.3515   40.4689   65.9663 C   0  0  2  0  0  0  0  0  0  0  0  0
   25.7398   39.8853   65.9336 C   0  0  0  0  0  0  0  0  0  0  0  0
   25.6533   38.3665   65.7676 C   0  0  0  0  0  0  0  0  0  0  0  0
   26.0651   37.7313   66.9797 O   0  0  0  0  0  0  0  0  0  0  0  0
  1 11  1  0  0  0  0
  3 13  1  6  0  0  0
  3 17  2  0  0  0  0
  3 20  1  0  0  0  0
  3 26  1  0  0  0  0
  4 14  1  1  0  0  0
  4 18  1  0  0  0  0
  4 21  2  0  0  0  0
  4 20  1  0  0  0  0
  5 19  1  0  0  0  0
  5  7  1  0  0  0  0
  6  7  2  0  0  0  0
  6 12  1  0  0  0  0
  7  8  1  0  0  0  0
  8  9  1  0  0  0  0
  8 10  2  0  0  0  0
 10 11  1  0  0  0  0
 11 12  2  0  0  0  0
 15 23  1  0  0  0  0
 15 16  1  0  0  0  0
 16 19  1  0  0  0  0
 19 22  1  0  0  0  0
 22  2  1  6  0  0  0
 22 23  1  0  0  0  0
 23 24  1  1  0  0  0
 24 25  1  0  0  0  0
 25 26  1  0  0  0  0
M  CHG  2  13  -1  18  -1
M  END
>  <CHROM.1>
39.16223727,48.20964251,103.56262717,171.38597186,-126.65958871,-110.27526108
-81.95600385,39.40078618,24.06909475,39.60221453,66.79262139,3.02713481,-0.33139998
0.37231932

>  <Name>
ligand

>  <RI>
0

>  <Rbt.Current_Directory>
/home/itssahil/PROJECTS/Mol_Feturizer/New_Systems/rnas/2HOJ

>  <Rbt.Executable>
rbdock ($Id: //depot/dev/client3/rdock/2013.1/src/exe/rbdock.cxx#4 $)

>  <Rbt.Library>
libRbt.so (2013.1, Build901 2013/11/27)

>  <Rbt.Parameter_File>
/export/apps/rDock/src/rDock_2013.1_src/data/scripts/dock_solv.prm

>  <Rbt.Receptor>
prm/pocket_docking_2.prm

>  <SCORE>
-8.09259

>  <SCORE.INTER>
-14.2242

>  <SCORE.INTER.CONST>
1

>  <SCORE.INTER.POLAR>
-1.28112

>  <SCORE.INTER.ROT>
8

>  <SCORE.INTER.SOLV>
20.0699

>  <SCORE.INTER.VDW>
-20.8357

>  <SCORE.INTER.norm>
-0.547083

>  <SCORE.INTRA>
4.87163

>  <SCORE.INTRA.DIHEDRAL>
1.62832

>  <SCORE.INTRA.DIHEDRAL.0>
11.6398

>  <SCORE.INTRA.POLAR>
0

>  <SCORE.INTRA.POLAR.0>
0

>  <SCORE.INTRA.REPUL>
0

>  <SCORE.INTRA.REPUL.0>
0

>  <SCORE.INTRA.SOLV>
6.93059

>  <SCORE.INTRA.SOLV.lig_0>
-81.722

>  <SCORE.INTRA.VDW>
0.592178

>  <SCORE.INTRA.VDW.0>
1.12598

>  <SCORE.INTRA.norm>
0.18737

>  <SCORE.RESTR>
1.25994

>  <SCORE.RESTR.CAVITY>
1.25994

>  <SCORE.RESTR.norm>
0.0484591

>  <SCORE.SYSTEM>
0

>  <SCORE.SYSTEM.CONST>
0

>  <SCORE.SYSTEM.DIHEDRAL>
0

>  <SCORE.SYSTEM.SOLV>
0

>  <SCORE.SYSTEM.norm>
0

>  <SCORE.heavy>
26

>  <SCORE.norm>
-0.311253

>  <RMSD>
2.404

$$$$
ligand
 OpenBabel11021811433D
libRbt.so/2013.1/901 2013/11/27
 26 27  0  0  0  0  0  0  0  0999 V2000
   16.5713   40.0804   64.3868 C   0  0  0  0  0  0  0  0  0  0  0  0
   23.3104   39.0889   68.3217 C   0  0  0  0  0  0  0  0  0  0  0  0
   28.4836   37.6136   66.3804 P   0  0  1  0  0  0  0  0  0  0  0  0
   28.7090   38.5634   68.7750 P   0  0  1  0  0  0  0  0  0  0  0  0
   21.3384   40.8590   67.4012 C   0  0  0  0  0  0  0  0  0  0  0  0
   19.5266   39.3963   66.4581 C   0  0  0  0  0  0  0  0  0  0  0  0
   20.0766   40.6544   66.6030 C   0  0  0  0  0  0  0  0  0  0  0  0
   19.4340   41.7322   65.9915 C   0  0  0  0  0  0  0  0  0  0  0  0
   19.9464   43.0158   66.1064 N   0  0  0  0  0  0  0  0  0  0  0  0
   18.3255   41.5092   65.2916 N   0  0  0  0  0  0  0  0  0  0  0  0
   17.8323   40.2926   65.1831 C   0  0  0  0  0  0  0  0  0  0  0  0
   18.4153   39.2535   65.7482 N   0  0  0  0  0  0  0  0  0  0  0  0
   29.9634   37.5862   66.4128 O   0  5  0  0  0  0  0  0  0  0  0  0
   28.6409   39.9490   68.0954 O   0  0  0  0  0  0  0  0  0  0  0  0
   24.0996   40.5627   64.7795 S   0  0  0  0  0  0  0  0  0  0  0  0
   22.5957   41.1849   65.3865 C   0  0  0  0  0  0  0  0  0  0  0  0
   27.9427   36.3846   65.4946 O   0  0  0  0  0  0  0  0  0  0  0  0
   28.0410   38.6478   70.2367 O   0  5  0  0  0  0  0  0  0  0  0  0
   22.5020   40.5905   66.5534 N   0  0  0  0  0  0  0  0  0  0  0  0
   27.9121   37.4868   67.8807 O   0  0  0  0  0  0  0  0  0  0  0  0
   30.1858   38.1284   68.9084 O   0  0  0  0  0  0  0  0  0  0  0  0
   23.4317   39.7628   66.9782 C   0  0  2  0  0  0  0  0  0  0  0  0
   24.5001   39.5229   66.1761 C   0  0  2  0  0  0  0  0  0  0  0  0
   25.6931   38.6316   66.4021 C   0  0  0  0  0  0  0  0  0  0  0  0
   26.6679   38.7735   65.2309 C   0  0  0  0  0  0  0  0  0  0  0  0
   27.9857   39.0019   65.7340 O   0  0  0  0  0  0  0  0  0  0  0  0
  1 11  1  0  0  0  0
  3 13  1  1  0  0  0
  3 17  2  0  0  0  0
  3 20  1  0  0  0  0
  3 26  1  0  0  0  0
  4 14  1  6  0  0  0
  4 18  1  0  0  0  0
  4 21  2  0  0  0  0
  4 20  1  0  0  0  0
  5 19  1  0  0  0  0
  5  7  1  0  0  0  0
  6  7  2  0  0  0  0
  6 12  1  0  0  0  0
  7  8  1  0  0  0  0
  8  9  1  0  0  0  0
  8 10  2  0  0  0  0
 10 11  1  0  0  0  0
 11 12  2  0  0  0  0
 15 23  1  0  0  0  0
 15 16  1  0  0  0  0
 16 19  1  0  0  0  0
 19 22  1  0  0  0  0
 22  2  1  6  0  0  0
 22 23  1  0  0  0  0
 23 24  1  1  0  0  0
 24 25  1  0  0  0  0
 25 26  1  0  0  0  0
M  CHG  2  13  -1  18  -1
M  END
>  <CHROM.1>
49.14086631,51.47396431,84.15335926,51.54897457,3.33245135,130.50920462,71.51635059
156.91303562,24.54874002,39.40115049,66.62420118,-3.03220981,-0.30666948
1.29818130

>  <Name>
ligand

>  <RI>
0

>  <Rbt.Current_Directory>
/home/itssahil/PROJECTS/Mol_Feturizer/New_Systems/rnas/2HOJ

>  <Rbt.Executable>
rbdock ($Id: //depot/dev/client3/rdock/2013.1/src/exe/rbdock.cxx#4 $)

>  <Rbt.Library>
libRbt.so (2013.1, Build901 2013/11/27)

>  <Rbt.Parameter_File>
/export/apps/rDock/src/rDock_2013.1_src/data/scripts/dock_solv.prm

>  <Rbt.Receptor>
prm/pocket_docking_3.prm

>  <SCORE>
-18.8873

>  <SCORE.INTER>
-18.3536

>  <SCORE.INTER.CONST>
1

>  <SCORE.INTER.POLAR>
-1.64988

>  <SCORE.INTER.ROT>
8

>  <SCORE.INTER.SOLV>
23.2432

>  <SCORE.INTER.VDW>
-23.4172

>  <SCORE.INTER.norm>
-0.705907

>  <SCORE.INTRA>
-0.553879

>  <SCORE.INTRA.DIHEDRAL>
-0.247455

>  <SCORE.INTRA.DIHEDRAL.0>
11.6398

>  <SCORE.INTRA.POLAR>
0

>  <SCORE.INTRA.POLAR.0>
0

>  <SCORE.INTRA.REPUL>
0

>  <SCORE.INTRA.REPUL.0>
0

>  <SCORE.INTRA.SOLV>
1.7774

>  <SCORE.INTRA.SOLV.lig_0>
-81.722

>  <SCORE.INTRA.VDW>
-1.31885

>  <SCORE.INTRA.VDW.0>
1.12598

>  <SCORE.INTRA.norm>
-0.021303

>  <SCORE.RESTR>
0.0201231

>  <SCORE.RESTR.CAVITY>
0.0201231

>  <SCORE.RESTR.norm>
0.000773965

>  <SCORE.SYSTEM>
0

>  <SCORE.SYSTEM.CONST>
0

>  <SCORE.SYSTEM.DIHEDRAL>
0

>  <SCORE.SYSTEM.SOLV>
0

>  <SCORE.SYSTEM.norm>
0

>  <SCORE.heavy>
26

>  <SCORE.norm>
-0.726436

>  <RMSD>
2.414

$$$$
ligand
 OpenBabel11021811433D
libRbt.so/2013.1/901 2013/11/27
 26 27  0  0  0  0  0  0  0  0999 V2000
   19.7468   43.9964   66.0755 C   0  0  0  0  0  0  0  0  0  0  0  0
   22.4898   38.3019   65.0437 C   0  0  0  0  0  0  0  0  0  0  0  0
   27.4564   39.5654   67.4476 P   0  0  1  0  0  0  0  0  0  0  0  0
   29.9624   38.9971   67.1580 P   0  0  1  0  0  0  0  0  0  0  0  0
   20.6963   38.4946   67.1922 C   0  0  0  0  0  0  0  0  0  0  0  0
   21.2861   40.9291   67.3848 C   0  0  0  0  0  0  0  0  0  0  0  0
   20.4437   39.9505   66.8959 C   0  0  0  0  0  0  0  0  0  0  0  0
   19.3522   40.3439   66.1197 C   0  0  0  0  0  0  0  0  0  0  0  0
   18.4761   39.3997   65.6055 N   0  0  0  0  0  0  0  0  0  0  0  0
   19.1612   41.6388   65.8852 N   0  0  0  0  0  0  0  0  0  0  0  0
   19.9929   42.5392   66.3676 C   0  0  0  0  0  0  0  0  0  0  0  0
   21.0329   42.2005   67.1043 N   0  0  0  0  0  0  0  0  0  0  0  0
   27.3147   38.1571   67.8813 O   0  5  0  0  0  0  0  0  0  0  0  0
   31.2535   39.3355   66.3803 O   0  0  0  0  0  0  0  0  0  0  0  0
   24.2333   37.9761   68.5360 S   0  0  0  0  0  0  0  0  0  0  0  0
   22.5211   38.2043   68.7192 C   0  0  0  0  0  0  0  0  0  0  0  0
   27.7121   40.5000   68.7317 O   0  0  0  0  0  0  0  0  0  0  0  0
   30.0845   39.5432   68.6669 O   0  5  0  0  0  0  0  0  0  0  0  0
   22.1196   38.2926   67.4723 N   0  0  0  0  0  0  0  0  0  0  0  0
   28.7021   39.6917   66.4348 O   0  0  0  0  0  0  0  0  0  0  0  0
   29.7621   37.4649   67.1799 O   0  0  0  0  0  0  0  0  0  0  0  0
   22.9668   38.1999   66.4706 C   0  0  2  0  0  0  0  0  0  0  0  0
   24.2824   38.0177   66.7506 C   0  0  2  0  0  0  0  0  0  0  0  0
   25.4562   37.8838   65.8162 C   0  0  0  0  0  0  0  0  0  0  0  0
   26.0175   39.2712   65.4966 C   0  0  0  0  0  0  0  0  0  0  0  0
   26.1098   40.0358   66.7002 O   0  0  0  0  0  0  0  0  0  0  0  0
  1 11  1  0  0  0  0
  3 13  1  1  0  0  0
  3 17  2  0  0  0  0
  3 20  1  0  0  0  0
  3 26  1  0  0  0  0
  4 14  1  6  0  0  0
  4 18  1  0  0  0  0
  4 21  2  0  0  0  0
  4 20  1  0  0  0  0
  5 19  1  0  0  0  0
  5  7  1  0  0  0  0
  6  7  2  0  0  0  0
  6 12  1  0  0  0  0
  7  8  1  0  0  0  0
  8  9  1  0  0  0  0
  8 10  2  0  0  0  0
 10 11  1  0  0  0  0
 11 12  2  0  0  0  0
 15 23  1  0  0  0  0
 15 16  1  0  0  0  0
 16 19  1  0  0  0  0
 19 22  1  0  0  0  0
 22  2  1  1  0  0  0
 22 23  1  0  0  0  0
 23 24  1  6  0  0  0
 24 25  1  0  0  0  0
 25 26  1  0  0  0  0
M  CHG  2  13  -1  18  -1
M  END
>  <CHROM.1>
-51.39886269,99.79817756,-24.90371337,-168.34332419,-92.04879890,44.73988546
80.36362456,-66.16031917,24.77194763,39.47261395,67.01605635,-2.95396365
0.06689086,3.00468170

>  <Name>
ligand

>  <RI>
0

>  <Rbt.Current_Directory>
/home/itssahil/PROJECTS/Mol_Feturizer/New_Systems/rnas/2HOJ

>  <Rbt.Executable>
rbdock ($Id: //depot/dev/client3/rdock/2013.1/src/exe/rbdock.cxx#4 $)

>  <Rbt.Library>
libRbt.so (2013.1, Build901 2013/11/27)

>  <Rbt.Parameter_File>
/export/apps/rDock/src/rDock_2013.1_src/data/scripts/dock_solv.prm

>  <Rbt.Receptor>
prm/pocket_docking_4.prm

>  <SCORE>
-16.5855

>  <SCORE.INTER>
-14.5744

>  <SCORE.INTER.CONST>
1

>  <SCORE.INTER.POLAR>
-1.2855

>  <SCORE.INTER.ROT>
8

>  <SCORE.INTER.SOLV>
23.9182

>  <SCORE.INTER.VDW>
-22.3374

>  <SCORE.INTER.norm>
-0.560555

>  <SCORE.INTRA>
-2.01102

>  <SCORE.INTRA.DIHEDRAL>
-3.69743

>  <SCORE.INTRA.DIHEDRAL.0>
11.6398

>  <SCORE.INTRA.POLAR>
0

>  <SCORE.INTRA.POLAR.0>
0

>  <SCORE.INTRA.REPUL>
0

>  <SCORE.INTRA.REPUL.0>
0

>  <SCORE.INTRA.SOLV>
5.38582

>  <SCORE.INTRA.SOLV.lig_0>
-81.722

>  <SCORE.INTRA.VDW>
-2.85522

>  <SCORE.INTRA.VDW.0>
1.12598

>  <SCORE.INTRA.norm>
-0.077347

>  <SCORE.RESTR>
0

>  <SCORE.RESTR.CAVITY>
0

>  <SCORE.RESTR.norm>
0

>  <SCORE.SYSTEM>
0

>  <SCORE.SYSTEM.CONST>
0

>  <SCORE.SYSTEM.DIHEDRAL>
0

>  <SCORE.SYSTEM.SOLV>
0

>  <SCORE.SYSTEM.norm>
0

>  <SCORE.heavy>
26

>  <SCORE.norm>
-0.637902

>  <RMSD>
2.414

$$$$
ligand
 OpenBabel11021811433D
libRbt.so/2013.1/901 2013/11/27
 26 27  0  0  0  0  0  0  0  0999 V2000
   17.5919   39.9015   65.2966 C   0  0  0  0  0  0  0  0  0  0  0  0
   25.2817   40.3692   64.8342 C   0  0  0  0  0  0  0  0  0  0  0  0
   29.2871   38.7397   68.1418 P   0  0  1  0  0  0  0  0  0  0  0  0
   27.6795   39.9715   69.7496 P   0  0  1  0  0  0  0  0  0  0  0  0
   23.0592   41.0347   66.4113 C   0  0  0  0  0  0  0  0  0  0  0  0
   21.1978   39.4503   65.8315 C   0  0  0  0  0  0  0  0  0  0  0  0
   21.6118   40.7363   66.1164 C   0  0  0  0  0  0  0  0  0  0  0  0
   20.6554   41.7531   66.1247 C   0  0  0  0  0  0  0  0  0  0  0  0
   21.0201   43.0615   66.4044 N   0  0  0  0  0  0  0  0  0  0  0  0
   19.3893   41.4494   65.8544 N   0  0  0  0  0  0  0  0  0  0  0  0
   19.0370   40.2075   65.5923 C   0  0  0  0  0  0  0  0  0  0  0  0
   19.9159   39.2245   65.5764 N   0  0  0  0  0  0  0  0  0  0  0  0
   30.2405   39.8434   67.8878 O   0  5  0  0  0  0  0  0  0  0  0  0
   26.4052   39.5236   69.0002 O   0  0  0  0  0  0  0  0  0  0  0  0
   24.4851   37.6893   67.5775 S   0  0  0  0  0  0  0  0  0  0  0  0
   23.3520   39.0038   67.6506 C   0  0  0  0  0  0  0  0  0  0  0  0
   30.0140   37.3297   67.8746 O   0  0  0  0  0  0  0  0  0  0  0  0
   27.3210   40.2697   71.2899 O   0  5  0  0  0  0  0  0  0  0  0  0
   23.7711   39.7836   66.6810 N   0  0  0  0  0  0  0  0  0  0  0  0
   28.7868   38.8047   69.6712 O   0  0  0  0  0  0  0  0  0  0  0  0
   28.2376   41.2545   69.0934 O   0  0  0  0  0  0  0  0  0  0  0  0
   24.8133   39.4636   65.9452 C   0  0  2  0  0  0  0  0  0  0  0  0
   25.4629   38.3024   66.2137 C   0  0  2  0  0  0  0  0  0  0  0  0
   26.6696   37.6972   65.5454 C   0  0  0  0  0  0  0  0  0  0  0  0
   27.8209   37.6087   66.5497 C   0  0  0  0  0  0  0  0  0  0  0  0
   28.0206   38.8862   67.1582 O   0  0  0  0  0  0  0  0  0  0  0  0
  1 11  1  0  0  0  0
  3 13  1  6  0  0  0
  3 17  2  0  0  0  0
  3 20  1  0  0  0  0
  3 26  1  0  0  0  0
  4 14  1  6  0  0  0
  4 18  1  0  0  0  0
  4 21  2  0  0  0  0
  4 20  1  0  0  0  0
  5 19  1  0  0  0  0
  5  7  1  0  0  0  0
  6  7  2  0  0  0  0
  6 12  1  0  0  0  0
  7  8  1  0  0  0  0
  8  9  1  0  0  0  0
  8 10  2  0  0  0  0
 10 11  1  0  0  0  0
 11 12  2  0  0  0  0
 15 23  1  0  0  0  0
 15 16  1  0  0  0  0
 16 19  1  0  0  0  0
 19 22  1  0  0  0  0
 22  2  1  1  0  0  0
 22 23  1  0  0  0  0
 23 24  1  6  0  0  0
 24 25  1  0  0  0  0
 25 26  1  0  0  0  0
M  CHG  2  13  -1  18  -1
M  END
>  <CHROM.1>
78.15485093,-57.45103344,-14.61595864,69.73771616,-63.52666005,-51.96040239
-177.19363868,130.58234613,25.15037698,39.54481080,67.33073633,-3.04344845
-0.33586870,0.78109088

>  <Name>
ligand

>  <RI>
0

>  <Rbt.Current_Directory>
/home/itssahil/PROJECTS/Mol_Feturizer/New_Systems/rnas/2HOJ

>  <Rbt.Executable>
rbdock ($Id: //depot/dev/client3/rdock/2013.1/src/exe/rbdock.cxx#4 $)

>  <Rbt.Library>
libRbt.so (2013.1, Build901 2013/11/27)

>  <Rbt.Parameter_File>
/export/apps/rDock/src/rDock_2013.1_src/data/scripts/dock_solv.prm

>  <Rbt.Receptor>
prm/pocket_docking_4.prm

>  <SCORE>
-26.8855

>  <SCORE.INTER>
-22.6081

>  <SCORE.INTER.CONST>
1

>  <SCORE.INTER.POLAR>
-4.23698

>  <SCORE.INTER.ROT>
8

>  <SCORE.INTER.SOLV>
26.7036

>  <SCORE.INTER.VDW>
-18.7833

>  <SCORE.INTER.norm>
-0.869542

>  <SCORE.INTRA>
-4.27746

>  <SCORE.INTRA.DIHEDRAL>
-3.32163

>  <SCORE.INTRA.DIHEDRAL.0>
11.6398

>  <SCORE.INTRA.POLAR>
0

>  <SCORE.INTRA.POLAR.0>
0

>  <SCORE.INTRA.REPUL>
0

>  <SCORE.INTRA.REPUL.0>
0

>  <SCORE.INTRA.SOLV>
-0.730895

>  <SCORE.INTRA.SOLV.lig_0>
-81.722

>  <SCORE.INTRA.VDW>
-2.25119

>  <SCORE.INTRA.VDW.0>
1.12598

>  <SCORE.INTRA.norm>
-0.164518

>  <SCORE.RESTR>
0

>  <SCORE.RESTR.CAVITY>
0

>  <SCORE.RESTR.norm>
0

>  <SCORE.SYSTEM>
0

>  <SCORE.SYSTEM.CONST>
0

>  <SCORE.SYSTEM.DIHEDRAL>
0

>  <SCORE.SYSTEM.SOLV>
0

>  <SCORE.SYSTEM.norm>
0

>  <SCORE.heavy>
26

>  <SCORE.norm>
-1.03406

>  <RMSD>
2.434

$$$$
ligand
 OpenBabel11021811433D
libRbt.so/2013.1/901 2013/11/27
 26 27  0  0  0  0  0  0  0  0999 V2000
   16.7290   39.9141   64.5949 C   0  0  0  0  0  0  0  0  0  0  0  0
   23.7185   43.6610   67.5527 C   0  0  0  0  0  0  0  0  0  0  0  0
   27.8848   39.1985   67.2612 P   0  0  1  0  0  0  0  0  0  0  0  0
   30.4018   38.6055   67.2613 P   0  0  1  0  0  0  0  0  0  0  0  0
   21.2598   42.4779   66.9010 C   0  0  0  0  0  0  0  0  0  0  0  0
   19.1573   42.5081   65.5262 C   0  0  0  0  0  0  0  0  0  0  0  0
   20.0609   41.7980   66.2913 C   0  0  0  0  0  0  0  0  0  0  0  0
   19.8361   40.4340   66.4855 C   0  0  0  0  0  0  0  0  0  0  0  0
   20.7139   39.6764   67.2463 N   0  0  0  0  0  0  0  0  0  0  0  0
   18.7639   39.8725   65.9347 N   0  0  0  0  0  0  0  0  0  0  0  0
   17.9296   40.5869   65.2076 C   0  0  0  0  0  0  0  0  0  0  0  0
   18.1133   41.8770   65.0054 N   0  0  0  0  0  0  0  0  0  0  0  0
   27.8049   37.8189   66.7303 O   0  5  0  0  0  0  0  0  0  0  0  0
   30.1126   37.9784   68.6431 O   0  0  0  0  0  0  0  0  0  0  0  0
   24.0605   40.7120   64.9976 S   0  0  0  0  0  0  0  0  0  0  0  0
   22.3987   40.9557   65.4410 C   0  0  0  0  0  0  0  0  0  0  0  0
   27.6047   39.1817   68.8452 O   0  0  0  0  0  0  0  0  0  0  0  0
   30.2551   37.4813   66.1190 O   0  5  0  0  0  0  0  0  0  0  0  0
   22.4824   41.9586   66.2841 N   0  0  0  0  0  0  0  0  0  0  0  0
   29.3539   39.7962   66.9819 O   0  0  0  0  0  0  0  0  0  0  0  0
   31.8395   39.1717   67.2444 O   0  0  0  0  0  0  0  0  0  0  0  0
   23.6390   42.5086   66.5834 C   0  0  2  0  0  0  0  0  0  0  0  0
   24.7614   42.0102   66.0052 C   0  0  2  0  0  0  0  0  0  0  0  0
   26.1974   42.4357   66.1654 C   0  0  0  0  0  0  0  0  0  0  0  0
   26.9302   41.4377   67.0648 C   0  0  0  0  0  0  0  0  0  0  0  0
   26.7848   40.1202   66.5308 O   0  0  0  0  0  0  0  0  0  0  0  0
  1 11  1  0  0  0  0
  3 13  1  6  0  0  0
  3 17  2  0  0  0  0
  3 20  1  0  0  0  0
  3 26  1  0  0  0  0
  4 14  1  1  0  0  0
  4 18  1  0  0  0  0
  4 21  2  0  0  0  0
  4 20  1  0  0  0  0
  5 19  1  0  0  0  0
  5  7  1  0  0  0  0
  6  7  2  0  0  0  0
  6 12  1  0  0  0  0
  7  8  1  0  0  0  0
  8  9  1  0  0  0  0
  8 10  2  0  0  0  0
 10 11  1  0  0  0  0
 11 12  2  0  0  0  0
 15 23  1  0  0  0  0
 15 16  1  0  0  0  0
 16 19  1  0  0  0  0
 19 22  1  0  0  0  0
 22  2  1  1  0  0  0
 22 23  1  0  0  0  0
 23 24  1  6  0  0  0
 24 25  1  0  0  0  0
 25 26  1  0  0  0  0
M  CHG  2  13  -1  18  -1
M  END
>  <CHROM.1>
-40.35670972,-6.13941593,-113.61466651,-50.58931471,-76.54995189,55.08254456
164.70997979,-178.87231941,24.82882900,40.33367997,66.53720279,2.92847592
-0.16680714,0.06183556

>  <Name>
ligand

>  <RI>
0

>  <Rbt.Current_Directory>
/home/itssahil/PROJECTS/Mol_Feturizer/New_Systems/rnas/2HOJ

>  <Rbt.Executable>
rbdock ($Id: //depot/dev/client3/rdock/2013.1/src/exe/rbdock.cxx#4 $)

>  <Rbt.Library>
libRbt.so (2013.1, Build901 2013/11/27)

>  <Rbt.Parameter_File>
/export/apps/rDock/src/rDock_2013.1_src/data/scripts/dock_solv.prm

>  <Rbt.Receptor>
prm/pocket_docking_4.prm

>  <SCORE>
-22.8921

>  <SCORE.INTER>
-20.2103

>  <SCORE.INTER.CONST>
1

>  <SCORE.INTER.POLAR>
-1.37477

>  <SCORE.INTER.ROT>
8

>  <SCORE.INTER.SOLV>
21.4756

>  <SCORE.INTER.VDW>
-24.9828

>  <SCORE.INTER.norm>
-0.77732

>  <SCORE.INTRA>
-2.68177

>  <SCORE.INTRA.DIHEDRAL>
-4.66225

>  <SCORE.INTRA.DIHEDRAL.0>
11.6398

>  <SCORE.INTRA.POLAR>
0

>  <SCORE.INTRA.POLAR.0>
0

>  <SCORE.INTRA.REPUL>
0

>  <SCORE.INTRA.REPUL.0>
0

>  <SCORE.INTRA.SOLV>
2.26372

>  <SCORE.INTRA.SOLV.lig_0>
-81.722

>  <SCORE.INTRA.VDW>
-1.48251

>  <SCORE.INTRA.VDW.0>
1.12598

>  <SCORE.INTRA.norm>
-0.103145

>  <SCORE.RESTR>
0

>  <SCORE.RESTR.CAVITY>
0

>  <SCORE.RESTR.norm>
0

>  <SCORE.SYSTEM>
0

>  <SCORE.SYSTEM.CONST>
0

>  <SCORE.SYSTEM.DIHEDRAL>
0

>  <SCORE.SYSTEM.SOLV>
0

>  <SCORE.SYSTEM.norm>
0

>  <SCORE.heavy>
26

>  <SCORE.norm>
-0.880465

>  <RMSD>
2.434

$$$$
ligand
 OpenBabel11021811433D
libRbt.so/2013.1/901 2013/11/27
 26 27  0  0  0  0  0  0  0  0999 V2000
   15.9995   38.3957   64.3122 C   0  0  0  0  0  0  0  0  0  0  0  0
   22.4012   43.0515   67.2968 C   0  0  0  0  0  0  0  0  0  0  0  0
   27.2513   38.5716   67.2593 P   0  0  1  0  0  0  0  0  0  0  0  0
   29.7950   38.8273   67.6477 P   0  0  1  0  0  0  0  0  0  0  0  0
   20.1118   41.8425   66.2167 C   0  0  0  0  0  0  0  0  0  0  0  0
   18.0736   41.3842   64.8212 C   0  0  0  0  0  0  0  0  0  0  0  0
   19.0238   40.9291   65.7135 C   0  0  0  0  0  0  0  0  0  0  0  0
   18.9514   39.6010   66.1375 C   0  0  0  0  0  0  0  0  0  0  0  0
   19.8816   39.0955   67.0334 N   0  0  0  0  0  0  0  0  0  0  0  0
   17.9732   38.8287   65.6740 N   0  0  0  0  0  0  0  0  0  0  0  0
   17.0899   39.3029   64.8196 C   0  0  0  0  0  0  0  0  0  0  0  0
   17.1304   40.5523   64.3998 N   0  0  0  0  0  0  0  0  0  0  0  0
   27.6278   38.0188   65.9386 O   0  5  0  0  0  0  0  0  0  0  0  0
   30.8870   39.6431   68.3744 O   0  0  0  0  0  0  0  0  0  0  0  0
   23.1897   39.7767   65.2977 S   0  0  0  0  0  0  0  0  0  0  0  0
   21.4855   40.1129   65.2853 C   0  0  0  0  0  0  0  0  0  0  0  0
   27.1143   37.3735   68.3241 O   0  0  0  0  0  0  0  0  0  0  0  0
   29.6632   37.3763   68.3313 O   0  5  0  0  0  0  0  0  0  0  0  0
   21.4173   41.2190   65.9895 N   0  0  0  0  0  0  0  0  0  0  0  0
   28.3868   39.6015   67.7529 O   0  0  0  0  0  0  0  0  0  0  0  0
   30.1810   38.6623   66.1604 O   0  0  0  0  0  0  0  0  0  0  0  0
   22.4957   41.7803   66.4913 C   0  0  2  0  0  0  0  0  0  0  0  0
   23.6960   41.1848   66.2740 C   0  0  2  0  0  0  0  0  0  0  0  0
   25.0720   41.5980   66.7265 C   0  0  0  0  0  0  0  0  0  0  0  0
   26.0830   40.5130   66.3486 C   0  0  0  0  0  0  0  0  0  0  0  0
   25.8443   39.3452   67.1369 O   0  0  0  0  0  0  0  0  0  0  0  0
  1 11  1  0  0  0  0
  3 13  1  6  0  0  0
  3 17  2  0  0  0  0
  3 20  1  0  0  0  0
  3 26  1  0  0  0  0
  4 14  1  1  0  0  0
  4 18  1  0  0  0  0
  4 21  2  0  0  0  0
  4 20  1  0  0  0  0
  5 19  1  0  0  0  0
  5  7  1  0  0  0  0
  6  7  2  0  0  0  0
  6 12  1  0  0  0  0
  7  8  1  0  0  0  0
  8  9  1  0  0  0  0
  8 10  2  0  0  0  0
 10 11  1  0  0  0  0
 11 12  2  0  0  0  0
 15 23  1  0  0  0  0
 15 16  1  0  0  0  0
 16 19  1  0  0  0  0
 19 22  1  0  0  0  0
 22  2  1  1  0  0  0
 22 23  1  0  0  0  0
 23 24  1  6  0  0  0
 24 25  1  0  0  0  0
 25 26  1  0  0  0  0
M  CHG  2  13  -1  18  -1
M  END
>  <CHROM.1>
-51.94671459,7.81973210,-126.59286645,-168.35945282,-6.15006149,-68.72136147
-152.79505146,-68.83864020,24.01403299,39.70626658,66.47314057,3.02676846
-0.21082546,0.07186164

>  <Name>
ligand

>  <RI>
0

>  <Rbt.Current_Directory>
/home/itssahil/PROJECTS/Mol_Feturizer/New_Systems/rnas/2HOJ

>  <Rbt.Executable>
rbdock ($Id: //depot/dev/client3/rdock/2013.1/src/exe/rbdock.cxx#4 $)

>  <Rbt.Library>
libRbt.so (2013.1, Build901 2013/11/27)

>  <Rbt.Parameter_File>
/export/apps/rDock/src/rDock_2013.1_src/data/scripts/dock_solv.prm

>  <Rbt.Receptor>
prm/pocket_docking_3.prm

>  <SCORE>
-24.8597

>  <SCORE.INTER>
-25.7404

>  <SCORE.INTER.CONST>
1

>  <SCORE.INTER.POLAR>
-2.7577

>  <SCORE.INTER.ROT>
8

>  <SCORE.INTER.SOLV>
20.828

>  <SCORE.INTER.VDW>
-23.844

>  <SCORE.INTER.norm>
-0.990016

>  <SCORE.INTRA>
0.880694

>  <SCORE.INTRA.DIHEDRAL>
-3.26096

>  <SCORE.INTRA.DIHEDRAL.0>
11.6398

>  <SCORE.INTRA.POLAR>
0

>  <SCORE.INTRA.POLAR.0>
0

>  <SCORE.INTRA.REPUL>
0

>  <SCORE.INTRA.REPUL.0>
0

>  <SCORE.INTRA.SOLV>
5.47721

>  <SCORE.INTRA.SOLV.lig_0>
-81.722

>  <SCORE.INTRA.VDW>
-0.227433

>  <SCORE.INTRA.VDW.0>
1.12598

>  <SCORE.INTRA.norm>
0.0338729

>  <SCORE.RESTR>
0

>  <SCORE.RESTR.CAVITY>
0

>  <SCORE.RESTR.norm>
0

>  <SCORE.SYSTEM>
0

>  <SCORE.SYSTEM.CONST>
0

>  <SCORE.SYSTEM.DIHEDRAL>
0

>  <SCORE.SYSTEM.SOLV>
0

>  <SCORE.SYSTEM.norm>
0

>  <SCORE.heavy>
26

>  <SCORE.norm>
-0.956143

>  <RMSD>
2.440

$$$$
ligand
 OpenBabel11021811433D
libRbt.so/2013.1/901 2013/11/27
 26 27  0  0  0  0  0  0  0  0999 V2000
   19.6122   44.5950   66.2089 C   0  0  0  0  0  0  0  0  0  0  0  0
   22.2634   38.6054   65.1366 C   0  0  0  0  0  0  0  0  0  0  0  0
   27.3551   38.5874   67.1851 P   0  0  1  0  0  0  0  0  0  0  0  0
   29.8787   38.7792   67.7159 P   0  0  1  0  0  0  0  0  0  0  0  0
   19.6553   38.9021   66.1260 C   0  0  0  0  0  0  0  0  0  0  0  0
   20.7236   41.1194   66.6297 C   0  0  0  0  0  0  0  0  0  0  0  0
   19.6425   40.4089   66.1474 C   0  0  0  0  0  0  0  0  0  0  0  0
   18.5372   41.1219   65.6797 C   0  0  0  0  0  0  0  0  0  0  0  0
   17.4260   40.4551   65.1857 N   0  0  0  0  0  0  0  0  0  0  0  0
   18.5630   42.4507   65.7202 N   0  0  0  0  0  0  0  0  0  0  0  0
   19.6178   43.0888   66.1844 C   0  0  0  0  0  0  0  0  0  0  0  0
   20.6773   42.4450   66.6337 N   0  0  0  0  0  0  0  0  0  0  0  0
   27.1026   37.5275   68.1873 O   0  5  0  0  0  0  0  0  0  0  0  0
   29.1754   38.7277   69.0903 O   0  0  0  0  0  0  0  0  0  0  0  0
   21.9242   37.5933   68.9053 S   0  0  0  0  0  0  0  0  0  0  0  0
   20.3962   38.1168   68.2662 C   0  0  0  0  0  0  0  0  0  0  0  0
   27.2582   40.0292   67.8919 O   0  0  0  0  0  0  0  0  0  0  0  0
   31.1030   37.7347   67.6986 O   0  5  0  0  0  0  0  0  0  0  0  0
   20.7025   38.4094   67.0235 N   0  0  0  0  0  0  0  0  0  0  0  0
   28.8263   38.3939   66.5593 O   0  0  0  0  0  0  0  0  0  0  0  0
   30.4164   40.2064   67.4667 O   0  0  0  0  0  0  0  0  0  0  0  0
   21.9276   38.2662   66.5670 C   0  0  2  0  0  0  0  0  0  0  0  0
   22.8854   37.8130   67.4154 C   0  0  2  0  0  0  0  0  0  0  0  0
   24.3499   37.5615   67.1685 C   0  0  0  0  0  0  0  0  0  0  0  0
   24.9972   38.8244   66.5957 C   0  0  0  0  0  0  0  0  0  0  0  0
   26.2574   38.4896   66.0110 O   0  0  0  0  0  0  0  0  0  0  0  0
  1 11  1  0  0  0  0
  3 13  1  1  0  0  0
  3 17  2  0  0  0  0
  3 20  1  0  0  0  0
  3 26  1  0  0  0  0
  4 14  1  1  0  0  0
  4 18  1  0  0  0  0
  4 21  2  0  0  0  0
  4 20  1  0  0  0  0
  5 19  1  0  0  0  0
  5  7  1  0  0  0  0
  6  7  2  0  0  0  0
  6 12  1  0  0  0  0
  7  8  1  0  0  0  0
  8  9  1  0  0  0  0
  8 10  2  0  0  0  0
 10 11  1  0  0  0  0
 11 12  2  0  0  0  0
 15 23  1  0  0  0  0
 15 16  1  0  0  0  0
 16 19  1  0  0  0  0
 19 22  1  0  0  0  0
 22  2  1  1  0  0  0
 22 23  1  0  0  0  0
 23 24  1  6  0  0  0
 24 25  1  0  0  0  0
 25 26  1  0  0  0  0
M  CHG  2  13  -1  18  -1
M  END
>  <CHROM.1>
-70.61479146,93.10358556,17.44938024,18.85376386,-126.11785296,-163.54161027
-88.06488119,66.76711520,24.11259196,39.36147889,67.05381856,-2.88363768
0.07116589,2.87205018

>  <Name>
ligand

>  <RI>
0

>  <Rbt.Current_Directory>
/home/itssahil/PROJECTS/Mol_Feturizer/New_Systems/rnas/2HOJ

>  <Rbt.Executable>
rbdock ($Id: //depot/dev/client3/rdock/2013.1/src/exe/rbdock.cxx#4 $)

>  <Rbt.Library>
libRbt.so (2013.1, Build901 2013/11/27)

>  <Rbt.Parameter_File>
/export/apps/rDock/src/rDock_2013.1_src/data/scripts/dock_solv.prm

>  <Rbt.Receptor>
prm/pocket_docking_3.prm

>  <SCORE>
-17.7675

>  <SCORE.INTER>
-18.1842

>  <SCORE.INTER.CONST>
1

>  <SCORE.INTER.POLAR>
-2.9392

>  <SCORE.INTER.ROT>
8

>  <SCORE.INTER.SOLV>
28.0361

>  <SCORE.INTER.VDW>
-20.6042

>  <SCORE.INTER.norm>
-0.699393

>  <SCORE.INTRA>
0.416719

>  <SCORE.INTRA.DIHEDRAL>
-0.752726

>  <SCORE.INTRA.DIHEDRAL.0>
11.6398

>  <SCORE.INTRA.POLAR>
0

>  <SCORE.INTRA.POLAR.0>
0

>  <SCORE.INTRA.REPUL>
0

>  <SCORE.INTRA.REPUL.0>
0

>  <SCORE.INTRA.SOLV>
1.45043

>  <SCORE.INTRA.SOLV.lig_0>
-81.722

>  <SCORE.INTRA.VDW>
0.067866

>  <SCORE.INTRA.VDW.0>
1.12598

>  <SCORE.INTRA.norm>
0.0160276

>  <SCORE.RESTR>
0

>  <SCORE.RESTR.CAVITY>
0

>  <SCORE.RESTR.norm>
0

>  <SCORE.SYSTEM>
0

>  <SCORE.SYSTEM.CONST>
0

>  <SCORE.SYSTEM.DIHEDRAL>
0

>  <SCORE.SYSTEM.SOLV>
0

>  <SCORE.SYSTEM.norm>
0

>  <SCORE.heavy>
26

>  <SCORE.norm>
-0.683365

>  <RMSD>
2.455

$$$$
ligand
 OpenBabel11021811433D
libRbt.so/2013.1/901 2013/11/27
 26 27  0  0  0  0  0  0  0  0999 V2000
   20.4379   44.5434   66.2775 C   0  0  0  0  0  0  0  0  0  0  0  0
   22.8351   38.7151   65.6093 C   0  0  0  0  0  0  0  0  0  0  0  0
   27.9678   39.9330   68.6021 P   0  0  1  0  0  0  0  0  0  0  0  0
   30.0739   38.9038   67.5103 P   0  0  1  0  0  0  0  0  0  0  0  0
   20.2441   38.8668   66.6739 C   0  0  0  0  0  0  0  0  0  0  0  0
   21.3103   41.0877   67.1662 C   0  0  0  0  0  0  0  0  0  0  0  0
   20.2941   40.3693   66.5682 C   0  0  0  0  0  0  0  0  0  0  0  0
   19.3143   41.0700   65.8629 C   0  0  0  0  0  0  0  0  0  0  0  0
   18.2723   40.3949   65.2447 N   0  0  0  0  0  0  0  0  0  0  0  0
   19.3913   42.3959   65.7972 N   0  0  0  0  0  0  0  0  0  0  0  0
   20.3813   43.0414   66.3789 C   0  0  0  0  0  0  0  0  0  0  0  0
   21.3222   42.4092   67.0527 N   0  0  0  0  0  0  0  0  0  0  0  0
   28.3019   39.4545   69.9626 O   0  5  0  0  0  0  0  0  0  0  0  0
   30.1867   38.0847   68.8151 O   0  0  0  0  0  0  0  0  0  0  0  0
   22.6449   37.5945   69.3577 S   0  0  0  0  0  0  0  0  0  0  0  0
   21.0779   38.0630   68.7727 C   0  0  0  0  0  0  0  0  0  0  0  0
   27.0401   41.2431   68.7060 O   0  0  0  0  0  0  0  0  0  0  0  0
   29.2346   38.0675   66.4211 O   0  5  0  0  0  0  0  0  0  0  0  0
   21.3367   38.4004   67.5305 N   0  0  0  0  0  0  0  0  0  0  0  0
   29.3242   40.2965   67.8136 O   0  0  0  0  0  0  0  0  0  0  0  0
   31.4889   39.1911   66.9597 O   0  0  0  0  0  0  0  0  0  0  0  0
   22.5541   38.3251   67.0386 C   0  0  2  0  0  0  0  0  0  0  0  0
   23.5542   37.8953   67.8495 C   0  0  2  0  0  0  0  0  0  0  0  0
   25.0213   37.7176   67.5579 C   0  0  0  0  0  0  0  0  0  0  0  0
   25.8172   38.8360   68.2344 C   0  0  0  0  0  0  0  0  0  0  0  0
   27.1788   38.7778   67.8046 O   0  0  0  0  0  0  0  0  0  0  0  0
  1 11  1  0  0  0  0
  3 13  1  1  0  0  0
  3 17  2  0  0  0  0
  3 20  1  0  0  0  0
  3 26  1  0  0  0  0
  4 14  1  1  0  0  0
  4 18  1  0  0  0  0
  4 21  2  0  0  0  0
  4 20  1  0  0  0  0
  5 19  1  0  0  0  0
  5  7  1  0  0  0  0
  6  7  2  0  0  0  0
  6 12  1  0  0  0  0
  7  8  1  0  0  0  0
  8  9  1  0  0  0  0
  8 10  2  0  0  0  0
 10 11  1  0  0  0  0
 11 12  2  0  0  0  0
 15 23  1  0  0  0  0
 15 16  1  0  0  0  0
 16 19  1  0  0  0  0
 19 22  1  0  0  0  0
 22  2  1  1  0  0  0
 22 23  1  0  0  0  0
 23 24  1  6  0  0  0
 24 25  1  0  0  0  0
 25 26  1  0  0  0  0
M  CHG  2  13  -1  18  -1
M  END
>  <CHROM.1>
70.06856725,101.65568704,3.45181829,-50.98594481,-74.02835673,-171.85982680
-177.47036633,80.78085342,24.68319515,39.62247628,67.53535894,-2.91890528
0.08613140,2.82556491

>  <Name>
ligand

>  <RI>
0

>  <Rbt.Current_Directory>
/home/itssahil/PROJECTS/Mol_Feturizer/New_Systems/rnas/2HOJ

>  <Rbt.Executable>
rbdock ($Id: //depot/dev/client3/rdock/2013.1/src/exe/rbdock.cxx#4 $)

>  <Rbt.Library>
libRbt.so (2013.1, Build901 2013/11/27)

>  <Rbt.Parameter_File>
/export/apps/rDock/src/rDock_2013.1_src/data/scripts/dock_solv.prm

>  <Rbt.Receptor>
prm/pocket_docking_3.prm

>  <SCORE>
-22.3691

>  <SCORE.INTER>
-17.1724

>  <SCORE.INTER.CONST>
1

>  <SCORE.INTER.POLAR>
-2.40579

>  <SCORE.INTER.ROT>
8

>  <SCORE.INTER.SOLV>
27.7278

>  <SCORE.INTER.VDW>
-21.6049

>  <SCORE.INTER.norm>
-0.660476

>  <SCORE.INTRA>
-5.19673

>  <SCORE.INTRA.DIHEDRAL>
-5.32929

>  <SCORE.INTRA.DIHEDRAL.0>
11.6398

>  <SCORE.INTRA.POLAR>
0

>  <SCORE.INTRA.POLAR.0>
0

>  <SCORE.INTRA.REPUL>
0

>  <SCORE.INTRA.REPUL.0>
0

>  <SCORE.INTRA.SOLV>
-0.113639

>  <SCORE.INTRA.SOLV.lig_0>
-81.722

>  <SCORE.INTRA.VDW>
-2.47526

>  <SCORE.INTRA.VDW.0>
1.12598

>  <SCORE.INTRA.norm>
-0.199874

>  <SCORE.RESTR>
0

>  <SCORE.RESTR.CAVITY>
0

>  <SCORE.RESTR.norm>
0

>  <SCORE.SYSTEM>
0

>  <SCORE.SYSTEM.CONST>
0

>  <SCORE.SYSTEM.DIHEDRAL>
0

>  <SCORE.SYSTEM.SOLV>
0

>  <SCORE.SYSTEM.norm>
0

>  <SCORE.heavy>
26

>  <SCORE.norm>
-0.860351

>  <RMSD>
2.467

$$$$
ligand
 OpenBabel11021811433D
libRbt.so/2013.1/901 2013/11/27
 26 27  0  0  0  0  0  0  0  0999 V2000
   19.7478   43.8536   65.9937 C   0  0  0  0  0  0  0  0  0  0  0  0
   22.5794   38.3381   65.0343 C   0  0  0  0  0  0  0  0  0  0  0  0
   28.3250   40.2143   67.1659 P   0  0  1  0  0  0  0  0  0  0  0  0
   30.5408   38.9145   67.4620 P   0  0  1  0  0  0  0  0  0  0  0  0
   20.9231   38.4369   67.2963 C   0  0  0  0  0  0  0  0  0  0  0  0
   21.3859   40.9020   67.4417 C   0  0  0  0  0  0  0  0  0  0  0  0
   20.6108   39.8702   66.9507 C   0  0  0  0  0  0  0  0  0  0  0  0
   19.5306   40.1884   66.1257 C   0  0  0  0  0  0  0  0  0  0  0  0
   18.7212   39.1886   65.6074 N   0  0  0  0  0  0  0  0  0  0  0  0
   19.2854   41.4656   65.8486 N   0  0  0  0  0  0  0  0  0  0  0  0
   20.0538   42.4186   66.3348 C   0  0  0  0  0  0  0  0  0  0  0  0
   21.0813   42.1514   67.1171 N   0  0  0  0  0  0  0  0  0  0  0  0
   27.4778   41.3033   67.7025 O   0  5  0  0  0  0  0  0  0  0  0  0
   31.4959   38.2765   68.4949 O   0  0  0  0  0  0  0  0  0  0  0  0
   24.5556   38.0275   68.4019 S   0  0  0  0  0  0  0  0  0  0  0  0
   22.8519   38.1916   68.6982 C   0  0  0  0  0  0  0  0  0  0  0  0
   28.9782   40.6792   65.7712 O   0  0  0  0  0  0  0  0  0  0  0  0
   29.7399   37.7564   66.6827 O   0  5  0  0  0  0  0  0  0  0  0  0
   22.3677   38.2824   67.4812 N   0  0  0  0  0  0  0  0  0  0  0  0
   29.4943   39.8757   68.2202 O   0  0  0  0  0  0  0  0  0  0  0  0
   31.3601   39.7449   66.4485 O   0  0  0  0  0  0  0  0  0  0  0  0
   23.1510   38.2338   66.4258 C   0  0  2  0  0  0  0  0  0  0  0  0
   24.4875   38.0951   66.6178 C   0  0  2  0  0  0  0  0  0  0  0  0
   25.6024   38.0162   65.6081 C   0  0  0  0  0  0  0  0  0  0  0  0
   26.5677   39.1850   65.8182 C   0  0  0  0  0  0  0  0  0  0  0  0
   27.4244   38.9010   66.9261 O   0  0  0  0  0  0  0  0  0  0  0  0
  1 11  1  0  0  0  0
  3 13  1  1  0  0  0
  3 17  2  0  0  0  0
  3 20  1  0  0  0  0
  3 26  1  0  0  0  0
  4 14  1  1  0  0  0
  4 18  1  0  0  0  0
  4 21  2  0  0  0  0
  4 20  1  0  0  0  0
  5 19  1  0  0  0  0
  5  7  1  0  0  0  0
  6  7  2  0  0  0  0
  6 12  1  0  0  0  0
  7  8  1  0  0  0  0
  8  9  1  0  0  0  0
  8 10  2  0  0  0  0
 10 11  1  0  0  0  0
 11 12  2  0  0  0  0
 15 23  1  0  0  0  0
 15 16  1  0  0  0  0
 16 19  1  0  0  0  0
 19 22  1  0  0  0  0
 22  2  1  1  0  0  0
 22 23  1  0  0  0  0
 23 24  1  6  0  0  0
 24 25  1  0  0  0  0
 25 26  1  0  0  0  0
M  CHG  2  13  -1  18  -1
M  END
>  <CHROM.1>
-168.71693582,103.48152627,-31.38248953,-166.38051214,-61.45648209,78.50563143
-175.42074758,70.27800761,25.18801691,39.56043988,66.94161325,-2.99704761
0.05878017,2.97911358

>  <Name>
ligand

>  <RI>
0

>  <Rbt.Current_Directory>
/home/itssahil/PROJECTS/Mol_Feturizer/New_Systems/rnas/2HOJ

>  <Rbt.Executable>
rbdock ($Id: //depot/dev/client3/rdock/2013.1/src/exe/rbdock.cxx#4 $)

>  <Rbt.Library>
libRbt.so (2013.1, Build901 2013/11/27)

>  <Rbt.Parameter_File>
/export/apps/rDock/src/rDock_2013.1_src/data/scripts/dock_solv.prm

>  <Rbt.Receptor>
prm/pocket_docking_4.prm

>  <SCORE>
-24.5668

>  <SCORE.INTER>
-20.45

>  <SCORE.INTER.CONST>
1

>  <SCORE.INTER.POLAR>
-2.33892

>  <SCORE.INTER.ROT>
8

>  <SCORE.INTER.SOLV>
26.9389

>  <SCORE.INTER.VDW>
-23.7499

>  <SCORE.INTER.norm>
-0.786539

>  <SCORE.INTRA>
-4.11679

>  <SCORE.INTRA.DIHEDRAL>
-4.50722

>  <SCORE.INTRA.DIHEDRAL.0>
11.6398

>  <SCORE.INTRA.POLAR>
0

>  <SCORE.INTRA.POLAR.0>
0

>  <SCORE.INTRA.REPUL>
0

>  <SCORE.INTRA.REPUL.0>
0

>  <SCORE.INTRA.SOLV>
3.72314

>  <SCORE.INTRA.SOLV.lig_0>
-81.722

>  <SCORE.INTRA.VDW>
-3.72475

>  <SCORE.INTRA.VDW.0>
1.12598

>  <SCORE.INTRA.norm>
-0.158338

>  <SCORE.RESTR>
0

>  <SCORE.RESTR.CAVITY>
0

>  <SCORE.RESTR.norm>
0

>  <SCORE.SYSTEM>
0

>  <SCORE.SYSTEM.CONST>
0

>  <SCORE.SYSTEM.DIHEDRAL>
0

>  <SCORE.SYSTEM.SOLV>
0

>  <SCORE.SYSTEM.norm>
0

>  <SCORE.heavy>
26

>  <SCORE.norm>
-0.944877

>  <RMSD>
2.467

$$$$
ligand
 OpenBabel11021811433D
libRbt.so/2013.1/901 2013/11/27
 26 27  0  0  0  0  0  0  0  0999 V2000
   15.4773   38.6203   63.8838 C   0  0  0  0  0  0  0  0  0  0  0  0
   22.2161   42.3265   67.4252 C   0  0  0  0  0  0  0  0  0  0  0  0
   27.7508   38.2937   66.4499 P   0  0  1  0  0  0  0  0  0  0  0  0
   30.0770   39.1279   67.2115 P   0  0  1  0  0  0  0  0  0  0  0  0
   19.8504   41.4180   66.2221 C   0  0  0  0  0  0  0  0  0  0  0  0
   17.8889   41.2805   64.6583 C   0  0  0  0  0  0  0  0  0  0  0  0
   18.6932   40.6763   65.6041 C   0  0  0  0  0  0  0  0  0  0  0  0
   18.4074   39.3607   65.9731 C   0  0  0  0  0  0  0  0  0  0  0  0
   19.1847   38.7093   66.9191 N   0  0  0  0  0  0  0  0  0  0  0  0
   17.3744   38.7426   65.4081 N   0  0  0  0  0  0  0  0  0  0  0  0
   16.6357   39.3554   64.5060 C   0  0  0  0  0  0  0  0  0  0  0  0
   16.8790   40.5975   64.1359 N   0  0  0  0  0  0  0  0  0  0  0  0
   27.0181   37.5927   65.3713 O   0  5  0  0  0  0  0  0  0  0  0  0
   29.2804   40.1349   68.0702 O   0  0  0  0  0  0  0  0  0  0  0  0
   22.6905   38.9921   65.4255 S   0  0  0  0  0  0  0  0  0  0  0  0
   21.0436   39.5373   65.3359 C   0  0  0  0  0  0  0  0  0  0  0  0
   27.9082   37.3148   67.7167 O   0  0  0  0  0  0  0  0  0  0  0  0
   30.3939   37.8115   68.0815 O   0  5  0  0  0  0  0  0  0  0  0  0
   21.0784   40.6387   66.0497 N   0  0  0  0  0  0  0  0  0  0  0  0
   29.2092   38.7212   65.9171 O   0  0  0  0  0  0  0  0  0  0  0  0
   31.4042   39.7764   66.7574 O   0  0  0  0  0  0  0  0  0  0  0  0
   22.1920   41.0586   66.6094 C   0  0  2  0  0  0  0  0  0  0  0  0
   23.3186   40.3201   66.4423 C   0  0  2  0  0  0  0  0  0  0  0  0
   24.7113   40.5564   66.9651 C   0  0  0  0  0  0  0  0  0  0  0  0
   25.5456   39.2850   66.7935 C   0  0  0  0  0  0  0  0  0  0  0  0
   26.9339   39.6108   66.8868 O   0  0  0  0  0  0  0  0  0  0  0  0
  1 11  1  0  0  0  0
  3 13  1  6  0  0  0
  3 17  2  0  0  0  0
  3 20  1  0  0  0  0
  3 26  1  0  0  0  0
  4 14  1  1  0  0  0
  4 18  1  0  0  0  0
  4 21  2  0  0  0  0
  4 20  1  0  0  0  0
  5 19  1  0  0  0  0
  5  7  1  0  0  0  0
  6  7  2  0  0  0  0
  6 12  1  0  0  0  0
  7  8  1  0  0  0  0
  8  9  1  0  0  0  0
  8 10  2  0  0  0  0
 10 11  1  0  0  0  0
 11 12  2  0  0  0  0
 15 23  1  0  0  0  0
 15 16  1  0  0  0  0
 16 19  1  0  0  0  0
 19 22  1  0  0  0  0
 22  2  1  1  0  0  0
 22 23  1  0  0  0  0
 23 24  1  6  0  0  0
 24 25  1  0  0  0  0
 25 26  1  0  0  0  0
M  CHG  2  13  -1  18  -1
M  END
>  <CHROM.1>
-165.91429620,5.43392964,-125.45768901,-50.48121596,-13.80739851,162.03568749
-170.50095208,35.71922888,23.92394032,39.46403674,66.24850214,3.11046840
-0.18645908,0.35082209

>  <Name>
ligand

>  <RI>
0

>  <Rbt.Current_Directory>
/home/itssahil/PROJECTS/Mol_Feturizer/New_Systems/rnas/2HOJ

>  <Rbt.Executable>
rbdock ($Id: //depot/dev/client3/rdock/2013.1/src/exe/rbdock.cxx#4 $)

>  <Rbt.Library>
libRbt.so (2013.1, Build901 2013/11/27)

>  <Rbt.Parameter_File>
/export/apps/rDock/src/rDock_2013.1_src/data/scripts/dock_solv.prm

>  <Rbt.Receptor>
prm/pocket_docking_2.prm

>  <SCORE>
-22.5702

>  <SCORE.INTER>
-23.4116

>  <SCORE.INTER.CONST>
1

>  <SCORE.INTER.POLAR>
-2.68702

>  <SCORE.INTER.ROT>
8

>  <SCORE.INTER.SOLV>
27.3005

>  <SCORE.INTER.VDW>
-24.6845

>  <SCORE.INTER.norm>
-0.900445

>  <SCORE.INTRA>
-0.188071

>  <SCORE.INTRA.DIHEDRAL>
-4.135

>  <SCORE.INTRA.DIHEDRAL.0>
11.6398

>  <SCORE.INTRA.POLAR>
0

>  <SCORE.INTRA.POLAR.0>
0

>  <SCORE.INTRA.REPUL>
0

>  <SCORE.INTRA.REPUL.0>
0

>  <SCORE.INTRA.SOLV>
2.37104

>  <SCORE.INTRA.SOLV.lig_0>
-81.722

>  <SCORE.INTRA.VDW>
0.693909

>  <SCORE.INTRA.VDW.0>
1.12598

>  <SCORE.INTRA.norm>
-0.00723348

>  <SCORE.RESTR>
1.0294

>  <SCORE.RESTR.CAVITY>
1.0294

>  <SCORE.RESTR.norm>
0.0395925

>  <SCORE.SYSTEM>
0

>  <SCORE.SYSTEM.CONST>
0

>  <SCORE.SYSTEM.DIHEDRAL>
0

>  <SCORE.SYSTEM.SOLV>
0

>  <SCORE.SYSTEM.norm>
0

>  <SCORE.heavy>
26

>  <SCORE.norm>
-0.868086

>  <RMSD>
2.506

$$$$
ligand
 OpenBabel11021811433D
libRbt.so/2013.1/901 2013/11/27
 26 27  0  0  0  0  0  0  0  0999 V2000
   16.7833   38.8001   64.7028 C   0  0  0  0  0  0  0  0  0  0  0  0
   23.0662   43.5101   65.4186 C   0  0  0  0  0  0  0  0  0  0  0  0
   26.9278   39.2224   68.8353 P   0  0  1  0  0  0  0  0  0  0  0  0
   27.8694   38.0332   66.7411 P   0  0  1  0  0  0  0  0  0  0  0  0
   20.4634   42.8632   66.2411 C   0  0  0  0  0  0  0  0  0  0  0  0
   18.1377   42.0500   65.7495 C   0  0  0  0  0  0  0  0  0  0  0  0
   19.4904   41.7868   65.8338 C   0  0  0  0  0  0  0  0  0  0  0  0
   19.9341   40.4981   65.5319 C   0  0  0  0  0  0  0  0  0  0  0  0
   21.2828   40.1826   65.6020 N   0  0  0  0  0  0  0  0  0  0  0  0
   19.0433   39.5751   65.1815 N   0  0  0  0  0  0  0  0  0  0  0  0
   17.7618   39.8710   65.1092 C   0  0  0  0  0  0  0  0  0  0  0  0
   17.3105   41.0783   65.3882 N   0  0  0  0  0  0  0  0  0  0  0  0
   26.4638   37.8576   69.1725 O   0  5  0  0  0  0  0  0  0  0  0  0
   27.9430   36.6181   67.3562 O   0  0  0  0  0  0  0  0  0  0  0  0
   22.9826   40.9905   68.4164 S   0  0  0  0  0  0  0  0  0  0  0  0
   21.3728   41.4250   67.9295 C   0  0  0  0  0  0  0  0  0  0  0  0
   27.3251   40.0035   70.1844 O   0  0  0  0  0  0  0  0  0  0  0  0
   26.3871   38.2958   66.1718 O   0  5  0  0  0  0  0  0  0  0  0  0
   21.5991   42.2568   66.9391 N   0  0  0  0  0  0  0  0  0  0  0  0
   28.2138   39.1284   67.8705 O   0  0  0  0  0  0  0  0  0  0  0  0
   28.8912   38.1459   65.5873 O   0  0  0  0  0  0  0  0  0  0  0  0
   22.8226   42.5538   66.5588 C   0  0  2  0  0  0  0  0  0  0  0  0
   23.8621   41.9856   67.2213 C   0  0  2  0  0  0  0  0  0  0  0  0
   25.3443   42.1460   67.0063 C   0  0  0  0  0  0  0  0  0  0  0  0
   26.1051   41.4033   68.1070 C   0  0  0  0  0  0  0  0  0  0  0  0
   25.7498   40.0194   68.0801 O   0  0  0  0  0  0  0  0  0  0  0  0
  1 11  1  0  0  0  0
  3 13  1  1  0  0  0
  3 17  2  0  0  0  0
  3 20  1  0  0  0  0
  3 26  1  0  0  0  0
  4 14  1  1  0  0  0
  4 18  1  0  0  0  0
  4 21  2  0  0  0  0
  4 20  1  0  0  0  0
  5 19  1  0  0  0  0
  5  7  1  0  0  0  0
  6  7  2  0  0  0  0
  6 12  1  0  0  0  0
  7  8  1  0  0  0  0
  8  9  1  0  0  0  0
  8 10  2  0  0  0  0
 10 11  1  0  0  0  0
 11 12  2  0  0  0  0
 15 23  1  0  0  0  0
 15 16  1  0  0  0  0
 16 19  1  0  0  0  0
 19 22  1  0  0  0  0
 22  2  1  1  0  0  0
 22 23  1  0  0  0  0
 23 24  1  6  0  0  0
 24 25  1  0  0  0  0
 25 26  1  0  0  0  0
M  CHG  2  13  -1  18  -1
M  END
>  <CHROM.1>
45.70193796,-50.53739904,149.41607030,-74.35491590,-5.96324980,59.08667866
159.39559779,164.58744059,23.73993047,40.18650196,66.99600275,2.99127944
-0.31956353,0.38463480

>  <Name>
ligand

>  <RI>
0

>  <Rbt.Current_Directory>
/home/itssahil/PROJECTS/Mol_Feturizer/New_Systems/rnas/2HOJ

>  <Rbt.Executable>
rbdock ($Id: //depot/dev/client3/rdock/2013.1/src/exe/rbdock.cxx#4 $)

>  <Rbt.Library>
libRbt.so (2013.1, Build901 2013/11/27)

>  <Rbt.Parameter_File>
/export/apps/rDock/src/rDock_2013.1_src/data/scripts/dock_solv.prm

>  <Rbt.Receptor>
prm/pocket_docking_7.prm

>  <SCORE>
-19.0785

>  <SCORE.INTER>
-18.1187

>  <SCORE.INTER.CONST>
1

>  <SCORE.INTER.POLAR>
0

>  <SCORE.INTER.ROT>
8

>  <SCORE.INTER.SOLV>
13.3167

>  <SCORE.INTER.VDW>
-25.4514

>  <SCORE.INTER.norm>
-0.696874

>  <SCORE.INTRA>
-0.959806

>  <SCORE.INTRA.DIHEDRAL>
-4.15132

>  <SCORE.INTRA.DIHEDRAL.0>
11.6398

>  <SCORE.INTRA.POLAR>
0

>  <SCORE.INTRA.POLAR.0>
0

>  <SCORE.INTRA.REPUL>
0

>  <SCORE.INTRA.REPUL.0>
0

>  <SCORE.INTRA.SOLV>
5.63143

>  <SCORE.INTRA.SOLV.lig_0>
-81.722

>  <SCORE.INTRA.VDW>
-1.69986

>  <SCORE.INTRA.VDW.0>
1.12598

>  <SCORE.INTRA.norm>
-0.0369156

>  <SCORE.RESTR>
0

>  <SCORE.RESTR.CAVITY>
0

>  <SCORE.RESTR.norm>
0

>  <SCORE.SYSTEM>
0

>  <SCORE.SYSTEM.CONST>
0

>  <SCORE.SYSTEM.DIHEDRAL>
0

>  <SCORE.SYSTEM.SOLV>
0

>  <SCORE.SYSTEM.norm>
0

>  <SCORE.heavy>
26

>  <SCORE.norm>
-0.733789

>  <RMSD>
2.512

$$$$
ligand
 OpenBabel11021811433D
libRbt.so/2013.1/901 2013/11/27
 26 27  0  0  0  0  0  0  0  0999 V2000
   19.4166   43.9786   66.1538 C   0  0  0  0  0  0  0  0  0  0  0  0
   23.7507   38.2721   65.7291 C   0  0  0  0  0  0  0  0  0  0  0  0
   27.7746   39.9012   68.6070 P   0  0  1  0  0  0  0  0  0  0  0  0
   30.0196   38.8717   67.8409 P   0  0  1  0  0  0  0  0  0  0  0  0
   20.9574   38.5201   65.6547 C   0  0  0  0  0  0  0  0  0  0  0  0
   21.4891   40.9493   66.0126 C   0  0  0  0  0  0  0  0  0  0  0  0
   20.5481   39.9645   65.7867 C   0  0  0  0  0  0  0  0  0  0  0  0
   19.2078   40.3408   65.6833 C   0  0  0  0  0  0  0  0  0  0  0  0
   18.2241   39.3896   65.4573 N   0  0  0  0  0  0  0  0  0  0  0  0
   18.8871   41.6250   65.8106 N   0  0  0  0  0  0  0  0  0  0  0  0
   19.8181   42.5327   66.0209 C   0  0  0  0  0  0  0  0  0  0  0  0
   21.0926   42.2101   66.1238 N   0  0  0  0  0  0  0  0  0  0  0  0
   27.1391   40.9050   69.4903 O   0  5  0  0  0  0  0  0  0  0  0  0
   31.3199   38.2347   68.3791 O   0  0  0  0  0  0  0  0  0  0  0  0
   22.0335   37.3412   69.1243 S   0  0  0  0  0  0  0  0  0  0  0  0
   20.8503   37.8068   67.9408 C   0  0  0  0  0  0  0  0  0  0  0  0
   27.6584   40.3821   67.0764 O   0  0  0  0  0  0  0  0  0  0  0  0
   29.0097   37.7125   67.3650 O   0  5  0  0  0  0  0  0  0  0  0  0
   21.5974   38.0781   66.8957 N   0  0  0  0  0  0  0  0  0  0  0  0
   29.3274   39.7442   69.0043 O   0  0  0  0  0  0  0  0  0  0  0  0
   30.3539   39.7873   66.6417 O   0  0  0  0  0  0  0  0  0  0  0  0
   22.9064   37.9580   66.9384 C   0  0  2  0  0  0  0  0  0  0  0  0
   23.4814   37.5518   68.0989 C   0  0  2  0  0  0  0  0  0  0  0  0
   24.9350   37.3351   68.4292 C   0  0  0  0  0  0  0  0  0  0  0  0
   25.6833   38.6674   68.3468 C   0  0  0  0  0  0  0  0  0  0  0  0
   27.0317   38.4834   68.7828 O   0  0  0  0  0  0  0  0  0  0  0  0
  1 11  1  0  0  0  0
  3 13  1  1  0  0  0
  3 17  2  0  0  0  0
  3 20  1  0  0  0  0
  3 26  1  0  0  0  0
  4 14  1  1  0  0  0
  4 18  1  0  0  0  0
  4 21  2  0  0  0  0
  4 20  1  0  0  0  0
  5 19  1  0  0  0  0
  5  7  1  0  0  0  0
  6  7  2  0  0  0  0
  6 12  1  0  0  0  0
  7  8  1  0  0  0  0
  8  9  1  0  0  0  0
  8 10  2  0  0  0  0
 10 11  1  0  0  0  0
 11 12  2  0  0  0  0
 15 23  1  0  0  0  0
 15 16  1  0  0  0  0
 16 19  1  0  0  0  0
 19 22  1  0  0  0  0
 22  2  1  1  0  0  0
 22 23  1  0  0  0  0
 23 24  1  6  0  0  0
 24 25  1  0  0  0  0
 25 26  1  0  0  0  0
M  CHG  2  13  -1  18  -1
M  END
>  <CHROM.1>
-169.15129065,76.71426853,60.99865510,-158.78662604,-115.83856147,174.54533075
177.47788328,63.21573490,24.57297806,39.38127272,67.41539914,-2.95045543
0.14366732,2.81712166

>  <Name>
ligand

>  <RI>
0

>  <Rbt.Current_Directory>
/home/itssahil/PROJECTS/Mol_Feturizer/New_Systems/rnas/2HOJ

>  <Rbt.Executable>
rbdock ($Id: //depot/dev/client3/rdock/2013.1/src/exe/rbdock.cxx#4 $)

>  <Rbt.Library>
libRbt.so (2013.1, Build901 2013/11/27)

>  <Rbt.Parameter_File>
/export/apps/rDock/src/rDock_2013.1_src/data/scripts/dock_solv.prm

>  <Rbt.Receptor>
prm/pocket_docking_4.prm

>  <SCORE>
-26.7066

>  <SCORE.INTER>
-22.108

>  <SCORE.INTER.CONST>
1

>  <SCORE.INTER.POLAR>
-2.3403

>  <SCORE.INTER.ROT>
8

>  <SCORE.INTER.SOLV>
25.2188

>  <SCORE.INTER.VDW>
-24.2772

>  <SCORE.INTER.norm>
-0.850306

>  <SCORE.INTRA>
-4.59868

>  <SCORE.INTRA.DIHEDRAL>
-6.0463

>  <SCORE.INTRA.DIHEDRAL.0>
11.6398

>  <SCORE.INTRA.POLAR>
0

>  <SCORE.INTRA.POLAR.0>
0

>  <SCORE.INTRA.REPUL>
0

>  <SCORE.INTRA.REPUL.0>
0

>  <SCORE.INTRA.SOLV>
3.05855

>  <SCORE.INTRA.SOLV.lig_0>
-81.722

>  <SCORE.INTRA.VDW>
-3.1048

>  <SCORE.INTRA.VDW.0>
1.12598

>  <SCORE.INTRA.norm>
-0.176872

>  <SCORE.RESTR>
0

>  <SCORE.RESTR.CAVITY>
0

>  <SCORE.RESTR.norm>
0

>  <SCORE.SYSTEM>
0

>  <SCORE.SYSTEM.CONST>
0

>  <SCORE.SYSTEM.DIHEDRAL>
0

>  <SCORE.SYSTEM.SOLV>
0

>  <SCORE.SYSTEM.norm>
0

>  <SCORE.heavy>
26

>  <SCORE.norm>
-1.02718

>  <RMSD>
2.516

$$$$
ligand
 OpenBabel11021811433D
libRbt.so/2013.1/901 2013/11/27
 26 27  0  0  0  0  0  0  0  0999 V2000
   19.7566   43.9391   66.0340 C   0  0  0  0  0  0  0  0  0  0  0  0
   22.4996   38.4194   65.0055 C   0  0  0  0  0  0  0  0  0  0  0  0
   28.0747   40.2974   67.3200 P   0  0  1  0  0  0  0  0  0  0  0  0
   30.2642   38.9496   67.5964 P   0  0  1  0  0  0  0  0  0  0  0  0
   20.8120   38.4769   67.2457 C   0  0  0  0  0  0  0  0  0  0  0  0
   21.3624   40.9242   67.3845 C   0  0  0  0  0  0  0  0  0  0  0  0
   20.5314   39.9223   66.9243 C   0  0  0  0  0  0  0  0  0  0  0  0
   19.4247   40.2821   66.1532 C   0  0  0  0  0  0  0  0  0  0  0  0
   18.5591   39.3134   65.6675 N   0  0  0  0  0  0  0  0  0  0  0  0
   19.2091   41.5687   65.8960 N   0  0  0  0  0  0  0  0  0  0  0  0
   20.0307   42.4922   66.3513 C   0  0  0  0  0  0  0  0  0  0  0  0
   21.0844   42.1855   67.0824 N   0  0  0  0  0  0  0  0  0  0  0  0
   27.2096   41.3533   67.8930 O   0  5  0  0  0  0  0  0  0  0  0  0
   29.4497   37.8244   66.9205 O   0  0  0  0  0  0  0  0  0  0  0  0
   24.4203   37.9693   68.3894 S   0  0  0  0  0  0  0  0  0  0  0  0
   22.7154   38.1540   68.6665 C   0  0  0  0  0  0  0  0  0  0  0  0
   28.7031   40.8124   65.9316 O   0  0  0  0  0  0  0  0  0  0  0  0
   31.0961   39.7567   66.4798 O   0  5  0  0  0  0  0  0  0  0  0  0
   22.2508   38.2912   67.4462 N   0  0  0  0  0  0  0  0  0  0  0  0
   29.2619   39.9575   68.3536 O   0  0  0  0  0  0  0  0  0  0  0  0
   31.2426   38.3319   68.6206 O   0  0  0  0  0  0  0  0  0  0  0  0
   23.0487   38.2618   66.4010 C   0  0  2  0  0  0  0  0  0  0  0  0
   24.3797   38.0937   66.6076 C   0  0  2  0  0  0  0  0  0  0  0  0
   25.5078   38.0267   65.6118 C   0  0  0  0  0  0  0  0  0  0  0  0
   26.4693   39.1938   65.8474 C   0  0  0  0  0  0  0  0  0  0  0  0
   27.2004   38.9713   67.0549 O   0  0  0  0  0  0  0  0  0  0  0  0
  1 11  1  0  0  0  0
  3 13  1  1  0  0  0
  3 17  2  0  0  0  0
  3 20  1  0  0  0  0
  3 26  1  0  0  0  0
  4 14  1  6  0  0  0
  4 18  1  0  0  0  0
  4 21  2  0  0  0  0
  4 20  1  0  0  0  0
  5 19  1  0  0  0  0
  5  7  1  0  0  0  0
  6  7  2  0  0  0  0
  6 12  1  0  0  0  0
  7  8  1  0  0  0  0
  8  9  1  0  0  0  0
  8 10  2  0  0  0  0
 10 11  1  0  0  0  0
 11 12  2  0  0  0  0
 15 23  1  0  0  0  0
 15 16  1  0  0  0  0
 16 19  1  0  0  0  0
 19 22  1  0  0  0  0
 22  2  1  1  0  0  0
 22 23  1  0  0  0  0
 23 24  1  6  0  0  0
 24 25  1  0  0  0  0
 25 26  1  0  0  0  0
M  CHG  2  13  -1  18  -1
M  END
>  <CHROM.1>
-172.89375686,104.17256183,-27.76684704,-47.28747093,-63.01893629,71.63562938
-174.29610104,78.54407805,25.02833360,39.60640242,66.99859954,-2.99192033
0.07774721,3.00028052

>  <Name>
ligand

>  <RI>
0

>  <Rbt.Current_Directory>
/home/itssahil/PROJECTS/Mol_Feturizer/New_Systems/rnas/2HOJ

>  <Rbt.Executable>
rbdock ($Id: //depot/dev/client3/rdock/2013.1/src/exe/rbdock.cxx#4 $)

>  <Rbt.Library>
libRbt.so (2013.1, Build901 2013/11/27)

>  <Rbt.Parameter_File>
/export/apps/rDock/src/rDock_2013.1_src/data/scripts/dock_solv.prm

>  <Rbt.Receptor>
prm/pocket_docking_4.prm

>  <SCORE>
-25.6568

>  <SCORE.INTER>
-20.0109

>  <SCORE.INTER.CONST>
1

>  <SCORE.INTER.POLAR>
-2.70058

>  <SCORE.INTER.ROT>
8

>  <SCORE.INTER.SOLV>
29.7996

>  <SCORE.INTER.VDW>
-23.2052

>  <SCORE.INTER.norm>
-0.769648

>  <SCORE.INTRA>
-5.64596

>  <SCORE.INTRA.DIHEDRAL>
-4.95959

>  <SCORE.INTRA.DIHEDRAL.0>
11.6398

>  <SCORE.INTRA.POLAR>
0

>  <SCORE.INTRA.POLAR.0>
0

>  <SCORE.INTRA.REPUL>
0

>  <SCORE.INTRA.REPUL.0>
0

>  <SCORE.INTRA.SOLV>
0.470048

>  <SCORE.INTRA.SOLV.lig_0>
-81.722

>  <SCORE.INTRA.VDW>
-3.40119

>  <SCORE.INTRA.VDW.0>
1.12598

>  <SCORE.INTRA.norm>
-0.217152

>  <SCORE.RESTR>
0

>  <SCORE.RESTR.CAVITY>
0

>  <SCORE.RESTR.norm>
0

>  <SCORE.SYSTEM>
0

>  <SCORE.SYSTEM.CONST>
0

>  <SCORE.SYSTEM.DIHEDRAL>
0

>  <SCORE.SYSTEM.SOLV>
0

>  <SCORE.SYSTEM.norm>
0

>  <SCORE.heavy>
26

>  <SCORE.norm>
-0.9868

>  <RMSD>
2.519

$$$$
ligand
 OpenBabel11021811433D
libRbt.so/2013.1/901 2013/11/27
 26 27  0  0  0  0  0  0  0  0999 V2000
   15.4416   39.0388   63.7351 C   0  0  0  0  0  0  0  0  0  0  0  0
   22.3981   42.2626   66.1089 C   0  0  0  0  0  0  0  0  0  0  0  0
   26.8332   39.5304   67.8104 P   0  0  1  0  0  0  0  0  0  0  0  0
   27.2783   37.1875   68.8102 P   0  0  1  0  0  0  0  0  0  0  0  0
   20.1115   40.6956   66.5396 C   0  0  0  0  0  0  0  0  0  0  0  0
   18.4497   38.9457   65.8410 C   0  0  0  0  0  0  0  0  0  0  0  0
   18.8753   40.2585   65.7967 C   0  0  0  0  0  0  0  0  0  0  0  0
   18.1311   41.1707   65.0466 C   0  0  0  0  0  0  0  0  0  0  0  0
   18.5168   42.5006   64.9697 N   0  0  0  0  0  0  0  0  0  0  0  0
   17.0493   40.7443   64.4016 N   0  0  0  0  0  0  0  0  0  0  0  0
   16.6763   39.4831   64.4750 C   0  0  0  0  0  0  0  0  0  0  0  0
   17.3574   38.5966   65.1746 N   0  0  0  0  0  0  0  0  0  0  0  0
   26.9907   40.0518   69.1869 O   0  5  0  0  0  0  0  0  0  0  0  0
   26.8655   35.6989   68.8133 O   0  0  0  0  0  0  0  0  0  0  0  0
   22.8367   38.5493   64.9421 S   0  0  0  0  0  0  0  0  0  0  0  0
   21.2505   38.8064   65.6017 C   0  0  0  0  0  0  0  0  0  0  0  0
   28.2583   39.5439   67.0643 O   0  0  0  0  0  0  0  0  0  0  0  0
   28.7801   37.3281   68.2490 O   0  5  0  0  0  0  0  0  0  0  0  0
   21.2915   40.0765   65.9319 N   0  0  0  0  0  0  0  0  0  0  0  0
   26.2722   38.0220   67.8694 O   0  0  0  0  0  0  0  0  0  0  0  0
   27.2135   37.7420   70.2512 O   0  0  0  0  0  0  0  0  0  0  0  0
   22.3671   40.8046   65.7254 C   0  0  2  0  0  0  0  0  0  0  0  0
   23.4522   40.2116   65.1656 C   0  0  2  0  0  0  0  0  0  0  0  0
   24.7989   40.7938   64.8243 C   0  0  0  0  0  0  0  0  0  0  0  0
   25.8861   40.0749   65.6263 C   0  0  0  0  0  0  0  0  0  0  0  0
   25.7938   40.4561   67.0005 O   0  0  0  0  0  0  0  0  0  0  0  0
  1 11  1  0  0  0  0
  3 13  1  1  0  0  0
  3 17  2  0  0  0  0
  3 20  1  0  0  0  0
  3 26  1  0  0  0  0
  4 14  1  1  0  0  0
  4 18  1  0  0  0  0
  4 21  2  0  0  0  0
  4 20  1  0  0  0  0
  5 19  1  0  0  0  0
  5  7  1  0  0  0  0
  6  7  2  0  0  0  0
  6 12  1  0  0  0  0
  7  8  1  0  0  0  0
  8  9  1  0  0  0  0
  8 10  2  0  0  0  0
 10 11  1  0  0  0  0
 11 12  2  0  0  0  0
 15 23  1  0  0  0  0
 15 16  1  0  0  0  0
 16 19  1  0  0  0  0
 19 22  1  0  0  0  0
 22  2  1  1  0  0  0
 22 23  1  0  0  0  0
 23 24  1  6  0  0  0
 24 25  1  0  0  0  0
 25 26  1  0  0  0  0
M  CHG  2  13  -1  18  -1
M  END
>  <CHROM.1>
-54.56619773,-43.87212955,67.36634866,-175.20076385,-61.95088179,-71.36423130
172.97179174,168.65718844,23.24955891,39.37326417,66.53558891,2.84267633
-0.26315356,-0.37388933

>  <Name>
ligand

>  <RI>
0

>  <Rbt.Current_Directory>
/home/itssahil/PROJECTS/Mol_Feturizer/New_Systems/rnas/2HOJ

>  <Rbt.Executable>
rbdock ($Id: //depot/dev/client3/rdock/2013.1/src/exe/rbdock.cxx#4 $)

>  <Rbt.Library>
libRbt.so (2013.1, Build901 2013/11/27)

>  <Rbt.Parameter_File>
/export/apps/rDock/src/rDock_2013.1_src/data/scripts/dock_solv.prm

>  <Rbt.Receptor>
prm/pocket_docking_7.prm

>  <SCORE>
-19.7893

>  <SCORE.INTER>
-16.298

>  <SCORE.INTER.CONST>
1

>  <SCORE.INTER.POLAR>
0

>  <SCORE.INTER.ROT>
8

>  <SCORE.INTER.SOLV>
23.5527

>  <SCORE.INTER.VDW>
-27.6496

>  <SCORE.INTER.norm>
-0.626847

>  <SCORE.INTRA>
-3.49125

>  <SCORE.INTRA.DIHEDRAL>
-5.46578

>  <SCORE.INTRA.DIHEDRAL.0>
11.6398

>  <SCORE.INTRA.POLAR>
0

>  <SCORE.INTRA.POLAR.0>
0

>  <SCORE.INTRA.REPUL>
0

>  <SCORE.INTRA.REPUL.0>
0

>  <SCORE.INTRA.SOLV>
3.86665

>  <SCORE.INTRA.SOLV.lig_0>
-81.722

>  <SCORE.INTRA.VDW>
-2.69169

>  <SCORE.INTRA.VDW.0>
1.12598

>  <SCORE.INTRA.norm>
-0.134279

>  <SCORE.RESTR>
0

>  <SCORE.RESTR.CAVITY>
0

>  <SCORE.RESTR.norm>
0

>  <SCORE.SYSTEM>
0

>  <SCORE.SYSTEM.CONST>
0

>  <SCORE.SYSTEM.DIHEDRAL>
0

>  <SCORE.SYSTEM.SOLV>
0

>  <SCORE.SYSTEM.norm>
0

>  <SCORE.heavy>
26

>  <SCORE.norm>
-0.761126

>  <RMSD>
2.525

$$$$
ligand
 OpenBabel11021811433D
libRbt.so/2013.1/901 2013/11/27
 26 27  0  0  0  0  0  0  0  0999 V2000
   16.3459   39.1520   64.4778 C   0  0  0  0  0  0  0  0  0  0  0  0
   23.5511   40.8803   65.5342 C   0  0  0  0  0  0  0  0  0  0  0  0
   27.6024   39.8579   68.3845 P   0  0  1  0  0  0  0  0  0  0  0  0
   26.4964   42.1809   68.1253 P   0  0  1  0  0  0  0  0  0  0  0  0
   21.0621   41.4399   66.7009 C   0  0  0  0  0  0  0  0  0  0  0  0
   19.6647   39.4661   66.0203 C   0  0  0  0  0  0  0  0  0  0  0  0
   19.8132   40.8357   66.1122 C   0  0  0  0  0  0  0  0  0  0  0  0
   18.7770   41.6467   65.6461 C   0  0  0  0  0  0  0  0  0  0  0  0
   18.8776   43.0282   65.7154 N   0  0  0  0  0  0  0  0  0  0  0  0
   17.6936   41.0749   65.1290 N   0  0  0  0  0  0  0  0  0  0  0  0
   17.5913   39.7632   65.0650 C   0  0  0  0  0  0  0  0  0  0  0  0
   18.5521   38.9694   65.4961 N   0  0  0  0  0  0  0  0  0  0  0  0
   29.0618   40.1049   68.4103 O   0  5  0  0  0  0  0  0  0  0  0  0
   26.3898   43.3659   67.1400 O   0  0  0  0  0  0  0  0  0  0  0  0
   22.7538   38.6054   68.6215 S   0  0  0  0  0  0  0  0  0  0  0  0
   21.4535   39.7173   68.3213 C   0  0  0  0  0  0  0  0  0  0  0  0
   26.9863   40.1251   69.8463 O   0  0  0  0  0  0  0  0  0  0  0  0
   25.0767   41.9533   68.8486 O   0  5  0  0  0  0  0  0  0  0  0  0
   21.8931   40.3803   67.2767 N   0  0  0  0  0  0  0  0  0  0  0  0
   26.9098   40.8486   67.3204 O   0  0  0  0  0  0  0  0  0  0  0  0
   27.5721   42.4928   69.1900 O   0  0  0  0  0  0  0  0  0  0  0  0
   23.0608   40.1108   66.7348 C   0  0  2  0  0  0  0  0  0  0  0  0
   23.8186   39.1286   67.2857 C   0  0  2  0  0  0  0  0  0  0  0  0
   25.1771   38.6191   66.8811 C   0  0  0  0  0  0  0  0  0  0  0  0
   25.9211   38.1072   68.1166 C   0  0  0  0  0  0  0  0  0  0  0  0
   27.3231   38.3314   67.9544 O   0  0  0  0  0  0  0  0  0  0  0  0
  1 11  1  0  0  0  0
  3 13  1  1  0  0  0
  3 17  2  0  0  0  0
  3 20  1  0  0  0  0
  3 26  1  0  0  0  0
  4 14  1  6  0  0  0
  4 18  1  0  0  0  0
  4 21  2  0  0  0  0
  4 20  1  0  0  0  0
  5 19  1  0  0  0  0
  5  7  1  0  0  0  0
  6  7  2  0  0  0  0
  6 12  1  0  0  0  0
  7  8  1  0  0  0  0
  8  9  1  0  0  0  0
  8 10  2  0  0  0  0
 10 11  1  0  0  0  0
 11 12  2  0  0  0  0
 15 23  1  0  0  0  0
 15 16  1  0  0  0  0
 16 19  1  0  0  0  0
 19 22  1  0  0  0  0
 22  2  1  1  0  0  0
 22 23  1  0  0  0  0
 23 24  1  6  0  0  0
 24 25  1  0  0  0  0
 25 26  1  0  0  0  0
M  CHG  2  13  -1  18  -1
M  END
>  <CHROM.1>
-90.63891720,-66.20541065,-7.87812651,156.33333796,-30.26742748,-147.66514592
82.79853872,172.60711174,23.56598610,40.39483605,67.30534778,3.13217787,-0.31221988
-0.12889678

>  <Name>
ligand

>  <RI>
0

>  <Rbt.Current_Directory>
/home/itssahil/PROJECTS/Mol_Feturizer/New_Systems/rnas/2HOJ

>  <Rbt.Executable>
rbdock ($Id: //depot/dev/client3/rdock/2013.1/src/exe/rbdock.cxx#4 $)

>  <Rbt.Library>
libRbt.so (2013.1, Build901 2013/11/27)

>  <Rbt.Parameter_File>
/export/apps/rDock/src/rDock_2013.1_src/data/scripts/dock_solv.prm

>  <Rbt.Receptor>
prm/pocket_docking_4.prm

>  <SCORE>
-18.2759

>  <SCORE.INTER>
-18.9467

>  <SCORE.INTER.CONST>
1

>  <SCORE.INTER.POLAR>
-1.28842

>  <SCORE.INTER.ROT>
8

>  <SCORE.INTER.SOLV>
27.3296

>  <SCORE.INTER.VDW>
-26.3796

>  <SCORE.INTER.norm>
-0.728718

>  <SCORE.INTRA>
0.670771

>  <SCORE.INTRA.DIHEDRAL>
0.716395

>  <SCORE.INTRA.DIHEDRAL.0>
11.6398

>  <SCORE.INTRA.POLAR>
0

>  <SCORE.INTRA.POLAR.0>
0

>  <SCORE.INTRA.REPUL>
0

>  <SCORE.INTRA.REPUL.0>
0

>  <SCORE.INTRA.SOLV>
5.76985

>  <SCORE.INTRA.SOLV.lig_0>
-81.722

>  <SCORE.INTRA.VDW>
-2.57235

>  <SCORE.INTRA.VDW.0>
1.12598

>  <SCORE.INTRA.norm>
0.0257989

>  <SCORE.RESTR>
0

>  <SCORE.RESTR.CAVITY>
0

>  <SCORE.RESTR.norm>
0

>  <SCORE.SYSTEM>
0

>  <SCORE.SYSTEM.CONST>
0

>  <SCORE.SYSTEM.DIHEDRAL>
0

>  <SCORE.SYSTEM.SOLV>
0

>  <SCORE.SYSTEM.norm>
0

>  <SCORE.heavy>
26

>  <SCORE.norm>
-0.702919

>  <RMSD>
2.533

$$$$
ligand
 OpenBabel11021811433D
libRbt.so/2013.1/901 2013/11/27
 26 27  0  0  0  0  0  0  0  0999 V2000
   16.7694   40.1305   64.5456 C   0  0  0  0  0  0  0  0  0  0  0  0
   23.1802   38.0453   67.4009 C   0  0  0  0  0  0  0  0  0  0  0  0
   28.2997   39.1563   67.6859 P   0  0  1  0  0  0  0  0  0  0  0  0
   27.4104   41.0463   69.2104 P   0  0  1  0  0  0  0  0  0  0  0  0
   21.6771   40.4138   67.4183 C   0  0  0  0  0  0  0  0  0  0  0  0
   19.7430   39.1310   66.4564 C   0  0  0  0  0  0  0  0  0  0  0  0
   20.3782   40.3403   66.6577 C   0  0  0  0  0  0  0  0  0  0  0  0
   19.7864   41.4933   66.1390 C   0  0  0  0  0  0  0  0  0  0  0  0
   20.3848   42.7322   66.3135 N   0  0  0  0  0  0  0  0  0  0  0  0
   18.6426   41.3856   65.4695 N   0  0  0  0  0  0  0  0  0  0  0  0
   18.0680   40.2118   65.3048 C   0  0  0  0  0  0  0  0  0  0  0  0
   18.6012   39.1040   65.7819 N   0  0  0  0  0  0  0  0  0  0  0  0
   29.4911   38.6058   67.0011 O   0  5  0  0  0  0  0  0  0  0  0  0
   26.0799   40.7964   68.4663 O   0  0  0  0  0  0  0  0  0  0  0  0
   24.4403   40.6851   64.7960 S   0  0  0  0  0  0  0  0  0  0  0  0
   23.0741   41.2929   65.6800 C   0  0  0  0  0  0  0  0  0  0  0  0
   27.8791   38.1845   68.8970 O   0  0  0  0  0  0  0  0  0  0  0  0
   27.4424   40.1744   70.5627 O   0  5  0  0  0  0  0  0  0  0  0  0
   22.7982   40.2921   66.4839 N   0  0  0  0  0  0  0  0  0  0  0  0
   28.6427   40.6192   68.2655 O   0  0  0  0  0  0  0  0  0  0  0  0
   27.5286   42.5464   69.5624 O   0  0  0  0  0  0  0  0  0  0  0  0
   23.5088   39.1855   66.4704 C   0  0  2  0  0  0  0  0  0  0  0  0
   24.5408   39.0897   65.5938 C   0  0  2  0  0  0  0  0  0  0  0  0
   25.5048   37.9559   65.3613 C   0  0  0  0  0  0  0  0  0  0  0  0
   26.5625   37.9478   66.4672 C   0  0  0  0  0  0  0  0  0  0  0  0
   27.0815   39.2681   66.6388 O   0  0  0  0  0  0  0  0  0  0  0  0
  1 11  1  0  0  0  0
  3 13  1  6  0  0  0
  3 17  2  0  0  0  0
  3 20  1  0  0  0  0
  3 26  1  0  0  0  0
  4 14  1  6  0  0  0
  4 18  1  0  0  0  0
  4 21  2  0  0  0  0
  4 20  1  0  0  0  0
  5 19  1  0  0  0  0
  5  7  1  0  0  0  0
  6  7  2  0  0  0  0
  6 12  1  0  0  0  0
  7  8  1  0  0  0  0
  8  9  1  0  0  0  0
  8 10  2  0  0  0  0
 10 11  1  0  0  0  0
 11 12  2  0  0  0  0
 15 23  1  0  0  0  0
 15 16  1  0  0  0  0
 16 19  1  0  0  0  0
 19 22  1  0  0  0  0
 22  2  1  6  0  0  0
 22 23  1  0  0  0  0
 23 24  1  1  0  0  0
 24 25  1  0  0  0  0
 25 26  1  0  0  0  0
M  CHG  2  13  -1  18  -1
M  END
>  <CHROM.1>
-170.22222290,72.04286422,91.07977790,-48.31798701,102.13564587,-48.13132988
-173.54549442,76.98777773,24.30969640,40.02496602,66.98587262,-3.00202351
-0.26839764,0.72007396

>  <Name>
ligand

>  <RI>
0

>  <Rbt.Current_Directory>
/home/itssahil/PROJECTS/Mol_Feturizer/New_Systems/rnas/2HOJ

>  <Rbt.Executable>
rbdock ($Id: //depot/dev/client3/rdock/2013.1/src/exe/rbdock.cxx#4 $)

>  <Rbt.Library>
libRbt.so (2013.1, Build901 2013/11/27)

>  <Rbt.Parameter_File>
/export/apps/rDock/src/rDock_2013.1_src/data/scripts/dock_solv.prm

>  <Rbt.Receptor>
prm/pocket_docking_8.prm

>  <SCORE>
-22.8774

>  <SCORE.INTER>
-16.2236

>  <SCORE.INTER.CONST>
1

>  <SCORE.INTER.POLAR>
-0.917223

>  <SCORE.INTER.ROT>
8

>  <SCORE.INTER.SOLV>
21.0577

>  <SCORE.INTER.VDW>
-23.7109

>  <SCORE.INTER.norm>
-0.623986

>  <SCORE.INTRA>
-6.65373

>  <SCORE.INTRA.DIHEDRAL>
-5.42764

>  <SCORE.INTRA.DIHEDRAL.0>
11.6398

>  <SCORE.INTRA.POLAR>
0

>  <SCORE.INTRA.POLAR.0>
0

>  <SCORE.INTRA.REPUL>
0

>  <SCORE.INTRA.REPUL.0>
0

>  <SCORE.INTRA.SOLV>
0.887548

>  <SCORE.INTRA.SOLV.lig_0>
-81.722

>  <SCORE.INTRA.VDW>
-4.38369

>  <SCORE.INTRA.VDW.0>
1.12598

>  <SCORE.INTRA.norm>
-0.255913

>  <SCORE.RESTR>
0

>  <SCORE.RESTR.CAVITY>
0

>  <SCORE.RESTR.norm>
0

>  <SCORE.SYSTEM>
0

>  <SCORE.SYSTEM.CONST>
0

>  <SCORE.SYSTEM.DIHEDRAL>
0

>  <SCORE.SYSTEM.SOLV>
0

>  <SCORE.SYSTEM.norm>
0

>  <SCORE.heavy>
26

>  <SCORE.norm>
-0.879899

>  <RMSD>
2.556

$$$$
ligand
 OpenBabel11021811433D
libRbt.so/2013.1/901 2013/11/27
 26 27  0  0  0  0  0  0  0  0999 V2000
   16.2243   39.1757   64.4466 C   0  0  0  0  0  0  0  0  0  0  0  0
   22.9489   39.9821   65.2486 C   0  0  0  0  0  0  0  0  0  0  0  0
   27.2432   39.3302   67.2175 P   0  0  1  0  0  0  0  0  0  0  0  0
   26.6208   41.8374   67.3327 P   0  0  1  0  0  0  0  0  0  0  0  0
   20.9782   41.4348   66.6183 C   0  0  0  0  0  0  0  0  0  0  0  0
   19.5854   39.4717   65.8984 C   0  0  0  0  0  0  0  0  0  0  0  0
   19.7193   40.8382   66.0432 C   0  0  0  0  0  0  0  0  0  0  0  0
   18.6588   41.6533   65.6438 C   0  0  0  0  0  0  0  0  0  0  0  0
   18.7440   43.0320   65.7680 N   0  0  0  0  0  0  0  0  0  0  0  0
   17.5671   41.0884   65.1365 N   0  0  0  0  0  0  0  0  0  0  0  0
   17.4796   39.7792   65.0205 C   0  0  0  0  0  0  0  0  0  0  0  0
   18.4634   38.9817   65.3882 N   0  0  0  0  0  0  0  0  0  0  0  0
   26.7469   39.2147   65.8276 O   0  5  0  0  0  0  0  0  0  0  0  0
   25.6284   41.5901   68.4904 O   0  0  0  0  0  0  0  0  0  0  0  0
   22.5674   38.9023   68.9944 S   0  0  0  0  0  0  0  0  0  0  0  0
   21.4536   40.1762   68.6022 C   0  0  0  0  0  0  0  0  0  0  0  0
   28.3904   38.2314   67.4715 O   0  0  0  0  0  0  0  0  0  0  0  0
   27.1768   43.3455   67.4137 O   0  5  0  0  0  0  0  0  0  0  0  0
   21.7250   40.4003   67.3373 N   0  0  0  0  0  0  0  0  0  0  0  0
   27.8503   40.8038   67.4492 O   0  0  0  0  0  0  0  0  0  0  0  0
   25.8986   41.6270   65.9828 O   0  0  0  0  0  0  0  0  0  0  0  0
   22.6497   39.7139   66.7020 C   0  0  2  0  0  0  0  0  0  0  0  0
   23.3345   38.7628   67.3869 C   0  0  2  0  0  0  0  0  0  0  0  0
   24.4325   37.8432   66.9205 C   0  0  0  0  0  0  0  0  0  0  0  0
   25.5281   37.7713   67.9866 C   0  0  0  0  0  0  0  0  0  0  0  0
   26.0275   39.0851   68.2447 O   0  0  0  0  0  0  0  0  0  0  0  0
  1 11  1  0  0  0  0
  3 13  1  6  0  0  0
  3 17  2  0  0  0  0
  3 20  1  0  0  0  0
  3 26  1  0  0  0  0
  4 14  1  1  0  0  0
  4 18  1  0  0  0  0
  4 21  2  0  0  0  0
  4 20  1  0  0  0  0
  5 19  1  0  0  0  0
  5  7  1  0  0  0  0
  6  7  2  0  0  0  0
  6 12  1  0  0  0  0
  7  8  1  0  0  0  0
  8  9  1  0  0  0  0
  8 10  2  0  0  0  0
 10 11  1  0  0  0  0
 11 12  2  0  0  0  0
 15 23  1  0  0  0  0
 15 16  1  0  0  0  0
 16 19  1  0  0  0  0
 19 22  1  0  0  0  0
 22  2  1  1  0  0  0
 22 23  1  0  0  0  0
 23 24  1  6  0  0  0
 24 25  1  0  0  0  0
 25 26  1  0  0  0  0
M  CHG  2  13  -1  18  -1
M  END
>  <CHROM.1>
65.79905505,-87.52487939,-18.09541847,65.29452515,-43.01659916,-57.77230491
-89.54794928,59.73768471,23.35150820,40.15083127,66.87572702,3.08238952,-0.19894661
-0.18758941

>  <Name>
ligand

>  <RI>
0

>  <Rbt.Current_Directory>
/home/itssahil/PROJECTS/Mol_Feturizer/New_Systems/rnas/2HOJ

>  <Rbt.Executable>
rbdock ($Id: //depot/dev/client3/rdock/2013.1/src/exe/rbdock.cxx#4 $)

>  <Rbt.Library>
libRbt.so (2013.1, Build901 2013/11/27)

>  <Rbt.Parameter_File>
/export/apps/rDock/src/rDock_2013.1_src/data/scripts/dock_solv.prm

>  <Rbt.Receptor>
prm/pocket_docking_5.prm

>  <SCORE>
-19.9677

>  <SCORE.INTER>
-15.6886

>  <SCORE.INTER.CONST>
1

>  <SCORE.INTER.POLAR>
0

>  <SCORE.INTER.ROT>
8

>  <SCORE.INTER.SOLV>
20.7975

>  <SCORE.INTER.VDW>
-26.3249

>  <SCORE.INTER.norm>
-0.603406

>  <SCORE.INTRA>
-4.27918

>  <SCORE.INTRA.DIHEDRAL>
-2.96959

>  <SCORE.INTRA.DIHEDRAL.0>
11.6398

>  <SCORE.INTRA.POLAR>
0

>  <SCORE.INTRA.POLAR.0>
0

>  <SCORE.INTRA.REPUL>
0

>  <SCORE.INTRA.REPUL.0>
0

>  <SCORE.INTRA.SOLV>
2.48383

>  <SCORE.INTRA.SOLV.lig_0>
-81.722

>  <SCORE.INTRA.VDW>
-4.0363

>  <SCORE.INTRA.VDW.0>
1.12598

>  <SCORE.INTRA.norm>
-0.164584

>  <SCORE.RESTR>
0

>  <SCORE.RESTR.CAVITY>
0

>  <SCORE.RESTR.norm>
0

>  <SCORE.SYSTEM>
0

>  <SCORE.SYSTEM.CONST>
0

>  <SCORE.SYSTEM.DIHEDRAL>
0

>  <SCORE.SYSTEM.SOLV>
0

>  <SCORE.SYSTEM.norm>
0

>  <SCORE.heavy>
26

>  <SCORE.norm>
-0.76799

>  <RMSD>
2.564

$$$$
ligand
 OpenBabel11021811433D
libRbt.so/2013.1/901 2013/11/27
 26 27  0  0  0  0  0  0  0  0999 V2000
   18.9556   43.0842   65.8382 C   0  0  0  0  0  0  0  0  0  0  0  0
   24.2381   37.7995   65.8725 C   0  0  0  0  0  0  0  0  0  0  0  0
   28.0181   39.7512   68.7681 P   0  0  1  0  0  0  0  0  0  0  0  0
   30.1906   38.8359   67.7054 P   0  0  1  0  0  0  0  0  0  0  0  0
   21.4517   37.9724   65.5969 C   0  0  0  0  0  0  0  0  0  0  0  0
   19.4197   39.4497   65.5783 C   0  0  0  0  0  0  0  0  0  0  0  0
   20.7924   39.3261   65.6608 C   0  0  0  0  0  0  0  0  0  0  0  0
   21.5541   40.4870   65.8054 C   0  0  0  0  0  0  0  0  0  0  0  0
   22.9365   40.4166   65.8923 N   0  0  0  0  0  0  0  0  0  0  0  0
   20.9347   41.6627   65.8527 N   0  0  0  0  0  0  0  0  0  0  0  0
   19.6217   41.7345   65.7750 C   0  0  0  0  0  0  0  0  0  0  0  0
   18.8738   40.6571   65.6378 N   0  0  0  0  0  0  0  0  0  0  0  0
   27.4506   40.6510   69.7977 O   0  5  0  0  0  0  0  0  0  0  0  0
   31.4660   38.0665   68.1148 O   0  0  0  0  0  0  0  0  0  0  0  0
   22.3156   37.0851   69.2095 S   0  0  0  0  0  0  0  0  0  0  0  0
   21.2056   37.4310   67.9190 C   0  0  0  0  0  0  0  0  0  0  0  0
   27.7159   40.3498   67.3059 O   0  0  0  0  0  0  0  0  0  0  0  0
   29.0843   37.7970   67.1696 O   0  5  0  0  0  0  0  0  0  0  0  0
   22.0156   37.6411   66.9072 N   0  0  0  0  0  0  0  0  0  0  0  0
   29.6099   39.6301   68.9805 O   0  0  0  0  0  0  0  0  0  0  0  0
   30.5353   39.8436   66.5857 O   0  0  0  0  0  0  0  0  0  0  0  0
   23.3209   37.5567   67.0445 C   0  0  2  0  0  0  0  0  0  0  0  0
   23.8246   37.2534   68.2679 C   0  0  2  0  0  0  0  0  0  0  0  0
   25.2567   37.0979   68.7082 C   0  0  0  0  0  0  0  0  0  0  0  0
   25.9422   38.4662   68.7145 C   0  0  0  0  0  0  0  0  0  0  0  0
   27.3484   38.2928   68.9006 O   0  0  0  0  0  0  0  0  0  0  0  0
  1 11  1  0  0  0  0
  3 13  1  1  0  0  0
  3 17  2  0  0  0  0
  3 20  1  0  0  0  0
  3 26  1  0  0  0  0
  4 14  1  1  0  0  0
  4 18  1  0  0  0  0
  4 21  2  0  0  0  0
  4 20  1  0  0  0  0
  5 19  1  0  0  0  0
  5  7  1  0  0  0  0
  6  7  2  0  0  0  0
  6 12  1  0  0  0  0
  7  8  1  0  0  0  0
  8  9  1  0  0  0  0
  8 10  2  0  0  0  0
 10 11  1  0  0  0  0
 11 12  2  0  0  0  0
 15 23  1  0  0  0  0
 15 16  1  0  0  0  0
 16 19  1  0  0  0  0
 19 22  1  0  0  0  0
 22  2  1  1  0  0  0
 22 23  1  0  0  0  0
 23 24  1  6  0  0  0
 24 25  1  0  0  0  0
 25 26  1  0  0  0  0
M  CHG  2  13  -1  18  -1
M  END
>  <CHROM.1>
-171.29069614,66.97634490,-110.64960246,-151.36017752,-109.87351907,-169.87176352
175.14898738,59.59984166,24.92206473,39.10002770,67.42952352,-2.96347073
0.14339330,2.69530394

>  <Name>
ligand

>  <RI>
0

>  <Rbt.Current_Directory>
/home/itssahil/PROJECTS/Mol_Feturizer/New_Systems/rnas/2HOJ

>  <Rbt.Executable>
rbdock ($Id: //depot/dev/client3/rdock/2013.1/src/exe/rbdock.cxx#4 $)

>  <Rbt.Library>
libRbt.so (2013.1, Build901 2013/11/27)

>  <Rbt.Parameter_File>
/export/apps/rDock/src/rDock_2013.1_src/data/scripts/dock_solv.prm

>  <Rbt.Receptor>
prm/pocket_docking_4.prm

>  <SCORE>
-25.8112

>  <SCORE.INTER>
-23.6177

>  <SCORE.INTER.CONST>
1

>  <SCORE.INTER.POLAR>
-2.40345

>  <SCORE.INTER.ROT>
8

>  <SCORE.INTER.SOLV>
20.2778

>  <SCORE.INTER.VDW>
-23.4262

>  <SCORE.INTER.norm>
-0.908374

>  <SCORE.INTRA>
-2.19346

>  <SCORE.INTRA.DIHEDRAL>
-5.29441

>  <SCORE.INTRA.DIHEDRAL.0>
11.6398

>  <SCORE.INTRA.POLAR>
0

>  <SCORE.INTRA.POLAR.0>
0

>  <SCORE.INTRA.REPUL>
0

>  <SCORE.INTRA.REPUL.0>
0

>  <SCORE.INTRA.SOLV>
6.46039

>  <SCORE.INTRA.SOLV.lig_0>
-81.722

>  <SCORE.INTRA.VDW>
-2.77645

>  <SCORE.INTRA.VDW.0>
1.12598

>  <SCORE.INTRA.norm>
-0.0843639

>  <SCORE.RESTR>
0

>  <SCORE.RESTR.CAVITY>
0

>  <SCORE.RESTR.norm>
0

>  <SCORE.SYSTEM>
0

>  <SCORE.SYSTEM.CONST>
0

>  <SCORE.SYSTEM.DIHEDRAL>
0

>  <SCORE.SYSTEM.SOLV>
0

>  <SCORE.SYSTEM.norm>
0

>  <SCORE.heavy>
26

>  <SCORE.norm>
-0.992738

>  <RMSD>
2.583

$$$$
ligand
 OpenBabel11021811433D
libRbt.so/2013.1/901 2013/11/27
 26 27  0  0  0  0  0  0  0  0999 V2000
   19.0228   43.0808   65.8817 C   0  0  0  0  0  0  0  0  0  0  0  0
   24.3844   37.7975   65.7750 C   0  0  0  0  0  0  0  0  0  0  0  0
   28.0357   39.6770   69.3253 P   0  0  1  0  0  0  0  0  0  0  0  0
   30.0041   38.8899   67.8446 P   0  0  1  0  0  0  0  0  0  0  0  0
   21.6025   38.0201   65.4901 C   0  0  0  0  0  0  0  0  0  0  0  0
   19.5464   39.4635   65.5165 C   0  0  0  0  0  0  0  0  0  0  0  0
   20.9210   39.3603   65.5939 C   0  0  0  0  0  0  0  0  0  0  0  0
   21.6637   40.5289   65.7710 C   0  0  0  0  0  0  0  0  0  0  0  0
   23.0472   40.4790   65.8544 N   0  0  0  0  0  0  0  0  0  0  0  0
   21.0251   41.6924   65.8529 N   0  0  0  0  0  0  0  0  0  0  0  0
   19.7110   41.7446   65.7788 C   0  0  0  0  0  0  0  0  0  0  0  0
   18.9807   40.6594   65.6114 N   0  0  0  0  0  0  0  0  0  0  0  0
   27.6355   40.0685   70.6958 O   0  5  0  0  0  0  0  0  0  0  0  0
   31.4613   39.2184   67.4508 O   0  0  0  0  0  0  0  0  0  0  0  0
   22.4340   37.0372   69.0856 S   0  0  0  0  0  0  0  0  0  0  0  0
   21.3361   37.4297   67.7981 C   0  0  0  0  0  0  0  0  0  0  0  0
   27.4675   40.7519   68.2719 O   0  0  0  0  0  0  0  0  0  0  0  0
   29.8414   37.2990   68.0253 O   0  5  0  0  0  0  0  0  0  0  0  0
   22.1545   37.6502   66.7953 N   0  0  0  0  0  0  0  0  0  0  0  0
   29.6425   39.6285   69.2294 O   0  0  0  0  0  0  0  0  0  0  0  0
   29.0482   39.3823   66.7347 O   0  0  0  0  0  0  0  0  0  0  0  0
   23.4576   37.5424   66.9368 C   0  0  2  0  0  0  0  0  0  0  0  0
   23.9503   37.2033   68.1554 C   0  0  2  0  0  0  0  0  0  0  0  0
   25.3775   37.0156   68.5988 C   0  0  0  0  0  0  0  0  0  0  0  0
   26.0228   38.3820   68.8409 C   0  0  0  0  0  0  0  0  0  0  0  0
   27.4354   38.2220   68.9850 O   0  0  0  0  0  0  0  0  0  0  0  0
  1 11  1  0  0  0  0
  3 13  1  1  0  0  0
  3 17  2  0  0  0  0
  3 20  1  0  0  0  0
  3 26  1  0  0  0  0
  4 14  1  6  0  0  0
  4 18  1  0  0  0  0
  4 21  2  0  0  0  0
  4 20  1  0  0  0  0
  5 19  1  0  0  0  0
  5  7  1  0  0  0  0
  6  7  2  0  0  0  0
  6 12  1  0  0  0  0
  7  8  1  0  0  0  0
  8  9  1  0  0  0  0
  8 10  2  0  0  0  0
 10 11  1  0  0  0  0
 11 12  2  0  0  0  0
 15 23  1  0  0  0  0
 15 16  1  0  0  0  0
 16 19  1  0  0  0  0
 19 22  1  0  0  0  0
 22  2  1  1  0  0  0
 22 23  1  0  0  0  0
 23 24  1  6  0  0  0
 24 25  1  0  0  0  0
 25 26  1  0  0  0  0
M  CHG  2  13  -1  18  -1
M  END
>  <CHROM.1>
167.61959868,64.97849239,-109.70965489,161.04270133,-101.50347607,-167.92881682
-176.60424581,70.59621909,24.95145164,39.09282533,67.54347260,-2.94483244
0.19824380,2.74473726

>  <Name>
ligand

>  <RI>
0

>  <Rbt.Current_Directory>
/home/itssahil/PROJECTS/Mol_Feturizer/New_Systems/rnas/2HOJ

>  <Rbt.Executable>
rbdock ($Id: //depot/dev/client3/rdock/2013.1/src/exe/rbdock.cxx#4 $)

>  <Rbt.Library>
libRbt.so (2013.1, Build901 2013/11/27)

>  <Rbt.Parameter_File>
/export/apps/rDock/src/rDock_2013.1_src/data/scripts/dock_solv.prm

>  <Rbt.Receptor>
prm/pocket_docking_3.prm

>  <SCORE>
-26.1069

>  <SCORE.INTER>
-22.8843

>  <SCORE.INTER.CONST>
1

>  <SCORE.INTER.POLAR>
-2.7242

>  <SCORE.INTER.ROT>
8

>  <SCORE.INTER.SOLV>
22.1155

>  <SCORE.INTER.VDW>
-22.4807

>  <SCORE.INTER.norm>
-0.880165

>  <SCORE.INTRA>
-3.28847

>  <SCORE.INTRA.DIHEDRAL>
-5.38672

>  <SCORE.INTRA.DIHEDRAL.0>
11.6398

>  <SCORE.INTRA.POLAR>
0

>  <SCORE.INTRA.POLAR.0>
0

>  <SCORE.INTRA.REPUL>
0

>  <SCORE.INTRA.REPUL.0>
0

>  <SCORE.INTRA.SOLV>
5.86986

>  <SCORE.INTRA.SOLV.lig_0>
-81.722

>  <SCORE.INTRA.VDW>
-3.53004

>  <SCORE.INTRA.VDW.0>
1.12598

>  <SCORE.INTRA.norm>
-0.12648

>  <SCORE.RESTR>
0.0658707

>  <SCORE.RESTR.CAVITY>
0.0658707

>  <SCORE.RESTR.norm>
0.00253349

>  <SCORE.SYSTEM>
0

>  <SCORE.SYSTEM.CONST>
0

>  <SCORE.SYSTEM.DIHEDRAL>
0

>  <SCORE.SYSTEM.SOLV>
0

>  <SCORE.SYSTEM.norm>
0

>  <SCORE.heavy>
26

>  <SCORE.norm>
-1.00411

>  <RMSD>
2.598

$$$$
ligand
 OpenBabel11021811433D
libRbt.so/2013.1/901 2013/11/27
 26 27  0  0  0  0  0  0  0  0999 V2000
   16.5141   39.9266   64.6180 C   0  0  0  0  0  0  0  0  0  0  0  0
   24.0408   42.0438   66.1642 C   0  0  0  0  0  0  0  0  0  0  0  0
   29.0458   38.8277   66.2835 P   0  0  1  0  0  0  0  0  0  0  0  0
   28.6363   38.4759   68.8124 P   0  0  1  0  0  0  0  0  0  0  0  0
   21.6180   40.8730   66.9573 C   0  0  0  0  0  0  0  0  0  0  0  0
   19.6794   41.5603   65.5148 C   0  0  0  0  0  0  0  0  0  0  0  0
   20.2670   40.6212   66.3389 C   0  0  0  0  0  0  0  0  0  0  0  0
   19.5780   39.4322   66.5844 C   0  0  0  0  0  0  0  0  0  0  0  0
   20.1248   38.4573   67.4054 N   0  0  0  0  0  0  0  0  0  0  0  0
   18.3860   39.2504   66.0238 N   0  0  0  0  0  0  0  0  0  0  0  0
   17.8642   40.1713   65.2398 C   0  0  0  0  0  0  0  0  0  0  0  0
   18.4892   41.3050   64.9881 N   0  0  0  0  0  0  0  0  0  0  0  0
   30.4834   39.1812   66.2775 O   0  5  0  0  0  0  0  0  0  0  0  0
   30.1182   38.0410   68.7794 O   0  0  0  0  0  0  0  0  0  0  0  0
   23.8162   38.2324   65.2897 S   0  0  0  0  0  0  0  0  0  0  0  0
   22.3660   38.7715   66.0795 C   0  0  0  0  0  0  0  0  0  0  0  0
   28.8862   37.2275   66.3240 O   0  0  0  0  0  0  0  0  0  0  0  0
   28.3281   39.2313   70.1996 O   0  5  0  0  0  0  0  0  0  0  0  0
   22.6231   40.0415   66.2913 N   0  0  0  0  0  0  0  0  0  0  0  0
   28.3410   39.4708   67.5808 O   0  0  0  0  0  0  0  0  0  0  0  0
   27.7317   37.2286   68.6936 O   0  0  0  0  0  0  0  0  0  0  0  0
   23.7610   40.5832   65.9151 C   0  0  2  0  0  0  0  0  0  0  0  0
   24.6818   39.7952   65.3038 C   0  0  2  0  0  0  0  0  0  0  0  0
   26.0506   40.1425   64.7796 C   0  0  0  0  0  0  0  0  0  0  0  0
   26.9902   38.9498   64.9708 C   0  0  0  0  0  0  0  0  0  0  0  0
   28.3450   39.4041   64.9532 O   0  0  0  0  0  0  0  0  0  0  0  0
  1 11  1  0  0  0  0
  3 13  1  6  0  0  0
  3 17  2  0  0  0  0
  3 20  1  0  0  0  0
  3 26  1  0  0  0  0
  4 14  1  6  0  0  0
  4 18  1  0  0  0  0
  4 21  2  0  0  0  0
  4 20  1  0  0  0  0
  5 19  1  0  0  0  0
  5  7  1  0  0  0  0
  6  7  2  0  0  0  0
  6 12  1  0  0  0  0
  7  8  1  0  0  0  0
  8  9  1  0  0  0  0
  8 10  2  0  0  0  0
 10 11  1  0  0  0  0
 11 12  2  0  0  0  0
 15 23  1  0  0  0  0
 15 16  1  0  0  0  0
 16 19  1  0  0  0  0
 19 22  1  0  0  0  0
 22  2  1  1  0  0  0
 22 23  1  0  0  0  0
 23 24  1  6  0  0  0
 24 25  1  0  0  0  0
 25 26  1  0  0  0  0
M  CHG  2  13  -1  18  -1
M  END
>  <CHROM.1>
-82.12579395,-46.51578054,-106.92525295,44.30424810,-34.49229205,-158.66242769
127.79885751,175.91221811,24.71690376,39.33888668,66.49547449,-2.92727531
-0.09536969,1.87681707

>  <Name>
ligand

>  <RI>
0

>  <Rbt.Current_Directory>
/home/itssahil/PROJECTS/Mol_Feturizer/New_Systems/rnas/2HOJ

>  <Rbt.Executable>
rbdock ($Id: //depot/dev/client3/rdock/2013.1/src/exe/rbdock.cxx#4 $)

>  <Rbt.Library>
libRbt.so (2013.1, Build901 2013/11/27)

>  <Rbt.Parameter_File>
/export/apps/rDock/src/rDock_2013.1_src/data/scripts/dock_solv.prm

>  <Rbt.Receptor>
prm/pocket_docking_3.prm

>  <SCORE>
-15.1985

>  <SCORE.INTER>
-15.8946

>  <SCORE.INTER.CONST>
1

>  <SCORE.INTER.POLAR>
-1.35735

>  <SCORE.INTER.ROT>
8

>  <SCORE.INTER.SOLV>
21.1739

>  <SCORE.INTER.VDW>
-22.0632

>  <SCORE.INTER.norm>
-0.611332

>  <SCORE.INTRA>
0.696169

>  <SCORE.INTRA.DIHEDRAL>
2.8625

>  <SCORE.INTRA.DIHEDRAL.0>
11.6398

>  <SCORE.INTRA.POLAR>
0

>  <SCORE.INTRA.POLAR.0>
0

>  <SCORE.INTRA.REPUL>
0

>  <SCORE.INTRA.REPUL.0>
0

>  <SCORE.INTRA.SOLV>
2.75119

>  <SCORE.INTRA.SOLV.lig_0>
-81.722

>  <SCORE.INTRA.VDW>
-2.11068

>  <SCORE.INTRA.VDW.0>
1.12598

>  <SCORE.INTRA.norm>
0.0267757

>  <SCORE.RESTR>
0

>  <SCORE.RESTR.CAVITY>
0

>  <SCORE.RESTR.norm>
0

>  <SCORE.SYSTEM>
0

>  <SCORE.SYSTEM.CONST>
0

>  <SCORE.SYSTEM.DIHEDRAL>
0

>  <SCORE.SYSTEM.SOLV>
0

>  <SCORE.SYSTEM.norm>
0

>  <SCORE.heavy>
26

>  <SCORE.norm>
-0.584557

>  <RMSD>
2.619

$$$$
ligand
 OpenBabel11021811433D
libRbt.so/2013.1/901 2013/11/27
 26 27  0  0  0  0  0  0  0  0999 V2000
   20.6182   44.5612   66.3071 C   0  0  0  0  0  0  0  0  0  0  0  0
   22.9574   38.6015   65.7685 C   0  0  0  0  0  0  0  0  0  0  0  0
   27.8194   40.0842   68.0565 P   0  0  1  0  0  0  0  0  0  0  0  0
   29.8653   38.6110   67.4814 P   0  0  1  0  0  0  0  0  0  0  0  0
   20.3014   38.8852   66.6258 C   0  0  0  0  0  0  0  0  0  0  0  0
   21.4116   41.0761   67.1541 C   0  0  0  0  0  0  0  0  0  0  0  0
   20.3840   40.3876   66.5407 C   0  0  0  0  0  0  0  0  0  0  0  0
   19.4235   41.1184   65.8393 C   0  0  0  0  0  0  0  0  0  0  0  0
   18.3712   40.4741   65.2061 N   0  0  0  0  0  0  0  0  0  0  0  0
   19.5291   42.4432   65.7920 N   0  0  0  0  0  0  0  0  0  0  0  0
   20.5291   43.0595   66.3879 C   0  0  0  0  0  0  0  0  0  0  0  0
   21.4523   42.3984   67.0585 N   0  0  0  0  0  0  0  0  0  0  0  0
   27.2409   40.9741   69.0886 O   0  5  0  0  0  0  0  0  0  0  0  0
   29.6380   37.3274   68.3102 O   0  0  0  0  0  0  0  0  0  0  0  0
   22.4322   37.5759   69.5121 S   0  0  0  0  0  0  0  0  0  0  0  0
   20.9363   38.0957   68.7983 C   0  0  0  0  0  0  0  0  0  0  0  0
   27.6080   40.7393   66.6025 O   0  0  0  0  0  0  0  0  0  0  0  0
   29.0125   38.5298   66.1189 O   0  5  0  0  0  0  0  0  0  0  0  0
   21.3039   38.3935   67.5735 N   0  0  0  0  0  0  0  0  0  0  0  0
   29.3939   39.8924   68.3355 O   0  0  0  0  0  0  0  0  0  0  0  0
   31.3669   38.7442   67.1414 O   0  0  0  0  0  0  0  0  0  0  0  0
   22.5511   38.2564   67.1791 C   0  0  2  0  0  0  0  0  0  0  0  0
   23.4666   37.8040   68.0734 C   0  0  2  0  0  0  0  0  0  0  0  0
   24.9426   37.5588   67.9000 C   0  0  0  0  0  0  0  0  0  0  0  0
   25.6911   38.8932   67.9332 C   0  0  0  0  0  0  0  0  0  0  0  0
   27.0880   38.6506   68.1115 O   0  0  0  0  0  0  0  0  0  0  0  0
  1 11  1  0  0  0  0
  3 13  1  1  0  0  0
  3 17  2  0  0  0  0
  3 20  1  0  0  0  0
  3 26  1  0  0  0  0
  4 14  1  1  0  0  0
  4 18  1  0  0  0  0
  4 21  2  0  0  0  0
  4 20  1  0  0  0  0
  5 19  1  0  0  0  0
  5  7  1  0  0  0  0
  6  7  2  0  0  0  0
  6 12  1  0  0  0  0
  7  8  1  0  0  0  0
  8  9  1  0  0  0  0
  8 10  2  0  0  0  0
 10 11  1  0  0  0  0
 11 12  2  0  0  0  0
 15 23  1  0  0  0  0
 15 16  1  0  0  0  0
 16 19  1  0  0  0  0
 19 22  1  0  0  0  0
 22  2  1  1  0  0  0
 22 23  1  0  0  0  0
 23 24  1  6  0  0  0
 24 25  1  0  0  0  0
 25 26  1  0  0  0  0
M  CHG  2  13  -1  18  -1
M  END
>  <CHROM.1>
163.63496993,99.18125243,8.36441871,-86.92718343,-102.99872605,165.37335587
176.97801880,56.86050676,24.60995190,39.59658186,67.41488725,-2.90847219
0.03623016,2.78190098

>  <Name>
ligand

>  <RI>
0

>  <Rbt.Current_Directory>
/home/itssahil/PROJECTS/Mol_Feturizer/New_Systems/rnas/2HOJ

>  <Rbt.Executable>
rbdock ($Id: //depot/dev/client3/rdock/2013.1/src/exe/rbdock.cxx#4 $)

>  <Rbt.Library>
libRbt.so (2013.1, Build901 2013/11/27)

>  <Rbt.Parameter_File>
/export/apps/rDock/src/rDock_2013.1_src/data/scripts/dock_solv.prm

>  <Rbt.Receptor>
prm/pocket_docking_5.prm

>  <SCORE>
-20.7649

>  <SCORE.INTER>
-16.1752

>  <SCORE.INTER.CONST>
1

>  <SCORE.INTER.POLAR>
-2.37627

>  <SCORE.INTER.ROT>
8

>  <SCORE.INTER.SOLV>
25.4471

>  <SCORE.INTER.VDW>
-20.2783

>  <SCORE.INTER.norm>
-0.622124

>  <SCORE.INTRA>
-4.58964

>  <SCORE.INTRA.DIHEDRAL>
-4.70471

>  <SCORE.INTRA.DIHEDRAL.0>
11.6398

>  <SCORE.INTRA.POLAR>
0

>  <SCORE.INTRA.POLAR.0>
0

>  <SCORE.INTRA.REPUL>
0

>  <SCORE.INTRA.REPUL.0>
0

>  <SCORE.INTRA.SOLV>
0.878077

>  <SCORE.INTRA.SOLV.lig_0>
-81.722

>  <SCORE.INTRA.VDW>
-2.67632

>  <SCORE.INTRA.VDW.0>
1.12598

>  <SCORE.INTRA.norm>
-0.176524

>  <SCORE.RESTR>
0

>  <SCORE.RESTR.CAVITY>
0

>  <SCORE.RESTR.norm>
0

>  <SCORE.SYSTEM>
0

>  <SCORE.SYSTEM.CONST>
0

>  <SCORE.SYSTEM.DIHEDRAL>
0

>  <SCORE.SYSTEM.SOLV>
0

>  <SCORE.SYSTEM.norm>
0

>  <SCORE.heavy>
26

>  <SCORE.norm>
-0.798649

>  <RMSD>
2.620

$$$$
ligand
 OpenBabel11021811433D
libRbt.so/2013.1/901 2013/11/27
 26 27  0  0  0  0  0  0  0  0999 V2000
   19.3360   43.8602   66.1710 C   0  0  0  0  0  0  0  0  0  0  0  0
   23.8560   38.1769   65.6992 C   0  0  0  0  0  0  0  0  0  0  0  0
   27.9438   39.7282   68.4081 P   0  0  1  0  0  0  0  0  0  0  0  0
   29.3549   38.0233   67.0705 P   0  0  1  0  0  0  0  0  0  0  0  0
   21.0664   38.4635   65.6234 C   0  0  0  0  0  0  0  0  0  0  0  0
   21.5156   40.9100   65.9765 C   0  0  0  0  0  0  0  0  0  0  0  0
   20.6070   39.8915   65.7683 C   0  0  0  0  0  0  0  0  0  0  0  0
   19.2518   40.2181   65.6949 C   0  0  0  0  0  0  0  0  0  0  0  0
   18.2992   39.2316   65.4876 N   0  0  0  0  0  0  0  0  0  0  0  0
   18.8866   41.4893   65.8327 N   0  0  0  0  0  0  0  0  0  0  0  0
   19.7878   42.4305   66.0254 C   0  0  0  0  0  0  0  0  0  0  0  0
   21.0753   42.1551   66.0997 N   0  0  0  0  0  0  0  0  0  0  0  0
   29.0087   39.9813   69.4048 O   0  5  0  0  0  0  0  0  0  0  0  0
   30.3488   37.8765   65.8971 O   0  0  0  0  0  0  0  0  0  0  0  0
   22.1278   37.3059   69.1046 S   0  0  0  0  0  0  0  0  0  0  0  0
   20.9506   37.7758   67.9168 C   0  0  0  0  0  0  0  0  0  0  0  0
   26.9813   41.0135   68.3120 O   0  0  0  0  0  0  0  0  0  0  0  0
   30.1520   37.9303   68.4655 O   0  5  0  0  0  0  0  0  0  0  0  0
   21.7008   38.0256   66.8686 N   0  0  0  0  0  0  0  0  0  0  0  0
   28.6116   39.4485   66.9695 O   0  0  0  0  0  0  0  0  0  0  0  0
   28.3061   36.8906   67.0005 O   0  0  0  0  0  0  0  0  0  0  0  0
   23.0081   37.8874   66.9121 C   0  0  2  0  0  0  0  0  0  0  0  0
   23.5779   37.4853   68.0765 C   0  0  2  0  0  0  0  0  0  0  0  0
   25.0284   37.2515   68.4085 C   0  0  0  0  0  0  0  0  0  0  0  0
   25.8169   38.5464   68.1999 C   0  0  0  0  0  0  0  0  0  0  0  0
   27.0821   38.4438   68.8564 O   0  0  0  0  0  0  0  0  0  0  0  0
  1 11  1  0  0  0  0
  3 13  1  1  0  0  0
  3 17  2  0  0  0  0
  3 20  1  0  0  0  0
  3 26  1  0  0  0  0
  4 14  1  6  0  0  0
  4 18  1  0  0  0  0
  4 21  2  0  0  0  0
  4 20  1  0  0  0  0
  5 19  1  0  0  0  0
  5  7  1  0  0  0  0
  6  7  2  0  0  0  0
  6 12  1  0  0  0  0
  7  8  1  0  0  0  0
  8  9  1  0  0  0  0
  8 10  2  0  0  0  0
 10 11  1  0  0  0  0
 11 12  2  0  0  0  0
 15 23  1  0  0  0  0
 15 16  1  0  0  0  0
 16 19  1  0  0  0  0
 19 22  1  0  0  0  0
 22  2  1  1  0  0  0
 22 23  1  0  0  0  0
 23 24  1  6  0  0  0
 24 25  1  0  0  0  0
 25 26  1  0  0  0  0
M  CHG  2  13  -1  18  -1
M  END
>  <CHROM.1>
69.29834693,73.50881432,63.28333731,-163.51389362,-120.48055358,163.85017334
171.29618929,158.12542855,24.52082452,39.11836036,67.26168636,-2.90011559
0.11269159,2.89467379

>  <Name>
ligand

>  <RI>
0

>  <Rbt.Current_Directory>
/home/itssahil/PROJECTS/Mol_Feturizer/New_Systems/rnas/2HOJ

>  <Rbt.Executable>
rbdock ($Id: //depot/dev/client3/rdock/2013.1/src/exe/rbdock.cxx#4 $)

>  <Rbt.Library>
libRbt.so (2013.1, Build901 2013/11/27)

>  <Rbt.Parameter_File>
/export/apps/rDock/src/rDock_2013.1_src/data/scripts/dock_solv.prm

>  <Rbt.Receptor>
prm/pocket_docking_5.prm

>  <SCORE>
-26.0944

>  <SCORE.INTER>
-22.5797

>  <SCORE.INTER.CONST>
1

>  <SCORE.INTER.POLAR>
-2.95071

>  <SCORE.INTER.ROT>
8

>  <SCORE.INTER.SOLV>
25.9866

>  <SCORE.INTER.VDW>
-22.8129

>  <SCORE.INTER.norm>
-0.868448

>  <SCORE.INTRA>
-3.51475

>  <SCORE.INTRA.DIHEDRAL>
-4.50894

>  <SCORE.INTRA.DIHEDRAL.0>
11.6398

>  <SCORE.INTRA.POLAR>
0

>  <SCORE.INTRA.POLAR.0>
0

>  <SCORE.INTRA.REPUL>
0

>  <SCORE.INTRA.REPUL.0>
0

>  <SCORE.INTRA.SOLV>
3.10411

>  <SCORE.INTRA.SOLV.lig_0>
-81.722

>  <SCORE.INTRA.VDW>
-2.81234

>  <SCORE.INTRA.VDW.0>
1.12598

>  <SCORE.INTRA.norm>
-0.135183

>  <SCORE.RESTR>
0

>  <SCORE.RESTR.CAVITY>
0

>  <SCORE.RESTR.norm>
0

>  <SCORE.SYSTEM>
0

>  <SCORE.SYSTEM.CONST>
0

>  <SCORE.SYSTEM.DIHEDRAL>
0

>  <SCORE.SYSTEM.SOLV>
0

>  <SCORE.SYSTEM.norm>
0

>  <SCORE.heavy>
26

>  <SCORE.norm>
-1.00363

>  <RMSD>
2.628

$$$$
ligand
 OpenBabel11021811433D
libRbt.so/2013.1/901 2013/11/27
 26 27  0  0  0  0  0  0  0  0999 V2000
   19.6441   43.5265   65.8482 C   0  0  0  0  0  0  0  0  0  0  0  0
   22.6164   38.4999   65.0903 C   0  0  0  0  0  0  0  0  0  0  0  0
   27.7384   40.4960   67.2798 P   0  0  1  0  0  0  0  0  0  0  0  0
   29.2657   38.6792   68.3061 P   0  0  1  0  0  0  0  0  0  0  0  0
   21.0248   38.2204   67.3834 C   0  0  0  0  0  0  0  0  0  0  0  0
   19.7087   39.8573   66.0050 C   0  0  0  0  0  0  0  0  0  0  0  0
   20.6604   39.6254   66.9780 C   0  0  0  0  0  0  0  0  0  0  0  0
   21.2764   40.7256   67.5770 C   0  0  0  0  0  0  0  0  0  0  0  0
   22.2390   40.5461   68.5592 N   0  0  0  0  0  0  0  0  0  0  0  0
   20.9305   41.9491   67.1878 N   0  0  0  0  0  0  0  0  0  0  0  0
   20.0136   42.1250   66.2586 C   0  0  0  0  0  0  0  0  0  0  0  0
   19.4134   41.1071   65.6732 N   0  0  0  0  0  0  0  0  0  0  0  0
   26.6841   40.0825   68.2333 O   0  5  0  0  0  0  0  0  0  0  0  0
   28.9064   37.8395   67.0603 O   0  0  0  0  0  0  0  0  0  0  0  0
   24.7027   37.8388   68.3387 S   0  0  0  0  0  0  0  0  0  0  0  0
   23.0030   37.8821   68.6943 C   0  0  0  0  0  0  0  0  0  0  0  0
   27.5688   42.0583   66.9357 O   0  0  0  0  0  0  0  0  0  0  0  0
   30.7573   38.3151   68.7884 O   0  5  0  0  0  0  0  0  0  0  0  0
   22.4796   38.1106   67.5120 N   0  0  0  0  0  0  0  0  0  0  0  0
   29.1860   40.2453   67.9394 O   0  0  0  0  0  0  0  0  0  0  0  0
   28.2666   38.3660   69.4427 O   0  0  0  0  0  0  0  0  0  0  0  0
   23.2328   38.2391   66.4415 C   0  0  2  0  0  0  0  0  0  0  0  0
   24.5792   38.1390   66.5818 C   0  0  2  0  0  0  0  0  0  0  0  0
   25.6661   38.2470   65.5447 C   0  0  0  0  0  0  0  0  0  0  0  0
   26.2339   39.6681   65.5435 C   0  0  0  0  0  0  0  0  0  0  0  0
   27.6098   39.6309   65.9277 O   0  0  0  0  0  0  0  0  0  0  0  0
  1 11  1  0  0  0  0
  3 13  1  1  0  0  0
  3 17  2  0  0  0  0
  3 20  1  0  0  0  0
  3 26  1  0  0  0  0
  4 14  1  6  0  0  0
  4 18  1  0  0  0  0
  4 21  2  0  0  0  0
  4 20  1  0  0  0  0
  5 19  1  0  0  0  0
  5  7  1  0  0  0  0
  6  7  2  0  0  0  0
  6 12  1  0  0  0  0
  7  8  1  0  0  0  0
  8  9  1  0  0  0  0
  8 10  2  0  0  0  0
 10 11  1  0  0  0  0
 11 12  2  0  0  0  0
 15 23  1  0  0  0  0
 15 16  1  0  0  0  0
 16 19  1  0  0  0  0
 19 22  1  0  0  0  0
 22  2  1  1  0  0  0
 22 23  1  0  0  0  0
 23 24  1  6  0  0  0
 24 25  1  0  0  0  0
 25 26  1  0  0  0  0
M  CHG  2  13  -1  18  -1
M  END
>  <CHROM.1>
57.93040505,114.25231271,136.60468191,52.35749433,-83.43043401,116.49445965
-118.57327522,48.19516428,24.91828264,39.54358926,67.24690589,-2.92716000
0.10631818,2.88297365

>  <Name>
ligand

>  <RI>
0

>  <Rbt.Current_Directory>
/home/itssahil/PROJECTS/Mol_Feturizer/New_Systems/rnas/2HOJ

>  <Rbt.Executable>
rbdock ($Id: //depot/dev/client3/rdock/2013.1/src/exe/rbdock.cxx#4 $)

>  <Rbt.Library>
libRbt.so (2013.1, Build901 2013/11/27)

>  <Rbt.Parameter_File>
/export/apps/rDock/src/rDock_2013.1_src/data/scripts/dock_solv.prm

>  <Rbt.Receptor>
prm/pocket_docking_3.prm

>  <SCORE>
-18.6667

>  <SCORE.INTER>
-20.6438

>  <SCORE.INTER.CONST>
1

>  <SCORE.INTER.POLAR>
-2.64353

>  <SCORE.INTER.ROT>
8

>  <SCORE.INTER.SOLV>
21.9163

>  <SCORE.INTER.VDW>
-21.1896

>  <SCORE.INTER.norm>
-0.793994

>  <SCORE.INTRA>
1.97713

>  <SCORE.INTRA.DIHEDRAL>
6.32148

>  <SCORE.INTRA.DIHEDRAL.0>
11.6398

>  <SCORE.INTRA.POLAR>
0

>  <SCORE.INTRA.POLAR.0>
0

>  <SCORE.INTRA.REPUL>
0

>  <SCORE.INTRA.REPUL.0>
0

>  <SCORE.INTRA.SOLV>
4.54158

>  <SCORE.INTRA.SOLV.lig_0>
-81.722

>  <SCORE.INTRA.VDW>
-3.45441

>  <SCORE.INTRA.VDW.0>
1.12598

>  <SCORE.INTRA.norm>
0.0760433

>  <SCORE.RESTR>
0

>  <SCORE.RESTR.CAVITY>
0

>  <SCORE.RESTR.norm>
0

>  <SCORE.SYSTEM>
0

>  <SCORE.SYSTEM.CONST>
0

>  <SCORE.SYSTEM.DIHEDRAL>
0

>  <SCORE.SYSTEM.SOLV>
0

>  <SCORE.SYSTEM.norm>
0

>  <SCORE.heavy>
26

>  <SCORE.norm>
-0.71795

>  <RMSD>
2.631

$$$$
ligand
 OpenBabel11021811433D
libRbt.so/2013.1/901 2013/11/27
 26 27  0  0  0  0  0  0  0  0999 V2000
   17.1123   40.2914   64.7620 C   0  0  0  0  0  0  0  0  0  0  0  0
   23.4728   38.4862   68.1144 C   0  0  0  0  0  0  0  0  0  0  0  0
   28.6909   37.7501   67.1826 P   0  0  1  0  0  0  0  0  0  0  0  0
   29.2395   40.1781   66.4821 P   0  0  1  0  0  0  0  0  0  0  0  0
   22.0309   40.8322   67.5787 C   0  0  0  0  0  0  0  0  0  0  0  0
   20.1169   41.7834   66.2582 C   0  0  0  0  0  0  0  0  0  0  0  0
   20.7289   40.6876   66.8335 C   0  0  0  0  0  0  0  0  0  0  0  0
   20.1113   39.4421   66.7070 C   0  0  0  0  0  0  0  0  0  0  0  0
   20.6853   38.3106   67.2672 N   0  0  0  0  0  0  0  0  0  0  0  0
   18.9606   39.3573   66.0460 N   0  0  0  0  0  0  0  0  0  0  0  0
   18.4136   40.4282   65.5084 C   0  0  0  0  0  0  0  0  0  0  0  0
   18.9714   41.6189   65.6102 N   0  0  0  0  0  0  0  0  0  0  0  0
   28.2801   36.4317   66.6490 O   0  5  0  0  0  0  0  0  0  0  0  0
   29.2038   40.2220   68.0258 O   0  0  0  0  0  0  0  0  0  0  0  0
   24.7810   40.4092   64.9627 S   0  0  0  0  0  0  0  0  0  0  0  0
   23.4372   41.2429   65.6814 C   0  0  0  0  0  0  0  0  0  0  0  0
   29.8089   37.5445   68.3208 O   0  0  0  0  0  0  0  0  0  0  0  0
   30.5406   40.9629   65.9516 O   0  5  0  0  0  0  0  0  0  0  0  0
   23.1417   40.4656   66.6974 N   0  0  0  0  0  0  0  0  0  0  0  0
   29.2974   38.6459   65.9895 O   0  0  0  0  0  0  0  0  0  0  0  0
   27.9675   40.8513   65.9191 O   0  0  0  0  0  0  0  0  0  0  0  0
   23.8236   39.3680   66.9425 C   0  0  2  0  0  0  0  0  0  0  0  0
   24.8465   39.0426   66.1116 C   0  0  2  0  0  0  0  0  0  0  0  0
   25.7794   37.8607   66.1498 C   0  0  0  0  0  0  0  0  0  0  0  0
   26.2834   37.6517   67.5797 C   0  0  0  0  0  0  0  0  0  0  0  0
   27.4116   38.4966   67.8145 O   0  0  0  0  0  0  0  0  0  0  0  0
  1 11  1  0  0  0  0
  3 13  1  6  0  0  0
  3 17  2  0  0  0  0
  3 20  1  0  0  0  0
  3 26  1  0  0  0  0
  4 14  1  1  0  0  0
  4 18  1  0  0  0  0
  4 21  2  0  0  0  0
  4 20  1  0  0  0  0
  5 19  1  0  0  0  0
  5  7  1  0  0  0  0
  6  7  2  0  0  0  0
  6 12  1  0  0  0  0
  7  8  1  0  0  0  0
  8  9  1  0  0  0  0
  8 10  2  0  0  0  0
 10 11  1  0  0  0  0
 11 12  2  0  0  0  0
 15 23  1  0  0  0  0
 15 16  1  0  0  0  0
 16 19  1  0  0  0  0
 19 22  1  0  0  0  0
 22  2  1  6  0  0  0
 22 23  1  0  0  0  0
 23 24  1  1  0  0  0
 24 25  1  0  0  0  0
 25 26  1  0  0  0  0
M  CHG  2  13  -1  18  -1
M  END
>  <CHROM.1>
160.57441229,69.03986738,-98.03051771,23.18186093,133.99511478,-84.69326660
-81.21764229,-3.03623800,24.96767626,39.49855995,66.55431303,-2.96857099
0.02105535,2.70959462

>  <Name>
ligand

>  <RI>
0

>  <Rbt.Current_Directory>
/home/itssahil/PROJECTS/Mol_Feturizer/New_Systems/rnas/2HOJ

>  <Rbt.Executable>
rbdock ($Id: //depot/dev/client3/rdock/2013.1/src/exe/rbdock.cxx#4 $)

>  <Rbt.Library>
libRbt.so (2013.1, Build901 2013/11/27)

>  <Rbt.Parameter_File>
/export/apps/rDock/src/rDock_2013.1_src/data/scripts/dock_solv.prm

>  <Rbt.Receptor>
prm/pocket_docking_3.prm

>  <SCORE>
-13.3584

>  <SCORE.INTER>
-18.3079

>  <SCORE.INTER.CONST>
1

>  <SCORE.INTER.POLAR>
-2.7577

>  <SCORE.INTER.ROT>
8

>  <SCORE.INTER.SOLV>
20.6503

>  <SCORE.INTER.VDW>
-18.8297

>  <SCORE.INTER.norm>
-0.704152

>  <SCORE.INTRA>
4.94953

>  <SCORE.INTRA.DIHEDRAL>
1.5806

>  <SCORE.INTRA.DIHEDRAL.0>
11.6398

>  <SCORE.INTRA.POLAR>
0

>  <SCORE.INTRA.POLAR.0>
0

>  <SCORE.INTRA.REPUL>
0

>  <SCORE.INTRA.REPUL.0>
0

>  <SCORE.INTRA.SOLV>
3.97835

>  <SCORE.INTRA.SOLV.lig_0>
-81.722

>  <SCORE.INTRA.VDW>
2.17005

>  <SCORE.INTRA.VDW.0>
1.12598

>  <SCORE.INTRA.norm>
0.190366

>  <SCORE.RESTR>
0

>  <SCORE.RESTR.CAVITY>
0

>  <SCORE.RESTR.norm>
0

>  <SCORE.SYSTEM>
0

>  <SCORE.SYSTEM.CONST>
0

>  <SCORE.SYSTEM.DIHEDRAL>
0

>  <SCORE.SYSTEM.SOLV>
0

>  <SCORE.SYSTEM.norm>
0

>  <SCORE.heavy>
26

>  <SCORE.norm>
-0.513785

>  <RMSD>
2.637

$$$$
ligand
 OpenBabel11021811433D
libRbt.so/2013.1/901 2013/11/27
 26 27  0  0  0  0  0  0  0  0999 V2000
   19.4753   44.1086   66.1988 C   0  0  0  0  0  0  0  0  0  0  0  0
   21.4917   38.2364   68.0879 C   0  0  0  0  0  0  0  0  0  0  0  0
   27.9734   39.3553   68.7741 P   0  0  1  0  0  0  0  0  0  0  0  0
   30.0767   38.8660   67.3517 P   0  0  1  0  0  0  0  0  0  0  0  0
   20.6287   38.5846   65.4414 C   0  0  0  0  0  0  0  0  0  0  0  0
   21.3219   40.9420   65.9647 C   0  0  0  0  0  0  0  0  0  0  0  0
   20.3220   40.0465   65.6417 C   0  0  0  0  0  0  0  0  0  0  0  0
   19.0195   40.5296   65.5048 C   0  0  0  0  0  0  0  0  0  0  0  0
   17.9794   39.6708   65.1819 N   0  0  0  0  0  0  0  0  0  0  0  0
   18.7893   41.8255   65.6946 N   0  0  0  0  0  0  0  0  0  0  0  0
   19.7744   42.6460   65.9971 C   0  0  0  0  0  0  0  0  0  0  0  0
   21.0153   42.2213   66.1339 N   0  0  0  0  0  0  0  0  0  0  0  0
   28.5987   38.6675   69.9263 O   0  5  0  0  0  0  0  0  0  0  0  0
   30.6377   38.1669   66.0936 O   0  0  0  0  0  0  0  0  0  0  0  0
   24.4024   37.9985   65.4776 S   0  0  0  0  0  0  0  0  0  0  0  0
   22.8857   38.2992   64.6860 C   0  0  0  0  0  0  0  0  0  0  0  0
   28.3890   40.9093   68.7858 O   0  0  0  0  0  0  0  0  0  0  0  0
   30.4286   40.4355   67.2969 O   0  5  0  0  0  0  0  0  0  0  0  0
   22.0504   38.3439   65.6980 N   0  0  0  0  0  0  0  0  0  0  0  0
   28.4785   38.6745   67.4049 O   0  0  0  0  0  0  0  0  0  0  0  0
   30.7116   38.2400   68.6138 O   0  0  0  0  0  0  0  0  0  0  0  0
   22.4633   38.1810   66.9360 C   0  0  2  0  0  0  0  0  0  0  0  0
   23.7838   37.9541   67.1531 C   0  0  2  0  0  0  0  0  0  0  0  0
   24.5227   37.7309   68.4466 C   0  0  0  0  0  0  0  0  0  0  0  0
   26.0147   37.9992   68.2373 C   0  0  0  0  0  0  0  0  0  0  0  0
   26.3714   39.2267   68.8760 O   0  0  0  0  0  0  0  0  0  0  0  0
  1 11  1  0  0  0  0
  3 13  1  1  0  0  0
  3 17  2  0  0  0  0
  3 20  1  0  0  0  0
  3 26  1  0  0  0  0
  4 14  1  6  0  0  0
  4 18  1  0  0  0  0
  4 21  2  0  0  0  0
  4 20  1  0  0  0  0
  5 19  1  0  0  0  0
  5  7  1  0  0  0  0
  6  7  2  0  0  0  0
  6 12  1  0  0  0  0
  7  8  1  0  0  0  0
  8  9  1  0  0  0  0
  8 10  2  0  0  0  0
 10 11  1  0  0  0  0
 11 12  2  0  0  0  0
 15 23  1  0  0  0  0
 15 16  1  0  0  0  0
 16 19  1  0  0  0  0
 19 22  1  0  0  0  0
 22  2  1  6  0  0  0
 22 23  1  0  0  0  0
 23 24  1  1  0  0  0
 24 25  1  0  0  0  0
 25 26  1  0  0  0  0
M  CHG  2  13  -1  18  -1
M  END
>  <CHROM.1>
-61.23138452,-97.12251659,2.34928598,177.01908181,19.23339494,107.52691292
173.18794058,-87.32500105,24.78614882,39.42002134,67.01313429,-3.01069321
0.25489908,-2.95985218

>  <Name>
ligand

>  <RI>
0

>  <Rbt.Current_Directory>
/home/itssahil/PROJECTS/Mol_Feturizer/New_Systems/rnas/2HOJ

>  <Rbt.Executable>
rbdock ($Id: //depot/dev/client3/rdock/2013.1/src/exe/rbdock.cxx#4 $)

>  <Rbt.Library>
libRbt.so (2013.1, Build901 2013/11/27)

>  <Rbt.Parameter_File>
/export/apps/rDock/src/rDock_2013.1_src/data/scripts/dock_solv.prm

>  <Rbt.Receptor>
prm/pocket_docking_4.prm

>  <SCORE>
-28.5081

>  <SCORE.INTER>
-27.5134

>  <SCORE.INTER.CONST>
1

>  <SCORE.INTER.POLAR>
-4.31654

>  <SCORE.INTER.ROT>
8

>  <SCORE.INTER.SOLV>
30.2203

>  <SCORE.INTER.VDW>
-22.9605

>  <SCORE.INTER.norm>
-1.05821

>  <SCORE.INTRA>
-0.994729

>  <SCORE.INTRA.DIHEDRAL>
-0.704965

>  <SCORE.INTRA.DIHEDRAL.0>
11.6398

>  <SCORE.INTRA.POLAR>
0

>  <SCORE.INTRA.POLAR.0>
0

>  <SCORE.INTRA.REPUL>
0

>  <SCORE.INTRA.REPUL.0>
0

>  <SCORE.INTRA.SOLV>
2.89705

>  <SCORE.INTRA.SOLV.lig_0>
-81.722

>  <SCORE.INTRA.VDW>
-2.09077

>  <SCORE.INTRA.VDW.0>
1.12598

>  <SCORE.INTRA.norm>
-0.0382588

>  <SCORE.RESTR>
0

>  <SCORE.RESTR.CAVITY>
0

>  <SCORE.RESTR.norm>
0

>  <SCORE.SYSTEM>
0

>  <SCORE.SYSTEM.CONST>
0

>  <SCORE.SYSTEM.DIHEDRAL>
0

>  <SCORE.SYSTEM.SOLV>
0

>  <SCORE.SYSTEM.norm>
0

>  <SCORE.heavy>
26

>  <SCORE.norm>
-1.09647

>  <RMSD>
2.657

$$$$
ligand
 OpenBabel11021811433D
libRbt.so/2013.1/901 2013/11/27
 26 27  0  0  0  0  0  0  0  0999 V2000
   19.3449   44.1797   66.1985 C   0  0  0  0  0  0  0  0  0  0  0  0
   23.4007   38.1032   65.5765 C   0  0  0  0  0  0  0  0  0  0  0  0
   27.3890   38.5510   67.0314 P   0  0  1  0  0  0  0  0  0  0  0  0
   29.8007   38.8181   67.9252 P   0  0  1  0  0  0  0  0  0  0  0  0
   20.6540   38.6619   65.6900 C   0  0  0  0  0  0  0  0  0  0  0  0
   21.2642   41.0479   66.1865 C   0  0  0  0  0  0  0  0  0  0  0  0
   20.3061   40.1221   65.8243 C   0  0  0  0  0  0  0  0  0  0  0  0
   19.0068   40.5730   65.5852 C   0  0  0  0  0  0  0  0  0  0  0  0
   18.0080   39.6831   65.2193 N   0  0  0  0  0  0  0  0  0  0  0  0
   18.7392   41.8687   65.7193 N   0  0  0  0  0  0  0  0  0  0  0  0
   19.6853   42.7185   66.0623 C   0  0  0  0  0  0  0  0  0  0  0  0
   20.9220   42.3247   66.2954 N   0  0  0  0  0  0  0  0  0  0  0  0
   27.3329   40.0236   66.8908 O   0  5  0  0  0  0  0  0  0  0  0  0
   29.0584   38.8275   69.2799 O   0  0  0  0  0  0  0  0  0  0  0  0
   21.8610   37.5311   69.1324 S   0  0  0  0  0  0  0  0  0  0  0  0
   20.6475   38.0722   68.0134 C   0  0  0  0  0  0  0  0  0  0  0  0
   26.4456   37.8689   65.9211 O   0  0  0  0  0  0  0  0  0  0  0  0
   31.2127   38.0637   68.0908 O   0  5  0  0  0  0  0  0  0  0  0  0
   21.3363   38.2084   66.9040 N   0  0  0  0  0  0  0  0  0  0  0  0
   28.9061   38.0505   66.8279 O   0  0  0  0  0  0  0  0  0  0  0  0
   30.0453   40.2722   67.4629 O   0  0  0  0  0  0  0  0  0  0  0  0
   22.6237   37.9431   66.8588 C   0  0  2  0  0  0  0  0  0  0  0  0
   23.2392   37.5287   67.9955 C   0  0  2  0  0  0  0  0  0  0  0  0
   24.6816   37.1645   68.2316 C   0  0  0  0  0  0  0  0  0  0  0  0
   25.4831   38.4279   68.5531 C   0  0  0  0  0  0  0  0  0  0  0  0
   26.8799   38.1313   68.5003 O   0  0  0  0  0  0  0  0  0  0  0  0
  1 11  1  0  0  0  0
  3 13  1  6  0  0  0
  3 17  2  0  0  0  0
  3 20  1  0  0  0  0
  3 26  1  0  0  0  0
  4 14  1  1  0  0  0
  4 18  1  0  0  0  0
  4 21  2  0  0  0  0
  4 20  1  0  0  0  0
  5 19  1  0  0  0  0
  5  7  1  0  0  0  0
  6  7  2  0  0  0  0
  6 12  1  0  0  0  0
  7  8  1  0  0  0  0
  8  9  1  0  0  0  0
  8 10  2  0  0  0  0
 10 11  1  0  0  0  0
 11 12  2  0  0  0  0
 15 23  1  0  0  0  0
 15 16  1  0  0  0  0
 16 19  1  0  0  0  0
 19 22  1  0  0  0  0
 22  2  1  1  0  0  0
 22 23  1  0  0  0  0
 23 24  1  6  0  0  0
 24 25  1  0  0  0  0
 25 26  1  0  0  0  0
M  CHG  2  13  -1  18  -1
M  END
>  <CHROM.1>
57.53175595,71.66969370,51.45596013,42.83468431,-94.36644985,-167.95967208
95.91051889,68.11659190,24.32894725,39.18265457,67.15539562,-2.88739146,0.07472571
2.76654792

>  <Name>
ligand

>  <RI>
0

>  <Rbt.Current_Directory>
/home/itssahil/PROJECTS/Mol_Feturizer/New_Systems/rnas/2HOJ

>  <Rbt.Executable>
rbdock ($Id: //depot/dev/client3/rdock/2013.1/src/exe/rbdock.cxx#4 $)

>  <Rbt.Library>
libRbt.so (2013.1, Build901 2013/11/27)

>  <Rbt.Parameter_File>
/export/apps/rDock/src/rDock_2013.1_src/data/scripts/dock_solv.prm

>  <Rbt.Receptor>
prm/pocket_docking_3.prm

>  <SCORE>
-23.943

>  <SCORE.INTER>
-21.4596

>  <SCORE.INTER.CONST>
1

>  <SCORE.INTER.POLAR>
-2.75448

>  <SCORE.INTER.ROT>
8

>  <SCORE.INTER.SOLV>
27.1336

>  <SCORE.INTER.VDW>
-23.1027

>  <SCORE.INTER.norm>
-0.82537

>  <SCORE.INTRA>
-2.51369

>  <SCORE.INTRA.DIHEDRAL>
-1.04076

>  <SCORE.INTRA.DIHEDRAL.0>
11.6398

>  <SCORE.INTRA.POLAR>
0

>  <SCORE.INTRA.POLAR.0>
0

>  <SCORE.INTRA.REPUL>
0

>  <SCORE.INTRA.REPUL.0>
0

>  <SCORE.INTRA.SOLV>
1.39083

>  <SCORE.INTRA.SOLV.lig_0>
-81.722

>  <SCORE.INTRA.VDW>
-2.68872

>  <SCORE.INTRA.VDW.0>
1.12598

>  <SCORE.INTRA.norm>
-0.0966802

>  <SCORE.RESTR>
0.0303294

>  <SCORE.RESTR.CAVITY>
0.0303294

>  <SCORE.RESTR.norm>
0.00116652

>  <SCORE.SYSTEM>
0

>  <SCORE.SYSTEM.CONST>
0

>  <SCORE.SYSTEM.DIHEDRAL>
0

>  <SCORE.SYSTEM.SOLV>
0

>  <SCORE.SYSTEM.norm>
0

>  <SCORE.heavy>
26

>  <SCORE.norm>
-0.920884

>  <RMSD>
2.658

$$$$
ligand
 OpenBabel11021811433D
libRbt.so/2013.1/901 2013/11/27
 26 27  0  0  0  0  0  0  0  0999 V2000
   19.2633   43.6916   66.2174 C   0  0  0  0  0  0  0  0  0  0  0  0
   24.9362   37.8181   66.1681 C   0  0  0  0  0  0  0  0  0  0  0  0
   28.0494   39.7334   69.3805 P   0  0  1  0  0  0  0  0  0  0  0  0
   29.8613   38.7441   67.8233 P   0  0  1  0  0  0  0  0  0  0  0  0
   22.4043   38.9627   65.7821 C   0  0  0  0  0  0  0  0  0  0  0  0
   20.1952   40.1510   65.9213 C   0  0  0  0  0  0  0  0  0  0  0  0
   21.5741   40.2152   65.8973 C   0  0  0  0  0  0  0  0  0  0  0  0
   22.1800   41.4699   65.9827 C   0  0  0  0  0  0  0  0  0  0  0  0
   23.5617   41.5883   65.9623 N   0  0  0  0  0  0  0  0  0  0  0  0
   21.4122   42.5514   66.0781 N   0  0  0  0  0  0  0  0  0  0  0  0
   20.0996   42.4440   66.1024 C   0  0  0  0  0  0  0  0  0  0  0  0
   19.4966   41.2739   66.0233 N   0  0  0  0  0  0  0  0  0  0  0  0
   27.8376   40.1742   70.7778 O   0  5  0  0  0  0  0  0  0  0  0  0
   28.6910   38.6657   66.8181 O   0  0  0  0  0  0  0  0  0  0  0  0
   22.7937   37.9520   69.4444 S   0  0  0  0  0  0  0  0  0  0  0  0
   21.9167   38.6256   68.1047 C   0  0  0  0  0  0  0  0  0  0  0  0
   28.3781   41.0100   68.4584 O   0  0  0  0  0  0  0  0  0  0  0  0
   30.6715   40.1166   67.5998 O   0  5  0  0  0  0  0  0  0  0  0  0
   22.7760   38.4980   67.1203 N   0  0  0  0  0  0  0  0  0  0  0  0
   29.2828   38.6994   69.3257 O   0  0  0  0  0  0  0  0  0  0  0  0
   30.8102   37.5446   67.6021 O   0  0  0  0  0  0  0  0  0  0  0  0
   23.9607   37.9589   67.3093 C   0  0  2  0  0  0  0  0  0  0  0  0
   24.2887   37.5388   68.5577 C   0  0  2  0  0  0  0  0  0  0  0  0
   25.5579   36.8987   69.0559 C   0  0  0  0  0  0  0  0  0  0  0  0
   26.4225   37.9509   69.7540 C   0  0  0  0  0  0  0  0  0  0  0  0
   26.7183   39.0073   68.8383 O   0  0  0  0  0  0  0  0  0  0  0  0
  1 11  1  0  0  0  0
  3 13  1  1  0  0  0
  3 17  2  0  0  0  0
  3 20  1  0  0  0  0
  3 26  1  0  0  0  0
  4 14  1  6  0  0  0
  4 18  1  0  0  0  0
  4 21  2  0  0  0  0
  4 20  1  0  0  0  0
  5 19  1  0  0  0  0
  5  7  1  0  0  0  0
  6  7  2  0  0  0  0
  6 12  1  0  0  0  0
  7  8  1  0  0  0  0
  8  9  1  0  0  0  0
  8 10  2  0  0  0  0
 10 11  1  0  0  0  0
 11 12  2  0  0  0  0
 15 23  1  0  0  0  0
 15 16  1  0  0  0  0
 16 19  1  0  0  0  0
 19 22  1  0  0  0  0
 22  2  1  1  0  0  0
 22 23  1  0  0  0  0
 23 24  1  6  0  0  0
 24 25  1  0  0  0  0
 25 26  1  0  0  0  0
M  CHG  2  13  -1  18  -1
M  END
>  <CHROM.1>
-156.42686538,36.48413217,-93.66196314,-46.44181750,-79.92921772,-58.58693512
-157.57472484,-55.53379990,25.21134569,39.47924297,67.75905807,-2.81946936
0.10270388,2.64668560

>  <Name>
ligand

>  <RI>
0

>  <Rbt.Current_Directory>
/home/itssahil/PROJECTS/Mol_Feturizer/New_Systems/rnas/2HOJ

>  <Rbt.Executable>
rbdock ($Id: //depot/dev/client3/rdock/2013.1/src/exe/rbdock.cxx#4 $)

>  <Rbt.Library>
libRbt.so (2013.1, Build901 2013/11/27)

>  <Rbt.Parameter_File>
/export/apps/rDock/src/rDock_2013.1_src/data/scripts/dock_solv.prm

>  <Rbt.Receptor>
prm/pocket_docking_2.prm

>  <SCORE>
-23.4561

>  <SCORE.INTER>
-20.8253

>  <SCORE.INTER.CONST>
1

>  <SCORE.INTER.POLAR>
-3.60619

>  <SCORE.INTER.ROT>
8

>  <SCORE.INTER.SOLV>
25.5199

>  <SCORE.INTER.VDW>
-19.3029

>  <SCORE.INTER.norm>
-0.800975

>  <SCORE.INTRA>
-4.47014

>  <SCORE.INTRA.DIHEDRAL>
-3.27866

>  <SCORE.INTRA.DIHEDRAL.0>
11.6398

>  <SCORE.INTRA.POLAR>
0

>  <SCORE.INTRA.POLAR.0>
0

>  <SCORE.INTRA.REPUL>
0

>  <SCORE.INTRA.REPUL.0>
0

>  <SCORE.INTRA.SOLV>
0.996951

>  <SCORE.INTRA.SOLV.lig_0>
-81.722

>  <SCORE.INTRA.VDW>
-3.32929

>  <SCORE.INTRA.VDW.0>
1.12598

>  <SCORE.INTRA.norm>
-0.171929

>  <SCORE.RESTR>
1.83935

>  <SCORE.RESTR.CAVITY>
1.83935

>  <SCORE.RESTR.norm>
0.0707443

>  <SCORE.SYSTEM>
0

>  <SCORE.SYSTEM.CONST>
0

>  <SCORE.SYSTEM.DIHEDRAL>
0

>  <SCORE.SYSTEM.SOLV>
0

>  <SCORE.SYSTEM.norm>
0

>  <SCORE.heavy>
26

>  <SCORE.norm>
-0.902159

>  <RMSD>
2.660

$$$$
ligand
 OpenBabel11021811433D
libRbt.so/2013.1/901 2013/11/27
 26 27  0  0  0  0  0  0  0  0999 V2000
   15.4732   39.1573   63.7656 C   0  0  0  0  0  0  0  0  0  0  0  0
   22.5530   42.0672   66.0280 C   0  0  0  0  0  0  0  0  0  0  0  0
   27.1252   38.2031   66.9816 P   0  0  1  0  0  0  0  0  0  0  0  0
   28.2061   36.6203   65.2457 P   0  0  1  0  0  0  0  0  0  0  0  0
   20.2072   40.6263   66.5672 C   0  0  0  0  0  0  0  0  0  0  0  0
   18.4754   38.9447   65.8712 C   0  0  0  0  0  0  0  0  0  0  0  0
   18.9541   40.2389   65.8251 C   0  0  0  0  0  0  0  0  0  0  0  0
   18.2475   41.1796   65.0738 C   0  0  0  0  0  0  0  0  0  0  0  0
   18.6871   42.4927   64.9950 N   0  0  0  0  0  0  0  0  0  0  0  0
   17.1491   40.7967   64.4295 N   0  0  0  0  0  0  0  0  0  0  0  0
   16.7251   39.5519   64.5047 C   0  0  0  0  0  0  0  0  0  0  0  0
   17.3696   38.6394   65.2054 N   0  0  0  0  0  0  0  0  0  0  0  0
   26.3815   38.2750   68.2596 O   0  5  0  0  0  0  0  0  0  0  0  0
   29.0110   35.3157   65.0548 O   0  0  0  0  0  0  0  0  0  0  0  0
   22.8255   38.2760   65.0820 S   0  0  0  0  0  0  0  0  0  0  0  0
   21.2576   38.6384   65.7360 C   0  0  0  0  0  0  0  0  0  0  0  0
   28.3674   39.2243   67.0246 O   0  0  0  0  0  0  0  0  0  0  0  0
   26.9562   36.6344   64.2321 O   0  5  0  0  0  0  0  0  0  0  0  0
   21.3546   39.9230   65.9894 N   0  0  0  0  0  0  0  0  0  0  0  0
   27.6700   36.7036   66.7621 O   0  0  0  0  0  0  0  0  0  0  0  0
   29.1178   37.8339   64.9556 O   0  0  0  0  0  0  0  0  0  0  0  0
   22.4577   40.5916   65.7324 C   0  0  2  0  0  0  0  0  0  0  0  0
   23.5118   39.9212   65.2016 C   0  0  2  0  0  0  0  0  0  0  0  0
   24.8783   40.4247   64.8169 C   0  0  0  0  0  0  0  0  0  0  0  0
   25.8974   40.0022   65.8775 C   0  0  0  0  0  0  0  0  0  0  0  0
   26.1456   38.5993   65.7665 O   0  0  0  0  0  0  0  0  0  0  0  0
  1 11  1  0  0  0  0
  3 13  1  1  0  0  0
  3 17  2  0  0  0  0
  3 20  1  0  0  0  0
  3 26  1  0  0  0  0
  4 14  1  6  0  0  0
  4 18  1  0  0  0  0
  4 21  2  0  0  0  0
  4 20  1  0  0  0  0
  5 19  1  0  0  0  0
  5  7  1  0  0  0  0
  6  7  2  0  0  0  0
  6 12  1  0  0  0  0
  7  8  1  0  0  0  0
  8  9  1  0  0  0  0
  8 10  2  0  0  0  0
 10 11  1  0  0  0  0
 11 12  2  0  0  0  0
 15 23  1  0  0  0  0
 15 16  1  0  0  0  0
 16 19  1  0  0  0  0
 19 22  1  0  0  0  0
 22  2  1  1  0  0  0
 22 23  1  0  0  0  0
 23 24  1  6  0  0  0
 24 25  1  0  0  0  0
 25 26  1  0  0  0  0
M  CHG  2  13  -1  18  -1
M  END
>  <CHROM.1>
169.07269279,-46.05523348,65.42836267,168.08753762,-76.75713390,72.83614620
-175.39372712,70.69513166,23.50876307,38.93291103,65.61485214,2.92063226
-0.18054606,0.36537098

>  <Name>
ligand

>  <RI>
0

>  <Rbt.Current_Directory>
/home/itssahil/PROJECTS/Mol_Feturizer/New_Systems/rnas/2HOJ

>  <Rbt.Executable>
rbdock ($Id: //depot/dev/client3/rdock/2013.1/src/exe/rbdock.cxx#4 $)

>  <Rbt.Library>
libRbt.so (2013.1, Build901 2013/11/27)

>  <Rbt.Parameter_File>
/export/apps/rDock/src/rDock_2013.1_src/data/scripts/dock_solv.prm

>  <Rbt.Receptor>
prm/pocket_docking_6.prm

>  <SCORE>
-23.9967

>  <SCORE.INTER>
-20.0432

>  <SCORE.INTER.CONST>
1

>  <SCORE.INTER.POLAR>
0

>  <SCORE.INTER.ROT>
8

>  <SCORE.INTER.SOLV>
23.9936

>  <SCORE.INTER.VDW>
-30.2933

>  <SCORE.INTER.norm>
-0.770892

>  <SCORE.INTRA>
-3.95354

>  <SCORE.INTRA.DIHEDRAL>
-5.27443

>  <SCORE.INTRA.DIHEDRAL.0>
11.6398

>  <SCORE.INTRA.POLAR>
0

>  <SCORE.INTRA.POLAR.0>
0

>  <SCORE.INTRA.REPUL>
0

>  <SCORE.INTRA.REPUL.0>
0

>  <SCORE.INTRA.SOLV>
3.60027

>  <SCORE.INTRA.SOLV.lig_0>
-81.722

>  <SCORE.INTRA.VDW>
-3.11646

>  <SCORE.INTRA.VDW.0>
1.12598

>  <SCORE.INTRA.norm>
-0.152059

>  <SCORE.RESTR>
0

>  <SCORE.RESTR.CAVITY>
0

>  <SCORE.RESTR.norm>
0

>  <SCORE.SYSTEM>
0

>  <SCORE.SYSTEM.CONST>
0

>  <SCORE.SYSTEM.DIHEDRAL>
0

>  <SCORE.SYSTEM.SOLV>
0

>  <SCORE.SYSTEM.norm>
0

>  <SCORE.heavy>
26

>  <SCORE.norm>
-0.922952

>  <RMSD>
2.665

$$$$
ligand
 OpenBabel11021811433D
libRbt.so/2013.1/901 2013/11/27
 26 27  0  0  0  0  0  0  0  0999 V2000
   15.9867   39.2902   64.2938 C   0  0  0  0  0  0  0  0  0  0  0  0
   21.9346   40.0838   68.7352 C   0  0  0  0  0  0  0  0  0  0  0  0
   27.2390   37.5184   68.3085 P   0  0  1  0  0  0  0  0  0  0  0  0
   27.8100   39.7211   69.5368 P   0  0  1  0  0  0  0  0  0  0  0  0
   21.2150   40.6590   66.0855 C   0  0  0  0  0  0  0  0  0  0  0  0
   19.4726   38.9801   65.4096 C   0  0  0  0  0  0  0  0  0  0  0  0
   19.8308   40.2981   65.6112 C   0  0  0  0  0  0  0  0  0  0  0  0
   18.8781   41.2882   65.3647 C   0  0  0  0  0  0  0  0  0  0  0  0
   19.1883   42.6270   65.5514 N   0  0  0  0  0  0  0  0  0  0  0  0
   17.6694   40.9289   64.9424 N   0  0  0  0  0  0  0  0  0  0  0  0
   17.3685   39.6585   64.7678 C   0  0  0  0  0  0  0  0  0  0  0  0
   18.2456   38.6995   64.9913 N   0  0  0  0  0  0  0  0  0  0  0  0
   27.9994   38.1008   67.1797 O   0  5  0  0  0  0  0  0  0  0  0  0
   26.4610   40.1934   68.9507 O   0  0  0  0  0  0  0  0  0  0  0  0
   23.1516   37.3689   66.1876 S   0  0  0  0  0  0  0  0  0  0  0  0
   22.2933   38.6403   65.3725 C   0  0  0  0  0  0  0  0  0  0  0  0
   27.4152   35.9194   68.3068 O   0  0  0  0  0  0  0  0  0  0  0  0
   28.0385   40.4020   70.9771 O   0  5  0  0  0  0  0  0  0  0  0  0
   21.9700   39.4357   66.3658 N   0  0  0  0  0  0  0  0  0  0  0  0
   27.7949   38.1185   69.6957 O   0  0  0  0  0  0  0  0  0  0  0  0
   28.9561   40.1325   68.5854 O   0  0  0  0  0  0  0  0  0  0  0  0
   22.3124   39.1595   67.6053 C   0  0  2  0  0  0  0  0  0  0  0  0
   23.0075   38.0186   67.8456 C   0  0  2  0  0  0  0  0  0  0  0  0
   23.5187   37.4584   69.1471 C   0  0  0  0  0  0  0  0  0  0  0  0
   24.9534   36.9592   68.9617 C   0  0  0  0  0  0  0  0  0  0  0  0
   25.6792   37.8873   68.1532 O   0  0  0  0  0  0  0  0  0  0  0  0
  1 11  1  0  0  0  0
  3 13  1  6  0  0  0
  3 17  2  0  0  0  0
  3 20  1  0  0  0  0
  3 26  1  0  0  0  0
  4 14  1  6  0  0  0
  4 18  1  0  0  0  0
  4 21  2  0  0  0  0
  4 20  1  0  0  0  0
  5 19  1  0  0  0  0
  5  7  1  0  0  0  0
  6  7  2  0  0  0  0
  6 12  1  0  0  0  0
  7  8  1  0  0  0  0
  8  9  1  0  0  0  0
  8 10  2  0  0  0  0
 10 11  1  0  0  0  0
 11 12  2  0  0  0  0
 15 23  1  0  0  0  0
 15 16  1  0  0  0  0
 16 19  1  0  0  0  0
 19 22  1  0  0  0  0
 22  2  1  1  0  0  0
 22 23  1  0  0  0  0
 23 24  1  6  0  0  0
 24 25  1  0  0  0  0
 25 26  1  0  0  0  0
M  CHG  2  13  -1  18  -1
M  END
>  <CHROM.1>
51.03289563,67.12327421,-4.45512975,47.40764988,44.06801095,41.10828247,165.74861807
160.64356437,23.60132080,38.99560624,67.37860648,3.09777120,-0.42069734,0.24866022

>  <Name>
ligand

>  <RI>
0

>  <Rbt.Current_Directory>
/home/itssahil/PROJECTS/Mol_Feturizer/New_Systems/rnas/2HOJ

>  <Rbt.Executable>
rbdock ($Id: //depot/dev/client3/rdock/2013.1/src/exe/rbdock.cxx#4 $)

>  <Rbt.Library>
libRbt.so (2013.1, Build901 2013/11/27)

>  <Rbt.Parameter_File>
/export/apps/rDock/src/rDock_2013.1_src/data/scripts/dock_solv.prm

>  <Rbt.Receptor>
prm/pocket_docking_6.prm

>  <SCORE>
-26.7097

>  <SCORE.INTER>
-22.0737

>  <SCORE.INTER.CONST>
1

>  <SCORE.INTER.POLAR>
-1.29904

>  <SCORE.INTER.ROT>
8

>  <SCORE.INTER.SOLV>
27.047

>  <SCORE.INTER.VDW>
-28.3347

>  <SCORE.INTER.norm>
-0.848989

>  <SCORE.INTRA>
-4.63602

>  <SCORE.INTRA.DIHEDRAL>
-3.42038

>  <SCORE.INTRA.DIHEDRAL.0>
11.6398

>  <SCORE.INTRA.POLAR>
0

>  <SCORE.INTRA.POLAR.0>
0

>  <SCORE.INTRA.REPUL>
0

>  <SCORE.INTRA.REPUL.0>
0

>  <SCORE.INTRA.SOLV>
-0.855469

>  <SCORE.INTRA.SOLV.lig_0>
-81.722

>  <SCORE.INTRA.VDW>
-2.4981

>  <SCORE.INTRA.VDW.0>
1.12598

>  <SCORE.INTRA.norm>
-0.178308

>  <SCORE.RESTR>
0

>  <SCORE.RESTR.CAVITY>
0

>  <SCORE.RESTR.norm>
0

>  <SCORE.SYSTEM>
0

>  <SCORE.SYSTEM.CONST>
0

>  <SCORE.SYSTEM.DIHEDRAL>
0

>  <SCORE.SYSTEM.SOLV>
0

>  <SCORE.SYSTEM.norm>
0

>  <SCORE.heavy>
26

>  <SCORE.norm>
-1.0273

>  <RMSD>
2.684

$$$$
ligand
 OpenBabel11021811433D
libRbt.so/2013.1/901 2013/11/27
 26 27  0  0  0  0  0  0  0  0999 V2000
   15.7588   38.8431   64.1342 C   0  0  0  0  0  0  0  0  0  0  0  0
   22.4895   43.2249   66.2904 C   0  0  0  0  0  0  0  0  0  0  0  0
   27.5401   40.5660   67.6493 P   0  0  1  0  0  0  0  0  0  0  0  0
   27.7091   38.4178   69.0788 P   0  0  1  0  0  0  0  0  0  0  0  0
   20.2107   41.5914   66.3806 C   0  0  0  0  0  0  0  0  0  0  0  0
   18.1609   41.5054   64.9305 C   0  0  0  0  0  0  0  0  0  0  0  0
   19.0327   40.8627   65.7868 C   0  0  0  0  0  0  0  0  0  0  0  0
   18.7954   39.5205   66.0883 C   0  0  0  0  0  0  0  0  0  0  0  0
   19.6413   38.8300   66.9434 N   0  0  0  0  0  0  0  0  0  0  0  0
   17.7423   38.9148   65.5478 N   0  0  0  0  0  0  0  0  0  0  0  0
   16.9384   39.5650   64.7316 C   0  0  0  0  0  0  0  0  0  0  0  0
   17.1346   40.8329   64.4269 N   0  0  0  0  0  0  0  0  0  0  0  0
   28.2740   41.2305   68.7500 O   0  5  0  0  0  0  0  0  0  0  0  0
   28.1628   39.1762   70.3457 O   0  0  0  0  0  0  0  0  0  0  0  0
   23.1109   39.6378   64.8451 S   0  0  0  0  0  0  0  0  0  0  0  0
   21.4685   39.8109   65.3837 C   0  0  0  0  0  0  0  0  0  0  0  0
   28.5882   40.0160   66.5599 O   0  0  0  0  0  0  0  0  0  0  0  0
   26.9783   37.0485   69.5044 O   0  5  0  0  0  0  0  0  0  0  0  0
   21.4521   41.0469   65.8263 N   0  0  0  0  0  0  0  0  0  0  0  0
   26.6852   39.3361   68.2409 O   0  0  0  0  0  0  0  0  0  0  0  0
   28.9415   38.0932   68.2049 O   0  0  0  0  0  0  0  0  0  0  0  0
   22.5246   41.8067   65.7792 C   0  0  2  0  0  0  0  0  0  0  0  0
   23.6669   41.2826   65.2665 C   0  0  2  0  0  0  0  0  0  0  0  0
   25.0242   41.9132   65.0964 C   0  0  0  0  0  0  0  0  0  0  0  0
   26.0882   41.0204   65.7391 C   0  0  0  0  0  0  0  0  0  0  0  0
   26.5449   41.6226   66.9519 O   0  0  0  0  0  0  0  0  0  0  0  0
  1 11  1  0  0  0  0
  3 13  1  1  0  0  0
  3 17  2  0  0  0  0
  3 20  1  0  0  0  0
  3 26  1  0  0  0  0
  4 14  1  1  0  0  0
  4 18  1  0  0  0  0
  4 21  2  0  0  0  0
  4 20  1  0  0  0  0
  5 19  1  0  0  0  0
  5  7  1  0  0  0  0
  6  7  2  0  0  0  0
  6 12  1  0  0  0  0
  7  8  1  0  0  0  0
  8  9  1  0  0  0  0
  8 10  2  0  0  0  0
 10 11  1  0  0  0  0
 11 12  2  0  0  0  0
 15 23  1  0  0  0  0
 15 16  1  0  0  0  0
 16 19  1  0  0  0  0
 19 22  1  0  0  0  0
 22  2  1  1  0  0  0
 22 23  1  0  0  0  0
 23 24  1  6  0  0  0
 24 25  1  0  0  0  0
 25 26  1  0  0  0  0
M  CHG  2  13  -1  18  -1
M  END
>  <CHROM.1>
-53.08134263,-25.73485588,-111.94192499,68.82189796,-53.04447112,-106.82088255
174.19587151,167.82755993,23.63876362,40.10252819,66.65421272,2.91952005
-0.24629141,-0.54537792

>  <Name>
ligand

>  <RI>
0

>  <Rbt.Current_Directory>
/home/itssahil/PROJECTS/Mol_Feturizer/New_Systems/rnas/2HOJ

>  <Rbt.Executable>
rbdock ($Id: //depot/dev/client3/rdock/2013.1/src/exe/rbdock.cxx#4 $)

>  <Rbt.Library>
libRbt.so (2013.1, Build901 2013/11/27)

>  <Rbt.Parameter_File>
/export/apps/rDock/src/rDock_2013.1_src/data/scripts/dock_solv.prm

>  <Rbt.Receptor>
prm/pocket_docking_3.prm

>  <SCORE>
-19.6109

>  <SCORE.INTER>
-19.554

>  <SCORE.INTER.CONST>
1

>  <SCORE.INTER.POLAR>
-1.26865

>  <SCORE.INTER.ROT>
8

>  <SCORE.INTER.SOLV>
21.0795

>  <SCORE.INTER.VDW>
-24.767

>  <SCORE.INTER.norm>
-0.752076

>  <SCORE.INTRA>
-0.0569618

>  <SCORE.INTRA.DIHEDRAL>
-1.00178

>  <SCORE.INTRA.DIHEDRAL.0>
11.6398

>  <SCORE.INTRA.POLAR>
0

>  <SCORE.INTRA.POLAR.0>
0

>  <SCORE.INTRA.REPUL>
0

>  <SCORE.INTRA.REPUL.0>
0

>  <SCORE.INTRA.SOLV>
3.03147

>  <SCORE.INTRA.SOLV.lig_0>
-81.722

>  <SCORE.INTRA.VDW>
-1.07181

>  <SCORE.INTRA.VDW.0>
1.12598

>  <SCORE.INTRA.norm>
-0.00219084

>  <SCORE.RESTR>
0

>  <SCORE.RESTR.CAVITY>
0

>  <SCORE.RESTR.norm>
0

>  <SCORE.SYSTEM>
0

>  <SCORE.SYSTEM.CONST>
0

>  <SCORE.SYSTEM.DIHEDRAL>
0

>  <SCORE.SYSTEM.SOLV>
0

>  <SCORE.SYSTEM.norm>
0

>  <SCORE.heavy>
26

>  <SCORE.norm>
-0.754266

>  <RMSD>
2.690

$$$$
ligand
 OpenBabel11021811433D
libRbt.so/2013.1/901 2013/11/27
 26 27  0  0  0  0  0  0  0  0999 V2000
   19.9907   43.6373   66.0098 C   0  0  0  0  0  0  0  0  0  0  0  0
   22.5951   38.3882   65.0867 C   0  0  0  0  0  0  0  0  0  0  0  0
   28.1414   38.7064   67.4061 P   0  0  1  0  0  0  0  0  0  0  0  0
   30.6869   38.7947   66.9595 P   0  0  1  0  0  0  0  0  0  0  0  0
   21.0055   38.2077   67.3911 C   0  0  0  0  0  0  0  0  0  0  0  0
   19.7879   39.9704   66.0788 C   0  0  0  0  0  0  0  0  0  0  0  0
   20.7380   39.6453   67.0264 C   0  0  0  0  0  0  0  0  0  0  0  0
   21.4444   40.6822   67.6384 C   0  0  0  0  0  0  0  0  0  0  0  0
   22.4096   40.4083   68.5960 N   0  0  0  0  0  0  0  0  0  0  0  0
   21.1824   41.9371   67.2852 N   0  0  0  0  0  0  0  0  0  0  0  0
   20.2636   42.2027   66.3794 C   0  0  0  0  0  0  0  0  0  0  0  0
   19.5792   41.2463   65.7827 N   0  0  0  0  0  0  0  0  0  0  0  0
   28.2107   37.3783   66.7557 O   0  5  0  0  0  0  0  0  0  0  0  0
   31.8916   39.7095   66.6459 O   0  0  0  0  0  0  0  0  0  0  0  0
   24.6542   37.5583   68.3137 S   0  0  0  0  0  0  0  0  0  0  0  0
   22.9647   37.7204   68.6835 C   0  0  0  0  0  0  0  0  0  0  0  0
   28.3082   38.5350   68.9969 O   0  0  0  0  0  0  0  0  0  0  0  0
   30.8285   38.2118   68.4529 O   0  5  0  0  0  0  0  0  0  0  0  0
   22.4497   37.9935   67.5070 N   0  0  0  0  0  0  0  0  0  0  0  0
   29.3231   39.6428   66.8400 O   0  0  0  0  0  0  0  0  0  0  0  0
   30.6543   37.6241   65.9512 O   0  0  0  0  0  0  0  0  0  0  0  0
   23.2018   38.0750   66.4311 C   0  0  2  0  0  0  0  0  0  0  0  0
   24.5387   37.8782   66.5597 C   0  0  2  0  0  0  0  0  0  0  0  0
   25.6224   37.9152   65.5143 C   0  0  0  0  0  0  0  0  0  0  0  0
   26.4652   39.1799   65.6945 C   0  0  0  0  0  0  0  0  0  0  0  0
   26.7184   39.3885   67.0854 O   0  0  0  0  0  0  0  0  0  0  0  0
  1 11  1  0  0  0  0
  3 13  1  6  0  0  0
  3 17  2  0  0  0  0
  3 20  1  0  0  0  0
  3 26  1  0  0  0  0
  4 14  1  6  0  0  0
  4 18  1  0  0  0  0
  4 21  2  0  0  0  0
  4 20  1  0  0  0  0
  5 19  1  0  0  0  0
  5  7  1  0  0  0  0
  6  7  2  0  0  0  0
  6 12  1  0  0  0  0
  7  8  1  0  0  0  0
  8  9  1  0  0  0  0
  8 10  2  0  0  0  0
 10 11  1  0  0  0  0
 11 12  2  0  0  0  0
 15 23  1  0  0  0  0
 15 16  1  0  0  0  0
 16 19  1  0  0  0  0
 19 22  1  0  0  0  0
 22  2  1  1  0  0  0
 22 23  1  0  0  0  0
 23 24  1  6  0  0  0
 24 25  1  0  0  0  0
 25 26  1  0  0  0  0
M  CHG  2  13  -1  18  -1
M  END
>  <CHROM.1>
-50.37771207,113.03786413,137.45396641,-171.02073488,-72.55403076,42.43029867
94.06596587,-44.23765528,25.36512018,39.12250815,67.04239875,-2.93376500
-0.02007550,2.85442213

>  <Name>
ligand

>  <RI>
0

>  <Rbt.Current_Directory>
/home/itssahil/PROJECTS/Mol_Feturizer/New_Systems/rnas/2HOJ

>  <Rbt.Executable>
rbdock ($Id: //depot/dev/client3/rdock/2013.1/src/exe/rbdock.cxx#4 $)

>  <Rbt.Library>
libRbt.so (2013.1, Build901 2013/11/27)

>  <Rbt.Parameter_File>
/export/apps/rDock/src/rDock_2013.1_src/data/scripts/dock_solv.prm

>  <Rbt.Receptor>
prm/pocket_docking_7.prm

>  <SCORE>
-18.4918

>  <SCORE.INTER>
-20.018

>  <SCORE.INTER.CONST>
1

>  <SCORE.INTER.POLAR>
-1.71847

>  <SCORE.INTER.ROT>
8

>  <SCORE.INTER.SOLV>
22.5277

>  <SCORE.INTER.VDW>
-24.0596

>  <SCORE.INTER.norm>
-0.769921

>  <SCORE.INTRA>
1.52614

>  <SCORE.INTRA.DIHEDRAL>
-0.419702

>  <SCORE.INTRA.DIHEDRAL.0>
11.6398

>  <SCORE.INTRA.POLAR>
0

>  <SCORE.INTRA.POLAR.0>
0

>  <SCORE.INTRA.REPUL>
0

>  <SCORE.INTRA.REPUL.0>
0

>  <SCORE.INTRA.SOLV>
8.08434

>  <SCORE.INTRA.SOLV.lig_0>
-81.722

>  <SCORE.INTRA.VDW>
-2.30618

>  <SCORE.INTRA.VDW.0>
1.12598

>  <SCORE.INTRA.norm>
0.0586976

>  <SCORE.RESTR>
0

>  <SCORE.RESTR.CAVITY>
0

>  <SCORE.RESTR.norm>
0

>  <SCORE.SYSTEM>
0

>  <SCORE.SYSTEM.CONST>
0

>  <SCORE.SYSTEM.DIHEDRAL>
0

>  <SCORE.SYSTEM.SOLV>
0

>  <SCORE.SYSTEM.norm>
0

>  <SCORE.heavy>
26

>  <SCORE.norm>
-0.711224

>  <RMSD>
2.704

$$$$
ligand
 OpenBabel11021811433D
libRbt.so/2013.1/901 2013/11/27
 26 27  0  0  0  0  0  0  0  0999 V2000
   15.0993   38.8515   63.4672 C   0  0  0  0  0  0  0  0  0  0  0  0
   22.1325   41.6633   66.9695 C   0  0  0  0  0  0  0  0  0  0  0  0
   27.8530   38.4967   65.6334 P   0  0  1  0  0  0  0  0  0  0  0  0
   28.8744   38.3377   68.0037 P   0  0  1  0  0  0  0  0  0  0  0  0
   19.6517   40.4431   66.4938 C   0  0  0  0  0  0  0  0  0  0  0  0
   17.9521   38.7370   65.7780 C   0  0  0  0  0  0  0  0  0  0  0  0
   18.4467   40.0232   65.6920 C   0  0  0  0  0  0  0  0  0  0  0  0
   17.8019   40.9250   64.8437 C   0  0  0  0  0  0  0  0  0  0  0  0
   18.2598   42.2284   64.7215 N   0  0  0  0  0  0  0  0  0  0  0  0
   16.7448   40.5141   64.1495 N   0  0  0  0  0  0  0  0  0  0  0  0
   16.3033   39.2784   64.2655 C   0  0  0  0  0  0  0  0  0  0  0  0
   16.8899   38.4024   65.0576 N   0  0  0  0  0  0  0  0  0  0  0  0
   28.0507   39.0063   64.2576 O   0  5  0  0  0  0  0  0  0  0  0  0
   28.1176   39.5407   68.6087 O   0  0  0  0  0  0  0  0  0  0  0  0
   22.3989   38.4592   64.7324 S   0  0  0  0  0  0  0  0  0  0  0  0
   20.7485   38.7647   65.1800 C   0  0  0  0  0  0  0  0  0  0  0  0
   27.4249   36.9471   65.5760 O   0  0  0  0  0  0  0  0  0  0  0  0
   27.9523   37.0217   68.0933 O   0  5  0  0  0  0  0  0  0  0  0  0
   20.8573   39.8497   65.9112 N   0  0  0  0  0  0  0  0  0  0  0  0
   29.2259   38.6443   66.4622 O   0  0  0  0  0  0  0  0  0  0  0  0
   30.1826   38.1040   68.7924 O   0  0  0  0  0  0  0  0  0  0  0  0
   22.0241   40.4165   66.1284 C   0  0  2  0  0  0  0  0  0  0  0  0
   23.1305   39.8489   65.5841 C   0  0  2  0  0  0  0  0  0  0  0  0
   24.5728   40.2744   65.6706 C   0  0  0  0  0  0  0  0  0  0  0  0
   25.4720   39.0362   65.6906 C   0  0  0  0  0  0  0  0  0  0  0  0
   26.6952   39.3474   66.3606 O   0  0  0  0  0  0  0  0  0  0  0  0
  1 11  1  0  0  0  0
  3 13  1  6  0  0  0
  3 17  2  0  0  0  0
  3 20  1  0  0  0  0
  3 26  1  0  0  0  0
  4 14  1  1  0  0  0
  4 18  1  0  0  0  0
  4 21  2  0  0  0  0
  4 20  1  0  0  0  0
  5 19  1  0  0  0  0
  5  7  1  0  0  0  0
  6  7  2  0  0  0  0
  6 12  1  0  0  0  0
  7  8  1  0  0  0  0
  8  9  1  0  0  0  0
  8 10  2  0  0  0  0
 10 11  1  0  0  0  0
 11 12  2  0  0  0  0
 15 23  1  0  0  0  0
 15 16  1  0  0  0  0
 16 19  1  0  0  0  0
 19 22  1  0  0  0  0
 22  2  1  1  0  0  0
 22 23  1  0  0  0  0
 23 24  1  6  0  0  0
 24 25  1  0  0  0  0
 25 26  1  0  0  0  0
M  CHG  2  13  -1  18  -1
M  END
>  <CHROM.1>
169.63173897,-23.28539978,73.56710071,-74.50290363,-34.58993690,-153.71528370
-145.93459156,67.67785681,23.50765043,39.19775105,65.92894122,-3.10329788
-0.23756956,0.73908917

>  <Name>
ligand

>  <RI>
0

>  <Rbt.Current_Directory>
/home/itssahil/PROJECTS/Mol_Feturizer/New_Systems/rnas/2HOJ

>  <Rbt.Executable>
rbdock ($Id: //depot/dev/client3/rdock/2013.1/src/exe/rbdock.cxx#4 $)

>  <Rbt.Library>
libRbt.so (2013.1, Build901 2013/11/27)

>  <Rbt.Parameter_File>
/export/apps/rDock/src/rDock_2013.1_src/data/scripts/dock_solv.prm

>  <Rbt.Receptor>
prm/pocket_docking_3.prm

>  <SCORE>
-22.1968

>  <SCORE.INTER>
-21.207

>  <SCORE.INTER.CONST>
1

>  <SCORE.INTER.POLAR>
-1.61583

>  <SCORE.INTER.ROT>
8

>  <SCORE.INTER.SOLV>
28.825

>  <SCORE.INTER.VDW>
-27.2935

>  <SCORE.INTER.norm>
-0.815652

>  <SCORE.INTRA>
-1.17271

>  <SCORE.INTRA.DIHEDRAL>
0.466372

>  <SCORE.INTRA.DIHEDRAL.0>
11.6398

>  <SCORE.INTRA.POLAR>
0

>  <SCORE.INTRA.POLAR.0>
0

>  <SCORE.INTRA.REPUL>
0

>  <SCORE.INTRA.REPUL.0>
0

>  <SCORE.INTRA.SOLV>
1.21507

>  <SCORE.INTRA.SOLV.lig_0>
-81.722

>  <SCORE.INTRA.VDW>
-2.01342

>  <SCORE.INTRA.VDW.0>
1.12598

>  <SCORE.INTRA.norm>
-0.0451041

>  <SCORE.RESTR>
0.182836

>  <SCORE.RESTR.CAVITY>
0.182836

>  <SCORE.RESTR.norm>
0.00703217

>  <SCORE.SYSTEM>
0

>  <SCORE.SYSTEM.CONST>
0

>  <SCORE.SYSTEM.DIHEDRAL>
0

>  <SCORE.SYSTEM.SOLV>
0

>  <SCORE.SYSTEM.norm>
0

>  <SCORE.heavy>
26

>  <SCORE.norm>
-0.853724

>  <RMSD>
2.705

$$$$
ligand
 OpenBabel11021811433D
libRbt.so/2013.1/901 2013/11/27
 26 27  0  0  0  0  0  0  0  0999 V2000
   16.1517   39.2746   64.2597 C   0  0  0  0  0  0  0  0  0  0  0  0
   22.8162   39.9414   65.2156 C   0  0  0  0  0  0  0  0  0  0  0  0
   27.8376   38.5822   65.5231 P   0  0  1  0  0  0  0  0  0  0  0  0
   28.8116   36.2848   64.8447 P   0  0  1  0  0  0  0  0  0  0  0  0
   20.8714   41.2317   66.7722 C   0  0  0  0  0  0  0  0  0  0  0  0
   19.2870   39.3771   66.1706 C   0  0  0  0  0  0  0  0  0  0  0  0
   19.6219   40.7150   66.1066 C   0  0  0  0  0  0  0  0  0  0  0  0
   18.7735   41.5772   65.4099 C   0  0  0  0  0  0  0  0  0  0  0  0
   19.0655   42.9298   65.3159 N   0  0  0  0  0  0  0  0  0  0  0  0
   17.6832   41.0813   64.8323 N   0  0  0  0  0  0  0  0  0  0  0  0
   17.3991   39.7983   64.9224 C   0  0  0  0  0  0  0  0  0  0  0  0
   18.1798   38.9577   65.5727 N   0  0  0  0  0  0  0  0  0  0  0  0
   28.0075   39.6883   66.4923 O   0  5  0  0  0  0  0  0  0  0  0  0
   27.7214   36.4484   63.7626 O   0  0  0  0  0  0  0  0  0  0  0  0
   22.4589   38.4154   68.8053 S   0  0  0  0  0  0  0  0  0  0  0  0
   21.3534   39.7366   68.5828 C   0  0  0  0  0  0  0  0  0  0  0  0
   27.4898   39.1866   64.0735 O   0  0  0  0  0  0  0  0  0  0  0  0
   30.1154   35.6000   64.1956 O   0  5  0  0  0  0  0  0  0  0  0  0
   21.6153   40.1113   67.3520 N   0  0  0  0  0  0  0  0  0  0  0  0
   29.2019   37.7307   65.4369 O   0  0  0  0  0  0  0  0  0  0  0  0
   28.2743   35.3905   65.9847 O   0  0  0  0  0  0  0  0  0  0  0  0
   22.5278   39.5001   66.6284 C   0  0  2  0  0  0  0  0  0  0  0  0
   23.2101   38.4671   67.1851 C   0  0  2  0  0  0  0  0  0  0  0  0
   24.2953   37.6026   66.5989 C   0  0  0  0  0  0  0  0  0  0  0  0
   25.5136   38.4661   66.2642 C   0  0  0  0  0  0  0  0  0  0  0  0
   26.6382   37.6228   66.0072 O   0  0  0  0  0  0  0  0  0  0  0  0
  1 11  1  0  0  0  0
  3 13  1  1  0  0  0
  3 17  2  0  0  0  0
  3 20  1  0  0  0  0
  3 26  1  0  0  0  0
  4 14  1  6  0  0  0
  4 18  1  0  0  0  0
  4 21  2  0  0  0  0
  4 20  1  0  0  0  0
  5 19  1  0  0  0  0
  5  7  1  0  0  0  0
  6  7  2  0  0  0  0
  6 12  1  0  0  0  0
  7  8  1  0  0  0  0
  8  9  1  0  0  0  0
  8 10  2  0  0  0  0
 10 11  1  0  0  0  0
 11 12  2  0  0  0  0
 15 23  1  0  0  0  0
 15 16  1  0  0  0  0
 16 19  1  0  0  0  0
 19 22  1  0  0  0  0
 22  2  1  1  0  0  0
 22 23  1  0  0  0  0
 23 24  1  6  0  0  0
 24 25  1  0  0  0  0
 25 26  1  0  0  0  0
M  CHG  2  13  -1  18  -1
M  END
>  <CHROM.1>
159.06620596,-89.15457514,3.65832653,37.83916725,-117.56794590,166.58210298
174.55131226,51.26566538,23.88673738,38.75777264,65.88218153,3.03786198,-0.31475520
1.45437304

>  <Name>
ligand

>  <RI>
0

>  <Rbt.Current_Directory>
/home/itssahil/PROJECTS/Mol_Feturizer/New_Systems/rnas/2HOJ

>  <Rbt.Executable>
rbdock ($Id: //depot/dev/client3/rdock/2013.1/src/exe/rbdock.cxx#4 $)

>  <Rbt.Library>
libRbt.so (2013.1, Build901 2013/11/27)

>  <Rbt.Parameter_File>
/export/apps/rDock/src/rDock_2013.1_src/data/scripts/dock_solv.prm

>  <Rbt.Receptor>
prm/pocket_docking_8.prm

>  <SCORE>
-24.6981

>  <SCORE.INTER>
-19.5642

>  <SCORE.INTER.CONST>
1

>  <SCORE.INTER.POLAR>
0

>  <SCORE.INTER.ROT>
8

>  <SCORE.INTER.SOLV>
27.5095

>  <SCORE.INTER.VDW>
-31.146

>  <SCORE.INTER.norm>
-0.752469

>  <SCORE.INTRA>
-5.13394

>  <SCORE.INTRA.DIHEDRAL>
-4.78994

>  <SCORE.INTRA.DIHEDRAL.0>
11.6398

>  <SCORE.INTRA.POLAR>
0

>  <SCORE.INTRA.POLAR.0>
0

>  <SCORE.INTRA.REPUL>
0

>  <SCORE.INTRA.REPUL.0>
0

>  <SCORE.INTRA.SOLV>
-0.688297

>  <SCORE.INTRA.SOLV.lig_0>
-81.722

>  <SCORE.INTRA.VDW>
-2.39482

>  <SCORE.INTRA.VDW.0>
1.12598

>  <SCORE.INTRA.norm>
-0.197459

>  <SCORE.RESTR>
0

>  <SCORE.RESTR.CAVITY>
0

>  <SCORE.RESTR.norm>
0

>  <SCORE.SYSTEM>
0

>  <SCORE.SYSTEM.CONST>
0

>  <SCORE.SYSTEM.DIHEDRAL>
0

>  <SCORE.SYSTEM.SOLV>
0

>  <SCORE.SYSTEM.norm>
0

>  <SCORE.heavy>
26

>  <SCORE.norm>
-0.949928

>  <RMSD>
2.706

$$$$
ligand
 OpenBabel11021811433D
libRbt.so/2013.1/901 2013/11/27
 26 27  0  0  0  0  0  0  0  0999 V2000
   17.8737   40.6036   65.3760 C   0  0  0  0  0  0  0  0  0  0  0  0
   25.7690   40.5718   64.7008 C   0  0  0  0  0  0  0  0  0  0  0  0
   29.1634   38.6992   68.2551 P   0  0  1  0  0  0  0  0  0  0  0  0
   27.4334   39.3796   70.0526 P   0  0  1  0  0  0  0  0  0  0  0  0
   23.4753   41.2460   66.1684 C   0  0  0  0  0  0  0  0  0  0  0  0
   21.4662   39.8626   65.5668 C   0  0  0  0  0  0  0  0  0  0  0  0
   21.9924   41.0774   65.9590 C   0  0  0  0  0  0  0  0  0  0  0  0
   21.1158   42.1456   66.1569 C   0  0  0  0  0  0  0  0  0  0  0  0
   21.5942   43.3864   66.5504 N   0  0  0  0  0  0  0  0  0  0  0  0
   19.8147   41.9574   65.9567 N   0  0  0  0  0  0  0  0  0  0  0  0
   19.3548   40.7797   65.5872 C   0  0  0  0  0  0  0  0  0  0  0  0
   20.1563   39.7509   65.3917 N   0  0  0  0  0  0  0  0  0  0  0  0
   29.6368   40.0453   67.8605 O   0  5  0  0  0  0  0  0  0  0  0  0
   27.2656   39.7641   71.5393 O   0  0  0  0  0  0  0  0  0  0  0  0
   24.6135   37.7319   67.1384 S   0  0  0  0  0  0  0  0  0  0  0  0
   23.5557   39.1056   67.2447 C   0  0  0  0  0  0  0  0  0  0  0  0
   30.2932   37.6086   67.9060 O   0  0  0  0  0  0  0  0  0  0  0  0
   27.3406   40.7027   69.1411 O   0  5  0  0  0  0  0  0  0  0  0  0
   24.0915   39.9341   66.3784 N   0  0  0  0  0  0  0  0  0  0  0  0
   28.8670   38.6778   69.8379 O   0  0  0  0  0  0  0  0  0  0  0  0
   26.3134   38.3954   69.6466 O   0  0  0  0  0  0  0  0  0  0  0  0
   25.1663   39.6098   65.6933 C   0  0  2  0  0  0  0  0  0  0  0  0
   25.7257   38.3914   65.9054 C   0  0  2  0  0  0  0  0  0  0  0  0
   26.9428   37.7674   65.2743 C   0  0  0  0  0  0  0  0  0  0  0  0
   28.1854   38.1278   66.0916 C   0  0  0  0  0  0  0  0  0  0  0  0
   27.8117   38.3483   67.4531 O   0  0  0  0  0  0  0  0  0  0  0  0
  1 11  1  0  0  0  0
  3 13  1  6  0  0  0
  3 17  2  0  0  0  0
  3 20  1  0  0  0  0
  3 26  1  0  0  0  0
  4 14  1  1  0  0  0
  4 18  1  0  0  0  0
  4 21  2  0  0  0  0
  4 20  1  0  0  0  0
  5 19  1  0  0  0  0
  5  7  1  0  0  0  0
  6  7  2  0  0  0  0
  6 12  1  0  0  0  0
  7  8  1  0  0  0  0
  8  9  1  0  0  0  0
  8 10  2  0  0  0  0
 10 11  1  0  0  0  0
 11 12  2  0  0  0  0
 15 23  1  0  0  0  0
 15 16  1  0  0  0  0
 16 19  1  0  0  0  0
 19 22  1  0  0  0  0
 22  2  1  1  0  0  0
 22 23  1  0  0  0  0
 23 24  1  6  0  0  0
 24 25  1  0  0  0  0
 25 26  1  0  0  0  0
M  CHG  2  13  -1  18  -1
M  END
>  <CHROM.1>
79.00019474,-48.67443117,-20.45355497,-163.68996217,-90.77877372,27.82204623
179.16312788,71.01557028,25.25530338,39.57955099,67.30018146,2.93503740,0.37559782
-1.97869388

>  <Name>
ligand

>  <RI>
0

>  <Rbt.Current_Directory>
/home/itssahil/PROJECTS/Mol_Feturizer/New_Systems/rnas/2HOJ

>  <Rbt.Executable>
rbdock ($Id: //depot/dev/client3/rdock/2013.1/src/exe/rbdock.cxx#4 $)

>  <Rbt.Library>
libRbt.so (2013.1, Build901 2013/11/27)

>  <Rbt.Parameter_File>
/export/apps/rDock/src/rDock_2013.1_src/data/scripts/dock_solv.prm

>  <Rbt.Receptor>
prm/pocket_docking_5.prm

>  <SCORE>
-22.6167

>  <SCORE.INTER>
-19.7849

>  <SCORE.INTER.CONST>
1

>  <SCORE.INTER.POLAR>
-2.96918

>  <SCORE.INTER.ROT>
8

>  <SCORE.INTER.SOLV>
20.7397

>  <SCORE.INTER.VDW>
-19.1392

>  <SCORE.INTER.norm>
-0.760956

>  <SCORE.INTRA>
-2.97978

>  <SCORE.INTRA.DIHEDRAL>
-2.54416

>  <SCORE.INTRA.DIHEDRAL.0>
11.6398

>  <SCORE.INTRA.POLAR>
0

>  <SCORE.INTRA.POLAR.0>
0

>  <SCORE.INTRA.REPUL>
0

>  <SCORE.INTRA.REPUL.0>
0

>  <SCORE.INTRA.SOLV>
2.72269

>  <SCORE.INTRA.SOLV.lig_0>
-81.722

>  <SCORE.INTRA.VDW>
-3.06905

>  <SCORE.INTRA.VDW.0>
1.12598

>  <SCORE.INTRA.norm>
-0.114607

>  <SCORE.RESTR>
0.14798

>  <SCORE.RESTR.CAVITY>
0.14798

>  <SCORE.RESTR.norm>
0.00569156

>  <SCORE.SYSTEM>
0

>  <SCORE.SYSTEM.CONST>
0

>  <SCORE.SYSTEM.DIHEDRAL>
0

>  <SCORE.SYSTEM.SOLV>
0

>  <SCORE.SYSTEM.norm>
0

>  <SCORE.heavy>
26

>  <SCORE.norm>
-0.869871

>  <RMSD>
2.716

$$$$
ligand
 OpenBabel11021811433D
libRbt.so/2013.1/901 2013/11/27
 26 27  0  0  0  0  0  0  0  0999 V2000
   15.8905   39.6558   63.9894 C   0  0  0  0  0  0  0  0  0  0  0  0
   22.7538   40.1909   64.9889 C   0  0  0  0  0  0  0  0  0  0  0  0
   28.0762   37.8773   65.8464 P   0  0  1  0  0  0  0  0  0  0  0  0
   29.5415   36.3171   64.3954 P   0  0  1  0  0  0  0  0  0  0  0  0
   20.7108   40.6138   66.8643 C   0  0  0  0  0  0  0  0  0  0  0  0
   18.8680   39.1032   66.0682 C   0  0  0  0  0  0  0  0  0  0  0  0
   19.4350   40.3617   66.1029 C   0  0  0  0  0  0  0  0  0  0  0  0
   18.7961   41.3948   65.4150 C   0  0  0  0  0  0  0  0  0  0  0  0
   19.3253   42.6767   65.4183 N   0  0  0  0  0  0  0  0  0  0  0  0
   17.6747   41.1303   64.7510 N   0  0  0  0  0  0  0  0  0  0  0  0
   17.1657   39.9154   64.7483 C   0  0  0  0  0  0  0  0  0  0  0  0
   17.7447   38.9179   65.3877 N   0  0  0  0  0  0  0  0  0  0  0  0
   28.2687   36.8286   66.8735 O   0  5  0  0  0  0  0  0  0  0  0  0
   30.3769   35.6018   65.4802 O   0  0  0  0  0  0  0  0  0  0  0  0
   22.3768   37.2449   67.5426 S   0  0  0  0  0  0  0  0  0  0  0  0
   21.2161   38.4959   67.8668 C   0  0  0  0  0  0  0  0  0  0  0  0
   27.9956   39.3178   66.5578 O   0  0  0  0  0  0  0  0  0  0  0  0
   28.1158   35.5857   64.2451 O   0  5  0  0  0  0  0  0  0  0  0  0
   21.4917   39.3767   66.9329 N   0  0  0  0  0  0  0  0  0  0  0  0
   29.3155   37.8545   64.8183 O   0  0  0  0  0  0  0  0  0  0  0  0
   30.2937   36.2602   63.0467 O   0  0  0  0  0  0  0  0  0  0  0  0
   22.4504   39.1701   66.0566 C   0  0  2  0  0  0  0  0  0  0  0  0
   23.1661   38.0198   66.1396 C   0  0  2  0  0  0  0  0  0  0  0  0
   24.3057   37.5309   65.2845 C   0  0  0  0  0  0  0  0  0  0  0  0
   25.6361   37.9364   65.9231 C   0  0  0  0  0  0  0  0  0  0  0  0
   26.7092   37.5978   65.0424 O   0  0  0  0  0  0  0  0  0  0  0  0
  1 11  1  0  0  0  0
  3 13  1  1  0  0  0
  3 17  2  0  0  0  0
  3 20  1  0  0  0  0
  3 26  1  0  0  0  0
  4 14  1  1  0  0  0
  4 18  1  0  0  0  0
  4 21  2  0  0  0  0
  4 20  1  0  0  0  0
  5 19  1  0  0  0  0
  5  7  1  0  0  0  0
  6  7  2  0  0  0  0
  6 12  1  0  0  0  0
  7  8  1  0  0  0  0
  8  9  1  0  0  0  0
  8 10  2  0  0  0  0
 10 11  1  0  0  0  0
 11 12  2  0  0  0  0
 15 23  1  0  0  0  0
 15 16  1  0  0  0  0
 16 19  1  0  0  0  0
 19 22  1  0  0  0  0
 22  2  1  1  0  0  0
 22 23  1  0  0  0  0
 23 24  1  6  0  0  0
 24 25  1  0  0  0  0
 25 26  1  0  0  0  0
M  CHG  2  13  -1  18  -1
M  END
>  <CHROM.1>
47.61771284,-83.47884805,27.01465144,-82.23107103,-86.61951401,-173.89705102
-173.03032285,73.35914191,24.03717172,38.38915181,65.61560572,-3.05722793
-0.30161865,2.01233695

>  <Name>
ligand

>  <RI>
0

>  <Rbt.Current_Directory>
/home/itssahil/PROJECTS/Mol_Feturizer/New_Systems/rnas/2HOJ

>  <Rbt.Executable>
rbdock ($Id: //depot/dev/client3/rdock/2013.1/src/exe/rbdock.cxx#4 $)

>  <Rbt.Library>
libRbt.so (2013.1, Build901 2013/11/27)

>  <Rbt.Parameter_File>
/export/apps/rDock/src/rDock_2013.1_src/data/scripts/dock_solv.prm

>  <Rbt.Receptor>
prm/pocket_docking_8.prm

>  <SCORE>
-24.2277

>  <SCORE.INTER>
-19.6931

>  <SCORE.INTER.CONST>
1

>  <SCORE.INTER.POLAR>
0

>  <SCORE.INTER.ROT>
8

>  <SCORE.INTER.SOLV>
26.5966

>  <SCORE.INTER.VDW>
-30.9276

>  <SCORE.INTER.norm>
-0.757426

>  <SCORE.INTRA>
-4.53458

>  <SCORE.INTRA.DIHEDRAL>
-5.10035

>  <SCORE.INTRA.DIHEDRAL.0>
11.6398

>  <SCORE.INTRA.POLAR>
0

>  <SCORE.INTRA.POLAR.0>
0

>  <SCORE.INTRA.REPUL>
0

>  <SCORE.INTRA.REPUL.0>
0

>  <SCORE.INTRA.SOLV>
1.70608

>  <SCORE.INTRA.SOLV.lig_0>
-81.722

>  <SCORE.INTRA.VDW>
-2.83744

>  <SCORE.INTRA.VDW.0>
1.12598

>  <SCORE.INTRA.norm>
-0.174407

>  <SCORE.RESTR>
0

>  <SCORE.RESTR.CAVITY>
0

>  <SCORE.RESTR.norm>
0

>  <SCORE.SYSTEM>
0

>  <SCORE.SYSTEM.CONST>
0

>  <SCORE.SYSTEM.DIHEDRAL>
0

>  <SCORE.SYSTEM.SOLV>
0

>  <SCORE.SYSTEM.norm>
0

>  <SCORE.heavy>
26

>  <SCORE.norm>
-0.931833

>  <RMSD>
2.724

$$$$
ligand
 OpenBabel11021811433D
libRbt.so/2013.1/901 2013/11/27
 26 27  0  0  0  0  0  0  0  0999 V2000
   16.7088   40.1249   64.3613 C   0  0  0  0  0  0  0  0  0  0  0  0
   23.0563   39.1019   68.3881 C   0  0  0  0  0  0  0  0  0  0  0  0
   28.5654   39.0955   67.3191 P   0  0  1  0  0  0  0  0  0  0  0  0
   27.3020   38.9945   69.5731 P   0  0  1  0  0  0  0  0  0  0  0  0
   21.4869   41.1481   67.2838 C   0  0  0  0  0  0  0  0  0  0  0  0
   19.3821   41.9073   66.1414 C   0  0  0  0  0  0  0  0  0  0  0  0
   20.2225   40.8758   66.5103 C   0  0  0  0  0  0  0  0  0  0  0  0
   19.8713   39.5741   66.1484 C   0  0  0  0  0  0  0  0  0  0  0  0
   20.6814   38.5032   66.4955 N   0  0  0  0  0  0  0  0  0  0  0  0
   18.7448   39.3752   65.4704 N   0  0  0  0  0  0  0  0  0  0  0  0
   17.9743   40.3894   65.1346 C   0  0  0  0  0  0  0  0  0  0  0  0
   18.2775   41.6305   65.4614 N   0  0  0  0  0  0  0  0  0  0  0  0
   29.1652   40.2682   67.9948 O   0  5  0  0  0  0  0  0  0  0  0  0
   26.3183   38.1373   70.4001 O   0  0  0  0  0  0  0  0  0  0  0  0
   24.3193   40.2815   64.8731 S   0  0  0  0  0  0  0  0  0  0  0  0
   22.9104   41.1758   65.3553 C   0  0  0  0  0  0  0  0  0  0  0  0
   29.6912   38.3407   66.4527 O   0  0  0  0  0  0  0  0  0  0  0  0
   28.4521   39.5748   70.5379 O   0  5  0  0  0  0  0  0  0  0  0  0
   22.6388   40.6513   66.5280 N   0  0  0  0  0  0  0  0  0  0  0  0
   27.9715   38.0858   68.4243 O   0  0  0  0  0  0  0  0  0  0  0  0
   26.5376   40.1680   68.9200 O   0  0  0  0  0  0  0  0  0  0  0  0
   23.3804   39.6931   67.0393 C   0  0  2  0  0  0  0  0  0  0  0  0
   24.4408   39.2426   66.3215 C   0  0  2  0  0  0  0  0  0  0  0  0
   25.4430   38.1687   66.6548 C   0  0  0  0  0  0  0  0  0  0  0  0
   26.7307   38.4059   65.8625 C   0  0  0  0  0  0  0  0  0  0  0  0
   27.3775   39.5841   66.3478 O   0  0  0  0  0  0  0  0  0  0  0  0
  1 11  1  0  0  0  0
  3 13  1  1  0  0  0
  3 17  2  0  0  0  0
  3 20  1  0  0  0  0
  3 26  1  0  0  0  0
  4 14  1  1  0  0  0
  4 18  1  0  0  0  0
  4 21  2  0  0  0  0
  4 20  1  0  0  0  0
  5 19  1  0  0  0  0
  5  7  1  0  0  0  0
  6  7  2  0  0  0  0
  6 12  1  0  0  0  0
  7  8  1  0  0  0  0
  8  9  1  0  0  0  0
  8 10  2  0  0  0  0
 10 11  1  0  0  0  0
 11 12  2  0  0  0  0
 15 23  1  0  0  0  0
 15 16  1  0  0  0  0
 16 19  1  0  0  0  0
 19 22  1  0  0  0  0
 22  2  1  6  0  0  0
 22 23  1  0  0  0  0
 23 24  1  1  0  0  0
 24 25  1  0  0  0  0
 25 26  1  0  0  0  0
M  CHG  2  13  -1  18  -1
M  END
>  <CHROM.1>
39.11841262,62.84149787,-121.51926314,161.07100712,23.07723191,68.69351221
100.55085692,-172.68608342,24.32578938,39.63997072,67.03371946,-2.83992619
-0.12480708,1.67582040

>  <Name>
ligand

>  <RI>
0

>  <Rbt.Current_Directory>
/home/itssahil/PROJECTS/Mol_Feturizer/New_Systems/rnas/2HOJ

>  <Rbt.Executable>
rbdock ($Id: //depot/dev/client3/rdock/2013.1/src/exe/rbdock.cxx#4 $)

>  <Rbt.Library>
libRbt.so (2013.1, Build901 2013/11/27)

>  <Rbt.Parameter_File>
/export/apps/rDock/src/rDock_2013.1_src/data/scripts/dock_solv.prm

>  <Rbt.Receptor>
prm/pocket_docking_2.prm

>  <SCORE>
-17.1239

>  <SCORE.INTER>
-17.5384

>  <SCORE.INTER.CONST>
1

>  <SCORE.INTER.POLAR>
-1.27778

>  <SCORE.INTER.ROT>
8

>  <SCORE.INTER.SOLV>
16.3395

>  <SCORE.INTER.VDW>
-21.8128

>  <SCORE.INTER.norm>
-0.674554

>  <SCORE.INTRA>
-0.107445

>  <SCORE.INTRA.DIHEDRAL>
0.168969

>  <SCORE.INTRA.DIHEDRAL.0>
11.6398

>  <SCORE.INTRA.POLAR>
0

>  <SCORE.INTRA.POLAR.0>
0

>  <SCORE.INTRA.REPUL>
0

>  <SCORE.INTRA.REPUL.0>
0

>  <SCORE.INTRA.SOLV>
8.32019

>  <SCORE.INTRA.SOLV.lig_0>
-81.722

>  <SCORE.INTRA.VDW>
-4.35202

>  <SCORE.INTRA.VDW.0>
1.12598

>  <SCORE.INTRA.norm>
-0.00413249

>  <SCORE.RESTR>
0.521947

>  <SCORE.RESTR.CAVITY>
0.521947

>  <SCORE.RESTR.norm>
0.0200749

>  <SCORE.SYSTEM>
0

>  <SCORE.SYSTEM.CONST>
0

>  <SCORE.SYSTEM.DIHEDRAL>
0

>  <SCORE.SYSTEM.SOLV>
0

>  <SCORE.SYSTEM.norm>
0

>  <SCORE.heavy>
26

>  <SCORE.norm>
-0.658612

>  <RMSD>
2.725

$$$$
ligand
 OpenBabel11021811433D
libRbt.so/2013.1/901 2013/11/27
 26 27  0  0  0  0  0  0  0  0999 V2000
   19.3651   44.1282   66.1129 C   0  0  0  0  0  0  0  0  0  0  0  0
   22.9966   37.8064   69.0135 C   0  0  0  0  0  0  0  0  0  0  0  0
   27.8110   39.7383   67.7654 P   0  0  1  0  0  0  0  0  0  0  0  0
   30.1047   38.6641   67.2440 P   0  0  1  0  0  0  0  0  0  0  0  0
   21.0366   38.8111   67.2762 C   0  0  0  0  0  0  0  0  0  0  0  0
   21.3195   41.3036   67.4145 C   0  0  0  0  0  0  0  0  0  0  0  0
   20.5929   40.2180   66.9676 C   0  0  0  0  0  0  0  0  0  0  0  0
   19.4370   40.4565   66.2223 C   0  0  0  0  0  0  0  0  0  0  0  0
   18.6718   39.4002   65.7508 N   0  0  0  0  0  0  0  0  0  0  0  0
   19.0766   41.7126   65.9757 N   0  0  0  0  0  0  0  0  0  0  0  0
   19.8023   42.7192   66.4175 C   0  0  0  0  0  0  0  0  0  0  0  0
   20.8990   42.5277   67.1243 N   0  0  0  0  0  0  0  0  0  0  0  0
   28.5084   40.9045   68.3530 O   0  5  0  0  0  0  0  0  0  0  0  0
   29.8366   37.6044   68.3355 O   0  0  0  0  0  0  0  0  0  0  0  0
   24.3487   38.4917   65.4018 S   0  0  0  0  0  0  0  0  0  0  0  0
   22.6634   38.8965   65.5177 C   0  0  0  0  0  0  0  0  0  0  0  0
   26.3898   40.2045   67.1733 O   0  0  0  0  0  0  0  0  0  0  0  0
   31.0602   38.0386   66.1100 O   0  5  0  0  0  0  0  0  0  0  0  0
   22.3951   38.6048   66.7695 N   0  0  0  0  0  0  0  0  0  0  0  0
   28.7087   39.1176   66.5812 O   0  0  0  0  0  0  0  0  0  0  0  0
   30.7952   39.8923   67.8787 O   0  0  0  0  0  0  0  0  0  0  0  0
   23.3202   38.1354   67.5779 C   0  0  2  0  0  0  0  0  0  0  0  0
   24.5720   37.9464   67.0884 C   0  0  2  0  0  0  0  0  0  0  0  0
   25.8066   37.4258   67.7765 C   0  0  0  0  0  0  0  0  0  0  0  0
   26.1762   38.3530   68.9366 C   0  0  0  0  0  0  0  0  0  0  0  0
   27.5793   38.6216   68.9023 O   0  0  0  0  0  0  0  0  0  0  0  0
  1 11  1  0  0  0  0
  3 13  1  1  0  0  0
  3 17  2  0  0  0  0
  3 20  1  0  0  0  0
  3 26  1  0  0  0  0
  4 14  1  1  0  0  0
  4 18  1  0  0  0  0
  4 21  2  0  0  0  0
  4 20  1  0  0  0  0
  5 19  1  0  0  0  0
  5  7  1  0  0  0  0
  6  7  2  0  0  0  0
  6 12  1  0  0  0  0
  7  8  1  0  0  0  0
  8  9  1  0  0  0  0
  8 10  2  0  0  0  0
 10 11  1  0  0  0  0
 11 12  2  0  0  0  0
 15 23  1  0  0  0  0
 15 16  1  0  0  0  0
 16 19  1  0  0  0  0
 19 22  1  0  0  0  0
 22  2  1  6  0  0  0
 22 23  1  0  0  0  0
 23 24  1  1  0  0  0
 24 25  1  0  0  0  0
 25 26  1  0  0  0  0
M  CHG  2  13  -1  18  -1
M  END
>  <CHROM.1>
60.38507493,-52.10689676,-57.35563735,60.21612356,118.59743223,-134.01353650
78.73792273,124.00777141,24.95796767,39.50522649,67.12756900,-2.91361756
0.10709157,3.10038747

>  <Name>
ligand

>  <RI>
0

>  <Rbt.Current_Directory>
/home/itssahil/PROJECTS/Mol_Feturizer/New_Systems/rnas/2HOJ

>  <Rbt.Executable>
rbdock ($Id: //depot/dev/client3/rdock/2013.1/src/exe/rbdock.cxx#4 $)

>  <Rbt.Library>
libRbt.so (2013.1, Build901 2013/11/27)

>  <Rbt.Parameter_File>
/export/apps/rDock/src/rDock_2013.1_src/data/scripts/dock_solv.prm

>  <Rbt.Receptor>
prm/pocket_docking_2.prm

>  <SCORE>
-18.2995

>  <SCORE.INTER>
-20.6249

>  <SCORE.INTER.CONST>
1

>  <SCORE.INTER.POLAR>
-3.93293

>  <SCORE.INTER.ROT>
8

>  <SCORE.INTER.SOLV>
27.6895

>  <SCORE.INTER.VDW>
-18.8033

>  <SCORE.INTER.norm>
-0.793264

>  <SCORE.INTRA>
1.0547

>  <SCORE.INTRA.DIHEDRAL>
1.70511

>  <SCORE.INTRA.DIHEDRAL.0>
11.6398

>  <SCORE.INTRA.POLAR>
0

>  <SCORE.INTRA.POLAR.0>
0

>  <SCORE.INTRA.REPUL>
0

>  <SCORE.INTRA.REPUL.0>
0

>  <SCORE.INTRA.SOLV>
1.64991

>  <SCORE.INTRA.SOLV.lig_0>
-81.722

>  <SCORE.INTRA.VDW>
-0.622812

>  <SCORE.INTRA.VDW.0>
1.12598

>  <SCORE.INTRA.norm>
0.0405653

>  <SCORE.RESTR>
1.2707

>  <SCORE.RESTR.CAVITY>
1.2707

>  <SCORE.RESTR.norm>
0.0488732

>  <SCORE.SYSTEM>
0

>  <SCORE.SYSTEM.CONST>
0

>  <SCORE.SYSTEM.DIHEDRAL>
0

>  <SCORE.SYSTEM.SOLV>
0

>  <SCORE.SYSTEM.norm>
0

>  <SCORE.heavy>
26

>  <SCORE.norm>
-0.703825

>  <RMSD>
2.733

$$$$
ligand
 OpenBabel11021811433D
libRbt.so/2013.1/901 2013/11/27
 26 27  0  0  0  0  0  0  0  0999 V2000
   19.7245   44.1255   66.2384 C   0  0  0  0  0  0  0  0  0  0  0  0
   21.4917   37.9203   68.0735 C   0  0  0  0  0  0  0  0  0  0  0  0
   27.6913   39.3055   69.0182 P   0  0  1  0  0  0  0  0  0  0  0  0
   29.8867   38.7513   67.7692 P   0  0  1  0  0  0  0  0  0  0  0  0
   20.5994   38.5495   65.4894 C   0  0  0  0  0  0  0  0  0  0  0  0
   21.3913   40.8554   66.0953 C   0  0  0  0  0  0  0  0  0  0  0  0
   20.3664   40.0252   65.6873 C   0  0  0  0  0  0  0  0  0  0  0  0
   19.1087   40.5875   65.4624 C   0  0  0  0  0  0  0  0  0  0  0  0
   18.0460   39.7964   65.0520 N   0  0  0  0  0  0  0  0  0  0  0  0
   18.9427   41.8930   65.6531 N   0  0  0  0  0  0  0  0  0  0  0  0
   19.9499   42.6494   66.0385 C   0  0  0  0  0  0  0  0  0  0  0  0
   21.1498   42.1492   66.2597 N   0  0  0  0  0  0  0  0  0  0  0  0
   27.1267   39.6574   70.3407 O   0  5  0  0  0  0  0  0  0  0  0  0
   31.0908   37.7837   67.7568 O   0  0  0  0  0  0  0  0  0  0  0  0
   24.3549   37.8611   65.4013 S   0  0  0  0  0  0  0  0  0  0  0  0
   22.8357   38.2788   64.6698 C   0  0  0  0  0  0  0  0  0  0  0  0
   27.7669   40.6231   68.0984 O   0  0  0  0  0  0  0  0  0  0  0  0
   28.8353   38.3163   66.6310 O   0  5  0  0  0  0  0  0  0  0  0  0
   22.0173   38.2465   65.6960 N   0  0  0  0  0  0  0  0  0  0  0  0
   29.1708   38.6994   69.2110 O   0  0  0  0  0  0  0  0  0  0  0  0
   30.3798   40.1893   67.4918 O   0  0  0  0  0  0  0  0  0  0  0  0
   22.4439   37.9519   66.9047 C   0  0  2  0  0  0  0  0  0  0  0  0
   23.7606   37.6693   67.0752 C   0  0  2  0  0  0  0  0  0  0  0  0
   24.5120   37.3005   68.3274 C   0  0  0  0  0  0  0  0  0  0  0  0
   25.4155   38.4634   68.7440 C   0  0  0  0  0  0  0  0  0  0  0  0
   26.7519   38.2073   68.3077 O   0  0  0  0  0  0  0  0  0  0  0  0
  1 11  1  0  0  0  0
  3 13  1  1  0  0  0
  3 17  2  0  0  0  0
  3 20  1  0  0  0  0
  3 26  1  0  0  0  0
  4 14  1  6  0  0  0
  4 18  1  0  0  0  0
  4 21  2  0  0  0  0
  4 20  1  0  0  0  0
  5 19  1  0  0  0  0
  5  7  1  0  0  0  0
  6  7  2  0  0  0  0
  6 12  1  0  0  0  0
  7  8  1  0  0  0  0
  8  9  1  0  0  0  0
  8 10  2  0  0  0  0
 10 11  1  0  0  0  0
 11 12  2  0  0  0  0
 15 23  1  0  0  0  0
 15 16  1  0  0  0  0
 16 19  1  0  0  0  0
 19 22  1  0  0  0  0
 22  2  1  6  0  0  0
 22 23  1  0  0  0  0
 23 24  1  1  0  0  0
 24 25  1  0  0  0  0
 25 26  1  0  0  0  0
M  CHG  2  13  -1  18  -1
M  END
>  <CHROM.1>
-163.45501421,-90.83990923,-4.13792874,-161.22816204,70.91128769,-99.40353014
-169.10976119,31.64148501,24.65865594,39.33832914,67.10376357,-3.01151611
0.29393106,-2.92969468

>  <Name>
ligand

>  <RI>
0

>  <Rbt.Current_Directory>
/home/itssahil/PROJECTS/Mol_Feturizer/New_Systems/rnas/2HOJ

>  <Rbt.Executable>
rbdock ($Id: //depot/dev/client3/rdock/2013.1/src/exe/rbdock.cxx#4 $)

>  <Rbt.Library>
libRbt.so (2013.1, Build901 2013/11/27)

>  <Rbt.Parameter_File>
/export/apps/rDock/src/rDock_2013.1_src/data/scripts/dock_solv.prm

>  <Rbt.Receptor>
prm/pocket_docking_4.prm

>  <SCORE>
-23.0794

>  <SCORE.INTER>
-22.0491

>  <SCORE.INTER.CONST>
1

>  <SCORE.INTER.POLAR>
-2.65343

>  <SCORE.INTER.ROT>
8

>  <SCORE.INTER.SOLV>
25.7712

>  <SCORE.INTER.VDW>
-23.3784

>  <SCORE.INTER.norm>
-0.848044

>  <SCORE.INTRA>
-1.03025

>  <SCORE.INTRA.DIHEDRAL>
0.155889

>  <SCORE.INTRA.DIHEDRAL.0>
11.6398

>  <SCORE.INTRA.POLAR>
0

>  <SCORE.INTRA.POLAR.0>
0

>  <SCORE.INTRA.REPUL>
0

>  <SCORE.INTRA.REPUL.0>
0

>  <SCORE.INTRA.SOLV>
2.46586

>  <SCORE.INTRA.SOLV.lig_0>
-81.722

>  <SCORE.INTRA.VDW>
-2.34113

>  <SCORE.INTRA.VDW.0>
1.12598

>  <SCORE.INTRA.norm>
-0.0396251

>  <SCORE.RESTR>
0

>  <SCORE.RESTR.CAVITY>
0

>  <SCORE.RESTR.norm>
0

>  <SCORE.SYSTEM>
0

>  <SCORE.SYSTEM.CONST>
0

>  <SCORE.SYSTEM.DIHEDRAL>
0

>  <SCORE.SYSTEM.SOLV>
0

>  <SCORE.SYSTEM.norm>
0

>  <SCORE.heavy>
26

>  <SCORE.norm>
-0.887669

>  <RMSD>
2.739

$$$$
ligand
 OpenBabel11021811433D
libRbt.so/2013.1/901 2013/11/27
 26 27  0  0  0  0  0  0  0  0999 V2000
   17.4393   40.3550   64.9133 C   0  0  0  0  0  0  0  0  0  0  0  0
   24.3335   38.4266   67.9418 C   0  0  0  0  0  0  0  0  0  0  0  0
   29.9106   38.8249   67.2891 P   0  0  1  0  0  0  0  0  0  0  0  0
   31.4484   40.5952   66.1991 P   0  0  1  0  0  0  0  0  0  0  0  0
   22.5093   40.5114   67.4995 C   0  0  0  0  0  0  0  0  0  0  0  0
   20.5887   41.6195   66.3183 C   0  0  0  0  0  0  0  0  0  0  0  0
   21.1672   40.4686   66.8153 C   0  0  0  0  0  0  0  0  0  0  0  0
   20.4775   39.2640   66.6675 C   0  0  0  0  0  0  0  0  0  0  0  0
   21.0153   38.0801   67.1498 N   0  0  0  0  0  0  0  0  0  0  0  0
   19.2935   39.2691   66.0622 N   0  0  0  0  0  0  0  0  0  0  0  0
   18.7804   40.3901   65.5985 C   0  0  0  0  0  0  0  0  0  0  0  0
   19.4062   41.5443   65.7223 N   0  0  0  0  0  0  0  0  0  0  0  0
   30.6577   38.1180   68.3539 O   0  5  0  0  0  0  0  0  0  0  0  0
   31.9098   40.8185   67.6564 O   0  0  0  0  0  0  0  0  0  0  0  0
   25.0125   40.3845   64.6180 S   0  0  0  0  0  0  0  0  0  0  0  0
   23.6387   41.0425   65.4530 C   0  0  0  0  0  0  0  0  0  0  0  0
   29.3656   40.2282   67.8560 O   0  0  0  0  0  0  0  0  0  0  0  0
   32.6920   40.8148   65.2015 O   0  5  0  0  0  0  0  0  0  0  0  0
   23.5675   40.2742   66.5153 N   0  0  0  0  0  0  0  0  0  0  0  0
   30.8875   39.0943   66.0373 O   0  0  0  0  0  0  0  0  0  0  0  0
   30.3282   41.6024   65.8546 O   0  0  0  0  0  0  0  0  0  0  0  0
   24.4276   39.2996   66.7159 C   0  0  2  0  0  0  0  0  0  0  0  0
   25.3982   39.0923   65.7899 C   0  0  2  0  0  0  0  0  0  0  0  0
   26.4968   38.0623   65.7604 C   0  0  0  0  0  0  0  0  0  0  0  0
   27.8470   38.7467   65.9858 C   0  0  0  0  0  0  0  0  0  0  0  0
   28.6678   37.9188   66.8122 O   0  0  0  0  0  0  0  0  0  0  0  0
  1 11  1  0  0  0  0
  3 13  1  1  0  0  0
  3 17  2  0  0  0  0
  3 20  1  0  0  0  0
  3 26  1  0  0  0  0
  4 14  1  1  0  0  0
  4 18  1  0  0  0  0
  4 21  2  0  0  0  0
  4 20  1  0  0  0  0
  5 19  1  0  0  0  0
  5  7  1  0  0  0  0
  6  7  2  0  0  0  0
  6 12  1  0  0  0  0
  7  8  1  0  0  0  0
  8  9  1  0  0  0  0
  8 10  2  0  0  0  0
 10 11  1  0  0  0  0
 11 12  2  0  0  0  0
 15 23  1  0  0  0  0
 15 16  1  0  0  0  0
 16 19  1  0  0  0  0
 19 22  1  0  0  0  0
 22  2  1  6  0  0  0
 22 23  1  0  0  0  0
 23 24  1  1  0  0  0
 24 25  1  0  0  0  0
 25 26  1  0  0  0  0
M  CHG  2  13  -1  18  -1
M  END
>  <CHROM.1>
-96.40760016,55.55519712,-91.75027921,46.23482448,69.78123531,141.18731611
-167.10634954,169.05142418,25.97073403,39.80502915,66.38513294,-3.08581341
0.03085863,2.53190509

>  <Name>
ligand

>  <RI>
0

>  <Rbt.Current_Directory>
/home/itssahil/PROJECTS/Mol_Feturizer/New_Systems/rnas/2HOJ

>  <Rbt.Executable>
rbdock ($Id: //depot/dev/client3/rdock/2013.1/src/exe/rbdock.cxx#4 $)

>  <Rbt.Library>
libRbt.so (2013.1, Build901 2013/11/27)

>  <Rbt.Parameter_File>
/export/apps/rDock/src/rDock_2013.1_src/data/scripts/dock_solv.prm

>  <Rbt.Receptor>
prm/pocket_docking_5.prm

>  <SCORE>
-22.5555

>  <SCORE.INTER>
-21.8003

>  <SCORE.INTER.CONST>
1

>  <SCORE.INTER.POLAR>
-4.02433

>  <SCORE.INTER.ROT>
8

>  <SCORE.INTER.SOLV>
26.9229

>  <SCORE.INTER.VDW>
-19.0267

>  <SCORE.INTER.norm>
-0.838473

>  <SCORE.INTRA>
-0.75519

>  <SCORE.INTRA.DIHEDRAL>
0.335411

>  <SCORE.INTRA.DIHEDRAL.0>
11.6398

>  <SCORE.INTRA.POLAR>
0

>  <SCORE.INTRA.POLAR.0>
0

>  <SCORE.INTRA.REPUL>
0

>  <SCORE.INTRA.REPUL.0>
0

>  <SCORE.INTRA.SOLV>
3.34066

>  <SCORE.INTRA.SOLV.lig_0>
-81.722

>  <SCORE.INTRA.VDW>
-2.59323

>  <SCORE.INTRA.VDW.0>
1.12598

>  <SCORE.INTRA.norm>
-0.0290458

>  <SCORE.RESTR>
0

>  <SCORE.RESTR.CAVITY>
0

>  <SCORE.RESTR.norm>
0

>  <SCORE.SYSTEM>
0

>  <SCORE.SYSTEM.CONST>
0

>  <SCORE.SYSTEM.DIHEDRAL>
0

>  <SCORE.SYSTEM.SOLV>
0

>  <SCORE.SYSTEM.norm>
0

>  <SCORE.heavy>
26

>  <SCORE.norm>
-0.867519

>  <RMSD>
2.739

$$$$
ligand
 OpenBabel11021811433D
libRbt.so/2013.1/901 2013/11/27
 26 27  0  0  0  0  0  0  0  0999 V2000
   19.5534   43.9625   66.1611 C   0  0  0  0  0  0  0  0  0  0  0  0
   21.6095   37.3784   68.0363 C   0  0  0  0  0  0  0  0  0  0  0  0
   27.5748   39.4909   68.6978 P   0  0  1  0  0  0  0  0  0  0  0  0
   29.6545   38.5008   67.5225 P   0  0  1  0  0  0  0  0  0  0  0  0
   20.8706   38.4566   65.5541 C   0  0  0  0  0  0  0  0  0  0  0  0
   21.5031   40.8575   65.9378 C   0  0  0  0  0  0  0  0  0  0  0  0
   20.5205   39.9136   65.7146 C   0  0  0  0  0  0  0  0  0  0  0  0
   19.1944   40.3432   65.6411 C   0  0  0  0  0  0  0  0  0  0  0  0
   18.1704   39.4345   65.4191 N   0  0  0  0  0  0  0  0  0  0  0  0
   18.9264   41.6368   65.7930 N   0  0  0  0  0  0  0  0  0  0  0  0
   19.8958   42.5044   65.9997 C   0  0  0  0  0  0  0  0  0  0  0  0
   21.1583   42.1309   66.0747 N   0  0  0  0  0  0  0  0  0  0  0  0
   28.1574   39.0219   69.9754 O   0  5  0  0  0  0  0  0  0  0  0  0
   30.3197   38.1827   68.8799 O   0  0  0  0  0  0  0  0  0  0  0  0
   24.6756   38.1843   65.7360 S   0  0  0  0  0  0  0  0  0  0  0  0
   23.1848   38.5950   64.9446 C   0  0  0  0  0  0  0  0  0  0  0  0
   26.6950   40.8117   68.9612 O   0  0  0  0  0  0  0  0  0  0  0  0
   28.7190   37.2682   67.0799 O   0  5  0  0  0  0  0  0  0  0  0  0
   22.2920   38.2603   65.8473 N   0  0  0  0  0  0  0  0  0  0  0  0
   28.7595   39.8325   67.6618 O   0  0  0  0  0  0  0  0  0  0  0  0
   30.7482   38.7261   66.4543 O   0  0  0  0  0  0  0  0  0  0  0  0
   22.6468   37.7566   67.0093 C   0  0  2  0  0  0  0  0  0  0  0  0
   23.9687   37.5776   67.2605 C   0  0  2  0  0  0  0  0  0  0  0  0
   24.6501   37.0252   68.4850 C   0  0  0  0  0  0  0  0  0  0  0  0
   25.6215   38.0669   69.0447 C   0  0  0  0  0  0  0  0  0  0  0  0
   26.6387   38.3365   68.0779 O   0  0  0  0  0  0  0  0  0  0  0  0
  1 11  1  0  0  0  0
  3 13  1  1  0  0  0
  3 17  2  0  0  0  0
  3 20  1  0  0  0  0
  3 26  1  0  0  0  0
  4 14  1  1  0  0  0
  4 18  1  0  0  0  0
  4 21  2  0  0  0  0
  4 20  1  0  0  0  0
  5 19  1  0  0  0  0
  5  7  1  0  0  0  0
  6  7  2  0  0  0  0
  6 12  1  0  0  0  0
  7  8  1  0  0  0  0
  8  9  1  0  0  0  0
  8 10  2  0  0  0  0
 10 11  1  0  0  0  0
 11 12  2  0  0  0  0
 15 23  1  0  0  0  0
 15 16  1  0  0  0  0
 16 19  1  0  0  0  0
 19 22  1  0  0  0  0
 22  2  1  6  0  0  0
 22 23  1  0  0  0  0
 23 24  1  1  0  0  0
 24 25  1  0  0  0  0
 25 26  1  0  0  0  0
M  CHG  2  13  -1  18  -1
M  END
>  <CHROM.1>
56.19984672,-77.49754723,7.36649580,-64.49717595,57.97694039,-62.62266362
177.06312612,59.36711558,24.67812716,39.22335477,67.10460658,-2.94891531
0.25797335,-3.05534954

>  <Name>
ligand

>  <RI>
0

>  <Rbt.Current_Directory>
/home/itssahil/PROJECTS/Mol_Feturizer/New_Systems/rnas/2HOJ

>  <Rbt.Executable>
rbdock ($Id: //depot/dev/client3/rdock/2013.1/src/exe/rbdock.cxx#4 $)

>  <Rbt.Library>
libRbt.so (2013.1, Build901 2013/11/27)

>  <Rbt.Parameter_File>
/export/apps/rDock/src/rDock_2013.1_src/data/scripts/dock_solv.prm

>  <Rbt.Receptor>
prm/pocket_docking_3.prm

>  <SCORE>
-23.7843

>  <SCORE.INTER>
-17.4947

>  <SCORE.INTER.CONST>
1

>  <SCORE.INTER.POLAR>
-1.35345

>  <SCORE.INTER.ROT>
8

>  <SCORE.INTER.SOLV>
23.9695

>  <SCORE.INTER.VDW>
-24.0748

>  <SCORE.INTER.norm>
-0.672871

>  <SCORE.INTRA>
-6.28962

>  <SCORE.INTRA.DIHEDRAL>
-6.36038

>  <SCORE.INTRA.DIHEDRAL.0>
11.6398

>  <SCORE.INTRA.POLAR>
0

>  <SCORE.INTRA.POLAR.0>
0

>  <SCORE.INTRA.REPUL>
0

>  <SCORE.INTRA.REPUL.0>
0

>  <SCORE.INTRA.SOLV>
0.53263

>  <SCORE.INTRA.SOLV.lig_0>
-81.722

>  <SCORE.INTRA.VDW>
-3.37575

>  <SCORE.INTRA.VDW.0>
1.12598

>  <SCORE.INTRA.norm>
-0.241909

>  <SCORE.RESTR>
0

>  <SCORE.RESTR.CAVITY>
0

>  <SCORE.RESTR.norm>
0

>  <SCORE.SYSTEM>
0

>  <SCORE.SYSTEM.CONST>
0

>  <SCORE.SYSTEM.DIHEDRAL>
0

>  <SCORE.SYSTEM.SOLV>
0

>  <SCORE.SYSTEM.norm>
0

>  <SCORE.heavy>
26

>  <SCORE.norm>
-0.91478

>  <RMSD>
2.761

$$$$
ligand
 OpenBabel11021811433D
libRbt.so/2013.1/901 2013/11/27
 26 27  0  0  0  0  0  0  0  0999 V2000
   17.4329   40.3628   64.9254 C   0  0  0  0  0  0  0  0  0  0  0  0
   23.6262   39.2542   66.2413 C   0  0  0  0  0  0  0  0  0  0  0  0
   27.6961   38.5094   66.0338 P   0  0  1  0  0  0  0  0  0  0  0  0
   29.6897   38.8455   67.6461 P   0  0  1  0  0  0  0  0  0  0  0  0
   22.1919   40.8977   68.0051 C   0  0  0  0  0  0  0  0  0  0  0  0
   20.3517   41.8517   66.5855 C   0  0  0  0  0  0  0  0  0  0  0  0
   20.9322   40.7546   67.1903 C   0  0  0  0  0  0  0  0  0  0  0  0
   20.3227   39.5094   67.0276 C   0  0  0  0  0  0  0  0  0  0  0  0
   20.8660   38.3766   67.6152 N   0  0  0  0  0  0  0  0  0  0  0  0
   19.2095   39.4259   66.3052 N   0  0  0  0  0  0  0  0  0  0  0  0
   18.6920   40.4980   65.7414 C   0  0  0  0  0  0  0  0  0  0  0  0
   19.2430   41.6885   65.8761 N   0  0  0  0  0  0  0  0  0  0  0  0
   28.5896   38.4475   64.8550 O   0  5  0  0  0  0  0  0  0  0  0  0
   30.5076   38.2486   68.8128 O   0  0  0  0  0  0  0  0  0  0  0  0
   24.7788   42.9962   66.1371 S   0  0  0  0  0  0  0  0  0  0  0  0
   23.4920   42.7778   67.2833 C   0  0  0  0  0  0  0  0  0  0  0  0
   26.3532   37.6758   65.7345 O   0  0  0  0  0  0  0  0  0  0  0  0
   30.6293   38.9856   66.3469 O   0  5  0  0  0  0  0  0  0  0  0  0
   23.2440   41.4928   67.1781 N   0  0  0  0  0  0  0  0  0  0  0  0
   28.4478   37.8769   67.3099 O   0  0  0  0  0  0  0  0  0  0  0  0
   29.1595   40.2396   68.0504 O   0  0  0  0  0  0  0  0  0  0  0  0
   23.9220   40.7288   66.3496 C   0  0  2  0  0  0  0  0  0  0  0  0
   24.8897   41.2997   65.5880 C   0  0  2  0  0  0  0  0  0  0  0  0
   25.8050   40.6759   64.5672 C   0  0  0  0  0  0  0  0  0  0  0  0
   27.2461   40.7124   65.0810 C   0  0  0  0  0  0  0  0  0  0  0  0
   27.3185   40.0441   66.3421 O   0  0  0  0  0  0  0  0  0  0  0  0
  1 11  1  0  0  0  0
  3 13  1  6  0  0  0
  3 17  2  0  0  0  0
  3 20  1  0  0  0  0
  3 26  1  0  0  0  0
  4 14  1  1  0  0  0
  4 18  1  0  0  0  0
  4 21  2  0  0  0  0
  4 20  1  0  0  0  0
  5 19  1  0  0  0  0
  5  7  1  0  0  0  0
  6  7  2  0  0  0  0
  6 12  1  0  0  0  0
  7  8  1  0  0  0  0
  8  9  1  0  0  0  0
  8 10  2  0  0  0  0
 10 11  1  0  0  0  0
 11 12  2  0  0  0  0
 15 23  1  0  0  0  0
 15 16  1  0  0  0  0
 16 19  1  0  0  0  0
 19 22  1  0  0  0  0
 22  2  1  6  0  0  0
 22 23  1  0  0  0  0
 23 24  1  1  0  0  0
 24 25  1  0  0  0  0
 25 26  1  0  0  0  0
M  CHG  2  13  -1  18  -1
M  END
>  <CHROM.1>
65.78443927,99.17420479,-57.11967187,-176.60638775,67.15345999,56.91624024
92.39789319,33.92229299,24.98440765,40.01822995,66.50962076,2.94224356,-0.04721159
-0.09092450

>  <Name>
ligand

>  <RI>
0

>  <Rbt.Current_Directory>
/home/itssahil/PROJECTS/Mol_Feturizer/New_Systems/rnas/2HOJ

>  <Rbt.Executable>
rbdock ($Id: //depot/dev/client3/rdock/2013.1/src/exe/rbdock.cxx#4 $)

>  <Rbt.Library>
libRbt.so (2013.1, Build901 2013/11/27)

>  <Rbt.Parameter_File>
/export/apps/rDock/src/rDock_2013.1_src/data/scripts/dock_solv.prm

>  <Rbt.Receptor>
prm/pocket_docking_4.prm

>  <SCORE>
-19.9098

>  <SCORE.INTER>
-19.3897

>  <SCORE.INTER.CONST>
1

>  <SCORE.INTER.POLAR>
-2.64861

>  <SCORE.INTER.ROT>
8

>  <SCORE.INTER.SOLV>
19.1523

>  <SCORE.INTER.VDW>
-19.4152

>  <SCORE.INTER.norm>
-0.745759

>  <SCORE.INTRA>
-0.520105

>  <SCORE.INTRA.DIHEDRAL>
-1.38022

>  <SCORE.INTRA.DIHEDRAL.0>
11.6398

>  <SCORE.INTRA.POLAR>
0

>  <SCORE.INTRA.POLAR.0>
0

>  <SCORE.INTRA.REPUL>
0

>  <SCORE.INTRA.REPUL.0>
0

>  <SCORE.INTRA.SOLV>
6.45584

>  <SCORE.INTRA.SOLV.lig_0>
-81.722

>  <SCORE.INTRA.VDW>
-3.05792

>  <SCORE.INTRA.VDW.0>
1.12598

>  <SCORE.INTRA.norm>
-0.0200041

>  <SCORE.RESTR>
0

>  <SCORE.RESTR.CAVITY>
0

>  <SCORE.RESTR.norm>
0

>  <SCORE.SYSTEM>
0

>  <SCORE.SYSTEM.CONST>
0

>  <SCORE.SYSTEM.DIHEDRAL>
0

>  <SCORE.SYSTEM.SOLV>
0

>  <SCORE.SYSTEM.norm>
0

>  <SCORE.heavy>
26

>  <SCORE.norm>
-0.765763

>  <RMSD>
2.763

$$$$
ligand
 OpenBabel11021811433D
libRbt.so/2013.1/901 2013/11/27
 26 27  0  0  0  0  0  0  0  0999 V2000
   19.6369   43.6759   66.1553 C   0  0  0  0  0  0  0  0  0  0  0  0
   24.5536   37.9544   65.7240 C   0  0  0  0  0  0  0  0  0  0  0  0
   27.7736   39.6202   67.8948 P   0  0  1  0  0  0  0  0  0  0  0  0
   29.3127   38.2897   66.2986 P   0  0  1  0  0  0  0  0  0  0  0  0
   21.7876   38.4221   65.7192 C   0  0  0  0  0  0  0  0  0  0  0  0
   22.0343   40.8936   66.0964 C   0  0  0  0  0  0  0  0  0  0  0  0
   21.2170   39.8121   65.8344 C   0  0  0  0  0  0  0  0  0  0  0  0
   19.8484   40.0390   65.6786 C   0  0  0  0  0  0  0  0  0  0  0  0
   18.9850   38.9863   65.4149 N   0  0  0  0  0  0  0  0  0  0  0  0
   19.3835   41.2797   65.7927 N   0  0  0  0  0  0  0  0  0  0  0  0
   20.2001   42.2835   66.0388 C   0  0  0  0  0  0  0  0  0  0  0  0
   21.4974   42.1027   66.1915 N   0  0  0  0  0  0  0  0  0  0  0  0
   28.7799   40.2525   68.7775 O   0  5  0  0  0  0  0  0  0  0  0  0
   30.0725   36.9589   66.1036 O   0  0  0  0  0  0  0  0  0  0  0  0
   22.9141   37.5162   69.2541 S   0  0  0  0  0  0  0  0  0  0  0  0
   21.7219   37.9551   68.0695 C   0  0  0  0  0  0  0  0  0  0  0  0
   27.6063   40.4967   66.5564 O   0  0  0  0  0  0  0  0  0  0  0  0
   28.5271   38.6640   64.9448 O   0  5  0  0  0  0  0  0  0  0  0  0
   22.4430   38.0570   66.9770 N   0  0  0  0  0  0  0  0  0  0  0  0
   28.2590   38.1345   67.5067 O   0  0  0  0  0  0  0  0  0  0  0  0
   30.3199   39.4120   66.6362 O   0  0  0  0  0  0  0  0  0  0  0  0
   23.7393   37.8347   66.9874 C   0  0  2  0  0  0  0  0  0  0  0  0
   24.3294   37.5023   68.1638 C   0  0  2  0  0  0  0  0  0  0  0  0
   25.7742   37.2016   68.4653 C   0  0  0  0  0  0  0  0  0  0  0  0
   26.3474   38.2953   69.3693 C   0  0  0  0  0  0  0  0  0  0  0  0
   26.3608   39.5375   68.6631 O   0  0  0  0  0  0  0  0  0  0  0  0
  1 11  1  0  0  0  0
  3 13  1  1  0  0  0
  3 17  2  0  0  0  0
  3 20  1  0  0  0  0
  3 26  1  0  0  0  0
  4 14  1  6  0  0  0
  4 18  1  0  0  0  0
  4 21  2  0  0  0  0
  4 20  1  0  0  0  0
  5 19  1  0  0  0  0
  5  7  1  0  0  0  0
  6  7  2  0  0  0  0
  6 12  1  0  0  0  0
  7  8  1  0  0  0  0
  8  9  1  0  0  0  0
  8 10  2  0  0  0  0
 10 11  1  0  0  0  0
 11 12  2  0  0  0  0
 15 23  1  0  0  0  0
 15 16  1  0  0  0  0
 16 19  1  0  0  0  0
 19 22  1  0  0  0  0
 22  2  1  1  0  0  0
 22 23  1  0  0  0  0
 23 24  1  6  0  0  0
 24 25  1  0  0  0  0
 25 26  1  0  0  0  0
M  CHG  2  13  -1  18  -1
M  END
>  <CHROM.1>
-81.40456477,63.82285877,60.06998936,166.35029009,-66.97748801,-65.04167979
-89.19922209,-89.15339863,24.85133923,39.16776457,67.02116391,-2.91412260
-0.02368563,2.62471166

>  <Name>
ligand

>  <RI>
0

>  <Rbt.Current_Directory>
/home/itssahil/PROJECTS/Mol_Feturizer/New_Systems/rnas/2HOJ

>  <Rbt.Executable>
rbdock ($Id: //depot/dev/client3/rdock/2013.1/src/exe/rbdock.cxx#4 $)

>  <Rbt.Library>
libRbt.so (2013.1, Build901 2013/11/27)

>  <Rbt.Parameter_File>
/export/apps/rDock/src/rDock_2013.1_src/data/scripts/dock_solv.prm

>  <Rbt.Receptor>
prm/pocket_docking_6.prm

>  <SCORE>
-13.358

>  <SCORE.INTER>
-12.492

>  <SCORE.INTER.CONST>
1

>  <SCORE.INTER.POLAR>
-1.2954

>  <SCORE.INTER.ROT>
8

>  <SCORE.INTER.SOLV>
21.8704

>  <SCORE.INTER.VDW>
-20.2335

>  <SCORE.INTER.norm>
-0.480462

>  <SCORE.INTRA>
-0.86593

>  <SCORE.INTRA.DIHEDRAL>
-0.831653

>  <SCORE.INTRA.DIHEDRAL.0>
11.6398

>  <SCORE.INTRA.POLAR>
0

>  <SCORE.INTRA.POLAR.0>
0

>  <SCORE.INTRA.REPUL>
0

>  <SCORE.INTRA.REPUL.0>
0

>  <SCORE.INTRA.SOLV>
4.51536

>  <SCORE.INTRA.SOLV.lig_0>
-81.722

>  <SCORE.INTRA.VDW>
-2.70778

>  <SCORE.INTRA.VDW.0>
1.12598

>  <SCORE.INTRA.norm>
-0.033305

>  <SCORE.RESTR>
0

>  <SCORE.RESTR.CAVITY>
0

>  <SCORE.RESTR.norm>
0

>  <SCORE.SYSTEM>
0

>  <SCORE.SYSTEM.CONST>
0

>  <SCORE.SYSTEM.DIHEDRAL>
0

>  <SCORE.SYSTEM.SOLV>
0

>  <SCORE.SYSTEM.norm>
0

>  <SCORE.heavy>
26

>  <SCORE.norm>
-0.513767

>  <RMSD>
2.766

$$$$
ligand
 OpenBabel11021811433D
libRbt.so/2013.1/901 2013/11/27
 26 27  0  0  0  0  0  0  0  0999 V2000
   15.8974   39.4631   64.0487 C   0  0  0  0  0  0  0  0  0  0  0  0
   21.4222   39.3697   68.9737 C   0  0  0  0  0  0  0  0  0  0  0  0
   26.8987   38.5356   68.1988 P   0  0  1  0  0  0  0  0  0  0  0  0
   26.7659   38.8834   65.6398 P   0  0  1  0  0  0  0  0  0  0  0  0
   20.7586   40.8359   66.6759 C   0  0  0  0  0  0  0  0  0  0  0  0
   19.0192   39.1696   65.9619 C   0  0  0  0  0  0  0  0  0  0  0  0
   19.4717   40.4739   65.9801 C   0  0  0  0  0  0  0  0  0  0  0  0
   18.7068   41.4491   65.3378 C   0  0  0  0  0  0  0  0  0  0  0  0
   19.1180   42.7735   65.3269 N   0  0  0  0  0  0  0  0  0  0  0  0
   17.5799   41.0882   64.7309 N   0  0  0  0  0  0  0  0  0  0  0  0
   17.1827   39.8324   64.7422 C   0  0  0  0  0  0  0  0  0  0  0  0
   17.8824   38.8876   65.3395 N   0  0  0  0  0  0  0  0  0  0  0  0
   27.7463   37.9446   69.2589 O   0  5  0  0  0  0  0  0  0  0  0  0
   26.1344   37.4965   65.3866 O   0  0  0  0  0  0  0  0  0  0  0  0
   23.2515   38.0935   65.7539 S   0  0  0  0  0  0  0  0  0  0  0  0
   22.2233   39.4444   65.3858 C   0  0  0  0  0  0  0  0  0  0  0  0
   26.2911   39.9333   68.7134 O   0  0  0  0  0  0  0  0  0  0  0  0
   25.6074   39.9485   65.9772 O   0  5  0  0  0  0  0  0  0  0  0  0
   21.7063   39.7253   66.5595 N   0  0  0  0  0  0  0  0  0  0  0  0
   27.7883   38.7895   66.8806 O   0  0  0  0  0  0  0  0  0  0  0  0
   27.5310   39.3382   64.3766 O   0  0  0  0  0  0  0  0  0  0  0  0
   22.0237   39.0338   67.6323 C   0  0  2  0  0  0  0  0  0  0  0  0
   22.8999   38.0052   67.5033 C   0  0  2  0  0  0  0  0  0  0  0  0
   23.4311   37.0562   68.5455 C   0  0  0  0  0  0  0  0  0  0  0  0
   24.8284   37.5032   68.9809 C   0  0  0  0  0  0  0  0  0  0  0  0
   25.6962   37.5244   67.8457 O   0  0  0  0  0  0  0  0  0  0  0  0
  1 11  1  0  0  0  0
  3 13  1  1  0  0  0
  3 17  2  0  0  0  0
  3 20  1  0  0  0  0
  3 26  1  0  0  0  0
  4 14  1  6  0  0  0
  4 18  1  0  0  0  0
  4 21  2  0  0  0  0
  4 20  1  0  0  0  0
  5 19  1  0  0  0  0
  5  7  1  0  0  0  0
  6  7  2  0  0  0  0
  6 12  1  0  0  0  0
  7  8  1  0  0  0  0
  8  9  1  0  0  0  0
  8 10  2  0  0  0  0
 10 11  1  0  0  0  0
 11 12  2  0  0  0  0
 15 23  1  0  0  0  0
 15 16  1  0  0  0  0
 16 19  1  0  0  0  0
 19 22  1  0  0  0  0
 22  2  1  6  0  0  0
 22 23  1  0  0  0  0
 23 24  1  1  0  0  0
 24 25  1  0  0  0  0
 25 26  1  0  0  0  0
M  CHG  2  13  -1  18  -1
M  END
>  <CHROM.1>
158.90947191,69.30516665,33.29655627,-68.57640439,79.70179552,-59.10488496
157.07769632,68.99643863,23.17677413,39.12956337,66.55553662,-2.86116053
-0.10848099,1.94601718

>  <Name>
ligand

>  <RI>
0

>  <Rbt.Current_Directory>
/home/itssahil/PROJECTS/Mol_Feturizer/New_Systems/rnas/2HOJ

>  <Rbt.Executable>
rbdock ($Id: //depot/dev/client3/rdock/2013.1/src/exe/rbdock.cxx#4 $)

>  <Rbt.Library>
libRbt.so (2013.1, Build901 2013/11/27)

>  <Rbt.Parameter_File>
/export/apps/rDock/src/rDock_2013.1_src/data/scripts/dock_solv.prm

>  <Rbt.Receptor>
prm/pocket_docking_2.prm

>  <SCORE>
-21.9313

>  <SCORE.INTER>
-17.8012

>  <SCORE.INTER.CONST>
1

>  <SCORE.INTER.POLAR>
0

>  <SCORE.INTER.ROT>
8

>  <SCORE.INTER.SOLV>
20.9059

>  <SCORE.INTER.VDW>
-27.7695

>  <SCORE.INTER.norm>
-0.684663

>  <SCORE.INTRA>
-5.98523

>  <SCORE.INTRA.DIHEDRAL>
-3.4292

>  <SCORE.INTRA.DIHEDRAL.0>
11.6398

>  <SCORE.INTRA.POLAR>
0

>  <SCORE.INTRA.POLAR.0>
0

>  <SCORE.INTRA.REPUL>
0

>  <SCORE.INTRA.REPUL.0>
0

>  <SCORE.INTRA.SOLV>
1.17376

>  <SCORE.INTRA.SOLV.lig_0>
-81.722

>  <SCORE.INTRA.VDW>
-4.85751

>  <SCORE.INTRA.VDW.0>
1.12598

>  <SCORE.INTRA.norm>
-0.230201

>  <SCORE.RESTR>
1.85514

>  <SCORE.RESTR.CAVITY>
1.85514

>  <SCORE.RESTR.norm>
0.0713517

>  <SCORE.SYSTEM>
0

>  <SCORE.SYSTEM.CONST>
0

>  <SCORE.SYSTEM.DIHEDRAL>
0

>  <SCORE.SYSTEM.SOLV>
0

>  <SCORE.SYSTEM.norm>
0

>  <SCORE.heavy>
26

>  <SCORE.norm>
-0.843512

>  <RMSD>
2.767

$$$$
ligand
 OpenBabel11021811433D
libRbt.so/2013.1/901 2013/11/27
 26 27  0  0  0  0  0  0  0  0999 V2000
   17.1001   39.8931   64.9061 C   0  0  0  0  0  0  0  0  0  0  0  0
   24.4369   42.1774   68.3867 C   0  0  0  0  0  0  0  0  0  0  0  0
   29.2368   37.8295   66.9471 P   0  0  1  0  0  0  0  0  0  0  0  0
   29.9659   36.3980   64.9206 P   0  0  1  0  0  0  0  0  0  0  0  0
   21.9066   41.8969   67.2084 C   0  0  0  0  0  0  0  0  0  0  0  0
   20.3387   40.0197   66.6346 C   0  0  0  0  0  0  0  0  0  0  0  0
   20.6341   41.3679   66.5985 C   0  0  0  0  0  0  0  0  0  0  0  0
   19.7238   42.2288   65.9830 C   0  0  0  0  0  0  0  0  0  0  0  0
   19.9742   43.5914   65.9199 N   0  0  0  0  0  0  0  0  0  0  0  0
   18.6148   41.7220   65.4523 N   0  0  0  0  0  0  0  0  0  0  0  0
   18.3702   40.4292   65.5135 C   0  0  0  0  0  0  0  0  0  0  0  0
   19.2096   39.5896   66.0875 N   0  0  0  0  0  0  0  0  0  0  0  0
   28.3166   36.7134   67.2622 O   0  5  0  0  0  0  0  0  0  0  0  0
   30.2736   36.3826   63.4069 O   0  0  0  0  0  0  0  0  0  0  0  0
   24.4876   39.9890   65.1386 S   0  0  0  0  0  0  0  0  0  0  0  0
   22.8788   40.5465   65.4829 C   0  0  0  0  0  0  0  0  0  0  0  0
   30.6328   37.6080   67.7151 O   0  0  0  0  0  0  0  0  0  0  0  0
   31.2868   35.9859   65.7424 O   0  5  0  0  0  0  0  0  0  0  0  0
   23.0576   41.2440   66.5808 N   0  0  0  0  0  0  0  0  0  0  0  0
   29.4990   37.8758   65.3588 O   0  0  0  0  0  0  0  0  0  0  0  0
   28.8348   35.3902   65.2255 O   0  0  0  0  0  0  0  0  0  0  0  0
   24.2476   41.3717   67.1263 C   0  0  2  0  0  0  0  0  0  0  0  0
   25.3011   40.7551   66.5326 C   0  0  2  0  0  0  0  0  0  0  0  0
   26.7524   40.7276   66.9348 C   0  0  0  0  0  0  0  0  0  0  0  0
   27.2965   39.3043   66.7931 C   0  0  0  0  0  0  0  0  0  0  0  0
   28.5774   39.2200   67.4210 O   0  0  0  0  0  0  0  0  0  0  0  0
  1 11  1  0  0  0  0
  3 13  1  1  0  0  0
  3 17  2  0  0  0  0
  3 20  1  0  0  0  0
  3 26  1  0  0  0  0
  4 14  1  6  0  0  0
  4 18  1  0  0  0  0
  4 21  2  0  0  0  0
  4 20  1  0  0  0  0
  5 19  1  0  0  0  0
  5  7  1  0  0  0  0
  6  7  2  0  0  0  0
  6 12  1  0  0  0  0
  7  8  1  0  0  0  0
  8  9  1  0  0  0  0
  8 10  2  0  0  0  0
 10 11  1  0  0  0  0
 11 12  2  0  0  0  0
 15 23  1  0  0  0  0
 15 16  1  0  0  0  0
 16 19  1  0  0  0  0
 19 22  1  0  0  0  0
 22  2  1  1  0  0  0
 22 23  1  0  0  0  0
 23 24  1  6  0  0  0
 24 25  1  0  0  0  0
 25 26  1  0  0  0  0
M  CHG  2  13  -1  18  -1
M  END
>  <CHROM.1>
-52.47351876,12.65274194,58.14287650,-178.42028778,-43.77922095,-168.46651291
-167.05870060,-55.16736909,25.29416201,39.31299682,66.12926368,2.80572629
-0.23503070,0.61569532

>  <Name>
ligand

>  <RI>
0

>  <Rbt.Current_Directory>
/home/itssahil/PROJECTS/Mol_Feturizer/New_Systems/rnas/2HOJ

>  <Rbt.Executable>
rbdock ($Id: //depot/dev/client3/rdock/2013.1/src/exe/rbdock.cxx#4 $)

>  <Rbt.Library>
libRbt.so (2013.1, Build901 2013/11/27)

>  <Rbt.Parameter_File>
/export/apps/rDock/src/rDock_2013.1_src/data/scripts/dock_solv.prm

>  <Rbt.Receptor>
prm/blind_docking_100.prm

>  <SCORE>
-20.4087

>  <SCORE.INTER>
-18.3255

>  <SCORE.INTER.CONST>
1

>  <SCORE.INTER.POLAR>
-1.69735

>  <SCORE.INTER.ROT>
8

>  <SCORE.INTER.SOLV>
28.1969

>  <SCORE.INTER.VDW>
-24.8914

>  <SCORE.INTER.norm>
-0.704826

>  <SCORE.INTRA>
-2.08325

>  <SCORE.INTRA.DIHEDRAL>
-5.1766

>  <SCORE.INTRA.DIHEDRAL.0>
11.6398

>  <SCORE.INTRA.POLAR>
0

>  <SCORE.INTRA.POLAR.0>
0

>  <SCORE.INTRA.REPUL>
0

>  <SCORE.INTRA.REPUL.0>
0

>  <SCORE.INTRA.SOLV>
3.14608

>  <SCORE.INTRA.SOLV.lig_0>
-81.722

>  <SCORE.INTRA.VDW>
-1.06799

>  <SCORE.INTRA.VDW.0>
1.12598

>  <SCORE.INTRA.norm>
-0.0801249

>  <SCORE.RESTR>
0

>  <SCORE.RESTR.CAVITY>
0

>  <SCORE.RESTR.norm>
0

>  <SCORE.SYSTEM>
0

>  <SCORE.SYSTEM.CONST>
0

>  <SCORE.SYSTEM.DIHEDRAL>
0

>  <SCORE.SYSTEM.SOLV>
0

>  <SCORE.SYSTEM.norm>
0

>  <SCORE.heavy>
26

>  <SCORE.norm>
-0.784951

>  <RMSD>
2.771

$$$$
ligand
 OpenBabel11021811433D
libRbt.so/2013.1/901 2013/11/27
 26 27  0  0  0  0  0  0  0  0999 V2000
   20.0425   44.1319   66.0600 C   0  0  0  0  0  0  0  0  0  0  0  0
   22.1126   38.4286   64.9070 C   0  0  0  0  0  0  0  0  0  0  0  0
   27.8010   38.8905   66.3050 P   0  0  1  0  0  0  0  0  0  0  0  0
   30.0521   38.8329   67.5763 P   0  0  1  0  0  0  0  0  0  0  0  0
   20.5779   38.5896   67.2497 C   0  0  0  0  0  0  0  0  0  0  0  0
   21.3305   40.9793   67.4363 C   0  0  0  0  0  0  0  0  0  0  0  0
   20.4349   40.0563   66.9341 C   0  0  0  0  0  0  0  0  0  0  0  0
   19.3936   40.5162   66.1260 C   0  0  0  0  0  0  0  0  0  0  0  0
   18.4674   39.6296   65.5973 N   0  0  0  0  0  0  0  0  0  0  0  0
   19.2993   41.8187   65.8751 N   0  0  0  0  0  0  0  0  0  0  0  0
   20.1790   42.6643   66.3713 C   0  0  0  0  0  0  0  0  0  0  0  0
   21.1737   42.2621   67.1380 N   0  0  0  0  0  0  0  0  0  0  0  0
   28.4786   38.9966   64.9930 O   0  5  0  0  0  0  0  0  0  0  0  0
   29.7764   37.4921   68.2921 O   0  0  0  0  0  0  0  0  0  0  0  0
   24.1738   37.6715   68.1506 S   0  0  0  0  0  0  0  0  0  0  0  0
   22.5179   38.0242   68.5391 C   0  0  0  0  0  0  0  0  0  0  0  0
   27.6496   37.3404   66.7077 O   0  0  0  0  0  0  0  0  0  0  0  0
   30.6730   38.5471   66.1192 O   0  5  0  0  0  0  0  0  0  0  0  0
   21.9982   38.2484   67.3544 N   0  0  0  0  0  0  0  0  0  0  0  0
   28.6746   39.6530   67.4226 O   0  0  0  0  0  0  0  0  0  0  0  0
   31.0546   39.6636   68.4088 O   0  0  0  0  0  0  0  0  0  0  0  0
   22.7245   38.1695   66.2607 C   0  0  2  0  0  0  0  0  0  0  0  0
   24.0401   37.8569   66.3787 C   0  0  2  0  0  0  0  0  0  0  0  0
   25.0930   37.7046   65.3124 C   0  0  0  0  0  0  0  0  0  0  0  0
   25.7299   39.0658   65.0231 C   0  0  0  0  0  0  0  0  0  0  0  0
   26.3425   39.5667   66.2130 O   0  0  0  0  0  0  0  0  0  0  0  0
  1 11  1  0  0  0  0
  3 13  1  6  0  0  0
  3 17  2  0  0  0  0
  3 20  1  0  0  0  0
  3 26  1  0  0  0  0
  4 14  1  1  0  0  0
  4 18  1  0  0  0  0
  4 21  2  0  0  0  0
  4 20  1  0  0  0  0
  5 19  1  0  0  0  0
  5  7  1  0  0  0  0
  6  7  2  0  0  0  0
  6 12  1  0  0  0  0
  7  8  1  0  0  0  0
  8  9  1  0  0  0  0
  8 10  2  0  0  0  0
 10 11  1  0  0  0  0
 11 12  2  0  0  0  0
 15 23  1  0  0  0  0
 15 16  1  0  0  0  0
 16 19  1  0  0  0  0
 19 22  1  0  0  0  0
 22  2  1  1  0  0  0
 22 23  1  0  0  0  0
 23 24  1  6  0  0  0
 24 25  1  0  0  0  0
 25 26  1  0  0  0  0
M  CHG  2  13  -1  18  -1
M  END
>  <CHROM.1>
-66.03350665,106.22185291,-34.04856612,-71.75663265,-92.73600564,60.57223924
83.41892297,47.22415179,24.83477923,39.27082565,66.72804841,-2.91516415,0.03789859
3.00631437

>  <Name>
ligand

>  <RI>
0

>  <Rbt.Current_Directory>
/home/itssahil/PROJECTS/Mol_Feturizer/New_Systems/rnas/2HOJ

>  <Rbt.Executable>
rbdock ($Id: //depot/dev/client3/rdock/2013.1/src/exe/rbdock.cxx#4 $)

>  <Rbt.Library>
libRbt.so (2013.1, Build901 2013/11/27)

>  <Rbt.Parameter_File>
/export/apps/rDock/src/rDock_2013.1_src/data/scripts/dock_solv.prm

>  <Rbt.Receptor>
prm/pocket_docking_3.prm

>  <SCORE>
-22.6598

>  <SCORE.INTER>
-20.0597

>  <SCORE.INTER.CONST>
1

>  <SCORE.INTER.POLAR>
-2.64178

>  <SCORE.INTER.ROT>
8

>  <SCORE.INTER.SOLV>
27.4383

>  <SCORE.INTER.VDW>
-22.6466

>  <SCORE.INTER.norm>
-0.771527

>  <SCORE.INTRA>
-2.60012

>  <SCORE.INTRA.DIHEDRAL>
-3.88329

>  <SCORE.INTRA.DIHEDRAL.0>
11.6398

>  <SCORE.INTRA.POLAR>
0

>  <SCORE.INTRA.POLAR.0>
0

>  <SCORE.INTRA.REPUL>
0

>  <SCORE.INTRA.REPUL.0>
0

>  <SCORE.INTRA.SOLV>
3.85843

>  <SCORE.INTRA.SOLV.lig_0>
-81.722

>  <SCORE.INTRA.VDW>
-2.58769

>  <SCORE.INTRA.VDW.0>
1.12598

>  <SCORE.INTRA.norm>
-0.100005

>  <SCORE.RESTR>
0

>  <SCORE.RESTR.CAVITY>
0

>  <SCORE.RESTR.norm>
0

>  <SCORE.SYSTEM>
0

>  <SCORE.SYSTEM.CONST>
0

>  <SCORE.SYSTEM.DIHEDRAL>
0

>  <SCORE.SYSTEM.SOLV>
0

>  <SCORE.SYSTEM.norm>
0

>  <SCORE.heavy>
26

>  <SCORE.norm>
-0.871531

>  <RMSD>
2.771

$$$$
ligand
 OpenBabel11021811433D
libRbt.so/2013.1/901 2013/11/27
 26 27  0  0  0  0  0  0  0  0999 V2000
   19.1967   43.5769   66.1108 C   0  0  0  0  0  0  0  0  0  0  0  0
   24.1997   37.7846   66.0994 C   0  0  0  0  0  0  0  0  0  0  0  0
   28.0145   38.9999   69.4303 P   0  0  1  0  0  0  0  0  0  0  0  0
   29.1748   38.0363   67.3299 P   0  0  1  0  0  0  0  0  0  0  0  0
   21.4958   38.3877   65.6580 C   0  0  0  0  0  0  0  0  0  0  0  0
   19.5201   39.9380   65.7290 C   0  0  0  0  0  0  0  0  0  0  0  0
   20.8886   39.7618   65.7779 C   0  0  0  0  0  0  0  0  0  0  0  0
   21.6957   40.8890   65.9417 C   0  0  0  0  0  0  0  0  0  0  0  0
   23.0760   40.7655   65.9965 N   0  0  0  0  0  0  0  0  0  0  0  0
   21.1215   42.0844   66.0386 N   0  0  0  0  0  0  0  0  0  0  0  0
   19.8108   42.2065   65.9916 C   0  0  0  0  0  0  0  0  0  0  0  0
   19.0207   41.1619   65.8375 N   0  0  0  0  0  0  0  0  0  0  0  0
   29.2814   38.7584   70.1570 O   0  5  0  0  0  0  0  0  0  0  0  0
   30.4932   37.9108   68.1251 O   0  0  0  0  0  0  0  0  0  0  0  0
   21.9632   37.2274   69.2664 S   0  0  0  0  0  0  0  0  0  0  0  0
   21.0099   37.7914   67.9284 C   0  0  0  0  0  0  0  0  0  0  0  0
   27.2594   40.2667   70.0730 O   0  0  0  0  0  0  0  0  0  0  0  0
   28.3088   36.6916   67.5085 O   0  5  0  0  0  0  0  0  0  0  0  0
   21.9111   37.9196   66.9821 N   0  0  0  0  0  0  0  0  0  0  0  0
   28.3337   39.2949   67.8796 O   0  0  0  0  0  0  0  0  0  0  0  0
   29.4955   38.2469   65.8329 O   0  0  0  0  0  0  0  0  0  0  0  0
   23.1767   37.6335   67.1969 C   0  0  2  0  0  0  0  0  0  0  0  0
   23.5429   37.2058   68.4320 C   0  0  2  0  0  0  0  0  0  0  0  0
   24.9018   36.8174   68.9530 C   0  0  0  0  0  0  0  0  0  0  0  0
   25.8248   38.0380   68.9369 C   0  0  0  0  0  0  0  0  0  0  0  0
   27.0729   37.6985   69.5442 O   0  0  0  0  0  0  0  0  0  0  0  0
  1 11  1  0  0  0  0
  3 13  1  1  0  0  0
  3 17  2  0  0  0  0
  3 20  1  0  0  0  0
  3 26  1  0  0  0  0
  4 14  1  1  0  0  0
  4 18  1  0  0  0  0
  4 21  2  0  0  0  0
  4 20  1  0  0  0  0
  5 19  1  0  0  0  0
  5  7  1  0  0  0  0
  6  7  2  0  0  0  0
  6 12  1  0  0  0  0
  7  8  1  0  0  0  0
  8  9  1  0  0  0  0
  8 10  2  0  0  0  0
 10 11  1  0  0  0  0
 11 12  2  0  0  0  0
 15 23  1  0  0  0  0
 15 16  1  0  0  0  0
 16 19  1  0  0  0  0
 19 22  1  0  0  0  0
 22  2  1  1  0  0  0
 22 23  1  0  0  0  0
 23 24  1  6  0  0  0
 24 25  1  0  0  0  0
 25 26  1  0  0  0  0
M  CHG  2  13  -1  18  -1
M  END
>  <CHROM.1>
56.13144314,60.29128983,-103.05190244,-60.98485580,-115.72107496,174.73583041
177.35906356,174.62712760,24.70869439,38.89784168,67.62353169,-2.80085210
0.08111592,2.62315048

>  <Name>
ligand

>  <RI>
0

>  <Rbt.Current_Directory>
/home/itssahil/PROJECTS/Mol_Feturizer/New_Systems/rnas/2HOJ

>  <Rbt.Executable>
rbdock ($Id: //depot/dev/client3/rdock/2013.1/src/exe/rbdock.cxx#4 $)

>  <Rbt.Library>
libRbt.so (2013.1, Build901 2013/11/27)

>  <Rbt.Parameter_File>
/export/apps/rDock/src/rDock_2013.1_src/data/scripts/dock_solv.prm

>  <Rbt.Receptor>
prm/pocket_docking_6.prm

>  <SCORE>
-23.1839

>  <SCORE.INTER>
-18.1776

>  <SCORE.INTER.CONST>
1

>  <SCORE.INTER.POLAR>
-1.37477

>  <SCORE.INTER.ROT>
8

>  <SCORE.INTER.SOLV>
18.1613

>  <SCORE.INTER.VDW>
-22.5229

>  <SCORE.INTER.norm>
-0.699138

>  <SCORE.INTRA>
-5.00632

>  <SCORE.INTRA.DIHEDRAL>
-6.85791

>  <SCORE.INTRA.DIHEDRAL.0>
11.6398

>  <SCORE.INTRA.POLAR>
0

>  <SCORE.INTRA.POLAR.0>
0

>  <SCORE.INTRA.REPUL>
0

>  <SCORE.INTRA.REPUL.0>
0

>  <SCORE.INTRA.SOLV>
3.82012

>  <SCORE.INTRA.SOLV.lig_0>
-81.722

>  <SCORE.INTRA.VDW>
-3.48742

>  <SCORE.INTRA.VDW.0>
1.12598

>  <SCORE.INTRA.norm>
-0.192551

>  <SCORE.RESTR>
0

>  <SCORE.RESTR.CAVITY>
0

>  <SCORE.RESTR.norm>
0

>  <SCORE.SYSTEM>
0

>  <SCORE.SYSTEM.CONST>
0

>  <SCORE.SYSTEM.DIHEDRAL>
0

>  <SCORE.SYSTEM.SOLV>
0

>  <SCORE.SYSTEM.norm>
0

>  <SCORE.heavy>
26

>  <SCORE.norm>
-0.891689

>  <RMSD>
2.774

$$$$
ligand
 OpenBabel11021811433D
libRbt.so/2013.1/901 2013/11/27
 26 27  0  0  0  0  0  0  0  0999 V2000
   19.6705   43.8022   66.2134 C   0  0  0  0  0  0  0  0  0  0  0  0
   21.8153   37.6115   68.1806 C   0  0  0  0  0  0  0  0  0  0  0  0
   28.1425   39.2259   68.6677 P   0  0  1  0  0  0  0  0  0  0  0  0
   30.1000   39.1855   66.9784 P   0  0  1  0  0  0  0  0  0  0  0  0
   21.2041   38.3596   65.5469 C   0  0  0  0  0  0  0  0  0  0  0  0
   21.7271   40.7626   66.0602 C   0  0  0  0  0  0  0  0  0  0  0  0
   20.7968   39.7998   65.7230 C   0  0  0  0  0  0  0  0  0  0  0  0
   19.4691   40.1943   65.5491 C   0  0  0  0  0  0  0  0  0  0  0  0
   18.4963   39.2655   65.2107 N   0  0  0  0  0  0  0  0  0  0  0  0
   19.1493   41.4739   65.7185 N   0  0  0  0  0  0  0  0  0  0  0  0
   20.0702   42.3607   66.0357 C   0  0  0  0  0  0  0  0  0  0  0  0
   21.3327   42.0204   66.2073 N   0  0  0  0  0  0  0  0  0  0  0  0
   28.7911   38.6789   69.8808 O   0  5  0  0  0  0  0  0  0  0  0  0
   29.8117   40.4179   66.0928 O   0  0  0  0  0  0  0  0  0  0  0  0
   24.9936   38.1004   65.9442 S   0  0  0  0  0  0  0  0  0  0  0  0
   23.5456   38.4095   65.0359 C   0  0  0  0  0  0  0  0  0  0  0  0
   28.4588   40.7989   68.5523 O   0  0  0  0  0  0  0  0  0  0  0  0
   30.8573   39.6522   68.3196 O   0  5  0  0  0  0  0  0  0  0  0  0
   22.6082   38.1983   65.9307 N   0  0  0  0  0  0  0  0  0  0  0  0
   28.7120   38.4667   67.3666 O   0  0  0  0  0  0  0  0  0  0  0  0
   30.9936   38.1922   66.2020 O   0  0  0  0  0  0  0  0  0  0  0  0
   22.9033   37.8491   67.1639 C   0  0  2  0  0  0  0  0  0  0  0  0
   24.2101   37.6999   67.4991 C   0  0  2  0  0  0  0  0  0  0  0  0
   24.8279   37.3094   68.8162 C   0  0  0  0  0  0  0  0  0  0  0  0
   26.3317   37.5914   68.7804 C   0  0  0  0  0  0  0  0  0  0  0  0
   26.5505   39.0035   68.7625 O   0  0  0  0  0  0  0  0  0  0  0  0
  1 11  1  0  0  0  0
  3 13  1  1  0  0  0
  3 17  2  0  0  0  0
  3 20  1  0  0  0  0
  3 26  1  0  0  0  0
  4 14  1  6  0  0  0
  4 18  1  0  0  0  0
  4 21  2  0  0  0  0
  4 20  1  0  0  0  0
  5 19  1  0  0  0  0
  5  7  1  0  0  0  0
  6  7  2  0  0  0  0
  6 12  1  0  0  0  0
  7  8  1  0  0  0  0
  8  9  1  0  0  0  0
  8 10  2  0  0  0  0
 10 11  1  0  0  0  0
 11 12  2  0  0  0  0
 15 23  1  0  0  0  0
 15 16  1  0  0  0  0
 16 19  1  0  0  0  0
 19 22  1  0  0  0  0
 22  2  1  6  0  0  0
 22 23  1  0  0  0  0
 23 24  1  1  0  0  0
 24 25  1  0  0  0  0
 25 26  1  0  0  0  0
M  CHG  2  13  -1  18  -1
M  END
>  <CHROM.1>
-82.91638962,-86.93731868,6.28172141,-85.21132696,12.81527824,69.18724284
-177.85820119,-63.36095059,25.07509886,39.32644535,67.02773072,-2.96325115
0.16815905,2.94906208

>  <Name>
ligand

>  <RI>
0

>  <Rbt.Current_Directory>
/home/itssahil/PROJECTS/Mol_Feturizer/New_Systems/rnas/2HOJ

>  <Rbt.Executable>
rbdock ($Id: //depot/dev/client3/rdock/2013.1/src/exe/rbdock.cxx#4 $)

>  <Rbt.Library>
libRbt.so (2013.1, Build901 2013/11/27)

>  <Rbt.Parameter_File>
/export/apps/rDock/src/rDock_2013.1_src/data/scripts/dock_solv.prm

>  <Rbt.Receptor>
prm/pocket_docking_8.prm

>  <SCORE>
-23.6565

>  <SCORE.INTER>
-19.1722

>  <SCORE.INTER.CONST>
1

>  <SCORE.INTER.POLAR>
-2.49005

>  <SCORE.INTER.ROT>
8

>  <SCORE.INTER.SOLV>
30.2875

>  <SCORE.INTER.VDW>
-23.5105

>  <SCORE.INTER.norm>
-0.737391

>  <SCORE.INTRA>
-4.48436

>  <SCORE.INTRA.DIHEDRAL>
-4.9959

>  <SCORE.INTRA.DIHEDRAL.0>
11.6398

>  <SCORE.INTRA.POLAR>
0

>  <SCORE.INTRA.POLAR.0>
0

>  <SCORE.INTRA.REPUL>
0

>  <SCORE.INTRA.REPUL.0>
0

>  <SCORE.INTRA.SOLV>
1.55381

>  <SCORE.INTRA.SOLV.lig_0>
-81.722

>  <SCORE.INTRA.VDW>
-2.76332

>  <SCORE.INTRA.VDW.0>
1.12598

>  <SCORE.INTRA.norm>
-0.172476

>  <SCORE.RESTR>
0

>  <SCORE.RESTR.CAVITY>
0

>  <SCORE.RESTR.norm>
0

>  <SCORE.SYSTEM>
0

>  <SCORE.SYSTEM.CONST>
0

>  <SCORE.SYSTEM.DIHEDRAL>
0

>  <SCORE.SYSTEM.SOLV>
0

>  <SCORE.SYSTEM.norm>
0

>  <SCORE.heavy>
26

>  <SCORE.norm>
-0.909867

>  <RMSD>
2.774

$$$$
ligand
 OpenBabel11021811433D
libRbt.so/2013.1/901 2013/11/27
 26 27  0  0  0  0  0  0  0  0999 V2000
   20.9805   44.7308   66.4551 C   0  0  0  0  0  0  0  0  0  0  0  0
   22.1421   38.7824   68.9016 C   0  0  0  0  0  0  0  0  0  0  0  0
   28.1831   39.2160   68.9883 P   0  0  1  0  0  0  0  0  0  0  0  0
   30.2103   38.8742   67.4197 P   0  0  1  0  0  0  0  0  0  0  0  0
   20.4816   39.0626   66.6579 C   0  0  0  0  0  0  0  0  0  0  0  0
   21.7290   41.1954   67.1129 C   0  0  0  0  0  0  0  0  0  0  0  0
   20.6123   40.5630   66.6036 C   0  0  0  0  0  0  0  0  0  0  0  0
   19.6074   41.3488   66.0367 C   0  0  0  0  0  0  0  0  0  0  0  0
   18.4656   40.7620   65.5118 N   0  0  0  0  0  0  0  0  0  0  0  0
   19.7583   42.6697   66.0126 N   0  0  0  0  0  0  0  0  0  0  0  0
   20.8428   43.2315   66.5059 C   0  0  0  0  0  0  0  0  0  0  0  0
   21.8099   42.5177   67.0482 N   0  0  0  0  0  0  0  0  0  0  0  0
   28.9777   38.7047   70.1280 O   0  5  0  0  0  0  0  0  0  0  0  0
   30.3509   40.4094   67.3206 O   0  0  0  0  0  0  0  0  0  0  0  0
   23.7634   37.4152   65.6086 S   0  0  0  0  0  0  0  0  0  0  0  0
   22.1769   38.0509   65.2983 C   0  0  0  0  0  0  0  0  0  0  0  0
   28.4005   40.8040   68.8512 O   0  0  0  0  0  0  0  0  0  0  0  0
   31.0746   38.3341   68.6652 O   0  5  0  0  0  0  0  0  0  0  0  0
   21.8018   38.4507   66.4913 N   0  0  0  0  0  0  0  0  0  0  0  0
   28.6610   38.4895   67.6328 O   0  0  0  0  0  0  0  0  0  0  0  0
   30.7262   38.2255   66.1154 O   0  0  0  0  0  0  0  0  0  0  0  0
   22.5868   38.3169   67.5380 C   0  0  2  0  0  0  0  0  0  0  0  0
   23.8046   37.7430   67.3644 C   0  0  2  0  0  0  0  0  0  0  0  0
   24.8899   37.4637   68.3708 C   0  0  0  0  0  0  0  0  0  0  0  0
   26.1233   38.3079   68.0418 C   0  0  0  0  0  0  0  0  0  0  0  0
   26.6228   38.9070   69.2392 O   0  0  0  0  0  0  0  0  0  0  0  0
  1 11  1  0  0  0  0
  3 13  1  1  0  0  0
  3 17  2  0  0  0  0
  3 20  1  0  0  0  0
  3 26  1  0  0  0  0
  4 14  1  6  0  0  0
  4 18  1  0  0  0  0
  4 21  2  0  0  0  0
  4 20  1  0  0  0  0
  5 19  1  0  0  0  0
  5  7  1  0  0  0  0
  6  7  2  0  0  0  0
  6 12  1  0  0  0  0
  7  8  1  0  0  0  0
  8  9  1  0  0  0  0
  8 10  2  0  0  0  0
 10 11  1  0  0  0  0
 11 12  2  0  0  0  0
 15 23  1  0  0  0  0
 15 16  1  0  0  0  0
 16 19  1  0  0  0  0
 19 22  1  0  0  0  0
 22  2  1  1  0  0  0
 22 23  1  0  0  0  0
 23 24  1  6  0  0  0
 24 25  1  0  0  0  0
 25 26  1  0  0  0  0
M  CHG  2  13  -1  18  -1
M  END
>  <CHROM.1>
-61.68844164,-95.77488513,-34.50860861,-59.07984468,65.05913144,134.47830758
155.90800050,-130.94812754,25.01532551,39.53943010,67.36105664,-2.93254434
0.20932451,-3.05413280

>  <Name>
ligand

>  <RI>
0

>  <Rbt.Current_Directory>
/home/itssahil/PROJECTS/Mol_Feturizer/New_Systems/rnas/2HOJ

>  <Rbt.Executable>
rbdock ($Id: //depot/dev/client3/rdock/2013.1/src/exe/rbdock.cxx#4 $)

>  <Rbt.Library>
libRbt.so (2013.1, Build901 2013/11/27)

>  <Rbt.Parameter_File>
/export/apps/rDock/src/rDock_2013.1_src/data/scripts/dock_solv.prm

>  <Rbt.Receptor>
prm/blind_docking_100.prm

>  <SCORE>
-23.6386

>  <SCORE.INTER>
-24.61

>  <SCORE.INTER.CONST>
1

>  <SCORE.INTER.POLAR>
-4.02392

>  <SCORE.INTER.ROT>
8

>  <SCORE.INTER.SOLV>
32.6319

>  <SCORE.INTER.VDW>
-22.8042

>  <SCORE.INTER.norm>
-0.946537

>  <SCORE.INTRA>
0.971371

>  <SCORE.INTRA.DIHEDRAL>
2.98253

>  <SCORE.INTRA.DIHEDRAL.0>
11.6398

>  <SCORE.INTRA.POLAR>
0

>  <SCORE.INTRA.POLAR.0>
0

>  <SCORE.INTRA.REPUL>
0

>  <SCORE.INTRA.REPUL.0>
0

>  <SCORE.INTRA.SOLV>
0.750277

>  <SCORE.INTRA.SOLV.lig_0>
-81.722

>  <SCORE.INTRA.VDW>
-0.895031

>  <SCORE.INTRA.VDW.0>
1.12598

>  <SCORE.INTRA.norm>
0.0373604

>  <SCORE.RESTR>
0

>  <SCORE.RESTR.CAVITY>
0

>  <SCORE.RESTR.norm>
0

>  <SCORE.SYSTEM>
0

>  <SCORE.SYSTEM.CONST>
0

>  <SCORE.SYSTEM.DIHEDRAL>
0

>  <SCORE.SYSTEM.SOLV>
0

>  <SCORE.SYSTEM.norm>
0

>  <SCORE.heavy>
26

>  <SCORE.norm>
-0.909176

>  <RMSD>
2.779

$$$$
ligand
 OpenBabel11021811433D
libRbt.so/2013.1/901 2013/11/27
 26 27  0  0  0  0  0  0  0  0999 V2000
   16.5318   39.9833   64.3892 C   0  0  0  0  0  0  0  0  0  0  0  0
   23.5583   43.5484   67.1815 C   0  0  0  0  0  0  0  0  0  0  0  0
   27.6825   39.8069   67.7826 P   0  0  1  0  0  0  0  0  0  0  0  0
   27.9996   38.1215   65.8472 P   0  0  1  0  0  0  0  0  0  0  0  0
   21.1746   42.0923   66.9219 C   0  0  0  0  0  0  0  0  0  0  0  0
   19.1157   42.3437   65.5044 C   0  0  0  0  0  0  0  0  0  0  0  0
   19.9460   41.5327   66.2522 C   0  0  0  0  0  0  0  0  0  0  0  0
   19.6187   40.1810   66.3718 C   0  0  0  0  0  0  0  0  0  0  0  0
   20.4199   39.3246   67.1123 N   0  0  0  0  0  0  0  0  0  0  0  0
   18.5233   39.7271   65.7697 N   0  0  0  0  0  0  0  0  0  0  0  0
   17.7615   40.5355   65.0617 C   0  0  0  0  0  0  0  0  0  0  0  0
   18.0428   41.8171   64.9294 N   0  0  0  0  0  0  0  0  0  0  0  0
   27.1942   38.6708   68.5965 O   0  5  0  0  0  0  0  0  0  0  0  0
   26.6961   38.6889   65.2429 O   0  0  0  0  0  0  0  0  0  0  0  0
   23.9201   40.4057   64.8718 S   0  0  0  0  0  0  0  0  0  0  0  0
   22.2987   40.5422   65.4798 C   0  0  0  0  0  0  0  0  0  0  0  0
   28.3942   40.8865   68.7395 O   0  0  0  0  0  0  0  0  0  0  0  0
   28.9662   37.6167   64.6635 O   0  5  0  0  0  0  0  0  0  0  0  0
   22.3707   41.6264   66.2168 N   0  0  0  0  0  0  0  0  0  0  0  0
   28.7431   39.2709   66.6957 O   0  0  0  0  0  0  0  0  0  0  0  0
   27.6610   36.9343   66.7767 O   0  0  0  0  0  0  0  0  0  0  0  0
   23.4919   42.3041   66.3322 C   0  0  2  0  0  0  0  0  0  0  0  0
   24.5909   41.8537   65.6750 C   0  0  2  0  0  0  0  0  0  0  0  0
   25.9862   42.4194   65.6316 C   0  0  0  0  0  0  0  0  0  0  0  0
   26.8017   41.8619   66.8005 C   0  0  0  0  0  0  0  0  0  0  0  0
   26.4414   40.4972   67.0236 O   0  0  0  0  0  0  0  0  0  0  0  0
  1 11  1  0  0  0  0
  3 13  1  1  0  0  0
  3 17  2  0  0  0  0
  3 20  1  0  0  0  0
  3 26  1  0  0  0  0
  4 14  1  6  0  0  0
  4 18  1  0  0  0  0
  4 21  2  0  0  0  0
  4 20  1  0  0  0  0
  5 19  1  0  0  0  0
  5  7  1  0  0  0  0
  6  7  2  0  0  0  0
  6 12  1  0  0  0  0
  7  8  1  0  0  0  0
  8  9  1  0  0  0  0
  8 10  2  0  0  0  0
 10 11  1  0  0  0  0
 11 12  2  0  0  0  0
 15 23  1  0  0  0  0
 15 16  1  0  0  0  0
 16 19  1  0  0  0  0
 19 22  1  0  0  0  0
 22  2  1  1  0  0  0
 22 23  1  0  0  0  0
 23 24  1  6  0  0  0
 24 25  1  0  0  0  0
 25 26  1  0  0  0  0
M  CHG  2  13  -1  18  -1
M  END
>  <CHROM.1>
55.86025234,-21.83344301,-107.70224629,55.56890306,-92.69649851,37.16060943
156.95762665,153.19942789,24.17705847,40.28439497,66.24666413,2.99183536
-0.19288126,0.34391440

>  <Name>
ligand

>  <RI>
0

>  <Rbt.Current_Directory>
/home/itssahil/PROJECTS/Mol_Feturizer/New_Systems/rnas/2HOJ

>  <Rbt.Executable>
rbdock ($Id: //depot/dev/client3/rdock/2013.1/src/exe/rbdock.cxx#4 $)

>  <Rbt.Library>
libRbt.so (2013.1, Build901 2013/11/27)

>  <Rbt.Parameter_File>
/export/apps/rDock/src/rDock_2013.1_src/data/scripts/dock_solv.prm

>  <Rbt.Receptor>
prm/pocket_docking_4.prm

>  <SCORE>
-21.1845

>  <SCORE.INTER>
-19.0056

>  <SCORE.INTER.CONST>
1

>  <SCORE.INTER.POLAR>
-1.29785

>  <SCORE.INTER.ROT>
8

>  <SCORE.INTER.SOLV>
16.5386

>  <SCORE.INTER.VDW>
-22.7905

>  <SCORE.INTER.norm>
-0.730986

>  <SCORE.INTRA>
-2.17884

>  <SCORE.INTRA.DIHEDRAL>
-1.67661

>  <SCORE.INTRA.DIHEDRAL.0>
11.6398

>  <SCORE.INTRA.POLAR>
0

>  <SCORE.INTRA.POLAR.0>
0

>  <SCORE.INTRA.REPUL>
0

>  <SCORE.INTRA.REPUL.0>
0

>  <SCORE.INTRA.SOLV>
1.05056

>  <SCORE.INTRA.SOLV.lig_0>
-81.722

>  <SCORE.INTRA.VDW>
-1.86582

>  <SCORE.INTRA.VDW.0>
1.12598

>  <SCORE.INTRA.norm>
-0.0838016

>  <SCORE.RESTR>
0

>  <SCORE.RESTR.CAVITY>
0

>  <SCORE.RESTR.norm>
0

>  <SCORE.SYSTEM>
0

>  <SCORE.SYSTEM.CONST>
0

>  <SCORE.SYSTEM.DIHEDRAL>
0

>  <SCORE.SYSTEM.SOLV>
0

>  <SCORE.SYSTEM.norm>
0

>  <SCORE.heavy>
26

>  <SCORE.norm>
-0.814787

>  <RMSD>
2.780

$$$$
ligand
 OpenBabel11021811433D
libRbt.so/2013.1/901 2013/11/27
 26 27  0  0  0  0  0  0  0  0999 V2000
   19.6793   43.7415   66.0590 C   0  0  0  0  0  0  0  0  0  0  0  0
   22.1630   38.2309   68.3305 C   0  0  0  0  0  0  0  0  0  0  0  0
   27.9909   39.4529   68.6663 P   0  0  1  0  0  0  0  0  0  0  0  0
   30.2771   39.1463   67.4975 P   0  0  1  0  0  0  0  0  0  0  0  0
   21.2156   38.2714   65.6904 C   0  0  0  0  0  0  0  0  0  0  0  0
   21.7565   40.7174   65.8806 C   0  0  0  0  0  0  0  0  0  0  0  0
   20.8075   39.7189   65.7880 C   0  0  0  0  0  0  0  0  0  0  0  0
   19.4602   40.0842   65.7867 C   0  0  0  0  0  0  0  0  0  0  0  0
   18.4683   39.1190   65.6962 N   0  0  0  0  0  0  0  0  0  0  0  0
   19.1413   41.3718   65.8795 N   0  0  0  0  0  0  0  0  0  0  0  0
   20.0796   42.2926   65.9612 C   0  0  0  0  0  0  0  0  0  0  0  0
   21.3609   41.9805   65.9653 N   0  0  0  0  0  0  0  0  0  0  0  0
   28.4911   38.7166   69.8492 O   0  5  0  0  0  0  0  0  0  0  0  0
   29.6408   38.2520   66.4106 O   0  0  0  0  0  0  0  0  0  0  0  0
   25.0209   37.9492   65.6669 S   0  0  0  0  0  0  0  0  0  0  0  0
   23.4686   38.0710   64.8969 C   0  0  0  0  0  0  0  0  0  0  0  0
   26.8553   40.4966   69.1235 O   0  0  0  0  0  0  0  0  0  0  0  0
   31.5768   39.8811   66.8966 O   0  5  0  0  0  0  0  0  0  0  0  0
   22.6563   38.1529   65.9252 N   0  0  0  0  0  0  0  0  0  0  0  0
   29.2082   40.2512   67.9775 O   0  0  0  0  0  0  0  0  0  0  0  0
   30.6910   38.2736   68.7038 O   0  0  0  0  0  0  0  0  0  0  0  0
   23.1087   38.1345   67.1600 C   0  0  2  0  0  0  0  0  0  0  0  0
   24.4467   38.0191   67.3572 C   0  0  2  0  0  0  0  0  0  0  0  0
   25.2297   37.9683   68.6430 C   0  0  0  0  0  0  0  0  0  0  0  0
   26.6393   37.4416   68.3641 C   0  0  0  0  0  0  0  0  0  0  0  0
   27.3682   38.4108   67.6082 O   0  0  0  0  0  0  0  0  0  0  0  0
  1 11  1  0  0  0  0
  3 13  1  1  0  0  0
  3 17  2  0  0  0  0
  3 20  1  0  0  0  0
  3 26  1  0  0  0  0
  4 14  1  6  0  0  0
  4 18  1  0  0  0  0
  4 21  2  0  0  0  0
  4 20  1  0  0  0  0
  5 19  1  0  0  0  0
  5  7  1  0  0  0  0
  6  7  2  0  0  0  0
  6 12  1  0  0  0  0
  7  8  1  0  0  0  0
  8  9  1  0  0  0  0
  8 10  2  0  0  0  0
 10 11  1  0  0  0  0
 11 12  2  0  0  0  0
 15 23  1  0  0  0  0
 15 16  1  0  0  0  0
 16 19  1  0  0  0  0
 19 22  1  0  0  0  0
 22  2  1  1  0  0  0
 22 23  1  0  0  0  0
 23 24  1  6  0  0  0
 24 25  1  0  0  0  0
 25 26  1  0  0  0  0
M  CHG  2  13  -1  18  -1
M  END
>  <CHROM.1>
62.02189592,-98.05425832,8.88620165,64.12620957,-16.16644814,68.84674065
84.76160596,40.72755018,25.11592979,39.31516241,67.08954479,-3.00940992,0.22854614
-3.06229755

>  <Name>
ligand

>  <RI>
0

>  <Rbt.Current_Directory>
/home/itssahil/PROJECTS/Mol_Feturizer/New_Systems/rnas/2HOJ

>  <Rbt.Executable>
rbdock ($Id: //depot/dev/client3/rdock/2013.1/src/exe/rbdock.cxx#4 $)

>  <Rbt.Library>
libRbt.so (2013.1, Build901 2013/11/27)

>  <Rbt.Parameter_File>
/export/apps/rDock/src/rDock_2013.1_src/data/scripts/dock_solv.prm

>  <Rbt.Receptor>
prm/pocket_docking_5.prm

>  <SCORE>
-23.6986

>  <SCORE.INTER>
-20.6624

>  <SCORE.INTER.CONST>
1

>  <SCORE.INTER.POLAR>
-2.74448

>  <SCORE.INTER.ROT>
8

>  <SCORE.INTER.SOLV>
30.0689

>  <SCORE.INTER.VDW>
-23.583

>  <SCORE.INTER.norm>
-0.794708

>  <SCORE.INTRA>
-3.03619

>  <SCORE.INTRA.DIHEDRAL>
-3.47854

>  <SCORE.INTRA.DIHEDRAL.0>
11.6398

>  <SCORE.INTRA.POLAR>
0

>  <SCORE.INTRA.POLAR.0>
0

>  <SCORE.INTRA.REPUL>
0

>  <SCORE.INTRA.REPUL.0>
0

>  <SCORE.INTRA.SOLV>
1.47658

>  <SCORE.INTRA.SOLV.lig_0>
-81.722

>  <SCORE.INTRA.VDW>
-2.03521

>  <SCORE.INTRA.VDW.0>
1.12598

>  <SCORE.INTRA.norm>
-0.116776

>  <SCORE.RESTR>
0

>  <SCORE.RESTR.CAVITY>
0

>  <SCORE.RESTR.norm>
0

>  <SCORE.SYSTEM>
0

>  <SCORE.SYSTEM.CONST>
0

>  <SCORE.SYSTEM.DIHEDRAL>
0

>  <SCORE.SYSTEM.SOLV>
0

>  <SCORE.SYSTEM.norm>
0

>  <SCORE.heavy>
26

>  <SCORE.norm>
-0.911484

>  <RMSD>
2.797

$$$$
ligand
 OpenBabel11021811433D
libRbt.so/2013.1/901 2013/11/27
 26 27  0  0  0  0  0  0  0  0999 V2000
   15.9950   39.5462   64.1484 C   0  0  0  0  0  0  0  0  0  0  0  0
   21.7650   39.9082   68.9724 C   0  0  0  0  0  0  0  0  0  0  0  0
   26.9551   37.5702   68.7264 P   0  0  1  0  0  0  0  0  0  0  0  0
   27.8868   39.7099   69.8403 P   0  0  1  0  0  0  0  0  0  0  0  0
   21.1543   40.5875   66.3200 C   0  0  0  0  0  0  0  0  0  0  0  0
   19.3382   39.0192   65.5759 C   0  0  0  0  0  0  0  0  0  0  0  0
   19.7885   40.3134   65.7450 C   0  0  0  0  0  0  0  0  0  0  0  0
   18.9463   41.3616   65.3702 C   0  0  0  0  0  0  0  0  0  0  0  0
   19.3519   42.6795   65.5195 N   0  0  0  0  0  0  0  0  0  0  0  0
   17.7507   41.0778   64.8621 N   0  0  0  0  0  0  0  0  0  0  0  0
   17.3590   39.8279   64.7224 C   0  0  0  0  0  0  0  0  0  0  0  0
   18.1306   38.8154   65.0665 N   0  0  0  0  0  0  0  0  0  0  0  0
   27.6421   38.1718   67.5611 O   0  5  0  0  0  0  0  0  0  0  0  0
   29.1683   39.8746   68.9936 O   0  0  0  0  0  0  0  0  0  0  0  0
   22.9110   37.1971   66.3881 S   0  0  0  0  0  0  0  0  0  0  0  0
   22.1451   38.5327   65.5837 C   0  0  0  0  0  0  0  0  0  0  0  0
   27.1257   35.9712   68.6841 O   0  0  0  0  0  0  0  0  0  0  0  0
   26.6404   40.3677   69.0631 O   0  5  0  0  0  0  0  0  0  0  0  0
   21.8352   39.3190   66.5885 N   0  0  0  0  0  0  0  0  0  0  0  0
   27.6023   38.1437   70.0850 O   0  0  0  0  0  0  0  0  0  0  0  0
   28.0756   40.4168   71.2014 O   0  0  0  0  0  0  0  0  0  0  0  0
   22.1263   38.9937   67.8292 C   0  0  2  0  0  0  0  0  0  0  0  0
   22.7530   37.8117   68.0582 C   0  0  2  0  0  0  0  0  0  0  0  0
   23.1957   37.1924   69.3580 C   0  0  0  0  0  0  0  0  0  0  0  0
   24.6871   36.8572   69.2841 C   0  0  0  0  0  0  0  0  0  0  0  0
   25.3897   37.9450   68.6800 O   0  0  0  0  0  0  0  0  0  0  0  0
  1 11  1  0  0  0  0
  3 13  1  6  0  0  0
  3 17  2  0  0  0  0
  3 20  1  0  0  0  0
  3 26  1  0  0  0  0
  4 14  1  6  0  0  0
  4 18  1  0  0  0  0
  4 21  2  0  0  0  0
  4 20  1  0  0  0  0
  5 19  1  0  0  0  0
  5  7  1  0  0  0  0
  6  7  2  0  0  0  0
  6 12  1  0  0  0  0
  7  8  1  0  0  0  0
  8  9  1  0  0  0  0
  8 10  2  0  0  0  0
 10 11  1  0  0  0  0
 11 12  2  0  0  0  0
 15 23  1  0  0  0  0
 15 16  1  0  0  0  0
 16 19  1  0  0  0  0
 19 22  1  0  0  0  0
 22  2  1  1  0  0  0
 22 23  1  0  0  0  0
 23 24  1  6  0  0  0
 24 25  1  0  0  0  0
 25 26  1  0  0  0  0
M  CHG  2  13  -1  18  -1
M  END
>  <CHROM.1>
39.85942642,64.82683985,1.60450022,-78.01477607,54.51545481,43.48672484,176.20070013
149.03246738,23.49269863,38.98028414,67.60129482,3.04741721,-0.44601137,0.11177144

>  <Name>
ligand

>  <RI>
0

>  <Rbt.Current_Directory>
/home/itssahil/PROJECTS/Mol_Feturizer/New_Systems/rnas/2HOJ

>  <Rbt.Executable>
rbdock ($Id: //depot/dev/client3/rdock/2013.1/src/exe/rbdock.cxx#4 $)

>  <Rbt.Library>
libRbt.so (2013.1, Build901 2013/11/27)

>  <Rbt.Parameter_File>
/export/apps/rDock/src/rDock_2013.1_src/data/scripts/dock_solv.prm

>  <Rbt.Receptor>
prm/pocket_docking_4.prm

>  <SCORE>
-25.423

>  <SCORE.INTER>
-22.3083

>  <SCORE.INTER.CONST>
1

>  <SCORE.INTER.POLAR>
-1.03923

>  <SCORE.INTER.ROT>
8

>  <SCORE.INTER.SOLV>
25.8013

>  <SCORE.INTER.VDW>
-28.9419

>  <SCORE.INTER.norm>
-0.85801

>  <SCORE.INTRA>
-3.11472

>  <SCORE.INTRA.DIHEDRAL>
-3.08467

>  <SCORE.INTRA.DIHEDRAL.0>
11.6398

>  <SCORE.INTRA.POLAR>
0

>  <SCORE.INTRA.POLAR.0>
0

>  <SCORE.INTRA.REPUL>
0

>  <SCORE.INTRA.REPUL.0>
0

>  <SCORE.INTRA.SOLV>
0.609513

>  <SCORE.INTRA.SOLV.lig_0>
-81.722

>  <SCORE.INTRA.VDW>
-1.87715

>  <SCORE.INTRA.VDW.0>
1.12598

>  <SCORE.INTRA.norm>
-0.119797

>  <SCORE.RESTR>
0

>  <SCORE.RESTR.CAVITY>
0

>  <SCORE.RESTR.norm>
0

>  <SCORE.SYSTEM>
0

>  <SCORE.SYSTEM.CONST>
0

>  <SCORE.SYSTEM.DIHEDRAL>
0

>  <SCORE.SYSTEM.SOLV>
0

>  <SCORE.SYSTEM.norm>
0

>  <SCORE.heavy>
26

>  <SCORE.norm>
-0.977807

>  <RMSD>
2.810

$$$$
ligand
 OpenBabel11021811433D
libRbt.so/2013.1/901 2013/11/27
 26 27  0  0  0  0  0  0  0  0999 V2000
   19.3856   43.8510   66.1011 C   0  0  0  0  0  0  0  0  0  0  0  0
   24.1122   37.9410   65.8067 C   0  0  0  0  0  0  0  0  0  0  0  0
   28.4552   39.2638   67.9143 P   0  0  1  0  0  0  0  0  0  0  0  0
   29.4561   37.5557   66.2508 P   0  0  1  0  0  0  0  0  0  0  0  0
   21.3679   38.5227   65.7882 C   0  0  0  0  0  0  0  0  0  0  0  0
   21.6883   40.9895   66.1403 C   0  0  0  0  0  0  0  0  0  0  0  0
   20.8419   39.9325   65.8708 C   0  0  0  0  0  0  0  0  0  0  0  0
   19.4862   40.2030   65.6763 C   0  0  0  0  0  0  0  0  0  0  0  0
   18.5947   39.1762   65.4035 N   0  0  0  0  0  0  0  0  0  0  0  0
   19.0608   41.4599   65.7625 N   0  0  0  0  0  0  0  0  0  0  0  0
   19.9042   42.4391   66.0171 C   0  0  0  0  0  0  0  0  0  0  0  0
   21.1903   42.2170   66.2059 N   0  0  0  0  0  0  0  0  0  0  0  0
   28.7408   40.2510   68.9799 O   0  5  0  0  0  0  0  0  0  0  0  0
   28.5749   36.4679   66.9038 O   0  0  0  0  0  0  0  0  0  0  0  0
   22.4585   37.6673   69.3469 S   0  0  0  0  0  0  0  0  0  0  0  0
   21.2847   38.1229   68.1502 C   0  0  0  0  0  0  0  0  0  0  0  0
   27.6540   39.9811   66.7180 O   0  0  0  0  0  0  0  0  0  0  0  0
   28.6480   38.2502   65.0447 O   0  5  0  0  0  0  0  0  0  0  0  0
   22.0086   38.1650   67.0557 N   0  0  0  0  0  0  0  0  0  0  0  0
   29.8409   38.6672   67.3509 O   0  0  0  0  0  0  0  0  0  0  0  0
   30.7471   36.9091   65.7001 O   0  0  0  0  0  0  0  0  0  0  0  0
   23.2945   37.8896   67.0727 C   0  0  2  0  0  0  0  0  0  0  0  0
   23.8712   37.5651   68.2579 C   0  0  2  0  0  0  0  0  0  0  0  0
   25.3025   37.2129   68.5680 C   0  0  0  0  0  0  0  0  0  0  0  0
   26.1955   38.4302   68.3173 C   0  0  0  0  0  0  0  0  0  0  0  0
   27.5629   38.0661   68.5163 O   0  0  0  0  0  0  0  0  0  0  0  0
  1 11  1  0  0  0  0
  3 13  1  1  0  0  0
  3 17  2  0  0  0  0
  3 20  1  0  0  0  0
  3 26  1  0  0  0  0
  4 14  1  1  0  0  0
  4 18  1  0  0  0  0
  4 21  2  0  0  0  0
  4 20  1  0  0  0  0
  5 19  1  0  0  0  0
  5  7  1  0  0  0  0
  6  7  2  0  0  0  0
  6 12  1  0  0  0  0
  7  8  1  0  0  0  0
  8  9  1  0  0  0  0
  8 10  2  0  0  0  0
 10 11  1  0  0  0  0
 11 12  2  0  0  0  0
 15 23  1  0  0  0  0
 15 16  1  0  0  0  0
 16 19  1  0  0  0  0
 19 22  1  0  0  0  0
 22  2  1  1  0  0  0
 22 23  1  0  0  0  0
 23 24  1  6  0  0  0
 24 25  1  0  0  0  0
 25 26  1  0  0  0  0
M  CHG  2  13  -1  18  -1
M  END
>  <CHROM.1>
177.38585344,63.19305761,58.62613647,-58.29225232,-114.60426202,-175.73728145
167.11275971,91.17923679,24.76134449,38.97006611,67.00944958,-2.86650755
-0.05464991,2.67263471

>  <Name>
ligand

>  <RI>
0

>  <Rbt.Current_Directory>
/home/itssahil/PROJECTS/Mol_Feturizer/New_Systems/rnas/2HOJ

>  <Rbt.Executable>
rbdock ($Id: //depot/dev/client3/rdock/2013.1/src/exe/rbdock.cxx#4 $)

>  <Rbt.Library>
libRbt.so (2013.1, Build901 2013/11/27)

>  <Rbt.Parameter_File>
/export/apps/rDock/src/rDock_2013.1_src/data/scripts/dock_solv.prm

>  <Rbt.Receptor>
prm/pocket_docking_5.prm

>  <SCORE>
-19.6175

>  <SCORE.INTER>
-14.87

>  <SCORE.INTER.CONST>
1

>  <SCORE.INTER.POLAR>
-1.27775

>  <SCORE.INTER.ROT>
8

>  <SCORE.INTER.SOLV>
24.08

>  <SCORE.INTER.VDW>
-22.6142

>  <SCORE.INTER.norm>
-0.571925

>  <SCORE.INTRA>
-4.74748

>  <SCORE.INTRA.DIHEDRAL>
-4.91908

>  <SCORE.INTRA.DIHEDRAL.0>
11.6398

>  <SCORE.INTRA.POLAR>
0

>  <SCORE.INTRA.POLAR.0>
0

>  <SCORE.INTRA.REPUL>
0

>  <SCORE.INTRA.REPUL.0>
0

>  <SCORE.INTRA.SOLV>
0.583533

>  <SCORE.INTRA.SOLV.lig_0>
-81.722

>  <SCORE.INTRA.VDW>
-2.57971

>  <SCORE.INTRA.VDW.0>
1.12598

>  <SCORE.INTRA.norm>
-0.182596

>  <SCORE.RESTR>
0

>  <SCORE.RESTR.CAVITY>
0

>  <SCORE.RESTR.norm>
0

>  <SCORE.SYSTEM>
0

>  <SCORE.SYSTEM.CONST>
0

>  <SCORE.SYSTEM.DIHEDRAL>
0

>  <SCORE.SYSTEM.SOLV>
0

>  <SCORE.SYSTEM.norm>
0

>  <SCORE.heavy>
26

>  <SCORE.norm>
-0.75452

>  <RMSD>
2.819

$$$$
ligand
 OpenBabel11021811433D
libRbt.so/2013.1/901 2013/11/27
 26 27  0  0  0  0  0  0  0  0999 V2000
   15.4658   39.2361   63.8003 C   0  0  0  0  0  0  0  0  0  0  0  0
   21.5329   39.5882   68.7016 C   0  0  0  0  0  0  0  0  0  0  0  0
   26.5851   38.7858   67.8111 P   0  0  1  0  0  0  0  0  0  0  0  0
   27.1613   41.2067   68.5140 P   0  0  1  0  0  0  0  0  0  0  0  0
   20.4512   40.4587   66.2640 C   0  0  0  0  0  0  0  0  0  0  0  0
   18.7022   38.8299   65.4893 C   0  0  0  0  0  0  0  0  0  0  0  0
   19.1314   40.1365   65.6116 C   0  0  0  0  0  0  0  0  0  0  0  0
   18.3115   41.1518   65.1159 C   0  0  0  0  0  0  0  0  0  0  0  0
   18.6974   42.4803   65.2138 N   0  0  0  0  0  0  0  0  0  0  0  0
   17.1568   40.8258   64.5427 N   0  0  0  0  0  0  0  0  0  0  0  0
   16.7838   39.5658   64.4512 C   0  0  0  0  0  0  0  0  0  0  0  0
   17.5352   38.5836   64.9091 N   0  0  0  0  0  0  0  0  0  0  0  0
   27.1559   39.1414   66.4923 O   0  5  0  0  0  0  0  0  0  0  0  0
   26.7215   42.4281   69.3513 O   0  0  0  0  0  0  0  0  0  0  0  0
   22.5421   37.3179   65.6736 S   0  0  0  0  0  0  0  0  0  0  0  0
   21.5254   38.6264   65.1527 C   0  0  0  0  0  0  0  0  0  0  0  0
   27.7372   38.1621   68.7447 O   0  0  0  0  0  0  0  0  0  0  0  0
   28.4924   40.5671   69.1537 O   0  5  0  0  0  0  0  0  0  0  0  0
   21.2944   39.2613   66.2785 N   0  0  0  0  0  0  0  0  0  0  0  0
   25.9847   40.1070   68.5092 O   0  0  0  0  0  0  0  0  0  0  0  0
   27.4514   41.6552   67.0639 O   0  0  0  0  0  0  0  0  0  0  0  0
   21.8065   38.8474   67.4170 C   0  0  2  0  0  0  0  0  0  0  0  0
   22.5813   37.7329   67.4109 C   0  0  2  0  0  0  0  0  0  0  0  0
   23.2822   37.0410   68.5505 C   0  0  0  0  0  0  0  0  0  0  0  0
   24.6291   37.7193   68.8111 C   0  0  0  0  0  0  0  0  0  0  0  0
   25.4090   37.7037   67.6138 O   0  0  0  0  0  0  0  0  0  0  0  0
  1 11  1  0  0  0  0
  3 13  1  6  0  0  0
  3 17  2  0  0  0  0
  3 20  1  0  0  0  0
  3 26  1  0  0  0  0
  4 14  1  1  0  0  0
  4 18  1  0  0  0  0
  4 21  2  0  0  0  0
  4 20  1  0  0  0  0
  5 19  1  0  0  0  0
  5  7  1  0  0  0  0
  6  7  2  0  0  0  0
  6 12  1  0  0  0  0
  7  8  1  0  0  0  0
  8  9  1  0  0  0  0
  8 10  2  0  0  0  0
 10 11  1  0  0  0  0
 11 12  2  0  0  0  0
 15 23  1  0  0  0  0
 15 16  1  0  0  0  0
 16 19  1  0  0  0  0
 19 22  1  0  0  0  0
 22  2  1  1  0  0  0
 22 23  1  0  0  0  0
 23 24  1  6  0  0  0
 24 25  1  0  0  0  0
 25 26  1  0  0  0  0
M  CHG  2  13  -1  18  -1
M  END
>  <CHROM.1>
-53.31510022,54.02198946,19.03820113,-171.84327625,95.84625819,-56.81274200
163.44415310,-161.90383897,23.04669026,39.47406916,66.93191636,-3.11609475
-0.35276486,0.02000878

>  <Name>
ligand

>  <RI>
0

>  <Rbt.Current_Directory>
/home/itssahil/PROJECTS/Mol_Feturizer/New_Systems/rnas/2HOJ

>  <Rbt.Executable>
rbdock ($Id: //depot/dev/client3/rdock/2013.1/src/exe/rbdock.cxx#4 $)

>  <Rbt.Library>
libRbt.so (2013.1, Build901 2013/11/27)

>  <Rbt.Parameter_File>
/export/apps/rDock/src/rDock_2013.1_src/data/scripts/dock_solv.prm

>  <Rbt.Receptor>
prm/pocket_docking_7.prm

>  <SCORE>
-27.6

>  <SCORE.INTER>
-23.94

>  <SCORE.INTER.CONST>
1

>  <SCORE.INTER.POLAR>
-1.24201

>  <SCORE.INTER.ROT>
8

>  <SCORE.INTER.SOLV>
23.7342

>  <SCORE.INTER.VDW>
-28.6647

>  <SCORE.INTER.norm>
-0.920768

>  <SCORE.INTRA>
-3.66007

>  <SCORE.INTRA.DIHEDRAL>
-4.89625

>  <SCORE.INTRA.DIHEDRAL.0>
11.6398

>  <SCORE.INTRA.POLAR>
0

>  <SCORE.INTRA.POLAR.0>
0

>  <SCORE.INTRA.REPUL>
0

>  <SCORE.INTRA.REPUL.0>
0

>  <SCORE.INTRA.SOLV>
2.71333

>  <SCORE.INTRA.SOLV.lig_0>
-81.722

>  <SCORE.INTRA.VDW>
-2.56861

>  <SCORE.INTRA.VDW.0>
1.12598

>  <SCORE.INTRA.norm>
-0.140772

>  <SCORE.RESTR>
0

>  <SCORE.RESTR.CAVITY>
0

>  <SCORE.RESTR.norm>
0

>  <SCORE.SYSTEM>
0

>  <SCORE.SYSTEM.CONST>
0

>  <SCORE.SYSTEM.DIHEDRAL>
0

>  <SCORE.SYSTEM.SOLV>
0

>  <SCORE.SYSTEM.norm>
0

>  <SCORE.heavy>
26

>  <SCORE.norm>
-1.06154

>  <RMSD>
2.819

$$$$
ligand
 OpenBabel11021811433D
libRbt.so/2013.1/901 2013/11/27
 26 27  0  0  0  0  0  0  0  0999 V2000
   17.6651   40.6198   65.0878 C   0  0  0  0  0  0  0  0  0  0  0  0
   24.3214   39.5423   66.2646 C   0  0  0  0  0  0  0  0  0  0  0  0
   27.8235   39.8849   67.8172 P   0  0  1  0  0  0  0  0  0  0  0  0
   28.3471   37.3527   67.8413 P   0  0  1  0  0  0  0  0  0  0  0  0
   22.4954   40.6185   68.1023 C   0  0  0  0  0  0  0  0  0  0  0  0
   20.6514   41.8001   66.8715 C   0  0  0  0  0  0  0  0  0  0  0  0
   21.2168   40.6173   67.3045 C   0  0  0  0  0  0  0  0  0  0  0  0
   20.5742   39.4202   66.9843 C   0  0  0  0  0  0  0  0  0  0  0  0
   21.1012   38.2053   67.3963 N   0  0  0  0  0  0  0  0  0  0  0  0
   19.4452   39.4621   66.2830 N   0  0  0  0  0  0  0  0  0  0  0  0
   18.9429   40.6131   65.8857 C   0  0  0  0  0  0  0  0  0  0  0  0
   19.5252   41.7612   66.1718 N   0  0  0  0  0  0  0  0  0  0  0  0
   27.0985   40.9930   68.4791 O   0  5  0  0  0  0  0  0  0  0  0  0
   28.1923   37.4346   66.3065 O   0  0  0  0  0  0  0  0  0  0  0  0
   24.7582   43.3996   66.7869 S   0  0  0  0  0  0  0  0  0  0  0  0
   23.4644   42.7857   67.7700 C   0  0  0  0  0  0  0  0  0  0  0  0
   29.4084   40.1346   67.9332 O   0  0  0  0  0  0  0  0  0  0  0  0
   29.8910   37.5732   68.2387 O   0  5  0  0  0  0  0  0  0  0  0  0
   23.4683   41.5086   67.4650 N   0  0  0  0  0  0  0  0  0  0  0  0
   27.4451   38.4931   68.5337 O   0  0  0  0  0  0  0  0  0  0  0  0
   27.8832   35.9625   68.3313 O   0  0  0  0  0  0  0  0  0  0  0  0
   24.3287   41.0117   66.6033 C   0  0  2  0  0  0  0  0  0  0  0  0
   25.2193   41.8534   66.0195 C   0  0  2  0  0  0  0  0  0  0  0  0
   26.2983   41.5640   65.0093 C   0  0  0  0  0  0  0  0  0  0  0  0
   27.5761   41.1339   65.7334 C   0  0  0  0  0  0  0  0  0  0  0  0
   27.4022   39.8187   66.2643 O   0  0  0  0  0  0  0  0  0  0  0  0
  1 11  1  0  0  0  0
  3 13  1  1  0  0  0
  3 17  2  0  0  0  0
  3 20  1  0  0  0  0
  3 26  1  0  0  0  0
  4 14  1  6  0  0  0
  4 18  1  0  0  0  0
  4 21  2  0  0  0  0
  4 20  1  0  0  0  0
  5 19  1  0  0  0  0
  5  7  1  0  0  0  0
  6  7  2  0  0  0  0
  6 12  1  0  0  0  0
  7  8  1  0  0  0  0
  8  9  1  0  0  0  0
  8 10  2  0  0  0  0
 10 11  1  0  0  0  0
 11 12  2  0  0  0  0
 15 23  1  0  0  0  0
 15 16  1  0  0  0  0
 16 19  1  0  0  0  0
 19 22  1  0  0  0  0
 22  2  1  6  0  0  0
 22 23  1  0  0  0  0
 23 24  1  1  0  0  0
 24 25  1  0  0  0  0
 25 26  1  0  0  0  0
M  CHG  2  13  -1  18  -1
M  END
>  <CHROM.1>
-175.83916778,87.09140715,-46.57990095,-51.58723345,93.27826610,72.24534024
-128.90980444,51.68458742,24.90729482,40.07022071,67.06588699,2.85073253
-0.10506904,-0.15706583

>  <Name>
ligand

>  <RI>
0

>  <Rbt.Current_Directory>
/home/itssahil/PROJECTS/Mol_Feturizer/New_Systems/rnas/2HOJ

>  <Rbt.Executable>
rbdock ($Id: //depot/dev/client3/rdock/2013.1/src/exe/rbdock.cxx#4 $)

>  <Rbt.Library>
libRbt.so (2013.1, Build901 2013/11/27)

>  <Rbt.Parameter_File>
/export/apps/rDock/src/rDock_2013.1_src/data/scripts/dock_solv.prm

>  <Rbt.Receptor>
prm/pocket_docking_6.prm

>  <SCORE>
-21.8439

>  <SCORE.INTER>
-18.848

>  <SCORE.INTER.CONST>
1

>  <SCORE.INTER.POLAR>
-2.99673

>  <SCORE.INTER.ROT>
8

>  <SCORE.INTER.SOLV>
19.136

>  <SCORE.INTER.VDW>
-17.8882

>  <SCORE.INTER.norm>
-0.724921

>  <SCORE.INTRA>
-2.9959

>  <SCORE.INTRA.DIHEDRAL>
0.784831

>  <SCORE.INTRA.DIHEDRAL.0>
11.6398

>  <SCORE.INTRA.POLAR>
0

>  <SCORE.INTRA.POLAR.0>
0

>  <SCORE.INTRA.REPUL>
0

>  <SCORE.INTRA.REPUL.0>
0

>  <SCORE.INTRA.SOLV>
2.96694

>  <SCORE.INTRA.SOLV.lig_0>
-81.722

>  <SCORE.INTRA.VDW>
-4.87179

>  <SCORE.INTRA.VDW.0>
1.12598

>  <SCORE.INTRA.norm>
-0.115227

>  <SCORE.RESTR>
0

>  <SCORE.RESTR.CAVITY>
0

>  <SCORE.RESTR.norm>
0

>  <SCORE.SYSTEM>
0

>  <SCORE.SYSTEM.CONST>
0

>  <SCORE.SYSTEM.DIHEDRAL>
0

>  <SCORE.SYSTEM.SOLV>
0

>  <SCORE.SYSTEM.norm>
0

>  <SCORE.heavy>
26

>  <SCORE.norm>
-0.840148

>  <RMSD>
2.845

$$$$
ligand
 OpenBabel11021811433D
libRbt.so/2013.1/901 2013/11/27
 26 27  0  0  0  0  0  0  0  0999 V2000
   15.7407   39.2096   64.0839 C   0  0  0  0  0  0  0  0  0  0  0  0
   21.7597   40.4610   68.7283 C   0  0  0  0  0  0  0  0  0  0  0  0
   26.4191   37.2943   69.9213 P   0  0  1  0  0  0  0  0  0  0  0  0
   27.3680   39.2056   68.4607 P   0  0  1  0  0  0  0  0  0  0  0  0
   20.8678   40.6783   66.0774 C   0  0  0  0  0  0  0  0  0  0  0  0
   19.1567   38.9636   65.4115 C   0  0  0  0  0  0  0  0  0  0  0  0
   19.5104   40.2910   65.5496 C   0  0  0  0  0  0  0  0  0  0  0  0
   18.5785   41.2654   65.1881 C   0  0  0  0  0  0  0  0  0  0  0  0
   18.8852   42.6127   65.3074 N   0  0  0  0  0  0  0  0  0  0  0  0
   17.3934   40.8827   64.7218 N   0  0  0  0  0  0  0  0  0  0  0  0
   17.0957   39.6044   64.6108 C   0  0  0  0  0  0  0  0  0  0  0  0
   17.9535   38.6596   64.9432 N   0  0  0  0  0  0  0  0  0  0  0  0
   27.1773   36.4541   68.9670 O   0  5  0  0  0  0  0  0  0  0  0  0
   27.6417   38.3008   67.2389 O   0  0  0  0  0  0  0  0  0  0  0  0
   22.6837   37.3499   66.5352 S   0  0  0  0  0  0  0  0  0  0  0  0
   21.8151   38.5286   65.6005 C   0  0  0  0  0  0  0  0  0  0  0  0
   27.3188   37.5710   71.2259 O   0  0  0  0  0  0  0  0  0  0  0  0
   27.1546   40.7232   67.9692 O   0  5  0  0  0  0  0  0  0  0  0  0
   21.5957   39.4744   66.4844 N   0  0  0  0  0  0  0  0  0  0  0  0
   26.0433   38.6950   69.2211 O   0  0  0  0  0  0  0  0  0  0  0  0
   28.5721   39.1422   69.4272 O   0  0  0  0  0  0  0  0  0  0  0  0
   22.0184   39.3653   67.7251 C   0  0  2  0  0  0  0  0  0  0  0  0
   22.6867   38.2398   68.0844 C   0  0  2  0  0  0  0  0  0  0  0  0
   23.2716   37.8512   69.4169 C   0  0  0  0  0  0  0  0  0  0  0  0
   24.1705   36.6248   69.2439 C   0  0  0  0  0  0  0  0  0  0  0  0
   25.0676   36.5324   70.3524 O   0  0  0  0  0  0  0  0  0  0  0  0
  1 11  1  0  0  0  0
  3 13  1  6  0  0  0
  3 17  2  0  0  0  0
  3 20  1  0  0  0  0
  3 26  1  0  0  0  0
  4 14  1  6  0  0  0
  4 18  1  0  0  0  0
  4 21  2  0  0  0  0
  4 20  1  0  0  0  0
  5 19  1  0  0  0  0
  5  7  1  0  0  0  0
  6  7  2  0  0  0  0
  6 12  1  0  0  0  0
  7  8  1  0  0  0  0
  8  9  1  0  0  0  0
  8 10  2  0  0  0  0
 10 11  1  0  0  0  0
 11 12  2  0  0  0  0
 15 23  1  0  0  0  0
 15 16  1  0  0  0  0
 16 19  1  0  0  0  0
 19 22  1  0  0  0  0
 22  2  1  1  0  0  0
 22 23  1  0  0  0  0
 23 24  1  6  0  0  0
 24 25  1  0  0  0  0
 25 26  1  0  0  0  0
M  CHG  2  13  -1  18  -1
M  END
>  <CHROM.1>
-44.67352860,58.22093251,-4.82453089,70.36482546,11.42853103,160.05657239
-93.04937045,-74.69445795,23.17401865,38.82915898,67.54545518,2.77858618
-0.34118536,-0.41141045

>  <Name>
ligand

>  <RI>
0

>  <Rbt.Current_Directory>
/home/itssahil/PROJECTS/Mol_Feturizer/New_Systems/rnas/2HOJ

>  <Rbt.Executable>
rbdock ($Id: //depot/dev/client3/rdock/2013.1/src/exe/rbdock.cxx#4 $)

>  <Rbt.Library>
libRbt.so (2013.1, Build901 2013/11/27)

>  <Rbt.Parameter_File>
/export/apps/rDock/src/rDock_2013.1_src/data/scripts/dock_solv.prm

>  <Rbt.Receptor>
prm/pocket_docking_4.prm

>  <SCORE>
-17.7244

>  <SCORE.INTER>
-17.1375

>  <SCORE.INTER.CONST>
1

>  <SCORE.INTER.POLAR>
0

>  <SCORE.INTER.ROT>
8

>  <SCORE.INTER.SOLV>
23.9717

>  <SCORE.INTER.VDW>
-28.3489

>  <SCORE.INTER.norm>
-0.659133

>  <SCORE.INTRA>
-0.586976

>  <SCORE.INTRA.DIHEDRAL>
-0.594462

>  <SCORE.INTRA.DIHEDRAL.0>
11.6398

>  <SCORE.INTRA.POLAR>
0

>  <SCORE.INTRA.POLAR.0>
0

>  <SCORE.INTRA.REPUL>
0

>  <SCORE.INTRA.REPUL.0>
0

>  <SCORE.INTRA.SOLV>
1.62016

>  <SCORE.INTRA.SOLV.lig_0>
-81.722

>  <SCORE.INTRA.VDW>
-1.09983

>  <SCORE.INTRA.VDW.0>
1.12598

>  <SCORE.INTRA.norm>
-0.022576

>  <SCORE.RESTR>
0

>  <SCORE.RESTR.CAVITY>
0

>  <SCORE.RESTR.norm>
0

>  <SCORE.SYSTEM>
0

>  <SCORE.SYSTEM.CONST>
0

>  <SCORE.SYSTEM.DIHEDRAL>
0

>  <SCORE.SYSTEM.SOLV>
0

>  <SCORE.SYSTEM.norm>
0

>  <SCORE.heavy>
26

>  <SCORE.norm>
-0.681709

>  <RMSD>
2.847

$$$$
ligand
 OpenBabel11021811433D
libRbt.so/2013.1/901 2013/11/27
 26 27  0  0  0  0  0  0  0  0999 V2000
   16.9421   40.1151   64.7212 C   0  0  0  0  0  0  0  0  0  0  0  0
   23.3835   38.4755   67.4579 C   0  0  0  0  0  0  0  0  0  0  0  0
   28.1538   39.1248   68.1500 P   0  0  1  0  0  0  0  0  0  0  0  0
   27.5819   38.7990   70.6508 P   0  0  1  0  0  0  0  0  0  0  0  0
   21.9101   40.8620   67.4007 C   0  0  0  0  0  0  0  0  0  0  0  0
   19.9935   41.7021   66.0104 C   0  0  0  0  0  0  0  0  0  0  0  0
   20.5950   40.6629   66.6919 C   0  0  0  0  0  0  0  0  0  0  0  0
   19.9543   39.4228   66.7075 C   0  0  0  0  0  0  0  0  0  0  0  0
   20.5169   38.3472   67.3783 N   0  0  0  0  0  0  0  0  0  0  0  0
   18.7927   39.2893   66.0742 N   0  0  0  0  0  0  0  0  0  0  0  0
   18.2564   40.3066   65.4320 C   0  0  0  0  0  0  0  0  0  0  0  0
   18.8359   41.4907   65.3984 N   0  0  0  0  0  0  0  0  0  0  0  0
   29.3394   40.0111   68.1686 O   0  5  0  0  0  0  0  0  0  0  0  0
   26.9391   39.4798   71.8794 O   0  0  0  0  0  0  0  0  0  0  0  0
   24.6202   40.9805   64.7125 S   0  0  0  0  0  0  0  0  0  0  0  0
   23.2806   41.6448   65.5965 C   0  0  0  0  0  0  0  0  0  0  0  0
   28.6159   37.6041   68.3984 O   0  0  0  0  0  0  0  0  0  0  0  0
   27.1015   37.2649   70.5731 O   0  5  0  0  0  0  0  0  0  0  0  0
   23.0096   40.6843   66.4497 N   0  0  0  0  0  0  0  0  0  0  0  0
   27.1319   39.5721   69.3116 O   0  0  0  0  0  0  0  0  0  0  0  0
   29.1209   38.8503   70.7812 O   0  0  0  0  0  0  0  0  0  0  0  0
   23.7062   39.5689   66.4709 C   0  0  2  0  0  0  0  0  0  0  0  0
   24.7181   39.4209   65.5784 C   0  0  2  0  0  0  0  0  0  0  0  0
   25.6631   38.2653   65.3769 C   0  0  0  0  0  0  0  0  0  0  0  0
   26.5513   38.1082   66.6131 C   0  0  0  0  0  0  0  0  0  0  0  0
   27.4209   39.2371   66.7206 O   0  0  0  0  0  0  0  0  0  0  0  0
  1 11  1  0  0  0  0
  3 13  1  1  0  0  0
  3 17  2  0  0  0  0
  3 20  1  0  0  0  0
  3 26  1  0  0  0  0
  4 14  1  1  0  0  0
  4 18  1  0  0  0  0
  4 21  2  0  0  0  0
  4 20  1  0  0  0  0
  5 19  1  0  0  0  0
  5  7  1  0  0  0  0
  6  7  2  0  0  0  0
  6 12  1  0  0  0  0
  7  8  1  0  0  0  0
  8  9  1  0  0  0  0
  8 10  2  0  0  0  0
 10 11  1  0  0  0  0
 11 12  2  0  0  0  0
 15 23  1  0  0  0  0
 15 16  1  0  0  0  0
 16 19  1  0  0  0  0
 19 22  1  0  0  0  0
 22  2  1  6  0  0  0
 22 23  1  0  0  0  0
 23 24  1  1  0  0  0
 24 25  1  0  0  0  0
 25 26  1  0  0  0  0
M  CHG  2  13  -1  18  -1
M  END
>  <CHROM.1>
-87.26910610,76.52052264,-84.80718418,163.14115078,114.36765617,-67.09886262
171.25280916,163.40032753,24.47468562,39.54479743,67.42725785,2.70371052
0.04944612,-1.27627513

>  <Name>
ligand

>  <RI>
0

>  <Rbt.Current_Directory>
/home/itssahil/PROJECTS/Mol_Feturizer/New_Systems/rnas/2HOJ

>  <Rbt.Executable>
rbdock ($Id: //depot/dev/client3/rdock/2013.1/src/exe/rbdock.cxx#4 $)

>  <Rbt.Library>
libRbt.so (2013.1, Build901 2013/11/27)

>  <Rbt.Parameter_File>
/export/apps/rDock/src/rDock_2013.1_src/data/scripts/dock_solv.prm

>  <Rbt.Receptor>
prm/pocket_docking_3.prm

>  <SCORE>
-16.8935

>  <SCORE.INTER>
-15.0273

>  <SCORE.INTER.CONST>
1

>  <SCORE.INTER.POLAR>
-1.25901

>  <SCORE.INTER.ROT>
8

>  <SCORE.INTER.SOLV>
19.5799

>  <SCORE.INTER.VDW>
-21.2814

>  <SCORE.INTER.norm>
-0.577972

>  <SCORE.INTRA>
-1.86623

>  <SCORE.INTRA.DIHEDRAL>
-4.61658

>  <SCORE.INTRA.DIHEDRAL.0>
11.6398

>  <SCORE.INTRA.POLAR>
0

>  <SCORE.INTRA.POLAR.0>
0

>  <SCORE.INTRA.REPUL>
0

>  <SCORE.INTRA.REPUL.0>
0

>  <SCORE.INTRA.SOLV>
6.08958

>  <SCORE.INTRA.SOLV.lig_0>
-81.722

>  <SCORE.INTRA.VDW>
-2.60272

>  <SCORE.INTRA.VDW.0>
1.12598

>  <SCORE.INTRA.norm>
-0.0717779

>  <SCORE.RESTR>
0

>  <SCORE.RESTR.CAVITY>
0

>  <SCORE.RESTR.norm>
0

>  <SCORE.SYSTEM>
0

>  <SCORE.SYSTEM.CONST>
0

>  <SCORE.SYSTEM.DIHEDRAL>
0

>  <SCORE.SYSTEM.SOLV>
0

>  <SCORE.SYSTEM.norm>
0

>  <SCORE.heavy>
26

>  <SCORE.norm>
-0.649749

>  <RMSD>
2.863

$$$$
ligand
 OpenBabel11021811433D
libRbt.so/2013.1/901 2013/11/27
 26 27  0  0  0  0  0  0  0  0999 V2000
   17.1812   40.2048   64.8650 C   0  0  0  0  0  0  0  0  0  0  0  0
   24.4143   42.1304   66.6388 C   0  0  0  0  0  0  0  0  0  0  0  0
   28.8918   39.2025   67.5740 P   0  0  1  0  0  0  0  0  0  0  0  0
   27.1869   37.9428   69.0550 P   0  0  1  0  0  0  0  0  0  0  0  0
   22.2148   40.6140   67.4945 C   0  0  0  0  0  0  0  0  0  0  0  0
   20.3659   41.5680   66.0863 C   0  0  0  0  0  0  0  0  0  0  0  0
   20.8823   40.5043   66.7991 C   0  0  0  0  0  0  0  0  0  0  0  0
   20.1389   39.3243   66.8589 C   0  0  0  0  0  0  0  0  0  0  0  0
   20.6133   38.2273   67.5624 N   0  0  0  0  0  0  0  0  0  0  0  0
   18.9654   39.2694   66.2359 N   0  0  0  0  0  0  0  0  0  0  0  0
   18.5124   40.3071   65.5628 C   0  0  0  0  0  0  0  0  0  0  0  0
   19.1900   41.4359   65.4872 N   0  0  0  0  0  0  0  0  0  0  0  0
   30.0164   40.1653   67.5776 O   0  5  0  0  0  0  0  0  0  0  0  0
   27.2034   36.8681   67.9455 O   0  0  0  0  0  0  0  0  0  0  0  0
   24.5453   38.4095   65.4223 S   0  0  0  0  0  0  0  0  0  0  0  0
   23.1165   38.7009   66.3661 C   0  0  0  0  0  0  0  0  0  0  0  0
   29.2727   37.9350   66.6596 O   0  0  0  0  0  0  0  0  0  0  0  0
   26.9310   37.2407   70.4804 O   0  5  0  0  0  0  0  0  0  0  0  0
   23.2464   39.9695   66.6788 N   0  0  0  0  0  0  0  0  0  0  0  0
   28.6024   38.7107   69.0800 O   0  0  0  0  0  0  0  0  0  0  0  0
   26.0567   38.9576   68.7710 O   0  0  0  0  0  0  0  0  0  0  0  0
   24.2801   40.6738   66.2724 C   0  0  2  0  0  0  0  0  0  0  0  0
   25.2281   40.0575   65.5215 C   0  0  2  0  0  0  0  0  0  0  0  0
   26.4995   40.6100   64.9324 C   0  0  0  0  0  0  0  0  0  0  0  0
   27.7038   39.9035   65.5589 C   0  0  0  0  0  0  0  0  0  0  0  0
   27.5752   39.9160   66.9820 O   0  0  0  0  0  0  0  0  0  0  0  0
  1 11  1  0  0  0  0
  3 13  1  1  0  0  0
  3 17  2  0  0  0  0
  3 20  1  0  0  0  0
  3 26  1  0  0  0  0
  4 14  1  6  0  0  0
  4 18  1  0  0  0  0
  4 21  2  0  0  0  0
  4 20  1  0  0  0  0
  5 19  1  0  0  0  0
  5  7  1  0  0  0  0
  6  7  2  0  0  0  0
  6 12  1  0  0  0  0
  7  8  1  0  0  0  0
  8  9  1  0  0  0  0
  8 10  2  0  0  0  0
 10 11  1  0  0  0  0
 11 12  2  0  0  0  0
 15 23  1  0  0  0  0
 15 16  1  0  0  0  0
 16 19  1  0  0  0  0
 19 22  1  0  0  0  0
 22  2  1  1  0  0  0
 22 23  1  0  0  0  0
 23 24  1  6  0  0  0
 24 25  1  0  0  0  0
 25 26  1  0  0  0  0
M  CHG  2  13  -1  18  -1
M  END
>  <CHROM.1>
167.55876753,-58.44076327,-100.23463324,51.84984787,-64.10827256,-49.78634134
-178.21868858,80.00435300,24.70326907,39.39384469,66.98088636,-2.87207333
0.02205651,2.30497329

>  <Name>
ligand

>  <RI>
0

>  <Rbt.Current_Directory>
/home/itssahil/PROJECTS/Mol_Feturizer/New_Systems/rnas/2HOJ

>  <Rbt.Executable>
rbdock ($Id: //depot/dev/client3/rdock/2013.1/src/exe/rbdock.cxx#4 $)

>  <Rbt.Library>
libRbt.so (2013.1, Build901 2013/11/27)

>  <Rbt.Parameter_File>
/export/apps/rDock/src/rDock_2013.1_src/data/scripts/dock_solv.prm

>  <Rbt.Receptor>
prm/pocket_docking_6.prm

>  <SCORE>
-20.0842

>  <SCORE.INTER>
-14.4688

>  <SCORE.INTER.CONST>
1

>  <SCORE.INTER.POLAR>
-1.29888

>  <SCORE.INTER.ROT>
8

>  <SCORE.INTER.SOLV>
16.9853

>  <SCORE.INTER.VDW>
-19.9113

>  <SCORE.INTER.norm>
-0.556491

>  <SCORE.INTRA>
-5.6154

>  <SCORE.INTRA.DIHEDRAL>
-5.13486

>  <SCORE.INTRA.DIHEDRAL.0>
11.6398

>  <SCORE.INTRA.POLAR>
0

>  <SCORE.INTRA.POLAR.0>
0

>  <SCORE.INTRA.REPUL>
0

>  <SCORE.INTRA.REPUL.0>
0

>  <SCORE.INTRA.SOLV>
2.71291

>  <SCORE.INTRA.SOLV.lig_0>
-81.722

>  <SCORE.INTRA.VDW>
-4.40443

>  <SCORE.INTRA.VDW.0>
1.12598

>  <SCORE.INTRA.norm>
-0.215977

>  <SCORE.RESTR>
0

>  <SCORE.RESTR.CAVITY>
0

>  <SCORE.RESTR.norm>
0

>  <SCORE.SYSTEM>
0

>  <SCORE.SYSTEM.CONST>
0

>  <SCORE.SYSTEM.DIHEDRAL>
0

>  <SCORE.SYSTEM.SOLV>
0

>  <SCORE.SYSTEM.norm>
0

>  <SCORE.heavy>
26

>  <SCORE.norm>
-0.772468

>  <RMSD>
2.867

$$$$
ligand
 OpenBabel11021811433D
libRbt.so/2013.1/901 2013/11/27
 26 27  0  0  0  0  0  0  0  0999 V2000
   19.3441   43.9898   66.1364 C   0  0  0  0  0  0  0  0  0  0  0  0
   23.6237   37.7212   66.4426 C   0  0  0  0  0  0  0  0  0  0  0  0
   27.4743   38.4497   69.5594 P   0  0  1  0  0  0  0  0  0  0  0  0
   29.1815   38.8085   67.6506 P   0  0  1  0  0  0  0  0  0  0  0  0
   21.0122   38.5537   65.8455 C   0  0  0  0  0  0  0  0  0  0  0  0
   19.2390   40.3331   65.8061 C   0  0  0  0  0  0  0  0  0  0  0  0
   20.5721   39.9930   65.9226 C   0  0  0  0  0  0  0  0  0  0  0  0
   21.5020   41.0164   66.1141 C   0  0  0  0  0  0  0  0  0  0  0  0
   22.8529   40.7273   66.2365 N   0  0  0  0  0  0  0  0  0  0  0  0
   21.0739   42.2740   66.1716 N   0  0  0  0  0  0  0  0  0  0  0  0
   19.7915   42.5534   66.0603 C   0  0  0  0  0  0  0  0  0  0  0  0
   18.8880   41.6101   65.8785 N   0  0  0  0  0  0  0  0  0  0  0  0
   28.4222   38.6272   70.6827 O   0  5  0  0  0  0  0  0  0  0  0  0
   30.1626   38.1029   66.6883 O   0  0  0  0  0  0  0  0  0  0  0  0
   21.1703   37.3824   69.4771 S   0  0  0  0  0  0  0  0  0  0  0  0
   20.3476   38.0177   68.0854 C   0  0  0  0  0  0  0  0  0  0  0  0
   26.9421   39.8878   69.0731 O   0  0  0  0  0  0  0  0  0  0  0  0
   28.2880   39.8649   66.8285 O   0  5  0  0  0  0  0  0  0  0  0  0
   21.3090   38.0606   67.1923 N   0  0  0  0  0  0  0  0  0  0  0  0
   28.2223   37.7128   68.3383 O   0  0  0  0  0  0  0  0  0  0  0  0
   29.9801   39.5517   68.7451 O   0  0  0  0  0  0  0  0  0  0  0  0
   22.5306   37.6671   67.4798 C   0  0  2  0  0  0  0  0  0  0  0  0
   22.7871   37.2179   68.7348 C   0  0  2  0  0  0  0  0  0  0  0  0
   24.0751   36.7166   69.3336 C   0  0  0  0  0  0  0  0  0  0  0  0
   25.1881   37.7364   69.0822 C   0  0  0  0  0  0  0  0  0  0  0  0
   26.2288   37.5514   70.0439 O   0  0  0  0  0  0  0  0  0  0  0  0
  1 11  1  0  0  0  0
  3 13  1  1  0  0  0
  3 17  2  0  0  0  0
  3 20  1  0  0  0  0
  3 26  1  0  0  0  0
  4 14  1  6  0  0  0
  4 18  1  0  0  0  0
  4 21  2  0  0  0  0
  4 20  1  0  0  0  0
  5 19  1  0  0  0  0
  5  7  1  0  0  0  0
  6  7  2  0  0  0  0
  6 12  1  0  0  0  0
  7  8  1  0  0  0  0
  8  9  1  0  0  0  0
  8 10  2  0  0  0  0
 10 11  1  0  0  0  0
 11 12  2  0  0  0  0
 15 23  1  0  0  0  0
 15 16  1  0  0  0  0
 16 19  1  0  0  0  0
 19 22  1  0  0  0  0
 22  2  1  1  0  0  0
 22 23  1  0  0  0  0
 23 24  1  6  0  0  0
 24 25  1  0  0  0  0
 25 26  1  0  0  0  0
M  CHG  2  13  -1  18  -1
M  END
>  <CHROM.1>
-74.90160577,62.46542366,-103.21942012,167.14211463,-128.49662898,157.66759875
169.47339535,163.42411795,24.33502348,39.08798888,67.81465154,-2.82405725
0.06703858,2.54398654

>  <Name>
ligand

>  <RI>
0

>  <Rbt.Current_Directory>
/home/itssahil/PROJECTS/Mol_Feturizer/New_Systems/rnas/2HOJ

>  <Rbt.Executable>
rbdock ($Id: //depot/dev/client3/rdock/2013.1/src/exe/rbdock.cxx#4 $)

>  <Rbt.Library>
libRbt.so (2013.1, Build901 2013/11/27)

>  <Rbt.Parameter_File>
/export/apps/rDock/src/rDock_2013.1_src/data/scripts/dock_solv.prm

>  <Rbt.Receptor>
prm/pocket_docking_4.prm

>  <SCORE>
-19.819

>  <SCORE.INTER>
-18.8686

>  <SCORE.INTER.CONST>
1

>  <SCORE.INTER.POLAR>
-1.29904

>  <SCORE.INTER.ROT>
8

>  <SCORE.INTER.SOLV>
16.0516

>  <SCORE.INTER.VDW>
-22.5328

>  <SCORE.INTER.norm>
-0.725716

>  <SCORE.INTRA>
-0.950425

>  <SCORE.INTRA.DIHEDRAL>
-3.80872

>  <SCORE.INTRA.DIHEDRAL.0>
11.6398

>  <SCORE.INTRA.POLAR>
0

>  <SCORE.INTRA.POLAR.0>
0

>  <SCORE.INTRA.REPUL>
0

>  <SCORE.INTRA.REPUL.0>
0

>  <SCORE.INTRA.SOLV>
6.2152

>  <SCORE.INTRA.SOLV.lig_0>
-81.722

>  <SCORE.INTRA.VDW>
-2.15367

>  <SCORE.INTRA.VDW.0>
1.12598

>  <SCORE.INTRA.norm>
-0.0365548

>  <SCORE.RESTR>
0

>  <SCORE.RESTR.CAVITY>
0

>  <SCORE.RESTR.norm>
0

>  <SCORE.SYSTEM>
0

>  <SCORE.SYSTEM.CONST>
0

>  <SCORE.SYSTEM.DIHEDRAL>
0

>  <SCORE.SYSTEM.SOLV>
0

>  <SCORE.SYSTEM.norm>
0

>  <SCORE.heavy>
26

>  <SCORE.norm>
-0.762271

>  <RMSD>
2.879

$$$$
ligand
 OpenBabel11021811433D
libRbt.so/2013.1/901 2013/11/27
 26 27  0  0  0  0  0  0  0  0999 V2000
   19.4760   43.5833   66.1192 C   0  0  0  0  0  0  0  0  0  0  0  0
   24.2204   38.7996   66.2269 C   0  0  0  0  0  0  0  0  0  0  0  0
   28.1696   37.4486   68.1228 P   0  0  1  0  0  0  0  0  0  0  0  0
   30.3883   38.6547   67.5662 P   0  0  1  0  0  0  0  0  0  0  0  0
   21.5154   38.2846   65.6904 C   0  0  0  0  0  0  0  0  0  0  0  0
   21.8200   40.7571   66.0160 C   0  0  0  0  0  0  0  0  0  0  0  0
   20.9742   39.6866   65.8038 C   0  0  0  0  0  0  0  0  0  0  0  0
   19.6049   39.9359   65.6965 C   0  0  0  0  0  0  0  0  0  0  0  0
   18.7135   38.8949   65.4838 N   0  0  0  0  0  0  0  0  0  0  0  0
   19.1667   41.1865   65.8072 N   0  0  0  0  0  0  0  0  0  0  0  0
   20.0097   42.1792   66.0049 C   0  0  0  0  0  0  0  0  0  0  0  0
   21.3086   41.9772   66.1110 N   0  0  0  0  0  0  0  0  0  0  0  0
   27.5873   38.7855   67.8671 O   0  5  0  0  0  0  0  0  0  0  0  0
   31.9102   38.7050   67.8260 O   0  0  0  0  0  0  0  0  0  0  0  0
   22.3861   36.9872   69.1752 S   0  0  0  0  0  0  0  0  0  0  0  0
   21.2984   37.2678   67.8503 C   0  0  0  0  0  0  0  0  0  0  0  0
   28.1048   36.5682   66.7781 O   0  0  0  0  0  0  0  0  0  0  0  0
   30.1164   38.1840   66.0514 O   0  5  0  0  0  0  0  0  0  0  0  0
   22.0742   37.8707   66.9794 N   0  0  0  0  0  0  0  0  0  0  0  0
   29.7038   37.6116   68.5847 O   0  0  0  0  0  0  0  0  0  0  0  0
   29.7827   40.0594   67.7851 O   0  0  0  0  0  0  0  0  0  0  0  0
   23.3418   38.1072   67.2381 C   0  0  2  0  0  0  0  0  0  0  0  0
   23.8400   37.7205   68.4401 C   0  0  2  0  0  0  0  0  0  0  0  0
   25.2318   37.8656   68.9974 C   0  0  0  0  0  0  0  0  0  0  0  0
   26.0005   36.5567   68.8032 C   0  0  0  0  0  0  0  0  0  0  0  0
   27.3358   36.7129   69.2876 O   0  0  0  0  0  0  0  0  0  0  0  0
  1 11  1  0  0  0  0
  3 13  1  6  0  0  0
  3 17  2  0  0  0  0
  3 20  1  0  0  0  0
  3 26  1  0  0  0  0
  4 14  1  1  0  0  0
  4 18  1  0  0  0  0
  4 21  2  0  0  0  0
  4 20  1  0  0  0  0
  5 19  1  0  0  0  0
  5  7  1  0  0  0  0
  6  7  2  0  0  0  0
  6 12  1  0  0  0  0
  7  8  1  0  0  0  0
  8  9  1  0  0  0  0
  8 10  2  0  0  0  0
 10 11  1  0  0  0  0
 11 12  2  0  0  0  0
 15 23  1  0  0  0  0
 15 16  1  0  0  0  0
 16 19  1  0  0  0  0
 19 22  1  0  0  0  0
 22  2  1  1  0  0  0
 22 23  1  0  0  0  0
 23 24  1  6  0  0  0
 24 25  1  0  0  0  0
 25 26  1  0  0  0  0
M  CHG  2  13  -1  18  -1
M  END
>  <CHROM.1>
-46.34867374,90.15251089,66.63108395,-171.98050303,81.73789900,177.86186137
-81.40316198,61.99892632,24.94146978,38.68284146,67.33686306,-2.86927069
0.03923360,2.65746794

>  <Name>
ligand

>  <RI>
0

>  <Rbt.Current_Directory>
/home/itssahil/PROJECTS/Mol_Feturizer/New_Systems/rnas/2HOJ

>  <Rbt.Executable>
rbdock ($Id: //depot/dev/client3/rdock/2013.1/src/exe/rbdock.cxx#4 $)

>  <Rbt.Library>
libRbt.so (2013.1, Build901 2013/11/27)

>  <Rbt.Parameter_File>
/export/apps/rDock/src/rDock_2013.1_src/data/scripts/dock_solv.prm

>  <Rbt.Receptor>
prm/pocket_docking_6.prm

>  <SCORE>
-22.2678

>  <SCORE.INTER>
-20.8014

>  <SCORE.INTER.CONST>
1

>  <SCORE.INTER.POLAR>
-2.65409

>  <SCORE.INTER.ROT>
8

>  <SCORE.INTER.SOLV>
26.1427

>  <SCORE.INTER.VDW>
-22.6682

>  <SCORE.INTER.norm>
-0.800055

>  <SCORE.INTRA>
-1.46635

>  <SCORE.INTRA.DIHEDRAL>
-4.20131

>  <SCORE.INTRA.DIHEDRAL.0>
11.6398

>  <SCORE.INTRA.POLAR>
0

>  <SCORE.INTRA.POLAR.0>
0

>  <SCORE.INTRA.REPUL>
0

>  <SCORE.INTRA.REPUL.0>
0

>  <SCORE.INTRA.SOLV>
5.23061

>  <SCORE.INTRA.SOLV.lig_0>
-81.722

>  <SCORE.INTRA.VDW>
-1.981

>  <SCORE.INTRA.VDW.0>
1.12598

>  <SCORE.INTRA.norm>
-0.0563981

>  <SCORE.RESTR>
0

>  <SCORE.RESTR.CAVITY>
0

>  <SCORE.RESTR.norm>
0

>  <SCORE.SYSTEM>
0

>  <SCORE.SYSTEM.CONST>
0

>  <SCORE.SYSTEM.DIHEDRAL>
0

>  <SCORE.SYSTEM.SOLV>
0

>  <SCORE.SYSTEM.norm>
0

>  <SCORE.heavy>
26

>  <SCORE.norm>
-0.856453

>  <RMSD>
2.883

$$$$
ligand
 OpenBabel11021811433D
libRbt.so/2013.1/901 2013/11/27
 26 27  0  0  0  0  0  0  0  0999 V2000
   17.5737   40.3689   65.0685 C   0  0  0  0  0  0  0  0  0  0  0  0
   25.0526   41.7022   67.9501 C   0  0  0  0  0  0  0  0  0  0  0  0
   28.6376   38.6676   68.5465 P   0  0  1  0  0  0  0  0  0  0  0  0
   26.8068   37.1837   69.6110 P   0  0  1  0  0  0  0  0  0  0  0  0
   22.5110   40.5160   67.9004 C   0  0  0  0  0  0  0  0  0  0  0  0
   20.4983   39.2996   67.0167 C   0  0  0  0  0  0  0  0  0  0  0  0
   21.2043   40.4785   67.1505 C   0  0  0  0  0  0  0  0  0  0  0  0
   20.6768   41.6352   66.5738 C   0  0  0  0  0  0  0  0  0  0  0  0
   21.3475   42.8444   66.6795 N   0  0  0  0  0  0  0  0  0  0  0  0
   19.5236   41.5593   65.9160 N   0  0  0  0  0  0  0  0  0  0  0  0
   18.8804   40.4141   65.8166 C   0  0  0  0  0  0  0  0  0  0  0  0
   19.3518   39.3038   66.3496 N   0  0  0  0  0  0  0  0  0  0  0  0
   29.0054   40.1012   68.5150 O   0  5  0  0  0  0  0  0  0  0  0  0
   25.6444   37.7781   68.7854 O   0  0  0  0  0  0  0  0  0  0  0  0
   24.8363   38.6310   65.5288 S   0  0  0  0  0  0  0  0  0  0  0  0
   23.3088   38.9135   66.3063 C   0  0  0  0  0  0  0  0  0  0  0  0
   29.9671   37.7692   68.4324 O   0  0  0  0  0  0  0  0  0  0  0  0
   27.5142   36.0056   68.7733 O   0  5  0  0  0  0  0  0  0  0  0  0
   23.5722   39.9547   67.0616 N   0  0  0  0  0  0  0  0  0  0  0  0
   27.8836   38.3378   69.9308 O   0  0  0  0  0  0  0  0  0  0  0  0
   26.2561   36.6129   70.9372 O   0  0  0  0  0  0  0  0  0  0  0  0
   24.7662   40.5058   67.0781 C   0  0  2  0  0  0  0  0  0  0  0  0
   25.7379   39.9682   66.2976 C   0  0  2  0  0  0  0  0  0  0  0  0
   27.1749   40.3852   66.1245 C   0  0  0  0  0  0  0  0  0  0  0  0
   28.0804   39.1552   66.2194 C   0  0  0  0  0  0  0  0  0  0  0  0
   27.6579   38.3367   67.3120 O   0  0  0  0  0  0  0  0  0  0  0  0
  1 11  1  0  0  0  0
  3 13  1  6  0  0  0
  3 17  2  0  0  0  0
  3 20  1  0  0  0  0
  3 26  1  0  0  0  0
  4 14  1  6  0  0  0
  4 18  1  0  0  0  0
  4 21  2  0  0  0  0
  4 20  1  0  0  0  0
  5 19  1  0  0  0  0
  5  7  1  0  0  0  0
  6  7  2  0  0  0  0
  6 12  1  0  0  0  0
  7  8  1  0  0  0  0
  8  9  1  0  0  0  0
  8 10  2  0  0  0  0
 10 11  1  0  0  0  0
 11 12  2  0  0  0  0
 15 23  1  0  0  0  0
 15 16  1  0  0  0  0
 16 19  1  0  0  0  0
 19 22  1  0  0  0  0
 22  2  1  1  0  0  0
 22 23  1  0  0  0  0
 23 24  1  6  0  0  0
 24 25  1  0  0  0  0
 25 26  1  0  0  0  0
M  CHG  2  13  -1  18  -1
M  END
>  <CHROM.1>
147.30234078,-38.62304543,76.89874005,-71.77110635,-47.41097748,-43.93613928
-99.32329564,34.84813012,24.82751281,39.24567224,67.51201173,2.72234693,-0.04762426
-0.66126951

>  <Name>
ligand

>  <RI>
0

>  <Rbt.Current_Directory>
/home/itssahil/PROJECTS/Mol_Feturizer/New_Systems/rnas/2HOJ

>  <Rbt.Executable>
rbdock ($Id: //depot/dev/client3/rdock/2013.1/src/exe/rbdock.cxx#4 $)

>  <Rbt.Library>
libRbt.so (2013.1, Build901 2013/11/27)

>  <Rbt.Parameter_File>
/export/apps/rDock/src/rDock_2013.1_src/data/scripts/dock_solv.prm

>  <Rbt.Receptor>
prm/pocket_docking_4.prm

>  <SCORE>
-21.2097

>  <SCORE.INTER>
-20.5011

>  <SCORE.INTER.CONST>
1

>  <SCORE.INTER.POLAR>
-2.98524

>  <SCORE.INTER.ROT>
8

>  <SCORE.INTER.SOLV>
19.7274

>  <SCORE.INTER.VDW>
-19.2258

>  <SCORE.INTER.norm>
-0.788505

>  <SCORE.INTRA>
-0.715757

>  <SCORE.INTRA.DIHEDRAL>
2.15214

>  <SCORE.INTRA.DIHEDRAL.0>
11.6398

>  <SCORE.INTRA.POLAR>
0

>  <SCORE.INTRA.POLAR.0>
0

>  <SCORE.INTRA.REPUL>
0

>  <SCORE.INTRA.REPUL.0>
0

>  <SCORE.INTRA.SOLV>
1.79219

>  <SCORE.INTRA.SOLV.lig_0>
-81.722

>  <SCORE.INTRA.VDW>
-2.68792

>  <SCORE.INTRA.VDW.0>
1.12598

>  <SCORE.INTRA.norm>
-0.0275291

>  <SCORE.RESTR>
0.00719832

>  <SCORE.RESTR.CAVITY>
0.00719832

>  <SCORE.RESTR.norm>
0.000276858

>  <SCORE.SYSTEM>
0

>  <SCORE.SYSTEM.CONST>
0

>  <SCORE.SYSTEM.DIHEDRAL>
0

>  <SCORE.SYSTEM.SOLV>
0

>  <SCORE.SYSTEM.norm>
0

>  <SCORE.heavy>
26

>  <SCORE.norm>
-0.815757

>  <RMSD>
2.890

$$$$
ligand
 OpenBabel11021811433D
libRbt.so/2013.1/901 2013/11/27
 26 27  0  0  0  0  0  0  0  0999 V2000
   16.4957   38.9741   64.3723 C   0  0  0  0  0  0  0  0  0  0  0  0
   22.9872   43.6268   67.0979 C   0  0  0  0  0  0  0  0  0  0  0  0
   27.6753   39.8181   67.5170 P   0  0  1  0  0  0  0  0  0  0  0  0
   27.2549   38.4033   69.6403 P   0  0  1  0  0  0  0  0  0  0  0  0
   20.7085   42.0529   66.6510 C   0  0  0  0  0  0  0  0  0  0  0  0
   18.6577   41.8205   65.2185 C   0  0  0  0  0  0  0  0  0  0  0  0
   19.5939   41.2368   66.0486 C   0  0  0  0  0  0  0  0  0  0  0  0
   19.4820   39.8711   66.3155 C   0  0  0  0  0  0  0  0  0  0  0  0
   20.3967   39.2375   67.1433 N   0  0  0  0  0  0  0  0  0  0  0  0
   18.4813   39.1873   65.7686 N   0  0  0  0  0  0  0  0  0  0  0  0
   17.6126   39.7835   64.9781 C   0  0  0  0  0  0  0  0  0  0  0  0
   17.6902   41.0716   64.7064 N   0  0  0  0  0  0  0  0  0  0  0  0
   28.7394   40.6488   68.1246 O   0  5  0  0  0  0  0  0  0  0  0  0
   26.3208   38.1636   70.8470 O   0  0  0  0  0  0  0  0  0  0  0  0
   23.7199   40.4363   64.9471 S   0  0  0  0  0  0  0  0  0  0  0  0
   22.0405   40.5146   65.3839 C   0  0  0  0  0  0  0  0  0  0  0  0
   28.3170   38.4602   66.9406 O   0  0  0  0  0  0  0  0  0  0  0  0
   27.5070   37.0125   68.8706 O   0  5  0  0  0  0  0  0  0  0  0  0
   21.9895   41.6228   66.0862 N   0  0  0  0  0  0  0  0  0  0  0  0
   26.5720   39.4590   68.6339 O   0  0  0  0  0  0  0  0  0  0  0  0
   28.6044   38.9675   70.1389 O   0  0  0  0  0  0  0  0  0  0  0  0
   23.0623   42.3558   66.2900 C   0  0  2  0  0  0  0  0  0  0  0  0
   24.2412   41.9380   65.7626 C   0  0  2  0  0  0  0  0  0  0  0  0
   25.6076   42.5672   65.8400 C   0  0  0  0  0  0  0  0  0  0  0  0
   26.4506   41.8345   66.8861 C   0  0  0  0  0  0  0  0  0  0  0  0
   26.9760   40.6335   66.3173 O   0  0  0  0  0  0  0  0  0  0  0  0
  1 11  1  0  0  0  0
  3 13  1  1  0  0  0
  3 17  2  0  0  0  0
  3 20  1  0  0  0  0
  3 26  1  0  0  0  0
  4 14  1  1  0  0  0
  4 18  1  0  0  0  0
  4 21  2  0  0  0  0
  4 20  1  0  0  0  0
  5 19  1  0  0  0  0
  5  7  1  0  0  0  0
  6  7  2  0  0  0  0
  6 12  1  0  0  0  0
  7  8  1  0  0  0  0
  8  9  1  0  0  0  0
  8 10  2  0  0  0  0
 10 11  1  0  0  0  0
 11 12  2  0  0  0  0
 15 23  1  0  0  0  0
 15 16  1  0  0  0  0
 16 19  1  0  0  0  0
 19 22  1  0  0  0  0
 22  2  1  1  0  0  0
 22 23  1  0  0  0  0
 23 24  1  6  0  0  0
 24 25  1  0  0  0  0
 25 26  1  0  0  0  0
M  CHG  2  13  -1  18  -1
M  END
>  <CHROM.1>
-71.28268251,-11.90877527,-112.84977574,172.23125593,-78.56284089,80.31785523
-172.37575217,-58.83300099,23.91555403,40.21055291,66.94463379,2.83225592
-0.21919189,-0.57479638

>  <Name>
ligand

>  <RI>
0

>  <Rbt.Current_Directory>
/home/itssahil/PROJECTS/Mol_Feturizer/New_Systems/rnas/2HOJ

>  <Rbt.Executable>
rbdock ($Id: //depot/dev/client3/rdock/2013.1/src/exe/rbdock.cxx#4 $)

>  <Rbt.Library>
libRbt.so (2013.1, Build901 2013/11/27)

>  <Rbt.Parameter_File>
/export/apps/rDock/src/rDock_2013.1_src/data/scripts/dock_solv.prm

>  <Rbt.Receptor>
prm/pocket_docking_4.prm

>  <SCORE>
-21.0776

>  <SCORE.INTER>
-19.5348

>  <SCORE.INTER.CONST>
1

>  <SCORE.INTER.POLAR>
-1.25553

>  <SCORE.INTER.ROT>
8

>  <SCORE.INTER.SOLV>
17.3661

>  <SCORE.INTER.VDW>
-23.5601

>  <SCORE.INTER.norm>
-0.751338

>  <SCORE.INTRA>
-1.54719

>  <SCORE.INTRA.DIHEDRAL>
-4.59347

>  <SCORE.INTRA.DIHEDRAL.0>
11.6398

>  <SCORE.INTRA.POLAR>
0

>  <SCORE.INTRA.POLAR.0>
0

>  <SCORE.INTRA.REPUL>
0

>  <SCORE.INTRA.REPUL.0>
0

>  <SCORE.INTRA.SOLV>
4.69738

>  <SCORE.INTRA.SOLV.lig_0>
-81.722

>  <SCORE.INTRA.VDW>
-1.59914

>  <SCORE.INTRA.VDW.0>
1.12598

>  <SCORE.INTRA.norm>
-0.0595071

>  <SCORE.RESTR>
0.00439334

>  <SCORE.RESTR.CAVITY>
0.00439334

>  <SCORE.RESTR.norm>
0.000168974

>  <SCORE.SYSTEM>
0

>  <SCORE.SYSTEM.CONST>
0

>  <SCORE.SYSTEM.DIHEDRAL>
0

>  <SCORE.SYSTEM.SOLV>
0

>  <SCORE.SYSTEM.norm>
0

>  <SCORE.heavy>
26

>  <SCORE.norm>
-0.810677

>  <RMSD>
2.895

$$$$
ligand
 OpenBabel11021811433D
libRbt.so/2013.1/901 2013/11/27
 26 27  0  0  0  0  0  0  0  0999 V2000
   16.5692   40.0034   64.4728 C   0  0  0  0  0  0  0  0  0  0  0  0
   23.8522   39.5175   66.1279 C   0  0  0  0  0  0  0  0  0  0  0  0
   27.6006   37.3724   67.6005 P   0  0  1  0  0  0  0  0  0  0  0  0
   27.3720   38.0671   65.1202 P   0  0  1  0  0  0  0  0  0  0  0  0
   21.6594   41.1525   66.7505 C   0  0  0  0  0  0  0  0  0  0  0  0
   19.3560   41.8337   66.0141 C   0  0  0  0  0  0  0  0  0  0  0  0
   20.3124   40.8469   66.1475 C   0  0  0  0  0  0  0  0  0  0  0  0
   20.0002   39.5588   65.7092 C   0  0  0  0  0  0  0  0  0  0  0  0
   20.9261   38.5323   65.8215 N   0  0  0  0  0  0  0  0  0  0  0  0
   18.7989   39.3289   65.1875 N   0  0  0  0  0  0  0  0  0  0  0  0
   17.9177   40.3013   65.0746 C   0  0  0  0  0  0  0  0  0  0  0  0
   18.1813   41.5285   65.4791 N   0  0  0  0  0  0  0  0  0  0  0  0
   28.3127   36.2184   67.0065 O   0  5  0  0  0  0  0  0  0  0  0  0
   27.3845   36.6740   64.4527 O   0  0  0  0  0  0  0  0  0  0  0  0
   22.1421   38.5695   69.5219 S   0  0  0  0  0  0  0  0  0  0  0  0
   21.3333   39.9143   68.7769 C   0  0  0  0  0  0  0  0  0  0  0  0
   28.6662   38.4985   68.0295 O   0  0  0  0  0  0  0  0  0  0  0  0
   26.6432   39.1227   64.1483 O   0  5  0  0  0  0  0  0  0  0  0  0
   22.0331   40.0833   67.6789 N   0  0  0  0  0  0  0  0  0  0  0  0
   26.5773   37.9855   66.5186 O   0  0  0  0  0  0  0  0  0  0  0  0
   28.8247   38.5253   65.3806 O   0  0  0  0  0  0  0  0  0  0  0  0
   23.0592   39.3115   67.3937 C   0  0  2  0  0  0  0  0  0  0  0  0
   23.3930   38.3292   68.2691 C   0  0  2  0  0  0  0  0  0  0  0  0
   24.5057   37.3162   68.2012 C   0  0  0  0  0  0  0  0  0  0  0  0
   25.6839   37.7913   69.0546 C   0  0  0  0  0  0  0  0  0  0  0  0
   26.7795   36.8873   68.8981 O   0  0  0  0  0  0  0  0  0  0  0  0
  1 11  1  0  0  0  0
  3 13  1  6  0  0  0
  3 17  2  0  0  0  0
  3 20  1  0  0  0  0
  3 26  1  0  0  0  0
  4 14  1  6  0  0  0
  4 18  1  0  0  0  0
  4 21  2  0  0  0  0
  4 20  1  0  0  0  0
  5 19  1  0  0  0  0
  5  7  1  0  0  0  0
  6  7  2  0  0  0  0
  6 12  1  0  0  0  0
  7  8  1  0  0  0  0
  8  9  1  0  0  0  0
  8 10  2  0  0  0  0
 10 11  1  0  0  0  0
 11 12  2  0  0  0  0
 15 23  1  0  0  0  0
 15 16  1  0  0  0  0
 16 19  1  0  0  0  0
 19 22  1  0  0  0  0
 22  2  1  1  0  0  0
 22 23  1  0  0  0  0
 23 24  1  6  0  0  0
 24 25  1  0  0  0  0
 25 26  1  0  0  0  0
M  CHG  2  13  -1  18  -1
M  END
>  <CHROM.1>
-44.61675148,-66.29232968,136.66853739,80.13642710,-81.44873777,-175.08586331
86.23115923,-153.75861806,23.87234610,38.77965069,66.72780727,-3.01316969
-0.28828528,1.74814658

>  <Name>
ligand

>  <RI>
0

>  <Rbt.Current_Directory>
/home/itssahil/PROJECTS/Mol_Feturizer/New_Systems/rnas/2HOJ

>  <Rbt.Executable>
rbdock ($Id: //depot/dev/client3/rdock/2013.1/src/exe/rbdock.cxx#4 $)

>  <Rbt.Library>
libRbt.so (2013.1, Build901 2013/11/27)

>  <Rbt.Parameter_File>
/export/apps/rDock/src/rDock_2013.1_src/data/scripts/dock_solv.prm

>  <Rbt.Receptor>
prm/pocket_docking_5.prm

>  <SCORE>
-16.999

>  <SCORE.INTER>
-18.1153

>  <SCORE.INTER.CONST>
1

>  <SCORE.INTER.POLAR>
0

>  <SCORE.INTER.ROT>
8

>  <SCORE.INTER.SOLV>
16.7928

>  <SCORE.INTER.VDW>
-26.6078

>  <SCORE.INTER.norm>
-0.696742

>  <SCORE.INTRA>
1.11631

>  <SCORE.INTRA.DIHEDRAL>
-1.71399

>  <SCORE.INTRA.DIHEDRAL.0>
11.6398

>  <SCORE.INTRA.POLAR>
0

>  <SCORE.INTRA.POLAR.0>
0

>  <SCORE.INTRA.REPUL>
0

>  <SCORE.INTRA.REPUL.0>
0

>  <SCORE.INTRA.SOLV>
8.15939

>  <SCORE.INTRA.SOLV.lig_0>
-81.722

>  <SCORE.INTRA.VDW>
-2.10639

>  <SCORE.INTRA.VDW.0>
1.12598

>  <SCORE.INTRA.norm>
0.0429348

>  <SCORE.RESTR>
0

>  <SCORE.RESTR.CAVITY>
0

>  <SCORE.RESTR.norm>
0

>  <SCORE.SYSTEM>
0

>  <SCORE.SYSTEM.CONST>
0

>  <SCORE.SYSTEM.DIHEDRAL>
0

>  <SCORE.SYSTEM.SOLV>
0

>  <SCORE.SYSTEM.norm>
0

>  <SCORE.heavy>
26

>  <SCORE.norm>
-0.653807

>  <RMSD>
2.900

$$$$
ligand
 OpenBabel11021811433D
libRbt.so/2013.1/901 2013/11/27
 26 27  0  0  0  0  0  0  0  0999 V2000
   19.7096   43.7827   66.0129 C   0  0  0  0  0  0  0  0  0  0  0  0
   22.5521   38.3607   64.9834 C   0  0  0  0  0  0  0  0  0  0  0  0
   28.3983   39.1443   67.6480 P   0  0  1  0  0  0  0  0  0  0  0  0
   28.1067   39.5074   70.1917 P   0  0  1  0  0  0  0  0  0  0  0  0
   20.9430   38.3708   67.2813 C   0  0  0  0  0  0  0  0  0  0  0  0
   21.4098   40.8365   67.3992 C   0  0  0  0  0  0  0  0  0  0  0  0
   20.6153   39.8028   66.9448 C   0  0  0  0  0  0  0  0  0  0  0  0
   19.5008   40.1178   66.1655 C   0  0  0  0  0  0  0  0  0  0  0  0
   18.6707   39.1159   65.6852 N   0  0  0  0  0  0  0  0  0  0  0  0
   19.2431   41.3940   65.8951 N   0  0  0  0  0  0  0  0  0  0  0  0
   20.0309   42.3489   66.3452 C   0  0  0  0  0  0  0  0  0  0  0  0
   21.0909   42.0848   67.0839 N   0  0  0  0  0  0  0  0  0  0  0  0
   29.1937   40.3893   67.7430 O   0  5  0  0  0  0  0  0  0  0  0  0
   29.3852   38.6498   70.3194 O   0  0  0  0  0  0  0  0  0  0  0  0
   24.6012   37.9582   68.2972 S   0  0  0  0  0  0  0  0  0  0  0  0
   22.9028   38.0972   68.6341 C   0  0  0  0  0  0  0  0  0  0  0  0
   29.3760   37.8720   67.7626 O   0  0  0  0  0  0  0  0  0  0  0  0
   28.5074   41.0650   70.1339 O   0  5  0  0  0  0  0  0  0  0  0  0
   22.3924   38.2233   67.4310 N   0  0  0  0  0  0  0  0  0  0  0  0
   27.3214   39.1036   68.8448 O   0  0  0  0  0  0  0  0  0  0  0  0
   27.1946   39.2556   71.4135 O   0  0  0  0  0  0  0  0  0  0  0  0
   23.1537   38.2162   66.3586 C   0  0  2  0  0  0  0  0  0  0  0  0
   24.4951   38.0834   66.5182 C   0  0  2  0  0  0  0  0  0  0  0  0
   25.5891   38.0475   65.4835 C   0  0  0  0  0  0  0  0  0  0  0  0
   26.9411   37.8533   66.1738 C   0  0  0  0  0  0  0  0  0  0  0  0
   27.6283   39.1048   66.2343 O   0  0  0  0  0  0  0  0  0  0  0  0
  1 11  1  0  0  0  0
  3 13  1  1  0  0  0
  3 17  2  0  0  0  0
  3 20  1  0  0  0  0
  3 26  1  0  0  0  0
  4 14  1  1  0  0  0
  4 18  1  0  0  0  0
  4 21  2  0  0  0  0
  4 20  1  0  0  0  0
  5 19  1  0  0  0  0
  5  7  1  0  0  0  0
  6  7  2  0  0  0  0
  6 12  1  0  0  0  0
  7  8  1  0  0  0  0
  8  9  1  0  0  0  0
  8 10  2  0  0  0  0
 10 11  1  0  0  0  0
 11 12  2  0  0  0  0
 15 23  1  0  0  0  0
 15 16  1  0  0  0  0
 16 19  1  0  0  0  0
 19 22  1  0  0  0  0
 22  2  1  1  0  0  0
 22 23  1  0  0  0  0
 23 24  1  6  0  0  0
 24 25  1  0  0  0  0
 25 26  1  0  0  0  0
M  CHG  2  13  -1  18  -1
M  END
>  <CHROM.1>
-46.38650603,105.32407363,-30.27782389,-50.47579372,0.88095484,-102.20844042
142.80915307,176.92514592,24.74446720,39.40982223,67.63923505,3.09073255
0.33994729,-2.49727370

>  <Name>
ligand

>  <RI>
0

>  <Rbt.Current_Directory>
/home/itssahil/PROJECTS/Mol_Feturizer/New_Systems/rnas/2HOJ

>  <Rbt.Executable>
rbdock ($Id: //depot/dev/client3/rdock/2013.1/src/exe/rbdock.cxx#4 $)

>  <Rbt.Library>
libRbt.so (2013.1, Build901 2013/11/27)

>  <Rbt.Parameter_File>
/export/apps/rDock/src/rDock_2013.1_src/data/scripts/dock_solv.prm

>  <Rbt.Receptor>
prm/pocket_docking_3.prm

>  <SCORE>
-17.3429

>  <SCORE.INTER>
-16.0128

>  <SCORE.INTER.CONST>
1

>  <SCORE.INTER.POLAR>
-2.36043

>  <SCORE.INTER.ROT>
8

>  <SCORE.INTER.SOLV>
27.9863

>  <SCORE.INTER.VDW>
-21.0692

>  <SCORE.INTER.norm>
-0.615878

>  <SCORE.INTRA>
-1.35537

>  <SCORE.INTRA.DIHEDRAL>
2.71314

>  <SCORE.INTRA.DIHEDRAL.0>
11.6398

>  <SCORE.INTRA.POLAR>
0

>  <SCORE.INTRA.POLAR.0>
0

>  <SCORE.INTRA.REPUL>
0

>  <SCORE.INTRA.REPUL.0>
0

>  <SCORE.INTRA.SOLV>
1.43775

>  <SCORE.INTRA.SOLV.lig_0>
-81.722

>  <SCORE.INTRA.VDW>
-3.43081

>  <SCORE.INTRA.VDW.0>
1.12598

>  <SCORE.INTRA.norm>
-0.0521294

>  <SCORE.RESTR>
0.0252729

>  <SCORE.RESTR.CAVITY>
0.0252729

>  <SCORE.RESTR.norm>
0.000972035

>  <SCORE.SYSTEM>
0

>  <SCORE.SYSTEM.CONST>
0

>  <SCORE.SYSTEM.DIHEDRAL>
0

>  <SCORE.SYSTEM.SOLV>
0

>  <SCORE.SYSTEM.norm>
0

>  <SCORE.heavy>
26

>  <SCORE.norm>
-0.667035

>  <RMSD>
2.902

$$$$
ligand
 OpenBabel11021811433D
libRbt.so/2013.1/901 2013/11/27
 26 27  0  0  0  0  0  0  0  0999 V2000
   19.8774   44.0143   66.0168 C   0  0  0  0  0  0  0  0  0  0  0  0
   22.2777   37.5626   69.3366 C   0  0  0  0  0  0  0  0  0  0  0  0
   27.7071   39.7121   68.3872 P   0  0  1  0  0  0  0  0  0  0  0  0
   29.9789   38.8193   67.5335 P   0  0  1  0  0  0  0  0  0  0  0  0
   20.6965   38.5102   67.2220 C   0  0  0  0  0  0  0  0  0  0  0  0
   19.4159   40.3718   66.1236 C   0  0  0  0  0  0  0  0  0  0  0  0
   20.4809   39.9674   66.9037 C   0  0  0  0  0  0  0  0  0  0  0  0
   21.3529   40.9428   67.3906 C   0  0  0  0  0  0  0  0  0  0  0  0
   22.4381   40.5883   68.1781 N   0  0  0  0  0  0  0  0  0  0  0  0
   21.1310   42.2173   67.0830 N   0  0  0  0  0  0  0  0  0  0  0  0
   20.0993   42.5596   66.3391 C   0  0  0  0  0  0  0  0  0  0  0  0
   19.2574   41.6628   65.8636 N   0  0  0  0  0  0  0  0  0  0  0  0
   27.3111   40.5190   69.5635 O   0  5  0  0  0  0  0  0  0  0  0  0
   29.2219   38.4768   66.2313 O   0  0  0  0  0  0  0  0  0  0  0  0
   24.2121   37.7542   65.9361 S   0  0  0  0  0  0  0  0  0  0  0  0
   22.5704   38.2883   65.7439 C   0  0  0  0  0  0  0  0  0  0  0  0
   28.1267   40.6904   67.1812 O   0  0  0  0  0  0  0  0  0  0  0  0
   30.6148   40.2929   67.4144 O   0  5  0  0  0  0  0  0  0  0  0  0
   22.0925   38.1539   66.9593 N   0  0  0  0  0  0  0  0  0  0  0  0
   28.9564   38.7736   68.7770 O   0  0  0  0  0  0  0  0  0  0  0  0
   31.1078   37.7883   67.7582 O   0  0  0  0  0  0  0  0  0  0  0  0
   22.8409   37.7101   67.9456 C   0  0  2  0  0  0  0  0  0  0  0  0
   24.1309   37.3804   67.6813 C   0  0  2  0  0  0  0  0  0  0  0  0
   25.1977   36.8507   68.6032 C   0  0  0  0  0  0  0  0  0  0  0  0
   26.0992   38.0008   69.0578 C   0  0  0  0  0  0  0  0  0  0  0  0
   26.4695   38.7908   67.9261 O   0  0  0  0  0  0  0  0  0  0  0  0
  1 11  1  0  0  0  0
  3 13  1  1  0  0  0
  3 17  2  0  0  0  0
  3 20  1  0  0  0  0
  3 26  1  0  0  0  0
  4 14  1  6  0  0  0
  4 18  1  0  0  0  0
  4 21  2  0  0  0  0
  4 20  1  0  0  0  0
  5 19  1  0  0  0  0
  5  7  1  0  0  0  0
  6  7  2  0  0  0  0
  6 12  1  0  0  0  0
  7  8  1  0  0  0  0
  8  9  1  0  0  0  0
  8 10  2  0  0  0  0
 10 11  1  0  0  0  0
 11 12  2  0  0  0  0
 15 23  1  0  0  0  0
 15 16  1  0  0  0  0
 16 19  1  0  0  0  0
 19 22  1  0  0  0  0
 22  2  1  6  0  0  0
 22 23  1  0  0  0  0
 23 24  1  1  0  0  0
 24 25  1  0  0  0  0
 25 26  1  0  0  0  0
M  CHG  2  13  -1  18  -1
M  END
>  <CHROM.1>
-138.07141611,-60.48564967,131.29285769,-52.34185316,81.43814022,-46.90697631
-164.90204027,-56.84249183,24.95411000,39.38259667,67.44117173,-2.93000036
0.09825278,3.00037903

>  <Name>
ligand

>  <RI>
0

>  <Rbt.Current_Directory>
/home/itssahil/PROJECTS/Mol_Feturizer/New_Systems/rnas/2HOJ

>  <Rbt.Executable>
rbdock ($Id: //depot/dev/client3/rdock/2013.1/src/exe/rbdock.cxx#4 $)

>  <Rbt.Library>
libRbt.so (2013.1, Build901 2013/11/27)

>  <Rbt.Parameter_File>
/export/apps/rDock/src/rDock_2013.1_src/data/scripts/dock_solv.prm

>  <Rbt.Receptor>
prm/pocket_docking_4.prm

>  <SCORE>
-24.6667

>  <SCORE.INTER>
-23.0033

>  <SCORE.INTER.CONST>
1

>  <SCORE.INTER.POLAR>
-2.9969

>  <SCORE.INTER.ROT>
8

>  <SCORE.INTER.SOLV>
23.3753

>  <SCORE.INTER.VDW>
-22.071

>  <SCORE.INTER.norm>
-0.884742

>  <SCORE.INTRA>
-1.66339

>  <SCORE.INTRA.DIHEDRAL>
-2.95495

>  <SCORE.INTRA.DIHEDRAL.0>
11.6398

>  <SCORE.INTRA.POLAR>
0

>  <SCORE.INTRA.POLAR.0>
0

>  <SCORE.INTRA.REPUL>
0

>  <SCORE.INTRA.REPUL.0>
0

>  <SCORE.INTRA.SOLV>
4.52333

>  <SCORE.INTRA.SOLV.lig_0>
-81.722

>  <SCORE.INTRA.VDW>
-2.44757

>  <SCORE.INTRA.VDW.0>
1.12598

>  <SCORE.INTRA.norm>
-0.0639764

>  <SCORE.RESTR>
0

>  <SCORE.RESTR.CAVITY>
0

>  <SCORE.RESTR.norm>
0

>  <SCORE.SYSTEM>
0

>  <SCORE.SYSTEM.CONST>
0

>  <SCORE.SYSTEM.DIHEDRAL>
0

>  <SCORE.SYSTEM.SOLV>
0

>  <SCORE.SYSTEM.norm>
0

>  <SCORE.heavy>
26

>  <SCORE.norm>
-0.948718

>  <RMSD>
2.903

$$$$
ligand
 OpenBabel11021811433D
libRbt.so/2013.1/901 2013/11/27
 26 27  0  0  0  0  0  0  0  0999 V2000
   19.2695   44.0227   66.2031 C   0  0  0  0  0  0  0  0  0  0  0  0
   23.6325   37.8869   66.0241 C   0  0  0  0  0  0  0  0  0  0  0  0
   27.7912   38.8101   68.6333 P   0  0  1  0  0  0  0  0  0  0  0  0
   28.6523   37.5612   66.5391 P   0  0  1  0  0  0  0  0  0  0  0  0
   20.9325   38.5963   65.7478 C   0  0  0  0  0  0  0  0  0  0  0  0
   21.4016   41.0322   66.1451 C   0  0  0  0  0  0  0  0  0  0  0  0
   20.4909   40.0322   65.8681 C   0  0  0  0  0  0  0  0  0  0  0  0
   19.1505   40.3849   65.7019 C   0  0  0  0  0  0  0  0  0  0  0  0
   18.1965   39.4177   65.4229 N   0  0  0  0  0  0  0  0  0  0  0  0
   18.8005   41.6622   65.8209 N   0  0  0  0  0  0  0  0  0  0  0  0
   19.7035   42.5852   66.0815 C   0  0  0  0  0  0  0  0  0  0  0  0
   20.9772   42.2849   66.2442 N   0  0  0  0  0  0  0  0  0  0  0  0
   29.1339   38.5157   69.1829 O   0  5  0  0  0  0  0  0  0  0  0  0
   28.0265   36.3186   67.2105 O   0  0  0  0  0  0  0  0  0  0  0  0
   21.5806   37.4453   69.3312 S   0  0  0  0  0  0  0  0  0  0  0  0
   20.5678   38.0375   68.0502 C   0  0  0  0  0  0  0  0  0  0  0  0
   27.2720   40.2195   69.2093 O   0  0  0  0  0  0  0  0  0  0  0  0
   28.5329   37.4260   64.9398 O   0  5  0  0  0  0  0  0  0  0  0  0
   21.4117   38.1218   67.0478 N   0  0  0  0  0  0  0  0  0  0  0  0
   27.8741   38.8842   67.0267 O   0  0  0  0  0  0  0  0  0  0  0  0
   30.1419   37.6651   66.9370 O   0  0  0  0  0  0  0  0  0  0  0  0
   22.6758   37.7859   67.1853 C   0  0  2  0  0  0  0  0  0  0  0  0
   23.1021   37.3531   68.3992 C   0  0  2  0  0  0  0  0  0  0  0  0
   24.4745   36.9137   68.8375 C   0  0  0  0  0  0  0  0  0  0  0  0
   25.4662   38.0634   68.6458 C   0  0  0  0  0  0  0  0  0  0  0  0
   26.7670   37.6440   69.0627 O   0  0  0  0  0  0  0  0  0  0  0  0
  1 11  1  0  0  0  0
  3 13  1  1  0  0  0
  3 17  2  0  0  0  0
  3 20  1  0  0  0  0
  3 26  1  0  0  0  0
  4 14  1  1  0  0  0
  4 18  1  0  0  0  0
  4 21  2  0  0  0  0
  4 20  1  0  0  0  0
  5 19  1  0  0  0  0
  5  7  1  0  0  0  0
  6  7  2  0  0  0  0
  6 12  1  0  0  0  0
  7  8  1  0  0  0  0
  8  9  1  0  0  0  0
  8 10  2  0  0  0  0
 10 11  1  0  0  0  0
 11 12  2  0  0  0  0
 15 23  1  0  0  0  0
 15 16  1  0  0  0  0
 16 19  1  0  0  0  0
 19 22  1  0  0  0  0
 22  2  1  1  0  0  0
 22 23  1  0  0  0  0
 23 24  1  6  0  0  0
 24 25  1  0  0  0  0
 25 26  1  0  0  0  0
M  CHG  2  13  -1  18  -1
M  END
>  <CHROM.1>
49.57049109,64.74237163,65.90539213,49.35531583,-120.18793545,179.98168718
171.74466196,173.10935535,24.19996788,38.84848359,67.29031762,-2.80686739
-0.02373995,2.64026416

>  <Name>
ligand

>  <RI>
0

>  <Rbt.Current_Directory>
/home/itssahil/PROJECTS/Mol_Feturizer/New_Systems/rnas/2HOJ

>  <Rbt.Executable>
rbdock ($Id: //depot/dev/client3/rdock/2013.1/src/exe/rbdock.cxx#4 $)

>  <Rbt.Library>
libRbt.so (2013.1, Build901 2013/11/27)

>  <Rbt.Parameter_File>
/export/apps/rDock/src/rDock_2013.1_src/data/scripts/dock_solv.prm

>  <Rbt.Receptor>
prm/pocket_docking_4.prm

>  <SCORE>
-18.2567

>  <SCORE.INTER>
-11.7844

>  <SCORE.INTER.CONST>
1

>  <SCORE.INTER.POLAR>
0

>  <SCORE.INTER.ROT>
8

>  <SCORE.INTER.SOLV>
22.5687

>  <SCORE.INTER.VDW>
-24.3125

>  <SCORE.INTER.norm>
-0.453246

>  <SCORE.INTRA>
-6.47232

>  <SCORE.INTRA.DIHEDRAL>
-6.31528

>  <SCORE.INTRA.DIHEDRAL.0>
11.6398

>  <SCORE.INTRA.POLAR>
0

>  <SCORE.INTRA.POLAR.0>
0

>  <SCORE.INTRA.REPUL>
0

>  <SCORE.INTRA.REPUL.0>
0

>  <SCORE.INTRA.SOLV>
-0.385293

>  <SCORE.INTRA.SOLV.lig_0>
-81.722

>  <SCORE.INTRA.VDW>
-3.12204

>  <SCORE.INTRA.VDW.0>
1.12598

>  <SCORE.INTRA.norm>
-0.248936

>  <SCORE.RESTR>
0

>  <SCORE.RESTR.CAVITY>
0

>  <SCORE.RESTR.norm>
0

>  <SCORE.SYSTEM>
0

>  <SCORE.SYSTEM.CONST>
0

>  <SCORE.SYSTEM.DIHEDRAL>
0

>  <SCORE.SYSTEM.SOLV>
0

>  <SCORE.SYSTEM.norm>
0

>  <SCORE.heavy>
26

>  <SCORE.norm>
-0.702182

>  <RMSD>
2.909

$$$$
ligand
 OpenBabel11021811433D
libRbt.so/2013.1/901 2013/11/27
 26 27  0  0  0  0  0  0  0  0999 V2000
   15.5799   39.2246   63.9454 C   0  0  0  0  0  0  0  0  0  0  0  0
   21.5843   39.6248   68.6975 C   0  0  0  0  0  0  0  0  0  0  0  0
   27.0023   38.1874   67.8363 P   0  0  1  0  0  0  0  0  0  0  0  0
   26.9326   38.6832   65.2993 P   0  0  1  0  0  0  0  0  0  0  0  0
   20.6102   40.5763   66.2448 C   0  0  0  0  0  0  0  0  0  0  0  0
   18.8752   38.9033   65.5360 C   0  0  0  0  0  0  0  0  0  0  0  0
   19.2785   40.2200   65.6359 C   0  0  0  0  0  0  0  0  0  0  0  0
   18.4212   41.2130   65.1588 C   0  0  0  0  0  0  0  0  0  0  0  0
   18.7800   42.5505   65.2355 N   0  0  0  0  0  0  0  0  0  0  0  0
   17.2569   40.8571   64.6239 N   0  0  0  0  0  0  0  0  0  0  0  0
   16.9096   39.5884   64.5528 C   0  0  0  0  0  0  0  0  0  0  0  0
   17.6967   38.6267   64.9940 N   0  0  0  0  0  0  0  0  0  0  0  0
   27.6914   37.4143   68.8941 O   0  5  0  0  0  0  0  0  0  0  0  0
   26.2171   39.9757   65.7509 O   0  0  0  0  0  0  0  0  0  0  0  0
   22.7906   37.5006   65.6357 S   0  0  0  0  0  0  0  0  0  0  0  0
   21.7757   38.8113   65.1168 C   0  0  0  0  0  0  0  0  0  0  0  0
   26.8198   39.7116   68.3172 O   0  0  0  0  0  0  0  0  0  0  0  0
   27.8247   38.9896   63.9953 O   0  5  0  0  0  0  0  0  0  0  0  0
   21.4753   39.3946   66.2541 N   0  0  0  0  0  0  0  0  0  0  0  0
   27.8811   38.1513   66.4873 O   0  0  0  0  0  0  0  0  0  0  0  0
   25.8794   37.6043   64.9604 O   0  0  0  0  0  0  0  0  0  0  0  0
   21.9373   38.9430   67.3997 C   0  0  2  0  0  0  0  0  0  0  0  0
   22.7335   37.8437   67.3881 C   0  0  2  0  0  0  0  0  0  0  0  0
   23.3895   37.1177   68.5333 C   0  0  0  0  0  0  0  0  0  0  0  0
   24.7979   37.6745   68.7534 C   0  0  0  0  0  0  0  0  0  0  0  0
   25.5569   37.5374   67.5505 O   0  0  0  0  0  0  0  0  0  0  0  0
  1 11  1  0  0  0  0
  3 13  1  1  0  0  0
  3 17  2  0  0  0  0
  3 20  1  0  0  0  0
  3 26  1  0  0  0  0
  4 14  1  1  0  0  0
  4 18  1  0  0  0  0
  4 21  2  0  0  0  0
  4 20  1  0  0  0  0
  5 19  1  0  0  0  0
  5  7  1  0  0  0  0
  6  7  2  0  0  0  0
  6 12  1  0  0  0  0
  7  8  1  0  0  0  0
  8  9  1  0  0  0  0
  8 10  2  0  0  0  0
 10 11  1  0  0  0  0
 11 12  2  0  0  0  0
 15 23  1  0  0  0  0
 15 16  1  0  0  0  0
 16 19  1  0  0  0  0
 19 22  1  0  0  0  0
 22  2  1  1  0  0  0
 22 23  1  0  0  0  0
 23 24  1  6  0  0  0
 24 25  1  0  0  0  0
 25 26  1  0  0  0  0
M  CHG  2  13  -1  18  -1
M  END
>  <CHROM.1>
166.41570390,59.64359066,18.46046936,47.24013089,87.43371853,-57.77374396
178.02914783,63.65607482,23.10770234,38.89318956,66.28443487,-2.89595058
-0.11561010,1.89796894

>  <Name>
ligand

>  <RI>
0

>  <Rbt.Current_Directory>
/home/itssahil/PROJECTS/Mol_Feturizer/New_Systems/rnas/2HOJ

>  <Rbt.Executable>
rbdock ($Id: //depot/dev/client3/rdock/2013.1/src/exe/rbdock.cxx#4 $)

>  <Rbt.Library>
libRbt.so (2013.1, Build901 2013/11/27)

>  <Rbt.Parameter_File>
/export/apps/rDock/src/rDock_2013.1_src/data/scripts/dock_solv.prm

>  <Rbt.Receptor>
prm/pocket_docking_5.prm

>  <SCORE>
-25.8745

>  <SCORE.INTER>
-18.8767

>  <SCORE.INTER.CONST>
1

>  <SCORE.INTER.POLAR>
0

>  <SCORE.INTER.ROT>
8

>  <SCORE.INTER.SOLV>
26.0866

>  <SCORE.INTER.VDW>
-30.2134

>  <SCORE.INTER.norm>
-0.726028

>  <SCORE.INTRA>
-6.99777

>  <SCORE.INTRA.DIHEDRAL>
-6.14733

>  <SCORE.INTRA.DIHEDRAL.0>
11.6398

>  <SCORE.INTRA.POLAR>
0

>  <SCORE.INTRA.POLAR.0>
0

>  <SCORE.INTRA.REPUL>
0

>  <SCORE.INTRA.REPUL.0>
0

>  <SCORE.INTRA.SOLV>
0.0840208

>  <SCORE.INTRA.SOLV.lig_0>
-81.722

>  <SCORE.INTRA.VDW>
-3.96612

>  <SCORE.INTRA.VDW.0>
1.12598

>  <SCORE.INTRA.norm>
-0.269145

>  <SCORE.RESTR>
0

>  <SCORE.RESTR.CAVITY>
0

>  <SCORE.RESTR.norm>
0

>  <SCORE.SYSTEM>
0

>  <SCORE.SYSTEM.CONST>
0

>  <SCORE.SYSTEM.DIHEDRAL>
0

>  <SCORE.SYSTEM.SOLV>
0

>  <SCORE.SYSTEM.norm>
0

>  <SCORE.heavy>
26

>  <SCORE.norm>
-0.995173

>  <RMSD>
2.917

$$$$
ligand
 OpenBabel11021811433D
libRbt.so/2013.1/901 2013/11/27
 26 27  0  0  0  0  0  0  0  0999 V2000
   19.7607   43.8880   65.9727 C   0  0  0  0  0  0  0  0  0  0  0  0
   22.3610   37.4936   69.2868 C   0  0  0  0  0  0  0  0  0  0  0  0
   27.7611   39.8135   68.5307 P   0  0  1  0  0  0  0  0  0  0  0  0
   29.7865   38.7336   67.3397 P   0  0  1  0  0  0  0  0  0  0  0  0
   20.7969   38.4141   67.1477 C   0  0  0  0  0  0  0  0  0  0  0  0
   19.4786   40.2259   66.0115 C   0  0  0  0  0  0  0  0  0  0  0  0
   20.5239   39.8634   66.8375 C   0  0  0  0  0  0  0  0  0  0  0  0
   21.3212   40.8735   67.3783 C   0  0  0  0  0  0  0  0  0  0  0  0
   22.3838   40.5617   68.2133 N   0  0  0  0  0  0  0  0  0  0  0  0
   21.0505   42.1399   67.0762 N   0  0  0  0  0  0  0  0  0  0  0  0
   20.0398   42.4415   66.2872 C   0  0  0  0  0  0  0  0  0  0  0  0
   19.2680   41.5111   65.7601 N   0  0  0  0  0  0  0  0  0  0  0  0
   27.4032   40.3011   69.8819 O   0  5  0  0  0  0  0  0  0  0  0  0
   29.8275   37.4087   68.1331 O   0  0  0  0  0  0  0  0  0  0  0  0
   24.3752   37.8356   65.9449 S   0  0  0  0  0  0  0  0  0  0  0  0
   22.7175   38.3023   65.7177 C   0  0  0  0  0  0  0  0  0  0  0  0
   27.0055   40.7006   67.4218 O   0  0  0  0  0  0  0  0  0  0  0  0
   28.7211   38.6094   66.1399 O   0  5  0  0  0  0  0  0  0  0  0  0
   22.2137   38.1234   66.9168 N   0  0  0  0  0  0  0  0  0  0  0  0
   29.3534   39.9344   68.3216 O   0  0  0  0  0  0  0  0  0  0  0  0
   31.1870   39.0267   66.7561 O   0  0  0  0  0  0  0  0  0  0  0  0
   22.9542   37.6928   67.9148 C   0  0  2  0  0  0  0  0  0  0  0  0
   24.2638   37.4241   67.6799 C   0  0  2  0  0  0  0  0  0  0  0  0
   25.3278   36.9227   68.6208 C   0  0  0  0  0  0  0  0  0  0  0  0
   26.1328   38.1065   69.1617 C   0  0  0  0  0  0  0  0  0  0  0  0
   27.3175   38.2728   68.3801 O   0  0  0  0  0  0  0  0  0  0  0  0
  1 11  1  0  0  0  0
  3 13  1  1  0  0  0
  3 17  2  0  0  0  0
  3 20  1  0  0  0  0
  3 26  1  0  0  0  0
  4 14  1  1  0  0  0
  4 18  1  0  0  0  0
  4 21  2  0  0  0  0
  4 20  1  0  0  0  0
  5 19  1  0  0  0  0
  5  7  1  0  0  0  0
  6  7  2  0  0  0  0
  6 12  1  0  0  0  0
  7  8  1  0  0  0  0
  8  9  1  0  0  0  0
  8 10  2  0  0  0  0
 10 11  1  0  0  0  0
 11 12  2  0  0  0  0
 15 23  1  0  0  0  0
 15 16  1  0  0  0  0
 16 19  1  0  0  0  0
 19 22  1  0  0  0  0
 22  2  1  6  0  0  0
 22 23  1  0  0  0  0
 23 24  1  1  0  0  0
 24 25  1  0  0  0  0
 25 26  1  0  0  0  0
M  CHG  2  13  -1  18  -1
M  END
>  <CHROM.1>
148.64049897,-59.91754697,129.89357970,-77.11282680,83.52287110,-96.05936171
155.56831871,32.90946431,24.93764089,39.32347721,67.43074728,-2.91232685
0.10564075,3.01099735

>  <Name>
ligand

>  <RI>
0

>  <Rbt.Current_Directory>
/home/itssahil/PROJECTS/Mol_Feturizer/New_Systems/rnas/2HOJ

>  <Rbt.Executable>
rbdock ($Id: //depot/dev/client3/rdock/2013.1/src/exe/rbdock.cxx#4 $)

>  <Rbt.Library>
libRbt.so (2013.1, Build901 2013/11/27)

>  <Rbt.Parameter_File>
/export/apps/rDock/src/rDock_2013.1_src/data/scripts/dock_solv.prm

>  <Rbt.Receptor>
prm/pocket_docking_3.prm

>  <SCORE>
-20.3593

>  <SCORE.INTER>
-21.0235

>  <SCORE.INTER.CONST>
1

>  <SCORE.INTER.POLAR>
-2.4

>  <SCORE.INTER.ROT>
8

>  <SCORE.INTER.SOLV>
19.2216

>  <SCORE.INTER.VDW>
-21.3562

>  <SCORE.INTER.norm>
-0.808596

>  <SCORE.INTRA>
0.658321

>  <SCORE.INTRA.DIHEDRAL>
2.24685

>  <SCORE.INTRA.DIHEDRAL.0>
11.6398

>  <SCORE.INTRA.POLAR>
0

>  <SCORE.INTRA.POLAR.0>
0

>  <SCORE.INTRA.REPUL>
0

>  <SCORE.INTRA.REPUL.0>
0

>  <SCORE.INTRA.SOLV>
4.55809

>  <SCORE.INTRA.SOLV.lig_0>
-81.722

>  <SCORE.INTRA.VDW>
-2.74415

>  <SCORE.INTRA.VDW.0>
1.12598

>  <SCORE.INTRA.norm>
0.02532

>  <SCORE.RESTR>
0.00583777

>  <SCORE.RESTR.CAVITY>
0.00583777

>  <SCORE.RESTR.norm>
0.00022453

>  <SCORE.SYSTEM>
0

>  <SCORE.SYSTEM.CONST>
0

>  <SCORE.SYSTEM.DIHEDRAL>
0

>  <SCORE.SYSTEM.SOLV>
0

>  <SCORE.SYSTEM.norm>
0

>  <SCORE.heavy>
26

>  <SCORE.norm>
-0.783052

>  <RMSD>
2.919

$$$$
ligand
 OpenBabel11021811433D
libRbt.so/2013.1/901 2013/11/27
 26 27  0  0  0  0  0  0  0  0999 V2000
   17.3066   40.6440   64.8312 C   0  0  0  0  0  0  0  0  0  0  0  0
   23.6377   38.3630   67.9720 C   0  0  0  0  0  0  0  0  0  0  0  0
   29.0129   38.8081   67.8609 P   0  0  1  0  0  0  0  0  0  0  0  0
   27.8038   39.8104   69.9152 P   0  0  1  0  0  0  0  0  0  0  0  0
   22.2890   40.7918   67.5830 C   0  0  0  0  0  0  0  0  0  0  0  0
   20.2295   41.9011   66.6665 C   0  0  0  0  0  0  0  0  0  0  0  0
   20.9703   40.7512   66.8545 C   0  0  0  0  0  0  0  0  0  0  0  0
   20.4669   39.5499   66.3523 C   0  0  0  0  0  0  0  0  0  0  0  0
   21.1724   38.3671   66.5154 N   0  0  0  0  0  0  0  0  0  0  0  0
   19.2972   39.5554   65.7198 N   0  0  0  0  0  0  0  0  0  0  0  0
   18.6254   40.6769   65.5584 C   0  0  0  0  0  0  0  0  0  0  0  0
   19.0732   41.8278   66.0209 N   0  0  0  0  0  0  0  0  0  0  0  0
   29.6330   39.3578   66.6341 O   0  5  0  0  0  0  0  0  0  0  0  0
   26.6441   40.3864   69.0727 O   0  0  0  0  0  0  0  0  0  0  0  0
   24.9717   40.3869   64.8952 S   0  0  0  0  0  0  0  0  0  0  0  0
   23.6780   41.2389   65.6812 C   0  0  0  0  0  0  0  0  0  0  0  0
   29.7440   37.4326   68.2625 O   0  0  0  0  0  0  0  0  0  0  0  0
   27.4789   38.2830   70.3044 O   0  5  0  0  0  0  0  0  0  0  0  0
   23.3673   40.4240   66.6627 N   0  0  0  0  0  0  0  0  0  0  0  0
   29.1684   39.8696   69.0620 O   0  0  0  0  0  0  0  0  0  0  0  0
   27.9671   40.6465   71.2045 O   0  0  0  0  0  0  0  0  0  0  0  0
   24.0055   39.2877   66.8390 C   0  0  2  0  0  0  0  0  0  0  0  0
   24.9985   38.9621   65.9727 C   0  0  2  0  0  0  0  0  0  0  0  0
   25.8802   37.7415   65.9333 C   0  0  0  0  0  0  0  0  0  0  0  0
   27.3277   38.1455   66.2225 C   0  0  0  0  0  0  0  0  0  0  0  0
   27.4498   38.5279   67.5939 O   0  0  0  0  0  0  0  0  0  0  0  0
  1 11  1  0  0  0  0
  3 13  1  6  0  0  0
  3 17  2  0  0  0  0
  3 20  1  0  0  0  0
  3 26  1  0  0  0  0
  4 14  1  6  0  0  0
  4 18  1  0  0  0  0
  4 21  2  0  0  0  0
  4 20  1  0  0  0  0
  5 19  1  0  0  0  0
  5  7  1  0  0  0  0
  6  7  2  0  0  0  0
  6 12  1  0  0  0  0
  7  8  1  0  0  0  0
  8  9  1  0  0  0  0
  8 10  2  0  0  0  0
 10 11  1  0  0  0  0
 11 12  2  0  0  0  0
 15 23  1  0  0  0  0
 15 16  1  0  0  0  0
 16 19  1  0  0  0  0
 19 22  1  0  0  0  0
 22  2  1  6  0  0  0
 22 23  1  0  0  0  0
 23 24  1  1  0  0  0
 24 25  1  0  0  0  0
 25 26  1  0  0  0  0
M  CHG  2  13  -1  18  -1
M  END
>  <CHROM.1>
141.99915004,68.58081865,-115.42465365,-68.56042275,65.85929460,70.03325268
174.92456976,33.05032367,24.87205483,39.64386443,67.28647969,-2.89832713
-0.24561999,1.27723518

>  <Name>
ligand

>  <RI>
0

>  <Rbt.Current_Directory>
/home/itssahil/PROJECTS/Mol_Feturizer/New_Systems/rnas/2HOJ

>  <Rbt.Executable>
rbdock ($Id: //depot/dev/client3/rdock/2013.1/src/exe/rbdock.cxx#4 $)

>  <Rbt.Library>
libRbt.so (2013.1, Build901 2013/11/27)

>  <Rbt.Parameter_File>
/export/apps/rDock/src/rDock_2013.1_src/data/scripts/dock_solv.prm

>  <Rbt.Receptor>
prm/pocket_docking_2.prm

>  <SCORE>
-19.9531

>  <SCORE.INTER>
-19.3611

>  <SCORE.INTER.CONST>
1

>  <SCORE.INTER.POLAR>
-2.73495

>  <SCORE.INTER.ROT>
8

>  <SCORE.INTER.SOLV>
20.0529

>  <SCORE.INTER.VDW>
-19.4085

>  <SCORE.INTER.norm>
-0.744657

>  <SCORE.INTRA>
-2.04163

>  <SCORE.INTRA.DIHEDRAL>
-3.18063

>  <SCORE.INTRA.DIHEDRAL.0>
11.6398

>  <SCORE.INTRA.POLAR>
0

>  <SCORE.INTRA.POLAR.0>
0

>  <SCORE.INTRA.REPUL>
0

>  <SCORE.INTRA.REPUL.0>
0

>  <SCORE.INTRA.SOLV>
3.6915

>  <SCORE.INTRA.SOLV.lig_0>
-81.722

>  <SCORE.INTRA.VDW>
-2.29707

>  <SCORE.INTRA.VDW.0>
1.12598

>  <SCORE.INTRA.norm>
-0.0785243

>  <SCORE.RESTR>
1.44955

>  <SCORE.RESTR.CAVITY>
1.44955

>  <SCORE.RESTR.norm>
0.0557521

>  <SCORE.SYSTEM>
0

>  <SCORE.SYSTEM.CONST>
0

>  <SCORE.SYSTEM.DIHEDRAL>
0

>  <SCORE.SYSTEM.SOLV>
0

>  <SCORE.SYSTEM.norm>
0

>  <SCORE.heavy>
26

>  <SCORE.norm>
-0.767429

>  <RMSD>
2.943

$$$$
ligand
 OpenBabel11021811433D
libRbt.so/2013.1/901 2013/11/27
 26 27  0  0  0  0  0  0  0  0999 V2000
   20.2645   44.4394   66.2087 C   0  0  0  0  0  0  0  0  0  0  0  0
   21.8531   38.6267   69.2164 C   0  0  0  0  0  0  0  0  0  0  0  0
   28.1591   39.2925   68.7980 P   0  0  1  0  0  0  0  0  0  0  0  0
   29.1386   40.0532   66.5289 P   0  0  1  0  0  0  0  0  0  0  0  0
   20.3205   38.7848   66.8722 C   0  0  0  0  0  0  0  0  0  0  0  0
   21.3283   41.0638   67.1915 C   0  0  0  0  0  0  0  0  0  0  0  0
   20.3043   40.2814   66.6959 C   0  0  0  0  0  0  0  0  0  0  0  0
   19.2537   40.9118   66.0269 C   0  0  0  0  0  0  0  0  0  0  0  0
   18.2011   40.1708   65.5109 N   0  0  0  0  0  0  0  0  0  0  0  0
   19.2741   42.2350   65.8967 N   0  0  0  0  0  0  0  0  0  0  0  0
   20.2738   42.9429   66.3811 C   0  0  0  0  0  0  0  0  0  0  0  0
   21.2808   42.3779   67.0181 N   0  0  0  0  0  0  0  0  0  0  0  0
   29.0858   38.1818   68.4831 O   0  5  0  0  0  0  0  0  0  0  0  0
   29.0829   41.1899   65.4843 O   0  0  0  0  0  0  0  0  0  0  0  0
   23.7993   37.4560   66.0252 S   0  0  0  0  0  0  0  0  0  0  0  0
   22.1844   37.9491   65.6177 C   0  0  0  0  0  0  0  0  0  0  0  0
   28.8492   40.2829   69.8614 O   0  0  0  0  0  0  0  0  0  0  0  0
   30.4450   40.2337   67.4512 O   0  5  0  0  0  0  0  0  0  0  0  0
   21.6989   38.2974   66.7868 N   0  0  0  0  0  0  0  0  0  0  0  0
   27.8184   40.1050   67.4499 O   0  0  0  0  0  0  0  0  0  0  0  0
   29.2055   38.6907   65.8029 O   0  0  0  0  0  0  0  0  0  0  0  0
   22.4246   38.2216   67.8811 C   0  0  2  0  0  0  0  0  0  0  0  0
   23.6983   37.7628   67.7824 C   0  0  2  0  0  0  0  0  0  0  0  0
   24.7382   37.5699   68.8549 C   0  0  0  0  0  0  0  0  0  0  0  0
   26.0939   38.0688   68.3497 C   0  0  0  0  0  0  0  0  0  0  0  0
   26.7990   38.6974   69.4219 O   0  0  0  0  0  0  0  0  0  0  0  0
  1 11  1  0  0  0  0
  3 13  1  6  0  0  0
  3 17  2  0  0  0  0
  3 20  1  0  0  0  0
  3 26  1  0  0  0  0
  4 14  1  6  0  0  0
  4 18  1  0  0  0  0
  4 21  2  0  0  0  0
  4 20  1  0  0  0  0
  5 19  1  0  0  0  0
  5  7  1  0  0  0  0
  6  7  2  0  0  0  0
  6 12  1  0  0  0  0
  7  8  1  0  0  0  0
  8  9  1  0  0  0  0
  8 10  2  0  0  0  0
 10 11  1  0  0  0  0
 11 12  2  0  0  0  0
 15 23  1  0  0  0  0
 15 16  1  0  0  0  0
 16 19  1  0  0  0  0
 19 22  1  0  0  0  0
 22  2  1  1  0  0  0
 22 23  1  0  0  0  0
 23 24  1  6  0  0  0
 24 25  1  0  0  0  0
 25 26  1  0  0  0  0
M  CHG  2  13  -1  18  -1
M  END
>  <CHROM.1>
-33.22723736,-90.02460585,-35.39701021,-160.07911442,42.66848436,142.73298335
-175.85618255,-72.11530701,24.65379300,39.65787569,67.23326481,-2.96361841
0.09207522,2.85506786

>  <Name>
ligand

>  <RI>
0

>  <Rbt.Current_Directory>
/home/itssahil/PROJECTS/Mol_Feturizer/New_Systems/rnas/2HOJ

>  <Rbt.Executable>
rbdock ($Id: //depot/dev/client3/rdock/2013.1/src/exe/rbdock.cxx#4 $)

>  <Rbt.Library>
libRbt.so (2013.1, Build901 2013/11/27)

>  <Rbt.Parameter_File>
/export/apps/rDock/src/rDock_2013.1_src/data/scripts/dock_solv.prm

>  <Rbt.Receptor>
prm/pocket_docking_3.prm

>  <SCORE>
-18.1428

>  <SCORE.INTER>
-17.1283

>  <SCORE.INTER.CONST>
1

>  <SCORE.INTER.POLAR>
-2.56533

>  <SCORE.INTER.ROT>
8

>  <SCORE.INTER.SOLV>
26.7313

>  <SCORE.INTER.VDW>
-20.7116

>  <SCORE.INTER.norm>
-0.658782

>  <SCORE.INTRA>
-1.15586

>  <SCORE.INTRA.DIHEDRAL>
-0.88772

>  <SCORE.INTRA.DIHEDRAL.0>
11.6398

>  <SCORE.INTRA.POLAR>
0

>  <SCORE.INTRA.POLAR.0>
0

>  <SCORE.INTRA.REPUL>
0

>  <SCORE.INTRA.REPUL.0>
0

>  <SCORE.INTRA.SOLV>
2.98255

>  <SCORE.INTRA.SOLV.lig_0>
-81.722

>  <SCORE.INTRA.VDW>
-2.20328

>  <SCORE.INTRA.VDW.0>
1.12598

>  <SCORE.INTRA.norm>
-0.0444563

>  <SCORE.RESTR>
0.141351

>  <SCORE.RESTR.CAVITY>
0.141351

>  <SCORE.RESTR.norm>
0.00543659

>  <SCORE.SYSTEM>
0

>  <SCORE.SYSTEM.CONST>
0

>  <SCORE.SYSTEM.DIHEDRAL>
0

>  <SCORE.SYSTEM.SOLV>
0

>  <SCORE.SYSTEM.norm>
0

>  <SCORE.heavy>
26

>  <SCORE.norm>
-0.697802

>  <RMSD>
2.950

$$$$
ligand
 OpenBabel11021811433D
libRbt.so/2013.1/901 2013/11/27
 26 27  0  0  0  0  0  0  0  0999 V2000
   15.3541   38.9877   63.7251 C   0  0  0  0  0  0  0  0  0  0  0  0
   22.2725   42.1614   66.1239 C   0  0  0  0  0  0  0  0  0  0  0  0
   27.3609   38.0564   65.2922 P   0  0  1  0  0  0  0  0  0  0  0  0
   29.0923   36.1537   65.0300 P   0  0  1  0  0  0  0  0  0  0  0  0
   20.0219   40.5518   66.5859 C   0  0  0  0  0  0  0  0  0  0  0  0
   18.3335   38.8355   65.8681 C   0  0  0  0  0  0  0  0  0  0  0  0
   18.7863   40.1392   65.8281 C   0  0  0  0  0  0  0  0  0  0  0  0
   18.0702   41.0656   65.0681 C   0  0  0  0  0  0  0  0  0  0  0  0
   18.4840   42.3874   64.9949 N   0  0  0  0  0  0  0  0  0  0  0  0
   16.9880   40.6607   64.4101 N   0  0  0  0  0  0  0  0  0  0  0  0
   16.5884   39.4075   64.4799 C   0  0  0  0  0  0  0  0  0  0  0  0
   17.2425   38.5081   65.1885 N   0  0  0  0  0  0  0  0  0  0  0  0
   27.0104   37.4176   66.5809 O   0  5  0  0  0  0  0  0  0  0  0  0
   30.0969   37.1739   65.6099 O   0  0  0  0  0  0  0  0  0  0  0  0
   22.7589   38.4608   64.9362 S   0  0  0  0  0  0  0  0  0  0  0  0
   21.1793   38.6868   65.6225 C   0  0  0  0  0  0  0  0  0  0  0  0
   28.5009   39.1653   65.5347 O   0  0  0  0  0  0  0  0  0  0  0  0
   28.4728   35.2704   66.2242 O   0  5  0  0  0  0  0  0  0  0  0  0
   21.2027   39.9563   65.9567 N   0  0  0  0  0  0  0  0  0  0  0  0
   27.9082   36.9380   64.2708 O   0  0  0  0  0  0  0  0  0  0  0  0
   29.8198   35.2279   64.0292 O   0  0  0  0  0  0  0  0  0  0  0  0
   22.2615   40.7045   65.7354 C   0  0  2  0  0  0  0  0  0  0  0  0
   23.3479   40.1332   65.1559 C   0  0  2  0  0  0  0  0  0  0  0  0
   24.6780   40.7408   64.7948 C   0  0  0  0  0  0  0  0  0  0  0  0
   25.8038   39.9316   65.4427 C   0  0  0  0  0  0  0  0  0  0  0  0
   26.0533   38.7579   64.6667 O   0  0  0  0  0  0  0  0  0  0  0  0
  1 11  1  0  0  0  0
  3 13  1  1  0  0  0
  3 17  2  0  0  0  0
  3 20  1  0  0  0  0
  3 26  1  0  0  0  0
  4 14  1  1  0  0  0
  4 18  1  0  0  0  0
  4 21  2  0  0  0  0
  4 20  1  0  0  0  0
  5 19  1  0  0  0  0
  5  7  1  0  0  0  0
  6  7  2  0  0  0  0
  6 12  1  0  0  0  0
  7  8  1  0  0  0  0
  8  9  1  0  0  0  0
  8 10  2  0  0  0  0
 10 11  1  0  0  0  0
 11 12  2  0  0  0  0
 15 23  1  0  0  0  0
 15 16  1  0  0  0  0
 16 19  1  0  0  0  0
 19 22  1  0  0  0  0
 22  2  1  1  0  0  0
 22 23  1  0  0  0  0
 23 24  1  6  0  0  0
 24 25  1  0  0  0  0
 25 26  1  0  0  0  0
M  CHG  2  13  -1  18  -1
M  END
>  <CHROM.1>
-53.05202253,-46.12157153,69.89218089,-50.65585467,-55.11631611,79.73436562
172.97254994,73.51914989,23.66540298,38.78981799,65.24562890,2.85728956,-0.06877823
0.18836061

>  <Name>
ligand

>  <RI>
0

>  <Rbt.Current_Directory>
/home/itssahil/PROJECTS/Mol_Feturizer/New_Systems/rnas/2HOJ

>  <Rbt.Executable>
rbdock ($Id: //depot/dev/client3/rdock/2013.1/src/exe/rbdock.cxx#4 $)

>  <Rbt.Library>
libRbt.so (2013.1, Build901 2013/11/27)

>  <Rbt.Parameter_File>
/export/apps/rDock/src/rDock_2013.1_src/data/scripts/dock_solv.prm

>  <Rbt.Receptor>
prm/pocket_docking_7.prm

>  <SCORE>
-24.4048

>  <SCORE.INTER>
-20.6476

>  <SCORE.INTER.CONST>
1

>  <SCORE.INTER.POLAR>
0

>  <SCORE.INTER.ROT>
8

>  <SCORE.INTER.SOLV>
30.1001

>  <SCORE.INTER.VDW>
-32.7317

>  <SCORE.INTER.norm>
-0.794137

>  <SCORE.INTRA>
-3.75722

>  <SCORE.INTRA.DIHEDRAL>
-4.39275

>  <SCORE.INTRA.DIHEDRAL.0>
11.6398

>  <SCORE.INTRA.POLAR>
0

>  <SCORE.INTRA.POLAR.0>
0

>  <SCORE.INTRA.REPUL>
0

>  <SCORE.INTRA.REPUL.0>
0

>  <SCORE.INTRA.SOLV>
2.1119

>  <SCORE.INTRA.SOLV.lig_0>
-81.722

>  <SCORE.INTRA.VDW>
-2.6168

>  <SCORE.INTRA.VDW.0>
1.12598

>  <SCORE.INTRA.norm>
-0.144509

>  <SCORE.RESTR>
0

>  <SCORE.RESTR.CAVITY>
0

>  <SCORE.RESTR.norm>
0

>  <SCORE.SYSTEM>
0

>  <SCORE.SYSTEM.CONST>
0

>  <SCORE.SYSTEM.DIHEDRAL>
0

>  <SCORE.SYSTEM.SOLV>
0

>  <SCORE.SYSTEM.norm>
0

>  <SCORE.heavy>
26

>  <SCORE.norm>
-0.938646

>  <RMSD>
2.951

$$$$
ligand
 OpenBabel11021811433D
libRbt.so/2013.1/901 2013/11/27
 26 27  0  0  0  0  0  0  0  0999 V2000
   21.1433   44.7797   66.3569 C   0  0  0  0  0  0  0  0  0  0  0  0
   20.9518   38.6529   68.4610 C   0  0  0  0  0  0  0  0  0  0  0  0
   27.0883   38.4239   68.0442 P   0  0  1  0  0  0  0  0  0  0  0  0
   29.5619   38.8606   67.4295 P   0  0  1  0  0  0  0  0  0  0  0  0
   19.9435   39.2320   65.9080 C   0  0  0  0  0  0  0  0  0  0  0  0
   21.5205   41.1262   66.3948 C   0  0  0  0  0  0  0  0  0  0  0  0
   20.2597   40.7007   66.0265 C   0  0  0  0  0  0  0  0  0  0  0  0
   19.2851   41.6657   65.7662 C   0  0  0  0  0  0  0  0  0  0  0  0
   18.0032   41.2901   65.3934 N   0  0  0  0  0  0  0  0  0  0  0  0
   19.6026   42.9514   65.8869 N   0  0  0  0  0  0  0  0  0  0  0  0
   20.8199   43.3133   66.2364 C   0  0  0  0  0  0  0  0  0  0  0  0
   21.7628   42.4268   66.4893 N   0  0  0  0  0  0  0  0  0  0  0  0
   27.6194   38.0495   69.3744 O   0  5  0  0  0  0  0  0  0  0  0  0
   29.2465   40.3061   67.8736 O   0  0  0  0  0  0  0  0  0  0  0  0
   23.1584   37.1982   65.5701 S   0  0  0  0  0  0  0  0  0  0  0  0
   21.7867   38.0511   64.9310 C   0  0  0  0  0  0  0  0  0  0  0  0
   26.6994   39.9849   68.0409 O   0  0  0  0  0  0  0  0  0  0  0  0
   30.1706   38.0370   68.6710 O   0  5  0  0  0  0  0  0  0  0  0  0
   21.1798   38.4551   66.0229 N   0  0  0  0  0  0  0  0  0  0  0  0
   28.2099   38.1476   66.9220 O   0  0  0  0  0  0  0  0  0  0  0  0
   30.5911   38.8899   66.2772 O   0  0  0  0  0  0  0  0  0  0  0  0
   21.6598   38.1805   67.2162 C   0  0  2  0  0  0  0  0  0  0  0  0
   22.8039   37.4552   67.3022 C   0  0  2  0  0  0  0  0  0  0  0  0
   23.5649   36.9978   68.5190 C   0  0  0  0  0  0  0  0  0  0  0  0
   24.8032   37.8767   68.7092 C   0  0  0  0  0  0  0  0  0  0  0  0
   25.7796   37.5434   67.7204 O   0  0  0  0  0  0  0  0  0  0  0  0
  1 11  1  0  0  0  0
  3 13  1  1  0  0  0
  3 17  2  0  0  0  0
  3 20  1  0  0  0  0
  3 26  1  0  0  0  0
  4 14  1  1  0  0  0
  4 18  1  0  0  0  0
  4 21  2  0  0  0  0
  4 20  1  0  0  0  0
  5 19  1  0  0  0  0
  5  7  1  0  0  0  0
  6  7  2  0  0  0  0
  6 12  1  0  0  0  0
  7  8  1  0  0  0  0
  8  9  1  0  0  0  0
  8 10  2  0  0  0  0
 10 11  1  0  0  0  0
 11 12  2  0  0  0  0
 15 23  1  0  0  0  0
 15 16  1  0  0  0  0
 16 19  1  0  0  0  0
 19 22  1  0  0  0  0
 22  2  1  1  0  0  0
 22 23  1  0  0  0  0
 23 24  1  6  0  0  0
 24 25  1  0  0  0  0
 25 26  1  0  0  0  0
M  CHG  2  13  -1  18  -1
M  END
>  <CHROM.1>
-50.96862005,-97.36226768,-8.94475648,-48.37009743,76.31665205,-73.37033339
-175.95651208,62.69932753,24.31193225,39.34974295,67.03735932,-2.84517209
0.16781392,3.04748959

>  <Name>
ligand

>  <RI>
0

>  <Rbt.Current_Directory>
/home/itssahil/PROJECTS/Mol_Feturizer/New_Systems/rnas/2HOJ

>  <Rbt.Executable>
rbdock ($Id: //depot/dev/client3/rdock/2013.1/src/exe/rbdock.cxx#4 $)

>  <Rbt.Library>
libRbt.so (2013.1, Build901 2013/11/27)

>  <Rbt.Parameter_File>
/export/apps/rDock/src/rDock_2013.1_src/data/scripts/dock_solv.prm

>  <Rbt.Receptor>
prm/pocket_docking_6.prm

>  <SCORE>
-27.105

>  <SCORE.INTER>
-21.8412

>  <SCORE.INTER.CONST>
1

>  <SCORE.INTER.POLAR>
-2.72663

>  <SCORE.INTER.ROT>
8

>  <SCORE.INTER.SOLV>
27.1746

>  <SCORE.INTER.VDW>
-23.4636

>  <SCORE.INTER.norm>
-0.840048

>  <SCORE.INTRA>
-5.26375

>  <SCORE.INTRA.DIHEDRAL>
-5.50585

>  <SCORE.INTRA.DIHEDRAL.0>
11.6398

>  <SCORE.INTRA.POLAR>
0

>  <SCORE.INTRA.POLAR.0>
0

>  <SCORE.INTRA.REPUL>
0

>  <SCORE.INTRA.REPUL.0>
0

>  <SCORE.INTRA.SOLV>
0.928108

>  <SCORE.INTRA.SOLV.lig_0>
-81.722

>  <SCORE.INTRA.VDW>
-2.97488

>  <SCORE.INTRA.VDW.0>
1.12598

>  <SCORE.INTRA.norm>
-0.202452

>  <SCORE.RESTR>
0

>  <SCORE.RESTR.CAVITY>
0

>  <SCORE.RESTR.norm>
0

>  <SCORE.SYSTEM>
0

>  <SCORE.SYSTEM.CONST>
0

>  <SCORE.SYSTEM.DIHEDRAL>
0

>  <SCORE.SYSTEM.SOLV>
0

>  <SCORE.SYSTEM.norm>
0

>  <SCORE.heavy>
26

>  <SCORE.norm>
-1.0425

>  <RMSD>
2.954

$$$$
ligand
 OpenBabel11021811433D
libRbt.so/2013.1/901 2013/11/27
 26 27  0  0  0  0  0  0  0  0999 V2000
   19.7478   44.0385   66.0714 C   0  0  0  0  0  0  0  0  0  0  0  0
   22.0953   37.9731   69.3820 C   0  0  0  0  0  0  0  0  0  0  0  0
   28.4030   38.7078   67.5719 P   0  0  1  0  0  0  0  0  0  0  0  0
   30.8996   39.3814   67.5716 P   0  0  1  0  0  0  0  0  0  0  0  0
   20.6997   38.5035   67.0071 C   0  0  0  0  0  0  0  0  0  0  0  0
   21.2542   40.9328   67.3274 C   0  0  0  0  0  0  0  0  0  0  0  0
   20.4465   39.9682   66.7586 C   0  0  0  0  0  0  0  0  0  0  0  0
   19.3896   40.3841   65.9472 C   0  0  0  0  0  0  0  0  0  0  0  0
   18.5491   39.4545   65.3530 N   0  0  0  0  0  0  0  0  0  0  0  0
   19.1966   41.6859   65.7567 N   0  0  0  0  0  0  0  0  0  0  0  0
   19.9947   42.5726   66.3153 C   0  0  0  0  0  0  0  0  0  0  0  0
   21.0015   42.2125   67.0870 N   0  0  0  0  0  0  0  0  0  0  0  0
   28.0813   39.0378   66.1651 O   0  5  0  0  0  0  0  0  0  0  0  0
   30.7555   38.8982   66.1114 O   0  0  0  0  0  0  0  0  0  0  0  0
   24.3834   37.8947   66.2039 S   0  0  0  0  0  0  0  0  0  0  0  0
   22.7400   38.2567   65.7732 C   0  0  0  0  0  0  0  0  0  0  0  0
   29.0507   37.2371   67.6442 O   0  0  0  0  0  0  0  0  0  0  0  0
   31.8742   40.6612   67.6210 O   0  5  0  0  0  0  0  0  0  0  0  0
   22.1384   38.2379   66.9401 N   0  0  0  0  0  0  0  0  0  0  0  0
   29.4515   39.7855   68.1490 O   0  0  0  0  0  0  0  0  0  0  0  0
   31.4975   38.2458   68.4323 O   0  0  0  0  0  0  0  0  0  0  0  0
   22.8003   37.9897   68.0492 C   0  0  2  0  0  0  0  0  0  0  0  0
   24.1322   37.7411   67.9661 C   0  0  2  0  0  0  0  0  0  0  0  0
   25.1231   37.4273   69.0562 C   0  0  0  0  0  0  0  0  0  0  0  0
   26.5383   37.4145   68.4740 C   0  0  0  0  0  0  0  0  0  0  0  0
   27.0566   38.7460   68.4545 O   0  0  0  0  0  0  0  0  0  0  0  0
  1 11  1  0  0  0  0
  3 13  1  6  0  0  0
  3 17  2  0  0  0  0
  3 20  1  0  0  0  0
  3 26  1  0  0  0  0
  4 14  1  6  0  0  0
  4 18  1  0  0  0  0
  4 21  2  0  0  0  0
  4 20  1  0  0  0  0
  5 19  1  0  0  0  0
  5  7  1  0  0  0  0
  6  7  2  0  0  0  0
  6 12  1  0  0  0  0
  7  8  1  0  0  0  0
  8  9  1  0  0  0  0
  8 10  2  0  0  0  0
 10 11  1  0  0  0  0
 11 12  2  0  0  0  0
 15 23  1  0  0  0  0
 15 16  1  0  0  0  0
 16 19  1  0  0  0  0
 19 22  1  0  0  0  0
 22  2  1  6  0  0  0
 22 23  1  0  0  0  0
 23 24  1  1  0  0  0
 24 25  1  0  0  0  0
 25 26  1  0  0  0  0
M  CHG  2  13  -1  18  -1
M  END
>  <CHROM.1>
-78.13513475,-72.57878136,-42.11947119,38.61822721,7.42465190,85.03301438
-168.85594291,92.89164340,25.17711355,39.25503043,67.21070879,-2.95515372
0.06350747,2.86810503

>  <Name>
ligand

>  <RI>
0

>  <Rbt.Current_Directory>
/home/itssahil/PROJECTS/Mol_Feturizer/New_Systems/rnas/2HOJ

>  <Rbt.Executable>
rbdock ($Id: //depot/dev/client3/rdock/2013.1/src/exe/rbdock.cxx#4 $)

>  <Rbt.Library>
libRbt.so (2013.1, Build901 2013/11/27)

>  <Rbt.Parameter_File>
/export/apps/rDock/src/rDock_2013.1_src/data/scripts/dock_solv.prm

>  <Rbt.Receptor>
prm/pocket_docking_3.prm

>  <SCORE>
-21.7465

>  <SCORE.INTER>
-19.0197

>  <SCORE.INTER.CONST>
1

>  <SCORE.INTER.POLAR>
-2.61991

>  <SCORE.INTER.ROT>
8

>  <SCORE.INTER.SOLV>
32.3785

>  <SCORE.INTER.VDW>
-23.673

>  <SCORE.INTER.norm>
-0.731528

>  <SCORE.INTRA>
-2.7268

>  <SCORE.INTRA.DIHEDRAL>
-1.85808

>  <SCORE.INTRA.DIHEDRAL.0>
11.6398

>  <SCORE.INTRA.POLAR>
0

>  <SCORE.INTRA.POLAR.0>
0

>  <SCORE.INTRA.REPUL>
0

>  <SCORE.INTRA.REPUL.0>
0

>  <SCORE.INTRA.SOLV>
0.788084

>  <SCORE.INTRA.SOLV.lig_0>
-81.722

>  <SCORE.INTRA.VDW>
-2.1918

>  <SCORE.INTRA.VDW.0>
1.12598

>  <SCORE.INTRA.norm>
-0.104877

>  <SCORE.RESTR>
0

>  <SCORE.RESTR.CAVITY>
0

>  <SCORE.RESTR.norm>
0

>  <SCORE.SYSTEM>
0

>  <SCORE.SYSTEM.CONST>
0

>  <SCORE.SYSTEM.DIHEDRAL>
0

>  <SCORE.SYSTEM.SOLV>
0

>  <SCORE.SYSTEM.norm>
0

>  <SCORE.heavy>
26

>  <SCORE.norm>
-0.836405

>  <RMSD>
2.966

$$$$
ligand
 OpenBabel11021811433D
libRbt.so/2013.1/901 2013/11/27
 26 27  0  0  0  0  0  0  0  0999 V2000
   19.8662   43.7194   66.1592 C   0  0  0  0  0  0  0  0  0  0  0  0
   23.0880   37.6332   69.1261 C   0  0  0  0  0  0  0  0  0  0  0  0
   28.9698   38.5952   68.8304 P   0  0  1  0  0  0  0  0  0  0  0  0
   29.8587   38.2815   66.4224 P   0  0  1  0  0  0  0  0  0  0  0  0
   21.3681   38.2937   67.0106 C   0  0  0  0  0  0  0  0  0  0  0  0
   21.7425   40.7641   67.2721 C   0  0  0  0  0  0  0  0  0  0  0  0
   20.9693   39.7293   66.7846 C   0  0  0  0  0  0  0  0  0  0  0  0
   19.8088   40.0467   66.0766 C   0  0  0  0  0  0  0  0  0  0  0  0
   18.9977   39.0438   65.5668 N   0  0  0  0  0  0  0  0  0  0  0  0
   19.4891   41.3257   65.9029 N   0  0  0  0  0  0  0  0  0  0  0  0
   20.2584   42.2819   66.3813 C   0  0  0  0  0  0  0  0  0  0  0  0
   21.3607   42.0156   67.0544 N   0  0  0  0  0  0  0  0  0  0  0  0
   30.2437   38.2355   69.4933 O   0  5  0  0  0  0  0  0  0  0  0  0
   31.2285   38.4735   67.1100 O   0  0  0  0  0  0  0  0  0  0  0  0
   24.9442   38.0194   65.6987 S   0  0  0  0  0  0  0  0  0  0  0  0
   23.2412   38.3077   65.5148 C   0  0  0  0  0  0  0  0  0  0  0  0
   28.9853   40.1577   68.4483 O   0  0  0  0  0  0  0  0  0  0  0  0
   30.0080   37.2352   65.2087 O   0  5  0  0  0  0  0  0  0  0  0  0
   22.7984   38.1351   66.7387 N   0  0  0  0  0  0  0  0  0  0  0  0
   28.7953   37.7167   67.4919 O   0  0  0  0  0  0  0  0  0  0  0  0
   29.3641   39.6389   65.8737 O   0  0  0  0  0  0  0  0  0  0  0  0
   23.6117   37.8269   67.7254 C   0  0  2  0  0  0  0  0  0  0  0  0
   24.9331   37.6794   67.4526 C   0  0  2  0  0  0  0  0  0  0  0  0
   26.0733   37.3304   68.3729 C   0  0  0  0  0  0  0  0  0  0  0  0
   26.5434   38.5886   69.1063 C   0  0  0  0  0  0  0  0  0  0  0  0
   27.7417   38.2983   69.8287 O   0  0  0  0  0  0  0  0  0  0  0  0
  1 11  1  0  0  0  0
  3 13  1  1  0  0  0
  3 17  2  0  0  0  0
  3 20  1  0  0  0  0
  3 26  1  0  0  0  0
  4 14  1  1  0  0  0
  4 18  1  0  0  0  0
  4 21  2  0  0  0  0
  4 20  1  0  0  0  0
  5 19  1  0  0  0  0
  5  7  1  0  0  0  0
  6  7  2  0  0  0  0
  6 12  1  0  0  0  0
  7  8  1  0  0  0  0
  8  9  1  0  0  0  0
  8 10  2  0  0  0  0
 10 11  1  0  0  0  0
 11 12  2  0  0  0  0
 15 23  1  0  0  0  0
 15 16  1  0  0  0  0
 16 19  1  0  0  0  0
 19 22  1  0  0  0  0
 22  2  1  6  0  0  0
 22 23  1  0  0  0  0
 23 24  1  1  0  0  0
 24 25  1  0  0  0  0
 25 26  1  0  0  0  0
M  CHG  2  13  -1  18  -1
M  END
>  <CHROM.1>
-71.80900743,-65.68897967,-45.08419830,45.70675594,97.77959963,-171.70392513
89.53477269,-176.62306380,25.39408236,39.00037542,67.18352542,-2.88134441
0.06090529,2.86642528

>  <Name>
ligand

>  <RI>
0

>  <Rbt.Current_Directory>
/home/itssahil/PROJECTS/Mol_Feturizer/New_Systems/rnas/2HOJ

>  <Rbt.Executable>
rbdock ($Id: //depot/dev/client3/rdock/2013.1/src/exe/rbdock.cxx#4 $)

>  <Rbt.Library>
libRbt.so (2013.1, Build901 2013/11/27)

>  <Rbt.Parameter_File>
/export/apps/rDock/src/rDock_2013.1_src/data/scripts/dock_solv.prm

>  <Rbt.Receptor>
prm/pocket_docking_3.prm

>  <SCORE>
-21.3571

>  <SCORE.INTER>
-17.8128

>  <SCORE.INTER.CONST>
1

>  <SCORE.INTER.POLAR>
-2.82329

>  <SCORE.INTER.ROT>
8

>  <SCORE.INTER.SOLV>
27.7971

>  <SCORE.INTER.VDW>
-20.6633

>  <SCORE.INTER.norm>
-0.685107

>  <SCORE.INTRA>
-3.73559

>  <SCORE.INTRA.DIHEDRAL>
-2.58454

>  <SCORE.INTRA.DIHEDRAL.0>
11.6398

>  <SCORE.INTRA.POLAR>
0

>  <SCORE.INTRA.POLAR.0>
0

>  <SCORE.INTRA.REPUL>
0

>  <SCORE.INTRA.REPUL.0>
0

>  <SCORE.INTRA.SOLV>
1.44852

>  <SCORE.INTRA.SOLV.lig_0>
-81.722

>  <SCORE.INTRA.VDW>
-3.16758

>  <SCORE.INTRA.VDW.0>
1.12598

>  <SCORE.INTRA.norm>
-0.143677

>  <SCORE.RESTR>
0.191293

>  <SCORE.RESTR.CAVITY>
0.191293

>  <SCORE.RESTR.norm>
0.00735744

>  <SCORE.SYSTEM>
0

>  <SCORE.SYSTEM.CONST>
0

>  <SCORE.SYSTEM.DIHEDRAL>
0

>  <SCORE.SYSTEM.SOLV>
0

>  <SCORE.SYSTEM.norm>
0

>  <SCORE.heavy>
26

>  <SCORE.norm>
-0.821426

>  <RMSD>
2.969

$$$$
ligand
 OpenBabel11021811433D
libRbt.so/2013.1/901 2013/11/27
 26 27  0  0  0  0  0  0  0  0999 V2000
   21.1951   44.7161   66.3521 C   0  0  0  0  0  0  0  0  0  0  0  0
   20.9963   38.6169   68.7019 C   0  0  0  0  0  0  0  0  0  0  0  0
   26.9815   38.5140   67.9725 P   0  0  1  0  0  0  0  0  0  0  0  0
   29.4759   38.8565   67.3831 P   0  0  1  0  0  0  0  0  0  0  0  0
   19.8309   39.1899   66.2153 C   0  0  0  0  0  0  0  0  0  0  0  0
   21.4292   41.0668   66.6991 C   0  0  0  0  0  0  0  0  0  0  0  0
   20.1906   40.6530   66.2511 C   0  0  0  0  0  0  0  0  0  0  0  0
   19.2799   41.6242   65.8317 C   0  0  0  0  0  0  0  0  0  0  0  0
   18.0224   41.2603   65.3735 N   0  0  0  0  0  0  0  0  0  0  0  0
   19.6338   42.9050   65.8834 N   0  0  0  0  0  0  0  0  0  0  0  0
   20.8284   43.2554   66.3136 C   0  0  0  0  0  0  0  0  0  0  0  0
   21.7112   42.3627   66.7170 N   0  0  0  0  0  0  0  0  0  0  0  0
   27.5071   38.1426   69.3057 O   0  5  0  0  0  0  0  0  0  0  0  0
   29.2007   40.2689   67.9451 O   0  0  0  0  0  0  0  0  0  0  0  0
   22.9670   37.0752   65.6884 S   0  0  0  0  0  0  0  0  0  0  0  0
   21.5754   37.9533   65.1320 C   0  0  0  0  0  0  0  0  0  0  0  0
   26.6157   40.0804   67.9564 O   0  0  0  0  0  0  0  0  0  0  0  0
   30.0931   37.9269   68.5429 O   0  5  0  0  0  0  0  0  0  0  0  0
   21.0536   38.3848   66.2569 N   0  0  0  0  0  0  0  0  0  0  0  0
   28.0987   38.2118   66.8527 O   0  0  0  0  0  0  0  0  0  0  0  0
   30.4811   38.9555   66.2135 O   0  0  0  0  0  0  0  0  0  0  0  0
   21.6070   38.1129   67.4186 C   0  0  2  0  0  0  0  0  0  0  0  0
   22.7371   37.3612   67.4369 C   0  0  2  0  0  0  0  0  0  0  0  0
   23.5681   36.9000   68.6055 C   0  0  0  0  0  0  0  0  0  0  0  0
   24.7792   37.8213   68.7683 C   0  0  0  0  0  0  0  0  0  0  0  0
   25.6598   37.6502   67.6560 O   0  0  0  0  0  0  0  0  0  0  0  0
  1 11  1  0  0  0  0
  3 13  1  1  0  0  0
  3 17  2  0  0  0  0
  3 20  1  0  0  0  0
  3 26  1  0  0  0  0
  4 14  1  1  0  0  0
  4 18  1  0  0  0  0
  4 21  2  0  0  0  0
  4 20  1  0  0  0  0
  5 19  1  0  0  0  0
  5  7  1  0  0  0  0
  6  7  2  0  0  0  0
  6 12  1  0  0  0  0
  7  8  1  0  0  0  0
  8  9  1  0  0  0  0
  8 10  2  0  0  0  0
 10 11  1  0  0  0  0
 11 12  2  0  0  0  0
 15 23  1  0  0  0  0
 15 16  1  0  0  0  0
 16 19  1  0  0  0  0
 19 22  1  0  0  0  0
 22  2  1  1  0  0  0
 22 23  1  0  0  0  0
 23 24  1  6  0  0  0
 24 25  1  0  0  0  0
 25 26  1  0  0  0  0
M  CHG  2  13  -1  18  -1
M  END
>  <CHROM.1>
-48.68094349,-95.69324902,-19.13138192,-44.42641249,80.83740635,-67.59464578
-173.63311611,52.56949218,24.23844227,39.32675856,67.09521000,-2.85435941
0.14366849,3.02797699

>  <Name>
ligand

>  <RI>
0

>  <Rbt.Current_Directory>
/home/itssahil/PROJECTS/Mol_Feturizer/New_Systems/rnas/2HOJ

>  <Rbt.Executable>
rbdock ($Id: //depot/dev/client3/rdock/2013.1/src/exe/rbdock.cxx#4 $)

>  <Rbt.Library>
libRbt.so (2013.1, Build901 2013/11/27)

>  <Rbt.Parameter_File>
/export/apps/rDock/src/rDock_2013.1_src/data/scripts/dock_solv.prm

>  <Rbt.Receptor>
prm/pocket_docking_8.prm

>  <SCORE>
-26.8242

>  <SCORE.INTER>
-21.623

>  <SCORE.INTER.CONST>
1

>  <SCORE.INTER.POLAR>
-2.72267

>  <SCORE.INTER.ROT>
8

>  <SCORE.INTER.SOLV>
26.4601

>  <SCORE.INTER.VDW>
-23.0931

>  <SCORE.INTER.norm>
-0.831654

>  <SCORE.INTRA>
-5.20121

>  <SCORE.INTRA.DIHEDRAL>
-5.56722

>  <SCORE.INTRA.DIHEDRAL.0>
11.6398

>  <SCORE.INTRA.POLAR>
0

>  <SCORE.INTRA.POLAR.0>
0

>  <SCORE.INTRA.REPUL>
0

>  <SCORE.INTRA.REPUL.0>
0

>  <SCORE.INTRA.SOLV>
0.811729

>  <SCORE.INTRA.SOLV.lig_0>
-81.722

>  <SCORE.INTRA.VDW>
-2.82347

>  <SCORE.INTRA.VDW.0>
1.12598

>  <SCORE.INTRA.norm>
-0.200047

>  <SCORE.RESTR>
0

>  <SCORE.RESTR.CAVITY>
0

>  <SCORE.RESTR.norm>
0

>  <SCORE.SYSTEM>
0

>  <SCORE.SYSTEM.CONST>
0

>  <SCORE.SYSTEM.DIHEDRAL>
0

>  <SCORE.SYSTEM.SOLV>
0

>  <SCORE.SYSTEM.norm>
0

>  <SCORE.heavy>
26

>  <SCORE.norm>
-1.0317

>  <RMSD>
2.973

$$$$
ligand
 OpenBabel11021811433D
libRbt.so/2013.1/901 2013/11/27
 26 27  0  0  0  0  0  0  0  0999 V2000
   15.6393   39.1304   63.9486 C   0  0  0  0  0  0  0  0  0  0  0  0
   21.7461   40.0581   68.8362 C   0  0  0  0  0  0  0  0  0  0  0  0
   27.1098   37.8870   67.4446 P   0  0  1  0  0  0  0  0  0  0  0  0
   27.1978   37.4588   64.8959 P   0  0  1  0  0  0  0  0  0  0  0  0
   20.5608   40.6635   66.3667 C   0  0  0  0  0  0  0  0  0  0  0  0
   18.8738   38.9338   65.6783 C   0  0  0  0  0  0  0  0  0  0  0  0
   19.2579   40.2591   65.7263 C   0  0  0  0  0  0  0  0  0  0  0  0
   18.4085   41.2152   65.1668 C   0  0  0  0  0  0  0  0  0  0  0  0
   18.7488   42.5595   65.1888 N   0  0  0  0  0  0  0  0  0  0  0  0
   17.2700   40.8172   64.6066 N   0  0  0  0  0  0  0  0  0  0  0  0
   16.9402   39.5421   64.5871 C   0  0  0  0  0  0  0  0  0  0  0  0
   17.7204   38.6145   65.1065 N   0  0  0  0  0  0  0  0  0  0  0  0
   27.7943   37.6862   68.7418 O   0  5  0  0  0  0  0  0  0  0  0  0
   25.6629   37.3268   65.0096 O   0  0  0  0  0  0  0  0  0  0  0  0
   22.7272   37.5396   66.0013 S   0  0  0  0  0  0  0  0  0  0  0  0
   21.6547   38.7645   65.3955 C   0  0  0  0  0  0  0  0  0  0  0  0
   27.1193   39.4511   67.0686 O   0  0  0  0  0  0  0  0  0  0  0  0
   27.5814   38.9786   64.5310 O   0  5  0  0  0  0  0  0  0  0  0  0
   21.4404   39.4965   66.4642 N   0  0  0  0  0  0  0  0  0  0  0  0
   27.8770   37.0546   66.2992 O   0  0  0  0  0  0  0  0  0  0  0  0
   27.7139   36.5168   63.7849 O   0  0  0  0  0  0  0  0  0  0  0  0
   22.0011   39.2066   67.6180 C   0  0  2  0  0  0  0  0  0  0  0  0
   22.8091   38.1183   67.6896 C   0  0  2  0  0  0  0  0  0  0  0  0
   23.5670   37.5572   68.8641 C   0  0  0  0  0  0  0  0  0  0  0  0
   25.0453   37.9355   68.7481 C   0  0  0  0  0  0  0  0  0  0  0  0
   25.5887   37.3698   67.5536 O   0  0  0  0  0  0  0  0  0  0  0  0
  1 11  1  0  0  0  0
  3 13  1  1  0  0  0
  3 17  2  0  0  0  0
  3 20  1  0  0  0  0
  3 26  1  0  0  0  0
  4 14  1  1  0  0  0
  4 18  1  0  0  0  0
  4 21  2  0  0  0  0
  4 20  1  0  0  0  0
  5 19  1  0  0  0  0
  5  7  1  0  0  0  0
  6  7  2  0  0  0  0
  6 12  1  0  0  0  0
  7  8  1  0  0  0  0
  8  9  1  0  0  0  0
  8 10  2  0  0  0  0
 10 11  1  0  0  0  0
 11 12  2  0  0  0  0
 15 23  1  0  0  0  0
 15 16  1  0  0  0  0
 16 19  1  0  0  0  0
 19 22  1  0  0  0  0
 22  2  1  1  0  0  0
 22 23  1  0  0  0  0
 23 24  1  6  0  0  0
 24 25  1  0  0  0  0
 25 26  1  0  0  0  0
M  CHG  2  13  -1  18  -1
M  END
>  <CHROM.1>
-173.15968566,51.04744592,18.69434064,-50.18449317,77.13914313,-61.47452107
176.26678696,48.39923064,23.20655108,38.64739174,66.19967769,-3.05807610
-0.27371859,1.41295488

>  <Name>
ligand

>  <RI>
0

>  <Rbt.Current_Directory>
/home/itssahil/PROJECTS/Mol_Feturizer/New_Systems/rnas/2HOJ

>  <Rbt.Executable>
rbdock ($Id: //depot/dev/client3/rdock/2013.1/src/exe/rbdock.cxx#4 $)

>  <Rbt.Library>
libRbt.so (2013.1, Build901 2013/11/27)

>  <Rbt.Parameter_File>
/export/apps/rDock/src/rDock_2013.1_src/data/scripts/dock_solv.prm

>  <Rbt.Receptor>
prm/pocket_docking_5.prm

>  <SCORE>
-28.4118

>  <SCORE.INTER>
-22.3731

>  <SCORE.INTER.CONST>
1

>  <SCORE.INTER.POLAR>
0

>  <SCORE.INTER.ROT>
8

>  <SCORE.INTER.SOLV>
26.3947

>  <SCORE.INTER.VDW>
-32.647

>  <SCORE.INTER.norm>
-0.860503

>  <SCORE.INTRA>
-6.03878

>  <SCORE.INTRA.DIHEDRAL>
-6.07891

>  <SCORE.INTRA.DIHEDRAL.0>
11.6398

>  <SCORE.INTRA.POLAR>
0

>  <SCORE.INTRA.POLAR.0>
0

>  <SCORE.INTRA.REPUL>
0

>  <SCORE.INTRA.REPUL.0>
0

>  <SCORE.INTRA.SOLV>
-0.359632

>  <SCORE.INTRA.SOLV.lig_0>
-81.722

>  <SCORE.INTRA.VDW>
-2.81951

>  <SCORE.INTRA.VDW.0>
1.12598

>  <SCORE.INTRA.norm>
-0.232261

>  <SCORE.RESTR>
0

>  <SCORE.RESTR.CAVITY>
0

>  <SCORE.RESTR.norm>
0

>  <SCORE.SYSTEM>
0

>  <SCORE.SYSTEM.CONST>
0

>  <SCORE.SYSTEM.DIHEDRAL>
0

>  <SCORE.SYSTEM.SOLV>
0

>  <SCORE.SYSTEM.norm>
0

>  <SCORE.heavy>
26

>  <SCORE.norm>
-1.09276

>  <RMSD>
2.996

$$$$
ligand
 OpenBabel11021811433D
libRbt.so/2013.1/901 2013/11/27
 26 27  0  0  0  0  0  0  0  0999 V2000
   19.3068   43.8510   66.1423 C   0  0  0  0  0  0  0  0  0  0  0  0
   23.8370   37.6483   65.8590 C   0  0  0  0  0  0  0  0  0  0  0  0
   27.9593   36.8417   67.4962 P   0  0  1  0  0  0  0  0  0  0  0  0
   29.7096   38.7322   67.2740 P   0  0  1  0  0  0  0  0  0  0  0  0
   21.1557   38.4730   65.8653 C   0  0  0  0  0  0  0  0  0  0  0  0
   21.5434   40.9374   66.1622 C   0  0  0  0  0  0  0  0  0  0  0  0
   20.6649   39.8960   65.9384 C   0  0  0  0  0  0  0  0  0  0  0  0
   19.3104   40.1947   65.7813 C   0  0  0  0  0  0  0  0  0  0  0  0
   18.3875   39.1846   65.5550 N   0  0  0  0  0  0  0  0  0  0  0  0
   18.9168   41.4626   65.8576 N   0  0  0  0  0  0  0  0  0  0  0  0
   19.7901   42.4261   66.0680 C   0  0  0  0  0  0  0  0  0  0  0  0
   21.0760   42.1772   66.2209 N   0  0  0  0  0  0  0  0  0  0  0  0
   28.5928   36.3271   66.2611 O   0  5  0  0  0  0  0  0  0  0  0  0
   28.6082   39.5205   66.5313 O   0  0  0  0  0  0  0  0  0  0  0  0
   22.2406   37.6609   69.4358 S   0  0  0  0  0  0  0  0  0  0  0  0
   21.0871   38.1737   68.2426 C   0  0  0  0  0  0  0  0  0  0  0  0
   27.4633   35.6070   68.4002 O   0  0  0  0  0  0  0  0  0  0  0  0
   30.6666   39.7581   68.0626 O   0  5  0  0  0  0  0  0  0  0  0  0
   21.7886   38.1084   67.1347 N   0  0  0  0  0  0  0  0  0  0  0  0
   29.0291   37.7169   68.3227 O   0  0  0  0  0  0  0  0  0  0  0  0
   30.5462   37.9305   66.2515 O   0  0  0  0  0  0  0  0  0  0  0  0
   23.0449   37.7194   67.1402 C   0  0  2  0  0  0  0  0  0  0  0  0
   23.6153   37.3903   68.3272 C   0  0  2  0  0  0  0  0  0  0  0  0
   25.0158   36.9232   68.6260 C   0  0  0  0  0  0  0  0  0  0  0  0
   26.0066   38.0504   68.3266 C   0  0  0  0  0  0  0  0  0  0  0  0
   26.6980   37.7650   67.1090 O   0  0  0  0  0  0  0  0  0  0  0  0
  1 11  1  0  0  0  0
  3 13  1  6  0  0  0
  3 17  2  0  0  0  0
  3 20  1  0  0  0  0
  3 26  1  0  0  0  0
  4 14  1  6  0  0  0
  4 18  1  0  0  0  0
  4 21  2  0  0  0  0
  4 20  1  0  0  0  0
  5 19  1  0  0  0  0
  5  7  1  0  0  0  0
  6  7  2  0  0  0  0
  6 12  1  0  0  0  0
  7  8  1  0  0  0  0
  8  9  1  0  0  0  0
  8 10  2  0  0  0  0
 10 11  1  0  0  0  0
 11 12  2  0  0  0  0
 15 23  1  0  0  0  0
 15 16  1  0  0  0  0
 16 19  1  0  0  0  0
 19 22  1  0  0  0  0
 22  2  1  1  0  0  0
 22 23  1  0  0  0  0
 23 24  1  6  0  0  0
 24 25  1  0  0  0  0
 25 26  1  0  0  0  0
M  CHG  2  13  -1  18  -1
M  END
>  <CHROM.1>
48.24060085,58.91078339,60.47473496,53.29154895,-113.93571089,-105.08921402
-86.29914597,170.83656037,24.62388812,38.67647351,67.16029850,-2.82992925
-0.01861398,2.72993572

>  <Name>
ligand

>  <RI>
0

>  <Rbt.Current_Directory>
/home/itssahil/PROJECTS/Mol_Feturizer/New_Systems/rnas/2HOJ

>  <Rbt.Executable>
rbdock ($Id: //depot/dev/client3/rdock/2013.1/src/exe/rbdock.cxx#4 $)

>  <Rbt.Library>
libRbt.so (2013.1, Build901 2013/11/27)

>  <Rbt.Parameter_File>
/export/apps/rDock/src/rDock_2013.1_src/data/scripts/dock_solv.prm

>  <Rbt.Receptor>
prm/pocket_docking_5.prm

>  <SCORE>
-16.8521

>  <SCORE.INTER>
-15.5643

>  <SCORE.INTER.CONST>
1

>  <SCORE.INTER.POLAR>
-1.29904

>  <SCORE.INTER.ROT>
8

>  <SCORE.INTER.SOLV>
28.1898

>  <SCORE.INTER.VDW>
-24.376

>  <SCORE.INTER.norm>
-0.598628

>  <SCORE.INTRA>
-1.28781

>  <SCORE.INTRA.DIHEDRAL>
0.994614

>  <SCORE.INTRA.DIHEDRAL.0>
11.6398

>  <SCORE.INTRA.POLAR>
0

>  <SCORE.INTRA.POLAR.0>
0

>  <SCORE.INTRA.REPUL>
0

>  <SCORE.INTRA.REPUL.0>
0

>  <SCORE.INTRA.SOLV>
0.787812

>  <SCORE.INTRA.SOLV.lig_0>
-81.722

>  <SCORE.INTRA.VDW>
-2.17902

>  <SCORE.INTRA.VDW.0>
1.12598

>  <SCORE.INTRA.norm>
-0.0495311

>  <SCORE.RESTR>
0

>  <SCORE.RESTR.CAVITY>
0

>  <SCORE.RESTR.norm>
0

>  <SCORE.SYSTEM>
0

>  <SCORE.SYSTEM.CONST>
0

>  <SCORE.SYSTEM.DIHEDRAL>
0

>  <SCORE.SYSTEM.SOLV>
0

>  <SCORE.SYSTEM.norm>
0

>  <SCORE.heavy>
26

>  <SCORE.norm>
-0.648159

>  <RMSD>
2.997

$$$$
ligand
 OpenBabel11021811433D
libRbt.so/2013.1/901 2013/11/27
 26 27  0  0  0  0  0  0  0  0999 V2000
   19.4584   43.8144   65.8791 C   0  0  0  0  0  0  0  0  0  0  0  0
   22.7477   37.9926   69.2449 C   0  0  0  0  0  0  0  0  0  0  0  0
   28.3353   38.1864   66.7400 P   0  0  1  0  0  0  0  0  0  0  0  0
   30.7387   38.8363   67.4388 P   0  0  1  0  0  0  0  0  0  0  0  0
   20.7646   38.4623   67.3171 C   0  0  0  0  0  0  0  0  0  0  0  0
   19.2815   40.1603   66.2085 C   0  0  0  0  0  0  0  0  0  0  0  0
   20.4201   39.8794   66.9371 C   0  0  0  0  0  0  0  0  0  0  0  0
   21.2442   40.9416   67.3132 C   0  0  0  0  0  0  0  0  0  0  0  0
   22.3996   40.7123   68.0452 N   0  0  0  0  0  0  0  0  0  0  0  0
   20.9079   42.1770   66.9540 N   0  0  0  0  0  0  0  0  0  0  0  0
   19.8092   42.4004   66.2625 C   0  0  0  0  0  0  0  0  0  0  0  0
   19.0100   41.4193   65.8916 N   0  0  0  0  0  0  0  0  0  0  0  0
   28.2480   39.5398   66.1465 O   0  5  0  0  0  0  0  0  0  0  0  0
   31.7694   38.1818   68.3853 O   0  0  0  0  0  0  0  0  0  0  0  0
   24.0791   37.7193   65.5714 S   0  0  0  0  0  0  0  0  0  0  0  0
   22.3862   38.1084   65.5876 C   0  0  0  0  0  0  0  0  0  0  0  0
   27.4285   37.1667   65.8882 O   0  0  0  0  0  0  0  0  0  0  0  0
   31.5080   39.7063   66.3247 O   0  5  0  0  0  0  0  0  0  0  0  0
   22.1261   38.1546   66.8737 N   0  0  0  0  0  0  0  0  0  0  0  0
   29.8671   37.6895   66.7185 O   0  0  0  0  0  0  0  0  0  0  0  0
   29.8032   39.7565   68.2548 O   0  0  0  0  0  0  0  0  0  0  0  0
   23.0619   37.9345   67.7712 C   0  0  2  0  0  0  0  0  0  0  0  0
   24.3165   37.6460   67.3406 C   0  0  2  0  0  0  0  0  0  0  0  0
   25.5626   37.3503   68.1335 C   0  0  0  0  0  0  0  0  0  0  0  0
   26.4315   38.6078   68.2101 C   0  0  0  0  0  0  0  0  0  0  0  0
   27.8091   38.2315   68.2612 O   0  0  0  0  0  0  0  0  0  0  0  0
  1 11  1  0  0  0  0
  3 13  1  6  0  0  0
  3 17  2  0  0  0  0
  3 20  1  0  0  0  0
  3 26  1  0  0  0  0
  4 14  1  1  0  0  0
  4 18  1  0  0  0  0
  4 21  2  0  0  0  0
  4 20  1  0  0  0  0
  5 19  1  0  0  0  0
  5  7  1  0  0  0  0
  6  7  2  0  0  0  0
  6 12  1  0  0  0  0
  7  8  1  0  0  0  0
  8  9  1  0  0  0  0
  8 10  2  0  0  0  0
 10 11  1  0  0  0  0
 11 12  2  0  0  0  0
 15 23  1  0  0  0  0
 15 16  1  0  0  0  0
 16 19  1  0  0  0  0
 19 22  1  0  0  0  0
 22  2  1  6  0  0  0
 22 23  1  0  0  0  0
 23 24  1  1  0  0  0
 24 25  1  0  0  0  0
 25 26  1  0  0  0  0
M  CHG  2  13  -1  18  -1
M  END
>  <CHROM.1>
53.58022374,-66.24275334,126.25034670,137.05976401,80.24673248,-148.37542614
91.21872535,63.10156848,25.22453559,39.10878852,67.01758909,-2.91894891,0.04481424
3.04867995

>  <Name>
ligand

>  <RI>
0

>  <Rbt.Current_Directory>
/home/itssahil/PROJECTS/Mol_Feturizer/New_Systems/rnas/2HOJ

>  <Rbt.Executable>
rbdock ($Id: //depot/dev/client3/rdock/2013.1/src/exe/rbdock.cxx#4 $)

>  <Rbt.Library>
libRbt.so (2013.1, Build901 2013/11/27)

>  <Rbt.Parameter_File>
/export/apps/rDock/src/rDock_2013.1_src/data/scripts/dock_solv.prm

>  <Rbt.Receptor>
prm/pocket_docking_4.prm

>  <SCORE>
-21.1623

>  <SCORE.INTER>
-24.3835

>  <SCORE.INTER.CONST>
1

>  <SCORE.INTER.POLAR>
-2.67167

>  <SCORE.INTER.ROT>
8

>  <SCORE.INTER.SOLV>
21.0304

>  <SCORE.INTER.VDW>
-23.2935

>  <SCORE.INTER.norm>
-0.937826

>  <SCORE.INTRA>
3.22113

>  <SCORE.INTRA.DIHEDRAL>
2.20957

>  <SCORE.INTRA.DIHEDRAL.0>
11.6398

>  <SCORE.INTRA.POLAR>
0

>  <SCORE.INTRA.POLAR.0>
0

>  <SCORE.INTRA.REPUL>
0

>  <SCORE.INTRA.REPUL.0>
0

>  <SCORE.INTRA.SOLV>
8.00372

>  <SCORE.INTRA.SOLV.lig_0>
-81.722

>  <SCORE.INTRA.VDW>
-1.88551

>  <SCORE.INTRA.VDW.0>
1.12598

>  <SCORE.INTRA.norm>
0.12389

>  <SCORE.RESTR>
0

>  <SCORE.RESTR.CAVITY>
0

>  <SCORE.RESTR.norm>
0

>  <SCORE.SYSTEM>
0

>  <SCORE.SYSTEM.CONST>
0

>  <SCORE.SYSTEM.DIHEDRAL>
0

>  <SCORE.SYSTEM.SOLV>
0

>  <SCORE.SYSTEM.norm>
0

>  <SCORE.heavy>
26

>  <SCORE.norm>
-0.813936

>  <RMSD>
3.013

$$$$
ligand
 OpenBabel11021811433D
libRbt.so/2013.1/901 2013/11/27
 26 27  0  0  0  0  0  0  0  0999 V2000
   21.2835   44.9266   66.5280 C   0  0  0  0  0  0  0  0  0  0  0  0
   21.0834   38.7998   68.7343 C   0  0  0  0  0  0  0  0  0  0  0  0
   26.6043   39.2496   67.6475 P   0  0  1  0  0  0  0  0  0  0  0  0
   29.1281   38.7265   67.8568 P   0  0  1  0  0  0  0  0  0  0  0  0
   19.7832   39.4376   66.3318 C   0  0  0  0  0  0  0  0  0  0  0  0
   21.3953   41.2752   66.9114 C   0  0  0  0  0  0  0  0  0  0  0  0
   20.1790   40.8909   66.3831 C   0  0  0  0  0  0  0  0  0  0  0  0
   19.3252   41.8826   65.8974 C   0  0  0  0  0  0  0  0  0  0  0  0
   18.0922   41.5487   65.3573 N   0  0  0  0  0  0  0  0  0  0  0  0
   19.7092   43.1539   65.9654 N   0  0  0  0  0  0  0  0  0  0  0  0
   20.8811   43.4759   66.4733 C   0  0  0  0  0  0  0  0  0  0  0  0
   21.7103   42.5633   66.9407 N   0  0  0  0  0  0  0  0  0  0  0  0
   27.0484   40.5360   68.2302 O   0  5  0  0  0  0  0  0  0  0  0  0
   29.4001   39.7263   69.0025 O   0  0  0  0  0  0  0  0  0  0  0  0
   22.8311   37.2609   65.5848 S   0  0  0  0  0  0  0  0  0  0  0  0
   21.4293   38.1788   65.1268 C   0  0  0  0  0  0  0  0  0  0  0  0
   26.5199   39.3855   66.0468 O   0  0  0  0  0  0  0  0  0  0  0  0
   30.2269   37.5513   67.8962 O   0  5  0  0  0  0  0  0  0  0  0  0
   20.9869   38.6045   66.2874 N   0  0  0  0  0  0  0  0  0  0  0  0
   27.6575   38.0941   68.0337 O   0  0  0  0  0  0  0  0  0  0  0  0
   29.2110   39.4633   66.5010 O   0  0  0  0  0  0  0  0  0  0  0  0
   21.6032   38.3021   67.4092 C   0  0  2  0  0  0  0  0  0  0  0  0
   22.7143   37.5248   67.3480 C   0  0  2  0  0  0  0  0  0  0  0  0
   23.6035   37.0268   68.4571 C   0  0  0  0  0  0  0  0  0  0  0  0
   25.0499   37.4430   68.1802 C   0  0  0  0  0  0  0  0  0  0  0  0
   25.1531   38.8674   68.2316 O   0  0  0  0  0  0  0  0  0  0  0  0
  1 11  1  0  0  0  0
  3 13  1  1  0  0  0
  3 17  2  0  0  0  0
  3 20  1  0  0  0  0
  3 26  1  0  0  0  0
  4 14  1  1  0  0  0
  4 18  1  0  0  0  0
  4 21  2  0  0  0  0
  4 20  1  0  0  0  0
  5 19  1  0  0  0  0
  5  7  1  0  0  0  0
  6  7  2  0  0  0  0
  6 12  1  0  0  0  0
  7  8  1  0  0  0  0
  8  9  1  0  0  0  0
  8 10  2  0  0  0  0
 10 11  1  0  0  0  0
 11 12  2  0  0  0  0
 15 23  1  0  0  0  0
 15 16  1  0  0  0  0
 16 19  1  0  0  0  0
 19 22  1  0  0  0  0
 22  2  1  1  0  0  0
 22 23  1  0  0  0  0
 23 24  1  6  0  0  0
 24 25  1  0  0  0  0
 25 26  1  0  0  0  0
M  CHG  2  13  -1  18  -1
M  END
>  <CHROM.1>
-42.25529364,-96.37658296,-26.34008149,72.73762170,55.13912880,65.26086126
-168.86264971,-153.19993465,24.09514081,39.56642786,67.08877618,-2.84689848
0.18131171,3.12599753

>  <Name>
ligand

>  <RI>
0

>  <Rbt.Current_Directory>
/home/itssahil/PROJECTS/Mol_Feturizer/New_Systems/rnas/2HOJ

>  <Rbt.Executable>
rbdock ($Id: //depot/dev/client3/rdock/2013.1/src/exe/rbdock.cxx#4 $)

>  <Rbt.Library>
libRbt.so (2013.1, Build901 2013/11/27)

>  <Rbt.Parameter_File>
/export/apps/rDock/src/rDock_2013.1_src/data/scripts/dock_solv.prm

>  <Rbt.Receptor>
prm/pocket_docking_5.prm

>  <SCORE>
-25.2104

>  <SCORE.INTER>
-21.3671

>  <SCORE.INTER.CONST>
1

>  <SCORE.INTER.POLAR>
-2.74404

>  <SCORE.INTER.ROT>
8

>  <SCORE.INTER.SOLV>
24.9002

>  <SCORE.INTER.VDW>
-22.3313

>  <SCORE.INTER.norm>
-0.821811

>  <SCORE.INTRA>
-3.84327

>  <SCORE.INTRA.DIHEDRAL>
-4.0532

>  <SCORE.INTRA.DIHEDRAL.0>
11.6398

>  <SCORE.INTRA.POLAR>
0

>  <SCORE.INTRA.POLAR.0>
0

>  <SCORE.INTRA.REPUL>
0

>  <SCORE.INTRA.REPUL.0>
0

>  <SCORE.INTRA.SOLV>
0.934483

>  <SCORE.INTRA.SOLV.lig_0>
-81.722

>  <SCORE.INTRA.VDW>
-2.28391

>  <SCORE.INTRA.VDW.0>
1.12598

>  <SCORE.INTRA.norm>
-0.147818

>  <SCORE.RESTR>
0

>  <SCORE.RESTR.CAVITY>
0

>  <SCORE.RESTR.norm>
0

>  <SCORE.SYSTEM>
0

>  <SCORE.SYSTEM.CONST>
0

>  <SCORE.SYSTEM.DIHEDRAL>
0

>  <SCORE.SYSTEM.SOLV>
0

>  <SCORE.SYSTEM.norm>
0

>  <SCORE.heavy>
26

>  <SCORE.norm>
-0.969629

>  <RMSD>
3.017

$$$$
ligand
 OpenBabel11021811433D
libRbt.so/2013.1/901 2013/11/27
 26 27  0  0  0  0  0  0  0  0999 V2000
   20.9033   36.8349   69.6555 C   0  0  0  0  0  0  0  0  0  0  0  0
   23.2077   40.4909   65.1494 C   0  0  0  0  0  0  0  0  0  0  0  0
   27.6505   39.5894   67.8769 P   0  0  1  0  0  0  0  0  0  0  0  0
   29.9990   38.7068   67.2503 P   0  0  1  0  0  0  0  0  0  0  0  0
   21.2367   41.7087   66.7310 C   0  0  0  0  0  0  0  0  0  0  0  0
   21.7284   40.2979   68.7508 C   0  0  0  0  0  0  0  0  0  0  0  0
   21.1478   40.4180   67.5040 C   0  0  0  0  0  0  0  0  0  0  0  0
   20.4757   39.3136   66.9775 C   0  0  0  0  0  0  0  0  0  0  0  0
   19.8760   39.3828   65.7289 N   0  0  0  0  0  0  0  0  0  0  0  0
   20.4239   38.1912   67.6888 N   0  0  0  0  0  0  0  0  0  0  0  0
   20.9881   38.1218   68.8770 C   0  0  0  0  0  0  0  0  0  0  0  0
   21.6305   39.1467   69.4023 N   0  0  0  0  0  0  0  0  0  0  0  0
   27.3139   38.5006   68.8218 O   0  5  0  0  0  0  0  0  0  0  0  0
   30.6681   40.0431   67.6410 O   0  0  0  0  0  0  0  0  0  0  0  0
   24.5822   43.4596   67.3033 S   0  0  0  0  0  0  0  0  0  0  0  0
   22.8825   43.2312   67.5793 C   0  0  0  0  0  0  0  0  0  0  0  0
   28.4953   40.7238   68.6431 O   0  0  0  0  0  0  0  0  0  0  0  0
   29.8853   37.7623   68.5485 O   0  5  0  0  0  0  0  0  0  0  0  0
   22.6081   42.2195   66.7888 N   0  0  0  0  0  0  0  0  0  0  0  0
   28.5269   38.9945   66.6638 O   0  0  0  0  0  0  0  0  0  0  0  0
   30.8524   38.0002   66.1730 O   0  0  0  0  0  0  0  0  0  0  0  0
   23.5384   41.6532   66.0514 C   0  0  2  0  0  0  0  0  0  0  0  0
   24.8024   42.1439   66.1150 C   0  0  2  0  0  0  0  0  0  0  0  0
   26.0453   41.7001   65.3889 C   0  0  0  0  0  0  0  0  0  0  0  0
   26.4520   40.3067   65.8738 C   0  0  0  0  0  0  0  0  0  0  0  0
   26.2947   40.2320   67.2921 O   0  0  0  0  0  0  0  0  0  0  0  0
  1 11  1  0  0  0  0
  3 13  1  1  0  0  0
  3 17  2  0  0  0  0
  3 20  1  0  0  0  0
  3 26  1  0  0  0  0
  4 14  1  1  0  0  0
  4 18  1  0  0  0  0
  4 21  2  0  0  0  0
  4 20  1  0  0  0  0
  5 19  1  0  0  0  0
  5  7  1  0  0  0  0
  6  7  2  0  0  0  0
  6 12  1  0  0  0  0
  7  8  1  0  0  0  0
  8  9  1  0  0  0  0
  8 10  2  0  0  0  0
 10 11  1  0  0  0  0
 11 12  2  0  0  0  0
 15 23  1  0  0  0  0
 15 16  1  0  0  0  0
 16 19  1  0  0  0  0
 19 22  1  0  0  0  0
 22  2  1  6  0  0  0
 22 23  1  0  0  0  0
 23 24  1  1  0  0  0
 24 25  1  0  0  0  0
 25 26  1  0  0  0  0
M  CHG  2  13  -1  18  -1
M  END
>  <CHROM.1>
-73.77364662,-104.11390718,45.19920360,-65.74490331,112.60726334,-41.52435922
-132.16747274,-131.72425570,25.23862467,40.06102758,67.35366881,3.03241790
0.05084447,-0.39271871

>  <Name>
ligand

>  <RI>
0

>  <Rbt.Current_Directory>
/home/itssahil/PROJECTS/Mol_Feturizer/New_Systems/rnas/2HOJ

>  <Rbt.Executable>
rbdock ($Id: //depot/dev/client3/rdock/2013.1/src/exe/rbdock.cxx#4 $)

>  <Rbt.Library>
libRbt.so (2013.1, Build901 2013/11/27)

>  <Rbt.Parameter_File>
/export/apps/rDock/src/rDock_2013.1_src/data/scripts/dock_solv.prm

>  <Rbt.Receptor>
prm/pocket_docking_4.prm

>  <SCORE>
-17.2213

>  <SCORE.INTER>
-18.4726

>  <SCORE.INTER.CONST>
1

>  <SCORE.INTER.POLAR>
-4.03006

>  <SCORE.INTER.ROT>
8

>  <SCORE.INTER.SOLV>
24.5971

>  <SCORE.INTER.VDW>
-16.0139

>  <SCORE.INTER.norm>
-0.710484

>  <SCORE.INTRA>
1.25132

>  <SCORE.INTRA.DIHEDRAL>
3.15043

>  <SCORE.INTRA.DIHEDRAL.0>
11.6398

>  <SCORE.INTRA.POLAR>
0

>  <SCORE.INTRA.POLAR.0>
0

>  <SCORE.INTRA.REPUL>
0

>  <SCORE.INTRA.REPUL.0>
0

>  <SCORE.INTRA.SOLV>
2.39938

>  <SCORE.INTRA.SOLV.lig_0>
-81.722

>  <SCORE.INTRA.VDW>
-1.52358

>  <SCORE.INTRA.VDW.0>
1.12598

>  <SCORE.INTRA.norm>
0.0481279

>  <SCORE.RESTR>
0

>  <SCORE.RESTR.CAVITY>
0

>  <SCORE.RESTR.norm>
0

>  <SCORE.SYSTEM>
0

>  <SCORE.SYSTEM.CONST>
0

>  <SCORE.SYSTEM.DIHEDRAL>
0

>  <SCORE.SYSTEM.SOLV>
0

>  <SCORE.SYSTEM.norm>
0

>  <SCORE.heavy>
26

>  <SCORE.norm>
-0.662356

>  <RMSD>
3.040

$$$$
ligand
 OpenBabel11021811433D
libRbt.so/2013.1/901 2013/11/27
 26 27  0  0  0  0  0  0  0  0999 V2000
   21.1405   44.7155   66.4130 C   0  0  0  0  0  0  0  0  0  0  0  0
   20.9959   38.5916   68.7825 C   0  0  0  0  0  0  0  0  0  0  0  0
   27.1296   38.3095   68.1193 P   0  0  1  0  0  0  0  0  0  0  0  0
   29.6723   38.5945   67.7449 P   0  0  1  0  0  0  0  0  0  0  0  0
   19.9281   39.1547   66.2502 C   0  0  0  0  0  0  0  0  0  0  0  0
   21.4243   41.0801   66.8553 C   0  0  0  0  0  0  0  0  0  0  0  0
   20.2477   40.6269   66.2927 C   0  0  0  0  0  0  0  0  0  0  0  0
   19.3616   41.5670   65.7638 C   0  0  0  0  0  0  0  0  0  0  0  0
   18.1662   41.1631   65.1881 N   0  0  0  0  0  0  0  0  0  0  0  0
   19.6781   42.8571   65.8253 N   0  0  0  0  0  0  0  0  0  0  0  0
   20.8142   43.2455   66.3670 C   0  0  0  0  0  0  0  0  0  0  0  0
   21.6723   42.3829   66.8755 N   0  0  0  0  0  0  0  0  0  0  0  0
   27.1368   38.9854   69.4364 O   0  5  0  0  0  0  0  0  0  0  0  0
   31.0497   37.9143   67.9075 O   0  0  0  0  0  0  0  0  0  0  0  0
   23.1410   37.1295   65.8495 S   0  0  0  0  0  0  0  0  0  0  0  0
   21.7524   37.9748   65.2375 C   0  0  0  0  0  0  0  0  0  0  0  0
   26.9856   39.4076   66.9526 O   0  0  0  0  0  0  0  0  0  0  0  0
   29.5674   39.2539   66.2805 O   0  5  0  0  0  0  0  0  0  0  0  0
   21.1691   38.3824   66.3409 N   0  0  0  0  0  0  0  0  0  0  0  0
   28.5070   37.4977   67.9258 O   0  0  0  0  0  0  0  0  0  0  0  0
   29.5129   39.6954   68.8176 O   0  0  0  0  0  0  0  0  0  0  0  0
   21.6770   38.1153   67.5243 C   0  0  2  0  0  0  0  0  0  0  0  0
   22.8251   37.3940   67.5879 C   0  0  2  0  0  0  0  0  0  0  0  0
   23.6151   36.9451   68.7893 C   0  0  0  0  0  0  0  0  0  0  0  0
   24.8797   37.7972   68.9186 C   0  0  0  0  0  0  0  0  0  0  0  0
   25.8900   37.2841   68.0480 O   0  0  0  0  0  0  0  0  0  0  0  0
  1 11  1  0  0  0  0
  3 13  1  1  0  0  0
  3 17  2  0  0  0  0
  3 20  1  0  0  0  0
  3 26  1  0  0  0  0
  4 14  1  1  0  0  0
  4 18  1  0  0  0  0
  4 21  2  0  0  0  0
  4 20  1  0  0  0  0
  5 19  1  0  0  0  0
  5  7  1  0  0  0  0
  6  7  2  0  0  0  0
  6 12  1  0  0  0  0
  7  8  1  0  0  0  0
  8  9  1  0  0  0  0
  8 10  2  0  0  0  0
 10 11  1  0  0  0  0
 11 12  2  0  0  0  0
 15 23  1  0  0  0  0
 15 16  1  0  0  0  0
 16 19  1  0  0  0  0
 19 22  1  0  0  0  0
 22  2  1  1  0  0  0
 22 23  1  0  0  0  0
 23 24  1  6  0  0  0
 24 25  1  0  0  0  0
 25 26  1  0  0  0  0
M  CHG  2  13  -1  18  -1
M  END
>  <CHROM.1>
-69.86433221,-94.86846865,-22.91697007,165.95139713,74.35017667,-82.26712934
174.26138339,27.72492027,24.34344187,39.24421181,67.21257261,-2.83188175
0.15710714,3.01869959

>  <Name>
ligand

>  <RI>
0

>  <Rbt.Current_Directory>
/home/itssahil/PROJECTS/Mol_Feturizer/New_Systems/rnas/2HOJ

>  <Rbt.Executable>
rbdock ($Id: //depot/dev/client3/rdock/2013.1/src/exe/rbdock.cxx#4 $)

>  <Rbt.Library>
libRbt.so (2013.1, Build901 2013/11/27)

>  <Rbt.Parameter_File>
/export/apps/rDock/src/rDock_2013.1_src/data/scripts/dock_solv.prm

>  <Rbt.Receptor>
prm/pocket_docking_5.prm

>  <SCORE>
-25.2168

>  <SCORE.INTER>
-23.5664

>  <SCORE.INTER.CONST>
1

>  <SCORE.INTER.POLAR>
-2.66144

>  <SCORE.INTER.ROT>
8

>  <SCORE.INTER.SOLV>
24.7918

>  <SCORE.INTER.VDW>
-24.0367

>  <SCORE.INTER.norm>
-0.906398

>  <SCORE.INTRA>
-1.65049

>  <SCORE.INTRA.DIHEDRAL>
-2.93042

>  <SCORE.INTRA.DIHEDRAL.0>
11.6398

>  <SCORE.INTRA.POLAR>
0

>  <SCORE.INTRA.POLAR.0>
0

>  <SCORE.INTRA.REPUL>
0

>  <SCORE.INTRA.REPUL.0>
0

>  <SCORE.INTRA.SOLV>
3.14725

>  <SCORE.INTRA.SOLV.lig_0>
-81.722

>  <SCORE.INTRA.VDW>
-1.75891

>  <SCORE.INTRA.VDW.0>
1.12598

>  <SCORE.INTRA.norm>
-0.0634804

>  <SCORE.RESTR>
0

>  <SCORE.RESTR.CAVITY>
0

>  <SCORE.RESTR.norm>
0

>  <SCORE.SYSTEM>
0

>  <SCORE.SYSTEM.CONST>
0

>  <SCORE.SYSTEM.DIHEDRAL>
0

>  <SCORE.SYSTEM.SOLV>
0

>  <SCORE.SYSTEM.norm>
0

>  <SCORE.heavy>
26

>  <SCORE.norm>
-0.969879

>  <RMSD>
3.042

$$$$
ligand
 OpenBabel11021811433D
libRbt.so/2013.1/901 2013/11/27
 26 27  0  0  0  0  0  0  0  0999 V2000
   19.7840   43.9040   65.9703 C   0  0  0  0  0  0  0  0  0  0  0  0
   22.0581   38.2328   64.9843 C   0  0  0  0  0  0  0  0  0  0  0  0
   28.2889   38.9610   66.9312 P   0  0  1  0  0  0  0  0  0  0  0  0
   27.2862   40.8847   68.3386 P   0  0  1  0  0  0  0  0  0  0  0  0
   20.6004   38.4461   67.3715 C   0  0  0  0  0  0  0  0  0  0  0  0
   21.2203   40.8784   67.4787 C   0  0  0  0  0  0  0  0  0  0  0  0
   20.3831   39.8904   66.9999 C   0  0  0  0  0  0  0  0  0  0  0  0
   19.3304   40.2632   66.1624 C   0  0  0  0  0  0  0  0  0  0  0  0
   18.4611   39.3088   65.6555 N   0  0  0  0  0  0  0  0  0  0  0  0
   19.1695   41.5486   65.8622 N   0  0  0  0  0  0  0  0  0  0  0  0
   19.9950   42.4583   66.3375 C   0  0  0  0  0  0  0  0  0  0  0  0
   20.9987   42.1391   67.1310 N   0  0  0  0  0  0  0  0  0  0  0  0
   29.1519   38.6230   65.7768 O   0  5  0  0  0  0  0  0  0  0  0  0
   26.1980   39.8313   68.6428 O   0  0  0  0  0  0  0  0  0  0  0  0
   24.2620   37.7244   68.1821 S   0  0  0  0  0  0  0  0  0  0  0  0
   22.6069   38.0267   68.6142 C   0  0  0  0  0  0  0  0  0  0  0  0
   29.0379   38.5604   68.2974 O   0  0  0  0  0  0  0  0  0  0  0  0
   28.3935   40.8670   69.5064 O   0  5  0  0  0  0  0  0  0  0  0  0
   22.0371   38.1699   67.4400 N   0  0  0  0  0  0  0  0  0  0  0  0
   27.9856   40.5426   66.9288 O   0  0  0  0  0  0  0  0  0  0  0  0
   26.6388   42.2859   68.2645 O   0  0  0  0  0  0  0  0  0  0  0  0
   22.7274   38.0671   66.3253 C   0  0  2  0  0  0  0  0  0  0  0  0
   24.0587   37.8157   66.4095 C   0  0  2  0  0  0  0  0  0  0  0  0
   25.0795   37.6545   65.3136 C   0  0  0  0  0  0  0  0  0  0  0  0
   26.2834   38.5554   65.5983 C   0  0  0  0  0  0  0  0  0  0  0  0
   26.9019   38.1504   66.8212 O   0  0  0  0  0  0  0  0  0  0  0  0
  1 11  1  0  0  0  0
  3 13  1  6  0  0  0
  3 17  2  0  0  0  0
  3 20  1  0  0  0  0
  3 26  1  0  0  0  0
  4 14  1  1  0  0  0
  4 18  1  0  0  0  0
  4 21  2  0  0  0  0
  4 20  1  0  0  0  0
  5 19  1  0  0  0  0
  5  7  1  0  0  0  0
  6  7  2  0  0  0  0
  6 12  1  0  0  0  0
  7  8  1  0  0  0  0
  8  9  1  0  0  0  0
  8 10  2  0  0  0  0
 10 11  1  0  0  0  0
 11 12  2  0  0  0  0
 15 23  1  0  0  0  0
 15 16  1  0  0  0  0
 16 19  1  0  0  0  0
 19 22  1  0  0  0  0
 22  2  1  1  0  0  0
 22 23  1  0  0  0  0
 23 24  1  6  0  0  0
 24 25  1  0  0  0  0
 25 26  1  0  0  0  0
M  CHG  2  13  -1  18  -1
M  END
>  <CHROM.1>
-169.65574521,105.85310002,-36.89947187,-45.39519592,-50.79449728,62.49709314
170.54373940,-60.33850721,24.34366912,39.63255296,67.10112137,-3.04020995
0.16820384,-2.92406103

>  <Name>
ligand

>  <RI>
0

>  <Rbt.Current_Directory>
/home/itssahil/PROJECTS/Mol_Feturizer/New_Systems/rnas/2HOJ

>  <Rbt.Executable>
rbdock ($Id: //depot/dev/client3/rdock/2013.1/src/exe/rbdock.cxx#4 $)

>  <Rbt.Library>
libRbt.so (2013.1, Build901 2013/11/27)

>  <Rbt.Parameter_File>
/export/apps/rDock/src/rDock_2013.1_src/data/scripts/dock_solv.prm

>  <Rbt.Receptor>
prm/pocket_docking_5.prm

>  <SCORE>
-21.0831

>  <SCORE.INTER>
-14.6868

>  <SCORE.INTER.CONST>
1

>  <SCORE.INTER.POLAR>
-1.29904

>  <SCORE.INTER.ROT>
8

>  <SCORE.INTER.SOLV>
23.1637

>  <SCORE.INTER.VDW>
-22.1156

>  <SCORE.INTER.norm>
-0.564878

>  <SCORE.INTRA>
-6.39622

>  <SCORE.INTRA.DIHEDRAL>
-5.54973

>  <SCORE.INTRA.DIHEDRAL.0>
11.6398

>  <SCORE.INTRA.POLAR>
0

>  <SCORE.INTRA.POLAR.0>
0

>  <SCORE.INTRA.REPUL>
0

>  <SCORE.INTRA.REPUL.0>
0

>  <SCORE.INTRA.SOLV>
0.418963

>  <SCORE.INTRA.SOLV.lig_0>
-81.722

>  <SCORE.INTRA.VDW>
-3.83084

>  <SCORE.INTRA.VDW.0>
1.12598

>  <SCORE.INTRA.norm>
-0.246009

>  <SCORE.RESTR>
0

>  <SCORE.RESTR.CAVITY>
0

>  <SCORE.RESTR.norm>
0

>  <SCORE.SYSTEM>
0

>  <SCORE.SYSTEM.CONST>
0

>  <SCORE.SYSTEM.DIHEDRAL>
0

>  <SCORE.SYSTEM.SOLV>
0

>  <SCORE.SYSTEM.norm>
0

>  <SCORE.heavy>
26

>  <SCORE.norm>
-0.810887

>  <RMSD>
3.051

$$$$
ligand
 OpenBabel11021811433D
libRbt.so/2013.1/901 2013/11/27
 26 27  0  0  0  0  0  0  0  0999 V2000
   18.0442   41.1529   65.2295 C   0  0  0  0  0  0  0  0  0  0  0  0
   24.1358   39.3081   66.0812 C   0  0  0  0  0  0  0  0  0  0  0  0
   28.3651   38.3033   66.7678 P   0  0  1  0  0  0  0  0  0  0  0  0
   27.9252   38.9720   69.2267 P   0  0  1  0  0  0  0  0  0  0  0  0
   22.7404   40.2577   68.3219 C   0  0  0  0  0  0  0  0  0  0  0  0
   21.1065   41.7724   67.1611 C   0  0  0  0  0  0  0  0  0  0  0  0
   21.4971   40.4932   67.5034 C   0  0  0  0  0  0  0  0  0  0  0  0
   20.7112   39.4232   67.0718 C   0  0  0  0  0  0  0  0  0  0  0  0
   21.0601   38.1191   67.3896 N   0  0  0  0  0  0  0  0  0  0  0  0
   19.6190   39.6733   66.3557 N   0  0  0  0  0  0  0  0  0  0  0  0
   19.2857   40.9098   66.0475 C   0  0  0  0  0  0  0  0  0  0  0  0
   20.0063   41.9421   66.4399 N   0  0  0  0  0  0  0  0  0  0  0  0
   29.7530   38.6913   66.4292 O   0  5  0  0  0  0  0  0  0  0  0  0
   26.4416   39.3407   69.0046 O   0  0  0  0  0  0  0  0  0  0  0  0
   25.4737   42.7529   67.3794 S   0  0  0  0  0  0  0  0  0  0  0  0
   24.1493   42.1967   68.3561 C   0  0  0  0  0  0  0  0  0  0  0  0
   27.8618   37.1645   65.7491 O   0  0  0  0  0  0  0  0  0  0  0  0
   28.1523   38.5591   70.7655 O   0  5  0  0  0  0  0  0  0  0  0  0
   23.8410   41.0578   67.7802 N   0  0  0  0  0  0  0  0  0  0  0  0
   28.3196   37.7349   68.2739 O   0  0  0  0  0  0  0  0  0  0  0  0
   28.8141   40.1886   68.8837 O   0  0  0  0  0  0  0  0  0  0  0  0
   24.5011   40.6190   66.7307 C   0  0  2  0  0  0  0  0  0  0  0  0
   25.5147   41.3771   66.2404 C   0  0  2  0  0  0  0  0  0  0  0  0
   26.4235   41.1264   65.0656 C   0  0  0  0  0  0  0  0  0  0  0  0
   27.1580   39.7980   65.2603 C   0  0  0  0  0  0  0  0  0  0  0  0
   27.4039   39.5902   66.6526 O   0  0  0  0  0  0  0  0  0  0  0  0
  1 11  1  0  0  0  0
  3 13  1  6  0  0  0
  3 17  2  0  0  0  0
  3 20  1  0  0  0  0
  3 26  1  0  0  0  0
  4 14  1  6  0  0  0
  4 18  1  0  0  0  0
  4 21  2  0  0  0  0
  4 20  1  0  0  0  0
  5 19  1  0  0  0  0
  5  7  1  0  0  0  0
  6  7  2  0  0  0  0
  6 12  1  0  0  0  0
  7  8  1  0  0  0  0
  8  9  1  0  0  0  0
  8 10  2  0  0  0  0
 10 11  1  0  0  0  0
 11 12  2  0  0  0  0
 15 23  1  0  0  0  0
 15 16  1  0  0  0  0
 16 19  1  0  0  0  0
 19 22  1  0  0  0  0
 22  2  1  6  0  0  0
 22 23  1  0  0  0  0
 23 24  1  1  0  0  0
 24 25  1  0  0  0  0
 25 26  1  0  0  0  0
M  CHG  2  13  -1  18  -1
M  END
>  <CHROM.1>
94.28098433,99.33879754,-46.55861928,71.39109498,122.02683131,-33.22948019
-171.60331684,77.45938237,25.05539870,39.95303887,67.26179673,2.96463783
-0.21623241,0.30682385

>  <Name>
ligand

>  <RI>
0

>  <Rbt.Current_Directory>
/home/itssahil/PROJECTS/Mol_Feturizer/New_Systems/rnas/2HOJ

>  <Rbt.Executable>
rbdock ($Id: //depot/dev/client3/rdock/2013.1/src/exe/rbdock.cxx#4 $)

>  <Rbt.Library>
libRbt.so (2013.1, Build901 2013/11/27)

>  <Rbt.Parameter_File>
/export/apps/rDock/src/rDock_2013.1_src/data/scripts/dock_solv.prm

>  <Rbt.Receptor>
prm/pocket_docking_4.prm

>  <SCORE>
-15.6426

>  <SCORE.INTER>
-12.1147

>  <SCORE.INTER.CONST>
1

>  <SCORE.INTER.POLAR>
-1.28841

>  <SCORE.INTER.ROT>
8

>  <SCORE.INTER.SOLV>
16.083

>  <SCORE.INTER.VDW>
-18.0761

>  <SCORE.INTER.norm>
-0.465951

>  <SCORE.INTRA>
-3.52784

>  <SCORE.INTRA.DIHEDRAL>
-2.2909

>  <SCORE.INTRA.DIHEDRAL.0>
11.6398

>  <SCORE.INTRA.POLAR>
0

>  <SCORE.INTRA.POLAR.0>
0

>  <SCORE.INTRA.REPUL>
0

>  <SCORE.INTRA.REPUL.0>
0

>  <SCORE.INTRA.SOLV>
1.34193

>  <SCORE.INTRA.SOLV.lig_0>
-81.722

>  <SCORE.INTRA.VDW>
-3.05336

>  <SCORE.INTRA.VDW.0>
1.12598

>  <SCORE.INTRA.norm>
-0.135686

>  <SCORE.RESTR>
0

>  <SCORE.RESTR.CAVITY>
0

>  <SCORE.RESTR.norm>
0

>  <SCORE.SYSTEM>
0

>  <SCORE.SYSTEM.CONST>
0

>  <SCORE.SYSTEM.DIHEDRAL>
0

>  <SCORE.SYSTEM.SOLV>
0

>  <SCORE.SYSTEM.norm>
0

>  <SCORE.heavy>
26

>  <SCORE.norm>
-0.601637

>  <RMSD>
3.053

$$$$
ligand
 OpenBabel11021811433D
libRbt.so/2013.1/901 2013/11/27
 26 27  0  0  0  0  0  0  0  0999 V2000
   17.6636   40.5493   65.1588 C   0  0  0  0  0  0  0  0  0  0  0  0
   24.2594   37.9369   67.5084 C   0  0  0  0  0  0  0  0  0  0  0  0
   28.6117   38.6331   68.1853 P   0  0  1  0  0  0  0  0  0  0  0  0
   27.6726   38.9864   70.5686 P   0  0  1  0  0  0  0  0  0  0  0  0
   22.8048   40.3340   67.5960 C   0  0  0  0  0  0  0  0  0  0  0  0
   20.9163   41.5878   66.5128 C   0  0  0  0  0  0  0  0  0  0  0  0
   21.4438   40.3895   66.9511 C   0  0  0  0  0  0  0  0  0  0  0  0
   20.6845   39.2304   66.7814 C   0  0  0  0  0  0  0  0  0  0  0  0
   21.1692   38.0020   67.2051 N   0  0  0  0  0  0  0  0  0  0  0  0
   19.4862   39.3223   66.2124 N   0  0  0  0  0  0  0  0  0  0  0  0
   19.0232   40.4860   65.8043 C   0  0  0  0  0  0  0  0  0  0  0  0
   19.7153   41.5991   65.9502 N   0  0  0  0  0  0  0  0  0  0  0  0
   29.1818   39.9494   68.5515 O   0  5  0  0  0  0  0  0  0  0  0  0
   26.7179   38.4080   71.6364 O   0  0  0  0  0  0  0  0  0  0  0  0
   25.3069   40.4739   64.7141 S   0  0  0  0  0  0  0  0  0  0  0  0
   24.0425   41.1341   65.7055 C   0  0  0  0  0  0  0  0  0  0  0  0
   29.7335   37.4938   68.3622 O   0  0  0  0  0  0  0  0  0  0  0  0
   29.1962   38.6800   70.9865 O   0  5  0  0  0  0  0  0  0  0  0  0
   23.8286   40.1629   66.5628 N   0  0  0  0  0  0  0  0  0  0  0  0
   27.3587   38.3065   69.1428 O   0  0  0  0  0  0  0  0  0  0  0  0
   27.4644   40.5142   70.4663 O   0  0  0  0  0  0  0  0  0  0  0  0
   24.5159   39.0426   66.5157 C   0  0  2  0  0  0  0  0  0  0  0  0
   25.4570   38.9009   65.5479 C   0  0  2  0  0  0  0  0  0  0  0  0
   26.3750   37.7421   65.2595 C   0  0  0  0  0  0  0  0  0  0  0  0
   27.3018   37.5127   66.4555 C   0  0  0  0  0  0  0  0  0  0  0  0
   28.1187   38.6685   66.6527 O   0  0  0  0  0  0  0  0  0  0  0  0
  1 11  1  0  0  0  0
  3 13  1  1  0  0  0
  3 17  2  0  0  0  0
  3 20  1  0  0  0  0
  3 26  1  0  0  0  0
  4 14  1  1  0  0  0
  4 18  1  0  0  0  0
  4 21  2  0  0  0  0
  4 20  1  0  0  0  0
  5 19  1  0  0  0  0
  5  7  1  0  0  0  0
  6  7  2  0  0  0  0
  6 12  1  0  0  0  0
  7  8  1  0  0  0  0
  8  9  1  0  0  0  0
  8 10  2  0  0  0  0
 10 11  1  0  0  0  0
 11 12  2  0  0  0  0
 15 23  1  0  0  0  0
 15 16  1  0  0  0  0
 16 19  1  0  0  0  0
 19 22  1  0  0  0  0
 22  2  1  6  0  0  0
 22 23  1  0  0  0  0
 23 24  1  1  0  0  0
 24 25  1  0  0  0  0
 25 26  1  0  0  0  0
M  CHG  2  13  -1  18  -1
M  END
>  <CHROM.1>
-31.98437228,66.92850714,-88.11153552,-164.91176866,117.40532646,-62.39386253
157.88414227,-166.35359200,25.04695564,39.34398777,67.49677326,2.76436537
0.18440307,-1.54830260

>  <Name>
ligand

>  <RI>
0

>  <Rbt.Current_Directory>
/home/itssahil/PROJECTS/Mol_Feturizer/New_Systems/rnas/2HOJ

>  <Rbt.Executable>
rbdock ($Id: //depot/dev/client3/rdock/2013.1/src/exe/rbdock.cxx#4 $)

>  <Rbt.Library>
libRbt.so (2013.1, Build901 2013/11/27)

>  <Rbt.Parameter_File>
/export/apps/rDock/src/rDock_2013.1_src/data/scripts/dock_solv.prm

>  <Rbt.Receptor>
prm/pocket_docking_3.prm

>  <SCORE>
-21.4825

>  <SCORE.INTER>
-19.5628

>  <SCORE.INTER.CONST>
1

>  <SCORE.INTER.POLAR>
-2.99157

>  <SCORE.INTER.ROT>
8

>  <SCORE.INTER.SOLV>
21.8287

>  <SCORE.INTER.VDW>
-19.2795

>  <SCORE.INTER.norm>
-0.752415

>  <SCORE.INTRA>
-1.91973

>  <SCORE.INTRA.DIHEDRAL>
-3.17359

>  <SCORE.INTRA.DIHEDRAL.0>
11.6398

>  <SCORE.INTRA.POLAR>
0

>  <SCORE.INTRA.POLAR.0>
0

>  <SCORE.INTRA.REPUL>
0

>  <SCORE.INTRA.REPUL.0>
0

>  <SCORE.INTRA.SOLV>
5.41543

>  <SCORE.INTRA.SOLV.lig_0>
-81.722

>  <SCORE.INTRA.VDW>
-3.04065

>  <SCORE.INTRA.VDW.0>
1.12598

>  <SCORE.INTRA.norm>
-0.0738358

>  <SCORE.RESTR>
0

>  <SCORE.RESTR.CAVITY>
0

>  <SCORE.RESTR.norm>
0

>  <SCORE.SYSTEM>
0

>  <SCORE.SYSTEM.CONST>
0

>  <SCORE.SYSTEM.DIHEDRAL>
0

>  <SCORE.SYSTEM.SOLV>
0

>  <SCORE.SYSTEM.norm>
0

>  <SCORE.heavy>
26

>  <SCORE.norm>
-0.82625

>  <RMSD>
3.074

$$$$
ligand
 OpenBabel11021811433D
libRbt.so/2013.1/901 2013/11/27
 26 27  0  0  0  0  0  0  0  0999 V2000
   20.5932   44.6057   66.2958 C   0  0  0  0  0  0  0  0  0  0  0  0
   21.3636   38.7537   68.3181 C   0  0  0  0  0  0  0  0  0  0  0  0
   26.1392   39.7459   67.9207 P   0  0  1  0  0  0  0  0  0  0  0  0
   28.4818   40.0920   66.8818 P   0  0  1  0  0  0  0  0  0  0  0  0
   20.3030   38.9478   65.7283 C   0  0  0  0  0  0  0  0  0  0  0  0
   21.5841   41.0731   66.1201 C   0  0  0  0  0  0  0  0  0  0  0  0
   20.3784   40.4455   65.8784 C   0  0  0  0  0  0  0  0  0  0  0  0
   19.2307   41.2335   65.7761 C   0  0  0  0  0  0  0  0  0  0  0  0
   17.9952   40.6515   65.5345 N   0  0  0  0  0  0  0  0  0  0  0  0
   19.3385   42.5511   65.9196 N   0  0  0  0  0  0  0  0  0  0  0  0
   20.5102   43.1092   66.1448 C   0  0  0  0  0  0  0  0  0  0  0  0
   21.6128   42.3931   66.2470 N   0  0  0  0  0  0  0  0  0  0  0  0
   26.7979   39.5402   69.2304 O   0  5  0  0  0  0  0  0  0  0  0  0
   29.3335   40.9323   65.9046 O   0  0  0  0  0  0  0  0  0  0  0  0
   23.7799   37.3768   65.5599 S   0  0  0  0  0  0  0  0  0  0  0  0
   22.3048   37.9615   64.8531 C   0  0  0  0  0  0  0  0  0  0  0  0
   24.6747   40.3713   68.1482 O   0  0  0  0  0  0  0  0  0  0  0  0
   29.2006   40.0484   68.3211 O   0  5  0  0  0  0  0  0  0  0  0  0
   21.6373   38.3710   65.9069 N   0  0  0  0  0  0  0  0  0  0  0  0
   27.0220   40.7559   67.0294 O   0  0  0  0  0  0  0  0  0  0  0  0
   28.3395   38.6541   66.3339 O   0  0  0  0  0  0  0  0  0  0  0  0
   22.1423   38.2777   67.1177 C   0  0  2  0  0  0  0  0  0  0  0  0
   23.3782   37.7357   67.2634 C   0  0  2  0  0  0  0  0  0  0  0  0
   24.1874   37.5049   68.5127 C   0  0  0  0  0  0  0  0  0  0  0  0
   25.6662   37.3608   68.1460 C   0  0  0  0  0  0  0  0  0  0  0  0
   26.0080   38.3342   67.1572 O   0  0  0  0  0  0  0  0  0  0  0  0
  1 11  1  0  0  0  0
  3 13  1  1  0  0  0
  3 17  2  0  0  0  0
  3 20  1  0  0  0  0
  3 26  1  0  0  0  0
  4 14  1  6  0  0  0
  4 18  1  0  0  0  0
  4 21  2  0  0  0  0
  4 20  1  0  0  0  0
  5 19  1  0  0  0  0
  5  7  1  0  0  0  0
  6  7  2  0  0  0  0
  6 12  1  0  0  0  0
  7  8  1  0  0  0  0
  8  9  1  0  0  0  0
  8 10  2  0  0  0  0
 10 11  1  0  0  0  0
 11 12  2  0  0  0  0
 15 23  1  0  0  0  0
 15 16  1  0  0  0  0
 16 19  1  0  0  0  0
 19 22  1  0  0  0  0
 22  2  1  1  0  0  0
 22 23  1  0  0  0  0
 23 24  1  6  0  0  0
 24 25  1  0  0  0  0
 25 26  1  0  0  0  0
M  CHG  2  13  -1  18  -1
M  END
>  <CHROM.1>
58.19383725,-104.17953127,1.17539765,173.66841623,20.52157392,41.91600239
76.32323844,39.46753211,24.04191831,39.77618841,66.82218702,-2.94685817,0.16290170
3.09882047

>  <Name>
ligand

>  <RI>
0

>  <Rbt.Current_Directory>
/home/itssahil/PROJECTS/Mol_Feturizer/New_Systems/rnas/2HOJ

>  <Rbt.Executable>
rbdock ($Id: //depot/dev/client3/rdock/2013.1/src/exe/rbdock.cxx#4 $)

>  <Rbt.Library>
libRbt.so (2013.1, Build901 2013/11/27)

>  <Rbt.Parameter_File>
/export/apps/rDock/src/rDock_2013.1_src/data/scripts/dock_solv.prm

>  <Rbt.Receptor>
prm/pocket_docking_5.prm

>  <SCORE>
-14.3121

>  <SCORE.INTER>
-13.6541

>  <SCORE.INTER.CONST>
1

>  <SCORE.INTER.POLAR>
-1.29904

>  <SCORE.INTER.ROT>
8

>  <SCORE.INTER.SOLV>
22.1872

>  <SCORE.INTER.VDW>
-21.1016

>  <SCORE.INTER.norm>
-0.525156

>  <SCORE.INTRA>
-0.658033

>  <SCORE.INTRA.DIHEDRAL>
-3.83085

>  <SCORE.INTRA.DIHEDRAL.0>
11.6398

>  <SCORE.INTRA.POLAR>
0

>  <SCORE.INTRA.POLAR.0>
0

>  <SCORE.INTRA.REPUL>
0

>  <SCORE.INTRA.REPUL.0>
0

>  <SCORE.INTRA.SOLV>
5.12991

>  <SCORE.INTRA.SOLV.lig_0>
-81.722

>  <SCORE.INTRA.VDW>
-1.30757

>  <SCORE.INTRA.VDW.0>
1.12598

>  <SCORE.INTRA.norm>
-0.025309

>  <SCORE.RESTR>
0

>  <SCORE.RESTR.CAVITY>
0

>  <SCORE.RESTR.norm>
0

>  <SCORE.SYSTEM>
0

>  <SCORE.SYSTEM.CONST>
0

>  <SCORE.SYSTEM.DIHEDRAL>
0

>  <SCORE.SYSTEM.SOLV>
0

>  <SCORE.SYSTEM.norm>
0

>  <SCORE.heavy>
26

>  <SCORE.norm>
-0.550465

>  <RMSD>
3.087

$$$$
ligand
 OpenBabel11021811433D
libRbt.so/2013.1/901 2013/11/27
 26 27  0  0  0  0  0  0  0  0999 V2000
   19.5375   43.9854   66.0358 C   0  0  0  0  0  0  0  0  0  0  0  0
   22.0702   37.8099   69.2353 C   0  0  0  0  0  0  0  0  0  0  0  0
   28.7246   38.4201   68.2320 P   0  0  1  0  0  0  0  0  0  0  0  0
   28.8926   37.4971   65.8223 P   0  0  1  0  0  0  0  0  0  0  0  0
   20.7789   38.4870   66.8388 C   0  0  0  0  0  0  0  0  0  0  0  0
   21.2745   40.9343   67.1156 C   0  0  0  0  0  0  0  0  0  0  0  0
   20.4490   39.9420   66.6255 C   0  0  0  0  0  0  0  0  0  0  0  0
   19.3012   40.3206   65.9271 C   0  0  0  0  0  0  0  0  0  0  0  0
   18.4393   39.3622   65.4152 N   0  0  0  0  0  0  0  0  0  0  0  0
   19.0430   41.6149   65.7646 N   0  0  0  0  0  0  0  0  0  0  0  0
   19.8607   42.5290   66.2450 C   0  0  0  0  0  0  0  0  0  0  0  0
   20.9526   42.2044   66.9094 N   0  0  0  0  0  0  0  0  0  0  0  0
   29.5610   37.2000   68.2891 O   0  5  0  0  0  0  0  0  0  0  0  0
   28.3646   36.1322   66.3170 O   0  0  0  0  0  0  0  0  0  0  0  0
   24.5319   38.1647   66.2094 S   0  0  0  0  0  0  0  0  0  0  0  0
   22.8958   38.4740   65.7144 C   0  0  0  0  0  0  0  0  0  0  0  0
   29.5789   39.6818   68.7478 O   0  0  0  0  0  0  0  0  0  0  0  0
   28.4822   37.7058   64.2802 O   0  5  0  0  0  0  0  0  0  0  0  0
   22.2327   38.3099   66.8356 N   0  0  0  0  0  0  0  0  0  0  0  0
   28.2523   38.6757   66.7137 O   0  0  0  0  0  0  0  0  0  0  0  0
   30.4319   37.5312   65.9543 O   0  0  0  0  0  0  0  0  0  0  0  0
   22.8459   37.9937   67.9553 C   0  0  2  0  0  0  0  0  0  0  0  0
   24.1930   37.8290   67.9311 C   0  0  2  0  0  0  0  0  0  0  0  0
   25.1392   37.4678   69.0461 C   0  0  0  0  0  0  0  0  0  0  0  0
   26.5572   37.3246   68.4885 C   0  0  0  0  0  0  0  0  0  0  0  0
   27.4295   38.2285   69.1697 O   0  0  0  0  0  0  0  0  0  0  0  0
  1 11  1  0  0  0  0
  3 13  1  1  0  0  0
  3 17  2  0  0  0  0
  3 20  1  0  0  0  0
  3 26  1  0  0  0  0
  4 14  1  1  0  0  0
  4 18  1  0  0  0  0
  4 21  2  0  0  0  0
  4 20  1  0  0  0  0
  5 19  1  0  0  0  0
  5  7  1  0  0  0  0
  6  7  2  0  0  0  0
  6 12  1  0  0  0  0
  7  8  1  0  0  0  0
  8  9  1  0  0  0  0
  8 10  2  0  0  0  0
 10 11  1  0  0  0  0
 11 12  2  0  0  0  0
 15 23  1  0  0  0  0
 15 16  1  0  0  0  0
 16 19  1  0  0  0  0
 19 22  1  0  0  0  0
 22  2  1  6  0  0  0
 22 23  1  0  0  0  0
 23 24  1  1  0  0  0
 24 25  1  0  0  0  0
 25 26  1  0  0  0  0
M  CHG  2  13  -1  18  -1
M  END
>  <CHROM.1>
-0.57519570,-69.07101356,-33.23572870,60.94469902,-3.48769230,122.17904172
-160.31730078,-73.63108309,24.83678032,38.82142689,66.97463754,-2.83954221
-0.15770164,2.43971023

>  <Name>
ligand

>  <RI>
0

>  <Rbt.Current_Directory>
/home/itssahil/PROJECTS/Mol_Feturizer/New_Systems/rnas/2HOJ

>  <Rbt.Executable>
rbdock ($Id: //depot/dev/client3/rdock/2013.1/src/exe/rbdock.cxx#4 $)

>  <Rbt.Library>
libRbt.so (2013.1, Build901 2013/11/27)

>  <Rbt.Parameter_File>
/export/apps/rDock/src/rDock_2013.1_src/data/scripts/dock_solv.prm

>  <Rbt.Receptor>
prm/pocket_docking_4.prm

>  <SCORE>
-17.9569

>  <SCORE.INTER>
-18.8587

>  <SCORE.INTER.CONST>
1

>  <SCORE.INTER.POLAR>
-2.97812

>  <SCORE.INTER.ROT>
8

>  <SCORE.INTER.SOLV>
26.549

>  <SCORE.INTER.VDW>
-20.4284

>  <SCORE.INTER.norm>
-0.725334

>  <SCORE.INTRA>
0.901828

>  <SCORE.INTRA.DIHEDRAL>
2.86763

>  <SCORE.INTRA.DIHEDRAL.0>
11.6398

>  <SCORE.INTRA.POLAR>
0

>  <SCORE.INTRA.POLAR.0>
0

>  <SCORE.INTRA.REPUL>
0

>  <SCORE.INTRA.REPUL.0>
0

>  <SCORE.INTRA.SOLV>
0.69688

>  <SCORE.INTRA.SOLV.lig_0>
-81.722

>  <SCORE.INTRA.VDW>
-0.880425

>  <SCORE.INTRA.VDW.0>
1.12598

>  <SCORE.INTRA.norm>
0.0346857

>  <SCORE.RESTR>
0

>  <SCORE.RESTR.CAVITY>
0

>  <SCORE.RESTR.norm>
0

>  <SCORE.SYSTEM>
0

>  <SCORE.SYSTEM.CONST>
0

>  <SCORE.SYSTEM.DIHEDRAL>
0

>  <SCORE.SYSTEM.SOLV>
0

>  <SCORE.SYSTEM.norm>
0

>  <SCORE.heavy>
26

>  <SCORE.norm>
-0.690648

>  <RMSD>
3.145

$$$$
ligand
 OpenBabel11021811433D
libRbt.so/2013.1/901 2013/11/27
 26 27  0  0  0  0  0  0  0  0999 V2000
   20.9620   44.8010   66.4450 C   0  0  0  0  0  0  0  0  0  0  0  0
   22.5278   38.8923   65.5638 C   0  0  0  0  0  0  0  0  0  0  0  0
   27.3070   38.0212   68.8015 P   0  0  1  0  0  0  0  0  0  0  0  0
   27.4792   40.5289   68.1942 P   0  0  1  0  0  0  0  0  0  0  0  0
   19.8794   39.2111   66.4321 C   0  0  0  0  0  0  0  0  0  0  0  0
   21.2288   41.2056   67.1483 C   0  0  0  0  0  0  0  0  0  0  0  0
   20.1648   40.6909   66.4347 C   0  0  0  0  0  0  0  0  0  0  0  0
   19.3601   41.5761   65.7152 C   0  0  0  0  0  0  0  0  0  0  0  0
   18.2788   41.1094   64.9828 N   0  0  0  0  0  0  0  0  0  0  0  0
   19.6422   42.8752   65.7472 N   0  0  0  0  0  0  0  0  0  0  0  0
   20.6706   43.3230   66.4378 C   0  0  0  0  0  0  0  0  0  0  0  0
   21.4498   42.5133   67.1279 N   0  0  0  0  0  0  0  0  0  0  0  0
   28.6963   37.7132   68.3936 O   0  5  0  0  0  0  0  0  0  0  0  0
   29.0014   40.2674   68.2204 O   0  0  0  0  0  0  0  0  0  0  0  0
   21.8804   37.3715   69.1148 S   0  0  0  0  0  0  0  0  0  0  0  0
   20.4301   38.0792   68.4721 C   0  0  0  0  0  0  0  0  0  0  0  0
   27.2972   38.5445   70.3227 O   0  0  0  0  0  0  0  0  0  0  0  0
   27.1438   41.6428   67.0820 O   0  5  0  0  0  0  0  0  0  0  0  0
   20.8351   38.5276   67.3064 N   0  0  0  0  0  0  0  0  0  0  0  0
   26.7056   39.1622   67.8372 O   0  0  0  0  0  0  0  0  0  0  0  0
   27.0201   41.0321   69.5813 O   0  0  0  0  0  0  0  0  0  0  0  0
   22.0783   38.3728   66.9061 C   0  0  2  0  0  0  0  0  0  0  0  0
   22.9503   37.7411   67.7326 C   0  0  2  0  0  0  0  0  0  0  0  0
   24.4118   37.4337   67.5372 C   0  0  0  0  0  0  0  0  0  0  0  0
   25.0491   37.0949   68.8867 C   0  0  0  0  0  0  0  0  0  0  0  0
   26.4052   36.6923   68.6846 O   0  0  0  0  0  0  0  0  0  0  0  0
  1 11  1  0  0  0  0
  3 13  1  6  0  0  0
  3 17  2  0  0  0  0
  3 20  1  0  0  0  0
  3 26  1  0  0  0  0
  4 14  1  1  0  0  0
  4 18  1  0  0  0  0
  4 21  2  0  0  0  0
  4 20  1  0  0  0  0
  5 19  1  0  0  0  0
  5  7  1  0  0  0  0
  6  7  2  0  0  0  0
  6 12  1  0  0  0  0
  7  8  1  0  0  0  0
  8  9  1  0  0  0  0
  8 10  2  0  0  0  0
 10 11  1  0  0  0  0
 11 12  2  0  0  0  0
 15 23  1  0  0  0  0
 15 16  1  0  0  0  0
 16 19  1  0  0  0  0
 19 22  1  0  0  0  0
 22  2  1  1  0  0  0
 22 23  1  0  0  0  0
 23 24  1  6  0  0  0
 24 25  1  0  0  0  0
 25 26  1  0  0  0  0
M  CHG  2  13  -1  18  -1
M  END
>  <CHROM.1>
-69.95631121,106.18237917,2.39575220,48.79739834,-17.07102789,175.05077882
91.17257866,-171.19263235,23.88181086,39.62147587,67.70069072,-2.77657848
0.21096810,2.86936639

>  <Name>
ligand

>  <RI>
0

>  <Rbt.Current_Directory>
/home/itssahil/PROJECTS/Mol_Feturizer/New_Systems/rnas/2HOJ

>  <Rbt.Executable>
rbdock ($Id: //depot/dev/client3/rdock/2013.1/src/exe/rbdock.cxx#4 $)

>  <Rbt.Library>
libRbt.so (2013.1, Build901 2013/11/27)

>  <Rbt.Parameter_File>
/export/apps/rDock/src/rDock_2013.1_src/data/scripts/dock_solv.prm

>  <Rbt.Receptor>
prm/pocket_docking_5.prm

>  <SCORE>
-14.8898

>  <SCORE.INTER>
-12.8146

>  <SCORE.INTER.CONST>
1

>  <SCORE.INTER.POLAR>
-1.03641

>  <SCORE.INTER.ROT>
8

>  <SCORE.INTER.SOLV>
25.0054

>  <SCORE.INTER.VDW>
-22.3568

>  <SCORE.INTER.norm>
-0.492869

>  <SCORE.INTRA>
-2.07525

>  <SCORE.INTRA.DIHEDRAL>
-2.57897

>  <SCORE.INTRA.DIHEDRAL.0>
11.6398

>  <SCORE.INTRA.POLAR>
0

>  <SCORE.INTRA.POLAR.0>
0

>  <SCORE.INTRA.REPUL>
0

>  <SCORE.INTRA.REPUL.0>
0

>  <SCORE.INTRA.SOLV>
1.394

>  <SCORE.INTRA.SOLV.lig_0>
-81.722

>  <SCORE.INTRA.VDW>
-1.48277

>  <SCORE.INTRA.VDW.0>
1.12598

>  <SCORE.INTRA.norm>
-0.0798174

>  <SCORE.RESTR>
0

>  <SCORE.RESTR.CAVITY>
0

>  <SCORE.RESTR.norm>
0

>  <SCORE.SYSTEM>
0

>  <SCORE.SYSTEM.CONST>
0

>  <SCORE.SYSTEM.DIHEDRAL>
0

>  <SCORE.SYSTEM.SOLV>
0

>  <SCORE.SYSTEM.norm>
0

>  <SCORE.heavy>
26

>  <SCORE.norm>
-0.572686

>  <RMSD>
3.160

$$$$
ligand
 OpenBabel11021811433D
libRbt.so/2013.1/901 2013/11/27
 26 27  0  0  0  0  0  0  0  0999 V2000
   19.4804   43.8880   66.2025 C   0  0  0  0  0  0  0  0  0  0  0  0
   24.1148   37.5805   66.3609 C   0  0  0  0  0  0  0  0  0  0  0  0
   27.2091   39.1248   69.4242 P   0  0  1  0  0  0  0  0  0  0  0  0
   27.7853   40.7047   67.4599 P   0  0  1  0  0  0  0  0  0  0  0  0
   21.5757   38.6121   65.7627 C   0  0  0  0  0  0  0  0  0  0  0  0
   21.8599   41.0973   65.9966 C   0  0  0  0  0  0  0  0  0  0  0  0
   21.0197   40.0080   65.8791 C   0  0  0  0  0  0  0  0  0  0  0  0
   19.6420   40.2325   65.8705 C   0  0  0  0  0  0  0  0  0  0  0  0
   18.7557   39.1720   65.7552 N   0  0  0  0  0  0  0  0  0  0  0  0
   19.1912   41.4787   65.9805 N   0  0  0  0  0  0  0  0  0  0  0  0
   20.0289   42.4898   66.0858 C   0  0  0  0  0  0  0  0  0  0  0  0
   21.3354   42.3114   66.0973 N   0  0  0  0  0  0  0  0  0  0  0  0
   28.5013   38.5331   69.0097 O   0  5  0  0  0  0  0  0  0  0  0  0
   27.2256   39.5391   66.6147 O   0  0  0  0  0  0  0  0  0  0  0  0
   21.6176   37.3600   69.3704 S   0  0  0  0  0  0  0  0  0  0  0  0
   20.8549   38.0811   67.9863 C   0  0  0  0  0  0  0  0  0  0  0  0
   27.0812   39.0672   71.0267 O   0  0  0  0  0  0  0  0  0  0  0  0
   27.4170   42.1046   66.7564 O   0  5  0  0  0  0  0  0  0  0  0  0
   21.8245   38.0719   67.1010 N   0  0  0  0  0  0  0  0  0  0  0  0
   27.1396   40.6574   68.9345 O   0  0  0  0  0  0  0  0  0  0  0  0
   29.3211   40.5709   67.5668 O   0  0  0  0  0  0  0  0  0  0  0  0
   23.0118   37.5851   67.3891 C   0  0  2  0  0  0  0  0  0  0  0  0
   23.2244   37.0935   68.6364 C   0  0  2  0  0  0  0  0  0  0  0  0
   24.4676   36.4882   69.2339 C   0  0  0  0  0  0  0  0  0  0  0  0
   25.3463   37.5959   69.8195 C   0  0  0  0  0  0  0  0  0  0  0  0
   25.9999   38.2954   68.7585 O   0  0  0  0  0  0  0  0  0  0  0  0
  1 11  1  0  0  0  0
  3 13  1  6  0  0  0
  3 17  2  0  0  0  0
  3 20  1  0  0  0  0
  3 26  1  0  0  0  0
  4 14  1  6  0  0  0
  4 18  1  0  0  0  0
  4 21  2  0  0  0  0
  4 20  1  0  0  0  0
  5 19  1  0  0  0  0
  5  7  1  0  0  0  0
  6  7  2  0  0  0  0
  6 12  1  0  0  0  0
  7  8  1  0  0  0  0
  8  9  1  0  0  0  0
  8 10  2  0  0  0  0
 10 11  1  0  0  0  0
 11 12  2  0  0  0  0
 15 23  1  0  0  0  0
 15 16  1  0  0  0  0
 16 19  1  0  0  0  0
 19 22  1  0  0  0  0
 22  2  1  1  0  0  0
 22 23  1  0  0  0  0
 23 24  1  6  0  0  0
 24 25  1  0  0  0  0
 25 26  1  0  0  0  0
M  CHG  2  13  -1  18  -1
M  END
>  <CHROM.1>
40.07141281,53.11050865,85.65719437,45.50327147,-92.94503467,-75.32006123
-163.58480289,110.43541816,24.07491415,39.48235449,67.70553325,-2.90631909
0.20168597,2.63541764

>  <Name>
ligand

>  <RI>
0

>  <Rbt.Current_Directory>
/home/itssahil/PROJECTS/Mol_Feturizer/New_Systems/rnas/2HOJ

>  <Rbt.Executable>
rbdock ($Id: //depot/dev/client3/rdock/2013.1/src/exe/rbdock.cxx#4 $)

>  <Rbt.Library>
libRbt.so (2013.1, Build901 2013/11/27)

>  <Rbt.Parameter_File>
/export/apps/rDock/src/rDock_2013.1_src/data/scripts/dock_solv.prm

>  <Rbt.Receptor>
prm/pocket_docking_6.prm

>  <SCORE>
-15.2538

>  <SCORE.INTER>
-13.024

>  <SCORE.INTER.CONST>
1

>  <SCORE.INTER.POLAR>
-1.27388

>  <SCORE.INTER.ROT>
8

>  <SCORE.INTER.SOLV>
23.6063

>  <SCORE.INTER.VDW>
-21.2385

>  <SCORE.INTER.norm>
-0.500923

>  <SCORE.INTRA>
-2.22984

>  <SCORE.INTRA.DIHEDRAL>
-1.55113

>  <SCORE.INTRA.DIHEDRAL.0>
11.6398

>  <SCORE.INTRA.POLAR>
0

>  <SCORE.INTRA.POLAR.0>
0

>  <SCORE.INTRA.REPUL>
0

>  <SCORE.INTRA.REPUL.0>
0

>  <SCORE.INTRA.SOLV>
0.699667

>  <SCORE.INTRA.SOLV.lig_0>
-81.722

>  <SCORE.INTRA.VDW>
-1.80411

>  <SCORE.INTRA.VDW.0>
1.12598

>  <SCORE.INTRA.norm>
-0.0857631

>  <SCORE.RESTR>
0

>  <SCORE.RESTR.CAVITY>
0

>  <SCORE.RESTR.norm>
0

>  <SCORE.SYSTEM>
0

>  <SCORE.SYSTEM.CONST>
0

>  <SCORE.SYSTEM.DIHEDRAL>
0

>  <SCORE.SYSTEM.SOLV>
0

>  <SCORE.SYSTEM.norm>
0

>  <SCORE.heavy>
26

>  <SCORE.norm>
-0.586686

>  <RMSD>
3.160

$$$$
ligand
 OpenBabel11021811433D
libRbt.so/2013.1/901 2013/11/27
 26 27  0  0  0  0  0  0  0  0999 V2000
   20.6815   44.5704   66.4243 C   0  0  0  0  0  0  0  0  0  0  0  0
   20.7675   38.5242   68.2521 C   0  0  0  0  0  0  0  0  0  0  0  0
   26.7899   38.7414   67.7848 P   0  0  1  0  0  0  0  0  0  0  0  0
   28.6741   40.0950   66.6426 P   0  0  1  0  0  0  0  0  0  0  0  0
   19.9862   38.9802   65.5967 C   0  0  0  0  0  0  0  0  0  0  0  0
   21.3971   40.9761   66.1775 C   0  0  0  0  0  0  0  0  0  0  0  0
   20.1687   40.4601   65.8155 C   0  0  0  0  0  0  0  0  0  0  0  0
   19.1001   41.3441   65.6569 C   0  0  0  0  0  0  0  0  0  0  0  0
   17.8458   40.8759   65.2948 N   0  0  0  0  0  0  0  0  0  0  0  0
   19.3010   42.6421   65.8641 N   0  0  0  0  0  0  0  0  0  0  0  0
   20.4914   43.0923   66.2040 C   0  0  0  0  0  0  0  0  0  0  0  0
   21.5210   42.2837   66.3620 N   0  0  0  0  0  0  0  0  0  0  0  0
   27.2664   37.5659   67.0212 O   0  5  0  0  0  0  0  0  0  0  0  0
   29.0466   38.8516   65.8050 O   0  0  0  0  0  0  0  0  0  0  0  0
   23.3397   37.1533   65.6355 S   0  0  0  0  0  0  0  0  0  0  0  0
   21.9883   37.9008   64.8402 C   0  0  0  0  0  0  0  0  0  0  0  0
   27.5527   38.8083   69.1995 O   0  0  0  0  0  0  0  0  0  0  0  0
   29.0542   41.4280   65.8249 O   0  5  0  0  0  0  0  0  0  0  0  0
   21.2508   38.2882   65.8550 N   0  0  0  0  0  0  0  0  0  0  0  0
   27.0927   40.0832   66.9473 O   0  0  0  0  0  0  0  0  0  0  0  0
   29.4546   40.0691   67.9761 O   0  0  0  0  0  0  0  0  0  0  0  0
   21.6250   38.0718   67.0972 C   0  0  2  0  0  0  0  0  0  0  0  0
   22.7978   37.4246   67.3163 C   0  0  2  0  0  0  0  0  0  0  0  0
   23.4601   37.0445   68.6146 C   0  0  0  0  0  0  0  0  0  0  0  0
   24.9676   37.2871   68.5111 C   0  0  0  0  0  0  0  0  0  0  0  0
   25.2043   38.6134   68.0347 O   0  0  0  0  0  0  0  0  0  0  0  0
  1 11  1  0  0  0  0
  3 13  1  6  0  0  0
  3 17  2  0  0  0  0
  3 20  1  0  0  0  0
  3 26  1  0  0  0  0
  4 14  1  6  0  0  0
  4 18  1  0  0  0  0
  4 21  2  0  0  0  0
  4 20  1  0  0  0  0
  5 19  1  0  0  0  0
  5  7  1  0  0  0  0
  6  7  2  0  0  0  0
  6 12  1  0  0  0  0
  7  8  1  0  0  0  0
  8  9  1  0  0  0  0
  8 10  2  0  0  0  0
 10 11  1  0  0  0  0
 11 12  2  0  0  0  0
 15 23  1  0  0  0  0
 15 16  1  0  0  0  0
 16 19  1  0  0  0  0
 19 22  1  0  0  0  0
 22  2  1  6  0  0  0
 22 23  1  0  0  0  0
 23 24  1  1  0  0  0
 24 25  1  0  0  0  0
 25 26  1  0  0  0  0
M  CHG  2  13  -1  18  -1
M  END
>  <CHROM.1>
-56.05638615,-102.00156944,1.18251254,60.84025688,40.34157663,50.91804964
-173.46086618,47.64859997,24.04138893,39.52333406,66.75426785,-2.93046276
0.11162551,2.97085724

>  <Name>
ligand

>  <RI>
0

>  <Rbt.Current_Directory>
/home/itssahil/PROJECTS/Mol_Feturizer/New_Systems/rnas/2HOJ

>  <Rbt.Executable>
rbdock ($Id: //depot/dev/client3/rdock/2013.1/src/exe/rbdock.cxx#4 $)

>  <Rbt.Library>
libRbt.so (2013.1, Build901 2013/11/27)

>  <Rbt.Parameter_File>
/export/apps/rDock/src/rDock_2013.1_src/data/scripts/dock_solv.prm

>  <Rbt.Receptor>
prm/pocket_docking_4.prm

>  <SCORE>
-19.834

>  <SCORE.INTER>
-15.1264

>  <SCORE.INTER.CONST>
1

>  <SCORE.INTER.POLAR>
-1.27737

>  <SCORE.INTER.ROT>
8

>  <SCORE.INTER.SOLV>
23.8235

>  <SCORE.INTER.VDW>
-22.7008

>  <SCORE.INTER.norm>
-0.581784

>  <SCORE.INTRA>
-4.70758

>  <SCORE.INTRA.DIHEDRAL>
-5.83328

>  <SCORE.INTRA.DIHEDRAL.0>
11.6398

>  <SCORE.INTRA.POLAR>
0

>  <SCORE.INTRA.POLAR.0>
0

>  <SCORE.INTRA.REPUL>
0

>  <SCORE.INTRA.REPUL.0>
0

>  <SCORE.INTRA.SOLV>
1.17016

>  <SCORE.INTRA.SOLV.lig_0>
-81.722

>  <SCORE.INTRA.VDW>
-2.37603

>  <SCORE.INTRA.VDW.0>
1.12598

>  <SCORE.INTRA.norm>
-0.181061

>  <SCORE.RESTR>
0

>  <SCORE.RESTR.CAVITY>
0

>  <SCORE.RESTR.norm>
0

>  <SCORE.SYSTEM>
0

>  <SCORE.SYSTEM.CONST>
0

>  <SCORE.SYSTEM.DIHEDRAL>
0

>  <SCORE.SYSTEM.SOLV>
0

>  <SCORE.SYSTEM.norm>
0

>  <SCORE.heavy>
26

>  <SCORE.norm>
-0.762845

>  <RMSD>
3.178

$$$$
ligand
 OpenBabel11021811433D
libRbt.so/2013.1/901 2013/11/27
 26 27  0  0  0  0  0  0  0  0999 V2000
   16.4742   38.9444   64.7072 C   0  0  0  0  0  0  0  0  0  0  0  0
   23.4313   42.9573   65.7769 C   0  0  0  0  0  0  0  0  0  0  0  0
   26.5549   38.4446   65.8001 P   0  0  1  0  0  0  0  0  0  0  0  0
   28.0380   36.8912   64.3600 P   0  0  1  0  0  0  0  0  0  0  0  0
   20.6793   42.5206   66.1021 C   0  0  0  0  0  0  0  0  0  0  0  0
   18.2678   42.0217   65.6045 C   0  0  0  0  0  0  0  0  0  0  0  0
   19.5672   41.5729   65.7329 C   0  0  0  0  0  0  0  0  0  0  0  0
   19.8249   40.2189   65.5117 C   0  0  0  0  0  0  0  0  0  0  0  0
   21.1129   39.7182   65.6286 N   0  0  0  0  0  0  0  0  0  0  0  0
   18.8153   39.4143   65.1926 N   0  0  0  0  0  0  0  0  0  0  0  0
   17.5909   39.8858   65.0760 C   0  0  0  0  0  0  0  0  0  0  0  0
   17.3144   41.1592   65.2786 N   0  0  0  0  0  0  0  0  0  0  0  0
   25.3682   37.5822   65.6012 O   0  5  0  0  0  0  0  0  0  0  0  0
   26.8510   35.9072   64.2657 O   0  0  0  0  0  0  0  0  0  0  0  0
   22.5998   40.5142   68.7234 S   0  0  0  0  0  0  0  0  0  0  0  0
   21.1465   41.0553   67.9408 C   0  0  0  0  0  0  0  0  0  0  0  0
   27.3966   37.9170   67.0654 O   0  0  0  0  0  0  0  0  0  0  0  0
   28.9502   36.7618   63.0404 O   0  5  0  0  0  0  0  0  0  0  0  0
   21.6158   41.8473   67.0046 N   0  0  0  0  0  0  0  0  0  0  0  0
   27.4793   38.3967   64.4823 O   0  0  0  0  0  0  0  0  0  0  0  0
   28.8865   36.5551   65.6070 O   0  0  0  0  0  0  0  0  0  0  0  0
   22.9077   42.0457   66.8580 C   0  0  2  0  0  0  0  0  0  0  0  0
   23.7595   41.4167   67.7073 C   0  0  2  0  0  0  0  0  0  0  0  0
   25.2636   41.4633   67.7724 C   0  0  0  0  0  0  0  0  0  0  0  0
   25.8329   40.0758   67.4679 C   0  0  0  0  0  0  0  0  0  0  0  0
   26.0796   39.9602   66.0652 O   0  0  0  0  0  0  0  0  0  0  0  0
  1 11  1  0  0  0  0
  3 13  1  6  0  0  0
  3 17  2  0  0  0  0
  3 20  1  0  0  0  0
  3 26  1  0  0  0  0
  4 14  1  6  0  0  0
  4 18  1  0  0  0  0
  4 21  2  0  0  0  0
  4 20  1  0  0  0  0
  5 19  1  0  0  0  0
  5  7  1  0  0  0  0
  6  7  2  0  0  0  0
  6 12  1  0  0  0  0
  7  8  1  0  0  0  0
  8  9  1  0  0  0  0
  8 10  2  0  0  0  0
 10 11  1  0  0  0  0
 11 12  2  0  0  0  0
 15 23  1  0  0  0  0
 15 16  1  0  0  0  0
 16 19  1  0  0  0  0
 19 22  1  0  0  0  0
 22  2  1  1  0  0  0
 22 23  1  0  0  0  0
 23 24  1  6  0  0  0
 24 25  1  0  0  0  0
 25 26  1  0  0  0  0
M  CHG  2  13  -1  18  -1
M  END
>  <CHROM.1>
-65.59855537,-39.88493520,141.96130808,58.71824915,64.02339188,91.03253344
-175.28285119,86.46025746,23.67257602,39.55887247,65.94527490,2.78863888
-0.18380620,0.71394443

>  <Name>
ligand

>  <RI>
0

>  <Rbt.Current_Directory>
/home/itssahil/PROJECTS/Mol_Feturizer/New_Systems/rnas/2HOJ

>  <Rbt.Executable>
rbdock ($Id: //depot/dev/client3/rdock/2013.1/src/exe/rbdock.cxx#4 $)

>  <Rbt.Library>
libRbt.so (2013.1, Build901 2013/11/27)

>  <Rbt.Parameter_File>
/export/apps/rDock/src/rDock_2013.1_src/data/scripts/dock_solv.prm

>  <Rbt.Receptor>
prm/pocket_docking_6.prm

>  <SCORE>
-22.6403

>  <SCORE.INTER>
-22.6272

>  <SCORE.INTER.CONST>
1

>  <SCORE.INTER.POLAR>
0

>  <SCORE.INTER.ROT>
8

>  <SCORE.INTER.SOLV>
19.0646

>  <SCORE.INTER.VDW>
-30.373

>  <SCORE.INTER.norm>
-0.870276

>  <SCORE.INTRA>
-0.0131113

>  <SCORE.INTRA.DIHEDRAL>
-2.43717

>  <SCORE.INTRA.DIHEDRAL.0>
11.6398

>  <SCORE.INTRA.POLAR>
0

>  <SCORE.INTRA.POLAR.0>
0

>  <SCORE.INTRA.REPUL>
0

>  <SCORE.INTRA.REPUL.0>
0

>  <SCORE.INTRA.SOLV>
5.29677

>  <SCORE.INTRA.SOLV.lig_0>
-81.722

>  <SCORE.INTRA.VDW>
-1.44291

>  <SCORE.INTRA.VDW.0>
1.12598

>  <SCORE.INTRA.norm>
-0.000504282

>  <SCORE.RESTR>
0

>  <SCORE.RESTR.CAVITY>
0

>  <SCORE.RESTR.norm>
0

>  <SCORE.SYSTEM>
0

>  <SCORE.SYSTEM.CONST>
0

>  <SCORE.SYSTEM.DIHEDRAL>
0

>  <SCORE.SYSTEM.SOLV>
0

>  <SCORE.SYSTEM.norm>
0

>  <SCORE.heavy>
26

>  <SCORE.norm>
-0.87078

>  <RMSD>
3.194

$$$$
ligand
 OpenBabel11021811433D
libRbt.so/2013.1/901 2013/11/27
 26 27  0  0  0  0  0  0  0  0999 V2000
   16.8374   40.0953   64.5528 C   0  0  0  0  0  0  0  0  0  0  0  0
   23.1226   38.7008   67.6948 C   0  0  0  0  0  0  0  0  0  0  0  0
   27.9548   37.0802   68.3940 P   0  0  1  0  0  0  0  0  0  0  0  0
   26.1368   35.8282   69.7409 P   0  0  1  0  0  0  0  0  0  0  0  0
   21.7042   41.0940   67.3341 C   0  0  0  0  0  0  0  0  0  0  0  0
   19.9235   39.5477   66.4681 C   0  0  0  0  0  0  0  0  0  0  0  0
   20.4159   40.8311   66.5976 C   0  0  0  0  0  0  0  0  0  0  0  0
   19.6899   41.8792   66.0292 C   0  0  0  0  0  0  0  0  0  0  0  0
   20.1420   43.1863   66.1310 N   0  0  0  0  0  0  0  0  0  0  0  0
   18.5604   41.6051   65.3831 N   0  0  0  0  0  0  0  0  0  0  0  0
   18.1244   40.3658   65.2875 C   0  0  0  0  0  0  0  0  0  0  0  0
   18.7867   39.3537   65.8129 N   0  0  0  0  0  0  0  0  0  0  0  0
   27.4330   38.1845   69.2305 O   0  5  0  0  0  0  0  0  0  0  0  0
   25.1839   36.4895   68.7207 O   0  0  0  0  0  0  0  0  0  0  0  0
   24.5258   40.8936   64.7682 S   0  0  0  0  0  0  0  0  0  0  0  0
   23.1650   41.6666   65.5219 C   0  0  0  0  0  0  0  0  0  0  0  0
   29.5510   37.2212   68.2527 O   0  0  0  0  0  0  0  0  0  0  0  0
   25.5690   34.3776   70.1455 O   0  5  0  0  0  0  0  0  0  0  0  0
   22.8383   40.8022   66.4546 N   0  0  0  0  0  0  0  0  0  0  0  0
   27.5993   35.6698   69.0855 O   0  0  0  0  0  0  0  0  0  0  0  0
   26.2327   36.7138   71.0037 O   0  0  0  0  0  0  0  0  0  0  0  0
   23.5094   39.6830   66.6180 C   0  0  2  0  0  0  0  0  0  0  0  0
   24.5542   39.4281   65.7898 C   0  0  2  0  0  0  0  0  0  0  0  0
   25.4818   38.2422   65.7467 C   0  0  0  0  0  0  0  0  0  0  0  0
   26.4822   38.3319   66.9013 C   0  0  0  0  0  0  0  0  0  0  0  0
   27.2783   37.1456   66.9342 O   0  0  0  0  0  0  0  0  0  0  0  0
  1 11  1  0  0  0  0
  3 13  1  1  0  0  0
  3 17  2  0  0  0  0
  3 20  1  0  0  0  0
  3 26  1  0  0  0  0
  4 14  1  6  0  0  0
  4 18  1  0  0  0  0
  4 21  2  0  0  0  0
  4 20  1  0  0  0  0
  5 19  1  0  0  0  0
  5  7  1  0  0  0  0
  6  7  2  0  0  0  0
  6 12  1  0  0  0  0
  7  8  1  0  0  0  0
  8  9  1  0  0  0  0
  8 10  2  0  0  0  0
 10 11  1  0  0  0  0
 11 12  2  0  0  0  0
 15 23  1  0  0  0  0
 15 16  1  0  0  0  0
 16 19  1  0  0  0  0
 19 22  1  0  0  0  0
 22  2  1  6  0  0  0
 22 23  1  0  0  0  0
 23 24  1  1  0  0  0
 24 25  1  0  0  0  0
 25 26  1  0  0  0  0
M  CHG  2  13  -1  18  -1
M  END
>  <CHROM.1>
37.13519502,77.18077004,80.29260308,46.72092959,104.36010480,174.57725615
-162.31042485,5.06994062,23.99633151,38.75955487,67.25450492,2.50786912,0.03861782
-0.69286869

>  <Name>
ligand

>  <RI>
0

>  <Rbt.Current_Directory>
/home/itssahil/PROJECTS/Mol_Feturizer/New_Systems/rnas/2HOJ

>  <Rbt.Executable>
rbdock ($Id: //depot/dev/client3/rdock/2013.1/src/exe/rbdock.cxx#4 $)

>  <Rbt.Library>
libRbt.so (2013.1, Build901 2013/11/27)

>  <Rbt.Parameter_File>
/export/apps/rDock/src/rDock_2013.1_src/data/scripts/dock_solv.prm

>  <Rbt.Receptor>
prm/blind_docking_100.prm

>  <SCORE>
-19.7907

>  <SCORE.INTER>
-18.4181

>  <SCORE.INTER.CONST>
1

>  <SCORE.INTER.POLAR>
-1.51047

>  <SCORE.INTER.ROT>
8

>  <SCORE.INTER.SOLV>
22.5075

>  <SCORE.INTER.VDW>
-23.6797

>  <SCORE.INTER.norm>
-0.70839

>  <SCORE.INTRA>
-1.37252

>  <SCORE.INTRA.DIHEDRAL>
-2.04505

>  <SCORE.INTRA.DIHEDRAL.0>
11.6398

>  <SCORE.INTRA.POLAR>
0

>  <SCORE.INTRA.POLAR.0>
0

>  <SCORE.INTRA.REPUL>
0

>  <SCORE.INTRA.REPUL.0>
0

>  <SCORE.INTRA.SOLV>
0.936503

>  <SCORE.INTRA.SOLV.lig_0>
-81.722

>  <SCORE.INTRA.VDW>
-0.818249

>  <SCORE.INTRA.VDW.0>
1.12598

>  <SCORE.INTRA.norm>
-0.0527894

>  <SCORE.RESTR>
0

>  <SCORE.RESTR.CAVITY>
0

>  <SCORE.RESTR.norm>
0

>  <SCORE.SYSTEM>
0

>  <SCORE.SYSTEM.CONST>
0

>  <SCORE.SYSTEM.DIHEDRAL>
0

>  <SCORE.SYSTEM.SOLV>
0

>  <SCORE.SYSTEM.norm>
0

>  <SCORE.heavy>
26

>  <SCORE.norm>
-0.761179

>  <RMSD>
3.198

$$$$
ligand
 OpenBabel11021811433D
libRbt.so/2013.1/901 2013/11/27
 26 27  0  0  0  0  0  0  0  0999 V2000
   21.2997   44.7993   66.5670 C   0  0  0  0  0  0  0  0  0  0  0  0
   20.9819   38.6496   68.7327 C   0  0  0  0  0  0  0  0  0  0  0  0
   26.8923   38.6040   67.8433 P   0  0  1  0  0  0  0  0  0  0  0  0
   28.7802   39.9831   66.7383 P   0  0  1  0  0  0  0  0  0  0  0  0
   19.9921   39.2712   66.1825 C   0  0  0  0  0  0  0  0  0  0  0  0
   21.5136   41.1456   66.8776 C   0  0  0  0  0  0  0  0  0  0  0  0
   20.3369   40.7348   66.2837 C   0  0  0  0  0  0  0  0  0  0  0  0
   19.4746   41.7096   65.7788 C   0  0  0  0  0  0  0  0  0  0  0  0
   18.2801   41.3489   65.1734 N   0  0  0  0  0  0  0  0  0  0  0  0
   19.8129   42.9906   65.8922 N   0  0  0  0  0  0  0  0  0  0  0  0
   20.9483   43.3382   66.4624 C   0  0  0  0  0  0  0  0  0  0  0  0
   21.7842   42.4421   66.9494 N   0  0  0  0  0  0  0  0  0  0  0  0
   27.3526   37.4514   67.0363 O   0  5  0  0  0  0  0  0  0  0  0  0
   29.1507   38.7359   65.9056 O   0  0  0  0  0  0  0  0  0  0  0  0
   23.1729   37.1864   65.8343 S   0  0  0  0  0  0  0  0  0  0  0  0
   21.8180   38.0688   65.1995 C   0  0  0  0  0  0  0  0  0  0  0  0
   27.6668   38.6161   69.2532 O   0  0  0  0  0  0  0  0  0  0  0  0
   29.1552   41.3124   65.9122 O   0  5  0  0  0  0  0  0  0  0  0  0
   21.2145   38.4723   66.2935 N   0  0  0  0  0  0  0  0  0  0  0  0
   27.2001   39.9711   67.0496 O   0  0  0  0  0  0  0  0  0  0  0  0
   29.5662   39.9651   68.0687 O   0  0  0  0  0  0  0  0  0  0  0  0
   21.6859   38.1776   67.4855 C   0  0  2  0  0  0  0  0  0  0  0  0
   22.8172   37.4321   67.5678 C   0  0  2  0  0  0  0  0  0  0  0  0
   23.5663   36.9497   68.7823 C   0  0  0  0  0  0  0  0  0  0  0  0
   25.0685   37.1527   68.5718 C   0  0  0  0  0  0  0  0  0  0  0  0
   25.3077   38.4808   68.1017 O   0  0  0  0  0  0  0  0  0  0  0  0
  1 11  1  0  0  0  0
  3 13  1  6  0  0  0
  3 17  2  0  0  0  0
  3 20  1  0  0  0  0
  3 26  1  0  0  0  0
  4 14  1  6  0  0  0
  4 18  1  0  0  0  0
  4 21  2  0  0  0  0
  4 20  1  0  0  0  0
  5 19  1  0  0  0  0
  5  7  1  0  0  0  0
  6  7  2  0  0  0  0
  6 12  1  0  0  0  0
  7  8  1  0  0  0  0
  8  9  1  0  0  0  0
  8 10  2  0  0  0  0
 10 11  1  0  0  0  0
 11 12  2  0  0  0  0
 15 23  1  0  0  0  0
 15 16  1  0  0  0  0
 16 19  1  0  0  0  0
 19 22  1  0  0  0  0
 22  2  1  1  0  0  0
 22 23  1  0  0  0  0
 23 24  1  6  0  0  0
 24 25  1  0  0  0  0
 25 26  1  0  0  0  0
M  CHG  2  13  -1  18  -1
M  END
>  <CHROM.1>
-56.30753389,-96.01774047,-21.52606420,58.59425223,43.61063195,48.30204279
-177.64831769,49.29481179,24.17770965,39.56567286,66.95486237,-2.88393168
0.07789362,2.94671356

>  <Name>
ligand

>  <RI>
0

>  <Rbt.Current_Directory>
/home/itssahil/PROJECTS/Mol_Feturizer/New_Systems/rnas/2HOJ

>  <Rbt.Executable>
rbdock ($Id: //depot/dev/client3/rdock/2013.1/src/exe/rbdock.cxx#4 $)

>  <Rbt.Library>
libRbt.so (2013.1, Build901 2013/11/27)

>  <Rbt.Parameter_File>
/export/apps/rDock/src/rDock_2013.1_src/data/scripts/dock_solv.prm

>  <Rbt.Receptor>
prm/pocket_docking_5.prm

>  <SCORE>
-19.6402

>  <SCORE.INTER>
-14.8598

>  <SCORE.INTER.CONST>
1

>  <SCORE.INTER.POLAR>
-1.29904

>  <SCORE.INTER.ROT>
8

>  <SCORE.INTER.SOLV>
24.1797

>  <SCORE.INTER.VDW>
-22.5696

>  <SCORE.INTER.norm>
-0.571531

>  <SCORE.INTRA>
-4.78037

>  <SCORE.INTRA.DIHEDRAL>
-5.83964

>  <SCORE.INTRA.DIHEDRAL.0>
11.6398

>  <SCORE.INTRA.POLAR>
0

>  <SCORE.INTRA.POLAR.0>
0

>  <SCORE.INTRA.REPUL>
0

>  <SCORE.INTRA.REPUL.0>
0

>  <SCORE.INTRA.SOLV>
1.09107

>  <SCORE.INTRA.SOLV.lig_0>
-81.722

>  <SCORE.INTRA.VDW>
-2.40608

>  <SCORE.INTRA.VDW.0>
1.12598

>  <SCORE.INTRA.norm>
-0.18386

>  <SCORE.RESTR>
0

>  <SCORE.RESTR.CAVITY>
0

>  <SCORE.RESTR.norm>
0

>  <SCORE.SYSTEM>
0

>  <SCORE.SYSTEM.CONST>
0

>  <SCORE.SYSTEM.DIHEDRAL>
0

>  <SCORE.SYSTEM.SOLV>
0

>  <SCORE.SYSTEM.norm>
0

>  <SCORE.heavy>
26

>  <SCORE.norm>
-0.755391

>  <RMSD>
3.224

$$$$
ligand
 OpenBabel11021811433D
libRbt.so/2013.1/901 2013/11/27
 26 27  0  0  0  0  0  0  0  0999 V2000
   21.4572   44.8583   66.5489 C   0  0  0  0  0  0  0  0  0  0  0  0
   21.0944   38.8050   68.8844 C   0  0  0  0  0  0  0  0  0  0  0  0
   27.1332   37.9616   67.6448 P   0  0  1  0  0  0  0  0  0  0  0  0
   29.5230   38.9200   67.4057 P   0  0  1  0  0  0  0  0  0  0  0  0
   20.0726   39.3399   66.3271 C   0  0  0  0  0  0  0  0  0  0  0  0
   21.6415   41.2090   66.9245 C   0  0  0  0  0  0  0  0  0  0  0  0
   20.4378   40.8009   66.3852 C   0  0  0  0  0  0  0  0  0  0  0  0
   19.5676   41.7761   65.8949 C   0  0  0  0  0  0  0  0  0  0  0  0
   18.3462   41.4180   65.3439 N   0  0  0  0  0  0  0  0  0  0  0  0
   19.9246   43.0549   65.9691 N   0  0  0  0  0  0  0  0  0  0  0  0
   21.0854   43.3997   66.4875 C   0  0  0  0  0  0  0  0  0  0  0  0
   21.9295   42.5033   66.9595 N   0  0  0  0  0  0  0  0  0  0  0  0
   27.0630   37.6644   66.1962 O   0  5  0  0  0  0  0  0  0  0  0  0
   30.1007   37.8178   68.3209 O   0  0  0  0  0  0  0  0  0  0  0  0
   23.2172   37.1956   66.0129 S   0  0  0  0  0  0  0  0  0  0  0  0
   21.8651   38.0724   65.3645 C   0  0  0  0  0  0  0  0  0  0  0  0
   27.8008   36.7181   68.4167 O   0  0  0  0  0  0  0  0  0  0  0  0
   29.4943   38.3956   65.8844 O   0  5  0  0  0  0  0  0  0  0  0  0
   21.2851   38.5278   66.4509 N   0  0  0  0  0  0  0  0  0  0  0  0
   28.0265   39.2811   67.8786 O   0  0  0  0  0  0  0  0  0  0  0  0
   30.4099   40.1821   67.4983 O   0  0  0  0  0  0  0  0  0  0  0  0
   21.7713   38.2736   67.6462 C   0  0  2  0  0  0  0  0  0  0  0  0
   22.8930   37.5150   67.7405 C   0  0  2  0  0  0  0  0  0  0  0  0
   23.6546   37.0699   68.9615 C   0  0  0  0  0  0  0  0  0  0  0  0
   25.1406   36.9403   68.6194 C   0  0  0  0  0  0  0  0  0  0  0  0
   25.6482   38.2132   68.2145 O   0  0  0  0  0  0  0  0  0  0  0  0
  1 11  1  0  0  0  0
  3 13  1  6  0  0  0
  3 17  2  0  0  0  0
  3 20  1  0  0  0  0
  3 26  1  0  0  0  0
  4 14  1  1  0  0  0
  4 18  1  0  0  0  0
  4 21  2  0  0  0  0
  4 20  1  0  0  0  0
  5 19  1  0  0  0  0
  5  7  1  0  0  0  0
  6  7  2  0  0  0  0
  6 12  1  0  0  0  0
  7  8  1  0  0  0  0
  8  9  1  0  0  0  0
  8 10  2  0  0  0  0
 10 11  1  0  0  0  0
 11 12  2  0  0  0  0
 15 23  1  0  0  0  0
 15 16  1  0  0  0  0
 16 19  1  0  0  0  0
 19 22  1  0  0  0  0
 22  2  1  1  0  0  0
 22 23  1  0  0  0  0
 23 24  1  6  0  0  0
 24 25  1  0  0  0  0
 25 26  1  0  0  0  0
M  CHG  2  13  -1  18  -1
M  END
>  <CHROM.1>
-64.78902048,-96.85820816,-19.67398704,-64.57009519,30.94111747,61.44608737
-170.98297553,89.06086359,24.42435505,39.22852592,67.09844680,-2.78456626
0.08273761,2.98674901

>  <Name>
ligand

>  <RI>
0

>  <Rbt.Current_Directory>
/home/itssahil/PROJECTS/Mol_Feturizer/New_Systems/rnas/2HOJ

>  <Rbt.Executable>
rbdock ($Id: //depot/dev/client3/rdock/2013.1/src/exe/rbdock.cxx#4 $)

>  <Rbt.Library>
libRbt.so (2013.1, Build901 2013/11/27)

>  <Rbt.Parameter_File>
/export/apps/rDock/src/rDock_2013.1_src/data/scripts/dock_solv.prm

>  <Rbt.Receptor>
prm/pocket_docking_5.prm

>  <SCORE>
-25.9915

>  <SCORE.INTER>
-21.9917

>  <SCORE.INTER.CONST>
1

>  <SCORE.INTER.POLAR>
-2.64527

>  <SCORE.INTER.ROT>
8

>  <SCORE.INTER.SOLV>
25.223

>  <SCORE.INTER.VDW>
-23.1846

>  <SCORE.INTER.norm>
-0.845836

>  <SCORE.INTRA>
-3.99971

>  <SCORE.INTRA.DIHEDRAL>
-5.14764

>  <SCORE.INTRA.DIHEDRAL.0>
11.6398

>  <SCORE.INTRA.POLAR>
0

>  <SCORE.INTRA.POLAR.0>
0

>  <SCORE.INTRA.REPUL>
0

>  <SCORE.INTRA.REPUL.0>
0

>  <SCORE.INTRA.SOLV>
1.42313

>  <SCORE.INTRA.SOLV.lig_0>
-81.722

>  <SCORE.INTRA.VDW>
-2.13746

>  <SCORE.INTRA.VDW.0>
1.12598

>  <SCORE.INTRA.norm>
-0.153835

>  <SCORE.RESTR>
0

>  <SCORE.RESTR.CAVITY>
0

>  <SCORE.RESTR.norm>
0

>  <SCORE.SYSTEM>
0

>  <SCORE.SYSTEM.CONST>
0

>  <SCORE.SYSTEM.DIHEDRAL>
0

>  <SCORE.SYSTEM.SOLV>
0

>  <SCORE.SYSTEM.norm>
0

>  <SCORE.heavy>
26

>  <SCORE.norm>
-0.999671

>  <RMSD>
3.224

$$$$
ligand
 OpenBabel11021811433D
libRbt.so/2013.1/901 2013/11/27
 26 27  0  0  0  0  0  0  0  0999 V2000
   21.3205   44.7978   66.5849 C   0  0  0  0  0  0  0  0  0  0  0  0
   21.0558   38.4348   69.0440 C   0  0  0  0  0  0  0  0  0  0  0  0
   27.0601   38.4790   69.5960 P   0  0  1  0  0  0  0  0  0  0  0  0
   28.2472   39.1032   67.3851 P   0  0  1  0  0  0  0  0  0  0  0  0
   20.1638   39.2234   66.5039 C   0  0  0  0  0  0  0  0  0  0  0  0
   21.5697   41.1853   67.2011 C   0  0  0  0  0  0  0  0  0  0  0  0
   20.4687   40.6992   66.5246 C   0  0  0  0  0  0  0  0  0  0  0  0
   19.6452   41.6094   65.8597 C   0  0  0  0  0  0  0  0  0  0  0  0
   18.5268   41.1718   65.1661 N   0  0  0  0  0  0  0  0  0  0  0  0
   19.9458   42.9039   65.9062 N   0  0  0  0  0  0  0  0  0  0  0  0
   21.0094   43.3241   66.5599 C   0  0  0  0  0  0  0  0  0  0  0  0
   21.8071   42.4902   67.1982 N   0  0  0  0  0  0  0  0  0  0  0  0
   27.2056   37.6566   70.8183 O   0  5  0  0  0  0  0  0  0  0  0  0
   26.8848   39.7626   67.0763 O   0  0  0  0  0  0  0  0  0  0  0  0
   23.4419   37.2954   66.1543 S   0  0  0  0  0  0  0  0  0  0  0  0
   22.0832   38.1746   65.5231 C   0  0  0  0  0  0  0  0  0  0  0  0
   27.4472   40.0051   69.9259 O   0  0  0  0  0  0  0  0  0  0  0  0
   29.2502   40.2026   67.9980 O   0  5  0  0  0  0  0  0  0  0  0  0
   21.4118   38.4649   66.6135 N   0  0  0  0  0  0  0  0  0  0  0  0
   28.0387   37.9125   68.4492 O   0  0  0  0  0  0  0  0  0  0  0  0
   28.8474   38.5288   66.0821 O   0  0  0  0  0  0  0  0  0  0  0  0
   21.8376   38.0926   67.8008 C   0  0  2  0  0  0  0  0  0  0  0  0
   22.9938   37.3861   67.8814 C   0  0  2  0  0  0  0  0  0  0  0  0
   23.7036   36.8354   69.0905 C   0  0  0  0  0  0  0  0  0  0  0  0
   25.2134   37.0267   68.9296 C   0  0  0  0  0  0  0  0  0  0  0  0
   25.5362   38.4106   69.0802 O   0  0  0  0  0  0  0  0  0  0  0  0
  1 11  1  0  0  0  0
  3 13  1  1  0  0  0
  3 17  2  0  0  0  0
  3 20  1  0  0  0  0
  3 26  1  0  0  0  0
  4 14  1  6  0  0  0
  4 18  1  0  0  0  0
  4 21  2  0  0  0  0
  4 20  1  0  0  0  0
  5 19  1  0  0  0  0
  5  7  1  0  0  0  0
  6  7  2  0  0  0  0
  6 12  1  0  0  0  0
  7  8  1  0  0  0  0
  8  9  1  0  0  0  0
  8 10  2  0  0  0  0
 10 11  1  0  0  0  0
 11 12  2  0  0  0  0
 15 23  1  0  0  0  0
 15 16  1  0  0  0  0
 16 19  1  0  0  0  0
 19 22  1  0  0  0  0
 22  2  1  6  0  0  0
 22 23  1  0  0  0  0
 23 24  1  1  0  0  0
 24 25  1  0  0  0  0
 25 26  1  0  0  0  0
M  CHG  2  13  -1  18  -1
M  END
>  <CHROM.1>
-159.82959923,-87.31722288,-29.40857521,-44.82309575,39.80193309,72.00584148
153.67674651,-54.41856518,24.15533949,39.39225568,67.57993872,-2.74886744
0.20499378,2.91629342

>  <Name>
ligand

>  <RI>
0

>  <Rbt.Current_Directory>
/home/itssahil/PROJECTS/Mol_Feturizer/New_Systems/rnas/2HOJ

>  <Rbt.Executable>
rbdock ($Id: //depot/dev/client3/rdock/2013.1/src/exe/rbdock.cxx#4 $)

>  <Rbt.Library>
libRbt.so (2013.1, Build901 2013/11/27)

>  <Rbt.Parameter_File>
/export/apps/rDock/src/rDock_2013.1_src/data/scripts/dock_solv.prm

>  <Rbt.Receptor>
prm/pocket_docking_5.prm

>  <SCORE>
-19.4967

>  <SCORE.INTER>
-14.8716

>  <SCORE.INTER.CONST>
1

>  <SCORE.INTER.POLAR>
-1.29712

>  <SCORE.INTER.ROT>
8

>  <SCORE.INTER.SOLV>
23.3571

>  <SCORE.INTER.VDW>
-22.3097

>  <SCORE.INTER.norm>
-0.571984

>  <SCORE.INTRA>
-4.62513

>  <SCORE.INTRA.DIHEDRAL>
-2.16584

>  <SCORE.INTRA.DIHEDRAL.0>
11.6398

>  <SCORE.INTRA.POLAR>
0

>  <SCORE.INTRA.POLAR.0>
0

>  <SCORE.INTRA.REPUL>
0

>  <SCORE.INTRA.REPUL.0>
0

>  <SCORE.INTRA.SOLV>
-0.288584

>  <SCORE.INTRA.SOLV.lig_0>
-81.722

>  <SCORE.INTRA.VDW>
-3.39792

>  <SCORE.INTRA.VDW.0>
1.12598

>  <SCORE.INTRA.norm>
-0.17789

>  <SCORE.RESTR>
0

>  <SCORE.RESTR.CAVITY>
0

>  <SCORE.RESTR.norm>
0

>  <SCORE.SYSTEM>
0

>  <SCORE.SYSTEM.CONST>
0

>  <SCORE.SYSTEM.DIHEDRAL>
0

>  <SCORE.SYSTEM.SOLV>
0

>  <SCORE.SYSTEM.norm>
0

>  <SCORE.heavy>
26

>  <SCORE.norm>
-0.749874

>  <RMSD>
3.225

$$$$
ligand
 OpenBabel11021811433D
libRbt.so/2013.1/901 2013/11/27
 26 27  0  0  0  0  0  0  0  0999 V2000
   19.5762   43.0954   65.7812 C   0  0  0  0  0  0  0  0  0  0  0  0
   22.7983   37.9065   65.0745 C   0  0  0  0  0  0  0  0  0  0  0  0
   26.2221   40.9022   67.0401 P   0  0  1  0  0  0  0  0  0  0  0  0
   27.2532   41.3583   69.3673 P   0  0  1  0  0  0  0  0  0  0  0  0
   21.3551   37.9603   67.4794 C   0  0  0  0  0  0  0  0  0  0  0  0
   20.1052   39.4625   65.9005 C   0  0  0  0  0  0  0  0  0  0  0  0
   20.8850   39.3201   67.0310 C   0  0  0  0  0  0  0  0  0  0  0  0
   21.2266   40.4678   67.7485 C   0  0  0  0  0  0  0  0  0  0  0  0
   22.0083   40.3785   68.8906 N   0  0  0  0  0  0  0  0  0  0  0  0
   20.7961   41.6497   67.3171 N   0  0  0  0  0  0  0  0  0  0  0  0
   20.0498   41.7395   66.2354 C   0  0  0  0  0  0  0  0  0  0  0  0
   19.7099   40.6748   65.5354 N   0  0  0  0  0  0  0  0  0  0  0  0
   24.9461   40.9478   66.2909 O   0  5  0  0  0  0  0  0  0  0  0  0
   27.1589   41.0196   70.8715 O   0  0  0  0  0  0  0  0  0  0  0  0
   25.0961   37.9209   68.2465 S   0  0  0  0  0  0  0  0  0  0  0  0
   23.4191   37.9479   68.6984 C   0  0  0  0  0  0  0  0  0  0  0  0
   27.0948   42.2088   66.6950 O   0  0  0  0  0  0  0  0  0  0  0  0
   28.5306   40.6171   68.7280 O   0  5  0  0  0  0  0  0  0  0  0  0
   22.8186   37.9415   67.5308 N   0  0  0  0  0  0  0  0  0  0  0  0
   25.9147   40.8638   68.6205 O   0  0  0  0  0  0  0  0  0  0  0  0
   27.4042   42.8864   69.1929 O   0  0  0  0  0  0  0  0  0  0  0  0
   23.5026   37.9149   66.4078 C   0  0  2  0  0  0  0  0  0  0  0  0
   24.8582   37.9028   66.4759 C   0  0  2  0  0  0  0  0  0  0  0  0
   25.8780   37.8771   65.3676 C   0  0  0  0  0  0  0  0  0  0  0  0
   26.6068   39.2215   65.3108 C   0  0  0  0  0  0  0  0  0  0  0  0
   27.0436   39.5816   66.6229 O   0  0  0  0  0  0  0  0  0  0  0  0
  1 11  1  0  0  0  0
  3 13  1  6  0  0  0
  3 17  2  0  0  0  0
  3 20  1  0  0  0  0
  3 26  1  0  0  0  0
  4 14  1  1  0  0  0
  4 18  1  0  0  0  0
  4 21  2  0  0  0  0
  4 20  1  0  0  0  0
  5 19  1  0  0  0  0
  5  7  1  0  0  0  0
  6  7  2  0  0  0  0
  6 12  1  0  0  0  0
  7  8  1  0  0  0  0
  8  9  1  0  0  0  0
  8 10  2  0  0  0  0
 10 11  1  0  0  0  0
 11 12  2  0  0  0  0
 15 23  1  0  0  0  0
 15 16  1  0  0  0  0
 16 19  1  0  0  0  0
 19 22  1  0  0  0  0
 22  2  1  6  0  0  0
 22 23  1  0  0  0  0
 23 24  1  1  0  0  0
 24 25  1  0  0  0  0
 25 26  1  0  0  0  0
M  CHG  2  13  -1  18  -1
M  END
>  <CHROM.1>
-159.45917497,106.95735893,121.53303943,-166.09276380,-69.85773337,48.87782427
-114.31878539,25.18085991,24.35967255,40.06014086,67.40057371,2.94701030
0.24394341,-2.81886533

>  <Name>
ligand

>  <RI>
0

>  <Rbt.Current_Directory>
/home/itssahil/PROJECTS/Mol_Feturizer/New_Systems/rnas/2HOJ

>  <Rbt.Executable>
rbdock ($Id: //depot/dev/client3/rdock/2013.1/src/exe/rbdock.cxx#4 $)

>  <Rbt.Library>
libRbt.so (2013.1, Build901 2013/11/27)

>  <Rbt.Parameter_File>
/export/apps/rDock/src/rDock_2013.1_src/data/scripts/dock_solv.prm

>  <Rbt.Receptor>
prm/pocket_docking_4.prm

>  <SCORE>
-12.1749

>  <SCORE.INTER>
-13.8565

>  <SCORE.INTER.CONST>
1

>  <SCORE.INTER.POLAR>
-1.03223

>  <SCORE.INTER.ROT>
8

>  <SCORE.INTER.SOLV>
20.8814

>  <SCORE.INTER.VDW>
-21.6907

>  <SCORE.INTER.norm>
-0.532944

>  <SCORE.INTRA>
1.68159

>  <SCORE.INTRA.DIHEDRAL>
3.42763

>  <SCORE.INTRA.DIHEDRAL.0>
11.6398

>  <SCORE.INTRA.POLAR>
0

>  <SCORE.INTRA.POLAR.0>
0

>  <SCORE.INTRA.REPUL>
0

>  <SCORE.INTRA.REPUL.0>
0

>  <SCORE.INTRA.SOLV>
7.6098

>  <SCORE.INTRA.SOLV.lig_0>
-81.722

>  <SCORE.INTRA.VDW>
-3.83712

>  <SCORE.INTRA.VDW.0>
1.12598

>  <SCORE.INTRA.norm>
0.0646767

>  <SCORE.RESTR>
0

>  <SCORE.RESTR.CAVITY>
0

>  <SCORE.RESTR.norm>
0

>  <SCORE.SYSTEM>
0

>  <SCORE.SYSTEM.CONST>
0

>  <SCORE.SYSTEM.DIHEDRAL>
0

>  <SCORE.SYSTEM.SOLV>
0

>  <SCORE.SYSTEM.norm>
0

>  <SCORE.heavy>
26

>  <SCORE.norm>
-0.468267

>  <RMSD>
3.227

$$$$
ligand
 OpenBabel11021811433D
libRbt.so/2013.1/901 2013/11/27
 26 27  0  0  0  0  0  0  0  0999 V2000
   21.2389   44.8296   66.4067 C   0  0  0  0  0  0  0  0  0  0  0  0
   20.9798   38.7443   68.4821 C   0  0  0  0  0  0  0  0  0  0  0  0
   26.4391   39.3621   67.6596 P   0  0  1  0  0  0  0  0  0  0  0  0
   28.2726   40.8385   66.5893 P   0  0  1  0  0  0  0  0  0  0  0  0
   19.8464   39.3251   65.9825 C   0  0  0  0  0  0  0  0  0  0  0  0
   21.4990   41.1656   66.4217 C   0  0  0  0  0  0  0  0  0  0  0  0
   20.2135   40.7824   66.0945 C   0  0  0  0  0  0  0  0  0  0  0  0
   19.2625   41.7793   65.8697 C   0  0  0  0  0  0  0  0  0  0  0  0
   17.9574   41.4466   65.5388 N   0  0  0  0  0  0  0  0  0  0  0  0
   19.6252   43.0536   65.9833 N   0  0  0  0  0  0  0  0  0  0  0  0
   20.8645   43.3748   66.2930 C   0  0  0  0  0  0  0  0  0  0  0  0
   21.7862   42.4574   66.5118 N   0  0  0  0  0  0  0  0  0  0  0  0
   27.3764   39.1335   68.7824 O   0  5  0  0  0  0  0  0  0  0  0  0
   27.4669   42.0387   67.1341 O   0  0  0  0  0  0  0  0  0  0  0  0
   22.9692   37.1822   65.4914 S   0  0  0  0  0  0  0  0  0  0  0  0
   21.5915   38.0721   64.9192 C   0  0  0  0  0  0  0  0  0  0  0  0
   25.5323   40.6538   67.9711 O   0  0  0  0  0  0  0  0  0  0  0  0
   29.3777   40.3963   67.6725 O   0  5  0  0  0  0  0  0  0  0  0  0
   21.0614   38.5093   66.0380 N   0  0  0  0  0  0  0  0  0  0  0  0
   27.2749   39.6066   66.3049 O   0  0  0  0  0  0  0  0  0  0  0  0
   28.9749   41.2453   65.2743 O   0  0  0  0  0  0  0  0  0  0  0  0
   21.5998   38.2336   67.2059 C   0  0  2  0  0  0  0  0  0  0  0  0
   22.7230   37.4720   67.2371 C   0  0  2  0  0  0  0  0  0  0  0  0
   23.5372   37.0046   68.4149 C   0  0  0  0  0  0  0  0  0  0  0  0
   24.6920   37.9788   68.6584 C   0  0  0  0  0  0  0  0  0  0  0  0
   25.4924   38.0721   67.4783 O   0  0  0  0  0  0  0  0  0  0  0  0
  1 11  1  0  0  0  0
  3 13  1  1  0  0  0
  3 17  2  0  0  0  0
  3 20  1  0  0  0  0
  3 26  1  0  0  0  0
  4 14  1  1  0  0  0
  4 18  1  0  0  0  0
  4 21  2  0  0  0  0
  4 20  1  0  0  0  0
  5 19  1  0  0  0  0
  5  7  1  0  0  0  0
  6  7  2  0  0  0  0
  6 12  1  0  0  0  0
  7  8  1  0  0  0  0
  8  9  1  0  0  0  0
  8 10  2  0  0  0  0
 10 11  1  0  0  0  0
 11 12  2  0  0  0  0
 15 23  1  0  0  0  0
 15 16  1  0  0  0  0
 16 19  1  0  0  0  0
 19 22  1  0  0  0  0
 22  2  1  1  0  0  0
 22 23  1  0  0  0  0
 23 24  1  6  0  0  0
 24 25  1  0  0  0  0
 25 26  1  0  0  0  0
M  CHG  2  13  -1  18  -1
M  END
>  <CHROM.1>
-56.04052147,-98.67325101,-9.60792244,-52.78908264,85.30250147,-57.70950973
165.83931554,65.22808370,23.87456133,39.98864937,66.79162856,-3.02262824
0.11517923,3.00365757

>  <Name>
ligand

>  <RI>
0

>  <Rbt.Current_Directory>
/home/itssahil/PROJECTS/Mol_Feturizer/New_Systems/rnas/2HOJ

>  <Rbt.Executable>
rbdock ($Id: //depot/dev/client3/rdock/2013.1/src/exe/rbdock.cxx#4 $)

>  <Rbt.Library>
libRbt.so (2013.1, Build901 2013/11/27)

>  <Rbt.Parameter_File>
/export/apps/rDock/src/rDock_2013.1_src/data/scripts/dock_solv.prm

>  <Rbt.Receptor>
prm/pocket_docking_5.prm

>  <SCORE>
-19.3612

>  <SCORE.INTER>
-14.0122

>  <SCORE.INTER.CONST>
1

>  <SCORE.INTER.POLAR>
-1.28558

>  <SCORE.INTER.ROT>
8

>  <SCORE.INTER.SOLV>
24.268

>  <SCORE.INTER.VDW>
-22.0788

>  <SCORE.INTER.norm>
-0.53893

>  <SCORE.INTRA>
-5.34899

>  <SCORE.INTRA.DIHEDRAL>
-5.60281

>  <SCORE.INTRA.DIHEDRAL.0>
11.6398

>  <SCORE.INTRA.POLAR>
0

>  <SCORE.INTRA.POLAR.0>
0

>  <SCORE.INTRA.REPUL>
0

>  <SCORE.INTRA.REPUL.0>
0

>  <SCORE.INTRA.SOLV>
1.07493

>  <SCORE.INTRA.SOLV.lig_0>
-81.722

>  <SCORE.INTRA.VDW>
-3.08505

>  <SCORE.INTRA.VDW.0>
1.12598

>  <SCORE.INTRA.norm>
-0.20573

>  <SCORE.RESTR>
0

>  <SCORE.RESTR.CAVITY>
0

>  <SCORE.RESTR.norm>
0

>  <SCORE.SYSTEM>
0

>  <SCORE.SYSTEM.CONST>
0

>  <SCORE.SYSTEM.DIHEDRAL>
0

>  <SCORE.SYSTEM.SOLV>
0

>  <SCORE.SYSTEM.norm>
0

>  <SCORE.heavy>
26

>  <SCORE.norm>
-0.744661

>  <RMSD>
3.239

$$$$
ligand
 OpenBabel11021811433D
libRbt.so/2013.1/901 2013/11/27
 26 27  0  0  0  0  0  0  0  0999 V2000
   19.3771   43.0500   65.7734 C   0  0  0  0  0  0  0  0  0  0  0  0
   22.9393   36.9784   69.4967 C   0  0  0  0  0  0  0  0  0  0  0  0
   29.0899   38.8697   67.9735 P   0  0  1  0  0  0  0  0  0  0  0  0
   28.4344   40.4351   66.0224 P   0  0  1  0  0  0  0  0  0  0  0  0
   21.3229   37.9603   67.4249 C   0  0  0  0  0  0  0  0  0  0  0  0
   19.7522   39.4112   66.1060 C   0  0  0  0  0  0  0  0  0  0  0  0
   20.8090   39.3081   66.9885 C   0  0  0  0  0  0  0  0  0  0  0  0
   21.3891   40.4843   67.4668 C   0  0  0  0  0  0  0  0  0  0  0  0
   22.4534   40.4348   68.3547 N   0  0  0  0  0  0  0  0  0  0  0  0
   20.9098   41.6538   67.0537 N   0  0  0  0  0  0  0  0  0  0  0  0
   19.8963   41.7062   66.2140 C   0  0  0  0  0  0  0  0  0  0  0  0
   19.3264   40.6140   65.7436 N   0  0  0  0  0  0  0  0  0  0  0  0
   30.0382   37.8283   68.4294 O   0  5  0  0  0  0  0  0  0  0  0  0
   27.7566   41.1928   67.1855 O   0  0  0  0  0  0  0  0  0  0  0  0
   24.9809   38.0525   66.3312 S   0  0  0  0  0  0  0  0  0  0  0  0
   23.2808   38.3128   66.0876 C   0  0  0  0  0  0  0  0  0  0  0  0
   28.9686   40.0149   69.0967 O   0  0  0  0  0  0  0  0  0  0  0  0
   29.0331   41.4931   64.9677 O   0  5  0  0  0  0  0  0  0  0  0  0
   22.7728   37.9025   67.2266 N   0  0  0  0  0  0  0  0  0  0  0  0
   29.6259   39.5187   66.6004 O   0  0  0  0  0  0  0  0  0  0  0  0
   27.3924   39.5384   65.3166 O   0  0  0  0  0  0  0  0  0  0  0  0
   23.5378   37.4447   68.1936 C   0  0  2  0  0  0  0  0  0  0  0  0
   24.8787   37.3943   67.9891 C   0  0  2  0  0  0  0  0  0  0  0  0
   25.9755   36.9196   68.9058 C   0  0  0  0  0  0  0  0  0  0  0  0
   27.0585   37.9960   69.0095 C   0  0  0  0  0  0  0  0  0  0  0  0
   27.6437   38.2073   67.7230 O   0  0  0  0  0  0  0  0  0  0  0  0
  1 11  1  0  0  0  0
  3 13  1  1  0  0  0
  3 17  2  0  0  0  0
  3 20  1  0  0  0  0
  3 26  1  0  0  0  0
  4 14  1  1  0  0  0
  4 18  1  0  0  0  0
  4 21  2  0  0  0  0
  4 20  1  0  0  0  0
  5 19  1  0  0  0  0
  5  7  1  0  0  0  0
  6  7  2  0  0  0  0
  6 12  1  0  0  0  0
  7  8  1  0  0  0  0
  8  9  1  0  0  0  0
  8 10  2  0  0  0  0
 10 11  1  0  0  0  0
 11 12  2  0  0  0  0
 15 23  1  0  0  0  0
 15 16  1  0  0  0  0
 16 19  1  0  0  0  0
 19 22  1  0  0  0  0
 22  2  1  6  0  0  0
 22 23  1  0  0  0  0
 23 24  1  1  0  0  0
 24 25  1  0  0  0  0
 25 26  1  0  0  0  0
M  CHG  2  13  -1  18  -1
M  END
>  <CHROM.1>
169.82708218,-46.94924309,128.43128454,40.45874754,51.53583367,-62.68418186
-158.37393147,76.19645794,25.12886790,39.32668374,67.16584811,-3.00978453
0.00162593,2.57991997

>  <Name>
ligand

>  <RI>
0

>  <Rbt.Current_Directory>
/home/itssahil/PROJECTS/Mol_Feturizer/New_Systems/rnas/2HOJ

>  <Rbt.Executable>
rbdock ($Id: //depot/dev/client3/rdock/2013.1/src/exe/rbdock.cxx#4 $)

>  <Rbt.Library>
libRbt.so (2013.1, Build901 2013/11/27)

>  <Rbt.Parameter_File>
/export/apps/rDock/src/rDock_2013.1_src/data/scripts/dock_solv.prm

>  <Rbt.Receptor>
prm/pocket_docking_5.prm

>  <SCORE>
-24.4575

>  <SCORE.INTER>
-20.7886

>  <SCORE.INTER.CONST>
1

>  <SCORE.INTER.POLAR>
-2.99938

>  <SCORE.INTER.ROT>
8

>  <SCORE.INTER.SOLV>
20.857

>  <SCORE.INTER.VDW>
-19.7468

>  <SCORE.INTER.norm>
-0.799562

>  <SCORE.INTRA>
-3.66888

>  <SCORE.INTRA.DIHEDRAL>
-3.25989

>  <SCORE.INTRA.DIHEDRAL.0>
11.6398

>  <SCORE.INTRA.POLAR>
0

>  <SCORE.INTRA.POLAR.0>
0

>  <SCORE.INTRA.REPUL>
0

>  <SCORE.INTRA.REPUL.0>
0

>  <SCORE.INTRA.SOLV>
3.48964

>  <SCORE.INTRA.SOLV.lig_0>
-81.722

>  <SCORE.INTRA.VDW>
-3.78376

>  <SCORE.INTRA.VDW.0>
1.12598

>  <SCORE.INTRA.norm>
-0.141111

>  <SCORE.RESTR>
0

>  <SCORE.RESTR.CAVITY>
0

>  <SCORE.RESTR.norm>
0

>  <SCORE.SYSTEM>
0

>  <SCORE.SYSTEM.CONST>
0

>  <SCORE.SYSTEM.DIHEDRAL>
0

>  <SCORE.SYSTEM.SOLV>
0

>  <SCORE.SYSTEM.norm>
0

>  <SCORE.heavy>
26

>  <SCORE.norm>
-0.940673

>  <RMSD>
3.265

$$$$
ligand
 OpenBabel11021811433D
libRbt.so/2013.1/901 2013/11/27
 26 27  0  0  0  0  0  0  0  0999 V2000
   16.0372   39.1387   64.3151 C   0  0  0  0  0  0  0  0  0  0  0  0
   22.3844   40.3712   68.7310 C   0  0  0  0  0  0  0  0  0  0  0  0
   27.3025   41.0060   67.6224 P   0  0  1  0  0  0  0  0  0  0  0  0
   25.7095   42.7802   66.6216 P   0  0  1  0  0  0  0  0  0  0  0  0
   20.8622   41.2007   66.5254 C   0  0  0  0  0  0  0  0  0  0  0  0
   19.2957   39.3076   66.0020 C   0  0  0  0  0  0  0  0  0  0  0  0
   19.5848   40.6563   65.9399 C   0  0  0  0  0  0  0  0  0  0  0  0
   18.6633   41.5030   65.3212 C   0  0  0  0  0  0  0  0  0  0  0  0
   18.9070   42.8654   65.2325 N   0  0  0  0  0  0  0  0  0  0  0  0
   17.5503   40.9828   64.8125 N   0  0  0  0  0  0  0  0  0  0  0  0
   17.3121   39.6902   64.8981 C   0  0  0  0  0  0  0  0  0  0  0  0
   18.1620   38.8637   65.4757 N   0  0  0  0  0  0  0  0  0  0  0  0
   27.7174   40.3560   66.3587 O   0  5  0  0  0  0  0  0  0  0  0  0
   24.5539   42.5371   67.6173 O   0  0  0  0  0  0  0  0  0  0  0  0
   23.5123   38.7051   65.3703 S   0  0  0  0  0  0  0  0  0  0  0  0
   22.1784   39.7861   65.1067 C   0  0  0  0  0  0  0  0  0  0  0  0
   28.4285   40.7648   68.7456 O   0  0  0  0  0  0  0  0  0  0  0  0
   25.6122   44.2776   66.0398 O   0  5  0  0  0  0  0  0  0  0  0  0
   21.9449   40.2366   66.3177 N   0  0  0  0  0  0  0  0  0  0  0  0
   27.1188   42.5870   67.3768 O   0  0  0  0  0  0  0  0  0  0  0  0
   25.6070   41.7684   65.4581 O   0  0  0  0  0  0  0  0  0  0  0  0
   22.6641   39.8436   67.3463 C   0  0  2  0  0  0  0  0  0  0  0  0
   23.6599   38.9458   67.1345 C   0  0  2  0  0  0  0  0  0  0  0  0
   24.6235   38.3276   68.1133 C   0  0  0  0  0  0  0  0  0  0  0  0
   26.0058   38.9614   67.9412 C   0  0  0  0  0  0  0  0  0  0  0  0
   25.9058   40.3759   68.1176 O   0  0  0  0  0  0  0  0  0  0  0  0
  1 11  1  0  0  0  0
  3 13  1  6  0  0  0
  3 17  2  0  0  0  0
  3 20  1  0  0  0  0
  3 26  1  0  0  0  0
  4 14  1  1  0  0  0
  4 18  1  0  0  0  0
  4 21  2  0  0  0  0
  4 20  1  0  0  0  0
  5 19  1  0  0  0  0
  5  7  1  0  0  0  0
  6  7  2  0  0  0  0
  6 12  1  0  0  0  0
  7  8  1  0  0  0  0
  8  9  1  0  0  0  0
  8 10  2  0  0  0  0
 10 11  1  0  0  0  0
 11 12  2  0  0  0  0
 15 23  1  0  0  0  0
 15 16  1  0  0  0  0
 16 19  1  0  0  0  0
 19 22  1  0  0  0  0
 22  2  1  1  0  0  0
 22 23  1  0  0  0  0
 23 24  1  6  0  0  0
 24 25  1  0  0  0  0
 25 26  1  0  0  0  0
M  CHG  2  13  -1  18  -1
M  END
>  <CHROM.1>
77.29196419,53.06193424,36.19628661,72.99843439,74.41589740,57.13299811,-168.26993527
43.37678111,23.26208641,40.68849049,66.52457547,-3.05645709,-0.26558358,-0.18203725

>  <Name>
ligand

>  <RI>
0

>  <Rbt.Current_Directory>
/home/itssahil/PROJECTS/Mol_Feturizer/New_Systems/rnas/2HOJ

>  <Rbt.Executable>
rbdock ($Id: //depot/dev/client3/rdock/2013.1/src/exe/rbdock.cxx#4 $)

>  <Rbt.Library>
libRbt.so (2013.1, Build901 2013/11/27)

>  <Rbt.Parameter_File>
/export/apps/rDock/src/rDock_2013.1_src/data/scripts/dock_solv.prm

>  <Rbt.Receptor>
prm/pocket_docking_5.prm

>  <SCORE>
-26.9087

>  <SCORE.INTER>
-20.2952

>  <SCORE.INTER.CONST>
1

>  <SCORE.INTER.POLAR>
-1.2359

>  <SCORE.INTER.ROT>
8

>  <SCORE.INTER.SOLV>
24.0736

>  <SCORE.INTER.VDW>
-26.3684

>  <SCORE.INTER.norm>
-0.780586

>  <SCORE.INTRA>
-6.61344

>  <SCORE.INTRA.DIHEDRAL>
-4.72471

>  <SCORE.INTRA.DIHEDRAL.0>
11.6398

>  <SCORE.INTRA.POLAR>
0

>  <SCORE.INTRA.POLAR.0>
0

>  <SCORE.INTRA.REPUL>
0

>  <SCORE.INTRA.REPUL.0>
0

>  <SCORE.INTRA.SOLV>
0.469716

>  <SCORE.INTRA.SOLV.lig_0>
-81.722

>  <SCORE.INTRA.VDW>
-4.48595

>  <SCORE.INTRA.VDW.0>
1.12598

>  <SCORE.INTRA.norm>
-0.254363

>  <SCORE.RESTR>
0

>  <SCORE.RESTR.CAVITY>
0

>  <SCORE.RESTR.norm>
0

>  <SCORE.SYSTEM>
0

>  <SCORE.SYSTEM.CONST>
0

>  <SCORE.SYSTEM.DIHEDRAL>
0

>  <SCORE.SYSTEM.SOLV>
0

>  <SCORE.SYSTEM.norm>
0

>  <SCORE.heavy>
26

>  <SCORE.norm>
-1.03495

>  <RMSD>
3.267

$$$$
ligand
 OpenBabel11021811433D
libRbt.so/2013.1/901 2013/11/27
 26 27  0  0  0  0  0  0  0  0999 V2000
   18.1091   39.7734   65.6011 C   0  0  0  0  0  0  0  0  0  0  0  0
   24.4498   44.6940   65.0361 C   0  0  0  0  0  0  0  0  0  0  0  0
   28.2757   40.0312   67.1346 P   0  0  1  0  0  0  0  0  0  0  0  0
   26.4191   38.2957   67.6123 P   0  0  1  0  0  0  0  0  0  0  0  0
   21.9375   43.9641   66.0486 C   0  0  0  0  0  0  0  0  0  0  0  0
   21.3230   41.5420   65.7882 C   0  0  0  0  0  0  0  0  0  0  0  0
   20.9231   42.8559   65.9302 C   0  0  0  0  0  0  0  0  0  0  0  0
   19.5550   43.1317   65.9616 C   0  0  0  0  0  0  0  0  0  0  0  0
   19.1018   44.4349   66.1020 N   0  0  0  0  0  0  0  0  0  0  0  0
   18.6919   42.1264   65.8491 N   0  0  0  0  0  0  0  0  0  0  0  0
   19.1173   40.8864   65.7200 C   0  0  0  0  0  0  0  0  0  0  0  0
   20.4024   40.5926   65.6865 N   0  0  0  0  0  0  0  0  0  0  0  0
   29.6538   40.4658   67.4564 O   0  5  0  0  0  0  0  0  0  0  0  0
   25.4259   39.4727   67.4916 O   0  0  0  0  0  0  0  0  0  0  0  0
   24.6754   42.3439   68.1615 S   0  0  0  0  0  0  0  0  0  0  0  0
   23.0191   42.6694   67.7516 C   0  0  0  0  0  0  0  0  0  0  0  0
   28.2196   39.5030   65.6161 O   0  0  0  0  0  0  0  0  0  0  0  0
   26.6053   37.5993   66.1734 O   0  5  0  0  0  0  0  0  0  0  0  0
   23.1427   43.4552   66.7070 N   0  0  0  0  0  0  0  0  0  0  0  0
   27.8412   38.8442   68.1325 O   0  0  0  0  0  0  0  0  0  0  0  0
   25.8687   37.2597   68.6181 O   0  0  0  0  0  0  0  0  0  0  0  0
   24.3243   43.7916   66.2377 C   0  0  2  0  0  0  0  0  0  0  0  0
   25.4295   43.3139   66.8644 C   0  0  2  0  0  0  0  0  0  0  0  0
   26.8860   43.5362   66.5513 C   0  0  0  0  0  0  0  0  0  0  0  0
   27.5573   42.1932   66.2553 C   0  0  0  0  0  0  0  0  0  0  0  0
   27.2657   41.2732   67.3092 O   0  0  0  0  0  0  0  0  0  0  0  0
  1 11  1  0  0  0  0
  3 13  1  1  0  0  0
  3 17  2  0  0  0  0
  3 20  1  0  0  0  0
  3 26  1  0  0  0  0
  4 14  1  6  0  0  0
  4 18  1  0  0  0  0
  4 21  2  0  0  0  0
  4 20  1  0  0  0  0
  5 19  1  0  0  0  0
  5  7  1  0  0  0  0
  6  7  2  0  0  0  0
  6 12  1  0  0  0  0
  7  8  1  0  0  0  0
  8  9  1  0  0  0  0
  8 10  2  0  0  0  0
 10 11  1  0  0  0  0
 11 12  2  0  0  0  0
 15 23  1  0  0  0  0
 15 16  1  0  0  0  0
 16 19  1  0  0  0  0
 19 22  1  0  0  0  0
 22  2  1  1  0  0  0
 22 23  1  0  0  0  0
 23 24  1  6  0  0  0
 24 25  1  0  0  0  0
 25 26  1  0  0  0  0
M  CHG  2  13  -1  18  -1
M  END
>  <CHROM.1>
-172.97598434,-42.78034932,-30.96183843,-53.81105339,59.76403526,-51.17560077
-166.22884200,69.57462442,24.47223672,41.20555746,66.76157249,2.77087365
-0.12359005,-0.12022498

>  <Name>
ligand

>  <RI>
0

>  <Rbt.Current_Directory>
/home/itssahil/PROJECTS/Mol_Feturizer/New_Systems/rnas/2HOJ

>  <Rbt.Executable>
rbdock ($Id: //depot/dev/client3/rdock/2013.1/src/exe/rbdock.cxx#4 $)

>  <Rbt.Library>
libRbt.so (2013.1, Build901 2013/11/27)

>  <Rbt.Parameter_File>
/export/apps/rDock/src/rDock_2013.1_src/data/scripts/dock_solv.prm

>  <Rbt.Receptor>
prm/pocket_docking_5.prm

>  <SCORE>
-18.4232

>  <SCORE.INTER>
-13.1421

>  <SCORE.INTER.CONST>
1

>  <SCORE.INTER.POLAR>
-1.29763

>  <SCORE.INTER.ROT>
8

>  <SCORE.INTER.SOLV>
25.2284

>  <SCORE.INTER.VDW>
-21.7787

>  <SCORE.INTER.norm>
-0.505464

>  <SCORE.INTRA>
-5.28118

>  <SCORE.INTRA.DIHEDRAL>
-4.99844

>  <SCORE.INTRA.DIHEDRAL.0>
11.6398

>  <SCORE.INTRA.POLAR>
0

>  <SCORE.INTRA.POLAR.0>
0

>  <SCORE.INTRA.REPUL>
0

>  <SCORE.INTRA.REPUL.0>
0

>  <SCORE.INTRA.SOLV>
-0.139074

>  <SCORE.INTRA.SOLV.lig_0>
-81.722

>  <SCORE.INTRA.VDW>
-2.71242

>  <SCORE.INTRA.VDW.0>
1.12598

>  <SCORE.INTRA.norm>
-0.203122

>  <SCORE.RESTR>
0

>  <SCORE.RESTR.CAVITY>
0

>  <SCORE.RESTR.norm>
0

>  <SCORE.SYSTEM>
0

>  <SCORE.SYSTEM.CONST>
0

>  <SCORE.SYSTEM.DIHEDRAL>
0

>  <SCORE.SYSTEM.SOLV>
0

>  <SCORE.SYSTEM.norm>
0

>  <SCORE.heavy>
26

>  <SCORE.norm>
-0.708586

>  <RMSD>
3.271

$$$$
ligand
 OpenBabel11021811433D
libRbt.so/2013.1/901 2013/11/27
 26 27  0  0  0  0  0  0  0  0999 V2000
   19.1607   43.1694   65.7893 C   0  0  0  0  0  0  0  0  0  0  0  0
   23.1968   37.8449   69.2210 C   0  0  0  0  0  0  0  0  0  0  0  0
   29.5309   38.8701   67.1785 P   0  0  1  0  0  0  0  0  0  0  0  0
   29.5727   36.8728   65.5365 P   0  0  1  0  0  0  0  0  0  0  0  0
   21.1470   38.0570   67.3177 C   0  0  0  0  0  0  0  0  0  0  0  0
   19.4776   39.5279   66.1508 C   0  0  0  0  0  0  0  0  0  0  0  0
   20.6224   39.4108   66.9138 C   0  0  0  0  0  0  0  0  0  0  0  0
   21.2815   40.5786   67.3019 C   0  0  0  0  0  0  0  0  0  0  0  0
   22.4357   40.5149   68.0682 N   0  0  0  0  0  0  0  0  0  0  0  0
   20.7894   41.7537   66.9209 N   0  0  0  0  0  0  0  0  0  0  0  0
   19.6910   41.8196   66.1967 C   0  0  0  0  0  0  0  0  0  0  0  0
   19.0452   40.7356   65.8136 N   0  0  0  0  0  0  0  0  0  0  0  0
   30.3213   39.7136   68.1033 O   0  5  0  0  0  0  0  0  0  0  0  0
   28.7213   37.7432   64.5859 O   0  0  0  0  0  0  0  0  0  0  0  0
   24.5040   37.7032   65.5314 S   0  0  0  0  0  0  0  0  0  0  0  0
   22.7770   37.8861   65.5683 C   0  0  0  0  0  0  0  0  0  0  0  0
   28.8164   39.8020   66.0790 O   0  0  0  0  0  0  0  0  0  0  0  0
   30.4954   35.8768   64.6724 O   0  5  0  0  0  0  0  0  0  0  0  0
   22.5298   37.9115   66.8576 N   0  0  0  0  0  0  0  0  0  0  0  0
   30.5070   37.8222   66.4418 O   0  0  0  0  0  0  0  0  0  0  0  0
   28.6400   36.0469   66.4509 O   0  0  0  0  0  0  0  0  0  0  0  0
   23.4968   37.8128   67.7436 C   0  0  2  0  0  0  0  0  0  0  0  0
   24.7712   37.6736   67.2976 C   0  0  2  0  0  0  0  0  0  0  0  0
   26.0540   37.5364   68.0752 C   0  0  0  0  0  0  0  0  0  0  0  0
   27.1530   38.3600   67.3999 C   0  0  0  0  0  0  0  0  0  0  0  0
   28.4112   38.0646   68.0096 O   0  0  0  0  0  0  0  0  0  0  0  0
  1 11  1  0  0  0  0
  3 13  1  1  0  0  0
  3 17  2  0  0  0  0
  3 20  1  0  0  0  0
  3 26  1  0  0  0  0
  4 14  1  6  0  0  0
  4 18  1  0  0  0  0
  4 21  2  0  0  0  0
  4 20  1  0  0  0  0
  5 19  1  0  0  0  0
  5  7  1  0  0  0  0
  6  7  2  0  0  0  0
  6 12  1  0  0  0  0
  7  8  1  0  0  0  0
  8  9  1  0  0  0  0
  8 10  2  0  0  0  0
 10 11  1  0  0  0  0
 11 12  2  0  0  0  0
 15 23  1  0  0  0  0
 15 16  1  0  0  0  0
 16 19  1  0  0  0  0
 19 22  1  0  0  0  0
 22  2  1  1  0  0  0
 22 23  1  0  0  0  0
 23 24  1  1  0  0  0
 24 25  1  0  0  0  0
 25 26  1  0  0  0  0
M  CHG  2  13  -1  18  -1
M  END
>  <CHROM.1>
176.03756947,-65.34716084,123.48971476,55.16165620,40.41585485,-170.92878370
175.56342478,125.37815841,25.35613213,38.64995568,66.64671601,-2.85280476
0.04167264,-2.88442321

>  <Name>
ligand

>  <RI>
0

>  <Rbt.Current_Directory>
/home/itssahil/PROJECTS/Mol_Feturizer/New_Systems/rnas/2HOJ

>  <Rbt.Executable>
rbdock ($Id: //depot/dev/client3/rdock/2013.1/src/exe/rbdock.cxx#4 $)

>  <Rbt.Library>
libRbt.so (2013.1, Build901 2013/11/27)

>  <Rbt.Parameter_File>
/export/apps/rDock/src/rDock_2013.1_src/data/scripts/dock_solv.prm

>  <Rbt.Receptor>
prm/pocket_docking_8.prm

>  <SCORE>
-19.9288

>  <SCORE.INTER>
-18.897

>  <SCORE.INTER.CONST>
1

>  <SCORE.INTER.POLAR>
-1.25668

>  <SCORE.INTER.ROT>
8

>  <SCORE.INTER.SOLV>
19.879

>  <SCORE.INTER.VDW>
-23.9688

>  <SCORE.INTER.norm>
-0.726809

>  <SCORE.INTRA>
-1.0318

>  <SCORE.INTRA.DIHEDRAL>
-3.79713

>  <SCORE.INTRA.DIHEDRAL.0>
11.6398

>  <SCORE.INTRA.POLAR>
0

>  <SCORE.INTRA.POLAR.0>
0

>  <SCORE.INTRA.REPUL>
0

>  <SCORE.INTRA.REPUL.0>
0

>  <SCORE.INTRA.SOLV>
5.35005

>  <SCORE.INTRA.SOLV.lig_0>
-81.722

>  <SCORE.INTRA.VDW>
-1.80826

>  <SCORE.INTRA.VDW.0>
1.12598

>  <SCORE.INTRA.norm>
-0.0396847

>  <SCORE.RESTR>
0

>  <SCORE.RESTR.CAVITY>
0

>  <SCORE.RESTR.norm>
0

>  <SCORE.SYSTEM>
0

>  <SCORE.SYSTEM.CONST>
0

>  <SCORE.SYSTEM.DIHEDRAL>
0

>  <SCORE.SYSTEM.SOLV>
0

>  <SCORE.SYSTEM.norm>
0

>  <SCORE.heavy>
26

>  <SCORE.norm>
-0.766494

>  <RMSD>
3.276

$$$$
ligand
 OpenBabel11021811433D
libRbt.so/2013.1/901 2013/11/27
 26 27  0  0  0  0  0  0  0  0999 V2000
   21.1680   44.9499   66.4413 C   0  0  0  0  0  0  0  0  0  0  0  0
   21.3717   38.9263   68.4466 C   0  0  0  0  0  0  0  0  0  0  0  0
   27.5407   38.2047   68.0012 P   0  0  1  0  0  0  0  0  0  0  0  0
   28.3119   39.0945   70.3034 P   0  0  1  0  0  0  0  0  0  0  0  0
   19.7513   39.4399   66.2150 C   0  0  0  0  0  0  0  0  0  0  0  0
   21.3978   41.2893   66.6396 C   0  0  0  0  0  0  0  0  0  0  0  0
   20.1249   40.8987   66.2745 C   0  0  0  0  0  0  0  0  0  0  0  0
   19.1926   41.8894   65.9616 C   0  0  0  0  0  0  0  0  0  0  0  0
   17.9005   41.5492   65.5896 N   0  0  0  0  0  0  0  0  0  0  0  0
   19.5601   43.1655   66.0311 N   0  0  0  0  0  0  0  0  0  0  0  0
   20.7873   43.4936   66.3796 C   0  0  0  0  0  0  0  0  0  0  0  0
   21.6911   42.5821   66.6815 N   0  0  0  0  0  0  0  0  0  0  0  0
   27.3133   39.6344   67.6918 O   0  5  0  0  0  0  0  0  0  0  0  0
   26.8019   38.9850   70.6100 O   0  0  0  0  0  0  0  0  0  0  0  0
   22.7325   37.3027   65.1521 S   0  0  0  0  0  0  0  0  0  0  0  0
   21.2586   38.1708   64.8499 C   0  0  0  0  0  0  0  0  0  0  0  0
   27.9963   37.4318   66.6659 O   0  0  0  0  0  0  0  0  0  0  0  0
   29.1568   38.7258   71.6227 O   0  5  0  0  0  0  0  0  0  0  0  0
   20.9608   38.6323   66.0425 N   0  0  0  0  0  0  0  0  0  0  0  0
   28.6945   38.0746   69.1171 O   0  0  0  0  0  0  0  0  0  0  0  0
   28.6444   40.5390   69.8665 O   0  0  0  0  0  0  0  0  0  0  0  0
   21.7266   38.3881   67.0835 C   0  0  2  0  0  0  0  0  0  0  0  0
   22.8407   37.6335   66.9044 C   0  0  2  0  0  0  0  0  0  0  0  0
   23.8806   37.1994   67.9039 C   0  0  0  0  0  0  0  0  0  0  0  0
   25.1100   38.1037   67.7897 C   0  0  0  0  0  0  0  0  0  0  0  0
   26.1790   37.5526   68.5614 O   0  0  0  0  0  0  0  0  0  0  0  0
  1 11  1  0  0  0  0
  3 13  1  6  0  0  0
  3 17  2  0  0  0  0
  3 20  1  0  0  0  0
  3 26  1  0  0  0  0
  4 14  1  1  0  0  0
  4 18  1  0  0  0  0
  4 21  2  0  0  0  0
  4 20  1  0  0  0  0
  5 19  1  0  0  0  0
  5  7  1  0  0  0  0
  6  7  2  0  0  0  0
  6 12  1  0  0  0  0
  7  8  1  0  0  0  0
  8  9  1  0  0  0  0
  8 10  2  0  0  0  0
 10 11  1  0  0  0  0
 11 12  2  0  0  0  0
 15 23  1  0  0  0  0
 15 16  1  0  0  0  0
 16 19  1  0  0  0  0
 19 22  1  0  0  0  0
 22  2  1  1  0  0  0
 22 23  1  0  0  0  0
 23 24  1  6  0  0  0
 24 25  1  0  0  0  0
 25 26  1  0  0  0  0
M  CHG  2  13  -1  18  -1
M  END
>  <CHROM.1>
49.15693186,-100.99876485,-22.91129728,43.60207962,79.73176548,-169.80360829
160.00249020,39.48639246,24.07782402,39.45901551,67.55516561,-2.97874212
0.46693231,-2.82876224

>  <Name>
ligand

>  <RI>
0

>  <Rbt.Current_Directory>
/home/itssahil/PROJECTS/Mol_Feturizer/New_Systems/rnas/2HOJ

>  <Rbt.Executable>
rbdock ($Id: //depot/dev/client3/rdock/2013.1/src/exe/rbdock.cxx#4 $)

>  <Rbt.Library>
libRbt.so (2013.1, Build901 2013/11/27)

>  <Rbt.Parameter_File>
/export/apps/rDock/src/rDock_2013.1_src/data/scripts/dock_solv.prm

>  <Rbt.Receptor>
prm/pocket_docking_6.prm

>  <SCORE>
-17.7801

>  <SCORE.INTER>
-14.5017

>  <SCORE.INTER.CONST>
1

>  <SCORE.INTER.POLAR>
-1.25671

>  <SCORE.INTER.ROT>
8

>  <SCORE.INTER.SOLV>
27.5646

>  <SCORE.INTER.VDW>
-23.6003

>  <SCORE.INTER.norm>
-0.557758

>  <SCORE.INTRA>
-3.3228

>  <SCORE.INTRA.DIHEDRAL>
-3.22567

>  <SCORE.INTRA.DIHEDRAL.0>
11.6398

>  <SCORE.INTRA.POLAR>
0

>  <SCORE.INTRA.POLAR.0>
0

>  <SCORE.INTRA.REPUL>
0

>  <SCORE.INTRA.REPUL.0>
0

>  <SCORE.INTRA.SOLV>
-0.430899

>  <SCORE.INTRA.SOLV.lig_0>
-81.722

>  <SCORE.INTRA.VDW>
-1.49451

>  <SCORE.INTRA.VDW.0>
1.12598

>  <SCORE.INTRA.norm>
-0.1278

>  <SCORE.RESTR>
0.0444153

>  <SCORE.RESTR.CAVITY>
0.0444153

>  <SCORE.RESTR.norm>
0.00170828

>  <SCORE.SYSTEM>
0

>  <SCORE.SYSTEM.CONST>
0

>  <SCORE.SYSTEM.DIHEDRAL>
0

>  <SCORE.SYSTEM.SOLV>
0

>  <SCORE.SYSTEM.norm>
0

>  <SCORE.heavy>
26

>  <SCORE.norm>
-0.683849

>  <RMSD>
3.337

$$$$
ligand
 OpenBabel11021811433D
libRbt.so/2013.1/901 2013/11/27
 26 27  0  0  0  0  0  0  0  0999 V2000
   21.9706   45.0863   67.2685 C   0  0  0  0  0  0  0  0  0  0  0  0
   22.1467   39.5234   64.8105 C   0  0  0  0  0  0  0  0  0  0  0  0
   26.7505   38.9368   68.1083 P   0  0  1  0  0  0  0  0  0  0  0  0
   27.0569   41.4364   68.6957 P   0  0  1  0  0  0  0  0  0  0  0  0
   19.8327   39.8891   66.3536 C   0  0  0  0  0  0  0  0  0  0  0  0
   21.5274   41.4414   67.3687 C   0  0  0  0  0  0  0  0  0  0  0  0
   20.3975   41.2653   66.5950 C   0  0  0  0  0  0  0  0  0  0  0  0
   19.7915   42.3946   66.0417 C   0  0  0  0  0  0  0  0  0  0  0  0
   18.6542   42.2714   65.2575 N   0  0  0  0  0  0  0  0  0  0  0  0
   20.3178   43.5919   66.2824 N   0  0  0  0  0  0  0  0  0  0  0  0
   21.4003   43.7138   67.0229 C   0  0  0  0  0  0  0  0  0  0  0  0
   21.9963   42.6672   67.5601 N   0  0  0  0  0  0  0  0  0  0  0  0
   27.7263   39.2429   67.0379 O   0  5  0  0  0  0  0  0  0  0  0  0
   26.5017   42.5284   69.6367 O   0  0  0  0  0  0  0  0  0  0  0  0
   21.9806   37.1468   67.9195 S   0  0  0  0  0  0  0  0  0  0  0  0
   20.5791   38.1708   67.8490 C   0  0  0  0  0  0  0  0  0  0  0  0
   27.5277   38.3712   69.3982 O   0  0  0  0  0  0  0  0  0  0  0  0
   28.3940   40.8064   69.3326 O   0  5  0  0  0  0  0  0  0  0  0  0
   20.8098   38.8802   66.7686 N   0  0  0  0  0  0  0  0  0  0  0  0
   25.9537   40.2784   68.5069 O   0  0  0  0  0  0  0  0  0  0  0  0
   27.3866   42.0612   67.3213 O   0  0  0  0  0  0  0  0  0  0  0  0
   21.8967   38.7016   66.0498 C   0  0  2  0  0  0  0  0  0  0  0  0
   22.7928   37.7652   66.4533 C   0  0  2  0  0  0  0  0  0  0  0  0
   24.1045   37.3581   65.8350 C   0  0  0  0  0  0  0  0  0  0  0  0
   25.2133   38.2931   66.3234 C   0  0  0  0  0  0  0  0  0  0  0  0
   25.7053   37.8303   67.5826 O   0  0  0  0  0  0  0  0  0  0  0  0
  1 11  1  0  0  0  0
  3 13  1  6  0  0  0
  3 17  2  0  0  0  0
  3 20  1  0  0  0  0
  3 26  1  0  0  0  0
  4 14  1  1  0  0  0
  4 18  1  0  0  0  0
  4 21  2  0  0  0  0
  4 20  1  0  0  0  0
  5 19  1  0  0  0  0
  5  7  1  0  0  0  0
  6  7  2  0  0  0  0
  6 12  1  0  0  0  0
  7  8  1  0  0  0  0
  8  9  1  0  0  0  0
  8 10  2  0  0  0  0
 10 11  1  0  0  0  0
 11 12  2  0  0  0  0
 15 23  1  0  0  0  0
 15 16  1  0  0  0  0
 16 19  1  0  0  0  0
 19 22  1  0  0  0  0
 22  2  1  1  0  0  0
 22 23  1  0  0  0  0
 23 24  1  6  0  0  0
 24 25  1  0  0  0  0
 25 26  1  0  0  0  0
M  CHG  2  13  -1  18  -1
M  END
>  <CHROM.1>
-47.34981852,108.75639670,-13.13731270,-155.47662135,-95.14000101,84.45871101
-174.15664545,-50.54321833,23.81139745,40.21520911,67.38325683,-2.97802944
0.29945540,-3.06028141

>  <Name>
ligand

>  <RI>
0

>  <Rbt.Current_Directory>
/home/itssahil/PROJECTS/Mol_Feturizer/New_Systems/rnas/2HOJ

>  <Rbt.Executable>
rbdock ($Id: //depot/dev/client3/rdock/2013.1/src/exe/rbdock.cxx#4 $)

>  <Rbt.Library>
libRbt.so (2013.1, Build901 2013/11/27)

>  <Rbt.Parameter_File>
/export/apps/rDock/src/rDock_2013.1_src/data/scripts/dock_solv.prm

>  <Rbt.Receptor>
prm/pocket_docking_5.prm

>  <SCORE>
-16.696

>  <SCORE.INTER>
-14.3141

>  <SCORE.INTER.CONST>
1

>  <SCORE.INTER.POLAR>
-1.29904

>  <SCORE.INTER.ROT>
8

>  <SCORE.INTER.SOLV>
24.3884

>  <SCORE.INTER.VDW>
-22.2754

>  <SCORE.INTER.norm>
-0.550543

>  <SCORE.INTRA>
-2.38188

>  <SCORE.INTRA.DIHEDRAL>
-3.44527

>  <SCORE.INTRA.DIHEDRAL.0>
11.6398

>  <SCORE.INTRA.POLAR>
0

>  <SCORE.INTRA.POLAR.0>
0

>  <SCORE.INTRA.REPUL>
0

>  <SCORE.INTRA.REPUL.0>
0

>  <SCORE.INTRA.SOLV>
3.29825

>  <SCORE.INTRA.SOLV.lig_0>
-81.722

>  <SCORE.INTRA.VDW>
-2.30837

>  <SCORE.INTRA.VDW.0>
1.12598

>  <SCORE.INTRA.norm>
-0.0916107

>  <SCORE.RESTR>
0

>  <SCORE.RESTR.CAVITY>
0

>  <SCORE.RESTR.norm>
0

>  <SCORE.SYSTEM>
0

>  <SCORE.SYSTEM.CONST>
0

>  <SCORE.SYSTEM.DIHEDRAL>
0

>  <SCORE.SYSTEM.SOLV>
0

>  <SCORE.SYSTEM.norm>
0

>  <SCORE.heavy>
26

>  <SCORE.norm>
-0.642153

>  <RMSD>
3.340

$$$$
ligand
 OpenBabel11021811433D
libRbt.so/2013.1/901 2013/11/27
 26 27  0  0  0  0  0  0  0  0999 V2000
   17.6194   40.3179   65.2294 C   0  0  0  0  0  0  0  0  0  0  0  0
   23.9402   43.7642   67.8936 C   0  0  0  0  0  0  0  0  0  0  0  0
   27.9361   40.5056   67.2395 P   0  0  1  0  0  0  0  0  0  0  0  0
   29.6008   38.6284   67.8654 P   0  0  1  0  0  0  0  0  0  0  0  0
   21.4079   44.2686   66.7970 C   0  0  0  0  0  0  0  0  0  0  0  0
   19.1900   43.5822   65.8370 C   0  0  0  0  0  0  0  0  0  0  0  0
   20.4060   43.2218   66.3826 C   0  0  0  0  0  0  0  0  0  0  0  0
   20.6841   41.8630   66.5403 C   0  0  0  0  0  0  0  0  0  0  0  0
   21.8911   41.4490   67.0838 N   0  0  0  0  0  0  0  0  0  0  0  0
   19.7717   40.9706   66.1668 N   0  0  0  0  0  0  0  0  0  0  0  0
   18.6257   41.3586   65.6460 C   0  0  0  0  0  0  0  0  0  0  0  0
   18.3324   42.6340   65.4840 N   0  0  0  0  0  0  0  0  0  0  0  0
   27.6406   39.6139   66.0953 O   0  5  0  0  0  0  0  0  0  0  0  0
   30.9122   38.2943   68.6103 O   0  0  0  0  0  0  0  0  0  0  0  0
   24.0160   44.2463   64.0072 S   0  0  0  0  0  0  0  0  0  0  0  0
   22.3975   44.4044   64.6179 C   0  0  0  0  0  0  0  0  0  0  0  0
   26.8899   40.2200   68.4276 O   0  0  0  0  0  0  0  0  0  0  0  0
   28.3525   38.0070   68.6689 O   0  5  0  0  0  0  0  0  0  0  0  0
   22.5687   44.2141   65.9057 N   0  0  0  0  0  0  0  0  0  0  0  0
   29.4332   40.2269   67.7636 O   0  0  0  0  0  0  0  0  0  0  0  0
   29.6493   38.0252   66.4435 O   0  0  0  0  0  0  0  0  0  0  0  0
   23.7596   43.9794   66.4121 C   0  0  2  0  0  0  0  0  0  0  0  0
   24.8224   43.9278   65.5693 C   0  0  2  0  0  0  0  0  0  0  0  0
   26.2771   43.6761   65.8682 C   0  0  0  0  0  0  0  0  0  0  0  0
   26.4597   42.2341   66.3474 C   0  0  0  0  0  0  0  0  0  0  0  0
   27.8108   42.0411   66.7706 O   0  0  0  0  0  0  0  0  0  0  0  0
  1 11  1  0  0  0  0
  3 13  1  6  0  0  0
  3 17  2  0  0  0  0
  3 20  1  0  0  0  0
  3 26  1  0  0  0  0
  4 14  1  1  0  0  0
  4 18  1  0  0  0  0
  4 21  2  0  0  0  0
  4 20  1  0  0  0  0
  5 19  1  0  0  0  0
  5  7  1  0  0  0  0
  6  7  2  0  0  0  0
  6 12  1  0  0  0  0
  7  8  1  0  0  0  0
  8  9  1  0  0  0  0
  8 10  2  0  0  0  0
 10 11  1  0  0  0  0
 11 12  2  0  0  0  0
 15 23  1  0  0  0  0
 15 16  1  0  0  0  0
 16 19  1  0  0  0  0
 19 22  1  0  0  0  0
 22  2  1  6  0  0  0
 22 23  1  0  0  0  0
 23 24  1  1  0  0  0
 24 25  1  0  0  0  0
 25 26  1  0  0  0  0
M  CHG  2  13  -1  18  -1
M  END
>  <CHROM.1>
-46.22803630,59.41741732,-111.46978178,-169.40564513,-112.86500763,-173.62479429
-179.21735167,61.35440208,24.82819252,41.56462439,66.55674663,2.72180690
-0.06931206,-0.34389625

>  <Name>
ligand

>  <RI>
0

>  <Rbt.Current_Directory>
/home/itssahil/PROJECTS/Mol_Feturizer/New_Systems/rnas/2HOJ

>  <Rbt.Executable>
rbdock ($Id: //depot/dev/client3/rdock/2013.1/src/exe/rbdock.cxx#4 $)

>  <Rbt.Library>
libRbt.so (2013.1, Build901 2013/11/27)

>  <Rbt.Parameter_File>
/export/apps/rDock/src/rDock_2013.1_src/data/scripts/dock_solv.prm

>  <Rbt.Receptor>
prm/pocket_docking_7.prm

>  <SCORE>
-29.5602

>  <SCORE.INTER>
-26.4987

>  <SCORE.INTER.CONST>
1

>  <SCORE.INTER.POLAR>
-2.33184

>  <SCORE.INTER.ROT>
8

>  <SCORE.INTER.SOLV>
16.5754

>  <SCORE.INTER.VDW>
-24.3515

>  <SCORE.INTER.norm>
-1.01918

>  <SCORE.INTRA>
-3.06152

>  <SCORE.INTRA.DIHEDRAL>
-6.41561

>  <SCORE.INTRA.DIHEDRAL.0>
11.6398

>  <SCORE.INTRA.POLAR>
0

>  <SCORE.INTRA.POLAR.0>
0

>  <SCORE.INTRA.REPUL>
0

>  <SCORE.INTRA.REPUL.0>
0

>  <SCORE.INTRA.SOLV>
6.489

>  <SCORE.INTRA.SOLV.lig_0>
-81.722

>  <SCORE.INTRA.VDW>
-3.09821

>  <SCORE.INTRA.VDW.0>
1.12598

>  <SCORE.INTRA.norm>
-0.117751

>  <SCORE.RESTR>
0

>  <SCORE.RESTR.CAVITY>
0

>  <SCORE.RESTR.norm>
0

>  <SCORE.SYSTEM>
0

>  <SCORE.SYSTEM.CONST>
0

>  <SCORE.SYSTEM.DIHEDRAL>
0

>  <SCORE.SYSTEM.SOLV>
0

>  <SCORE.SYSTEM.norm>
0

>  <SCORE.heavy>
26

>  <SCORE.norm>
-1.13693

>  <RMSD>
3.358

$$$$
ligand
 OpenBabel11021811433D
libRbt.so/2013.1/901 2013/11/27
 26 27  0  0  0  0  0  0  0  0999 V2000
   15.4691   39.2132   63.7902 C   0  0  0  0  0  0  0  0  0  0  0  0
   22.5803   40.2426   68.1333 C   0  0  0  0  0  0  0  0  0  0  0  0
   26.7698   40.9068   65.7678 P   0  0  1  0  0  0  0  0  0  0  0  0
   27.7139   43.1115   64.8011 P   0  0  1  0  0  0  0  0  0  0  0  0
   20.3172   40.4818   66.4930 C   0  0  0  0  0  0  0  0  0  0  0  0
   18.5290   38.8625   65.7917 C   0  0  0  0  0  0  0  0  0  0  0  0
   19.0339   40.1474   65.7771 C   0  0  0  0  0  0  0  0  0  0  0  0
   18.3252   41.1293   65.0825 C   0  0  0  0  0  0  0  0  0  0  0  0
   18.7904   42.4350   65.0371 N   0  0  0  0  0  0  0  0  0  0  0  0
   17.1996   40.7927   64.4596 N   0  0  0  0  0  0  0  0  0  0  0  0
   16.7513   39.5549   64.5034 C   0  0  0  0  0  0  0  0  0  0  0  0
   17.3970   38.6044   65.1504 N   0  0  0  0  0  0  0  0  0  0  0  0
   26.8045   40.4259   64.3681 O   0  5  0  0  0  0  0  0  0  0  0  0
   29.1028   42.5863   65.2270 O   0  0  0  0  0  0  0  0  0  0  0  0
   22.6086   37.7610   65.1030 S   0  0  0  0  0  0  0  0  0  0  0  0
   21.1761   38.7433   65.0837 C   0  0  0  0  0  0  0  0  0  0  0  0
   28.1462   40.5177   66.5039 O   0  0  0  0  0  0  0  0  0  0  0  0
   27.4089   42.6592   63.2870 O   0  5  0  0  0  0  0  0  0  0  0  0
   21.3405   39.4919   66.1498 N   0  0  0  0  0  0  0  0  0  0  0  0
   26.5875   42.5068   65.7805 O   0  0  0  0  0  0  0  0  0  0  0  0
   27.6982   44.6542   64.8904 O   0  0  0  0  0  0  0  0  0  0  0  0
   22.4052   39.3744   66.9129 C   0  0  2  0  0  0  0  0  0  0  0  0
   23.3401   38.4480   66.5811 C   0  0  2  0  0  0  0  0  0  0  0  0
   24.6355   38.0990   67.2660 C   0  0  0  0  0  0  0  0  0  0  0  0
   25.7934   38.8166   66.5686 C   0  0  0  0  0  0  0  0  0  0  0  0
   25.5346   40.2217   66.5412 O   0  0  0  0  0  0  0  0  0  0  0  0
  1 11  1  0  0  0  0
  3 13  1  6  0  0  0
  3 17  2  0  0  0  0
  3 20  1  0  0  0  0
  3 26  1  0  0  0  0
  4 14  1  1  0  0  0
  4 18  1  0  0  0  0
  4 21  2  0  0  0  0
  4 20  1  0  0  0  0
  5 19  1  0  0  0  0
  5  7  1  0  0  0  0
  6  7  2  0  0  0  0
  6 12  1  0  0  0  0
  7  8  1  0  0  0  0
  8  9  1  0  0  0  0
  8 10  2  0  0  0  0
 10 11  1  0  0  0  0
 11 12  2  0  0  0  0
 15 23  1  0  0  0  0
 15 16  1  0  0  0  0
 16 19  1  0  0  0  0
 19 22  1  0  0  0  0
 22  2  1  1  0  0  0
 22 23  1  0  0  0  0
 23 24  1  6  0  0  0
 24 25  1  0  0  0  0
 25 26  1  0  0  0  0
M  CHG  2  13  -1  18  -1
M  END
>  <CHROM.1>
-51.20077062,18.16104061,47.93674340,-53.73736510,81.99310943,55.46540666
-178.73177078,63.55977410,23.33534635,40.47520911,65.52154747,2.92269917
0.11675700,2.73568781

>  <Name>
ligand

>  <RI>
0

>  <Rbt.Current_Directory>
/home/itssahil/PROJECTS/Mol_Feturizer/New_Systems/rnas/2HOJ

>  <Rbt.Executable>
rbdock ($Id: //depot/dev/client3/rdock/2013.1/src/exe/rbdock.cxx#4 $)

>  <Rbt.Library>
libRbt.so (2013.1, Build901 2013/11/27)

>  <Rbt.Parameter_File>
/export/apps/rDock/src/rDock_2013.1_src/data/scripts/dock_solv.prm

>  <Rbt.Receptor>
prm/pocket_docking_7.prm

>  <SCORE>
-20.9425

>  <SCORE.INTER>
-16.7687

>  <SCORE.INTER.CONST>
1

>  <SCORE.INTER.POLAR>
0

>  <SCORE.INTER.ROT>
8

>  <SCORE.INTER.SOLV>
19.895

>  <SCORE.INTER.VDW>
-26.7442

>  <SCORE.INTER.norm>
-0.644952

>  <SCORE.INTRA>
-4.17377

>  <SCORE.INTRA.DIHEDRAL>
-6.37754

>  <SCORE.INTRA.DIHEDRAL.0>
11.6398

>  <SCORE.INTRA.POLAR>
0

>  <SCORE.INTRA.POLAR.0>
0

>  <SCORE.INTRA.REPUL>
0

>  <SCORE.INTRA.REPUL.0>
0

>  <SCORE.INTRA.SOLV>
1.01815

>  <SCORE.INTRA.SOLV.lig_0>
-81.722

>  <SCORE.INTRA.VDW>
-1.49408

>  <SCORE.INTRA.VDW.0>
1.12598

>  <SCORE.INTRA.norm>
-0.16053

>  <SCORE.RESTR>
0

>  <SCORE.RESTR.CAVITY>
0

>  <SCORE.RESTR.norm>
0

>  <SCORE.SYSTEM>
0

>  <SCORE.SYSTEM.CONST>
0

>  <SCORE.SYSTEM.DIHEDRAL>
0

>  <SCORE.SYSTEM.SOLV>
0

>  <SCORE.SYSTEM.norm>
0

>  <SCORE.heavy>
26

>  <SCORE.norm>
-0.805482

>  <RMSD>
3.358

$$$$
ligand
 OpenBabel11021811433D
libRbt.so/2013.1/901 2013/11/27
 26 27  0  0  0  0  0  0  0  0999 V2000
   20.3175   37.2389   69.8635 C   0  0  0  0  0  0  0  0  0  0  0  0
   24.3135   42.4912   68.0857 C   0  0  0  0  0  0  0  0  0  0  0  0
   28.7050   38.7575   69.0200 P   0  0  1  0  0  0  0  0  0  0  0  0
   30.2613   38.1730   67.0393 P   0  0  1  0  0  0  0  0  0  0  0  0
   22.4670   41.2160   66.4023 C   0  0  0  0  0  0  0  0  0  0  0  0
   22.3870   39.9968   68.5975 C   0  0  0  0  0  0  0  0  0  0  0  0
   21.8971   40.1629   67.3173 C   0  0  0  0  0  0  0  0  0  0  0  0
   20.8602   39.3306   66.8922 C   0  0  0  0  0  0  0  0  0  0  0  0
   20.3335   39.4568   65.6154 N   0  0  0  0  0  0  0  0  0  0  0  0
   20.3883   38.4103   67.7281 N   0  0  0  0  0  0  0  0  0  0  0  0
   20.8821   38.2894   68.9432 C   0  0  0  0  0  0  0  0  0  0  0  0
   21.8616   39.0595   69.3751 N   0  0  0  0  0  0  0  0  0  0  0  0
   27.4853   38.1307   68.4624 O   0  5  0  0  0  0  0  0  0  0  0  0
   31.0494   36.9937   66.4274 O   0  0  0  0  0  0  0  0  0  0  0  0
   26.0086   40.1913   65.4064 S   0  0  0  0  0  0  0  0  0  0  0  0
   24.2796   40.1601   65.2424 C   0  0  0  0  0  0  0  0  0  0  0  0
   28.5943   38.8151   70.6239 O   0  0  0  0  0  0  0  0  0  0  0  0
   28.8547   38.3347   66.2740 O   0  5  0  0  0  0  0  0  0  0  0  0
   23.8967   40.9688   66.2032 N   0  0  0  0  0  0  0  0  0  0  0  0
   29.9940   37.8874   68.6016 O   0  0  0  0  0  0  0  0  0  0  0  0
   31.0820   39.4736   66.8876 O   0  0  0  0  0  0  0  0  0  0  0  0
   24.7690   41.5639   66.9874 C   0  0  2  0  0  0  0  0  0  0  0  0
   26.0893   41.3183   66.7903 C   0  0  2  0  0  0  0  0  0  0  0  0
   27.2887   41.8507   67.5298 C   0  0  0  0  0  0  0  0  0  0  0  0
   27.6224   40.9229   68.7002 C   0  0  0  0  0  0  0  0  0  0  0  0
   28.8561   40.2512   68.4378 O   0  0  0  0  0  0  0  0  0  0  0  0
  1 11  1  0  0  0  0
  3 13  1  6  0  0  0
  3 17  2  0  0  0  0
  3 20  1  0  0  0  0
  3 26  1  0  0  0  0
  4 14  1  6  0  0  0
  4 18  1  0  0  0  0
  4 21  2  0  0  0  0
  4 20  1  0  0  0  0
  5 19  1  0  0  0  0
  5  7  1  0  0  0  0
  6  7  2  0  0  0  0
  6 12  1  0  0  0  0
  7  8  1  0  0  0  0
  8  9  1  0  0  0  0
  8 10  2  0  0  0  0
 10 11  1  0  0  0  0
 11 12  2  0  0  0  0
 15 23  1  0  0  0  0
 15 16  1  0  0  0  0
 16 19  1  0  0  0  0
 19 22  1  0  0  0  0
 22  2  1  1  0  0  0
 22 23  1  0  0  0  0
 23 24  1  6  0  0  0
 24 25  1  0  0  0  0
 25 26  1  0  0  0  0
M  CHG  2  13  -1  18  -1
M  END
>  <CHROM.1>
73.93300076,87.29903005,59.41212566,-156.44644015,-90.45681983,111.08832746
-143.13915996,53.28751826,25.96062337,39.47769835,67.56561657,3.06466267
0.06852171,-0.84262147

>  <Name>
ligand

>  <RI>
0

>  <Rbt.Current_Directory>
/home/itssahil/PROJECTS/Mol_Feturizer/New_Systems/rnas/2HOJ

>  <Rbt.Executable>
rbdock ($Id: //depot/dev/client3/rdock/2013.1/src/exe/rbdock.cxx#4 $)

>  <Rbt.Library>
libRbt.so (2013.1, Build901 2013/11/27)

>  <Rbt.Parameter_File>
/export/apps/rDock/src/rDock_2013.1_src/data/scripts/dock_solv.prm

>  <Rbt.Receptor>
prm/pocket_docking_5.prm

>  <SCORE>
-10.1963

>  <SCORE.INTER>
-9.96906

>  <SCORE.INTER.CONST>
1

>  <SCORE.INTER.POLAR>
-2.30844

>  <SCORE.INTER.ROT>
8

>  <SCORE.INTER.SOLV>
24.7449

>  <SCORE.INTER.VDW>
-16.1328

>  <SCORE.INTER.norm>
-0.383425

>  <SCORE.INTRA>
-0.22728

>  <SCORE.INTRA.DIHEDRAL>
4.50813

>  <SCORE.INTRA.DIHEDRAL.0>
11.6398

>  <SCORE.INTRA.POLAR>
0

>  <SCORE.INTRA.POLAR.0>
0

>  <SCORE.INTRA.REPUL>
0

>  <SCORE.INTRA.REPUL.0>
0

>  <SCORE.INTRA.SOLV>
3.13005

>  <SCORE.INTRA.SOLV.lig_0>
-81.722

>  <SCORE.INTRA.VDW>
-4.04637

>  <SCORE.INTRA.VDW.0>
1.12598

>  <SCORE.INTRA.norm>
-0.00874153

>  <SCORE.RESTR>
0

>  <SCORE.RESTR.CAVITY>
0

>  <SCORE.RESTR.norm>
0

>  <SCORE.SYSTEM>
0

>  <SCORE.SYSTEM.CONST>
0

>  <SCORE.SYSTEM.DIHEDRAL>
0

>  <SCORE.SYSTEM.SOLV>
0

>  <SCORE.SYSTEM.norm>
0

>  <SCORE.heavy>
26

>  <SCORE.norm>
-0.392167

>  <RMSD>
3.376

$$$$
ligand
 OpenBabel11021811433D
libRbt.so/2013.1/901 2013/11/27
 26 27  0  0  0  0  0  0  0  0999 V2000
   19.3779   43.1466   65.7867 C   0  0  0  0  0  0  0  0  0  0  0  0
   22.9129   37.1199   69.5220 C   0  0  0  0  0  0  0  0  0  0  0  0
   28.0939   39.1422   68.3794 P   0  0  1  0  0  0  0  0  0  0  0  0
   27.1827   41.0918   66.9456 P   0  0  1  0  0  0  0  0  0  0  0  0
   21.1902   38.0293   67.5033 C   0  0  0  0  0  0  0  0  0  0  0  0
   19.6069   39.5076   66.2307 C   0  0  0  0  0  0  0  0  0  0  0  0
   20.7117   39.3844   67.0497 C   0  0  0  0  0  0  0  0  0  0  0  0
   21.3740   40.5472   67.4471 C   0  0  0  0  0  0  0  0  0  0  0  0
   22.4890   40.4773   68.2689 N   0  0  0  0  0  0  0  0  0  0  0  0
   20.9233   41.7235   67.0211 N   0  0  0  0  0  0  0  0  0  0  0  0
   19.8621   41.7955   66.2441 C   0  0  0  0  0  0  0  0  0  0  0  0
   19.2144   40.7162   65.8508 N   0  0  0  0  0  0  0  0  0  0  0  0
   27.9883   38.4049   67.1000 O   0  5  0  0  0  0  0  0  0  0  0  0
   26.9779   42.6135   67.1151 O   0  0  0  0  0  0  0  0  0  0  0  0
   24.7586   37.8769   66.1512 S   0  0  0  0  0  0  0  0  0  0  0  0
   23.0573   38.1978   66.0095 C   0  0  0  0  0  0  0  0  0  0  0  0
   29.5894   39.7097   68.5507 O   0  0  0  0  0  0  0  0  0  0  0  0
   28.6447   40.8106   66.3343 O   0  5  0  0  0  0  0  0  0  0  0  0
   22.6180   37.8912   67.2083 N   0  0  0  0  0  0  0  0  0  0  0  0
   27.0507   40.3691   68.3787 O   0  0  0  0  0  0  0  0  0  0  0  0
   26.1078   40.5321   65.9868 O   0  0  0  0  0  0  0  0  0  0  0  0
   23.4326   37.4667   68.1496 C   0  0  2  0  0  0  0  0  0  0  0  0
   24.7517   37.3406   67.8554 C   0  0  2  0  0  0  0  0  0  0  0  0
   25.8925   36.8805   68.7246 C   0  0  0  0  0  0  0  0  0  0  0  0
   26.3296   38.0233   69.6438 C   0  0  0  0  0  0  0  0  0  0  0  0
   27.7523   38.1504   69.6012 O   0  0  0  0  0  0  0  0  0  0  0  0
  1 11  1  0  0  0  0
  3 13  1  6  0  0  0
  3 17  2  0  0  0  0
  3 20  1  0  0  0  0
  3 26  1  0  0  0  0
  4 14  1  1  0  0  0
  4 18  1  0  0  0  0
  4 21  2  0  0  0  0
  4 20  1  0  0  0  0
  5 19  1  0  0  0  0
  5  7  1  0  0  0  0
  6  7  2  0  0  0  0
  6 12  1  0  0  0  0
  7  8  1  0  0  0  0
  8  9  1  0  0  0  0
  8 10  2  0  0  0  0
 10 11  1  0  0  0  0
 11 12  2  0  0  0  0
 15 23  1  0  0  0  0
 15 16  1  0  0  0  0
 16 19  1  0  0  0  0
 19 22  1  0  0  0  0
 22  2  1  6  0  0  0
 22 23  1  0  0  0  0
 23 24  1  1  0  0  0
 24 25  1  0  0  0  0
 25 26  1  0  0  0  0
M  CHG  2  13  -1  18  -1
M  END
>  <CHROM.1>
-45.21036926,-48.84292786,127.96574114,-145.06564587,100.62505428,-132.31942108
88.01758607,-78.11438404,24.64120590,39.51141439,67.41033546,-2.96504563
0.11806930,2.77177391

>  <Name>
ligand

>  <RI>
0

>  <Rbt.Current_Directory>
/home/itssahil/PROJECTS/Mol_Feturizer/New_Systems/rnas/2HOJ

>  <Rbt.Executable>
rbdock ($Id: //depot/dev/client3/rdock/2013.1/src/exe/rbdock.cxx#4 $)

>  <Rbt.Library>
libRbt.so (2013.1, Build901 2013/11/27)

>  <Rbt.Parameter_File>
/export/apps/rDock/src/rDock_2013.1_src/data/scripts/dock_solv.prm

>  <Rbt.Receptor>
prm/pocket_docking_3.prm

>  <SCORE>
-13.0154

>  <SCORE.INTER>
-15.7543

>  <SCORE.INTER.CONST>
1

>  <SCORE.INTER.POLAR>
-1.24581

>  <SCORE.INTER.ROT>
8

>  <SCORE.INTER.SOLV>
14.4426

>  <SCORE.INTER.VDW>
-20.0977

>  <SCORE.INTER.norm>
-0.605934

>  <SCORE.INTRA>
2.70291

>  <SCORE.INTRA.DIHEDRAL>
3.6031

>  <SCORE.INTRA.DIHEDRAL.0>
11.6398

>  <SCORE.INTRA.POLAR>
0

>  <SCORE.INTRA.POLAR.0>
0

>  <SCORE.INTRA.REPUL>
0

>  <SCORE.INTRA.REPUL.0>
0

>  <SCORE.INTRA.SOLV>
8.52558

>  <SCORE.INTRA.SOLV.lig_0>
-81.722

>  <SCORE.INTRA.VDW>
-3.36143

>  <SCORE.INTRA.VDW.0>
1.12598

>  <SCORE.INTRA.norm>
0.103958

>  <SCORE.RESTR>
0.0359783

>  <SCORE.RESTR.CAVITY>
0.0359783

>  <SCORE.RESTR.norm>
0.00138378

>  <SCORE.SYSTEM>
0

>  <SCORE.SYSTEM.CONST>
0

>  <SCORE.SYSTEM.DIHEDRAL>
0

>  <SCORE.SYSTEM.SOLV>
0

>  <SCORE.SYSTEM.norm>
0

>  <SCORE.heavy>
26

>  <SCORE.norm>
-0.500592

>  <RMSD>
3.404

$$$$
ligand
 OpenBabel11021811433D
libRbt.so/2013.1/901 2013/11/27
 26 27  0  0  0  0  0  0  0  0999 V2000
   20.0184   44.0952   66.1084 C   0  0  0  0  0  0  0  0  0  0  0  0
   21.6258   37.2299   69.3796 C   0  0  0  0  0  0  0  0  0  0  0  0
   27.8237   38.6751   69.6533 P   0  0  1  0  0  0  0  0  0  0  0  0
   27.5906   40.5371   67.8741 P   0  0  1  0  0  0  0  0  0  0  0  0
   20.5970   38.5205   67.1112 C   0  0  0  0  0  0  0  0  0  0  0  0
   19.4663   40.4656   65.9933 C   0  0  0  0  0  0  0  0  0  0  0  0
   20.4451   39.9963   66.8466 C   0  0  0  0  0  0  0  0  0  0  0  0
   21.2902   40.9237   67.4585 C   0  0  0  0  0  0  0  0  0  0  0  0
   22.2894   40.5034   68.3235 N   0  0  0  0  0  0  0  0  0  0  0  0
   21.1267   42.2168   67.1950 N   0  0  0  0  0  0  0  0  0  0  0  0
   20.1763   42.6215   66.3776 C   0  0  0  0  0  0  0  0  0  0  0  0
   19.3620   41.7711   65.7837 N   0  0  0  0  0  0  0  0  0  0  0  0
   29.1579   38.5202   69.0309 O   0  5  0  0  0  0  0  0  0  0  0  0
   29.1160   40.6497   67.6575 O   0  0  0  0  0  0  0  0  0  0  0  0
   24.3303   37.8813   66.6222 S   0  0  0  0  0  0  0  0  0  0  0  0
   22.7784   38.4772   66.1184 C   0  0  0  0  0  0  0  0  0  0  0  0
   27.9309   38.3881   71.2325 O   0  0  0  0  0  0  0  0  0  0  0  0
   26.9967   39.3799   66.9264 O   0  5  0  0  0  0  0  0  0  0  0  0
   22.0196   38.1741   67.1461 N   0  0  0  0  0  0  0  0  0  0  0  0
   27.2921   40.1765   69.4151 O   0  0  0  0  0  0  0  0  0  0  0  0
   26.9207   41.8846   67.5226 O   0  0  0  0  0  0  0  0  0  0  0  0
   22.5101   37.5701   68.2065 C   0  0  2  0  0  0  0  0  0  0  0  0
   23.8298   37.2529   68.2180 C   0  0  2  0  0  0  0  0  0  0  0  0
   24.6459   36.5660   69.2814 C   0  0  0  0  0  0  0  0  0  0  0  0
   25.6664   37.5494   69.8591 C   0  0  0  0  0  0  0  0  0  0  0  0
   26.7948   37.6314   68.9861 O   0  0  0  0  0  0  0  0  0  0  0  0
  1 11  1  0  0  0  0
  3 13  1  6  0  0  0
  3 17  2  0  0  0  0
  3 20  1  0  0  0  0
  3 26  1  0  0  0  0
  4 14  1  6  0  0  0
  4 18  1  0  0  0  0
  4 21  2  0  0  0  0
  4 20  1  0  0  0  0
  5 19  1  0  0  0  0
  5  7  1  0  0  0  0
  6  7  2  0  0  0  0
  6 12  1  0  0  0  0
  7  8  1  0  0  0  0
  8  9  1  0  0  0  0
  8 10  2  0  0  0  0
 10 11  1  0  0  0  0
 11 12  2  0  0  0  0
 15 23  1  0  0  0  0
 15 16  1  0  0  0  0
 16 19  1  0  0  0  0
 19 22  1  0  0  0  0
 22  2  1  6  0  0  0
 22 23  1  0  0  0  0
 23 24  1  1  0  0  0
 24 25  1  0  0  0  0
 25 26  1  0  0  0  0
M  CHG  2  13  -1  18  -1
M  END
>  <CHROM.1>
44.65682128,-55.32254860,139.19020839,-68.30160173,66.43731749,-80.86368739
-179.88679204,163.68056628,24.43412846,39.46296366,67.93345152,-2.81841264
0.21292565,2.80442432

>  <Name>
ligand

>  <RI>
0

>  <Rbt.Current_Directory>
/home/itssahil/PROJECTS/Mol_Feturizer/New_Systems/rnas/2HOJ

>  <Rbt.Executable>
rbdock ($Id: //depot/dev/client3/rdock/2013.1/src/exe/rbdock.cxx#4 $)

>  <Rbt.Library>
libRbt.so (2013.1, Build901 2013/11/27)

>  <Rbt.Parameter_File>
/export/apps/rDock/src/rDock_2013.1_src/data/scripts/dock_solv.prm

>  <Rbt.Receptor>
prm/pocket_docking_4.prm

>  <SCORE>
-17.3008

>  <SCORE.INTER>
-14.0562

>  <SCORE.INTER.CONST>
1

>  <SCORE.INTER.POLAR>
-0.985233

>  <SCORE.INTER.ROT>
8

>  <SCORE.INTER.SOLV>
17.2827

>  <SCORE.INTER.VDW>
-20.7809

>  <SCORE.INTER.norm>
-0.540622

>  <SCORE.INTRA>
-3.24462

>  <SCORE.INTRA.DIHEDRAL>
-4.12019

>  <SCORE.INTRA.DIHEDRAL.0>
11.6398

>  <SCORE.INTRA.POLAR>
0

>  <SCORE.INTRA.POLAR.0>
0

>  <SCORE.INTRA.REPUL>
0

>  <SCORE.INTRA.REPUL.0>
0

>  <SCORE.INTRA.SOLV>
5.39872

>  <SCORE.INTRA.SOLV.lig_0>
-81.722

>  <SCORE.INTRA.VDW>
-3.88389

>  <SCORE.INTRA.VDW.0>
1.12598

>  <SCORE.INTRA.norm>
-0.124793

>  <SCORE.RESTR>
0

>  <SCORE.RESTR.CAVITY>
0

>  <SCORE.RESTR.norm>
0

>  <SCORE.SYSTEM>
0

>  <SCORE.SYSTEM.CONST>
0

>  <SCORE.SYSTEM.DIHEDRAL>
0

>  <SCORE.SYSTEM.SOLV>
0

>  <SCORE.SYSTEM.norm>
0

>  <SCORE.heavy>
26

>  <SCORE.norm>
-0.665415

>  <RMSD>
3.421

$$$$
ligand
 OpenBabel11021811433D
libRbt.so/2013.1/901 2013/11/27
 26 27  0  0  0  0  0  0  0  0999 V2000
   22.6428   45.4014   67.2873 C   0  0  0  0  0  0  0  0  0  0  0  0
   21.7204   38.4661   69.0541 C   0  0  0  0  0  0  0  0  0  0  0  0
   27.3549   38.9716   69.9202 P   0  0  1  0  0  0  0  0  0  0  0  0
   29.3200   38.6727   68.2661 P   0  0  1  0  0  0  0  0  0  0  0  0
   21.2915   39.9034   66.6836 C   0  0  0  0  0  0  0  0  0  0  0  0
   22.8198   41.7369   67.4673 C   0  0  0  0  0  0  0  0  0  0  0  0
   21.6478   41.3590   66.8427 C   0  0  0  0  0  0  0  0  0  0  0  0
   20.8015   42.3596   66.3620 C   0  0  0  0  0  0  0  0  0  0  0  0
   19.6124   42.0324   65.7276 N   0  0  0  0  0  0  0  0  0  0  0  0
   21.1495   43.6325   66.5266 N   0  0  0  0  0  0  0  0  0  0  0  0
   22.2799   43.9484   67.1246 C   0  0  0  0  0  0  0  0  0  0  0  0
   23.1009   43.0273   67.5900 N   0  0  0  0  0  0  0  0  0  0  0  0
   26.9413   38.9921   71.3415 O   0  5  0  0  0  0  0  0  0  0  0  0
   29.4442   40.1582   67.8611 O   0  0  0  0  0  0  0  0  0  0  0  0
   24.5817   37.9820   66.4234 S   0  0  0  0  0  0  0  0  0  0  0  0
   23.3554   39.0500   65.8129 C   0  0  0  0  0  0  0  0  0  0  0  0
   27.1325   40.4282   69.2747 O   0  0  0  0  0  0  0  0  0  0  0  0
   30.7291   37.9314   68.0311 O   0  5  0  0  0  0  0  0  0  0  0  0
   22.5012   39.0875   66.8093 N   0  0  0  0  0  0  0  0  0  0  0  0
   28.9119   38.5721   69.8208 O   0  0  0  0  0  0  0  0  0  0  0  0
   28.2316   37.9942   67.4041 O   0  0  0  0  0  0  0  0  0  0  0  0
   22.7104   38.4116   67.9180 C   0  0  2  0  0  0  0  0  0  0  0  0
   23.8348   37.6573   68.0136 C   0  0  2  0  0  0  0  0  0  0  0  0
   24.3199   36.7910   69.1463 C   0  0  0  0  0  0  0  0  0  0  0  0
   25.3681   37.5523   69.9610 C   0  0  0  0  0  0  0  0  0  0  0  0
   26.4727   37.8884   69.1191 O   0  0  0  0  0  0  0  0  0  0  0  0
  1 11  1  0  0  0  0
  3 13  1  1  0  0  0
  3 17  2  0  0  0  0
  3 20  1  0  0  0  0
  3 26  1  0  0  0  0
  4 14  1  6  0  0  0
  4 18  1  0  0  0  0
  4 21  2  0  0  0  0
  4 20  1  0  0  0  0
  5 19  1  0  0  0  0
  5  7  1  0  0  0  0
  6  7  2  0  0  0  0
  6 12  1  0  0  0  0
  7  8  1  0  0  0  0
  8  9  1  0  0  0  0
  8 10  2  0  0  0  0
 10 11  1  0  0  0  0
 11 12  2  0  0  0  0
 15 23  1  0  0  0  0
 15 16  1  0  0  0  0
 16 19  1  0  0  0  0
 19 22  1  0  0  0  0
 22  2  1  6  0  0  0
 22 23  1  0  0  0  0
 23 24  1  1  0  0  0
 24 25  1  0  0  0  0
 25 26  1  0  0  0  0
M  CHG  2  13  -1  18  -1
M  END
>  <CHROM.1>
-175.99183053,-75.28384848,-20.38170086,74.50870972,80.71497608,-60.25709710
166.68698520,14.25482096,25.03874808,39.69996448,68.01098867,-2.65744446
0.23870398,3.02465961

>  <Name>
ligand

>  <RI>
0

>  <Rbt.Current_Directory>
/home/itssahil/PROJECTS/Mol_Feturizer/New_Systems/rnas/2HOJ

>  <Rbt.Executable>
rbdock ($Id: //depot/dev/client3/rdock/2013.1/src/exe/rbdock.cxx#4 $)

>  <Rbt.Library>
libRbt.so (2013.1, Build901 2013/11/27)

>  <Rbt.Parameter_File>
/export/apps/rDock/src/rDock_2013.1_src/data/scripts/dock_solv.prm

>  <Rbt.Receptor>
prm/pocket_docking_6.prm

>  <SCORE>
-19.0863

>  <SCORE.INTER>
-16.3008

>  <SCORE.INTER.CONST>
1

>  <SCORE.INTER.POLAR>
-2.69925

>  <SCORE.INTER.ROT>
8

>  <SCORE.INTER.SOLV>
26.6368

>  <SCORE.INTER.VDW>
-19.682

>  <SCORE.INTER.norm>
-0.626953

>  <SCORE.INTRA>
-2.78557

>  <SCORE.INTRA.DIHEDRAL>
-3.37176

>  <SCORE.INTRA.DIHEDRAL.0>
11.6398

>  <SCORE.INTRA.POLAR>
0

>  <SCORE.INTRA.POLAR.0>
0

>  <SCORE.INTRA.REPUL>
0

>  <SCORE.INTRA.REPUL.0>
0

>  <SCORE.INTRA.SOLV>
0.706134

>  <SCORE.INTRA.SOLV.lig_0>
-81.722

>  <SCORE.INTRA.VDW>
-1.45276

>  <SCORE.INTRA.VDW.0>
1.12598

>  <SCORE.INTRA.norm>
-0.107137

>  <SCORE.RESTR>
0

>  <SCORE.RESTR.CAVITY>
0

>  <SCORE.RESTR.norm>
0

>  <SCORE.SYSTEM>
0

>  <SCORE.SYSTEM.CONST>
0

>  <SCORE.SYSTEM.DIHEDRAL>
0

>  <SCORE.SYSTEM.SOLV>
0

>  <SCORE.SYSTEM.norm>
0

>  <SCORE.heavy>
26

>  <SCORE.norm>
-0.73409

>  <RMSD>
3.422

$$$$
ligand
 OpenBabel11021811433D
libRbt.so/2013.1/901 2013/11/27
 26 27  0  0  0  0  0  0  0  0999 V2000
   19.2874   43.3215   65.7574 C   0  0  0  0  0  0  0  0  0  0  0  0
   23.0922   37.7639   69.2412 C   0  0  0  0  0  0  0  0  0  0  0  0
   27.2334   40.9961   68.0723 P   0  0  1  0  0  0  0  0  0  0  0  0
   27.5349   41.5650   65.5678 P   0  0  1  0  0  0  0  0  0  0  0  0
   21.1016   38.1505   67.3028 C   0  0  0  0  0  0  0  0  0  0  0  0
   19.5005   39.6709   66.1042 C   0  0  0  0  0  0  0  0  0  0  0  0
   20.6225   39.5198   66.8945 C   0  0  0  0  0  0  0  0  0  0  0  0
   21.3019   40.6678   67.3060 C   0  0  0  0  0  0  0  0  0  0  0  0
   22.4346   40.5698   68.1002 N   0  0  0  0  0  0  0  0  0  0  0  0
   20.8501   41.8574   66.9202 N   0  0  0  0  0  0  0  0  0  0  0  0
   19.7722   41.9560   66.1695 C   0  0  0  0  0  0  0  0  0  0  0  0
   19.1081   40.8913   65.7639 N   0  0  0  0  0  0  0  0  0  0  0  0
   28.6697   40.6739   68.2303 O   0  5  0  0  0  0  0  0  0  0  0  0
   26.6116   40.3897   65.1778 O   0  0  0  0  0  0  0  0  0  0  0  0
   24.4853   37.7388   65.5805 S   0  0  0  0  0  0  0  0  0  0  0  0
   22.7668   37.9925   65.5859 C   0  0  0  0  0  0  0  0  0  0  0  0
   26.6333   41.4818   69.4836 O   0  0  0  0  0  0  0  0  0  0  0  0
   27.4541   42.7099   64.4396 O   0  5  0  0  0  0  0  0  0  0  0  0
   22.4884   37.9683   66.8687 N   0  0  0  0  0  0  0  0  0  0  0  0
   27.0641   42.1709   66.9838 O   0  0  0  0  0  0  0  0  0  0  0  0
   28.9904   41.0587   65.6838 O   0  0  0  0  0  0  0  0  0  0  0  0
   23.4278   37.7878   67.7713 C   0  0  2  0  0  0  0  0  0  0  0  0
   24.7064   37.6158   67.3491 C   0  0  2  0  0  0  0  0  0  0  0  0
   25.9623   37.3887   68.1490 C   0  0  0  0  0  0  0  0  0  0  0  0
   26.5105   38.7324   68.6348 C   0  0  0  0  0  0  0  0  0  0  0  0
   26.4404   39.6864   67.5732 O   0  0  0  0  0  0  0  0  0  0  0  0
  1 11  1  0  0  0  0
  3 13  1  1  0  0  0
  3 17  2  0  0  0  0
  3 20  1  0  0  0  0
  3 26  1  0  0  0  0
  4 14  1  6  0  0  0
  4 18  1  0  0  0  0
  4 21  2  0  0  0  0
  4 20  1  0  0  0  0
  5 19  1  0  0  0  0
  5  7  1  0  0  0  0
  6  7  2  0  0  0  0
  6 12  1  0  0  0  0
  7  8  1  0  0  0  0
  8  9  1  0  0  0  0
  8 10  2  0  0  0  0
 10 11  1  0  0  0  0
 11 12  2  0  0  0  0
 15 23  1  0  0  0  0
 15 16  1  0  0  0  0
 16 19  1  0  0  0  0
 19 22  1  0  0  0  0
 22  2  1  6  0  0  0
 22 23  1  0  0  0  0
 23 24  1  1  0  0  0
 24 25  1  0  0  0  0
 25 26  1  0  0  0  0
M  CHG  2  13  -1  18  -1
M  END
>  <CHROM.1>
65.95066668,-62.72868404,123.13361147,62.41012484,96.66808525,-43.22266444
-171.43873971,65.89970972,24.47304503,40.08137523,66.88546358,3.06756814
0.07152972,2.77559561

>  <Name>
ligand

>  <RI>
0

>  <Rbt.Current_Directory>
/home/itssahil/PROJECTS/Mol_Feturizer/New_Systems/rnas/2HOJ

>  <Rbt.Executable>
rbdock ($Id: //depot/dev/client3/rdock/2013.1/src/exe/rbdock.cxx#4 $)

>  <Rbt.Library>
libRbt.so (2013.1, Build901 2013/11/27)

>  <Rbt.Parameter_File>
/export/apps/rDock/src/rDock_2013.1_src/data/scripts/dock_solv.prm

>  <Rbt.Receptor>
prm/pocket_docking_7.prm

>  <SCORE>
-20.4908

>  <SCORE.INTER>
-15.6192

>  <SCORE.INTER.CONST>
1

>  <SCORE.INTER.POLAR>
-1.26926

>  <SCORE.INTER.ROT>
8

>  <SCORE.INTER.SOLV>
16.2802

>  <SCORE.INTER.VDW>
-20.542

>  <SCORE.INTER.norm>
-0.60074

>  <SCORE.INTRA>
-4.87161

>  <SCORE.INTRA.DIHEDRAL>
-5.41681

>  <SCORE.INTRA.DIHEDRAL.0>
11.6398

>  <SCORE.INTRA.POLAR>
0

>  <SCORE.INTRA.POLAR.0>
0

>  <SCORE.INTRA.REPUL>
0

>  <SCORE.INTRA.REPUL.0>
0

>  <SCORE.INTRA.SOLV>
3.91732

>  <SCORE.INTRA.SOLV.lig_0>
-81.722

>  <SCORE.INTRA.VDW>
-4.12187

>  <SCORE.INTRA.VDW.0>
1.12598

>  <SCORE.INTRA.norm>
-0.18737

>  <SCORE.RESTR>
0

>  <SCORE.RESTR.CAVITY>
0

>  <SCORE.RESTR.norm>
0

>  <SCORE.SYSTEM>
0

>  <SCORE.SYSTEM.CONST>
0

>  <SCORE.SYSTEM.DIHEDRAL>
0

>  <SCORE.SYSTEM.SOLV>
0

>  <SCORE.SYSTEM.norm>
0

>  <SCORE.heavy>
26

>  <SCORE.norm>
-0.78811

>  <RMSD>
3.426

$$$$
ligand
 OpenBabel11021811433D
libRbt.so/2013.1/901 2013/11/27
 26 27  0  0  0  0  0  0  0  0999 V2000
   20.7728   36.9690   69.5777 C   0  0  0  0  0  0  0  0  0  0  0  0
   23.3785   40.8452   65.2406 C   0  0  0  0  0  0  0  0  0  0  0  0
   26.8362   38.9157   66.5941 P   0  0  1  0  0  0  0  0  0  0  0  0
   28.7318   37.9174   68.0423 P   0  0  1  0  0  0  0  0  0  0  0  0
   20.9421   41.6656   66.3634 C   0  0  0  0  0  0  0  0  0  0  0  0
   21.6133   40.3418   68.3904 C   0  0  0  0  0  0  0  0  0  0  0  0
   20.8964   40.4218   67.2131 C   0  0  0  0  0  0  0  0  0  0  0  0
   20.1277   39.3213   66.8301 C   0  0  0  0  0  0  0  0  0  0  0  0
   19.3898   39.3513   65.6562 N   0  0  0  0  0  0  0  0  0  0  0  0
   20.1180   38.2407   67.6050 N   0  0  0  0  0  0  0  0  0  0  0  0
   20.8136   38.2089   68.7231 C   0  0  0  0  0  0  0  0  0  0  0  0
   21.5497   39.2313   69.1128 N   0  0  0  0  0  0  0  0  0  0  0  0
   26.7268   37.7146   65.7357 O   0  5  0  0  0  0  0  0  0  0  0  0
   30.2549   37.8994   68.2995 O   0  0  0  0  0  0  0  0  0  0  0  0
   23.7252   44.0101   67.5221 S   0  0  0  0  0  0  0  0  0  0  0  0
   22.0765   43.4661   67.4668 C   0  0  0  0  0  0  0  0  0  0  0  0
   25.9226   38.7248   67.9043 O   0  0  0  0  0  0  0  0  0  0  0  0
   27.9535   38.1302   69.4348 O   0  5  0  0  0  0  0  0  0  0  0  0
   22.1563   42.4240   66.6720 N   0  0  0  0  0  0  0  0  0  0  0  0
   28.3714   39.1214   67.0351 O   0  0  0  0  0  0  0  0  0  0  0  0
   28.3010   36.5738   67.4120 O   0  0  0  0  0  0  0  0  0  0  0  0
   23.3029   42.0451   66.1507 C   0  0  2  0  0  0  0  0  0  0  0  0
   24.4163   42.7638   66.4446 C   0  0  2  0  0  0  0  0  0  0  0  0
   25.8389   42.5638   65.9917 C   0  0  0  0  0  0  0  0  0  0  0  0
   26.4221   41.3212   66.6683 C   0  0  0  0  0  0  0  0  0  0  0  0
   26.3373   40.2092   65.7749 O   0  0  0  0  0  0  0  0  0  0  0  0
  1 11  1  0  0  0  0
  3 13  1  6  0  0  0
  3 17  2  0  0  0  0
  3 20  1  0  0  0  0
  3 26  1  0  0  0  0
  4 14  1  1  0  0  0
  4 18  1  0  0  0  0
  4 21  2  0  0  0  0
  4 20  1  0  0  0  0
  5 19  1  0  0  0  0
  5  7  1  0  0  0  0
  6  7  2  0  0  0  0
  6 12  1  0  0  0  0
  7  8  1  0  0  0  0
  8  9  1  0  0  0  0
  8 10  2  0  0  0  0
 10 11  1  0  0  0  0
 11 12  2  0  0  0  0
 15 23  1  0  0  0  0
 15 16  1  0  0  0  0
 16 19  1  0  0  0  0
 19 22  1  0  0  0  0
 22  2  1  6  0  0  0
 22 23  1  0  0  0  0
 23 24  1  1  0  0  0
 24 25  1  0  0  0  0
 25 26  1  0  0  0  0
M  CHG  2  13  -1  18  -1
M  END
>  <CHROM.1>
-68.99100973,-100.42936551,21.80971414,169.56951850,108.77165417,98.00824670
-174.79970054,177.99320547,24.57904105,39.89910127,67.24833749,2.80149377
0.05387117,-0.28360946

>  <Name>
ligand

>  <RI>
0

>  <Rbt.Current_Directory>
/home/itssahil/PROJECTS/Mol_Feturizer/New_Systems/rnas/2HOJ

>  <Rbt.Executable>
rbdock ($Id: //depot/dev/client3/rdock/2013.1/src/exe/rbdock.cxx#4 $)

>  <Rbt.Library>
libRbt.so (2013.1, Build901 2013/11/27)

>  <Rbt.Parameter_File>
/export/apps/rDock/src/rDock_2013.1_src/data/scripts/dock_solv.prm

>  <Rbt.Receptor>
prm/pocket_docking_4.prm

>  <SCORE>
-14.0492

>  <SCORE.INTER>
-11.3944

>  <SCORE.INTER.CONST>
1

>  <SCORE.INTER.POLAR>
-1.37477

>  <SCORE.INTER.ROT>
8

>  <SCORE.INTER.SOLV>
17.9425

>  <SCORE.INTER.VDW>
-17.9279

>  <SCORE.INTER.norm>
-0.438247

>  <SCORE.INTRA>
-2.65477

>  <SCORE.INTRA.DIHEDRAL>
-2.71597

>  <SCORE.INTRA.DIHEDRAL.0>
11.6398

>  <SCORE.INTRA.POLAR>
0

>  <SCORE.INTRA.POLAR.0>
0

>  <SCORE.INTRA.REPUL>
0

>  <SCORE.INTRA.REPUL.0>
0

>  <SCORE.INTRA.SOLV>
4.1682

>  <SCORE.INTRA.SOLV.lig_0>
-81.722

>  <SCORE.INTRA.VDW>
-3.38089

>  <SCORE.INTRA.VDW.0>
1.12598

>  <SCORE.INTRA.norm>
-0.102107

>  <SCORE.RESTR>
0

>  <SCORE.RESTR.CAVITY>
0

>  <SCORE.RESTR.norm>
0

>  <SCORE.SYSTEM>
0

>  <SCORE.SYSTEM.CONST>
0

>  <SCORE.SYSTEM.DIHEDRAL>
0

>  <SCORE.SYSTEM.SOLV>
0

>  <SCORE.SYSTEM.norm>
0

>  <SCORE.heavy>
26

>  <SCORE.norm>
-0.540353

>  <RMSD>
3.440

$$$$
ligand
 OpenBabel11021811433D
libRbt.so/2013.1/901 2013/11/27
 26 27  0  0  0  0  0  0  0  0999 V2000
   19.9194   43.7562   66.0870 C   0  0  0  0  0  0  0  0  0  0  0  0
   23.8178   37.6207   68.9564 C   0  0  0  0  0  0  0  0  0  0  0  0
   27.6314   38.9097   69.8438 P   0  0  1  0  0  0  0  0  0  0  0  0
   27.1083   41.2827   68.9594 P   0  0  1  0  0  0  0  0  0  0  0  0
   21.7786   38.5000   67.2423 C   0  0  0  0  0  0  0  0  0  0  0  0
   21.9344   40.9996   67.4410 C   0  0  0  0  0  0  0  0  0  0  0  0
   21.2853   39.8907   66.9358 C   0  0  0  0  0  0  0  0  0  0  0  0
   20.1606   40.0903   66.1334 C   0  0  0  0  0  0  0  0  0  0  0  0
   19.4730   39.0095   65.6020 N   0  0  0  0  0  0  0  0  0  0  0  0
   19.7544   41.3330   65.8905 N   0  0  0  0  0  0  0  0  0  0  0  0
   20.4066   42.3631   66.3892 C   0  0  0  0  0  0  0  0  0  0  0  0
   21.4720   42.2084   67.1507 N   0  0  0  0  0  0  0  0  0  0  0  0
   28.4647   39.6805   70.7941 O   0  5  0  0  0  0  0  0  0  0  0  0
   27.3452   42.0505   70.2787 O   0  0  0  0  0  0  0  0  0  0  0  0
   25.0547   38.2568   65.2947 S   0  0  0  0  0  0  0  0  0  0  0  0
   23.3581   38.5991   65.4419 C   0  0  0  0  0  0  0  0  0  0  0  0
   26.9948   37.6384   70.5963 O   0  0  0  0  0  0  0  0  0  0  0  0
   28.5119   41.0705   68.2010 O   0  5  0  0  0  0  0  0  0  0  0  0
   23.1316   38.3323   66.7074 N   0  0  0  0  0  0  0  0  0  0  0  0
   26.4496   39.8492   69.2830 O   0  0  0  0  0  0  0  0  0  0  0  0
   26.1531   42.0951   68.0562 O   0  0  0  0  0  0  0  0  0  0  0  0
   24.0936   37.9218   67.5048 C   0  0  2  0  0  0  0  0  0  0  0  0
   25.3398   37.7677   66.9893 C   0  0  2  0  0  0  0  0  0  0  0  0
   26.6101   37.3146   67.6600 C   0  0  0  0  0  0  0  0  0  0  0  0
   27.6989   38.3719   67.4627 C   0  0  0  0  0  0  0  0  0  0  0  0
   28.5428   38.4063   68.6154 O   0  0  0  0  0  0  0  0  0  0  0  0
  1 11  1  0  0  0  0
  3 13  1  1  0  0  0
  3 17  2  0  0  0  0
  3 20  1  0  0  0  0
  3 26  1  0  0  0  0
  4 14  1  1  0  0  0
  4 18  1  0  0  0  0
  4 21  2  0  0  0  0
  4 20  1  0  0  0  0
  5 19  1  0  0  0  0
  5  7  1  0  0  0  0
  6  7  2  0  0  0  0
  6 12  1  0  0  0  0
  7  8  1  0  0  0  0
  8  9  1  0  0  0  0
  8 10  2  0  0  0  0
 10 11  1  0  0  0  0
 11 12  2  0  0  0  0
 15 23  1  0  0  0  0
 15 16  1  0  0  0  0
 16 19  1  0  0  0  0
 19 22  1  0  0  0  0
 22  2  1  6  0  0  0
 22 23  1  0  0  0  0
 23 24  1  1  0  0  0
 24 25  1  0  0  0  0
 25 26  1  0  0  0  0
M  CHG  2  13  -1  18  -1
M  END
>  <CHROM.1>
42.93519418,-53.44662723,-62.00513927,-76.12694950,55.36610818,146.21676074
-65.03358653,-148.12403016,24.76404050,39.72699031,67.80098230,-3.10364227
0.44270022,-2.84623380

>  <Name>
ligand

>  <RI>
0

>  <Rbt.Current_Directory>
/home/itssahil/PROJECTS/Mol_Feturizer/New_Systems/rnas/2HOJ

>  <Rbt.Executable>
rbdock ($Id: //depot/dev/client3/rdock/2013.1/src/exe/rbdock.cxx#4 $)

>  <Rbt.Library>
libRbt.so (2013.1, Build901 2013/11/27)

>  <Rbt.Parameter_File>
/export/apps/rDock/src/rDock_2013.1_src/data/scripts/dock_solv.prm

>  <Rbt.Receptor>
prm/pocket_docking_3.prm

>  <SCORE>
-10.5376

>  <SCORE.INTER>
-10.8507

>  <SCORE.INTER.CONST>
1

>  <SCORE.INTER.POLAR>
-1.29904

>  <SCORE.INTER.ROT>
8

>  <SCORE.INTER.SOLV>
22.919

>  <SCORE.INTER.VDW>
-19.4766

>  <SCORE.INTER.norm>
-0.417333

>  <SCORE.INTRA>
0.313057

>  <SCORE.INTRA.DIHEDRAL>
-0.894639

>  <SCORE.INTRA.DIHEDRAL.0>
11.6398

>  <SCORE.INTRA.POLAR>
0

>  <SCORE.INTRA.POLAR.0>
0

>  <SCORE.INTRA.REPUL>
0

>  <SCORE.INTRA.REPUL.0>
0

>  <SCORE.INTRA.SOLV>
4.05069

>  <SCORE.INTRA.SOLV.lig_0>
-81.722

>  <SCORE.INTRA.VDW>
-1.26497

>  <SCORE.INTRA.VDW.0>
1.12598

>  <SCORE.INTRA.norm>
0.0120406

>  <SCORE.RESTR>
0

>  <SCORE.RESTR.CAVITY>
0

>  <SCORE.RESTR.norm>
0

>  <SCORE.SYSTEM>
0

>  <SCORE.SYSTEM.CONST>
0

>  <SCORE.SYSTEM.DIHEDRAL>
0

>  <SCORE.SYSTEM.SOLV>
0

>  <SCORE.SYSTEM.norm>
0

>  <SCORE.heavy>
26

>  <SCORE.norm>
-0.405292

>  <RMSD>
3.441

$$$$
ligand
 OpenBabel11021811433D
libRbt.so/2013.1/901 2013/11/27
 26 27  0  0  0  0  0  0  0  0999 V2000
   19.5194   43.7274   66.0511 C   0  0  0  0  0  0  0  0  0  0  0  0
   24.0605   38.0040   65.5061 C   0  0  0  0  0  0  0  0  0  0  0  0
   27.4666   39.9431   69.2814 P   0  0  1  0  0  0  0  0  0  0  0  0
   26.0253   41.9300   68.4678 P   0  0  1  0  0  0  0  0  0  0  0  0
   21.3091   38.3232   65.9506 C   0  0  0  0  0  0  0  0  0  0  0  0
   21.7285   40.7938   66.1296 C   0  0  0  0  0  0  0  0  0  0  0  0
   20.8340   39.7532   65.9771 C   0  0  0  0  0  0  0  0  0  0  0  0
   19.4782   40.0592   65.8477 C   0  0  0  0  0  0  0  0  0  0  0  0
   18.5395   39.0501   65.6927 N   0  0  0  0  0  0  0  0  0  0  0  0
   19.0989   41.3333   65.8812 N   0  0  0  0  0  0  0  0  0  0  0  0
   19.9870   42.2956   66.0238 C   0  0  0  0  0  0  0  0  0  0  0  0
   21.2746   42.0399   66.1487 N   0  0  0  0  0  0  0  0  0  0  0  0
   28.6384   40.4945   68.5642 O   0  5  0  0  0  0  0  0  0  0  0  0
   25.9699   42.4550   69.9195 O   0  0  0  0  0  0  0  0  0  0  0  0
   23.0704   37.7194   69.2851 S   0  0  0  0  0  0  0  0  0  0  0  0
   21.6702   38.0135   68.3000 C   0  0  0  0  0  0  0  0  0  0  0  0
   27.4025   40.5646   70.7638 O   0  0  0  0  0  0  0  0  0  0  0  0
   27.3160   42.5393   67.7243 O   0  5  0  0  0  0  0  0  0  0  0  0
   22.1890   38.0792   67.0957 N   0  0  0  0  0  0  0  0  0  0  0  0
   26.1213   40.3224   68.4814 O   0  0  0  0  0  0  0  0  0  0  0  0
   24.7464   42.3621   67.7157 O   0  0  0  0  0  0  0  0  0  0  0  0
   23.4800   37.9271   66.8957 C   0  0  2  0  0  0  0  0  0  0  0  0
   24.2797   37.7067   67.9701 C   0  0  2  0  0  0  0  0  0  0  0  0
   25.7708   37.5039   68.0352 C   0  0  0  0  0  0  0  0  0  0  0  0
   26.2699   37.8208   69.4468 C   0  0  0  0  0  0  0  0  0  0  0  0
   27.5989   38.3410   69.3757 O   0  0  0  0  0  0  0  0  0  0  0  0
  1 11  1  0  0  0  0
  3 13  1  6  0  0  0
  3 17  2  0  0  0  0
  3 20  1  0  0  0  0
  3 26  1  0  0  0  0
  4 14  1  1  0  0  0
  4 18  1  0  0  0  0
  4 21  2  0  0  0  0
  4 20  1  0  0  0  0
  5 19  1  0  0  0  0
  5  7  1  0  0  0  0
  6  7  2  0  0  0  0
  6 12  1  0  0  0  0
  7  8  1  0  0  0  0
  8  9  1  0  0  0  0
  8 10  2  0  0  0  0
 10 11  1  0  0  0  0
 11 12  2  0  0  0  0
 15 23  1  0  0  0  0
 15 16  1  0  0  0  0
 16 19  1  0  0  0  0
 19 22  1  0  0  0  0
 22  2  1  1  0  0  0
 22 23  1  0  0  0  0
 23 24  1  6  0  0  0
 24 25  1  0  0  0  0
 25 26  1  0  0  0  0
M  CHG  2  13  -1  18  -1
M  END
>  <CHROM.1>
-61.92159788,71.86333360,49.91142681,-59.85600000,-21.61428706,-148.56136483
91.84781877,-152.35985417,24.00502797,40.00163979,67.80485371,-3.07165104
0.40627426,3.03571453

>  <Name>
ligand

>  <RI>
0

>  <Rbt.Current_Directory>
/home/itssahil/PROJECTS/Mol_Feturizer/New_Systems/rnas/2HOJ

>  <Rbt.Executable>
rbdock ($Id: //depot/dev/client3/rdock/2013.1/src/exe/rbdock.cxx#4 $)

>  <Rbt.Library>
libRbt.so (2013.1, Build901 2013/11/27)

>  <Rbt.Parameter_File>
/export/apps/rDock/src/rDock_2013.1_src/data/scripts/dock_solv.prm

>  <Rbt.Receptor>
prm/pocket_docking_6.prm

>  <SCORE>
-18.1393

>  <SCORE.INTER>
-16.7234

>  <SCORE.INTER.CONST>
1

>  <SCORE.INTER.POLAR>
-1.25724

>  <SCORE.INTER.ROT>
8

>  <SCORE.INTER.SOLV>
25.4136

>  <SCORE.INTER.VDW>
-24.3627

>  <SCORE.INTER.norm>
-0.643206

>  <SCORE.INTRA>
-1.4159

>  <SCORE.INTRA.DIHEDRAL>
1.05529

>  <SCORE.INTRA.DIHEDRAL.0>
11.6398

>  <SCORE.INTRA.POLAR>
0

>  <SCORE.INTRA.POLAR.0>
0

>  <SCORE.INTRA.REPUL>
0

>  <SCORE.INTRA.REPUL.0>
0

>  <SCORE.INTRA.SOLV>
1.69478

>  <SCORE.INTRA.SOLV.lig_0>
-81.722

>  <SCORE.INTRA.VDW>
-2.79093

>  <SCORE.INTRA.VDW.0>
1.12598

>  <SCORE.INTRA.norm>
-0.0544575

>  <SCORE.RESTR>
0

>  <SCORE.RESTR.CAVITY>
0

>  <SCORE.RESTR.norm>
0

>  <SCORE.SYSTEM>
0

>  <SCORE.SYSTEM.CONST>
0

>  <SCORE.SYSTEM.DIHEDRAL>
0

>  <SCORE.SYSTEM.SOLV>
0

>  <SCORE.SYSTEM.norm>
0

>  <SCORE.heavy>
26

>  <SCORE.norm>
-0.697664

>  <RMSD>
3.441

$$$$
ligand
 OpenBabel11021811433D
libRbt.so/2013.1/901 2013/11/27
 26 27  0  0  0  0  0  0  0  0999 V2000
   23.5299   45.8669   65.6713 C   0  0  0  0  0  0  0  0  0  0  0  0
   21.9863   39.6754   65.1745 C   0  0  0  0  0  0  0  0  0  0  0  0
   27.8873   38.1605   66.2849 P   0  0  1  0  0  0  0  0  0  0  0  0
   30.1706   38.7097   67.3676 P   0  0  1  0  0  0  0  0  0  0  0  0
   21.1546   41.0226   67.4904 C   0  0  0  0  0  0  0  0  0  0  0  0
   23.0671   42.6479   67.3790 C   0  0  0  0  0  0  0  0  0  0  0  0
   21.7821   42.3051   67.0082 C   0  0  0  0  0  0  0  0  0  0  0  0
   21.0788   43.1767   66.1749 C   0  0  0  0  0  0  0  0  0  0  0  0
   19.7849   42.8785   65.7743 N   0  0  0  0  0  0  0  0  0  0  0  0
   21.6659   44.3009   65.7752 N   0  0  0  0  0  0  0  0  0  0  0  0
   22.8962   44.5866   66.1494 C   0  0  0  0  0  0  0  0  0  0  0  0
   23.5872   43.7848   66.9359 N   0  0  0  0  0  0  0  0  0  0  0  0
   27.8885   39.5974   65.9287 O   0  5  0  0  0  0  0  0  0  0  0  0
   30.7123   38.3726   65.9607 O   0  0  0  0  0  0  0  0  0  0  0  0
   23.8335   38.4598   68.4075 S   0  0  0  0  0  0  0  0  0  0  0  0
   22.6906   39.7128   68.7832 C   0  0  0  0  0  0  0  0  0  0  0  0
   28.5039   37.3052   65.0700 O   0  0  0  0  0  0  0  0  0  0  0  0
   29.9299   40.2966   67.4853 O   0  5  0  0  0  0  0  0  0  0  0  0
   22.1842   39.9871   67.6033 N   0  0  0  0  0  0  0  0  0  0  0  0
   28.7789   37.9353   67.6070 O   0  0  0  0  0  0  0  0  0  0  0  0
   31.1966   38.2643   68.4338 O   0  0  0  0  0  0  0  0  0  0  0  0
   22.5787   39.3499   66.5225 C   0  0  2  0  0  0  0  0  0  0  0  0
   23.5373   38.3970   66.6467 C   0  0  2  0  0  0  0  0  0  0  0  0
   24.1718   37.5263   65.5940 C   0  0  0  0  0  0  0  0  0  0  0  0
   25.6267   37.9528   65.3851 C   0  0  0  0  0  0  0  0  0  0  0  0
   26.3775   37.6785   66.5696 O   0  0  0  0  0  0  0  0  0  0  0  0
  1 11  1  0  0  0  0
  3 13  1  6  0  0  0
  3 17  2  0  0  0  0
  3 20  1  0  0  0  0
  3 26  1  0  0  0  0
  4 14  1  6  0  0  0
  4 18  1  0  0  0  0
  4 21  2  0  0  0  0
  4 20  1  0  0  0  0
  5 19  1  0  0  0  0
  5  7  1  0  0  0  0
  6  7  2  0  0  0  0
  6 12  1  0  0  0  0
  7  8  1  0  0  0  0
  8  9  1  0  0  0  0
  8 10  2  0  0  0  0
 10 11  1  0  0  0  0
 11 12  2  0  0  0  0
 15 23  1  0  0  0  0
 15 16  1  0  0  0  0
 16 19  1  0  0  0  0
 19 22  1  0  0  0  0
 22  2  1  6  0  0  0
 22 23  1  0  0  0  0
 23 24  1  1  0  0  0
 24 25  1  0  0  0  0
 25 26  1  0  0  0  0
M  CHG  2  13  -1  18  -1
M  END
>  <CHROM.1>
-48.39566950,99.92629819,-34.04175479,-46.66235734,-70.08177491,66.20921733
-179.54164422,57.73992533,25.36965293,39.98745966,66.73586347,-2.62971393
0.00387678,3.06277633

>  <Name>
ligand

>  <RI>
0

>  <Rbt.Current_Directory>
/home/itssahil/PROJECTS/Mol_Feturizer/New_Systems/rnas/2HOJ

>  <Rbt.Executable>
rbdock ($Id: //depot/dev/client3/rdock/2013.1/src/exe/rbdock.cxx#4 $)

>  <Rbt.Library>
libRbt.so (2013.1, Build901 2013/11/27)

>  <Rbt.Parameter_File>
/export/apps/rDock/src/rDock_2013.1_src/data/scripts/dock_solv.prm

>  <Rbt.Receptor>
prm/pocket_docking_8.prm

>  <SCORE>
-21.6332

>  <SCORE.INTER>
-16.2278

>  <SCORE.INTER.CONST>
1

>  <SCORE.INTER.POLAR>
-2.97801

>  <SCORE.INTER.ROT>
8

>  <SCORE.INTER.SOLV>
26.2162

>  <SCORE.INTER.VDW>
-18.5639

>  <SCORE.INTER.norm>
-0.624146

>  <SCORE.INTRA>
-5.4054

>  <SCORE.INTRA.DIHEDRAL>
-5.8556

>  <SCORE.INTRA.DIHEDRAL.0>
11.6398

>  <SCORE.INTRA.POLAR>
0

>  <SCORE.INTRA.POLAR.0>
0

>  <SCORE.INTRA.REPUL>
0

>  <SCORE.INTRA.REPUL.0>
0

>  <SCORE.INTRA.SOLV>
1.79066

>  <SCORE.INTRA.SOLV.lig_0>
-81.722

>  <SCORE.INTRA.VDW>
-3.37293

>  <SCORE.INTRA.VDW.0>
1.12598

>  <SCORE.INTRA.norm>
-0.2079

>  <SCORE.RESTR>
0

>  <SCORE.RESTR.CAVITY>
0

>  <SCORE.RESTR.norm>
0

>  <SCORE.SYSTEM>
0

>  <SCORE.SYSTEM.CONST>
0

>  <SCORE.SYSTEM.DIHEDRAL>
0

>  <SCORE.SYSTEM.SOLV>
0

>  <SCORE.SYSTEM.norm>
0

>  <SCORE.heavy>
26

>  <SCORE.norm>
-0.832046

>  <RMSD>
3.453

$$$$
ligand
 OpenBabel11021811433D
libRbt.so/2013.1/901 2013/11/27
 26 27  0  0  0  0  0  0  0  0999 V2000
   15.2972   39.0647   63.7143 C   0  0  0  0  0  0  0  0  0  0  0  0
   22.3470   40.1249   68.1322 C   0  0  0  0  0  0  0  0  0  0  0  0
   26.6359   40.1286   65.0972 P   0  0  1  0  0  0  0  0  0  0  0  0
   27.0482   42.6800   65.1819 P   0  0  1  0  0  0  0  0  0  0  0  0
   20.1224   40.3694   66.4407 C   0  0  0  0  0  0  0  0  0  0  0  0
   18.3505   38.7365   65.7297 C   0  0  0  0  0  0  0  0  0  0  0  0
   18.8452   40.0255   65.7185 C   0  0  0  0  0  0  0  0  0  0  0  0
   18.1319   41.0023   65.0216 C   0  0  0  0  0  0  0  0  0  0  0  0
   18.5868   42.3117   64.9796 N   0  0  0  0  0  0  0  0  0  0  0  0
   17.0119   40.6573   64.3932 N   0  0  0  0  0  0  0  0  0  0  0  0
   16.5733   39.4160   64.4338 C   0  0  0  0  0  0  0  0  0  0  0  0
   17.2236   38.4700   65.0829 N   0  0  0  0  0  0  0  0  0  0  0  0
   26.6506   40.3149   63.6286 O   0  5  0  0  0  0  0  0  0  0  0  0
   26.8312   43.9721   66.0003 O   0  0  0  0  0  0  0  0  0  0  0  0
   22.4238   37.6227   65.1197 S   0  0  0  0  0  0  0  0  0  0  0  0
   20.9993   38.6152   65.0623 C   0  0  0  0  0  0  0  0  0  0  0  0
   28.1145   39.7508   65.6057 O   0  0  0  0  0  0  0  0  0  0  0  0
   28.6029   42.2670   65.2306 O   0  5  0  0  0  0  0  0  0  0  0  0
   21.1458   39.3698   66.1267 N   0  0  0  0  0  0  0  0  0  0  0  0
   26.1564   41.4929   65.8059 O   0  0  0  0  0  0  0  0  0  0  0  0
   26.6261   42.9234   63.7154 O   0  0  0  0  0  0  0  0  0  0  0  0
   22.1925   39.2498   66.9140 C   0  0  2  0  0  0  0  0  0  0  0  0
   23.1276   38.3144   66.6090 C   0  0  2  0  0  0  0  0  0  0  0  0
   24.4050   37.9607   67.3247 C   0  0  0  0  0  0  0  0  0  0  0  0
   25.5132   38.9284   66.9034 C   0  0  0  0  0  0  0  0  0  0  0  0
   25.6169   38.9413   65.4783 O   0  0  0  0  0  0  0  0  0  0  0  0
  1 11  1  0  0  0  0
  3 13  1  6  0  0  0
  3 17  2  0  0  0  0
  3 20  1  0  0  0  0
  3 26  1  0  0  0  0
  4 14  1  1  0  0  0
  4 18  1  0  0  0  0
  4 21  2  0  0  0  0
  4 20  1  0  0  0  0
  5 19  1  0  0  0  0
  5  7  1  0  0  0  0
  6  7  2  0  0  0  0
  6 12  1  0  0  0  0
  7  8  1  0  0  0  0
  8  9  1  0  0  0  0
  8 10  2  0  0  0  0
 10 11  1  0  0  0  0
 11 12  2  0  0  0  0
 15 23  1  0  0  0  0
 15 16  1  0  0  0  0
 16 19  1  0  0  0  0
 19 22  1  0  0  0  0
 22  2  1  1  0  0  0
 22 23  1  0  0  0  0
 23 24  1  6  0  0  0
 24 25  1  0  0  0  0
 25 26  1  0  0  0  0
M  CHG  2  13  -1  18  -1
M  END
>  <CHROM.1>
-50.11557333,19.18415225,46.57946000,-169.41203478,96.86225515,-53.71621462
171.75006668,-172.52736880,23.05712648,40.16815669,65.45250550,2.96217916
0.07995518,2.86037369

>  <Name>
ligand

>  <RI>
0

>  <Rbt.Current_Directory>
/home/itssahil/PROJECTS/Mol_Feturizer/New_Systems/rnas/2HOJ

>  <Rbt.Executable>
rbdock ($Id: //depot/dev/client3/rdock/2013.1/src/exe/rbdock.cxx#4 $)

>  <Rbt.Library>
libRbt.so (2013.1, Build901 2013/11/27)

>  <Rbt.Parameter_File>
/export/apps/rDock/src/rDock_2013.1_src/data/scripts/dock_solv.prm

>  <Rbt.Receptor>
prm/pocket_docking_6.prm

>  <SCORE>
-20.567

>  <SCORE.INTER>
-17.2824

>  <SCORE.INTER.CONST>
1

>  <SCORE.INTER.POLAR>
0

>  <SCORE.INTER.ROT>
8

>  <SCORE.INTER.SOLV>
22.6849

>  <SCORE.INTER.VDW>
-28.0166

>  <SCORE.INTER.norm>
-0.664708

>  <SCORE.INTRA>
-3.28454

>  <SCORE.INTRA.DIHEDRAL>
-5.99429

>  <SCORE.INTRA.DIHEDRAL.0>
11.6398

>  <SCORE.INTRA.POLAR>
0

>  <SCORE.INTRA.POLAR.0>
0

>  <SCORE.INTRA.REPUL>
0

>  <SCORE.INTRA.REPUL.0>
0

>  <SCORE.INTRA.SOLV>
2.7326

>  <SCORE.INTRA.SOLV.lig_0>
-81.722

>  <SCORE.INTRA.VDW>
-1.6537

>  <SCORE.INTRA.VDW.0>
1.12598

>  <SCORE.INTRA.norm>
-0.126329

>  <SCORE.RESTR>
0

>  <SCORE.RESTR.CAVITY>
0

>  <SCORE.RESTR.norm>
0

>  <SCORE.SYSTEM>
0

>  <SCORE.SYSTEM.CONST>
0

>  <SCORE.SYSTEM.DIHEDRAL>
0

>  <SCORE.SYSTEM.SOLV>
0

>  <SCORE.SYSTEM.norm>
0

>  <SCORE.heavy>
26

>  <SCORE.norm>
-0.791037

>  <RMSD>
3.454

$$$$
ligand
 OpenBabel11021811433D
libRbt.so/2013.1/901 2013/11/27
 26 27  0  0  0  0  0  0  0  0999 V2000
   19.3552   43.8554   66.1865 C   0  0  0  0  0  0  0  0  0  0  0  0
   24.1079   37.5885   66.0398 C   0  0  0  0  0  0  0  0  0  0  0  0
   27.3778   39.6429   68.6229 P   0  0  1  0  0  0  0  0  0  0  0  0
   26.1128   41.8700   68.2671 P   0  0  1  0  0  0  0  0  0  0  0  0
   21.5010   38.5959   65.7965 C   0  0  0  0  0  0  0  0  0  0  0  0
   19.5702   40.1966   65.9419 C   0  0  0  0  0  0  0  0  0  0  0  0
   20.9344   39.9886   65.8997 C   0  0  0  0  0  0  0  0  0  0  0  0
   21.7758   41.1011   65.9554 C   0  0  0  0  0  0  0  0  0  0  0  0
   23.1534   40.9457   65.9158 N   0  0  0  0  0  0  0  0  0  0  0  0
   21.2365   42.3136   66.0410 N   0  0  0  0  0  0  0  0  0  0  0  0
   19.9288   42.4662   66.0834 C   0  0  0  0  0  0  0  0  0  0  0  0
   19.1070   41.4362   66.0325 N   0  0  0  0  0  0  0  0  0  0  0  0
   28.6163   38.8845   68.3354 O   0  5  0  0  0  0  0  0  0  0  0  0
   24.8339   41.0041   68.2384 O   0  0  0  0  0  0  0  0  0  0  0  0
   22.1547   37.6358   69.4347 S   0  0  0  0  0  0  0  0  0  0  0  0
   21.1673   38.2520   68.1453 C   0  0  0  0  0  0  0  0  0  0  0  0
   27.3245   40.0115   70.1878 O   0  0  0  0  0  0  0  0  0  0  0  0
   26.3899   42.3705   69.7714 O   0  5  0  0  0  0  0  0  0  0  0  0
   21.9737   38.1618   67.1130 N   0  0  0  0  0  0  0  0  0  0  0  0
   27.3642   40.9972   67.7514 O   0  0  0  0  0  0  0  0  0  0  0  0
   25.9251   43.0948   67.3437 O   0  0  0  0  0  0  0  0  0  0  0  0
   23.1941   37.6870   67.2353 C   0  0  2  0  0  0  0  0  0  0  0  0
   23.6156   37.2944   68.4644 C   0  0  2  0  0  0  0  0  0  0  0  0
   24.9435   36.7256   68.8909 C   0  0  0  0  0  0  0  0  0  0  0  0
   25.8680   37.8610   69.3361 C   0  0  0  0  0  0  0  0  0  0  0  0
   26.0968   38.7464   68.2380 O   0  0  0  0  0  0  0  0  0  0  0  0
  1 11  1  0  0  0  0
  3 13  1  6  0  0  0
  3 17  2  0  0  0  0
  3 20  1  0  0  0  0
  3 26  1  0  0  0  0
  4 14  1  6  0  0  0
  4 18  1  0  0  0  0
  4 21  2  0  0  0  0
  4 20  1  0  0  0  0
  5 19  1  0  0  0  0
  5  7  1  0  0  0  0
  6  7  2  0  0  0  0
  6 12  1  0  0  0  0
  7  8  1  0  0  0  0
  8  9  1  0  0  0  0
  8 10  2  0  0  0  0
 10 11  1  0  0  0  0
 11 12  2  0  0  0  0
 15 23  1  0  0  0  0
 15 16  1  0  0  0  0
 16 19  1  0  0  0  0
 19 22  1  0  0  0  0
 22  2  1  1  0  0  0
 22 23  1  0  0  0  0
 23 24  1  6  0  0  0
 24 25  1  0  0  0  0
 25 26  1  0  0  0  0
M  CHG  2  13  -1  18  -1
M  END
>  <CHROM.1>
-171.86199868,51.59614218,-101.75790509,-52.39605849,-88.43329188,-61.65812945
-163.82778097,81.67712635,23.95801848,39.95866134,67.72029912,-2.92386005
0.32182633,2.91846855

>  <Name>
ligand

>  <RI>
0

>  <Rbt.Current_Directory>
/home/itssahil/PROJECTS/Mol_Feturizer/New_Systems/rnas/2HOJ

>  <Rbt.Executable>
rbdock ($Id: //depot/dev/client3/rdock/2013.1/src/exe/rbdock.cxx#4 $)

>  <Rbt.Library>
libRbt.so (2013.1, Build901 2013/11/27)

>  <Rbt.Parameter_File>
/export/apps/rDock/src/rDock_2013.1_src/data/scripts/dock_solv.prm

>  <Rbt.Receptor>
prm/pocket_docking_4.prm

>  <SCORE>
-16.409

>  <SCORE.INTER>
-12.5571

>  <SCORE.INTER.CONST>
1

>  <SCORE.INTER.POLAR>
0

>  <SCORE.INTER.ROT>
8

>  <SCORE.INTER.SOLV>
16.4956

>  <SCORE.INTER.VDW>
-22.8033

>  <SCORE.INTER.norm>
-0.482965

>  <SCORE.INTRA>
-3.85187

>  <SCORE.INTRA.DIHEDRAL>
-4.62686

>  <SCORE.INTRA.DIHEDRAL.0>
11.6398

>  <SCORE.INTRA.POLAR>
0

>  <SCORE.INTRA.POLAR.0>
0

>  <SCORE.INTRA.REPUL>
0.0570435

>  <SCORE.INTRA.REPUL.0>
0

>  <SCORE.INTRA.SOLV>
5.3385

>  <SCORE.INTRA.SOLV.lig_0>
-81.722

>  <SCORE.INTRA.VDW>
-4.49291

>  <SCORE.INTRA.VDW.0>
1.12598

>  <SCORE.INTRA.norm>
-0.148149

>  <SCORE.RESTR>
0

>  <SCORE.RESTR.CAVITY>
0

>  <SCORE.RESTR.norm>
0

>  <SCORE.SYSTEM>
0

>  <SCORE.SYSTEM.CONST>
0

>  <SCORE.SYSTEM.DIHEDRAL>
0

>  <SCORE.SYSTEM.SOLV>
0

>  <SCORE.SYSTEM.norm>
0

>  <SCORE.heavy>
26

>  <SCORE.norm>
-0.631114

>  <RMSD>
3.472

$$$$
ligand
 OpenBabel11021811433D
libRbt.so/2013.1/901 2013/11/27
 26 27  0  0  0  0  0  0  0  0999 V2000
   21.1178   44.7431   66.4011 C   0  0  0  0  0  0  0  0  0  0  0  0
   21.0516   38.6227   68.9625 C   0  0  0  0  0  0  0  0  0  0  0  0
   26.8043   38.3361   67.2383 P   0  0  1  0  0  0  0  0  0  0  0  0
   27.8808   37.4887   65.0451 P   0  0  1  0  0  0  0  0  0  0  0  0
   19.9005   39.1814   66.4660 C   0  0  0  0  0  0  0  0  0  0  0  0
   21.3267   41.1457   67.1133 C   0  0  0  0  0  0  0  0  0  0  0  0
   20.2214   40.6538   66.4480 C   0  0  0  0  0  0  0  0  0  0  0  0
   19.4088   41.5549   65.7580 C   0  0  0  0  0  0  0  0  0  0  0  0
   18.2866   41.1113   65.0743 N   0  0  0  0  0  0  0  0  0  0  0  0
   19.7234   42.8469   65.7706 N   0  0  0  0  0  0  0  0  0  0  0  0
   20.7906   43.2726   66.4147 C   0  0  0  0  0  0  0  0  0  0  0  0
   21.5783   42.4474   67.0761 N   0  0  0  0  0  0  0  0  0  0  0  0
   27.8896   37.7397   68.0496 O   0  5  0  0  0  0  0  0  0  0  0  0
   29.1069   37.1716   65.9295 O   0  0  0  0  0  0  0  0  0  0  0  0
   23.1008   37.1592   65.9623 S   0  0  0  0  0  0  0  0  0  0  0  0
   21.6919   38.0022   65.3953 C   0  0  0  0  0  0  0  0  0  0  0  0
   27.2307   39.8166   66.7758 O   0  0  0  0  0  0  0  0  0  0  0  0
   27.7851   36.4124   63.8523 O   0  5  0  0  0  0  0  0  0  0  0  0
   21.1447   38.4105   66.5168 N   0  0  0  0  0  0  0  0  0  0  0  0
   26.5425   37.4219   65.9385 O   0  0  0  0  0  0  0  0  0  0  0  0
   28.0301   38.9062   64.4483 O   0  0  0  0  0  0  0  0  0  0  0  0
   21.6915   38.1455   67.6832 C   0  0  2  0  0  0  0  0  0  0  0  0
   22.8419   37.4256   67.7099 C   0  0  2  0  0  0  0  0  0  0  0  0
   23.6715   36.9791   68.8852 C   0  0  0  0  0  0  0  0  0  0  0  0
   25.1570   37.0805   68.5319 C   0  0  0  0  0  0  0  0  0  0  0  0
   25.4572   38.4146   68.1170 O   0  0  0  0  0  0  0  0  0  0  0  0
  1 11  1  0  0  0  0
  3 13  1  1  0  0  0
  3 17  2  0  0  0  0
  3 20  1  0  0  0  0
  3 26  1  0  0  0  0
  4 14  1  1  0  0  0
  4 18  1  0  0  0  0
  4 21  2  0  0  0  0
  4 20  1  0  0  0  0
  5 19  1  0  0  0  0
  5  7  1  0  0  0  0
  6  7  2  0  0  0  0
  6 12  1  0  0  0  0
  7  8  1  0  0  0  0
  8  9  1  0  0  0  0
  8 10  2  0  0  0  0
 10 11  1  0  0  0  0
 11 12  2  0  0  0  0
 15 23  1  0  0  0  0
 15 16  1  0  0  0  0
 16 19  1  0  0  0  0
 19 22  1  0  0  0  0
 22  2  1  1  0  0  0
 22 23  1  0  0  0  0
 23 24  1  6  0  0  0
 24 25  1  0  0  0  0
 25 26  1  0  0  0  0
M  CHG  2  13  -1  18  -1
M  END
>  <CHROM.1>
-64.77718481,-92.92835645,-32.77265615,50.74533569,38.05268380,55.83310962
-158.28010580,-58.05288551,23.94015880,38.99438549,66.52333291,-2.70620854
-0.20416463,2.82259558

>  <Name>
ligand

>  <RI>
0

>  <Rbt.Current_Directory>
/home/itssahil/PROJECTS/Mol_Feturizer/New_Systems/rnas/2HOJ

>  <Rbt.Executable>
rbdock ($Id: //depot/dev/client3/rdock/2013.1/src/exe/rbdock.cxx#4 $)

>  <Rbt.Library>
libRbt.so (2013.1, Build901 2013/11/27)

>  <Rbt.Parameter_File>
/export/apps/rDock/src/rDock_2013.1_src/data/scripts/dock_solv.prm

>  <Rbt.Receptor>
prm/pocket_docking_7.prm

>  <SCORE>
-18.7814

>  <SCORE.INTER>
-13.7169

>  <SCORE.INTER.CONST>
1

>  <SCORE.INTER.POLAR>
0

>  <SCORE.INTER.ROT>
8

>  <SCORE.INTER.SOLV>
23.8022

>  <SCORE.INTER.VDW>
-26.012

>  <SCORE.INTER.norm>
-0.527574

>  <SCORE.INTRA>
-5.06448

>  <SCORE.INTRA.DIHEDRAL>
-4.31865

>  <SCORE.INTRA.DIHEDRAL.0>
11.6398

>  <SCORE.INTRA.POLAR>
0

>  <SCORE.INTRA.POLAR.0>
0

>  <SCORE.INTRA.REPUL>
0

>  <SCORE.INTRA.REPUL.0>
0

>  <SCORE.INTRA.SOLV>
0.610467

>  <SCORE.INTRA.SOLV.lig_0>
-81.722

>  <SCORE.INTRA.VDW>
-3.21039

>  <SCORE.INTRA.VDW.0>
1.12598

>  <SCORE.INTRA.norm>
-0.194788

>  <SCORE.RESTR>
0

>  <SCORE.RESTR.CAVITY>
0

>  <SCORE.RESTR.norm>
0

>  <SCORE.SYSTEM>
0

>  <SCORE.SYSTEM.CONST>
0

>  <SCORE.SYSTEM.DIHEDRAL>
0

>  <SCORE.SYSTEM.SOLV>
0

>  <SCORE.SYSTEM.norm>
0

>  <SCORE.heavy>
26

>  <SCORE.norm>
-0.722362

>  <RMSD>
3.481

$$$$
ligand
 OpenBabel11021811433D
libRbt.so/2013.1/901 2013/11/27
 26 27  0  0  0  0  0  0  0  0999 V2000
   19.2414   43.2031   65.9800 C   0  0  0  0  0  0  0  0  0  0  0  0
   24.8223   37.8553   65.6588 C   0  0  0  0  0  0  0  0  0  0  0  0
   27.6873   39.4381   70.2892 P   0  0  1  0  0  0  0  0  0  0  0  0
   28.0691   38.3178   72.5884 P   0  0  1  0  0  0  0  0  0  0  0  0
   22.0461   38.2558   65.7038 C   0  0  0  0  0  0  0  0  0  0  0  0
   19.9277   39.6063   65.6891 C   0  0  0  0  0  0  0  0  0  0  0  0
   21.3050   39.5660   65.7770 C   0  0  0  0  0  0  0  0  0  0  0  0
   21.9938   40.7698   65.9357 C   0  0  0  0  0  0  0  0  0  0  0  0
   23.3775   40.7832   66.0285 N   0  0  0  0  0  0  0  0  0  0  0  0
   21.3035   41.9050   65.9908 N   0  0  0  0  0  0  0  0  0  0  0  0
   19.9890   41.8972   65.9076 C   0  0  0  0  0  0  0  0  0  0  0  0
   19.3088   40.7775   65.7571 N   0  0  0  0  0  0  0  0  0  0  0  0
   27.8414   40.7067   71.0364 O   0  5  0  0  0  0  0  0  0  0  0  0
   29.5528   38.2964   72.1587 O   0  0  0  0  0  0  0  0  0  0  0  0
   23.3044   37.6985   69.2663 S   0  0  0  0  0  0  0  0  0  0  0  0
   22.0652   38.0009   68.0872 C   0  0  0  0  0  0  0  0  0  0  0  0
   29.1134   38.9862   69.6978 O   0  0  0  0  0  0  0  0  0  0  0  0
   27.7748   39.6516   73.4396 O   0  5  0  0  0  0  0  0  0  0  0  0
   22.7494   38.0209   66.9668 N   0  0  0  0  0  0  0  0  0  0  0  0
   27.1306   38.2968   71.2798 O   0  0  0  0  0  0  0  0  0  0  0  0
   27.7675   37.0759   73.4572 O   0  0  0  0  0  0  0  0  0  0  0  0
   24.0507   37.8309   66.9542 C   0  0  2  0  0  0  0  0  0  0  0  0
   24.6853   37.6196   68.1353 C   0  0  2  0  0  0  0  0  0  0  0  0
   26.1461   37.3811   68.4145 C   0  0  0  0  0  0  0  0  0  0  0  0
   26.9415   38.6504   68.1013 C   0  0  0  0  0  0  0  0  0  0  0  0
   26.6464   39.6500   69.0790 O   0  0  0  0  0  0  0  0  0  0  0  0
  1 11  1  0  0  0  0
  3 13  1  1  0  0  0
  3 17  2  0  0  0  0
  3 20  1  0  0  0  0
  3 26  1  0  0  0  0
  4 14  1  6  0  0  0
  4 18  1  0  0  0  0
  4 21  2  0  0  0  0
  4 20  1  0  0  0  0
  5 19  1  0  0  0  0
  5  7  1  0  0  0  0
  6  7  2  0  0  0  0
  6 12  1  0  0  0  0
  7  8  1  0  0  0  0
  8  9  1  0  0  0  0
  8 10  2  0  0  0  0
 10 11  1  0  0  0  0
 11 12  2  0  0  0  0
 15 23  1  0  0  0  0
 15 16  1  0  0  0  0
 16 19  1  0  0  0  0
 19 22  1  0  0  0  0
 22  2  1  1  0  0  0
 22 23  1  0  0  0  0
 23 24  1  6  0  0  0
 24 25  1  0  0  0  0
 25 26  1  0  0  0  0
M  CHG  2  13  -1  18  -1
M  END
>  <CHROM.1>
-50.16985981,57.05884944,-117.00264327,-49.20683695,-112.78389618,70.56261211
88.53734452,156.37875476,24.83747369,39.13776962,68.79743946,3.10720313,0.69728166
-2.78737508

>  <Name>
ligand

>  <RI>
0

>  <Rbt.Current_Directory>
/home/itssahil/PROJECTS/Mol_Feturizer/New_Systems/rnas/2HOJ

>  <Rbt.Executable>
rbdock ($Id: //depot/dev/client3/rdock/2013.1/src/exe/rbdock.cxx#4 $)

>  <Rbt.Library>
libRbt.so (2013.1, Build901 2013/11/27)

>  <Rbt.Parameter_File>
/export/apps/rDock/src/rDock_2013.1_src/data/scripts/dock_solv.prm

>  <Rbt.Receptor>
prm/pocket_docking_6.prm

>  <SCORE>
-14.2621

>  <SCORE.INTER>
-12.5632

>  <SCORE.INTER.CONST>
1

>  <SCORE.INTER.POLAR>
0

>  <SCORE.INTER.ROT>
8

>  <SCORE.INTER.SOLV>
20.5703

>  <SCORE.INTER.VDW>
-24.1656

>  <SCORE.INTER.norm>
-0.4832

>  <SCORE.INTRA>
-1.69892

>  <SCORE.INTRA.DIHEDRAL>
-2.16503

>  <SCORE.INTRA.DIHEDRAL.0>
11.6398

>  <SCORE.INTRA.POLAR>
0

>  <SCORE.INTRA.POLAR.0>
0

>  <SCORE.INTRA.REPUL>
0

>  <SCORE.INTRA.REPUL.0>
0

>  <SCORE.INTRA.SOLV>
4.67345

>  <SCORE.INTRA.SOLV.lig_0>
-81.722

>  <SCORE.INTRA.VDW>
-2.95313

>  <SCORE.INTRA.VDW.0>
1.12598

>  <SCORE.INTRA.norm>
-0.065343

>  <SCORE.RESTR>
0

>  <SCORE.RESTR.CAVITY>
0

>  <SCORE.RESTR.norm>
0

>  <SCORE.SYSTEM>
0

>  <SCORE.SYSTEM.CONST>
0

>  <SCORE.SYSTEM.DIHEDRAL>
0

>  <SCORE.SYSTEM.SOLV>
0

>  <SCORE.SYSTEM.norm>
0

>  <SCORE.heavy>
26

>  <SCORE.norm>
-0.548543

>  <RMSD>
3.486

$$$$
ligand
 OpenBabel11021811433D
libRbt.so/2013.1/901 2013/11/27
 26 27  0  0  0  0  0  0  0  0999 V2000
   19.3816   42.8269   65.6803 C   0  0  0  0  0  0  0  0  0  0  0  0
   23.2211   37.1459   69.5750 C   0  0  0  0  0  0  0  0  0  0  0  0
   28.7668   39.4904   67.2559 P   0  0  1  0  0  0  0  0  0  0  0  0
   26.9879   41.2035   66.4891 P   0  0  1  0  0  0  0  0  0  0  0  0
   21.5064   37.8577   67.4719 C   0  0  0  0  0  0  0  0  0  0  0  0
   19.9876   39.2187   66.0048 C   0  0  0  0  0  0  0  0  0  0  0  0
   20.9449   39.1737   66.9986 C   0  0  0  0  0  0  0  0  0  0  0  0
   21.3794   40.3783   67.5542 C   0  0  0  0  0  0  0  0  0  0  0  0
   22.3397   40.3872   68.5549 N   0  0  0  0  0  0  0  0  0  0  0  0
   20.8630   41.5186   67.1055 N   0  0  0  0  0  0  0  0  0  0  0  0
   19.9475   41.5152   66.1584 C   0  0  0  0  0  0  0  0  0  0  0  0
   19.5161   40.3948   65.6129 N   0  0  0  0  0  0  0  0  0  0  0  0
   30.1357   38.9793   67.0182 O   0  5  0  0  0  0  0  0  0  0  0  0
   26.2073   40.3221   67.4891 O   0  0  0  0  0  0  0  0  0  0  0  0
   25.1227   37.9568   66.2481 S   0  0  0  0  0  0  0  0  0  0  0  0
   23.4076   38.1353   66.0386 C   0  0  0  0  0  0  0  0  0  0  0  0
   28.7394   40.3375   68.6232 O   0  0  0  0  0  0  0  0  0  0  0  0
   27.3808   42.5966   67.1926 O   0  5  0  0  0  0  0  0  0  0  0  0
   22.9506   37.8272   67.2302 N   0  0  0  0  0  0  0  0  0  0  0  0
   28.3273   40.4366   66.0290 O   0  0  0  0  0  0  0  0  0  0  0  0
   26.1049   41.4827   65.2520 O   0  0  0  0  0  0  0  0  0  0  0  0
   23.7614   37.4958   68.2114 C   0  0  2  0  0  0  0  0  0  0  0  0
   25.0962   37.4686   67.9665 C   0  0  2  0  0  0  0  0  0  0  0  0
   26.2375   37.1260   68.8878 C   0  0  0  0  0  0  0  0  0  0  0  0
   27.3463   38.1705   68.7403 C   0  0  0  0  0  0  0  0  0  0  0  0
   27.7430   38.2526   67.3700 O   0  0  0  0  0  0  0  0  0  0  0  0
  1 11  1  0  0  0  0
  3 13  1  6  0  0  0
  3 17  2  0  0  0  0
  3 20  1  0  0  0  0
  3 26  1  0  0  0  0
  4 14  1  1  0  0  0
  4 18  1  0  0  0  0
  4 21  2  0  0  0  0
  4 20  1  0  0  0  0
  5 19  1  0  0  0  0
  5  7  1  0  0  0  0
  6  7  2  0  0  0  0
  6 12  1  0  0  0  0
  7  8  1  0  0  0  0
  8  9  1  0  0  0  0
  8 10  2  0  0  0  0
 10 11  1  0  0  0  0
 11 12  2  0  0  0  0
 15 23  1  0  0  0  0
 15 16  1  0  0  0  0
 16 19  1  0  0  0  0
 19 22  1  0  0  0  0
 22  2  1  6  0  0  0
 22 23  1  0  0  0  0
 23 24  1  1  0  0  0
 24 25  1  0  0  0  0
 25 26  1  0  0  0  0
M  CHG  2  13  -1  18  -1
M  END
>  <CHROM.1>
-168.01927769,-50.51572618,119.17646739,-29.31529071,45.93120479,-55.69956839
172.91279249,109.04381873,24.85602818,39.57064421,67.12002701,-3.04584357
0.04828441,2.75004413

>  <Name>
ligand

>  <RI>
0

>  <Rbt.Current_Directory>
/home/itssahil/PROJECTS/Mol_Feturizer/New_Systems/rnas/2HOJ

>  <Rbt.Executable>
rbdock ($Id: //depot/dev/client3/rdock/2013.1/src/exe/rbdock.cxx#4 $)

>  <Rbt.Library>
libRbt.so (2013.1, Build901 2013/11/27)

>  <Rbt.Parameter_File>
/export/apps/rDock/src/rDock_2013.1_src/data/scripts/dock_solv.prm

>  <Rbt.Receptor>
prm/pocket_docking_3.prm

>  <SCORE>
-14.7845

>  <SCORE.INTER>
-13.5497

>  <SCORE.INTER.CONST>
1

>  <SCORE.INTER.POLAR>
-1.26597

>  <SCORE.INTER.ROT>
8

>  <SCORE.INTER.SOLV>
16.7256

>  <SCORE.INTER.VDW>
-19.3218

>  <SCORE.INTER.norm>
-0.521144

>  <SCORE.INTRA>
-1.3585

>  <SCORE.INTRA.DIHEDRAL>
-2.54991

>  <SCORE.INTRA.DIHEDRAL.0>
11.6398

>  <SCORE.INTRA.POLAR>
0

>  <SCORE.INTRA.POLAR.0>
0

>  <SCORE.INTRA.REPUL>
0

>  <SCORE.INTRA.REPUL.0>
0

>  <SCORE.INTRA.SOLV>
3.0269

>  <SCORE.INTRA.SOLV.lig_0>
-81.722

>  <SCORE.INTRA.VDW>
-1.59699

>  <SCORE.INTRA.VDW.0>
1.12598

>  <SCORE.INTRA.norm>
-0.0522499

>  <SCORE.RESTR>
0.123725

>  <SCORE.RESTR.CAVITY>
0.123725

>  <SCORE.RESTR.norm>
0.00475867

>  <SCORE.SYSTEM>
0

>  <SCORE.SYSTEM.CONST>
0

>  <SCORE.SYSTEM.DIHEDRAL>
0

>  <SCORE.SYSTEM.SOLV>
0

>  <SCORE.SYSTEM.norm>
0

>  <SCORE.heavy>
26

>  <SCORE.norm>
-0.568635

>  <RMSD>
3.515

$$$$
ligand
 OpenBabel11021811433D
libRbt.so/2013.1/901 2013/11/27
 26 27  0  0  0  0  0  0  0  0999 V2000
   21.3592   36.2626   69.6704 C   0  0  0  0  0  0  0  0  0  0  0  0
   24.5811   40.2659   65.6186 C   0  0  0  0  0  0  0  0  0  0  0  0
   27.8937   39.5594   68.5498 P   0  0  1  0  0  0  0  0  0  0  0  0
   29.5712   38.1326   67.1943 P   0  0  1  0  0  0  0  0  0  0  0  0
   21.8569   40.6955   66.1320 C   0  0  0  0  0  0  0  0  0  0  0  0
   21.4888   39.7119   68.4143 C   0  0  0  0  0  0  0  0  0  0  0  0
   21.7254   39.5212   67.0674 C   0  0  0  0  0  0  0  0  0  0  0  0
   21.8395   38.2130   66.5940 C   0  0  0  0  0  0  0  0  0  0  0  0
   22.0776   37.9681   65.2498 N   0  0  0  0  0  0  0  0  0  0  0  0
   21.7223   37.2042   67.4525 N   0  0  0  0  0  0  0  0  0  0  0  0
   21.4918   37.4314   68.7293 C   0  0  0  0  0  0  0  0  0  0  0  0
   21.3791   38.6550   69.2081 N   0  0  0  0  0  0  0  0  0  0  0  0
   27.4369   38.2119   68.9585 O   0  5  0  0  0  0  0  0  0  0  0  0
   30.3103   38.0728   68.5495 O   0  0  0  0  0  0  0  0  0  0  0  0
   23.9089   43.4650   67.7764 S   0  0  0  0  0  0  0  0  0  0  0  0
   22.4198   42.6637   67.3791 C   0  0  0  0  0  0  0  0  0  0  0  0
   28.8944   40.1481   69.6633 O   0  0  0  0  0  0  0  0  0  0  0  0
   28.6367   36.8323   67.0334 O   0  5  0  0  0  0  0  0  0  0  0  0
   22.8376   41.6411   66.6695 N   0  0  0  0  0  0  0  0  0  0  0  0
   28.6607   39.4599   67.1372 O   0  0  0  0  0  0  0  0  0  0  0  0
   30.6049   38.1688   66.0462 O   0  0  0  0  0  0  0  0  0  0  0  0
   24.1169   41.4461   66.4344 C   0  0  2  0  0  0  0  0  0  0  0  0
   25.0102   42.3361   66.9368 C   0  0  2  0  0  0  0  0  0  0  0  0
   26.5118   42.3625   66.8220 C   0  0  0  0  0  0  0  0  0  0  0  0
   27.1341   41.8399   68.1187 C   0  0  0  0  0  0  0  0  0  0  0  0
   26.6220   40.5358   68.4002 O   0  0  0  0  0  0  0  0  0  0  0  0
  1 11  1  0  0  0  0
  3 13  1  1  0  0  0
  3 17  2  0  0  0  0
  3 20  1  0  0  0  0
  3 26  1  0  0  0  0
  4 14  1  1  0  0  0
  4 18  1  0  0  0  0
  4 21  2  0  0  0  0
  4 20  1  0  0  0  0
  5 19  1  0  0  0  0
  5  7  1  0  0  0  0
  6  7  2  0  0  0  0
  6 12  1  0  0  0  0
  7  8  1  0  0  0  0
  8  9  1  0  0  0  0
  8 10  2  0  0  0  0
 10 11  1  0  0  0  0
 11 12  2  0  0  0  0
 15 23  1  0  0  0  0
 15 16  1  0  0  0  0
 16 19  1  0  0  0  0
 19 22  1  0  0  0  0
 22  2  1  6  0  0  0
 22 23  1  0  0  0  0
 23 24  1  1  0  0  0
 24 25  1  0  0  0  0
 25 26  1  0  0  0  0
M  CHG  2  13  -1  18  -1
M  END
>  <CHROM.1>
-40.96395600,-95.63241969,51.52553043,-45.22545397,78.39568167,55.77971307
124.46297561,175.14690247,25.45420855,39.69254542,67.58991677,3.00595525
-0.02062461,-0.11589438

>  <Name>
ligand

>  <RI>
0

>  <Rbt.Current_Directory>
/home/itssahil/PROJECTS/Mol_Feturizer/New_Systems/rnas/2HOJ

>  <Rbt.Executable>
rbdock ($Id: //depot/dev/client3/rdock/2013.1/src/exe/rbdock.cxx#4 $)

>  <Rbt.Library>
libRbt.so (2013.1, Build901 2013/11/27)

>  <Rbt.Parameter_File>
/export/apps/rDock/src/rDock_2013.1_src/data/scripts/dock_solv.prm

>  <Rbt.Receptor>
prm/pocket_docking_6.prm

>  <SCORE>
-16.0048

>  <SCORE.INTER>
-13.9384

>  <SCORE.INTER.CONST>
1

>  <SCORE.INTER.POLAR>
-2.59451

>  <SCORE.INTER.ROT>
8

>  <SCORE.INTER.SOLV>
20.5565

>  <SCORE.INTER.VDW>
-16.4294

>  <SCORE.INTER.norm>
-0.536091

>  <SCORE.INTRA>
-2.06644

>  <SCORE.INTRA.DIHEDRAL>
1.47767

>  <SCORE.INTRA.DIHEDRAL.0>
11.6398

>  <SCORE.INTRA.POLAR>
0

>  <SCORE.INTRA.POLAR.0>
0

>  <SCORE.INTRA.REPUL>
0

>  <SCORE.INTRA.REPUL.0>
0

>  <SCORE.INTRA.SOLV>
2.09201

>  <SCORE.INTRA.SOLV.lig_0>
-81.722

>  <SCORE.INTRA.VDW>
-3.85128

>  <SCORE.INTRA.VDW.0>
1.12598

>  <SCORE.INTRA.norm>
-0.0794786

>  <SCORE.RESTR>
0

>  <SCORE.RESTR.CAVITY>
0

>  <SCORE.RESTR.norm>
0

>  <SCORE.SYSTEM>
0

>  <SCORE.SYSTEM.CONST>
0

>  <SCORE.SYSTEM.DIHEDRAL>
0

>  <SCORE.SYSTEM.SOLV>
0

>  <SCORE.SYSTEM.norm>
0

>  <SCORE.heavy>
26

>  <SCORE.norm>
-0.61557

>  <RMSD>
3.532

$$$$
ligand
 OpenBabel11021811433D
libRbt.so/2013.1/901 2013/11/27
 26 27  0  0  0  0  0  0  0  0999 V2000
   17.0756   40.2140   64.6639 C   0  0  0  0  0  0  0  0  0  0  0  0
   23.5095   39.9772   65.8924 C   0  0  0  0  0  0  0  0  0  0  0  0
   26.9270   38.5490   65.1172 P   0  0  1  0  0  0  0  0  0  0  0  0
   27.9426   36.1923   64.7990 P   0  0  1  0  0  0  0  0  0  0  0  0
   21.7607   41.1035   67.7747 C   0  0  0  0  0  0  0  0  0  0  0  0
   19.8160   41.9244   66.4124 C   0  0  0  0  0  0  0  0  0  0  0  0
   20.5207   40.8666   66.9515 C   0  0  0  0  0  0  0  0  0  0  0  0
   20.0557   39.5719   66.7146 C   0  0  0  0  0  0  0  0  0  0  0  0
   20.7275   38.4756   67.2344 N   0  0  0  0  0  0  0  0  0  0  0  0
   18.9549   39.4053   65.9874 N   0  0  0  0  0  0  0  0  0  0  0  0
   18.3158   40.4431   65.4878 C   0  0  0  0  0  0  0  0  0  0  0  0
   18.7288   41.6785   65.6934 N   0  0  0  0  0  0  0  0  0  0  0  0
   26.6579   38.4953   66.5719 O   0  5  0  0  0  0  0  0  0  0  0  0
   27.5897   34.7028   64.5912 O   0  0  0  0  0  0  0  0  0  0  0  0
   23.8764   43.8649   66.1986 S   0  0  0  0  0  0  0  0  0  0  0  0
   22.6547   43.2724   67.2819 C   0  0  0  0  0  0  0  0  0  0  0  0
   28.4601   38.9683   64.8694 O   0  0  0  0  0  0  0  0  0  0  0  0
   29.1537   36.5997   63.8206 O   0  5  0  0  0  0  0  0  0  0  0  0
   22.6742   41.9820   67.0406 N   0  0  0  0  0  0  0  0  0  0  0  0
   26.6545   37.1006   64.4679 O   0  0  0  0  0  0  0  0  0  0  0  0
   28.3682   36.4197   66.2670 O   0  0  0  0  0  0  0  0  0  0  0  0
   23.4982   41.4617   66.1574 C   0  0  2  0  0  0  0  0  0  0  0  0
   24.3336   42.2927   65.4837 C   0  0  2  0  0  0  0  0  0  0  0  0
   25.3625   41.9769   64.4298 C   0  0  0  0  0  0  0  0  0  0  0  0
   26.3251   40.9102   64.9568 C   0  0  0  0  0  0  0  0  0  0  0  0
   25.9554   39.6342   64.4305 O   0  0  0  0  0  0  0  0  0  0  0  0
  1 11  1  0  0  0  0
  3 13  1  1  0  0  0
  3 17  2  0  0  0  0
  3 20  1  0  0  0  0
  3 26  1  0  0  0  0
  4 14  1  6  0  0  0
  4 18  1  0  0  0  0
  4 21  2  0  0  0  0
  4 20  1  0  0  0  0
  5 19  1  0  0  0  0
  5  7  1  0  0  0  0
  6  7  2  0  0  0  0
  6 12  1  0  0  0  0
  7  8  1  0  0  0  0
  8  9  1  0  0  0  0
  8 10  2  0  0  0  0
 10 11  1  0  0  0  0
 11 12  2  0  0  0  0
 15 23  1  0  0  0  0
 15 16  1  0  0  0  0
 16 19  1  0  0  0  0
 19 22  1  0  0  0  0
 22  2  1  6  0  0  0
 22 23  1  0  0  0  0
 23 24  1  1  0  0  0
 24 25  1  0  0  0  0
 25 26  1  0  0  0  0
M  CHG  2  13  -1  18  -1
M  END
>  <CHROM.1>
-78.92673665,95.56506936,-51.11393386,163.12472345,125.66525463,100.16452366
-175.42081512,65.17296033,24.19197827,39.68990798,65.65079284,2.63612082
0.09746870,0.13346887

>  <Name>
ligand

>  <RI>
0

>  <Rbt.Current_Directory>
/home/itssahil/PROJECTS/Mol_Feturizer/New_Systems/rnas/2HOJ

>  <Rbt.Executable>
rbdock ($Id: //depot/dev/client3/rdock/2013.1/src/exe/rbdock.cxx#4 $)

>  <Rbt.Library>
libRbt.so (2013.1, Build901 2013/11/27)

>  <Rbt.Parameter_File>
/export/apps/rDock/src/rDock_2013.1_src/data/scripts/dock_solv.prm

>  <Rbt.Receptor>
prm/pocket_docking_8.prm

>  <SCORE>
-18.5585

>  <SCORE.INTER>
-18.2271

>  <SCORE.INTER.CONST>
1

>  <SCORE.INTER.POLAR>
0

>  <SCORE.INTER.ROT>
8

>  <SCORE.INTER.SOLV>
17.0527

>  <SCORE.INTER.VDW>
-26.769

>  <SCORE.INTER.norm>
-0.701043

>  <SCORE.INTRA>
-0.331397

>  <SCORE.INTRA.DIHEDRAL>
-1.77336

>  <SCORE.INTRA.DIHEDRAL.0>
11.6398

>  <SCORE.INTRA.POLAR>
0

>  <SCORE.INTRA.POLAR.0>
0

>  <SCORE.INTRA.REPUL>
0

>  <SCORE.INTRA.REPUL.0>
0

>  <SCORE.INTRA.SOLV>
5.46545

>  <SCORE.INTRA.SOLV.lig_0>
-81.722

>  <SCORE.INTRA.VDW>
-2.17744

>  <SCORE.INTRA.VDW.0>
1.12598

>  <SCORE.INTRA.norm>
-0.012746

>  <SCORE.RESTR>
0

>  <SCORE.RESTR.CAVITY>
0

>  <SCORE.RESTR.norm>
0

>  <SCORE.SYSTEM>
0

>  <SCORE.SYSTEM.CONST>
0

>  <SCORE.SYSTEM.DIHEDRAL>
0

>  <SCORE.SYSTEM.SOLV>
0

>  <SCORE.SYSTEM.norm>
0

>  <SCORE.heavy>
26

>  <SCORE.norm>
-0.713789

>  <RMSD>
3.533

$$$$
ligand
 OpenBabel11021811433D
libRbt.so/2013.1/901 2013/11/27
 26 27  0  0  0  0  0  0  0  0999 V2000
   17.0279   39.9964   64.7515 C   0  0  0  0  0  0  0  0  0  0  0  0
   23.8117   42.0369   66.9039 C   0  0  0  0  0  0  0  0  0  0  0  0
   28.0450   41.5445   65.8371 P   0  0  1  0  0  0  0  0  0  0  0  0
   27.9975   39.9132   67.8430 P   0  0  1  0  0  0  0  0  0  0  0  0
   21.2371   43.1505   66.9315 C   0  0  0  0  0  0  0  0  0  0  0  0
   19.0596   42.9049   65.7027 C   0  0  0  0  0  0  0  0  0  0  0  0
   20.1236   42.3144   66.3550 C   0  0  0  0  0  0  0  0  0  0  0  0
   20.1420   40.9231   66.4667 C   0  0  0  0  0  0  0  0  0  0  0  0
   21.1881   40.2817   67.1131 N   0  0  0  0  0  0  0  0  0  0  0  0
   19.1380   40.2215   65.9490 N   0  0  0  0  0  0  0  0  0  0  0  0
   18.1444   40.8257   65.3303 C   0  0  0  0  0  0  0  0  0  0  0  0
   18.0972   42.1379   65.2081 N   0  0  0  0  0  0  0  0  0  0  0  0
   29.4742   41.1596   65.8122 O   0  5  0  0  0  0  0  0  0  0  0  0
   29.5269   39.9824   68.0496 O   0  0  0  0  0  0  0  0  0  0  0  0
   23.1765   44.5148   63.9377 S   0  0  0  0  0  0  0  0  0  0  0  0
   21.7698   44.3880   64.9488 C   0  0  0  0  0  0  0  0  0  0  0  0
   27.2224   40.6235   64.8060 O   0  0  0  0  0  0  0  0  0  0  0  0
   27.2826   39.5446   69.2369 O   0  5  0  0  0  0  0  0  0  0  0  0
   22.1640   43.5331   65.8640 N   0  0  0  0  0  0  0  0  0  0  0  0
   27.4606   41.3401   67.3238 O   0  0  0  0  0  0  0  0  0  0  0  0
   27.6692   38.8277   66.7934 O   0  0  0  0  0  0  0  0  0  0  0  0
   23.3733   43.0165   65.8447 C   0  0  2  0  0  0  0  0  0  0  0  0
   24.2162   43.3796   64.8446 C   0  0  2  0  0  0  0  0  0  0  0  0
   25.6343   42.9486   64.5762 C   0  0  0  0  0  0  0  0  0  0  0  0
   26.5469   43.4674   65.6898 C   0  0  0  0  0  0  0  0  0  0  0  0
   27.8972   43.0907   65.4124 O   0  0  0  0  0  0  0  0  0  0  0  0
  1 11  1  0  0  0  0
  3 13  1  6  0  0  0
  3 17  2  0  0  0  0
  3 20  1  0  0  0  0
  3 26  1  0  0  0  0
  4 14  1  1  0  0  0
  4 18  1  0  0  0  0
  4 21  2  0  0  0  0
  4 20  1  0  0  0  0
  5 19  1  0  0  0  0
  5  7  1  0  0  0  0
  6  7  2  0  0  0  0
  6 12  1  0  0  0  0
  7  8  1  0  0  0  0
  8  9  1  0  0  0  0
  8 10  2  0  0  0  0
 10 11  1  0  0  0  0
 11 12  2  0  0  0  0
 15 23  1  0  0  0  0
 15 16  1  0  0  0  0
 16 19  1  0  0  0  0
 19 22  1  0  0  0  0
 22  2  1  6  0  0  0
 22 23  1  0  0  0  0
 23 24  1  1  0  0  0
 24 25  1  0  0  0  0
 25 26  1  0  0  0  0
M  CHG  2  13  -1  18  -1
M  END
>  <CHROM.1>
-44.57504538,69.34773097,-80.07299871,68.01394706,113.32703941,-178.31219616
-78.83211926,-169.60704000,24.29002358,41.73922604,66.06742080,2.95493143
-0.05369717,-0.57041237

>  <Name>
ligand

>  <RI>
0

>  <Rbt.Current_Directory>
/home/itssahil/PROJECTS/Mol_Feturizer/New_Systems/rnas/2HOJ

>  <Rbt.Executable>
rbdock ($Id: //depot/dev/client3/rdock/2013.1/src/exe/rbdock.cxx#4 $)

>  <Rbt.Library>
libRbt.so (2013.1, Build901 2013/11/27)

>  <Rbt.Parameter_File>
/export/apps/rDock/src/rDock_2013.1_src/data/scripts/dock_solv.prm

>  <Rbt.Receptor>
prm/pocket_docking_5.prm

>  <SCORE>
-22.0649

>  <SCORE.INTER>
-19.9146

>  <SCORE.INTER.CONST>
1

>  <SCORE.INTER.POLAR>
-1.03048

>  <SCORE.INTER.ROT>
8

>  <SCORE.INTER.SOLV>
13.9183

>  <SCORE.INTER.VDW>
-23.4142

>  <SCORE.INTER.norm>
-0.765946

>  <SCORE.INTRA>
-2.15026

>  <SCORE.INTRA.DIHEDRAL>
-4.79123

>  <SCORE.INTRA.DIHEDRAL.0>
11.6398

>  <SCORE.INTRA.POLAR>
0

>  <SCORE.INTRA.POLAR.0>
0

>  <SCORE.INTRA.REPUL>
0

>  <SCORE.INTRA.REPUL.0>
0

>  <SCORE.INTRA.SOLV>
4.82552

>  <SCORE.INTRA.SOLV.lig_0>
-81.722

>  <SCORE.INTRA.VDW>
-2.16741

>  <SCORE.INTRA.VDW.0>
1.12598

>  <SCORE.INTRA.norm>
-0.0827024

>  <SCORE.RESTR>
0

>  <SCORE.RESTR.CAVITY>
0

>  <SCORE.RESTR.norm>
0

>  <SCORE.SYSTEM>
0

>  <SCORE.SYSTEM.CONST>
0

>  <SCORE.SYSTEM.DIHEDRAL>
0

>  <SCORE.SYSTEM.SOLV>
0

>  <SCORE.SYSTEM.norm>
0

>  <SCORE.heavy>
26

>  <SCORE.norm>
-0.848649

>  <RMSD>
3.538

$$$$
ligand
 OpenBabel11021811433D
libRbt.so/2013.1/901 2013/11/27
 26 27  0  0  0  0  0  0  0  0999 V2000
   16.4285   38.9842   64.2354 C   0  0  0  0  0  0  0  0  0  0  0  0
   22.1382   44.1228   66.1327 C   0  0  0  0  0  0  0  0  0  0  0  0
   27.7969   42.8652   65.2097 P   0  0  1  0  0  0  0  0  0  0  0  0
   27.9229   41.0048   67.0014 P   0  0  1  0  0  0  0  0  0  0  0  0
   20.6078   41.8709   66.8081 C   0  0  0  0  0  0  0  0  0  0  0  0
   18.5905   41.7502   65.3156 C   0  0  0  0  0  0  0  0  0  0  0  0
   19.5021   41.1056   66.1278 C   0  0  0  0  0  0  0  0  0  0  0  0
   19.3736   39.7266   66.3027 C   0  0  0  0  0  0  0  0  0  0  0  0
   20.2634   39.0325   67.1090 N   0  0  0  0  0  0  0  0  0  0  0  0
   18.3813   39.0886   65.6891 N   0  0  0  0  0  0  0  0  0  0  0  0
   17.5364   39.7425   64.9188 C   0  0  0  0  0  0  0  0  0  0  0  0
   17.6301   41.0448   64.7332 N   0  0  0  0  0  0  0  0  0  0  0  0
   27.2521   43.8947   66.1235 O   0  5  0  0  0  0  0  0  0  0  0  0
   27.3325   39.8176   66.2088 O   0  0  0  0  0  0  0  0  0  0  0  0
   23.7274   40.7595   64.9058 S   0  0  0  0  0  0  0  0  0  0  0  0
   22.2316   40.4681   65.7396 C   0  0  0  0  0  0  0  0  0  0  0  0
   28.5768   43.5805   63.9982 O   0  0  0  0  0  0  0  0  0  0  0  0
   28.8410   40.4479   68.2001 O   0  5  0  0  0  0  0  0  0  0  0  0
   21.8584   41.6830   66.0695 N   0  0  0  0  0  0  0  0  0  0  0  0
   28.8159   41.9159   66.0184 O   0  0  0  0  0  0  0  0  0  0  0  0
   26.7727   41.8550   67.5865 O   0  0  0  0  0  0  0  0  0  0  0  0
   22.5811   42.7337   65.7478 C   0  0  2  0  0  0  0  0  0  0  0  0
   23.7394   42.5388   65.0675 C   0  0  2  0  0  0  0  0  0  0  0  0
   24.7511   43.5430   64.5809 C   0  0  0  0  0  0  0  0  0  0  0  0
   25.8297   42.8287   63.7633 C   0  0  0  0  0  0  0  0  0  0  0  0
   26.5902   41.9759   64.6214 O   0  0  0  0  0  0  0  0  0  0  0  0
  1 11  1  0  0  0  0
  3 13  1  1  0  0  0
  3 17  2  0  0  0  0
  3 20  1  0  0  0  0
  3 26  1  0  0  0  0
  4 14  1  6  0  0  0
  4 18  1  0  0  0  0
  4 21  2  0  0  0  0
  4 20  1  0  0  0  0
  5 19  1  0  0  0  0
  5  7  1  0  0  0  0
  6  7  2  0  0  0  0
  6 12  1  0  0  0  0
  7  8  1  0  0  0  0
  8  9  1  0  0  0  0
  8 10  2  0  0  0  0
 10 11  1  0  0  0  0
 11 12  2  0  0  0  0
 15 23  1  0  0  0  0
 15 16  1  0  0  0  0
 16 19  1  0  0  0  0
 19 22  1  0  0  0  0
 22  2  1  1  0  0  0
 22 23  1  0  0  0  0
 23 24  1  6  0  0  0
 24 25  1  0  0  0  0
 25 26  1  0  0  0  0
M  CHG  2  13  -1  18  -1
M  END
>  <CHROM.1>
71.69038858,-49.19732210,-101.10004550,80.89433179,4.45732849,-67.09362125
-88.67266378,68.10233759,23.88568379,41.50889422,65.71334269,-3.00869213
-0.14845822,-0.56390077

>  <Name>
ligand

>  <RI>
0

>  <Rbt.Current_Directory>
/home/itssahil/PROJECTS/Mol_Feturizer/New_Systems/rnas/2HOJ

>  <Rbt.Executable>
rbdock ($Id: //depot/dev/client3/rdock/2013.1/src/exe/rbdock.cxx#4 $)

>  <Rbt.Library>
libRbt.so (2013.1, Build901 2013/11/27)

>  <Rbt.Parameter_File>
/export/apps/rDock/src/rDock_2013.1_src/data/scripts/dock_solv.prm

>  <Rbt.Receptor>
prm/pocket_docking_8.prm

>  <SCORE>
-19.0097

>  <SCORE.INTER>
-16.7067

>  <SCORE.INTER.CONST>
1

>  <SCORE.INTER.POLAR>
-1.26654

>  <SCORE.INTER.ROT>
8

>  <SCORE.INTER.SOLV>
18.3551

>  <SCORE.INTER.VDW>
-21.9677

>  <SCORE.INTER.norm>
-0.642564

>  <SCORE.INTRA>
-2.30302

>  <SCORE.INTRA.DIHEDRAL>
-2.55187

>  <SCORE.INTRA.DIHEDRAL.0>
11.6398

>  <SCORE.INTRA.POLAR>
0

>  <SCORE.INTRA.POLAR.0>
0

>  <SCORE.INTRA.REPUL>
0

>  <SCORE.INTRA.REPUL.0>
0

>  <SCORE.INTRA.SOLV>
3.46682

>  <SCORE.INTRA.SOLV.lig_0>
-81.722

>  <SCORE.INTRA.VDW>
-2.76049

>  <SCORE.INTRA.VDW.0>
1.12598

>  <SCORE.INTRA.norm>
-0.0885777

>  <SCORE.RESTR>
0

>  <SCORE.RESTR.CAVITY>
0

>  <SCORE.RESTR.norm>
0

>  <SCORE.SYSTEM>
0

>  <SCORE.SYSTEM.CONST>
0

>  <SCORE.SYSTEM.DIHEDRAL>
0

>  <SCORE.SYSTEM.SOLV>
0

>  <SCORE.SYSTEM.norm>
0

>  <SCORE.heavy>
26

>  <SCORE.norm>
-0.731142

>  <RMSD>
3.548

$$$$
ligand
 OpenBabel11021811433D
libRbt.so/2013.1/901 2013/11/27
 26 27  0  0  0  0  0  0  0  0999 V2000
   21.1418   44.8075   66.3969 C   0  0  0  0  0  0  0  0  0  0  0  0
   21.0865   38.7415   68.8323 C   0  0  0  0  0  0  0  0  0  0  0  0
   27.1523   38.1896   67.5385 P   0  0  1  0  0  0  0  0  0  0  0  0
   27.4353   37.9170   64.9826 P   0  0  1  0  0  0  0  0  0  0  0  0
   19.8547   39.2613   66.3661 C   0  0  0  0  0  0  0  0  0  0  0  0
   21.3442   41.1874   66.9852 C   0  0  0  0  0  0  0  0  0  0  0  0
   20.1941   40.7296   66.3736 C   0  0  0  0  0  0  0  0  0  0  0  0
   19.3538   41.6614   65.7618 C   0  0  0  0  0  0  0  0  0  0  0  0
   18.1864   41.2526   65.1344 N   0  0  0  0  0  0  0  0  0  0  0  0
   19.6862   42.9485   65.7946 N   0  0  0  0  0  0  0  0  0  0  0  0
   20.7960   43.3413   66.3855 C   0  0  0  0  0  0  0  0  0  0  0  0
   21.6108   42.4866   66.9725 N   0  0  0  0  0  0  0  0  0  0  0  0
   27.8018   38.0598   68.8625 O   0  5  0  0  0  0  0  0  0  0  0  0
   28.1703   37.1408   63.8674 O   0  0  0  0  0  0  0  0  0  0  0  0
   23.0076   37.1831   65.7954 S   0  0  0  0  0  0  0  0  0  0  0  0
   21.5908   38.0334   65.2596 C   0  0  0  0  0  0  0  0  0  0  0  0
   26.8437   39.7401   67.2411 O   0  0  0  0  0  0  0  0  0  0  0  0
   25.8937   37.4575   65.0316 O   0  5  0  0  0  0  0  0  0  0  0  0
   21.0895   38.4741   66.3902 N   0  0  0  0  0  0  0  0  0  0  0  0
   28.1337   37.6095   66.4009 O   0  0  0  0  0  0  0  0  0  0  0  0
   27.5115   39.4325   64.6901 O   0  0  0  0  0  0  0  0  0  0  0  0
   21.6740   38.2271   67.5423 C   0  0  2  0  0  0  0  0  0  0  0  0
   22.8149   37.4917   67.5445 C   0  0  2  0  0  0  0  0  0  0  0  0
   23.6797   37.0595   68.6996 C   0  0  0  0  0  0  0  0  0  0  0  0
   25.0119   37.8111   68.6515 C   0  0  0  0  0  0  0  0  0  0  0  0
   25.7743   37.3564   67.5316 O   0  0  0  0  0  0  0  0  0  0  0  0
  1 11  1  0  0  0  0
  3 13  1  1  0  0  0
  3 17  2  0  0  0  0
  3 20  1  0  0  0  0
  3 26  1  0  0  0  0
  4 14  1  6  0  0  0
  4 18  1  0  0  0  0
  4 21  2  0  0  0  0
  4 20  1  0  0  0  0
  5 19  1  0  0  0  0
  5  7  1  0  0  0  0
  6  7  2  0  0  0  0
  6 12  1  0  0  0  0
  7  8  1  0  0  0  0
  8  9  1  0  0  0  0
  8 10  2  0  0  0  0
 10 11  1  0  0  0  0
 11 12  2  0  0  0  0
 15 23  1  0  0  0  0
 15 16  1  0  0  0  0
 16 19  1  0  0  0  0
 19 22  1  0  0  0  0
 22  2  1  1  0  0  0
 22 23  1  0  0  0  0
 23 24  1  6  0  0  0
 24 25  1  0  0  0  0
 25 26  1  0  0  0  0
M  CHG  2  13  -1  18  -1
M  END
>  <CHROM.1>
-174.35659833,-95.74914137,-29.76630779,-168.51477076,69.48997768,-69.25637174
179.74097116,53.62417502,23.83736491,39.11362433,66.51327959,-2.68862053
-0.14965326,2.84928873

>  <Name>
ligand

>  <RI>
0

>  <Rbt.Current_Directory>
/home/itssahil/PROJECTS/Mol_Feturizer/New_Systems/rnas/2HOJ

>  <Rbt.Executable>
rbdock ($Id: //depot/dev/client3/rdock/2013.1/src/exe/rbdock.cxx#4 $)

>  <Rbt.Library>
libRbt.so (2013.1, Build901 2013/11/27)

>  <Rbt.Parameter_File>
/export/apps/rDock/src/rDock_2013.1_src/data/scripts/dock_solv.prm

>  <Rbt.Receptor>
prm/pocket_docking_6.prm

>  <SCORE>
-19.3619

>  <SCORE.INTER>
-14.6122

>  <SCORE.INTER.CONST>
1

>  <SCORE.INTER.POLAR>
0

>  <SCORE.INTER.ROT>
8

>  <SCORE.INTER.SOLV>
23.8585

>  <SCORE.INTER.VDW>
-26.6276

>  <SCORE.INTER.norm>
-0.562008

>  <SCORE.INTRA>
-4.7497

>  <SCORE.INTRA.DIHEDRAL>
-5.87629

>  <SCORE.INTRA.DIHEDRAL.0>
11.6398

>  <SCORE.INTRA.POLAR>
0

>  <SCORE.INTRA.POLAR.0>
0

>  <SCORE.INTRA.REPUL>
0

>  <SCORE.INTRA.REPUL.0>
0

>  <SCORE.INTRA.SOLV>
2.98485

>  <SCORE.INTRA.SOLV.lig_0>
-81.722

>  <SCORE.INTRA.VDW>
-3.30398

>  <SCORE.INTRA.VDW.0>
1.12598

>  <SCORE.INTRA.norm>
-0.182681

>  <SCORE.RESTR>
0

>  <SCORE.RESTR.CAVITY>
0

>  <SCORE.RESTR.norm>
0

>  <SCORE.SYSTEM>
0

>  <SCORE.SYSTEM.CONST>
0

>  <SCORE.SYSTEM.DIHEDRAL>
0

>  <SCORE.SYSTEM.SOLV>
0

>  <SCORE.SYSTEM.norm>
0

>  <SCORE.heavy>
26

>  <SCORE.norm>
-0.744689

>  <RMSD>
3.551

$$$$
ligand
 OpenBabel11021811433D
libRbt.so/2013.1/901 2013/11/27
 26 27  0  0  0  0  0  0  0  0999 V2000
   21.1481   44.7916   66.3969 C   0  0  0  0  0  0  0  0  0  0  0  0
   21.0792   38.6058   68.8775 C   0  0  0  0  0  0  0  0  0  0  0  0
   27.1130   38.2838   67.6533 P   0  0  1  0  0  0  0  0  0  0  0  0
   27.3183   38.1393   65.0796 P   0  0  1  0  0  0  0  0  0  0  0  0
   19.8725   39.2426   66.4264 C   0  0  0  0  0  0  0  0  0  0  0  0
   21.3318   41.1847   67.0670 C   0  0  0  0  0  0  0  0  0  0  0  0
   20.2088   40.7117   66.4178 C   0  0  0  0  0  0  0  0  0  0  0  0
   19.3930   41.6287   65.7529 C   0  0  0  0  0  0  0  0  0  0  0  0
   18.2533   41.2043   65.0862 N   0  0  0  0  0  0  0  0  0  0  0  0
   19.7217   42.9170   65.7731 N   0  0  0  0  0  0  0  0  0  0  0  0
   20.8054   43.3246   66.4012 C   0  0  0  0  0  0  0  0  0  0  0  0
   21.5966   42.4841   67.0387 N   0  0  0  0  0  0  0  0  0  0  0  0
   27.7773   38.0403   68.9537 O   0  5  0  0  0  0  0  0  0  0  0  0
   26.0108   37.3170   65.0573 O   0  0  0  0  0  0  0  0  0  0  0  0
   23.0372   37.2021   65.7891 S   0  0  0  0  0  0  0  0  0  0  0  0
   21.6238   38.0743   65.2801 C   0  0  0  0  0  0  0  0  0  0  0  0
   26.7480   39.8449   67.5204 O   0  0  0  0  0  0  0  0  0  0  0  0
   26.9701   39.7065   64.9671 O   0  5  0  0  0  0  0  0  0  0  0  0
   21.1091   38.4581   66.4254 N   0  0  0  0  0  0  0  0  0  0  0  0
   28.1047   37.8604   66.4571 O   0  0  0  0  0  0  0  0  0  0  0  0
   28.2079   37.7229   63.8866 O   0  0  0  0  0  0  0  0  0  0  0  0
   21.6819   38.1564   67.5703 C   0  0  2  0  0  0  0  0  0  0  0  0
   22.8248   37.4243   67.5490 C   0  0  2  0  0  0  0  0  0  0  0  0
   23.6783   36.9382   68.6909 C   0  0  0  0  0  0  0  0  0  0  0  0
   24.9893   37.7271   68.7226 C   0  0  0  0  0  0  0  0  0  0  0  0
   25.7649   37.4074   67.5658 O   0  0  0  0  0  0  0  0  0  0  0  0
  1 11  1  0  0  0  0
  3 13  1  1  0  0  0
  3 17  2  0  0  0  0
  3 20  1  0  0  0  0
  3 26  1  0  0  0  0
  4 14  1  6  0  0  0
  4 18  1  0  0  0  0
  4 21  2  0  0  0  0
  4 20  1  0  0  0  0
  5 19  1  0  0  0  0
  5  7  1  0  0  0  0
  6  7  2  0  0  0  0
  6 12  1  0  0  0  0
  7  8  1  0  0  0  0
  8  9  1  0  0  0  0
  8 10  2  0  0  0  0
 10 11  1  0  0  0  0
 11 12  2  0  0  0  0
 15 23  1  0  0  0  0
 15 16  1  0  0  0  0
 16 19  1  0  0  0  0
 19 22  1  0  0  0  0
 22  2  1  1  0  0  0
 22 23  1  0  0  0  0
 23 24  1  6  0  0  0
 24 25  1  0  0  0  0
 25 26  1  0  0  0  0
M  CHG  2  13  -1  18  -1
M  END
>  <CHROM.1>
179.56961685,-92.06012939,-33.59599358,-58.84335511,71.38467992,-67.12927307
179.20716930,54.26334085,23.81347945,39.15963833,66.57056169,-2.69576724
-0.13572779,2.82712502

>  <Name>
ligand

>  <RI>
0

>  <Rbt.Current_Directory>
/home/itssahil/PROJECTS/Mol_Feturizer/New_Systems/rnas/2HOJ

>  <Rbt.Executable>
rbdock ($Id: //depot/dev/client3/rdock/2013.1/src/exe/rbdock.cxx#4 $)

>  <Rbt.Library>
libRbt.so (2013.1, Build901 2013/11/27)

>  <Rbt.Parameter_File>
/export/apps/rDock/src/rDock_2013.1_src/data/scripts/dock_solv.prm

>  <Rbt.Receptor>
prm/pocket_docking_5.prm

>  <SCORE>
-21.3692

>  <SCORE.INTER>
-14.3646

>  <SCORE.INTER.CONST>
1

>  <SCORE.INTER.POLAR>
0

>  <SCORE.INTER.ROT>
8

>  <SCORE.INTER.SOLV>
22.7521

>  <SCORE.INTER.VDW>
-26.0938

>  <SCORE.INTER.norm>
-0.552486

>  <SCORE.INTRA>
-7.00454

>  <SCORE.INTRA.DIHEDRAL>
-6.29295

>  <SCORE.INTRA.DIHEDRAL.0>
11.6398

>  <SCORE.INTRA.POLAR>
0

>  <SCORE.INTRA.POLAR.0>
0

>  <SCORE.INTRA.REPUL>
0

>  <SCORE.INTRA.REPUL.0>
0

>  <SCORE.INTRA.SOLV>
-0.227918

>  <SCORE.INTRA.SOLV.lig_0>
-81.722

>  <SCORE.INTRA.VDW>
-3.7441

>  <SCORE.INTRA.VDW.0>
1.12598

>  <SCORE.INTRA.norm>
-0.269405

>  <SCORE.RESTR>
0

>  <SCORE.RESTR.CAVITY>
0

>  <SCORE.RESTR.norm>
0

>  <SCORE.SYSTEM>
0

>  <SCORE.SYSTEM.CONST>
0

>  <SCORE.SYSTEM.DIHEDRAL>
0

>  <SCORE.SYSTEM.SOLV>
0

>  <SCORE.SYSTEM.norm>
0

>  <SCORE.heavy>
26

>  <SCORE.norm>
-0.821891

>  <RMSD>
3.558

$$$$
ligand
 OpenBabel11021811433D
libRbt.so/2013.1/901 2013/11/27
 26 27  0  0  0  0  0  0  0  0999 V2000
   21.2045   44.8139   66.4289 C   0  0  0  0  0  0  0  0  0  0  0  0
   21.1924   38.6769   68.8009 C   0  0  0  0  0  0  0  0  0  0  0  0
   26.9729   38.6875   67.3188 P   0  0  1  0  0  0  0  0  0  0  0  0
   27.5460   37.4925   65.0984 P   0  0  1  0  0  0  0  0  0  0  0  0
   19.8542   39.2826   66.4110 C   0  0  0  0  0  0  0  0  0  0  0  0
   21.3471   41.1975   67.0561 C   0  0  0  0  0  0  0  0  0  0  0  0
   20.2103   40.7470   66.4150 C   0  0  0  0  0  0  0  0  0  0  0  0
   19.3993   41.6824   65.7701 C   0  0  0  0  0  0  0  0  0  0  0  0
   18.2463   41.2810   65.1121 N   0  0  0  0  0  0  0  0  0  0  0  0
   19.7456   42.9659   65.8009 N   0  0  0  0  0  0  0  0  0  0  0  0
   20.8420   43.3517   66.4207 C   0  0  0  0  0  0  0  0  0  0  0  0
   21.6291   42.4934   67.0394 N   0  0  0  0  0  0  0  0  0  0  0  0
   27.9725   37.9756   68.1467 O   0  5  0  0  0  0  0  0  0  0  0  0
   28.3613   37.5793   63.7892 O   0  0  0  0  0  0  0  0  0  0  0  0
   22.9519   37.1886   65.6338 S   0  0  0  0  0  0  0  0  0  0  0  0
   21.5222   38.0695   65.1896 C   0  0  0  0  0  0  0  0  0  0  0  0
   26.6326   40.1088   67.9911 O   0  0  0  0  0  0  0  0  0  0  0  0
   28.1911   36.3756   66.0608 O   0  5  0  0  0  0  0  0  0  0  0  0
   21.0791   38.4819   66.3547 N   0  0  0  0  0  0  0  0  0  0  0  0
   27.5693   38.9213   65.8412 O   0  0  0  0  0  0  0  0  0  0  0  0
   26.0858   37.1077   64.7700 O   0  0  0  0  0  0  0  0  0  0  0  0
   21.7133   38.1947   67.4705 C   0  0  2  0  0  0  0  0  0  0  0  0
   22.8440   37.4473   67.3983 C   0  0  2  0  0  0  0  0  0  0  0  0
   23.7561   36.9718   68.4987 C   0  0  0  0  0  0  0  0  0  0  0  0
   25.0268   37.8244   68.5152 C   0  0  0  0  0  0  0  0  0  0  0  0
   25.6298   37.8045   67.2199 O   0  0  0  0  0  0  0  0  0  0  0  0
  1 11  1  0  0  0  0
  3 13  1  1  0  0  0
  3 17  2  0  0  0  0
  3 20  1  0  0  0  0
  3 26  1  0  0  0  0
  4 14  1  6  0  0  0
  4 18  1  0  0  0  0
  4 21  2  0  0  0  0
  4 20  1  0  0  0  0
  5 19  1  0  0  0  0
  5  7  1  0  0  0  0
  6  7  2  0  0  0  0
  6 12  1  0  0  0  0
  7  8  1  0  0  0  0
  8  9  1  0  0  0  0
  8 10  2  0  0  0  0
 10 11  1  0  0  0  0
 11 12  2  0  0  0  0
 15 23  1  0  0  0  0
 15 16  1  0  0  0  0
 16 19  1  0  0  0  0
 19 22  1  0  0  0  0
 22  2  1  1  0  0  0
 22 23  1  0  0  0  0
 23 24  1  6  0  0  0
 24 25  1  0  0  0  0
 25 26  1  0  0  0  0
M  CHG  2  13  -1  18  -1
M  END
>  <CHROM.1>
73.58382870,-94.52585452,-34.92341194,-168.62870480,76.20371109,-54.67651455
-178.66398102,69.79762861,23.85652246,39.08281176,66.48755219,-2.64545430
-0.01926593,-3.13778727

>  <Name>
ligand

>  <RI>
0

>  <Rbt.Current_Directory>
/home/itssahil/PROJECTS/Mol_Feturizer/New_Systems/rnas/2HOJ

>  <Rbt.Executable>
rbdock ($Id: //depot/dev/client3/rdock/2013.1/src/exe/rbdock.cxx#4 $)

>  <Rbt.Library>
libRbt.so (2013.1, Build901 2013/11/27)

>  <Rbt.Parameter_File>
/export/apps/rDock/src/rDock_2013.1_src/data/scripts/dock_solv.prm

>  <Rbt.Receptor>
prm/pocket_docking_6.prm

>  <SCORE>
-19.6919

>  <SCORE.INTER>
-14.4645

>  <SCORE.INTER.CONST>
1

>  <SCORE.INTER.POLAR>
0

>  <SCORE.INTER.ROT>
8

>  <SCORE.INTER.SOLV>
24.5558

>  <SCORE.INTER.VDW>
-26.7616

>  <SCORE.INTER.norm>
-0.556325

>  <SCORE.INTRA>
-5.2274

>  <SCORE.INTRA.DIHEDRAL>
-5.82684

>  <SCORE.INTRA.DIHEDRAL.0>
11.6398

>  <SCORE.INTRA.POLAR>
0

>  <SCORE.INTRA.POLAR.0>
0

>  <SCORE.INTRA.REPUL>
0

>  <SCORE.INTRA.REPUL.0>
0

>  <SCORE.INTRA.SOLV>
2.48709

>  <SCORE.INTRA.SOLV.lig_0>
-81.722

>  <SCORE.INTRA.VDW>
-3.55753

>  <SCORE.INTRA.VDW.0>
1.12598

>  <SCORE.INTRA.norm>
-0.201054

>  <SCORE.RESTR>
0

>  <SCORE.RESTR.CAVITY>
0

>  <SCORE.RESTR.norm>
0

>  <SCORE.SYSTEM>
0

>  <SCORE.SYSTEM.CONST>
0

>  <SCORE.SYSTEM.DIHEDRAL>
0

>  <SCORE.SYSTEM.SOLV>
0

>  <SCORE.SYSTEM.norm>
0

>  <SCORE.heavy>
26

>  <SCORE.norm>
-0.757379

>  <RMSD>
3.566

$$$$
ligand
 OpenBabel11021811433D
libRbt.so/2013.1/901 2013/11/27
 26 27  0  0  0  0  0  0  0  0999 V2000
   21.1647   44.7977   66.3992 C   0  0  0  0  0  0  0  0  0  0  0  0
   21.0712   38.6855   68.9027 C   0  0  0  0  0  0  0  0  0  0  0  0
   27.1758   38.0519   67.6361 P   0  0  1  0  0  0  0  0  0  0  0  0
   27.4703   37.7949   65.0799 P   0  0  1  0  0  0  0  0  0  0  0  0
   19.9041   39.2453   66.4139 C   0  0  0  0  0  0  0  0  0  0  0  0
   21.3522   41.1910   67.0690 C   0  0  0  0  0  0  0  0  0  0  0  0
   20.2365   40.7152   66.4092 C   0  0  0  0  0  0  0  0  0  0  0  0
   19.4243   41.6304   65.7373 C   0  0  0  0  0  0  0  0  0  0  0  0
   18.2920   41.2033   65.0599 N   0  0  0  0  0  0  0  0  0  0  0  0
   19.7492   42.9196   65.7612 N   0  0  0  0  0  0  0  0  0  0  0  0
   20.8260   43.3298   66.3995 C   0  0  0  0  0  0  0  0  0  0  0  0
   21.6136   42.4911   67.0439 N   0  0  0  0  0  0  0  0  0  0  0  0
   27.8102   37.8849   68.9633 O   0  5  0  0  0  0  0  0  0  0  0  0
   25.9946   37.3382   65.0728 O   0  0  0  0  0  0  0  0  0  0  0  0
   23.0834   37.1950   65.8907 S   0  0  0  0  0  0  0  0  0  0  0  0
   21.6768   38.0477   65.3324 C   0  0  0  0  0  0  0  0  0  0  0  0
   26.9397   39.6166   67.3465 O   0  0  0  0  0  0  0  0  0  0  0  0
   27.5427   39.3846   64.8397 O   0  5  0  0  0  0  0  0  0  0  0  0
   21.1423   38.4643   66.4570 N   0  0  0  0  0  0  0  0  0  0  0  0
   28.1371   37.4346   66.5010 O   0  0  0  0  0  0  0  0  0  0  0  0
   28.2386   37.0686   63.9529 O   0  0  0  0  0  0  0  0  0  0  0  0
   21.6966   38.1987   67.6198 C   0  0  2  0  0  0  0  0  0  0  0  0
   22.8412   37.4694   67.6394 C   0  0  2  0  0  0  0  0  0  0  0  0
   23.6768   37.0200   68.8094 C   0  0  0  0  0  0  0  0  0  0  0  0
   25.0368   37.7203   68.7667 C   0  0  0  0  0  0  0  0  0  0  0  0
   25.7615   37.2823   67.6156 O   0  0  0  0  0  0  0  0  0  0  0  0
  1 11  1  0  0  0  0
  3 13  1  1  0  0  0
  3 17  2  0  0  0  0
  3 20  1  0  0  0  0
  3 26  1  0  0  0  0
  4 14  1  6  0  0  0
  4 18  1  0  0  0  0
  4 21  2  0  0  0  0
  4 20  1  0  0  0  0
  5 19  1  0  0  0  0
  5  7  1  0  0  0  0
  6  7  2  0  0  0  0
  6 12  1  0  0  0  0
  7  8  1  0  0  0  0
  8  9  1  0  0  0  0
  8 10  2  0  0  0  0
 10 11  1  0  0  0  0
 11 12  2  0  0  0  0
 15 23  1  0  0  0  0
 15 16  1  0  0  0  0
 16 19  1  0  0  0  0
 19 22  1  0  0  0  0
 22  2  1  1  0  0  0
 22 23  1  0  0  0  0
 23 24  1  6  0  0  0
 24 25  1  0  0  0  0
 25 26  1  0  0  0  0
M  CHG  2  13  -1  18  -1
M  END
>  <CHROM.1>
-173.79547166,-93.77390104,-32.22320802,-52.44949625,66.28263764,-65.79247141
-179.85563125,51.11183853,23.87718494,39.05254425,66.58346956,-2.68079746
-0.17284426,2.78918344

>  <Name>
ligand

>  <RI>
0

>  <Rbt.Current_Directory>
/home/itssahil/PROJECTS/Mol_Feturizer/New_Systems/rnas/2HOJ

>  <Rbt.Executable>
rbdock ($Id: //depot/dev/client3/rdock/2013.1/src/exe/rbdock.cxx#4 $)

>  <Rbt.Library>
libRbt.so (2013.1, Build901 2013/11/27)

>  <Rbt.Parameter_File>
/export/apps/rDock/src/rDock_2013.1_src/data/scripts/dock_solv.prm

>  <Rbt.Receptor>
prm/pocket_docking_4.prm

>  <SCORE>
-21.3617

>  <SCORE.INTER>
-14.7042

>  <SCORE.INTER.CONST>
1

>  <SCORE.INTER.POLAR>
0

>  <SCORE.INTER.ROT>
8

>  <SCORE.INTER.SOLV>
22.9095

>  <SCORE.INTER.VDW>
-26.3726

>  <SCORE.INTER.norm>
-0.565546

>  <SCORE.INTRA>
-6.65748

>  <SCORE.INTRA.DIHEDRAL>
-6.09261

>  <SCORE.INTRA.DIHEDRAL.0>
11.6398

>  <SCORE.INTRA.POLAR>
0

>  <SCORE.INTRA.POLAR.0>
0

>  <SCORE.INTRA.REPUL>
0

>  <SCORE.INTRA.REPUL.0>
0

>  <SCORE.INTRA.SOLV>
-0.325336

>  <SCORE.INTRA.SOLV.lig_0>
-81.722

>  <SCORE.INTRA.VDW>
-3.44851

>  <SCORE.INTRA.VDW.0>
1.12598

>  <SCORE.INTRA.norm>
-0.256057

>  <SCORE.RESTR>
0

>  <SCORE.RESTR.CAVITY>
0

>  <SCORE.RESTR.norm>
0

>  <SCORE.SYSTEM>
0

>  <SCORE.SYSTEM.CONST>
0

>  <SCORE.SYSTEM.DIHEDRAL>
0

>  <SCORE.SYSTEM.SOLV>
0

>  <SCORE.SYSTEM.norm>
0

>  <SCORE.heavy>
26

>  <SCORE.norm>
-0.821603

>  <RMSD>
3.573

$$$$
ligand
 OpenBabel11021811433D
libRbt.so/2013.1/901 2013/11/27
 26 27  0  0  0  0  0  0  0  0999 V2000
   21.2440   44.8249   66.4045 C   0  0  0  0  0  0  0  0  0  0  0  0
   21.3128   38.6536   68.8985 C   0  0  0  0  0  0  0  0  0  0  0  0
   27.1599   38.5372   67.3111 P   0  0  1  0  0  0  0  0  0  0  0  0
   27.6081   37.3800   65.0424 P   0  0  1  0  0  0  0  0  0  0  0  0
   19.9658   39.2776   66.5182 C   0  0  0  0  0  0  0  0  0  0  0  0
   21.4246   41.2289   67.1315 C   0  0  0  0  0  0  0  0  0  0  0  0
   20.3029   40.7462   66.4873 C   0  0  0  0  0  0  0  0  0  0  0  0
   19.4890   41.6530   65.8063 C   0  0  0  0  0  0  0  0  0  0  0  0
   18.3506   41.2187   65.1437 N   0  0  0  0  0  0  0  0  0  0  0  0
   19.8182   42.9414   65.8070 N   0  0  0  0  0  0  0  0  0  0  0  0
   20.9007   43.3583   66.4310 C   0  0  0  0  0  0  0  0  0  0  0  0
   21.6901   42.5275   67.0835 N   0  0  0  0  0  0  0  0  0  0  0  0
   28.1211   37.7011   68.0651 O   0  5  0  0  0  0  0  0  0  0  0  0
   28.3738   37.4711   63.7038 O   0  0  0  0  0  0  0  0  0  0  0  0
   23.0860   37.2293   65.7096 S   0  0  0  0  0  0  0  0  0  0  0  0
   21.6462   38.1003   65.2788 C   0  0  0  0  0  0  0  0  0  0  0  0
   26.9761   39.9504   68.0574 O   0  0  0  0  0  0  0  0  0  0  0  0
   28.2448   36.2118   65.9479 O   0  5  0  0  0  0  0  0  0  0  0  0
   21.1996   38.4915   66.4498 N   0  0  0  0  0  0  0  0  0  0  0  0
   27.7189   38.7853   65.8212 O   0  0  0  0  0  0  0  0  0  0  0  0
   26.1216   37.0627   64.7637 O   0  0  0  0  0  0  0  0  0  0  0  0
   21.8378   38.1958   67.5611 C   0  0  2  0  0  0  0  0  0  0  0  0
   22.9768   37.4622   67.4776 C   0  0  2  0  0  0  0  0  0  0  0  0
   23.8951   36.9816   68.5706 C   0  0  0  0  0  0  0  0  0  0  0  0
   25.1888   37.7988   68.5491 C   0  0  0  0  0  0  0  0  0  0  0  0
   25.7393   37.7832   67.2305 O   0  0  0  0  0  0  0  0  0  0  0  0
  1 11  1  0  0  0  0
  3 13  1  1  0  0  0
  3 17  2  0  0  0  0
  3 20  1  0  0  0  0
  3 26  1  0  0  0  0
  4 14  1  6  0  0  0
  4 18  1  0  0  0  0
  4 21  2  0  0  0  0
  4 20  1  0  0  0  0
  5 19  1  0  0  0  0
  5  7  1  0  0  0  0
  6  7  2  0  0  0  0
  6 12  1  0  0  0  0
  7  8  1  0  0  0  0
  8  9  1  0  0  0  0
  8 10  2  0  0  0  0
 10 11  1  0  0  0  0
 11 12  2  0  0  0  0
 15 23  1  0  0  0  0
 15 16  1  0  0  0  0
 16 19  1  0  0  0  0
 19 22  1  0  0  0  0
 22  2  1  1  0  0  0
 22 23  1  0  0  0  0
 23 24  1  6  0  0  0
 24 25  1  0  0  0  0
 25 26  1  0  0  0  0
M  CHG  2  13  -1  18  -1
M  END
>  <CHROM.1>
70.72368897,-92.30361516,-37.02418487,-169.13259306,73.15326270,-52.35668875
-174.73277420,69.90468569,23.96958270,39.03075257,66.50859644,-2.63447811
-0.04717836,3.11069757

>  <Name>
ligand

>  <RI>
0

>  <Rbt.Current_Directory>
/home/itssahil/PROJECTS/Mol_Feturizer/New_Systems/rnas/2HOJ

>  <Rbt.Executable>
rbdock ($Id: //depot/dev/client3/rdock/2013.1/src/exe/rbdock.cxx#4 $)

>  <Rbt.Library>
libRbt.so (2013.1, Build901 2013/11/27)

>  <Rbt.Parameter_File>
/export/apps/rDock/src/rDock_2013.1_src/data/scripts/dock_solv.prm

>  <Rbt.Receptor>
prm/blind_docking_100.prm

>  <SCORE>
-19.5492

>  <SCORE.INTER>
-14.3206

>  <SCORE.INTER.CONST>
1

>  <SCORE.INTER.POLAR>
0

>  <SCORE.INTER.ROT>
8

>  <SCORE.INTER.SOLV>
24.5158

>  <SCORE.INTER.VDW>
-26.6523

>  <SCORE.INTER.norm>
-0.550792

>  <SCORE.INTRA>
-5.22864

>  <SCORE.INTRA.DIHEDRAL>
-5.67459

>  <SCORE.INTRA.DIHEDRAL.0>
11.6398

>  <SCORE.INTRA.POLAR>
0

>  <SCORE.INTRA.POLAR.0>
0

>  <SCORE.INTRA.REPUL>
0

>  <SCORE.INTRA.REPUL.0>
0

>  <SCORE.INTRA.SOLV>
2.51421

>  <SCORE.INTRA.SOLV.lig_0>
-81.722

>  <SCORE.INTRA.VDW>
-3.64846

>  <SCORE.INTRA.VDW.0>
1.12598

>  <SCORE.INTRA.norm>
-0.201102

>  <SCORE.RESTR>
0

>  <SCORE.RESTR.CAVITY>
0

>  <SCORE.RESTR.norm>
0

>  <SCORE.SYSTEM>
0

>  <SCORE.SYSTEM.CONST>
0

>  <SCORE.SYSTEM.DIHEDRAL>
0

>  <SCORE.SYSTEM.SOLV>
0

>  <SCORE.SYSTEM.norm>
0

>  <SCORE.heavy>
26

>  <SCORE.norm>
-0.751894

>  <RMSD>
3.577

$$$$
ligand
 OpenBabel11021811433D
libRbt.so/2013.1/901 2013/11/27
 26 27  0  0  0  0  0  0  0  0999 V2000
   18.1960   40.7717   65.6158 C   0  0  0  0  0  0  0  0  0  0  0  0
   24.9059   38.3261   67.8210 C   0  0  0  0  0  0  0  0  0  0  0  0
   29.3543   38.1037   67.3279 P   0  0  1  0  0  0  0  0  0  0  0  0
   28.3357   36.8458   65.3112 P   0  0  1  0  0  0  0  0  0  0  0  0
   23.5310   38.7922   65.4207 C   0  0  0  0  0  0  0  0  0  0  0  0
   21.8575   40.6133   65.8619 C   0  0  0  0  0  0  0  0  0  0  0  0
   22.1183   39.3148   65.4719 C   0  0  0  0  0  0  0  0  0  0  0  0
   21.0403   38.4983   65.1260 C   0  0  0  0  0  0  0  0  0  0  0  0
   21.2491   37.1862   64.7281 N   0  0  0  0  0  0  0  0  0  0  0  0
   19.8086   38.9955   65.1892 N   0  0  0  0  0  0  0  0  0  0  0  0
   19.6053   40.2423   65.5622 C   0  0  0  0  0  0  0  0  0  0  0  0
   20.6018   41.0392   65.8955 N   0  0  0  0  0  0  0  0  0  0  0  0
   30.2958   38.0186   68.4672 O   0  5  0  0  0  0  0  0  0  0  0  0
   29.2086   37.5862   64.2738 O   0  0  0  0  0  0  0  0  0  0  0  0
   25.7573   41.7932   66.2097 S   0  0  0  0  0  0  0  0  0  0  0  0
   24.6057   40.9272   65.2395 C   0  0  0  0  0  0  0  0  0  0  0  0
   29.9363   39.1194   66.2246 O   0  0  0  0  0  0  0  0  0  0  0  0
   27.9068   35.4092   64.7260 O   0  5  0  0  0  0  0  0  0  0  0  0
   24.4496   39.8166   65.9223 N   0  0  0  0  0  0  0  0  0  0  0  0
   29.1735   36.6441   66.6718 O   0  0  0  0  0  0  0  0  0  0  0  0
   27.0690   37.6802   65.6065 O   0  0  0  0  0  0  0  0  0  0  0  0
   25.0970   39.6064   67.0476 C   0  0  2  0  0  0  0  0  0  0  0  0
   25.9477   40.5655   67.4936 C   0  0  2  0  0  0  0  0  0  0  0  0
   26.8091   40.5899   68.7290 C   0  0  0  0  0  0  0  0  0  0  0  0
   28.1533   39.9223   68.4296 C   0  0  0  0  0  0  0  0  0  0  0  0
   27.9267   38.6364   67.8488 O   0  0  0  0  0  0  0  0  0  0  0  0
  1 11  1  0  0  0  0
  3 13  1  1  0  0  0
  3 17  2  0  0  0  0
  3 20  1  0  0  0  0
  3 26  1  0  0  0  0
  4 14  1  6  0  0  0
  4 18  1  0  0  0  0
  4 21  2  0  0  0  0
  4 20  1  0  0  0  0
  5 19  1  0  0  0  0
  5  7  1  0  0  0  0
  6  7  2  0  0  0  0
  6 12  1  0  0  0  0
  7  8  1  0  0  0  0
  8  9  1  0  0  0  0
  8 10  2  0  0  0  0
 10 11  1  0  0  0  0
 11 12  2  0  0  0  0
 15 23  1  0  0  0  0
 15 16  1  0  0  0  0
 16 19  1  0  0  0  0
 19 22  1  0  0  0  0
 22  2  1  6  0  0  0
 22 23  1  0  0  0  0
 23 24  1  1  0  0  0
 24 25  1  0  0  0  0
 25 26  1  0  0  0  0
M  CHG  2  13  -1  18  -1
M  END
>  <CHROM.1>
-171.14031250,-66.57491965,4.07182745,69.18571612,-93.06341652,-51.76460790
170.38799516,59.48905382,25.62295165,38.95510508,66.25668708,-3.00374866
0.23489234,-2.61142969

>  <Name>
ligand

>  <RI>
0

>  <Rbt.Current_Directory>
/home/itssahil/PROJECTS/Mol_Feturizer/New_Systems/rnas/2HOJ

>  <Rbt.Executable>
rbdock ($Id: //depot/dev/client3/rdock/2013.1/src/exe/rbdock.cxx#4 $)

>  <Rbt.Library>
libRbt.so (2013.1, Build901 2013/11/27)

>  <Rbt.Parameter_File>
/export/apps/rDock/src/rDock_2013.1_src/data/scripts/dock_solv.prm

>  <Rbt.Receptor>
prm/pocket_docking_5.prm

>  <SCORE>
-15.2371

>  <SCORE.INTER>
-9.98681

>  <SCORE.INTER.CONST>
1

>  <SCORE.INTER.POLAR>
-1.706

>  <SCORE.INTER.ROT>
8

>  <SCORE.INTER.SOLV>
28.2932

>  <SCORE.INTER.VDW>
-19.3356

>  <SCORE.INTER.norm>
-0.384108

>  <SCORE.INTRA>
-5.25034

>  <SCORE.INTRA.DIHEDRAL>
-5.85324

>  <SCORE.INTRA.DIHEDRAL.0>
11.6398

>  <SCORE.INTRA.POLAR>
0

>  <SCORE.INTRA.POLAR.0>
0

>  <SCORE.INTRA.REPUL>
0

>  <SCORE.INTRA.REPUL.0>
0

>  <SCORE.INTRA.SOLV>
2.73398

>  <SCORE.INTRA.SOLV.lig_0>
-81.722

>  <SCORE.INTRA.VDW>
-3.69071

>  <SCORE.INTRA.VDW.0>
1.12598

>  <SCORE.INTRA.norm>
-0.201936

>  <SCORE.RESTR>
0

>  <SCORE.RESTR.CAVITY>
0

>  <SCORE.RESTR.norm>
0

>  <SCORE.SYSTEM>
0

>  <SCORE.SYSTEM.CONST>
0

>  <SCORE.SYSTEM.DIHEDRAL>
0

>  <SCORE.SYSTEM.SOLV>
0

>  <SCORE.SYSTEM.norm>
0

>  <SCORE.heavy>
26

>  <SCORE.norm>
-0.586044

>  <RMSD>
3.578

$$$$
ligand
 OpenBabel11021811433D
libRbt.so/2013.1/901 2013/11/27
 26 27  0  0  0  0  0  0  0  0999 V2000
   20.8904   37.0288   69.5876 C   0  0  0  0  0  0  0  0  0  0  0  0
   23.4465   40.8168   65.3376 C   0  0  0  0  0  0  0  0  0  0  0  0
   27.8871   39.5466   67.4275 P   0  0  1  0  0  0  0  0  0  0  0  0
   27.5460   37.8612   65.4962 P   0  0  1  0  0  0  0  0  0  0  0  0
   21.0176   41.7409   66.3941 C   0  0  0  0  0  0  0  0  0  0  0  0
   21.6406   40.4403   68.4513 C   0  0  0  0  0  0  0  0  0  0  0  0
   20.9832   40.4930   67.2383 C   0  0  0  0  0  0  0  0  0  0  0  0
   20.2854   39.3609   66.8138 C   0  0  0  0  0  0  0  0  0  0  0  0
   19.6092   39.3627   65.6030 N   0  0  0  0  0  0  0  0  0  0  0  0
   20.2834   38.2779   67.5854 N   0  0  0  0  0  0  0  0  0  0  0  0
   20.9205   38.2726   68.7383 C   0  0  0  0  0  0  0  0  0  0  0  0
   21.5889   39.3252   69.1677 N   0  0  0  0  0  0  0  0  0  0  0  0
   26.7071   39.0815   68.1908 O   0  5  0  0  0  0  0  0  0  0  0  0
   27.9737   36.4902   64.9271 O   0  0  0  0  0  0  0  0  0  0  0  0
   23.8383   44.0827   67.4642 S   0  0  0  0  0  0  0  0  0  0  0  0
   22.1792   43.5702   67.4191 C   0  0  0  0  0  0  0  0  0  0  0  0
   28.9557   40.2013   68.4362 O   0  0  0  0  0  0  0  0  0  0  0  0
   26.0537   37.7556   66.0894 O   0  5  0  0  0  0  0  0  0  0  0  0
   22.2446   42.4888   66.6773 N   0  0  0  0  0  0  0  0  0  0  0  0
   28.5612   38.2965   66.6682 O   0  0  0  0  0  0  0  0  0  0  0  0
   27.5783   38.9182   64.3694 O   0  0  0  0  0  0  0  0  0  0  0  0
   23.3876   42.0614   66.1868 C   0  0  2  0  0  0  0  0  0  0  0  0
   24.5130   42.7709   66.4562 C   0  0  2  0  0  0  0  0  0  0  0  0
   25.9352   42.5200   66.0280 C   0  0  0  0  0  0  0  0  0  0  0  0
   26.6196   41.5975   67.0393 C   0  0  0  0  0  0  0  0  0  0  0  0
   27.4275   40.6457   66.3440 O   0  0  0  0  0  0  0  0  0  0  0  0
  1 11  1  0  0  0  0
  3 13  1  1  0  0  0
  3 17  2  0  0  0  0
  3 20  1  0  0  0  0
  3 26  1  0  0  0  0
  4 14  1  6  0  0  0
  4 18  1  0  0  0  0
  4 21  2  0  0  0  0
  4 20  1  0  0  0  0
  5 19  1  0  0  0  0
  5  7  1  0  0  0  0
  6  7  2  0  0  0  0
  6 12  1  0  0  0  0
  7  8  1  0  0  0  0
  8  9  1  0  0  0  0
  8 10  2  0  0  0  0
 10 11  1  0  0  0  0
 11 12  2  0  0  0  0
 15 23  1  0  0  0  0
 15 16  1  0  0  0  0
 16 19  1  0  0  0  0
 19 22  1  0  0  0  0
 22  2  1  6  0  0  0
 22 23  1  0  0  0  0
 23 24  1  1  0  0  0
 24 25  1  0  0  0  0
 25 26  1  0  0  0  0
M  CHG  2  13  -1  18  -1
M  END
>  <CHROM.1>
70.02440644,-104.17585153,27.10378992,-167.78006004,91.94651920,139.10280855
-169.45050137,49.28773802,24.60962454,40.09247264,66.88624663,2.89454600
0.16394011,-0.00840603

>  <Name>
ligand

>  <RI>
0

>  <Rbt.Current_Directory>
/home/itssahil/PROJECTS/Mol_Feturizer/New_Systems/rnas/2HOJ

>  <Rbt.Executable>
rbdock ($Id: //depot/dev/client3/rdock/2013.1/src/exe/rbdock.cxx#4 $)

>  <Rbt.Library>
libRbt.so (2013.1, Build901 2013/11/27)

>  <Rbt.Parameter_File>
/export/apps/rDock/src/rDock_2013.1_src/data/scripts/dock_solv.prm

>  <Rbt.Receptor>
prm/pocket_docking_4.prm

>  <SCORE>
-14.1278

>  <SCORE.INTER>
-11.8426

>  <SCORE.INTER.CONST>
1

>  <SCORE.INTER.POLAR>
-1.29904

>  <SCORE.INTER.ROT>
8

>  <SCORE.INTER.SOLV>
18.7013

>  <SCORE.INTER.VDW>
-18.732

>  <SCORE.INTER.norm>
-0.455484

>  <SCORE.INTRA>
-2.28518

>  <SCORE.INTRA.DIHEDRAL>
-1.45405

>  <SCORE.INTRA.DIHEDRAL.0>
11.6398

>  <SCORE.INTRA.POLAR>
0

>  <SCORE.INTRA.POLAR.0>
0

>  <SCORE.INTRA.REPUL>
0

>  <SCORE.INTRA.REPUL.0>
0

>  <SCORE.INTRA.SOLV>
3.72918

>  <SCORE.INTRA.SOLV.lig_0>
-81.722

>  <SCORE.INTRA.VDW>
-3.42274

>  <SCORE.INTRA.VDW.0>
1.12598

>  <SCORE.INTRA.norm>
-0.0878914

>  <SCORE.RESTR>
0

>  <SCORE.RESTR.CAVITY>
0

>  <SCORE.RESTR.norm>
0

>  <SCORE.SYSTEM>
0

>  <SCORE.SYSTEM.CONST>
0

>  <SCORE.SYSTEM.DIHEDRAL>
0

>  <SCORE.SYSTEM.SOLV>
0

>  <SCORE.SYSTEM.norm>
0

>  <SCORE.heavy>
26

>  <SCORE.norm>
-0.543375

>  <RMSD>
3.590

$$$$
ligand
 OpenBabel11021811433D
libRbt.so/2013.1/901 2013/11/27
 26 27  0  0  0  0  0  0  0  0999 V2000
   21.6744   45.1685   66.9499 C   0  0  0  0  0  0  0  0  0  0  0  0
   22.0454   39.4253   64.9406 C   0  0  0  0  0  0  0  0  0  0  0  0
   27.0695   39.5050   65.8847 P   0  0  1  0  0  0  0  0  0  0  0  0
   27.1502   42.0834   65.7052 P   0  0  1  0  0  0  0  0  0  0  0  0
   19.6255   39.8988   66.2783 C   0  0  0  0  0  0  0  0  0  0  0  0
   21.3264   41.5185   67.1701 C   0  0  0  0  0  0  0  0  0  0  0  0
   20.1666   41.2942   66.4553 C   0  0  0  0  0  0  0  0  0  0  0  0
   19.5081   42.3928   65.9004 C   0  0  0  0  0  0  0  0  0  0  0  0
   18.3392   42.2209   65.1741 N   0  0  0  0  0  0  0  0  0  0  0  0
   20.0152   43.6084   66.0835 N   0  0  0  0  0  0  0  0  0  0  0  0
   21.1275   43.7766   66.7688 C   0  0  0  0  0  0  0  0  0  0  0  0
   21.7732   42.7599   67.3059 N   0  0  0  0  0  0  0  0  0  0  0  0
   28.2881   39.3148   65.0658 O   0  5  0  0  0  0  0  0  0  0  0  0
   27.1768   42.2855   67.2364 O   0  0  0  0  0  0  0  0  0  0  0  0
   21.6560   37.3052   68.2110 S   0  0  0  0  0  0  0  0  0  0  0  0
   20.2627   38.3111   67.9573 C   0  0  0  0  0  0  0  0  0  0  0  0
   27.4854   39.7349   67.4216 O   0  0  0  0  0  0  0  0  0  0  0  0
   28.6507   41.8678   65.1649 O   0  5  0  0  0  0  0  0  0  0  0  0
   20.5706   38.9328   66.8426 N   0  0  0  0  0  0  0  0  0  0  0  0
   26.2592   40.7898   65.3496 O   0  0  0  0  0  0  0  0  0  0  0  0
   26.5355   43.3315   65.0325 O   0  0  0  0  0  0  0  0  0  0  0  0
   21.7068   38.7041   66.2208 C   0  0  2  0  0  0  0  0  0  0  0  0
   22.5718   37.8090   66.7621 C   0  0  2  0  0  0  0  0  0  0  0  0
   23.9252   37.3620   66.2748 C   0  0  0  0  0  0  0  0  0  0  0  0
   24.9503   38.4714   66.5203 C   0  0  0  0  0  0  0  0  0  0  0  0
   26.1357   38.1981   65.7705 O   0  0  0  0  0  0  0  0  0  0  0  0
  1 11  1  0  0  0  0
  3 13  1  6  0  0  0
  3 17  2  0  0  0  0
  3 20  1  0  0  0  0
  3 26  1  0  0  0  0
  4 14  1  1  0  0  0
  4 18  1  0  0  0  0
  4 21  2  0  0  0  0
  4 20  1  0  0  0  0
  5 19  1  0  0  0  0
  5  7  1  0  0  0  0
  6  7  2  0  0  0  0
  6 12  1  0  0  0  0
  7  8  1  0  0  0  0
  8  9  1  0  0  0  0
  8 10  2  0  0  0  0
 10 11  1  0  0  0  0
 11 12  2  0  0  0  0
 15 23  1  0  0  0  0
 15 16  1  0  0  0  0
 16 19  1  0  0  0  0
 19 22  1  0  0  0  0
 22  2  1  1  0  0  0
 22 23  1  0  0  0  0
 23 24  1  6  0  0  0
 24 25  1  0  0  0  0
 25 26  1  0  0  0  0
M  CHG  2  13  -1  18  -1
M  END
>  <CHROM.1>
-68.81223903,108.42451353,-5.48353422,-68.54802601,-106.32724029,-165.52647946
171.16299674,-176.97162255,23.74667258,40.50552746,66.33189423,-3.12664146
-0.11617378,2.99703175

>  <Name>
ligand

>  <RI>
0

>  <Rbt.Current_Directory>
/home/itssahil/PROJECTS/Mol_Feturizer/New_Systems/rnas/2HOJ

>  <Rbt.Executable>
rbdock ($Id: //depot/dev/client3/rdock/2013.1/src/exe/rbdock.cxx#4 $)

>  <Rbt.Library>
libRbt.so (2013.1, Build901 2013/11/27)

>  <Rbt.Parameter_File>
/export/apps/rDock/src/rDock_2013.1_src/data/scripts/dock_solv.prm

>  <Rbt.Receptor>
prm/pocket_docking_6.prm

>  <SCORE>
-14.2303

>  <SCORE.INTER>
-9.74131

>  <SCORE.INTER.CONST>
1

>  <SCORE.INTER.POLAR>
0

>  <SCORE.INTER.ROT>
8

>  <SCORE.INTER.SOLV>
20.1604

>  <SCORE.INTER.VDW>
-22.1477

>  <SCORE.INTER.norm>
-0.374666

>  <SCORE.INTRA>
-4.48899

>  <SCORE.INTRA.DIHEDRAL>
-5.60469

>  <SCORE.INTRA.DIHEDRAL.0>
11.6398

>  <SCORE.INTRA.POLAR>
0

>  <SCORE.INTRA.POLAR.0>
0

>  <SCORE.INTRA.REPUL>
0

>  <SCORE.INTRA.REPUL.0>
0

>  <SCORE.INTRA.SOLV>
1.27852

>  <SCORE.INTRA.SOLV.lig_0>
-81.722

>  <SCORE.INTRA.VDW>
-2.3259

>  <SCORE.INTRA.VDW.0>
1.12598

>  <SCORE.INTRA.norm>
-0.172653

>  <SCORE.RESTR>
0

>  <SCORE.RESTR.CAVITY>
0

>  <SCORE.RESTR.norm>
0

>  <SCORE.SYSTEM>
0

>  <SCORE.SYSTEM.CONST>
0

>  <SCORE.SYSTEM.DIHEDRAL>
0

>  <SCORE.SYSTEM.SOLV>
0

>  <SCORE.SYSTEM.norm>
0

>  <SCORE.heavy>
26

>  <SCORE.norm>
-0.547319

>  <RMSD>
3.601

$$$$
ligand
 OpenBabel11021811433D
libRbt.so/2013.1/901 2013/11/27
 26 27  0  0  0  0  0  0  0  0999 V2000
   18.7828   41.9348   65.6101 C   0  0  0  0  0  0  0  0  0  0  0  0
   26.4979   42.2746   68.2586 C   0  0  0  0  0  0  0  0  0  0  0  0
   28.6981   38.6520   68.5037 P   0  0  1  0  0  0  0  0  0  0  0  0
   26.7591   37.5724   69.8309 P   0  0  1  0  0  0  0  0  0  0  0  0
   23.8723   41.3027   68.0833 C   0  0  0  0  0  0  0  0  0  0  0  0
   21.5916   40.4549   67.4575 C   0  0  0  0  0  0  0  0  0  0  0  0
   22.5256   41.4714   67.4282 C   0  0  0  0  0  0  0  0  0  0  0  0
   22.1906   42.6596   66.7765 C   0  0  0  0  0  0  0  0  0  0  0  0
   23.0938   43.7105   66.7186 N   0  0  0  0  0  0  0  0  0  0  0  0
   20.9940   42.7670   66.2066 N   0  0  0  0  0  0  0  0  0  0  0  0
   20.1310   41.7735   66.2627 C   0  0  0  0  0  0  0  0  0  0  0  0
   20.4166   40.6384   66.8701 N   0  0  0  0  0  0  0  0  0  0  0  0
   29.9176   37.8184   68.6015 O   0  5  0  0  0  0  0  0  0  0  0  0
   26.1231   37.3804   71.2255 O   0  0  0  0  0  0  0  0  0  0  0  0
   25.9510   39.8624   65.2215 S   0  0  0  0  0  0  0  0  0  0  0  0
   24.4813   40.0596   66.1263 C   0  0  0  0  0  0  0  0  0  0  0  0
   27.7209   38.0447   67.3795 O   0  0  0  0  0  0  0  0  0  0  0  0
   25.6386   38.0820   68.7941 O   0  5  0  0  0  0  0  0  0  0  0  0
   24.8535   40.8798   67.0816 N   0  0  0  0  0  0  0  0  0  0  0  0
   27.9407   38.6626   69.9249 O   0  0  0  0  0  0  0  0  0  0  0  0
   27.3394   36.2266   69.3409 O   0  0  0  0  0  0  0  0  0  0  0  0
   26.0863   41.3320   67.1560 C   0  0  2  0  0  0  0  0  0  0  0  0
   26.9824   40.9247   66.2214 C   0  0  2  0  0  0  0  0  0  0  0  0
   28.4394   41.2741   66.0675 C   0  0  0  0  0  0  0  0  0  0  0  0
   29.2992   40.1707   66.6883 C   0  0  0  0  0  0  0  0  0  0  0  0
   29.1066   40.1576   68.1042 O   0  0  0  0  0  0  0  0  0  0  0  0
  1 11  1  0  0  0  0
  3 13  1  1  0  0  0
  3 17  2  0  0  0  0
  3 20  1  0  0  0  0
  3 26  1  0  0  0  0
  4 14  1  1  0  0  0
  4 18  1  0  0  0  0
  4 21  2  0  0  0  0
  4 20  1  0  0  0  0
  5 19  1  0  0  0  0
  5  7  1  0  0  0  0
  6  7  2  0  0  0  0
  6 12  1  0  0  0  0
  7  8  1  0  0  0  0
  8  9  1  0  0  0  0
  8 10  2  0  0  0  0
 10 11  1  0  0  0  0
 11 12  2  0  0  0  0
 15 23  1  0  0  0  0
 15 16  1  0  0  0  0
 16 19  1  0  0  0  0
 19 22  1  0  0  0  0
 22  2  1  1  0  0  0
 22 23  1  0  0  0  0
 23 24  1  6  0  0  0
 24 25  1  0  0  0  0
 25 26  1  0  0  0  0
M  CHG  2  13  -1  18  -1
M  END
>  <CHROM.1>
-98.33288394,-36.36059313,95.95747773,171.72660644,-82.75504599,-67.14481707
126.42738519,81.28485395,25.57515510,39.94889736,67.64153686,2.60163480,0.09937743
-0.73229588

>  <Name>
ligand

>  <RI>
0

>  <Rbt.Current_Directory>
/home/itssahil/PROJECTS/Mol_Feturizer/New_Systems/rnas/2HOJ

>  <Rbt.Executable>
rbdock ($Id: //depot/dev/client3/rdock/2013.1/src/exe/rbdock.cxx#4 $)

>  <Rbt.Library>
libRbt.so (2013.1, Build901 2013/11/27)

>  <Rbt.Parameter_File>
/export/apps/rDock/src/rDock_2013.1_src/data/scripts/dock_solv.prm

>  <Rbt.Receptor>
prm/pocket_docking_6.prm

>  <SCORE>
-12.9178

>  <SCORE.INTER>
-14.1197

>  <SCORE.INTER.CONST>
1

>  <SCORE.INTER.POLAR>
-2.58049

>  <SCORE.INTER.ROT>
8

>  <SCORE.INTER.SOLV>
16.7541

>  <SCORE.INTER.VDW>
-15.3295

>  <SCORE.INTER.norm>
-0.543066

>  <SCORE.INTRA>
1.20194

>  <SCORE.INTRA.DIHEDRAL>
3.02131

>  <SCORE.INTRA.DIHEDRAL.0>
11.6398

>  <SCORE.INTRA.POLAR>
0

>  <SCORE.INTRA.POLAR.0>
0

>  <SCORE.INTRA.REPUL>
0

>  <SCORE.INTRA.REPUL.0>
0

>  <SCORE.INTRA.SOLV>
7.39498

>  <SCORE.INTRA.SOLV.lig_0>
-81.722

>  <SCORE.INTRA.VDW>
-4.00621

>  <SCORE.INTRA.VDW.0>
1.12598

>  <SCORE.INTRA.norm>
0.0462283

>  <SCORE.RESTR>
0

>  <SCORE.RESTR.CAVITY>
0

>  <SCORE.RESTR.norm>
0

>  <SCORE.SYSTEM>
0

>  <SCORE.SYSTEM.CONST>
0

>  <SCORE.SYSTEM.DIHEDRAL>
0

>  <SCORE.SYSTEM.SOLV>
0

>  <SCORE.SYSTEM.norm>
0

>  <SCORE.heavy>
26

>  <SCORE.norm>
-0.496838

>  <RMSD>
3.611

$$$$
ligand
 OpenBabel11021811433D
libRbt.so/2013.1/901 2013/11/27
 26 27  0  0  0  0  0  0  0  0999 V2000
   20.9632   36.4438   69.7354 C   0  0  0  0  0  0  0  0  0  0  0  0
   24.5780   40.4981   64.7705 C   0  0  0  0  0  0  0  0  0  0  0  0
   28.8458   39.4157   67.5144 P   0  0  1  0  0  0  0  0  0  0  0  0
   28.0546   37.3596   66.1605 P   0  0  1  0  0  0  0  0  0  0  0  0
   22.1019   40.6575   66.0793 C   0  0  0  0  0  0  0  0  0  0  0  0
   22.7709   39.0644   67.9031 C   0  0  0  0  0  0  0  0  0  0  0  0
   21.7991   39.5421   67.0465 C   0  0  0  0  0  0  0  0  0  0  0  0
   20.5288   38.9658   67.0992 C   0  0  0  0  0  0  0  0  0  0  0  0
   19.5182   39.4095   66.2594 N   0  0  0  0  0  0  0  0  0  0  0  0
   20.3032   37.9804   67.9631 N   0  0  0  0  0  0  0  0  0  0  0  0
   21.2585   37.5584   68.7659 C   0  0  0  0  0  0  0  0  0  0  0  0
   22.4688   38.0814   68.7408 N   0  0  0  0  0  0  0  0  0  0  0  0
   29.0836   39.9536   68.8730 O   0  5  0  0  0  0  0  0  0  0  0  0
   28.8412   38.0922   65.0511 O   0  0  0  0  0  0  0  0  0  0  0  0
   24.6151   42.9312   67.8399 S   0  0  0  0  0  0  0  0  0  0  0  0
   23.0452   42.2158   67.6376 C   0  0  0  0  0  0  0  0  0  0  0  0
   30.1284   39.7084   66.5886 O   0  0  0  0  0  0  0  0  0  0  0  0
   28.2524   35.7704   66.0004 O   0  5  0  0  0  0  0  0  0  0  0  0
   23.2238   41.4517   66.5849 N   0  0  0  0  0  0  0  0  0  0  0  0
   28.5984   37.8268   67.6026 O   0  0  0  0  0  0  0  0  0  0  0  0
   26.5533   37.7059   66.0405 O   0  0  0  0  0  0  0  0  0  0  0  0
   24.3884   41.3815   65.9777 C   0  0  2  0  0  0  0  0  0  0  0  0
   25.4146   42.1288   66.4582 C   0  0  2  0  0  0  0  0  0  0  0  0
   26.8334   42.2460   65.9661 C   0  0  0  0  0  0  0  0  0  0  0  0
   27.7742   41.5337   66.9407 C   0  0  0  0  0  0  0  0  0  0  0  0
   27.5486   40.1242   66.8752 O   0  0  0  0  0  0  0  0  0  0  0  0
  1 11  1  0  0  0  0
  3 13  1  1  0  0  0
  3 17  2  0  0  0  0
  3 20  1  0  0  0  0
  3 26  1  0  0  0  0
  4 14  1  6  0  0  0
  4 18  1  0  0  0  0
  4 21  2  0  0  0  0
  4 20  1  0  0  0  0
  5 19  1  0  0  0  0
  5  7  1  0  0  0  0
  6  7  2  0  0  0  0
  6 12  1  0  0  0  0
  7  8  1  0  0  0  0
  8  9  1  0  0  0  0
  8 10  2  0  0  0  0
 10 11  1  0  0  0  0
 11 12  2  0  0  0  0
 15 23  1  0  0  0  0
 15 16  1  0  0  0  0
 16 19  1  0  0  0  0
 19 22  1  0  0  0  0
 22  2  1  6  0  0  0
 22 23  1  0  0  0  0
 23 24  1  1  0  0  0
 24 25  1  0  0  0  0
 25 26  1  0  0  0  0
M  CHG  2  13  -1  18  -1
M  END
>  <CHROM.1>
168.68526928,-70.54524770,-24.42548197,40.92877961,72.12805232,68.76461719
161.59160708,54.65088956,25.35818915,39.53246554,67.02171819,3.09564836,0.12011684
-0.08510424

>  <Name>
ligand

>  <RI>
0

>  <Rbt.Current_Directory>
/home/itssahil/PROJECTS/Mol_Feturizer/New_Systems/rnas/2HOJ

>  <Rbt.Executable>
rbdock ($Id: //depot/dev/client3/rdock/2013.1/src/exe/rbdock.cxx#4 $)

>  <Rbt.Library>
libRbt.so (2013.1, Build901 2013/11/27)

>  <Rbt.Parameter_File>
/export/apps/rDock/src/rDock_2013.1_src/data/scripts/dock_solv.prm

>  <Rbt.Receptor>
prm/pocket_docking_4.prm

>  <SCORE>
-10.4249

>  <SCORE.INTER>
-4.81429

>  <SCORE.INTER.CONST>
1

>  <SCORE.INTER.POLAR>
-1.29904

>  <SCORE.INTER.ROT>
8

>  <SCORE.INTER.SOLV>
21.8475

>  <SCORE.INTER.VDW>
-15.0952

>  <SCORE.INTER.norm>
-0.185165

>  <SCORE.INTRA>
-5.61059

>  <SCORE.INTRA.DIHEDRAL>
-3.9171

>  <SCORE.INTRA.DIHEDRAL.0>
11.6398

>  <SCORE.INTRA.POLAR>
0

>  <SCORE.INTRA.POLAR.0>
0

>  <SCORE.INTRA.REPUL>
0

>  <SCORE.INTRA.REPUL.0>
0

>  <SCORE.INTRA.SOLV>
0.076496

>  <SCORE.INTRA.SOLV.lig_0>
-81.722

>  <SCORE.INTRA.VDW>
-3.69029

>  <SCORE.INTRA.VDW.0>
1.12598

>  <SCORE.INTRA.norm>
-0.215792

>  <SCORE.RESTR>
0

>  <SCORE.RESTR.CAVITY>
0

>  <SCORE.RESTR.norm>
0

>  <SCORE.SYSTEM>
0

>  <SCORE.SYSTEM.CONST>
0

>  <SCORE.SYSTEM.DIHEDRAL>
0

>  <SCORE.SYSTEM.SOLV>
0

>  <SCORE.SYSTEM.norm>
0

>  <SCORE.heavy>
26

>  <SCORE.norm>
-0.400957

>  <RMSD>
3.628

$$$$
ligand
 OpenBabel11021811433D
libRbt.so/2013.1/901 2013/11/27
 26 27  0  0  0  0  0  0  0  0999 V2000
   21.4943   35.8231   69.5546 C   0  0  0  0  0  0  0  0  0  0  0  0
   23.7070   39.9217   65.4011 C   0  0  0  0  0  0  0  0  0  0  0  0
   28.3882   39.7479   67.5147 P   0  0  1  0  0  0  0  0  0  0  0  0
   28.6582   37.1887   67.2603 P   0  0  1  0  0  0  0  0  0  0  0  0
   21.0252   40.3348   66.1132 C   0  0  0  0  0  0  0  0  0  0  0  0
   20.9822   39.2680   68.3874 C   0  0  0  0  0  0  0  0  0  0  0  0
   21.1497   39.1398   67.0229 C   0  0  0  0  0  0  0  0  0  0  0  0
   21.4371   37.8748   66.5073 C   0  0  0  0  0  0  0  0  0  0  0  0
   21.6148   37.6931   65.1439 N   0  0  0  0  0  0  0  0  0  0  0  0
   21.5437   36.8466   67.3438 N   0  0  0  0  0  0  0  0  0  0  0  0
   21.3714   37.0131   68.6390 C   0  0  0  0  0  0  0  0  0  0  0  0
   21.0994   38.1946   69.1577 N   0  0  0  0  0  0  0  0  0  0  0  0
   27.6890   39.4274   68.7796 O   0  5  0  0  0  0  0  0  0  0  0  0
   30.0337   37.4147   67.9262 O   0  0  0  0  0  0  0  0  0  0  0  0
   23.1323   43.2690   67.3524 S   0  0  0  0  0  0  0  0  0  0  0  0
   21.6375   42.4079   67.1493 C   0  0  0  0  0  0  0  0  0  0  0  0
   29.9523   39.9809   67.8095 O   0  0  0  0  0  0  0  0  0  0  0  0
   27.5661   36.8350   68.3883 O   0  5  0  0  0  0  0  0  0  0  0  0
   22.0216   41.3405   66.4883 N   0  0  0  0  0  0  0  0  0  0  0  0
   28.2127   38.5257   66.4807 O   0  0  0  0  0  0  0  0  0  0  0  0
   28.7591   36.0180   66.2567 O   0  0  0  0  0  0  0  0  0  0  0  0
   23.2813   41.1537   66.1593 C   0  0  2  0  0  0  0  0  0  0  0  0
   24.1891   42.0994   66.5115 C   0  0  2  0  0  0  0  0  0  0  0  0
   25.6743   42.1474   66.2654 C   0  0  0  0  0  0  0  0  0  0  0  0
   26.3377   40.9193   66.8929 C   0  0  0  0  0  0  0  0  0  0  0  0
   27.7570   41.0842   66.8751 O   0  0  0  0  0  0  0  0  0  0  0  0
  1 11  1  0  0  0  0
  3 13  1  1  0  0  0
  3 17  2  0  0  0  0
  3 20  1  0  0  0  0
  3 26  1  0  0  0  0
  4 14  1  1  0  0  0
  4 18  1  0  0  0  0
  4 21  2  0  0  0  0
  4 20  1  0  0  0  0
  5 19  1  0  0  0  0
  5  7  1  0  0  0  0
  6  7  2  0  0  0  0
  6 12  1  0  0  0  0
  7  8  1  0  0  0  0
  8  9  1  0  0  0  0
  8 10  2  0  0  0  0
 10 11  1  0  0  0  0
 11 12  2  0  0  0  0
 15 23  1  0  0  0  0
 15 16  1  0  0  0  0
 16 19  1  0  0  0  0
 19 22  1  0  0  0  0
 22  2  1  6  0  0  0
 22 23  1  0  0  0  0
 23 24  1  1  0  0  0
 24 25  1  0  0  0  0
 25 26  1  0  0  0  0
M  CHG  2  13  -1  18  -1
M  END
>  <CHROM.1>
-51.74872244,-104.21249109,59.93066629,-49.91275964,121.14248341,-169.49171562
-178.69253006,-48.24170050,25.03439037,39.34659829,67.23929917,2.95758331
0.00505726,-0.18025440

>  <Name>
ligand

>  <RI>
0

>  <Rbt.Current_Directory>
/home/itssahil/PROJECTS/Mol_Feturizer/New_Systems/rnas/2HOJ

>  <Rbt.Executable>
rbdock ($Id: //depot/dev/client3/rdock/2013.1/src/exe/rbdock.cxx#4 $)

>  <Rbt.Library>
libRbt.so (2013.1, Build901 2013/11/27)

>  <Rbt.Parameter_File>
/export/apps/rDock/src/rDock_2013.1_src/data/scripts/dock_solv.prm

>  <Rbt.Receptor>
prm/pocket_docking_5.prm

>  <SCORE>
-15.6108

>  <SCORE.INTER>
-11.9758

>  <SCORE.INTER.CONST>
1

>  <SCORE.INTER.POLAR>
-2.53647

>  <SCORE.INTER.ROT>
8

>  <SCORE.INTER.SOLV>
20.2314

>  <SCORE.INTER.VDW>
-15.2061

>  <SCORE.INTER.norm>
-0.460609

>  <SCORE.INTRA>
-3.63495

>  <SCORE.INTRA.DIHEDRAL>
-6.17229

>  <SCORE.INTRA.DIHEDRAL.0>
11.6398

>  <SCORE.INTRA.POLAR>
0

>  <SCORE.INTRA.POLAR.0>
0

>  <SCORE.INTRA.REPUL>
0

>  <SCORE.INTRA.REPUL.0>
0

>  <SCORE.INTRA.SOLV>
2.83523

>  <SCORE.INTRA.SOLV.lig_0>
-81.722

>  <SCORE.INTRA.VDW>
-1.96642

>  <SCORE.INTRA.VDW.0>
1.12598

>  <SCORE.INTRA.norm>
-0.139806

>  <SCORE.RESTR>
0

>  <SCORE.RESTR.CAVITY>
0

>  <SCORE.RESTR.norm>
0

>  <SCORE.SYSTEM>
0

>  <SCORE.SYSTEM.CONST>
0

>  <SCORE.SYSTEM.DIHEDRAL>
0

>  <SCORE.SYSTEM.SOLV>
0

>  <SCORE.SYSTEM.norm>
0

>  <SCORE.heavy>
26

>  <SCORE.norm>
-0.600415

>  <RMSD>
3.651

$$$$
ligand
 OpenBabel11021811433D
libRbt.so/2013.1/901 2013/11/27
 26 27  0  0  0  0  0  0  0  0999 V2000
   19.7087   43.7469   66.0906 C   0  0  0  0  0  0  0  0  0  0  0  0
   22.5265   37.3104   69.3293 C   0  0  0  0  0  0  0  0  0  0  0  0
   27.4209   40.0290   67.9529 P   0  0  1  0  0  0  0  0  0  0  0  0
   26.1863   42.2586   68.3903 P   0  0  1  0  0  0  0  0  0  0  0  0
   21.0659   38.3213   67.1580 C   0  0  0  0  0  0  0  0  0  0  0  0
   21.4051   40.7919   67.4627 C   0  0  0  0  0  0  0  0  0  0  0  0
   20.7056   39.7569   66.8747 C   0  0  0  0  0  0  0  0  0  0  0  0
   19.6561   40.0741   66.0106 C   0  0  0  0  0  0  0  0  0  0  0  0
   18.9222   39.0711   65.3951 N   0  0  0  0  0  0  0  0  0  0  0  0
   19.3663   41.3531   65.7905 N   0  0  0  0  0  0  0  0  0  0  0  0
   20.0632   42.3095   66.3691 C   0  0  0  0  0  0  0  0  0  0  0  0
   21.0599   42.0433   67.1905 N   0  0  0  0  0  0  0  0  0  0  0  0
   27.8286   40.4419   66.5909 O   0  5  0  0  0  0  0  0  0  0  0  0
   24.8113   42.9468   68.5398 O   0  0  0  0  0  0  0  0  0  0  0  0
   24.7562   38.0848   66.2035 S   0  0  0  0  0  0  0  0  0  0  0  0
   23.0914   38.4637   65.8839 C   0  0  0  0  0  0  0  0  0  0  0  0
   28.5062   40.5502   69.0198 O   0  0  0  0  0  0  0  0  0  0  0  0
   27.1046   42.6091   69.6647 O   0  5  0  0  0  0  0  0  0  0  0  0
   22.5130   38.1440   67.0184 N   0  0  0  0  0  0  0  0  0  0  0  0
   25.9815   40.6639   68.2971 O   0  0  0  0  0  0  0  0  0  0  0  0
   26.8770   42.7642   67.1037 O   0  0  0  0  0  0  0  0  0  0  0  0
   23.2052   37.6718   68.0322 C   0  0  2  0  0  0  0  0  0  0  0  0
   24.5445   37.5099   67.8818 C   0  0  2  0  0  0  0  0  0  0  0  0
   25.5678   36.9933   68.8589 C   0  0  0  0  0  0  0  0  0  0  0  0
   26.5671   38.1042   69.1896 C   0  0  0  0  0  0  0  0  0  0  0  0
   27.3274   38.4229   68.0224 O   0  0  0  0  0  0  0  0  0  0  0  0
  1 11  1  0  0  0  0
  3 13  1  6  0  0  0
  3 17  2  0  0  0  0
  3 20  1  0  0  0  0
  3 26  1  0  0  0  0
  4 14  1  1  0  0  0
  4 18  1  0  0  0  0
  4 21  2  0  0  0  0
  4 20  1  0  0  0  0
  5 19  1  0  0  0  0
  5  7  1  0  0  0  0
  6  7  2  0  0  0  0
  6 12  1  0  0  0  0
  7  8  1  0  0  0  0
  8  9  1  0  0  0  0
  8 10  2  0  0  0  0
 10 11  1  0  0  0  0
 11 12  2  0  0  0  0
 15 23  1  0  0  0  0
 15 16  1  0  0  0  0
 16 19  1  0  0  0  0
 19 22  1  0  0  0  0
 22  2  1  6  0  0  0
 22 23  1  0  0  0  0
 23 24  1  1  0  0  0
 24 25  1  0  0  0  0
 25 26  1  0  0  0  0
M  CHG  2  13  -1  18  -1
M  END
>  <CHROM.1>
-66.90201884,-56.67275048,-48.10838892,172.82233146,63.61746442,-66.35774270
136.64975311,-163.16380898,24.17434153,40.08340787,67.51855333,-3.13150994
0.26585804,3.13687588

>  <Name>
ligand

>  <RI>
0

>  <Rbt.Current_Directory>
/home/itssahil/PROJECTS/Mol_Feturizer/New_Systems/rnas/2HOJ

>  <Rbt.Executable>
rbdock ($Id: //depot/dev/client3/rdock/2013.1/src/exe/rbdock.cxx#4 $)

>  <Rbt.Library>
libRbt.so (2013.1, Build901 2013/11/27)

>  <Rbt.Parameter_File>
/export/apps/rDock/src/rDock_2013.1_src/data/scripts/dock_solv.prm

>  <Rbt.Receptor>
prm/pocket_docking_4.prm

>  <SCORE>
-18.4402

>  <SCORE.INTER>
-15.8014

>  <SCORE.INTER.CONST>
1

>  <SCORE.INTER.POLAR>
-1.23681

>  <SCORE.INTER.ROT>
8

>  <SCORE.INTER.SOLV>
23.45

>  <SCORE.INTER.VDW>
-23.1616

>  <SCORE.INTER.norm>
-0.607746

>  <SCORE.INTRA>
-2.63877

>  <SCORE.INTRA.DIHEDRAL>
0.17584

>  <SCORE.INTRA.DIHEDRAL.0>
11.6398

>  <SCORE.INTRA.POLAR>
0

>  <SCORE.INTRA.POLAR.0>
0

>  <SCORE.INTRA.REPUL>
0

>  <SCORE.INTRA.REPUL.0>
0

>  <SCORE.INTRA.SOLV>
3.23201

>  <SCORE.INTRA.SOLV.lig_0>
-81.722

>  <SCORE.INTRA.VDW>
-4.3427

>  <SCORE.INTRA.VDW.0>
1.12598

>  <SCORE.INTRA.norm>
-0.101491

>  <SCORE.RESTR>
0

>  <SCORE.RESTR.CAVITY>
0

>  <SCORE.RESTR.norm>
0

>  <SCORE.SYSTEM>
0

>  <SCORE.SYSTEM.CONST>
0

>  <SCORE.SYSTEM.DIHEDRAL>
0

>  <SCORE.SYSTEM.SOLV>
0

>  <SCORE.SYSTEM.norm>
0

>  <SCORE.heavy>
26

>  <SCORE.norm>
-0.709238

>  <RMSD>
3.683

$$$$
ligand
 OpenBabel11021811433D
libRbt.so/2013.1/901 2013/11/27
 26 27  0  0  0  0  0  0  0  0999 V2000
   21.6122   44.8816   66.6523 C   0  0  0  0  0  0  0  0  0  0  0  0
   21.3600   39.1791   68.1902 C   0  0  0  0  0  0  0  0  0  0  0  0
   27.4566   38.2220   67.4295 P   0  0  1  0  0  0  0  0  0  0  0  0
   27.8394   37.6773   64.9308 P   0  0  1  0  0  0  0  0  0  0  0  0
   20.2664   39.4462   65.6207 C   0  0  0  0  0  0  0  0  0  0  0  0
   19.6715   41.7786   66.3402 C   0  0  0  0  0  0  0  0  0  0  0  0
   20.6240   40.8846   65.8933 C   0  0  0  0  0  0  0  0  0  0  0  0
   21.9270   41.3469   65.7006 C   0  0  0  0  0  0  0  0  0  0  0  0
   22.9203   40.4889   65.2525 N   0  0  0  0  0  0  0  0  0  0  0  0
   22.2010   42.6245   65.9477 N   0  0  0  0  0  0  0  0  0  0  0  0
   21.2621   43.4423   66.3776 C   0  0  0  0  0  0  0  0  0  0  0  0
   20.0220   43.0371   66.5694 N   0  0  0  0  0  0  0  0  0  0  0  0
   27.9559   38.0534   68.8129 O   0  5  0  0  0  0  0  0  0  0  0  0
   27.7010   39.1801   64.6011 O   0  0  0  0  0  0  0  0  0  0  0  0
   23.3148   37.1506   65.4689 S   0  0  0  0  0  0  0  0  0  0  0  0
   21.9738   37.9991   64.7623 C   0  0  0  0  0  0  0  0  0  0  0  0
   27.3581   39.7894   67.0811 O   0  0  0  0  0  0  0  0  0  0  0  0
   28.8020   36.9756   63.8486 O   0  5  0  0  0  0  0  0  0  0  0  0
   21.4513   38.6050   65.8034 N   0  0  0  0  0  0  0  0  0  0  0  0
   28.4700   37.5062   66.4028 O   0  0  0  0  0  0  0  0  0  0  0  0
   26.4456   37.0113   64.8882 O   0  0  0  0  0  0  0  0  0  0  0  0
   21.9709   38.4756   67.0046 C   0  0  2  0  0  0  0  0  0  0  0  0
   23.0660   37.6878   67.1546 C   0  0  2  0  0  0  0  0  0  0  0  0
   23.8544   37.3606   68.3956 C   0  0  0  0  0  0  0  0  0  0  0  0
   25.2004   38.0877   68.3541 C   0  0  0  0  0  0  0  0  0  0  0  0
   25.9991   37.5499   67.2984 O   0  0  0  0  0  0  0  0  0  0  0  0
  1 11  1  0  0  0  0
  3 13  1  1  0  0  0
  3 17  2  0  0  0  0
  3 20  1  0  0  0  0
  3 26  1  0  0  0  0
  4 14  1  6  0  0  0
  4 18  1  0  0  0  0
  4 21  2  0  0  0  0
  4 20  1  0  0  0  0
  5 19  1  0  0  0  0
  5  7  1  0  0  0  0
  6  7  2  0  0  0  0
  6 12  1  0  0  0  0
  7  8  1  0  0  0  0
  8  9  1  0  0  0  0
  8 10  2  0  0  0  0
 10 11  1  0  0  0  0
 11 12  2  0  0  0  0
 15 23  1  0  0  0  0
 15 16  1  0  0  0  0
 16 19  1  0  0  0  0
 19 22  1  0  0  0  0
 22  2  1  1  0  0  0
 22 23  1  0  0  0  0
 23 24  1  6  0  0  0
 24 25  1  0  0  0  0
 25 26  1  0  0  0  0
M  CHG  2  13  -1  18  -1
M  END
>  <CHROM.1>
177.82656556,-113.38423296,-152.61276830,60.15627670,72.39109125,-67.09288872
-172.96251365,52.02533589,24.34563018,39.12528665,66.29152289,-2.61575490
-0.00635135,-3.10063253

>  <Name>
ligand

>  <RI>
0

>  <Rbt.Current_Directory>
/home/itssahil/PROJECTS/Mol_Feturizer/New_Systems/rnas/2HOJ

>  <Rbt.Executable>
rbdock ($Id: //depot/dev/client3/rdock/2013.1/src/exe/rbdock.cxx#4 $)

>  <Rbt.Library>
libRbt.so (2013.1, Build901 2013/11/27)

>  <Rbt.Parameter_File>
/export/apps/rDock/src/rDock_2013.1_src/data/scripts/dock_solv.prm

>  <Rbt.Receptor>
prm/pocket_docking_5.prm

>  <SCORE>
-15.7504

>  <SCORE.INTER>
-13.4906

>  <SCORE.INTER.CONST>
1

>  <SCORE.INTER.POLAR>
0

>  <SCORE.INTER.ROT>
8

>  <SCORE.INTER.SOLV>
17.3427

>  <SCORE.INTER.VDW>
-23.708

>  <SCORE.INTER.norm>
-0.518871

>  <SCORE.INTRA>
-2.25978

>  <SCORE.INTRA.DIHEDRAL>
-6.00748

>  <SCORE.INTRA.DIHEDRAL.0>
11.6398

>  <SCORE.INTRA.POLAR>
0

>  <SCORE.INTRA.POLAR.0>
0

>  <SCORE.INTRA.REPUL>
0

>  <SCORE.INTRA.REPUL.0>
0

>  <SCORE.INTRA.SOLV>
6.02762

>  <SCORE.INTRA.SOLV.lig_0>
-81.722

>  <SCORE.INTRA.VDW>
-2.26985

>  <SCORE.INTRA.VDW.0>
1.12598

>  <SCORE.INTRA.norm>
-0.0869146

>  <SCORE.RESTR>
0

>  <SCORE.RESTR.CAVITY>
0

>  <SCORE.RESTR.norm>
0

>  <SCORE.SYSTEM>
0

>  <SCORE.SYSTEM.CONST>
0

>  <SCORE.SYSTEM.DIHEDRAL>
0

>  <SCORE.SYSTEM.SOLV>
0

>  <SCORE.SYSTEM.norm>
0

>  <SCORE.heavy>
26

>  <SCORE.norm>
-0.605786

>  <RMSD>
3.686

$$$$
ligand
 OpenBabel11021811433D
libRbt.so/2013.1/901 2013/11/27
 26 27  0  0  0  0  0  0  0  0999 V2000
   20.5254   37.1478   69.5906 C   0  0  0  0  0  0  0  0  0  0  0  0
   24.7208   42.4200   68.5423 C   0  0  0  0  0  0  0  0  0  0  0  0
   29.5807   39.0946   67.1590 P   0  0  1  0  0  0  0  0  0  0  0  0
   29.0015   37.2291   65.4644 P   0  0  1  0  0  0  0  0  0  0  0  0
   22.3059   41.9896   67.1813 C   0  0  0  0  0  0  0  0  0  0  0  0
   22.0886   40.4422   69.1485 C   0  0  0  0  0  0  0  0  0  0  0  0
   21.8341   40.7075   67.8177 C   0  0  0  0  0  0  0  0  0  0  0  0
   21.1282   39.7583   67.0766 C   0  0  0  0  0  0  0  0  0  0  0  0
   20.8475   39.9770   65.7361 N   0  0  0  0  0  0  0  0  0  0  0  0
   20.7336   38.6375   67.6737 N   0  0  0  0  0  0  0  0  0  0  0  0
   20.9939   38.4270   68.9476 C   0  0  0  0  0  0  0  0  0  0  0  0
   21.6585   39.3033   69.6752 N   0  0  0  0  0  0  0  0  0  0  0  0
   29.2602   38.0504   68.1583 O   0  5  0  0  0  0  0  0  0  0  0  0
   28.2500   36.3743   66.5089 O   0  0  0  0  0  0  0  0  0  0  0  0
   25.2302   41.2068   64.8530 S   0  0  0  0  0  0  0  0  0  0  0  0
   23.5402   41.3439   65.2305 C   0  0  0  0  0  0  0  0  0  0  0  0
   31.1631   39.0938   66.8698 O   0  0  0  0  0  0  0  0  0  0  0  0
   28.4331   36.9044   63.9942 O   0  5  0  0  0  0  0  0  0  0  0  0
   23.5684   41.7506   66.4785 N   0  0  0  0  0  0  0  0  0  0  0  0
   28.7848   38.7909   65.7923 O   0  0  0  0  0  0  0  0  0  0  0  0
   30.5098   36.8972   65.5179 O   0  0  0  0  0  0  0  0  0  0  0  0
   24.7050   41.9514   67.1091 C   0  0  2  0  0  0  0  0  0  0  0  0
   25.8645   41.7197   66.4425 C   0  0  2  0  0  0  0  0  0  0  0  0
   27.2892   41.8598   66.9110 C   0  0  0  0  0  0  0  0  0  0  0  0
   27.7128   40.5888   67.6506 C   0  0  0  0  0  0  0  0  0  0  0  0
   29.1387   40.5354   67.7264 O   0  0  0  0  0  0  0  0  0  0  0  0
  1 11  1  0  0  0  0
  3 13  1  1  0  0  0
  3 17  2  0  0  0  0
  3 20  1  0  0  0  0
  3 26  1  0  0  0  0
  4 14  1  1  0  0  0
  4 18  1  0  0  0  0
  4 21  2  0  0  0  0
  4 20  1  0  0  0  0
  5 19  1  0  0  0  0
  5  7  1  0  0  0  0
  6  7  2  0  0  0  0
  6 12  1  0  0  0  0
  7  8  1  0  0  0  0
  8  9  1  0  0  0  0
  8 10  2  0  0  0  0
 10 11  1  0  0  0  0
 11 12  2  0  0  0  0
 15 23  1  0  0  0  0
 15 16  1  0  0  0  0
 16 19  1  0  0  0  0
 19 22  1  0  0  0  0
 22  2  1  1  0  0  0
 22 23  1  0  0  0  0
 23 24  1  6  0  0  0
 24 25  1  0  0  0  0
 25 26  1  0  0  0  0
M  CHG  2  13  -1  18  -1
M  END
>  <CHROM.1>
-47.16834270,87.78784063,97.17477237,68.86121956,-96.00055681,162.07157275
-127.75093199,-73.90107832,25.85987492,39.55654809,66.86939423,2.94494670
0.21917170,-0.13013056

>  <Name>
ligand

>  <RI>
0

>  <Rbt.Current_Directory>
/home/itssahil/PROJECTS/Mol_Feturizer/New_Systems/rnas/2HOJ

>  <Rbt.Executable>
rbdock ($Id: //depot/dev/client3/rdock/2013.1/src/exe/rbdock.cxx#4 $)

>  <Rbt.Library>
libRbt.so (2013.1, Build901 2013/11/27)

>  <Rbt.Parameter_File>
/export/apps/rDock/src/rDock_2013.1_src/data/scripts/dock_solv.prm

>  <Rbt.Receptor>
prm/pocket_docking_4.prm

>  <SCORE>
-8.09527

>  <SCORE.INTER>
-6.76575

>  <SCORE.INTER.CONST>
1

>  <SCORE.INTER.POLAR>
-0.986263

>  <SCORE.INTER.ROT>
8

>  <SCORE.INTER.SOLV>
23.2014

>  <SCORE.INTER.VDW>
-17.8901

>  <SCORE.INTER.norm>
-0.260221

>  <SCORE.INTRA>
-1.33024

>  <SCORE.INTRA.DIHEDRAL>
1.87867

>  <SCORE.INTRA.DIHEDRAL.0>
11.6398

>  <SCORE.INTRA.POLAR>
0

>  <SCORE.INTRA.POLAR.0>
0

>  <SCORE.INTRA.REPUL>
0

>  <SCORE.INTRA.REPUL.0>
0

>  <SCORE.INTRA.SOLV>
2.4145

>  <SCORE.INTRA.SOLV.lig_0>
-81.722

>  <SCORE.INTRA.VDW>
-3.47682

>  <SCORE.INTRA.VDW.0>
1.12598

>  <SCORE.INTRA.norm>
-0.051163

>  <SCORE.RESTR>
0.00072017

>  <SCORE.RESTR.CAVITY>
0.00072017

>  <SCORE.RESTR.norm>
2.76988e-05

>  <SCORE.SYSTEM>
0

>  <SCORE.SYSTEM.CONST>
0

>  <SCORE.SYSTEM.DIHEDRAL>
0

>  <SCORE.SYSTEM.SOLV>
0

>  <SCORE.SYSTEM.norm>
0

>  <SCORE.heavy>
26

>  <SCORE.norm>
-0.311356

>  <RMSD>
3.729

$$$$
ligand
 OpenBabel11021811433D
libRbt.so/2013.1/901 2013/11/27
 26 27  0  0  0  0  0  0  0  0999 V2000
   21.4118   45.1328   66.5654 C   0  0  0  0  0  0  0  0  0  0  0  0
   21.4536   38.9673   68.5580 C   0  0  0  0  0  0  0  0  0  0  0  0
   26.8755   38.7503   66.0726 P   0  0  1  0  0  0  0  0  0  0  0  0
   27.9923   36.7531   64.8680 P   0  0  1  0  0  0  0  0  0  0  0  0
   19.8179   39.6695   66.3898 C   0  0  0  0  0  0  0  0  0  0  0  0
   21.4438   41.4854   66.9987 C   0  0  0  0  0  0  0  0  0  0  0  0
   20.2385   41.1160   66.4357 C   0  0  0  0  0  0  0  0  0  0  0  0
   19.4193   42.1164   65.9095 C   0  0  0  0  0  0  0  0  0  0  0  0
   18.1987   41.7975   65.3336 N   0  0  0  0  0  0  0  0  0  0  0  0
   19.8243   43.3814   65.9740 N   0  0  0  0  0  0  0  0  0  0  0  0
   20.9847   43.6890   66.5160 C   0  0  0  0  0  0  0  0  0  0  0  0
   21.7813   42.7679   67.0220 N   0  0  0  0  0  0  0  0  0  0  0  0
   27.0804   39.7885   67.1079 O   0  5  0  0  0  0  0  0  0  0  0  0
   28.7015   37.5627   63.7600 O   0  0  0  0  0  0  0  0  0  0  0  0
   22.6936   37.4823   65.1522 S   0  0  0  0  0  0  0  0  0  0  0  0
   21.2506   38.4227   64.9273 C   0  0  0  0  0  0  0  0  0  0  0  0
   27.0002   39.4150   64.6130 O   0  0  0  0  0  0  0  0  0  0  0  0
   28.7680   35.3619   65.0979 O   0  5  0  0  0  0  0  0  0  0  0  0
   20.9913   38.8267   66.1493 N   0  0  0  0  0  0  0  0  0  0  0  0
   27.9923   37.6017   66.2368 O   0  0  0  0  0  0  0  0  0  0  0  0
   26.5350   36.4654   64.4418 O   0  0  0  0  0  0  0  0  0  0  0  0
   21.7640   38.4941   67.1603 C   0  0  2  0  0  0  0  0  0  0  0  0
   22.8440   37.7084   66.9180 C   0  0  2  0  0  0  0  0  0  0  0  0
   23.8824   37.1781   67.8717 C   0  0  0  0  0  0  0  0  0  0  0  0
   25.2072   37.9101   67.6456 C   0  0  0  0  0  0  0  0  0  0  0  0
   25.4118   38.1013   66.2443 O   0  0  0  0  0  0  0  0  0  0  0  0
  1 11  1  0  0  0  0
  3 13  1  1  0  0  0
  3 17  2  0  0  0  0
  3 20  1  0  0  0  0
  3 26  1  0  0  0  0
  4 14  1  6  0  0  0
  4 18  1  0  0  0  0
  4 21  2  0  0  0  0
  4 20  1  0  0  0  0
  5 19  1  0  0  0  0
  5  7  1  0  0  0  0
  6  7  2  0  0  0  0
  6 12  1  0  0  0  0
  7  8  1  0  0  0  0
  8  9  1  0  0  0  0
  8 10  2  0  0  0  0
 10 11  1  0  0  0  0
 11 12  2  0  0  0  0
 15 23  1  0  0  0  0
 15 16  1  0  0  0  0
 16 19  1  0  0  0  0
 19 22  1  0  0  0  0
 22  2  1  1  0  0  0
 22 23  1  0  0  0  0
 23 24  1  6  0  0  0
 24 25  1  0  0  0  0
 25 26  1  0  0  0  0
M  CHG  2  13  -1  18  -1
M  END
>  <CHROM.1>
-163.97997049,-97.37821058,-36.60857833,75.56415902,71.77772294,-40.00212389
-174.92179982,-42.21194052,23.93362621,39.15877893,66.02611191,-2.57404103
-0.11726734,-3.09466092

>  <Name>
ligand

>  <RI>
0

>  <Rbt.Current_Directory>
/home/itssahil/PROJECTS/Mol_Feturizer/New_Systems/rnas/2HOJ

>  <Rbt.Executable>
rbdock ($Id: //depot/dev/client3/rdock/2013.1/src/exe/rbdock.cxx#4 $)

>  <Rbt.Library>
libRbt.so (2013.1, Build901 2013/11/27)

>  <Rbt.Parameter_File>
/export/apps/rDock/src/rDock_2013.1_src/data/scripts/dock_solv.prm

>  <Rbt.Receptor>
prm/pocket_docking_5.prm

>  <SCORE>
-18.1717

>  <SCORE.INTER>
-14.5195

>  <SCORE.INTER.CONST>
1

>  <SCORE.INTER.POLAR>
0

>  <SCORE.INTER.ROT>
8

>  <SCORE.INTER.SOLV>
28.3356

>  <SCORE.INTER.VDW>
-28.0582

>  <SCORE.INTER.norm>
-0.55844

>  <SCORE.INTRA>
-3.65226

>  <SCORE.INTRA.DIHEDRAL>
-3.78054

>  <SCORE.INTRA.DIHEDRAL.0>
11.6398

>  <SCORE.INTRA.POLAR>
0

>  <SCORE.INTRA.POLAR.0>
0

>  <SCORE.INTRA.REPUL>
0

>  <SCORE.INTRA.REPUL.0>
0

>  <SCORE.INTRA.SOLV>
0.748512

>  <SCORE.INTRA.SOLV.lig_0>
-81.722

>  <SCORE.INTRA.VDW>
-2.13624

>  <SCORE.INTRA.VDW.0>
1.12598

>  <SCORE.INTRA.norm>
-0.140471

>  <SCORE.RESTR>
0

>  <SCORE.RESTR.CAVITY>
0

>  <SCORE.RESTR.norm>
0

>  <SCORE.SYSTEM>
0

>  <SCORE.SYSTEM.CONST>
0

>  <SCORE.SYSTEM.DIHEDRAL>
0

>  <SCORE.SYSTEM.SOLV>
0

>  <SCORE.SYSTEM.norm>
0

>  <SCORE.heavy>
26

>  <SCORE.norm>
-0.698912

>  <RMSD>
3.729

$$$$
ligand
 OpenBabel11021811433D
libRbt.so/2013.1/901 2013/11/27
 26 27  0  0  0  0  0  0  0  0999 V2000
   17.2696   40.2361   65.0668 C   0  0  0  0  0  0  0  0  0  0  0  0
   24.0156   43.0167   67.4039 C   0  0  0  0  0  0  0  0  0  0  0  0
   27.7320   40.0950   65.8315 P   0  0  1  0  0  0  0  0  0  0  0  0
   27.6382   37.6112   65.1183 P   0  0  1  0  0  0  0  0  0  0  0  0
   21.3634   43.7586   66.8699 C   0  0  0  0  0  0  0  0  0  0  0  0
   19.0572   43.3126   65.9787 C   0  0  0  0  0  0  0  0  0  0  0  0
   20.2807   42.8250   66.3929 C   0  0  0  0  0  0  0  0  0  0  0  0
   20.4896   41.4452   66.3584 C   0  0  0  0  0  0  0  0  0  0  0  0
   21.7008   40.9053   66.7644 N   0  0  0  0  0  0  0  0  0  0  0  0
   19.5072   40.6549   65.9357 N   0  0  0  0  0  0  0  0  0  0  0  0
   18.3566   41.1631   65.5449 C   0  0  0  0  0  0  0  0  0  0  0  0
   18.1275   42.4616   65.5656 N   0  0  0  0  0  0  0  0  0  0  0  0
   26.8722   39.8925   67.0195 O   0  5  0  0  0  0  0  0  0  0  0  0
   27.1093   37.3679   66.5492 O   0  0  0  0  0  0  0  0  0  0  0  0
   23.5066   44.3983   63.7743 S   0  0  0  0  0  0  0  0  0  0  0  0
   22.0085   44.4047   64.6535 C   0  0  0  0  0  0  0  0  0  0  0  0
   29.2619   39.7792   66.2154 O   0  0  0  0  0  0  0  0  0  0  0  0
   26.9716   36.5482   64.1104 O   0  5  0  0  0  0  0  0  0  0  0  0
   22.3700   43.9176   65.8179 N   0  0  0  0  0  0  0  0  0  0  0  0
   27.2588   39.1054   64.6524 O   0  0  0  0  0  0  0  0  0  0  0  0
   29.1742   37.4423   65.1024 O   0  0  0  0  0  0  0  0  0  0  0  0
   23.6159   43.5734   66.0607 C   0  0  2  0  0  0  0  0  0  0  0  0
   24.5332   43.7237   65.0716 C   0  0  2  0  0  0  0  0  0  0  0  0
   26.0069   43.4122   65.0694 C   0  0  0  0  0  0  0  0  0  0  0  0
   26.2117   41.9021   65.2098 C   0  0  0  0  0  0  0  0  0  0  0  0
   27.6074   41.6207   65.3315 O   0  0  0  0  0  0  0  0  0  0  0  0
  1 11  1  0  0  0  0
  3 13  1  1  0  0  0
  3 17  2  0  0  0  0
  3 20  1  0  0  0  0
  3 26  1  0  0  0  0
  4 14  1  1  0  0  0
  4 18  1  0  0  0  0
  4 21  2  0  0  0  0
  4 20  1  0  0  0  0
  5 19  1  0  0  0  0
  5  7  1  0  0  0  0
  6  7  2  0  0  0  0
  6 12  1  0  0  0  0
  7  8  1  0  0  0  0
  8  9  1  0  0  0  0
  8 10  2  0  0  0  0
 10 11  1  0  0  0  0
 11 12  2  0  0  0  0
 15 23  1  0  0  0  0
 15 16  1  0  0  0  0
 16 19  1  0  0  0  0
 19 22  1  0  0  0  0
 22  2  1  6  0  0  0
 22 23  1  0  0  0  0
 23 24  1  1  0  0  0
 24 25  1  0  0  0  0
 25 26  1  0  0  0  0
M  CHG  2  13  -1  18  -1
M  END
>  <CHROM.1>
-69.34050562,59.98511191,-103.14409380,50.24044209,-114.63505649,-174.70225540
166.42436847,-50.97082901,24.28079348,41.12618254,65.57162607,2.68769981
0.04890463,-0.04584149

>  <Name>
ligand

>  <RI>
0

>  <Rbt.Current_Directory>
/home/itssahil/PROJECTS/Mol_Feturizer/New_Systems/rnas/2HOJ

>  <Rbt.Executable>
rbdock ($Id: //depot/dev/client3/rdock/2013.1/src/exe/rbdock.cxx#4 $)

>  <Rbt.Library>
libRbt.so (2013.1, Build901 2013/11/27)

>  <Rbt.Parameter_File>
/export/apps/rDock/src/rDock_2013.1_src/data/scripts/dock_solv.prm

>  <Rbt.Receptor>
prm/pocket_docking_6.prm

>  <SCORE>
-22.4489

>  <SCORE.INTER>
-18.5964

>  <SCORE.INTER.CONST>
1

>  <SCORE.INTER.POLAR>
0

>  <SCORE.INTER.ROT>
8

>  <SCORE.INTER.SOLV>
16.3569

>  <SCORE.INTER.VDW>
-26.7832

>  <SCORE.INTER.norm>
-0.715247

>  <SCORE.INTRA>
-3.85245

>  <SCORE.INTRA.DIHEDRAL>
-5.66621

>  <SCORE.INTRA.DIHEDRAL.0>
11.6398

>  <SCORE.INTRA.POLAR>
0

>  <SCORE.INTRA.POLAR.0>
0

>  <SCORE.INTRA.REPUL>
0

>  <SCORE.INTRA.REPUL.0>
0

>  <SCORE.INTRA.SOLV>
3.82666

>  <SCORE.INTRA.SOLV.lig_0>
-81.722

>  <SCORE.INTRA.VDW>
-2.93268

>  <SCORE.INTRA.VDW.0>
1.12598

>  <SCORE.INTRA.norm>
-0.148171

>  <SCORE.RESTR>
0

>  <SCORE.RESTR.CAVITY>
0

>  <SCORE.RESTR.norm>
0

>  <SCORE.SYSTEM>
0

>  <SCORE.SYSTEM.CONST>
0

>  <SCORE.SYSTEM.DIHEDRAL>
0

>  <SCORE.SYSTEM.SOLV>
0

>  <SCORE.SYSTEM.norm>
0

>  <SCORE.heavy>
26

>  <SCORE.norm>
-0.863418

>  <RMSD>
3.731

$$$$
ligand
 OpenBabel11021811433D
libRbt.so/2013.1/901 2013/11/27
 26 27  0  0  0  0  0  0  0  0999 V2000
   20.0040   44.0843   66.0594 C   0  0  0  0  0  0  0  0  0  0  0  0
   21.9926   37.6311   69.3758 C   0  0  0  0  0  0  0  0  0  0  0  0
   26.7362   39.7274   67.6797 P   0  0  1  0  0  0  0  0  0  0  0  0
   26.6377   41.9879   68.9316 P   0  0  1  0  0  0  0  0  0  0  0  0
   20.4943   38.5231   67.1783 C   0  0  0  0  0  0  0  0  0  0  0  0
   19.4382   40.4560   65.9699 C   0  0  0  0  0  0  0  0  0  0  0  0
   20.3657   39.9954   66.8831 C   0  0  0  0  0  0  0  0  0  0  0  0
   21.1811   40.9281   67.5263 C   0  0  0  0  0  0  0  0  0  0  0  0
   22.1287   40.5165   68.4516 N   0  0  0  0  0  0  0  0  0  0  0  0
   21.0399   42.2177   67.2344 N   0  0  0  0  0  0  0  0  0  0  0  0
   20.1384   42.6142   66.3596 C   0  0  0  0  0  0  0  0  0  0  0  0
   19.3531   41.7586   65.7348 N   0  0  0  0  0  0  0  0  0  0  0  0
   25.4572   40.1961   67.1000 O   0  5  0  0  0  0  0  0  0  0  0  0
   27.3808   42.5237   67.6878 O   0  0  0  0  0  0  0  0  0  0  0  0
   24.0050   37.5696   66.0160 S   0  0  0  0  0  0  0  0  0  0  0  0
   22.3895   38.1534   65.7579 C   0  0  0  0  0  0  0  0  0  0  0  0
   27.9479   40.1230   66.6984 O   0  0  0  0  0  0  0  0  0  0  0  0
   25.0528   42.1922   68.7407 O   0  5  0  0  0  0  0  0  0  0  0  0
   21.8809   38.1017   66.9673 N   0  0  0  0  0  0  0  0  0  0  0  0
   26.9599   40.4208   69.1160 O   0  0  0  0  0  0  0  0  0  0  0  0
   27.1090   42.7603   70.1843 O   0  0  0  0  0  0  0  0  0  0  0  0
   22.5906   37.6834   67.9925 C   0  0  2  0  0  0  0  0  0  0  0  0
   23.8722   37.2923   67.7760 C   0  0  2  0  0  0  0  0  0  0  0  0
   24.8981   36.7731   68.7490 C   0  0  0  0  0  0  0  0  0  0  0  0
   25.9283   37.8668   69.0396 C   0  0  0  0  0  0  0  0  0  0  0  0
   26.6907   38.1277   67.8595 O   0  0  0  0  0  0  0  0  0  0  0  0
  1 11  1  0  0  0  0
  3 13  1  6  0  0  0
  3 17  2  0  0  0  0
  3 20  1  0  0  0  0
  3 26  1  0  0  0  0
  4 14  1  6  0  0  0
  4 18  1  0  0  0  0
  4 21  2  0  0  0  0
  4 20  1  0  0  0  0
  5 19  1  0  0  0  0
  5  7  1  0  0  0  0
  6  7  2  0  0  0  0
  6 12  1  0  0  0  0
  7  8  1  0  0  0  0
  8  9  1  0  0  0  0
  8 10  2  0  0  0  0
 10 11  1  0  0  0  0
 11 12  2  0  0  0  0
 15 23  1  0  0  0  0
 15 16  1  0  0  0  0
 16 19  1  0  0  0  0
 19 22  1  0  0  0  0
 22  2  1  6  0  0  0
 22 23  1  0  0  0  0
 23 24  1  1  0  0  0
 24 25  1  0  0  0  0
 25 26  1  0  0  0  0
M  CHG  2  13  -1  18  -1
M  END
>  <CHROM.1>
-46.44807480,-64.91801279,125.11887091,-48.47479954,74.97389159,-67.19067426
132.64805414,-78.74828320,23.96523825,40.02004596,67.61529951,-3.13073790
0.26387345,-3.08381460

>  <Name>
ligand

>  <RI>
0

>  <Rbt.Current_Directory>
/home/itssahil/PROJECTS/Mol_Feturizer/New_Systems/rnas/2HOJ

>  <Rbt.Executable>
rbdock ($Id: //depot/dev/client3/rdock/2013.1/src/exe/rbdock.cxx#4 $)

>  <Rbt.Library>
libRbt.so (2013.1, Build901 2013/11/27)

>  <Rbt.Parameter_File>
/export/apps/rDock/src/rDock_2013.1_src/data/scripts/dock_solv.prm

>  <Rbt.Receptor>
prm/pocket_docking_4.prm

>  <SCORE>
-12.2106

>  <SCORE.INTER>
-12.1748

>  <SCORE.INTER.CONST>
1

>  <SCORE.INTER.POLAR>
0

>  <SCORE.INTER.ROT>
8

>  <SCORE.INTER.SOLV>
18.1443

>  <SCORE.INTER.VDW>
-23.098

>  <SCORE.INTER.norm>
-0.468263

>  <SCORE.INTRA>
-0.0357657

>  <SCORE.INTRA.DIHEDRAL>
1.09493

>  <SCORE.INTRA.DIHEDRAL.0>
11.6398

>  <SCORE.INTRA.POLAR>
0

>  <SCORE.INTRA.POLAR.0>
0

>  <SCORE.INTRA.REPUL>
0.00134089

>  <SCORE.INTRA.REPUL.0>
0

>  <SCORE.INTRA.SOLV>
8.23702

>  <SCORE.INTRA.SOLV.lig_0>
-81.722

>  <SCORE.INTRA.VDW>
-4.70845

>  <SCORE.INTRA.VDW.0>
1.12598

>  <SCORE.INTRA.norm>
-0.00137561

>  <SCORE.RESTR>
0

>  <SCORE.RESTR.CAVITY>
0

>  <SCORE.RESTR.norm>
0

>  <SCORE.SYSTEM>
0

>  <SCORE.SYSTEM.CONST>
0

>  <SCORE.SYSTEM.DIHEDRAL>
0

>  <SCORE.SYSTEM.SOLV>
0

>  <SCORE.SYSTEM.norm>
0

>  <SCORE.heavy>
26

>  <SCORE.norm>
-0.469638

>  <RMSD>
3.733

$$$$
ligand
 OpenBabel11021811433D
libRbt.so/2013.1/901 2013/11/27
 26 27  0  0  0  0  0  0  0  0999 V2000
   20.4522   36.6367   70.0208 C   0  0  0  0  0  0  0  0  0  0  0  0
   23.9397   43.1304   67.5621 C   0  0  0  0  0  0  0  0  0  0  0  0
   28.4980   39.7849   67.4063 P   0  0  1  0  0  0  0  0  0  0  0  0
   26.8471   38.1074   68.4775 P   0  0  1  0  0  0  0  0  0  0  0  0
   21.7405   41.4230   67.2190 C   0  0  0  0  0  0  0  0  0  0  0  0
   21.8060   39.9666   69.2651 C   0  0  0  0  0  0  0  0  0  0  0  0
   21.3988   40.1556   67.9594 C   0  0  0  0  0  0  0  0  0  0  0  0
   20.6622   39.1429   67.3425 C   0  0  0  0  0  0  0  0  0  0  0  0
   20.2301   39.2839   66.0322 N   0  0  0  0  0  0  0  0  0  0  0  0
   20.3856   38.0377   68.0282 N   0  0  0  0  0  0  0  0  0  0  0  0
   20.7900   37.9009   69.2744 C   0  0  0  0  0  0  0  0  0  0  0  0
   21.4875   38.8384   69.8855 N   0  0  0  0  0  0  0  0  0  0  0  0
   28.6303   40.4654   68.7144 O   0  5  0  0  0  0  0  0  0  0  0  0
   25.7086   38.7884   67.6861 O   0  0  0  0  0  0  0  0  0  0  0  0
   24.5431   40.3726   64.8469 S   0  0  0  0  0  0  0  0  0  0  0  0
   22.9566   40.2223   65.5382 C   0  0  0  0  0  0  0  0  0  0  0  0
   29.8570   39.9682   66.5653 O   0  0  0  0  0  0  0  0  0  0  0  0
   26.4843   36.5576   68.7158 O   0  5  0  0  0  0  0  0  0  0  0  0
   22.9399   41.2065   66.4070 N   0  0  0  0  0  0  0  0  0  0  0  0
   28.2207   38.2164   67.6438 O   0  0  0  0  0  0  0  0  0  0  0  0
   27.0171   38.8118   69.8424 O   0  0  0  0  0  0  0  0  0  0  0  0
   23.9748   42.0035   66.5609 C   0  0  2  0  0  0  0  0  0  0  0  0
   25.0791   41.7837   65.8027 C   0  0  2  0  0  0  0  0  0  0  0  0
   26.3897   42.5254   65.7725 C   0  0  0  0  0  0  0  0  0  0  0  0
   27.3848   41.8459   66.7159 C   0  0  0  0  0  0  0  0  0  0  0  0
   27.2689   40.4274   66.5880 O   0  0  0  0  0  0  0  0  0  0  0  0
  1 11  1  0  0  0  0
  3 13  1  1  0  0  0
  3 17  2  0  0  0  0
  3 20  1  0  0  0  0
  3 26  1  0  0  0  0
  4 14  1  6  0  0  0
  4 18  1  0  0  0  0
  4 21  2  0  0  0  0
  4 20  1  0  0  0  0
  5 19  1  0  0  0  0
  5  7  1  0  0  0  0
  6  7  2  0  0  0  0
  6 12  1  0  0  0  0
  7  8  1  0  0  0  0
  8  9  1  0  0  0  0
  8 10  2  0  0  0  0
 10 11  1  0  0  0  0
 11 12  2  0  0  0  0
 15 23  1  0  0  0  0
 15 16  1  0  0  0  0
 16 19  1  0  0  0  0
 19 22  1  0  0  0  0
 22  2  1  1  0  0  0
 22 23  1  0  0  0  0
 23 24  1  6  0  0  0
 24 25  1  0  0  0  0
 25 26  1  0  0  0  0
M  CHG  2  13  -1  18  -1
M  END
>  <CHROM.1>
60.37161795,55.55600443,96.48392247,58.28613577,-86.84333280,41.15449782
170.57491734,44.92189436,24.84488091,39.74520807,67.47592163,-3.01008927
0.00713723,-0.67829772

>  <Name>
ligand

>  <RI>
0

>  <Rbt.Current_Directory>
/home/itssahil/PROJECTS/Mol_Feturizer/New_Systems/rnas/2HOJ

>  <Rbt.Executable>
rbdock ($Id: //depot/dev/client3/rdock/2013.1/src/exe/rbdock.cxx#4 $)

>  <Rbt.Library>
libRbt.so (2013.1, Build901 2013/11/27)

>  <Rbt.Parameter_File>
/export/apps/rDock/src/rDock_2013.1_src/data/scripts/dock_solv.prm

>  <Rbt.Receptor>
prm/blind_docking_100.prm

>  <SCORE>
-12.916

>  <SCORE.INTER>
-7.43023

>  <SCORE.INTER.CONST>
1

>  <SCORE.INTER.POLAR>
-1.29904

>  <SCORE.INTER.ROT>
8

>  <SCORE.INTER.SOLV>
19.4198

>  <SCORE.INTER.VDW>
-16.03

>  <SCORE.INTER.norm>
-0.285778

>  <SCORE.INTRA>
-5.48573

>  <SCORE.INTRA.DIHEDRAL>
-4.68972

>  <SCORE.INTRA.DIHEDRAL.0>
11.6398

>  <SCORE.INTRA.POLAR>
0

>  <SCORE.INTRA.POLAR.0>
0

>  <SCORE.INTRA.REPUL>
0

>  <SCORE.INTRA.REPUL.0>
0

>  <SCORE.INTRA.SOLV>
1.15994

>  <SCORE.INTRA.SOLV.lig_0>
-81.722

>  <SCORE.INTRA.VDW>
-3.72084

>  <SCORE.INTRA.VDW.0>
1.12598

>  <SCORE.INTRA.norm>
-0.21099

>  <SCORE.RESTR>
0

>  <SCORE.RESTR.CAVITY>
0

>  <SCORE.RESTR.norm>
0

>  <SCORE.SYSTEM>
0

>  <SCORE.SYSTEM.CONST>
0

>  <SCORE.SYSTEM.DIHEDRAL>
0

>  <SCORE.SYSTEM.SOLV>
0

>  <SCORE.SYSTEM.norm>
0

>  <SCORE.heavy>
26

>  <SCORE.norm>
-0.496768

>  <RMSD>
3.758

$$$$
ligand
 OpenBabel11021811433D
libRbt.so/2013.1/901 2013/11/27
 26 27  0  0  0  0  0  0  0  0999 V2000
   16.8691   40.0041   64.8029 C   0  0  0  0  0  0  0  0  0  0  0  0
   23.7198   42.3903   65.3111 C   0  0  0  0  0  0  0  0  0  0  0  0
   28.9280   42.7522   64.4999 P   0  0  1  0  0  0  0  0  0  0  0  0
   30.8432   44.4780   64.2990 P   0  0  1  0  0  0  0  0  0  0  0  0
   21.9830   41.0646   67.0706 C   0  0  0  0  0  0  0  0  0  0  0  0
   20.1535   39.4934   66.3663 C   0  0  0  0  0  0  0  0  0  0  0  0
   20.6292   40.7854   66.4700 C   0  0  0  0  0  0  0  0  0  0  0  0
   19.8242   41.8266   66.0048 C   0  0  0  0  0  0  0  0  0  0  0  0
   20.2565   43.1419   66.0857 N   0  0  0  0  0  0  0  0  0  0  0  0
   18.6382   41.5381   65.4770 N   0  0  0  0  0  0  0  0  0  0  0  0
   18.2213   40.2909   65.4019 C   0  0  0  0  0  0  0  0  0  0  0  0
   18.9575   39.2849   65.8320 N   0  0  0  0  0  0  0  0  0  0  0  0
   29.6203   41.8685   65.4649 O   0  5  0  0  0  0  0  0  0  0  0  0
   31.3278   43.8671   65.6326 O   0  0  0  0  0  0  0  0  0  0  0  0
   24.3981   38.5388   65.5302 S   0  0  0  0  0  0  0  0  0  0  0  0
   23.0769   38.9932   66.5624 C   0  0  0  0  0  0  0  0  0  0  0  0
   28.1901   43.9410   65.2936 O   0  0  0  0  0  0  0  0  0  0  0  0
   32.1135   44.9458   63.4286 O   0  5  0  0  0  0  0  0  0  0  0  0
   23.0020   40.2884   66.3608 N   0  0  0  0  0  0  0  0  0  0  0  0
   30.0041   43.3763   63.4770 O   0  0  0  0  0  0  0  0  0  0  0  0
   29.9415   45.6987   64.5904 O   0  0  0  0  0  0  0  0  0  0  0  0
   23.8194   40.9022   65.5331 C   0  0  2  0  0  0  0  0  0  0  0  0
   24.7603   40.1664   64.8884 C   0  0  2  0  0  0  0  0  0  0  0  0
   25.8138   40.6004   63.9032 C   0  0  0  0  0  0  0  0  0  0  0  0
   26.8805   41.4271   64.6247 C   0  0  0  0  0  0  0  0  0  0  0  0
   27.8388   41.8994   63.6756 O   0  0  0  0  0  0  0  0  0  0  0  0
  1 11  1  0  0  0  0
  3 13  1  1  0  0  0
  3 17  2  0  0  0  0
  3 20  1  0  0  0  0
  3 26  1  0  0  0  0
  4 14  1  1  0  0  0
  4 18  1  0  0  0  0
  4 21  2  0  0  0  0
  4 20  1  0  0  0  0
  5 19  1  0  0  0  0
  5  7  1  0  0  0  0
  6  7  2  0  0  0  0
  6 12  1  0  0  0  0
  7  8  1  0  0  0  0
  8  9  1  0  0  0  0
  8 10  2  0  0  0  0
 10 11  1  0  0  0  0
 11 12  2  0  0  0  0
 15 23  1  0  0  0  0
 15 16  1  0  0  0  0
 16 19  1  0  0  0  0
 19 22  1  0  0  0  0
 22  2  1  1  0  0  0
 22 23  1  0  0  0  0
 23 24  1  6  0  0  0
 24 25  1  0  0  0  0
 25 26  1  0  0  0  0
M  CHG  2  13  -1  18  -1
M  END
>  <CHROM.1>
-72.97945697,-73.53025877,55.03646800,49.31508866,-110.18532333,-176.82637001
-179.81146899,62.76591017,25.28518803,41.80537532,65.14895631,2.81154729
-0.10849024,3.06321914

>  <Name>
ligand

>  <RI>
0

>  <Rbt.Current_Directory>
/home/itssahil/PROJECTS/Mol_Feturizer/New_Systems/rnas/2HOJ

>  <Rbt.Executable>
rbdock ($Id: //depot/dev/client3/rdock/2013.1/src/exe/rbdock.cxx#4 $)

>  <Rbt.Library>
libRbt.so (2013.1, Build901 2013/11/27)

>  <Rbt.Parameter_File>
/export/apps/rDock/src/rDock_2013.1_src/data/scripts/dock_solv.prm

>  <Rbt.Receptor>
prm/pocket_docking_8.prm

>  <SCORE>
-16.3266

>  <SCORE.INTER>
-11.3904

>  <SCORE.INTER.CONST>
1

>  <SCORE.INTER.POLAR>
0

>  <SCORE.INTER.ROT>
8

>  <SCORE.INTER.SOLV>
17.9224

>  <SCORE.INTER.VDW>
-22.501

>  <SCORE.INTER.norm>
-0.438091

>  <SCORE.INTRA>
-4.93626

>  <SCORE.INTRA.DIHEDRAL>
-6.54207

>  <SCORE.INTRA.DIHEDRAL.0>
11.6398

>  <SCORE.INTRA.POLAR>
0

>  <SCORE.INTRA.POLAR.0>
0

>  <SCORE.INTRA.REPUL>
0

>  <SCORE.INTRA.REPUL.0>
0

>  <SCORE.INTRA.SOLV>
2.33382

>  <SCORE.INTRA.SOLV.lig_0>
-81.722

>  <SCORE.INTRA.VDW>
-2.83214

>  <SCORE.INTRA.VDW.0>
1.12598

>  <SCORE.INTRA.norm>
-0.189856

>  <SCORE.RESTR>
0

>  <SCORE.RESTR.CAVITY>
0

>  <SCORE.RESTR.norm>
0

>  <SCORE.SYSTEM>
0

>  <SCORE.SYSTEM.CONST>
0

>  <SCORE.SYSTEM.DIHEDRAL>
0

>  <SCORE.SYSTEM.SOLV>
0

>  <SCORE.SYSTEM.norm>
0

>  <SCORE.heavy>
26

>  <SCORE.norm>
-0.627947

>  <RMSD>
3.763

$$$$
ligand
 OpenBabel11021811433D
libRbt.so/2013.1/901 2013/11/27
 26 27  0  0  0  0  0  0  0  0999 V2000
   20.0408   43.7807   66.1061 C   0  0  0  0  0  0  0  0  0  0  0  0
   22.7517   37.0811   69.4134 C   0  0  0  0  0  0  0  0  0  0  0  0
   27.4706   39.9869   69.1092 P   0  0  1  0  0  0  0  0  0  0  0  0
   26.1265   42.1500   68.6609 P   0  0  1  0  0  0  0  0  0  0  0  0
   21.3451   38.3833   67.3651 C   0  0  0  0  0  0  0  0  0  0  0  0
   21.6856   40.8605   67.6091 C   0  0  0  0  0  0  0  0  0  0  0  0
   20.9988   39.8115   67.0310 C   0  0  0  0  0  0  0  0  0  0  0  0
   19.9755   40.1073   66.1288 C   0  0  0  0  0  0  0  0  0  0  0  0
   19.2552   39.0896   65.5215 N   0  0  0  0  0  0  0  0  0  0  0  0
   19.6973   41.3805   65.8644 N   0  0  0  0  0  0  0  0  0  0  0  0
   20.3813   42.3507   66.4353 C   0  0  0  0  0  0  0  0  0  0  0  0
   21.3534   42.1047   67.2918 N   0  0  0  0  0  0  0  0  0  0  0  0
   28.5961   40.6417   68.4050 O   0  5  0  0  0  0  0  0  0  0  0  0
   26.4373   42.5362   70.1239 O   0  0  0  0  0  0  0  0  0  0  0  0
   25.0390   38.1584   66.4217 S   0  0  0  0  0  0  0  0  0  0  0  0
   23.3889   38.6191   66.1349 C   0  0  0  0  0  0  0  0  0  0  0  0
   27.5624   40.3070   70.6830 O   0  0  0  0  0  0  0  0  0  0  0  0
   27.2736   42.7342   67.6950 O   0  5  0  0  0  0  0  0  0  0  0  0
   22.7885   38.1832   67.2181 N   0  0  0  0  0  0  0  0  0  0  0  0
   26.0766   40.5458   68.5278 O   0  0  0  0  0  0  0  0  0  0  0  0
   24.7589   42.7423   68.2524 O   0  0  0  0  0  0  0  0  0  0  0  0
   23.4555   37.5748   68.1745 C   0  0  2  0  0  0  0  0  0  0  0  0
   24.7916   37.3943   68.0177 C   0  0  2  0  0  0  0  0  0  0  0  0
   25.7888   36.7367   68.9353 C   0  0  0  0  0  0  0  0  0  0  0  0
   26.5489   37.8092   69.7190 C   0  0  0  0  0  0  0  0  0  0  0  0
   27.5459   38.3948   68.8793 O   0  0  0  0  0  0  0  0  0  0  0  0
  1 11  1  0  0  0  0
  3 13  1  6  0  0  0
  3 17  2  0  0  0  0
  3 20  1  0  0  0  0
  3 26  1  0  0  0  0
  4 14  1  1  0  0  0
  4 18  1  0  0  0  0
  4 21  2  0  0  0  0
  4 20  1  0  0  0  0
  5 19  1  0  0  0  0
  5  7  1  0  0  0  0
  6  7  2  0  0  0  0
  6 12  1  0  0  0  0
  7  8  1  0  0  0  0
  8  9  1  0  0  0  0
  8 10  2  0  0  0  0
 10 11  1  0  0  0  0
 11 12  2  0  0  0  0
 15 23  1  0  0  0  0
 15 16  1  0  0  0  0
 16 19  1  0  0  0  0
 19 22  1  0  0  0  0
 22  2  1  6  0  0  0
 22 23  1  0  0  0  0
 23 24  1  1  0  0  0
 24 25  1  0  0  0  0
 25 26  1  0  0  0  0
M  CHG  2  13  -1  18  -1
M  END
>  <CHROM.1>
-54.74427853,-47.55020937,-50.42553265,-54.37118707,80.06369112,-77.89362966
135.74422066,172.55410814,24.32325717,40.04435446,67.92156010,-3.07351197
0.37465062,3.13056113

>  <Name>
ligand

>  <RI>
0

>  <Rbt.Current_Directory>
/home/itssahil/PROJECTS/Mol_Feturizer/New_Systems/rnas/2HOJ

>  <Rbt.Executable>
rbdock ($Id: //depot/dev/client3/rdock/2013.1/src/exe/rbdock.cxx#4 $)

>  <Rbt.Library>
libRbt.so (2013.1, Build901 2013/11/27)

>  <Rbt.Parameter_File>
/export/apps/rDock/src/rDock_2013.1_src/data/scripts/dock_solv.prm

>  <Rbt.Receptor>
prm/pocket_docking_7.prm

>  <SCORE>
-18.8753

>  <SCORE.INTER>
-15.3356

>  <SCORE.INTER.CONST>
1

>  <SCORE.INTER.POLAR>
-1.23442

>  <SCORE.INTER.ROT>
8

>  <SCORE.INTER.SOLV>
25.5349

>  <SCORE.INTER.VDW>
-23.554

>  <SCORE.INTER.norm>
-0.589831

>  <SCORE.INTRA>
-3.53973

>  <SCORE.INTRA.DIHEDRAL>
0.722053

>  <SCORE.INTRA.DIHEDRAL.0>
11.6398

>  <SCORE.INTRA.POLAR>
0

>  <SCORE.INTRA.POLAR.0>
0

>  <SCORE.INTRA.REPUL>
0

>  <SCORE.INTRA.REPUL.0>
0

>  <SCORE.INTRA.SOLV>
1.23082

>  <SCORE.INTRA.SOLV.lig_0>
-81.722

>  <SCORE.INTRA.VDW>
-4.51617

>  <SCORE.INTRA.VDW.0>
1.12598

>  <SCORE.INTRA.norm>
-0.136144

>  <SCORE.RESTR>
0

>  <SCORE.RESTR.CAVITY>
0

>  <SCORE.RESTR.norm>
0

>  <SCORE.SYSTEM>
0

>  <SCORE.SYSTEM.CONST>
0

>  <SCORE.SYSTEM.DIHEDRAL>
0

>  <SCORE.SYSTEM.SOLV>
0

>  <SCORE.SYSTEM.norm>
0

>  <SCORE.heavy>
26

>  <SCORE.norm>
-0.725975

>  <RMSD>
3.779

$$$$
ligand
 OpenBabel11021811433D
libRbt.so/2013.1/901 2013/11/27
 26 27  0  0  0  0  0  0  0  0999 V2000
   17.3587   40.0833   64.9493 C   0  0  0  0  0  0  0  0  0  0  0  0
   23.9938   43.4743   67.6056 C   0  0  0  0  0  0  0  0  0  0  0  0
   26.4085   40.2318   65.2386 P   0  0  1  0  0  0  0  0  0  0  0  0
   28.0273   40.2438   67.2551 P   0  0  1  0  0  0  0  0  0  0  0  0
   21.2761   43.6998   66.9476 C   0  0  0  0  0  0  0  0  0  0  0  0
   19.0584   43.2049   65.8759 C   0  0  0  0  0  0  0  0  0  0  0  0
   20.2401   42.7414   66.4191 C   0  0  0  0  0  0  0  0  0  0  0  0
   20.4510   41.3623   66.4660 C   0  0  0  0  0  0  0  0  0  0  0  0
   21.6212   40.8461   67.0023 N   0  0  0  0  0  0  0  0  0  0  0  0
   19.5101   40.5498   65.9939 N   0  0  0  0  0  0  0  0  0  0  0  0
   18.3989   41.0352   65.4796 C   0  0  0  0  0  0  0  0  0  0  0  0
   18.1691   42.3324   65.4207 N   0  0  0  0  0  0  0  0  0  0  0  0
   26.2769   40.0545   63.7748 O   0  5  0  0  0  0  0  0  0  0  0  0
   27.3163   41.5238   67.7474 O   0  0  0  0  0  0  0  0  0  0  0  0
   23.3951   44.4735   63.8659 S   0  0  0  0  0  0  0  0  0  0  0  0
   21.8854   44.2830   64.7037 C   0  0  0  0  0  0  0  0  0  0  0  0
   25.6155   39.0548   65.9959 O   0  0  0  0  0  0  0  0  0  0  0  0
   27.2957   38.9504   67.8732 O   0  5  0  0  0  0  0  0  0  0  0  0
   22.2801   43.9541   65.9120 N   0  0  0  0  0  0  0  0  0  0  0  0
   27.9654   40.1797   65.6470 O   0  0  0  0  0  0  0  0  0  0  0  0
   29.5034   40.2676   67.7120 O   0  0  0  0  0  0  0  0  0  0  0  0
   23.5563   43.8518   66.2127 C   0  0  2  0  0  0  0  0  0  0  0  0
   24.4716   44.0865   65.2382 C   0  0  2  0  0  0  0  0  0  0  0  0
   25.9759   44.0380   65.2980 C   0  0  0  0  0  0  0  0  0  0  0  0
   26.4607   42.6472   64.8825 C   0  0  0  0  0  0  0  0  0  0  0  0
   25.7912   41.6566   65.6652 O   0  0  0  0  0  0  0  0  0  0  0  0
  1 11  1  0  0  0  0
  3 13  1  6  0  0  0
  3 17  2  0  0  0  0
  3 20  1  0  0  0  0
  3 26  1  0  0  0  0
  4 14  1  1  0  0  0
  4 18  1  0  0  0  0
  4 21  2  0  0  0  0
  4 20  1  0  0  0  0
  5 19  1  0  0  0  0
  5  7  1  0  0  0  0
  6  7  2  0  0  0  0
  6 12  1  0  0  0  0
  7  8  1  0  0  0  0
  8  9  1  0  0  0  0
  8 10  2  0  0  0  0
 10 11  1  0  0  0  0
 11 12  2  0  0  0  0
 15 23  1  0  0  0  0
 15 16  1  0  0  0  0
 16 19  1  0  0  0  0
 19 22  1  0  0  0  0
 22  2  1  6  0  0  0
 22 23  1  0  0  0  0
 23 24  1  1  0  0  0
 24 25  1  0  0  0  0
 25 26  1  0  0  0  0
M  CHG  2  13  -1  18  -1
M  END
>  <CHROM.1>
-174.98397184,49.62971651,-95.60892774,-57.31180601,-87.24470973,-52.96161025
-176.75854509,-55.33555195,24.02583267,41.76665184,65.92101536,2.89627376
-0.04085829,-0.29221125

>  <Name>
ligand

>  <RI>
0

>  <Rbt.Current_Directory>
/home/itssahil/PROJECTS/Mol_Feturizer/New_Systems/rnas/2HOJ

>  <Rbt.Executable>
rbdock ($Id: //depot/dev/client3/rdock/2013.1/src/exe/rbdock.cxx#4 $)

>  <Rbt.Library>
libRbt.so (2013.1, Build901 2013/11/27)

>  <Rbt.Parameter_File>
/export/apps/rDock/src/rDock_2013.1_src/data/scripts/dock_solv.prm

>  <Rbt.Receptor>
prm/pocket_docking_7.prm

>  <SCORE>
-28.4119

>  <SCORE.INTER>
-21.9759

>  <SCORE.INTER.CONST>
1

>  <SCORE.INTER.POLAR>
-1.29535

>  <SCORE.INTER.ROT>
8

>  <SCORE.INTER.SOLV>
15.6766

>  <SCORE.INTER.VDW>
-24.4916

>  <SCORE.INTER.norm>
-0.845226

>  <SCORE.INTRA>
-6.43607

>  <SCORE.INTRA.DIHEDRAL>
-6.40282

>  <SCORE.INTRA.DIHEDRAL.0>
11.6398

>  <SCORE.INTRA.POLAR>
0

>  <SCORE.INTRA.POLAR.0>
0

>  <SCORE.INTRA.REPUL>
0

>  <SCORE.INTRA.REPUL.0>
0

>  <SCORE.INTRA.SOLV>
1.67322

>  <SCORE.INTRA.SOLV.lig_0>
-81.722

>  <SCORE.INTRA.VDW>
-4.07127

>  <SCORE.INTRA.VDW.0>
1.12598

>  <SCORE.INTRA.norm>
-0.247541

>  <SCORE.RESTR>
0

>  <SCORE.RESTR.CAVITY>
0

>  <SCORE.RESTR.norm>
0

>  <SCORE.SYSTEM>
0

>  <SCORE.SYSTEM.CONST>
0

>  <SCORE.SYSTEM.DIHEDRAL>
0

>  <SCORE.SYSTEM.SOLV>
0

>  <SCORE.SYSTEM.norm>
0

>  <SCORE.heavy>
26

>  <SCORE.norm>
-1.09277

>  <RMSD>
3.798

$$$$
ligand
 OpenBabel11021811433D
libRbt.so/2013.1/901 2013/11/27
 26 27  0  0  0  0  0  0  0  0999 V2000
   21.3048   44.6876   66.5657 C   0  0  0  0  0  0  0  0  0  0  0  0
   20.9971   38.8332   68.2976 C   0  0  0  0  0  0  0  0  0  0  0  0
   26.8548   38.8092   67.7875 P   0  0  1  0  0  0  0  0  0  0  0  0
   26.5021   41.3236   68.2775 P   0  0  1  0  0  0  0  0  0  0  0  0
   20.0987   39.1965   65.6650 C   0  0  0  0  0  0  0  0  0  0  0  0
   19.4344   41.5389   66.2844 C   0  0  0  0  0  0  0  0  0  0  0  0
   20.4194   40.6497   65.9030 C   0  0  0  0  0  0  0  0  0  0  0  0
   21.7201   41.1309   65.7438 C   0  0  0  0  0  0  0  0  0  0  0  0
   22.7451   40.2784   65.3615 N   0  0  0  0  0  0  0  0  0  0  0  0
   21.9610   42.4209   65.9585 N   0  0  0  0  0  0  0  0  0  0  0  0
   20.9918   43.2337   66.3260 C   0  0  0  0  0  0  0  0  0  0  0  0
   19.7529   42.8108   66.4848 N   0  0  0  0  0  0  0  0  0  0  0  0
   27.2516   37.8119   66.7679 O   0  5  0  0  0  0  0  0  0  0  0  0
   27.0052   41.0226   69.7066 O   0  0  0  0  0  0  0  0  0  0  0  0
   23.2331   37.0147   65.6452 S   0  0  0  0  0  0  0  0  0  0  0  0
   21.9208   37.8535   64.8761 C   0  0  0  0  0  0  0  0  0  0  0  0
   27.6781   38.5471   69.1445 O   0  0  0  0  0  0  0  0  0  0  0  0
   26.9027   42.8287   67.8720 O   0  5  0  0  0  0  0  0  0  0  0  0
   21.2962   38.3869   65.9004 N   0  0  0  0  0  0  0  0  0  0  0  0
   27.1756   40.2901   67.2421 O   0  0  0  0  0  0  0  0  0  0  0  0
   24.9652   41.1699   68.2305 O   0  0  0  0  0  0  0  0  0  0  0  0
   21.7248   38.2128   67.1316 C   0  0  2  0  0  0  0  0  0  0  0  0
   22.8334   37.4552   67.3299 C   0  0  2  0  0  0  0  0  0  0  0  0
   23.5340   37.0906   68.6125 C   0  0  0  0  0  0  0  0  0  0  0  0
   25.0391   37.3199   68.4573 C   0  0  0  0  0  0  0  0  0  0  0  0
   25.2771   38.6781   68.0824 O   0  0  0  0  0  0  0  0  0  0  0  0
  1 11  1  0  0  0  0
  3 13  1  6  0  0  0
  3 17  2  0  0  0  0
  3 20  1  0  0  0  0
  3 26  1  0  0  0  0
  4 14  1  1  0  0  0
  4 18  1  0  0  0  0
  4 21  2  0  0  0  0
  4 20  1  0  0  0  0
  5 19  1  0  0  0  0
  5  7  1  0  0  0  0
  6  7  2  0  0  0  0
  6 12  1  0  0  0  0
  7  8  1  0  0  0  0
  8  9  1  0  0  0  0
  8 10  2  0  0  0  0
 10 11  1  0  0  0  0
 11 12  2  0  0  0  0
 15 23  1  0  0  0  0
 15 16  1  0  0  0  0
 16 19  1  0  0  0  0
 19 22  1  0  0  0  0
 22  2  1  1  0  0  0
 22 23  1  0  0  0  0
 23 24  1  6  0  0  0
 24 25  1  0  0  0  0
 25 26  1  0  0  0  0
M  CHG  2  13  -1  18  -1
M  END
>  <CHROM.1>
170.73370479,-107.75068662,-153.42866484,54.50472316,47.15786980,56.73151443
-174.21233525,55.49007050,23.83240247,39.83914417,67.14702300,-2.93779804
0.34622540,-3.06162269

>  <Name>
ligand

>  <RI>
0

>  <Rbt.Current_Directory>
/home/itssahil/PROJECTS/Mol_Feturizer/New_Systems/rnas/2HOJ

>  <Rbt.Executable>
rbdock ($Id: //depot/dev/client3/rdock/2013.1/src/exe/rbdock.cxx#4 $)

>  <Rbt.Library>
libRbt.so (2013.1, Build901 2013/11/27)

>  <Rbt.Parameter_File>
/export/apps/rDock/src/rDock_2013.1_src/data/scripts/dock_solv.prm

>  <Rbt.Receptor>
prm/pocket_docking_7.prm

>  <SCORE>
-15.0062

>  <SCORE.INTER>
-12.8353

>  <SCORE.INTER.CONST>
1

>  <SCORE.INTER.POLAR>
0

>  <SCORE.INTER.ROT>
8

>  <SCORE.INTER.SOLV>
14.5263

>  <SCORE.INTER.VDW>
-22.3323

>  <SCORE.INTER.norm>
-0.493667

>  <SCORE.INTRA>
-2.1709

>  <SCORE.INTRA.DIHEDRAL>
-6.11588

>  <SCORE.INTRA.DIHEDRAL.0>
11.6398

>  <SCORE.INTRA.POLAR>
0

>  <SCORE.INTRA.POLAR.0>
0

>  <SCORE.INTRA.REPUL>
0.0136361

>  <SCORE.INTRA.REPUL.0>
0

>  <SCORE.INTRA.SOLV>
6.37895

>  <SCORE.INTRA.SOLV.lig_0>
-81.722

>  <SCORE.INTRA.VDW>
-2.37061

>  <SCORE.INTRA.VDW.0>
1.12598

>  <SCORE.INTRA.norm>
-0.083496

>  <SCORE.RESTR>
0

>  <SCORE.RESTR.CAVITY>
0

>  <SCORE.RESTR.norm>
0

>  <SCORE.SYSTEM>
0

>  <SCORE.SYSTEM.CONST>
0

>  <SCORE.SYSTEM.DIHEDRAL>
0

>  <SCORE.SYSTEM.SOLV>
0

>  <SCORE.SYSTEM.norm>
0

>  <SCORE.heavy>
26

>  <SCORE.norm>
-0.577163

>  <RMSD>
3.805

$$$$
ligand
 OpenBabel11021811433D
libRbt.so/2013.1/901 2013/11/27
 26 27  0  0  0  0  0  0  0  0999 V2000
   22.9653   46.0340   66.2553 C   0  0  0  0  0  0  0  0  0  0  0  0
   23.1141   37.9333   66.2678 C   0  0  0  0  0  0  0  0  0  0  0  0
   26.6797   38.0010   69.6120 P   0  0  1  0  0  0  0  0  0  0  0  0
   28.3117   39.2324   68.0285 P   0  0  1  0  0  0  0  0  0  0  0  0
   21.9253   40.4474   65.8992 C   0  0  0  0  0  0  0  0  0  0  0  0
   21.1875   42.8197   66.2724 C   0  0  0  0  0  0  0  0  0  0  0  0
   22.2020   41.9258   65.9931 C   0  0  0  0  0  0  0  0  0  0  0  0
   23.4908   42.4263   65.8002 C   0  0  0  0  0  0  0  0  0  0  0  0
   24.5443   41.5700   65.5167 N   0  0  0  0  0  0  0  0  0  0  0  0
   23.6927   43.7378   65.8865 N   0  0  0  0  0  0  0  0  0  0  0  0
   22.6963   44.5548   66.1599 C   0  0  0  0  0  0  0  0  0  0  0  0
   21.4676   44.1140   66.3471 N   0  0  0  0  0  0  0  0  0  0  0  0
   27.3288   36.6962   69.3519 O   0  5  0  0  0  0  0  0  0  0  0  0
   28.8589   40.0910   69.1903 O   0  0  0  0  0  0  0  0  0  0  0  0
   21.6651   39.4488   69.5762 S   0  0  0  0  0  0  0  0  0  0  0  0
   21.4002   40.5227   68.2368 C   0  0  0  0  0  0  0  0  0  0  0  0
   27.4384   38.7476   70.8182 O   0  0  0  0  0  0  0  0  0  0  0  0
   29.1381   37.8540   67.9427 O   0  5  0  0  0  0  0  0  0  0  0  0
   21.9424   39.8608   67.2410 N   0  0  0  0  0  0  0  0  0  0  0  0
   26.7546   38.9110   68.2854 O   0  0  0  0  0  0  0  0  0  0  0  0
   28.4642   40.0074   66.7004 O   0  0  0  0  0  0  0  0  0  0  0  0
   22.4966   38.6818   67.4220 C   0  0  2  0  0  0  0  0  0  0  0  0
   22.5070   38.1570   68.6738 C   0  0  2  0  0  0  0  0  0  0  0  0
   23.0683   36.8482   69.1647 C   0  0  0  0  0  0  0  0  0  0  0  0
   24.5936   36.8667   69.0420 C   0  0  0  0  0  0  0  0  0  0  0  0
   25.1379   37.7642   70.0117 O   0  0  0  0  0  0  0  0  0  0  0  0
  1 11  1  0  0  0  0
  3 13  1  6  0  0  0
  3 17  2  0  0  0  0
  3 20  1  0  0  0  0
  3 26  1  0  0  0  0
  4 14  1  1  0  0  0
  4 18  1  0  0  0  0
  4 21  2  0  0  0  0
  4 20  1  0  0  0  0
  5 19  1  0  0  0  0
  5  7  1  0  0  0  0
  6  7  2  0  0  0  0
  6 12  1  0  0  0  0
  7  8  1  0  0  0  0
  8  9  1  0  0  0  0
  8 10  2  0  0  0  0
 10 11  1  0  0  0  0
 11 12  2  0  0  0  0
 15 23  1  0  0  0  0
 15 16  1  0  0  0  0
 16 19  1  0  0  0  0
 19 22  1  0  0  0  0
 22  2  1  1  0  0  0
 22 23  1  0  0  0  0
 23 24  1  6  0  0  0
 24 25  1  0  0  0  0
 25 26  1  0  0  0  0
M  CHG  2  13  -1  18  -1
M  END
>  <CHROM.1>
-65.64404735,40.14227093,-83.71276856,-64.72055484,-113.36679709,70.67205480
-167.06284937,-48.14668700,24.65884799,39.89174501,67.91347891,-2.35227357
0.01381184,2.64994080

>  <Name>
ligand

>  <RI>
0

>  <Rbt.Current_Directory>
/home/itssahil/PROJECTS/Mol_Feturizer/New_Systems/rnas/2HOJ

>  <Rbt.Executable>
rbdock ($Id: //depot/dev/client3/rdock/2013.1/src/exe/rbdock.cxx#4 $)

>  <Rbt.Library>
libRbt.so (2013.1, Build901 2013/11/27)

>  <Rbt.Parameter_File>
/export/apps/rDock/src/rDock_2013.1_src/data/scripts/dock_solv.prm

>  <Rbt.Receptor>
prm/pocket_docking_8.prm

>  <SCORE>
-13.6629

>  <SCORE.INTER>
-9.49914

>  <SCORE.INTER.CONST>
1

>  <SCORE.INTER.POLAR>
-0.973812

>  <SCORE.INTER.ROT>
8

>  <SCORE.INTER.SOLV>
15.3607

>  <SCORE.INTER.VDW>
-17.1403

>  <SCORE.INTER.norm>
-0.365351

>  <SCORE.INTRA>
-4.16375

>  <SCORE.INTRA.DIHEDRAL>
-5.53974

>  <SCORE.INTRA.DIHEDRAL.0>
11.6398

>  <SCORE.INTRA.POLAR>
0

>  <SCORE.INTRA.POLAR.0>
0

>  <SCORE.INTRA.REPUL>
0.00675825

>  <SCORE.INTRA.REPUL.0>
0

>  <SCORE.INTRA.SOLV>
2.47102

>  <SCORE.INTRA.SOLV.lig_0>
-81.722

>  <SCORE.INTRA.VDW>
-2.66318

>  <SCORE.INTRA.VDW.0>
1.12598

>  <SCORE.INTRA.norm>
-0.160144

>  <SCORE.RESTR>
0

>  <SCORE.RESTR.CAVITY>
0

>  <SCORE.RESTR.norm>
0

>  <SCORE.SYSTEM>
0

>  <SCORE.SYSTEM.CONST>
0

>  <SCORE.SYSTEM.DIHEDRAL>
0

>  <SCORE.SYSTEM.SOLV>
0

>  <SCORE.SYSTEM.norm>
0

>  <SCORE.heavy>
26

>  <SCORE.norm>
-0.525496

>  <RMSD>
3.812

$$$$
ligand
 OpenBabel11021811433D
libRbt.so/2013.1/901 2013/11/27
 26 27  0  0  0  0  0  0  0  0999 V2000
   20.9448   37.2171   69.6713 C   0  0  0  0  0  0  0  0  0  0  0  0
   23.7754   41.3201   65.3851 C   0  0  0  0  0  0  0  0  0  0  0  0
   27.4502   40.0485   67.3896 P   0  0  1  0  0  0  0  0  0  0  0  0
   26.7960   38.4560   65.4602 P   0  0  1  0  0  0  0  0  0  0  0  0
   21.1197   41.7225   66.1944 C   0  0  0  0  0  0  0  0  0  0  0  0
   21.7778   40.5215   68.3007 C   0  0  0  0  0  0  0  0  0  0  0  0
   21.0726   40.5292   67.1137 C   0  0  0  0  0  0  0  0  0  0  0  0
   20.3143   39.4037   66.7869 C   0  0  0  0  0  0  0  0  0  0  0  0
   19.5884   39.3615   65.6059 N   0  0  0  0  0  0  0  0  0  0  0  0
   20.3029   38.3692   67.6224 N   0  0  0  0  0  0  0  0  0  0  0  0
   20.9872   38.4061   68.7474 C   0  0  0  0  0  0  0  0  0  0  0  0
   21.7132   39.4539   69.0850 N   0  0  0  0  0  0  0  0  0  0  0  0
   26.4556   39.5358   68.3589 O   0  5  0  0  0  0  0  0  0  0  0  0
   26.6204   39.5922   64.4285 O   0  0  0  0  0  0  0  0  0  0  0  0
   23.3311   44.4470   67.7018 S   0  0  0  0  0  0  0  0  0  0  0  0
   21.8091   43.6527   67.4375 C   0  0  0  0  0  0  0  0  0  0  0  0
   28.6842   40.7077   68.1837 O   0  0  0  0  0  0  0  0  0  0  0  0
   27.1570   37.0864   64.6959 O   0  5  0  0  0  0  0  0  0  0  0  0
   22.1508   42.6546   66.6559 N   0  0  0  0  0  0  0  0  0  0  0  0
   27.9857   38.8338   66.4779 O   0  0  0  0  0  0  0  0  0  0  0  0
   25.4815   38.2725   66.2516 O   0  0  0  0  0  0  0  0  0  0  0  0
   23.3985   42.4721   66.2821 C   0  0  2  0  0  0  0  0  0  0  0  0
   24.3389   43.3494   66.7161 C   0  0  2  0  0  0  0  0  0  0  0  0
   25.8203   43.3853   66.4455 C   0  0  0  0  0  0  0  0  0  0  0  0
   26.5184   42.3027   67.2716 C   0  0  0  0  0  0  0  0  0  0  0  0
   26.7613   41.1595   66.4493 O   0  0  0  0  0  0  0  0  0  0  0  0
  1 11  1  0  0  0  0
  3 13  1  1  0  0  0
  3 17  2  0  0  0  0
  3 20  1  0  0  0  0
  3 26  1  0  0  0  0
  4 14  1  6  0  0  0
  4 18  1  0  0  0  0
  4 21  2  0  0  0  0
  4 20  1  0  0  0  0
  5 19  1  0  0  0  0
  5  7  1  0  0  0  0
  6  7  2  0  0  0  0
  6 12  1  0  0  0  0
  7  8  1  0  0  0  0
  8  9  1  0  0  0  0
  8 10  2  0  0  0  0
 10 11  1  0  0  0  0
 11 12  2  0  0  0  0
 15 23  1  0  0  0  0
 15 16  1  0  0  0  0
 16 19  1  0  0  0  0
 19 22  1  0  0  0  0
 22  2  1  6  0  0  0
 22 23  1  0  0  0  0
 23 24  1  1  0  0  0
 24 25  1  0  0  0  0
 25 26  1  0  0  0  0
M  CHG  2  13  -1  18  -1
M  END
>  <CHROM.1>
73.26315542,-94.72258727,9.52591097,69.84903555,104.39171308,99.06625033
-178.19570463,69.89070983,24.33045392,40.47592487,66.91210562,2.96640527
0.16654934,0.04178403

>  <Name>
ligand

>  <RI>
0

>  <Rbt.Current_Directory>
/home/itssahil/PROJECTS/Mol_Feturizer/New_Systems/rnas/2HOJ

>  <Rbt.Executable>
rbdock ($Id: //depot/dev/client3/rdock/2013.1/src/exe/rbdock.cxx#4 $)

>  <Rbt.Library>
libRbt.so (2013.1, Build901 2013/11/27)

>  <Rbt.Parameter_File>
/export/apps/rDock/src/rDock_2013.1_src/data/scripts/dock_solv.prm

>  <Rbt.Receptor>
prm/pocket_docking_6.prm

>  <SCORE>
-16.4384

>  <SCORE.INTER>
-12.0009

>  <SCORE.INTER.CONST>
1

>  <SCORE.INTER.POLAR>
-1.29662

>  <SCORE.INTER.ROT>
8

>  <SCORE.INTER.SOLV>
21.1753

>  <SCORE.INTER.VDW>
-19.6703

>  <SCORE.INTER.norm>
-0.461571

>  <SCORE.INTRA>
-4.45703

>  <SCORE.INTRA.DIHEDRAL>
-2.36983

>  <SCORE.INTRA.DIHEDRAL.0>
11.6398

>  <SCORE.INTRA.POLAR>
0

>  <SCORE.INTRA.POLAR.0>
0

>  <SCORE.INTRA.REPUL>
0

>  <SCORE.INTRA.REPUL.0>
0

>  <SCORE.INTRA.SOLV>
1.18244

>  <SCORE.INTRA.SOLV.lig_0>
-81.722

>  <SCORE.INTRA.VDW>
-3.86334

>  <SCORE.INTRA.VDW.0>
1.12598

>  <SCORE.INTRA.norm>
-0.171424

>  <SCORE.RESTR>
0.0194795

>  <SCORE.RESTR.CAVITY>
0.0194795

>  <SCORE.RESTR.norm>
0.000749213

>  <SCORE.SYSTEM>
0

>  <SCORE.SYSTEM.CONST>
0

>  <SCORE.SYSTEM.DIHEDRAL>
0

>  <SCORE.SYSTEM.SOLV>
0

>  <SCORE.SYSTEM.norm>
0

>  <SCORE.heavy>
26

>  <SCORE.norm>
-0.632246

>  <RMSD>
3.860

$$$$
ligand
 OpenBabel11021811433D
libRbt.so/2013.1/901 2013/11/27
 26 27  0  0  0  0  0  0  0  0999 V2000
   18.9804   42.4956   65.5919 C   0  0  0  0  0  0  0  0  0  0  0  0
   23.6892   37.4216   69.0834 C   0  0  0  0  0  0  0  0  0  0  0  0
   27.1351   41.2830   69.6213 P   0  0  1  0  0  0  0  0  0  0  0  0
   25.4749   42.2804   67.9079 P   0  0  1  0  0  0  0  0  0  0  0  0
   21.7773   37.7580   67.0583 C   0  0  0  0  0  0  0  0  0  0  0  0
   20.0997   38.9978   65.6583 C   0  0  0  0  0  0  0  0  0  0  0  0
   21.0378   39.0127   66.6712 C   0  0  0  0  0  0  0  0  0  0  0  0
   21.2837   40.2197   67.3279 C   0  0  0  0  0  0  0  0  0  0  0  0
   22.2168   40.2877   68.3518 N   0  0  0  0  0  0  0  0  0  0  0  0
   20.6139   41.3057   66.9532 N   0  0  0  0  0  0  0  0  0  0  0  0
   19.7235   41.2454   65.9844 C   0  0  0  0  0  0  0  0  0  0  0  0
   19.4683   40.1211   65.3441 N   0  0  0  0  0  0  0  0  0  0  0  0
   28.2344   42.2404   69.3632 O   0  5  0  0  0  0  0  0  0  0  0  0
   25.0688   40.9476   67.2407 O   0  0  0  0  0  0  0  0  0  0  0  0
   25.2711   38.2575   65.5991 S   0  0  0  0  0  0  0  0  0  0  0  0
   23.5386   38.1915   65.4912 C   0  0  0  0  0  0  0  0  0  0  0  0
   27.2797   40.6870   71.1084 O   0  0  0  0  0  0  0  0  0  0  0  0
   24.3009   43.3626   67.7062 O   0  5  0  0  0  0  0  0  0  0  0  0
   23.1961   37.9045   66.7257 N   0  0  0  0  0  0  0  0  0  0  0  0
   25.7208   42.0404   69.4813 O   0  0  0  0  0  0  0  0  0  0  0  0
   26.7754   42.8049   67.2586 O   0  0  0  0  0  0  0  0  0  0  0  0
   24.0986   37.7497   67.6698 C   0  0  2  0  0  0  0  0  0  0  0  0
   25.4087   37.8846   67.3409 C   0  0  2  0  0  0  0  0  0  0  0  0
   26.6362   37.7589   68.2046 C   0  0  0  0  0  0  0  0  0  0  0  0
   26.6835   38.9204   69.2000 C   0  0  0  0  0  0  0  0  0  0  0  0
   27.2065   40.0814   68.5516 O   0  0  0  0  0  0  0  0  0  0  0  0
  1 11  1  0  0  0  0
  3 13  1  6  0  0  0
  3 17  2  0  0  0  0
  3 20  1  0  0  0  0
  3 26  1  0  0  0  0
  4 14  1  6  0  0  0
  4 18  1  0  0  0  0
  4 21  2  0  0  0  0
  4 20  1  0  0  0  0
  5 19  1  0  0  0  0
  5  7  1  0  0  0  0
  6  7  2  0  0  0  0
  6 12  1  0  0  0  0
  7  8  1  0  0  0  0
  8  9  1  0  0  0  0
  8 10  2  0  0  0  0
 10 11  1  0  0  0  0
 11 12  2  0  0  0  0
 15 23  1  0  0  0  0
 15 16  1  0  0  0  0
 16 19  1  0  0  0  0
 19 22  1  0  0  0  0
 22  2  1  6  0  0  0
 22 23  1  0  0  0  0
 23 24  1  1  0  0  0
 24 25  1  0  0  0  0
 25 26  1  0  0  0  0
M  CHG  2  13  -1  18  -1
M  END
>  <CHROM.1>
73.95236303,-56.14101971,113.41458361,74.99071356,111.36921526,-80.85653527
176.25958216,149.79006797,24.26592909,40.20100254,67.63936099,2.91813357
0.39974167,-2.96941842

>  <Name>
ligand

>  <RI>
0

>  <Rbt.Current_Directory>
/home/itssahil/PROJECTS/Mol_Feturizer/New_Systems/rnas/2HOJ

>  <Rbt.Executable>
rbdock ($Id: //depot/dev/client3/rdock/2013.1/src/exe/rbdock.cxx#4 $)

>  <Rbt.Library>
libRbt.so (2013.1, Build901 2013/11/27)

>  <Rbt.Parameter_File>
/export/apps/rDock/src/rDock_2013.1_src/data/scripts/dock_solv.prm

>  <Rbt.Receptor>
prm/pocket_docking_5.prm

>  <SCORE>
-18.3297

>  <SCORE.INTER>
-14.6727

>  <SCORE.INTER.CONST>
1

>  <SCORE.INTER.POLAR>
-1.24051

>  <SCORE.INTER.ROT>
8

>  <SCORE.INTER.SOLV>
23.3868

>  <SCORE.INTER.VDW>
-22.3757

>  <SCORE.INTER.norm>
-0.564334

>  <SCORE.INTRA>
-3.65701

>  <SCORE.INTRA.DIHEDRAL>
-3.61912

>  <SCORE.INTRA.DIHEDRAL.0>
11.6398

>  <SCORE.INTRA.POLAR>
0

>  <SCORE.INTRA.POLAR.0>
0

>  <SCORE.INTRA.REPUL>
0

>  <SCORE.INTRA.REPUL.0>
0

>  <SCORE.INTRA.SOLV>
5.69318

>  <SCORE.INTRA.SOLV.lig_0>
-81.722

>  <SCORE.INTRA.VDW>
-4.69404

>  <SCORE.INTRA.VDW.0>
1.12598

>  <SCORE.INTRA.norm>
-0.140654

>  <SCORE.RESTR>
0

>  <SCORE.RESTR.CAVITY>
0

>  <SCORE.RESTR.norm>
0

>  <SCORE.SYSTEM>
0

>  <SCORE.SYSTEM.CONST>
0

>  <SCORE.SYSTEM.DIHEDRAL>
0

>  <SCORE.SYSTEM.SOLV>
0

>  <SCORE.SYSTEM.norm>
0

>  <SCORE.heavy>
26

>  <SCORE.norm>
-0.704988

>  <RMSD>
3.880

$$$$
ligand
 OpenBabel11021811433D
libRbt.so/2013.1/901 2013/11/27
 26 27  0  0  0  0  0  0  0  0999 V2000
   16.0473   39.2118   64.4412 C   0  0  0  0  0  0  0  0  0  0  0  0
   23.4395   41.8120   67.6402 C   0  0  0  0  0  0  0  0  0  0  0  0
   25.7038   36.9768   69.0606 P   0  0  1  0  0  0  0  0  0  0  0  0
   25.4431   34.6637   70.1870 P   0  0  1  0  0  0  0  0  0  0  0  0
   20.8910   41.2992   66.5859 C   0  0  0  0  0  0  0  0  0  0  0  0
   18.8163   41.5079   65.1846 C   0  0  0  0  0  0  0  0  0  0  0  0
   19.6092   40.7454   66.0190 C   0  0  0  0  0  0  0  0  0  0  0  0
   19.1935   39.4481   66.3239 C   0  0  0  0  0  0  0  0  0  0  0  0
   19.9540   38.6419   67.1576 N   0  0  0  0  0  0  0  0  0  0  0  0
   18.0536   38.9983   65.8075 N   0  0  0  0  0  0  0  0  0  0  0  0
   17.3299   39.7586   65.0117 C   0  0  0  0  0  0  0  0  0  0  0  0
   17.6945   40.9881   64.7044 N   0  0  0  0  0  0  0  0  0  0  0  0
   25.8317   37.7676   70.3055 O   0  5  0  0  0  0  0  0  0  0  0  0
   26.4794   33.9282   69.3088 O   0  0  0  0  0  0  0  0  0  0  0  0
   23.3891   38.8004   65.1363 S   0  0  0  0  0  0  0  0  0  0  0  0
   21.8028   39.4867   65.3092 C   0  0  0  0  0  0  0  0  0  0  0  0
   27.1420   36.3841   68.6504 O   0  0  0  0  0  0  0  0  0  0  0  0
   26.1942   35.3906   71.4107 O   0  5  0  0  0  0  0  0  0  0  0  0
   22.0142   40.4575   66.1675 N   0  0  0  0  0  0  0  0  0  0  0  0
   24.6714   35.7641   69.2996 O   0  0  0  0  0  0  0  0  0  0  0  0
   24.4233   33.6439   70.7420 O   0  0  0  0  0  0  0  0  0  0  0  0
   23.2125   40.6923   66.6562 C   0  0  2  0  0  0  0  0  0  0  0  0
   24.2398   39.8983   66.2602 C   0  0  2  0  0  0  0  0  0  0  0  0
   25.6929   39.9351   66.6550 C   0  0  0  0  0  0  0  0  0  0  0  0
   25.8924   39.1430   67.9492 C   0  0  0  0  0  0  0  0  0  0  0  0
   25.1546   37.9213   67.8776 O   0  0  0  0  0  0  0  0  0  0  0  0
  1 11  1  0  0  0  0
  3 13  1  1  0  0  0
  3 17  2  0  0  0  0
  3 20  1  0  0  0  0
  3 26  1  0  0  0  0
  4 14  1  6  0  0  0
  4 18  1  0  0  0  0
  4 21  2  0  0  0  0
  4 20  1  0  0  0  0
  5 19  1  0  0  0  0
  5  7  1  0  0  0  0
  6  7  2  0  0  0  0
  6 12  1  0  0  0  0
  7  8  1  0  0  0  0
  8  9  1  0  0  0  0
  8 10  2  0  0  0  0
 10 11  1  0  0  0  0
 11 12  2  0  0  0  0
 15 23  1  0  0  0  0
 15 16  1  0  0  0  0
 16 19  1  0  0  0  0
 19 22  1  0  0  0  0
 22  2  1  1  0  0  0
 22 23  1  0  0  0  0
 23 24  1  6  0  0  0
 24 25  1  0  0  0  0
 25 26  1  0  0  0  0
M  CHG  2  13  -1  18  -1
M  END
>  <CHROM.1>
-74.84585982,6.48519334,-120.77383588,-73.76886695,-94.90458250,43.59915114
165.27279145,44.85177232,23.05561964,38.23497520,67.51857639,2.42963523,-0.22319114
-0.51078734

>  <Name>
ligand

>  <RI>
0

>  <Rbt.Current_Directory>
/home/itssahil/PROJECTS/Mol_Feturizer/New_Systems/rnas/2HOJ

>  <Rbt.Executable>
rbdock ($Id: //depot/dev/client3/rdock/2013.1/src/exe/rbdock.cxx#4 $)

>  <Rbt.Library>
libRbt.so (2013.1, Build901 2013/11/27)

>  <Rbt.Parameter_File>
/export/apps/rDock/src/rDock_2013.1_src/data/scripts/dock_solv.prm

>  <Rbt.Receptor>
prm/pocket_docking_7.prm

>  <SCORE>
-19.8634

>  <SCORE.INTER>
-18.6602

>  <SCORE.INTER.CONST>
1

>  <SCORE.INTER.POLAR>
0

>  <SCORE.INTER.ROT>
8

>  <SCORE.INTER.SOLV>
22.1104

>  <SCORE.INTER.VDW>
-28.7436

>  <SCORE.INTER.norm>
-0.717699

>  <SCORE.INTRA>
-1.20329

>  <SCORE.INTRA.DIHEDRAL>
-3.87118

>  <SCORE.INTRA.DIHEDRAL.0>
11.6398

>  <SCORE.INTRA.POLAR>
0

>  <SCORE.INTRA.POLAR.0>
0

>  <SCORE.INTRA.REPUL>
0

>  <SCORE.INTRA.REPUL.0>
0

>  <SCORE.INTRA.SOLV>
3.70408

>  <SCORE.INTRA.SOLV.lig_0>
-81.722

>  <SCORE.INTRA.VDW>
-1.11974

>  <SCORE.INTRA.VDW.0>
1.12598

>  <SCORE.INTRA.norm>
-0.0462802

>  <SCORE.RESTR>
0

>  <SCORE.RESTR.CAVITY>
0

>  <SCORE.RESTR.norm>
0

>  <SCORE.SYSTEM>
0

>  <SCORE.SYSTEM.CONST>
0

>  <SCORE.SYSTEM.DIHEDRAL>
0

>  <SCORE.SYSTEM.SOLV>
0

>  <SCORE.SYSTEM.norm>
0

>  <SCORE.heavy>
26

>  <SCORE.norm>
-0.763979

>  <RMSD>
3.894

$$$$
ligand
 OpenBabel11021811433D
libRbt.so/2013.1/901 2013/11/27
 26 27  0  0  0  0  0  0  0  0999 V2000
   17.1826   40.1822   64.8852 C   0  0  0  0  0  0  0  0  0  0  0  0
   24.2914   43.2445   67.3940 C   0  0  0  0  0  0  0  0  0  0  0  0
   26.9009   40.6266   65.1800 P   0  0  1  0  0  0  0  0  0  0  0  0
   27.0988   38.1134   65.7558 P   0  0  1  0  0  0  0  0  0  0  0  0
   21.5084   43.1884   67.0459 C   0  0  0  0  0  0  0  0  0  0  0  0
   20.4367   41.0192   66.3691 C   0  0  0  0  0  0  0  0  0  0  0  0
   20.3626   42.3939   66.4737 C   0  0  0  0  0  0  0  0  0  0  0  0
   19.1992   43.0294   66.0363 C   0  0  0  0  0  0  0  0  0  0  0  0
   19.0754   44.4082   66.1194 N   0  0  0  0  0  0  0  0  0  0  0  0
   18.2129   42.2932   65.5330 N   0  0  0  0  0  0  0  0  0  0  0  0
   18.3238   40.9829   65.4560 C   0  0  0  0  0  0  0  0  0  0  0  0
   19.4093   40.3525   65.8602 N   0  0  0  0  0  0  0  0  0  0  0  0
   28.2815   40.7468   64.6593 O   0  5  0  0  0  0  0  0  0  0  0  0
   25.8415   37.7064   64.9559 O   0  0  0  0  0  0  0  0  0  0  0  0
   23.1528   44.5774   63.8913 S   0  0  0  0  0  0  0  0  0  0  0  0
   21.7825   44.0980   64.8451 C   0  0  0  0  0  0  0  0  0  0  0  0
   25.9272   40.1123   64.0073 O   0  0  0  0  0  0  0  0  0  0  0  0
   28.3738   38.1457   64.7743 O   0  5  0  0  0  0  0  0  0  0  0  0
   22.3496   43.6874   65.9559 N   0  0  0  0  0  0  0  0  0  0  0  0
   26.8773   39.5735   66.3982 O   0  0  0  0  0  0  0  0  0  0  0  0
   27.3443   37.0871   66.8847 O   0  0  0  0  0  0  0  0  0  0  0  0
   23.6552   43.7183   66.1116 C   0  0  2  0  0  0  0  0  0  0  0  0
   24.4182   44.1796   65.0882 C   0  0  2  0  0  0  0  0  0  0  0  0
   25.9147   44.3206   64.9902 C   0  0  0  0  0  0  0  0  0  0  0  0
   26.5326   42.9727   64.6113 C   0  0  0  0  0  0  0  0  0  0  0  0
   26.3975   42.0632   65.7051 O   0  0  0  0  0  0  0  0  0  0  0  0
  1 11  1  0  0  0  0
  3 13  1  6  0  0  0
  3 17  2  0  0  0  0
  3 20  1  0  0  0  0
  3 26  1  0  0  0  0
  4 14  1  6  0  0  0
  4 18  1  0  0  0  0
  4 21  2  0  0  0  0
  4 20  1  0  0  0  0
  5 19  1  0  0  0  0
  5  7  1  0  0  0  0
  6  7  2  0  0  0  0
  6 12  1  0  0  0  0
  7  8  1  0  0  0  0
  8  9  1  0  0  0  0
  8 10  2  0  0  0  0
 10 11  1  0  0  0  0
 11 12  2  0  0  0  0
 15 23  1  0  0  0  0
 15 16  1  0  0  0  0
 16 19  1  0  0  0  0
 19 22  1  0  0  0  0
 22  2  1  6  0  0  0
 22 23  1  0  0  0  0
 23 24  1  1  0  0  0
 24 25  1  0  0  0  0
 25 26  1  0  0  0  0
M  CHG  2  13  -1  18  -1
M  END
>  <CHROM.1>
-71.18245366,38.08125157,95.73976087,-70.32226684,-98.10844396,-69.25723317
173.27323452,55.94174139,23.87840202,41.47504020,65.48337870,2.73382983,0.07969904
-0.10649425

>  <Name>
ligand

>  <RI>
0

>  <Rbt.Current_Directory>
/home/itssahil/PROJECTS/Mol_Feturizer/New_Systems/rnas/2HOJ

>  <Rbt.Executable>
rbdock ($Id: //depot/dev/client3/rdock/2013.1/src/exe/rbdock.cxx#4 $)

>  <Rbt.Library>
libRbt.so (2013.1, Build901 2013/11/27)

>  <Rbt.Parameter_File>
/export/apps/rDock/src/rDock_2013.1_src/data/scripts/dock_solv.prm

>  <Rbt.Receptor>
prm/pocket_docking_6.prm

>  <SCORE>
-19.9505

>  <SCORE.INTER>
-15.8097

>  <SCORE.INTER.CONST>
1

>  <SCORE.INTER.POLAR>
0

>  <SCORE.INTER.ROT>
8

>  <SCORE.INTER.SOLV>
23.8231

>  <SCORE.INTER.VDW>
-27.4142

>  <SCORE.INTER.norm>
-0.608065

>  <SCORE.INTRA>
-4.1408

>  <SCORE.INTRA.DIHEDRAL>
-5.96218

>  <SCORE.INTRA.DIHEDRAL.0>
11.6398

>  <SCORE.INTRA.POLAR>
0

>  <SCORE.INTRA.POLAR.0>
0

>  <SCORE.INTRA.REPUL>
0

>  <SCORE.INTRA.REPUL.0>
0

>  <SCORE.INTRA.SOLV>
3.0758

>  <SCORE.INTRA.SOLV.lig_0>
-81.722

>  <SCORE.INTRA.VDW>
-2.69761

>  <SCORE.INTRA.VDW.0>
1.12598

>  <SCORE.INTRA.norm>
-0.159262

>  <SCORE.RESTR>
0

>  <SCORE.RESTR.CAVITY>
0

>  <SCORE.RESTR.norm>
0

>  <SCORE.SYSTEM>
0

>  <SCORE.SYSTEM.CONST>
0

>  <SCORE.SYSTEM.DIHEDRAL>
0

>  <SCORE.SYSTEM.SOLV>
0

>  <SCORE.SYSTEM.norm>
0

>  <SCORE.heavy>
26

>  <SCORE.norm>
-0.767327

>  <RMSD>
3.896

$$$$
ligand
 OpenBabel11021811433D
libRbt.so/2013.1/901 2013/11/27
 26 27  0  0  0  0  0  0  0  0999 V2000
   23.0083   46.0427   66.3489 C   0  0  0  0  0  0  0  0  0  0  0  0
   23.3500   37.9997   66.2227 C   0  0  0  0  0  0  0  0  0  0  0  0
   27.0564   37.4258   68.9608 P   0  0  1  0  0  0  0  0  0  0  0  0
   27.9911   39.5802   67.8783 P   0  0  1  0  0  0  0  0  0  0  0  0
   22.0342   40.4529   65.8761 C   0  0  0  0  0  0  0  0  0  0  0  0
   21.2623   42.8121   66.2635 C   0  0  0  0  0  0  0  0  0  0  0  0
   22.2934   41.9322   66.0009 C   0  0  0  0  0  0  0  0  0  0  0  0
   23.5824   42.4476   65.8544 C   0  0  0  0  0  0  0  0  0  0  0  0
   24.6522   41.6058   65.5894 N   0  0  0  0  0  0  0  0  0  0  0  0
   23.7688   43.7595   65.9668 N   0  0  0  0  0  0  0  0  0  0  0  0
   22.7567   44.5628   66.2227 C   0  0  0  0  0  0  0  0  0  0  0  0
   21.5274   44.1076   66.3664 N   0  0  0  0  0  0  0  0  0  0  0  0
   27.3393   35.9930   69.2028 O   0  5  0  0  0  0  0  0  0  0  0  0
   28.9218   40.0512   69.0177 O   0  0  0  0  0  0  0  0  0  0  0  0
   21.7447   39.3635   69.5250 S   0  0  0  0  0  0  0  0  0  0  0  0
   21.4521   40.4497   68.2015 C   0  0  0  0  0  0  0  0  0  0  0  0
   27.3226   38.2613   70.3095 O   0  0  0  0  0  0  0  0  0  0  0  0
   28.4929   40.2030   66.4817 O   0  5  0  0  0  0  0  0  0  0  0  0
   22.0525   39.8396   67.2059 N   0  0  0  0  0  0  0  0  0  0  0  0
   28.0196   37.9723   67.7915 O   0  0  0  0  0  0  0  0  0  0  0  0
   26.5483   40.0540   68.1642 O   0  0  0  0  0  0  0  0  0  0  0  0
   22.6661   38.6888   67.3765 C   0  0  2  0  0  0  0  0  0  0  0  0
   22.6765   38.1387   68.6174 C   0  0  2  0  0  0  0  0  0  0  0  0
   23.2971   36.8522   69.0953 C   0  0  0  0  0  0  0  0  0  0  0  0
   24.7178   37.1235   69.5955 C   0  0  0  0  0  0  0  0  0  0  0  0
   25.5195   37.6023   68.5138 O   0  0  0  0  0  0  0  0  0  0  0  0
  1 11  1  0  0  0  0
  3 13  1  1  0  0  0
  3 17  2  0  0  0  0
  3 20  1  0  0  0  0
  3 26  1  0  0  0  0
  4 14  1  1  0  0  0
  4 18  1  0  0  0  0
  4 21  2  0  0  0  0
  4 20  1  0  0  0  0
  5 19  1  0  0  0  0
  5  7  1  0  0  0  0
  6  7  2  0  0  0  0
  6 12  1  0  0  0  0
  7  8  1  0  0  0  0
  8  9  1  0  0  0  0
  8 10  2  0  0  0  0
 10 11  1  0  0  0  0
 11 12  2  0  0  0  0
 15 23  1  0  0  0  0
 15 16  1  0  0  0  0
 16 19  1  0  0  0  0
 19 22  1  0  0  0  0
 22  2  1  1  0  0  0
 22 23  1  0  0  0  0
 23 24  1  6  0  0  0
 24 25  1  0  0  0  0
 25 26  1  0  0  0  0
M  CHG  2  13  -1  18  -1
M  END
>  <CHROM.1>
-163.30157171,42.84704707,-85.21208349,79.26338054,-88.62360673,-62.76611323
-162.53481663,61.02348255,24.69022624,39.88189500,67.76355197,-2.29185784
-0.00354294,2.70489360

>  <Name>
ligand

>  <RI>
0

>  <Rbt.Current_Directory>
/home/itssahil/PROJECTS/Mol_Feturizer/New_Systems/rnas/2HOJ

>  <Rbt.Executable>
rbdock ($Id: //depot/dev/client3/rdock/2013.1/src/exe/rbdock.cxx#4 $)

>  <Rbt.Library>
libRbt.so (2013.1, Build901 2013/11/27)

>  <Rbt.Parameter_File>
/export/apps/rDock/src/rDock_2013.1_src/data/scripts/dock_solv.prm

>  <Rbt.Receptor>
prm/pocket_docking_5.prm

>  <SCORE>
-13.5531

>  <SCORE.INTER>
-10.0487

>  <SCORE.INTER.CONST>
1

>  <SCORE.INTER.POLAR>
-1.00262

>  <SCORE.INTER.ROT>
8

>  <SCORE.INTER.SOLV>
13.3418

>  <SCORE.INTER.VDW>
-16.7376

>  <SCORE.INTER.norm>
-0.386488

>  <SCORE.INTRA>
-3.50445

>  <SCORE.INTRA.DIHEDRAL>
-4.32321

>  <SCORE.INTRA.DIHEDRAL.0>
11.6398

>  <SCORE.INTRA.POLAR>
0

>  <SCORE.INTRA.POLAR.0>
0

>  <SCORE.INTRA.REPUL>
0

>  <SCORE.INTRA.REPUL.0>
0

>  <SCORE.INTRA.SOLV>
4.5427

>  <SCORE.INTRA.SOLV.lig_0>
-81.722

>  <SCORE.INTRA.VDW>
-3.61419

>  <SCORE.INTRA.VDW.0>
1.12598

>  <SCORE.INTRA.norm>
-0.134787

>  <SCORE.RESTR>
0

>  <SCORE.RESTR.CAVITY>
0

>  <SCORE.RESTR.norm>
0

>  <SCORE.SYSTEM>
0

>  <SCORE.SYSTEM.CONST>
0

>  <SCORE.SYSTEM.DIHEDRAL>
0

>  <SCORE.SYSTEM.SOLV>
0

>  <SCORE.SYSTEM.norm>
0

>  <SCORE.heavy>
26

>  <SCORE.norm>
-0.521274

>  <RMSD>
3.945

$$$$
ligand
 OpenBabel11021811433D
libRbt.so/2013.1/901 2013/11/27
 26 27  0  0  0  0  0  0  0  0999 V2000
   21.1144   44.8103   66.3445 C   0  0  0  0  0  0  0  0  0  0  0  0
   21.3300   38.7411   68.8092 C   0  0  0  0  0  0  0  0  0  0  0  0
   26.3000   40.0312   67.8931 P   0  0  1  0  0  0  0  0  0  0  0  0
   25.0445   42.2520   68.3157 P   0  0  1  0  0  0  0  0  0  0  0  0
   19.8840   39.2523   66.4603 C   0  0  0  0  0  0  0  0  0  0  0  0
   21.3130   41.2196   67.0924 C   0  0  0  0  0  0  0  0  0  0  0  0
   20.2084   40.7237   66.4289 C   0  0  0  0  0  0  0  0  0  0  0  0
   19.3998   41.6199   65.7277 C   0  0  0  0  0  0  0  0  0  0  0  0
   18.2785   41.1722   65.0453 N   0  0  0  0  0  0  0  0  0  0  0  0
   19.7174   42.9112   65.7286 N   0  0  0  0  0  0  0  0  0  0  0  0
   20.7838   43.3408   66.3715 C   0  0  0  0  0  0  0  0  0  0  0  0
   21.5677   42.5203   67.0432 N   0  0  0  0  0  0  0  0  0  0  0  0
   27.1440   39.2583   66.9540 O   0  5  0  0  0  0  0  0  0  0  0  0
   23.7720   41.4055   68.5403 O   0  0  0  0  0  0  0  0  0  0  0  0
   22.9944   37.2043   65.6139 S   0  0  0  0  0  0  0  0  0  0  0  0
   21.5286   38.0419   65.2049 C   0  0  0  0  0  0  0  0  0  0  0  0
   27.0602   40.1772   69.3032 O   0  0  0  0  0  0  0  0  0  0  0  0
   25.8070   42.4595   69.7178 O   0  5  0  0  0  0  0  0  0  0  0  0
   21.1234   38.4766   66.3756 N   0  0  0  0  0  0  0  0  0  0  0  0
   26.0182   41.4939   67.2809 O   0  0  0  0  0  0  0  0  0  0  0  0
   24.6502   43.6290   67.7358 O   0  0  0  0  0  0  0  0  0  0  0  0
   21.8079   38.2338   67.4721 C   0  0  2  0  0  0  0  0  0  0  0  0
   22.9514   37.5090   67.3738 C   0  0  2  0  0  0  0  0  0  0  0  0
   23.9171   37.0835   68.4486 C   0  0  0  0  0  0  0  0  0  0  0  0
   25.2137   37.8861   68.3193 C   0  0  0  0  0  0  0  0  0  0  0  0
   24.9009   39.2652   68.1136 O   0  0  0  0  0  0  0  0  0  0  0  0
  1 11  1  0  0  0  0
  3 13  1  6  0  0  0
  3 17  2  0  0  0  0
  3 20  1  0  0  0  0
  3 26  1  0  0  0  0
  4 14  1  1  0  0  0
  4 18  1  0  0  0  0
  4 21  2  0  0  0  0
  4 20  1  0  0  0  0
  5 19  1  0  0  0  0
  5  7  1  0  0  0  0
  6  7  2  0  0  0  0
  6 12  1  0  0  0  0
  7  8  1  0  0  0  0
  8  9  1  0  0  0  0
  8 10  2  0  0  0  0
 10 11  1  0  0  0  0
 11 12  2  0  0  0  0
 15 23  1  0  0  0  0
 15 16  1  0  0  0  0
 16 19  1  0  0  0  0
 19 22  1  0  0  0  0
 22  2  1  1  0  0  0
 22 23  1  0  0  0  0
 23 24  1  6  0  0  0
 24 25  1  0  0  0  0
 25 26  1  0  0  0  0
M  CHG  2  13  -1  18  -1
M  END
>  <CHROM.1>
177.45982132,-95.25203618,-38.85890705,-55.96065731,71.64639637,45.10929453
-176.46549820,45.39615163,23.21770651,40.37270202,67.28115924,-3.03037384
0.36835399,-3.04414550

>  <Name>
ligand

>  <RI>
0

>  <Rbt.Current_Directory>
/home/itssahil/PROJECTS/Mol_Feturizer/New_Systems/rnas/2HOJ

>  <Rbt.Executable>
rbdock ($Id: //depot/dev/client3/rdock/2013.1/src/exe/rbdock.cxx#4 $)

>  <Rbt.Library>
libRbt.so (2013.1, Build901 2013/11/27)

>  <Rbt.Parameter_File>
/export/apps/rDock/src/rDock_2013.1_src/data/scripts/dock_solv.prm

>  <Rbt.Receptor>
prm/pocket_docking_6.prm

>  <SCORE>
-20.4998

>  <SCORE.INTER>
-14.2316

>  <SCORE.INTER.CONST>
1

>  <SCORE.INTER.POLAR>
0

>  <SCORE.INTER.ROT>
8

>  <SCORE.INTER.SOLV>
25.7638

>  <SCORE.INTER.VDW>
-27.009

>  <SCORE.INTER.norm>
-0.547367

>  <SCORE.INTRA>
-6.26827

>  <SCORE.INTRA.DIHEDRAL>
-5.31298

>  <SCORE.INTRA.DIHEDRAL.0>
11.6398

>  <SCORE.INTRA.POLAR>
0

>  <SCORE.INTRA.POLAR.0>
0

>  <SCORE.INTRA.REPUL>
0

>  <SCORE.INTRA.REPUL.0>
0

>  <SCORE.INTRA.SOLV>
0.217601

>  <SCORE.INTRA.SOLV.lig_0>
-81.722

>  <SCORE.INTRA.VDW>
-3.72058

>  <SCORE.INTRA.VDW.0>
1.12598

>  <SCORE.INTRA.norm>
-0.241087

>  <SCORE.RESTR>
0

>  <SCORE.RESTR.CAVITY>
0

>  <SCORE.RESTR.norm>
0

>  <SCORE.SYSTEM>
0

>  <SCORE.SYSTEM.CONST>
0

>  <SCORE.SYSTEM.DIHEDRAL>
0

>  <SCORE.SYSTEM.SOLV>
0

>  <SCORE.SYSTEM.norm>
0

>  <SCORE.heavy>
26

>  <SCORE.norm>
-0.788455

>  <RMSD>
4.029

$$$$
ligand
 OpenBabel11021811433D
libRbt.so/2013.1/901 2013/11/27
 26 27  0  0  0  0  0  0  0  0999 V2000
   24.3796   45.0402   63.4492 C   0  0  0  0  0  0  0  0  0  0  0  0
   22.0398   40.3043   68.8947 C   0  0  0  0  0  0  0  0  0  0  0  0
   25.5705   38.1009   67.9845 P   0  0  1  0  0  0  0  0  0  0  0  0
   27.9220   39.1742   68.0583 P   0  0  1  0  0  0  0  0  0  0  0  0
   21.0499   42.2406   67.1226 C   0  0  0  0  0  0  0  0  0  0  0  0
   23.0617   42.3907   65.6253 C   0  0  0  0  0  0  0  0  0  0  0  0
   21.9304   42.9828   66.1504 C   0  0  0  0  0  0  0  0  0  0  0  0
   21.6225   44.2865   65.7577 C   0  0  0  0  0  0  0  0  0  0  0  0
   20.4976   44.9260   66.2568 N   0  0  0  0  0  0  0  0  0  0  0  0
   22.4276   44.9091   64.9017 N   0  0  0  0  0  0  0  0  0  0  0  0
   23.4948   44.3046   64.4214 C   0  0  0  0  0  0  0  0  0  0  0  0
   23.8134   43.0740   64.7725 N   0  0  0  0  0  0  0  0  0  0  0  0
   25.7770   38.0362   66.5200 O   0  5  0  0  0  0  0  0  0  0  0  0
   28.8396   40.1655   68.8078 O   0  0  0  0  0  0  0  0  0  0  0  0
   20.6026   38.7717   65.5890 S   0  0  0  0  0  0  0  0  0  0  0  0
   20.4625   40.5031   65.5792 C   0  0  0  0  0  0  0  0  0  0  0  0
   26.0707   36.7287   68.6588 O   0  0  0  0  0  0  0  0  0  0  0  0
   28.4278   37.6691   68.3210 O   0  5  0  0  0  0  0  0  0  0  0  0
   20.9818   40.8284   66.7404 N   0  0  0  0  0  0  0  0  0  0  0  0
   26.4104   39.3344   68.5902 O   0  0  0  0  0  0  0  0  0  0  0  0
   27.9684   39.4756   66.5434 O   0  0  0  0  0  0  0  0  0  0  0  0
   21.4450   39.9145   67.5650 C   0  0  2  0  0  0  0  0  0  0  0  0
   21.3686   38.6108   67.1951 C   0  0  2  0  0  0  0  0  0  0  0  0
   21.8101   37.3733   67.9316 C   0  0  0  0  0  0  0  0  0  0  0  0
   23.3187   37.1840   67.7571 C   0  0  0  0  0  0  0  0  0  0  0  0
   24.0055   38.3144   68.2979 O   0  0  0  0  0  0  0  0  0  0  0  0
  1 11  1  0  0  0  0
  3 13  1  6  0  0  0
  3 17  2  0  0  0  0
  3 20  1  0  0  0  0
  3 26  1  0  0  0  0
  4 14  1  1  0  0  0
  4 18  1  0  0  0  0
  4 21  2  0  0  0  0
  4 20  1  0  0  0  0
  5 19  1  0  0  0  0
  5  7  1  0  0  0  0
  6  7  2  0  0  0  0
  6 12  1  0  0  0  0
  7  8  1  0  0  0  0
  8  9  1  0  0  0  0
  8 10  2  0  0  0  0
 10 11  1  0  0  0  0
 11 12  2  0  0  0  0
 15 23  1  0  0  0  0
 15 16  1  0  0  0  0
 16 19  1  0  0  0  0
 19 22  1  0  0  0  0
 22  2  1  1  0  0  0
 22 23  1  0  0  0  0
 23 24  1  6  0  0  0
 24 25  1  0  0  0  0
 25 26  1  0  0  0  0
M  CHG  2  13  -1  18  -1
M  END
>  <CHROM.1>
-51.80468780,-62.47183209,-37.05687843,-169.46934549,99.30788436,60.66010645
-175.90762307,60.94678415,23.94327201,40.22886143,66.93111191,-2.35060133
0.10697927,2.74659171

>  <Name>
ligand

>  <RI>
0

>  <Rbt.Current_Directory>
/home/itssahil/PROJECTS/Mol_Feturizer/New_Systems/rnas/2HOJ

>  <Rbt.Executable>
rbdock ($Id: //depot/dev/client3/rdock/2013.1/src/exe/rbdock.cxx#4 $)

>  <Rbt.Library>
libRbt.so (2013.1, Build901 2013/11/27)

>  <Rbt.Parameter_File>
/export/apps/rDock/src/rDock_2013.1_src/data/scripts/dock_solv.prm

>  <Rbt.Receptor>
prm/pocket_docking_7.prm

>  <SCORE>
-12.1029

>  <SCORE.INTER>
-7.82841

>  <SCORE.INTER.CONST>
1

>  <SCORE.INTER.POLAR>
-1.00657

>  <SCORE.INTER.ROT>
8

>  <SCORE.INTER.SOLV>
21.4376

>  <SCORE.INTER.VDW>
-17.9429

>  <SCORE.INTER.norm>
-0.301093

>  <SCORE.INTRA>
-4.27448

>  <SCORE.INTRA.DIHEDRAL>
-6.55658

>  <SCORE.INTRA.DIHEDRAL.0>
11.6398

>  <SCORE.INTRA.POLAR>
0

>  <SCORE.INTRA.POLAR.0>
0

>  <SCORE.INTRA.REPUL>
0

>  <SCORE.INTRA.REPUL.0>
0

>  <SCORE.INTRA.SOLV>
3.33625

>  <SCORE.INTRA.SOLV.lig_0>
-81.722

>  <SCORE.INTRA.VDW>
-2.66432

>  <SCORE.INTRA.VDW.0>
1.12598

>  <SCORE.INTRA.norm>
-0.164403

>  <SCORE.RESTR>
0

>  <SCORE.RESTR.CAVITY>
0

>  <SCORE.RESTR.norm>
0

>  <SCORE.SYSTEM>
0

>  <SCORE.SYSTEM.CONST>
0

>  <SCORE.SYSTEM.DIHEDRAL>
0

>  <SCORE.SYSTEM.SOLV>
0

>  <SCORE.SYSTEM.norm>
0

>  <SCORE.heavy>
26

>  <SCORE.norm>
-0.465496

>  <RMSD>
4.060

$$$$
ligand
 OpenBabel11021811433D
libRbt.so/2013.1/901 2013/11/27
 26 27  0  0  0  0  0  0  0  0999 V2000
   22.1251   36.4788   65.6267 C   0  0  0  0  0  0  0  0  0  0  0  0
   26.4310   41.2681   64.0988 C   0  0  0  0  0  0  0  0  0  0  0  0
   29.4525   38.6293   68.2219 P   0  0  1  0  0  0  0  0  0  0  0  0
   26.9957   38.0549   68.7884 P   0  0  1  0  0  0  0  0  0  0  0  0
   24.0213   41.8433   65.4149 C   0  0  0  0  0  0  0  0  0  0  0  0
   24.3745   39.3603   65.2673 C   0  0  0  0  0  0  0  0  0  0  0  0
   23.5180   40.4239   65.4712 C   0  0  0  0  0  0  0  0  0  0  0  0
   22.1739   40.1510   65.7312 C   0  0  0  0  0  0  0  0  0  0  0  0
   21.2730   41.1841   65.9424 N   0  0  0  0  0  0  0  0  0  0  0  0
   21.7684   38.8851   65.7675 N   0  0  0  0  0  0  0  0  0  0  0  0
   22.6209   37.9003   65.5719 C   0  0  0  0  0  0  0  0  0  0  0  0
   23.8966   38.1244   65.3239 N   0  0  0  0  0  0  0  0  0  0  0  0
   30.8250   38.2891   68.6602 O   0  5  0  0  0  0  0  0  0  0  0  0
   27.0610   36.6736   68.0998 O   0  0  0  0  0  0  0  0  0  0  0  0
   26.9312   42.2808   67.8493 S   0  0  0  0  0  0  0  0  0  0  0  0
   25.2474   42.3019   67.4230 C   0  0  0  0  0  0  0  0  0  0  0  0
   29.0353   37.6897   66.9846 O   0  0  0  0  0  0  0  0  0  0  0  0
   25.8713   38.0294   69.9396 O   0  5  0  0  0  0  0  0  0  0  0  0
   25.2782   41.9461   66.1595 N   0  0  0  0  0  0  0  0  0  0  0  0
   28.4272   38.3974   69.4420 O   0  0  0  0  0  0  0  0  0  0  0  0
   26.6367   39.1343   67.7424 O   0  0  0  0  0  0  0  0  0  0  0  0
   26.4122   41.6768   65.5501 C   0  0  2  0  0  0  0  0  0  0  0  0
   27.5670   41.7825   66.2557 C   0  0  2  0  0  0  0  0  0  0  0  0
   28.9882   41.5425   65.8183 C   0  0  0  0  0  0  0  0  0  0  0  0
   29.4619   40.1834   66.3383 C   0  0  0  0  0  0  0  0  0  0  0  0
   29.4008   40.1728   67.7659 O   0  0  0  0  0  0  0  0  0  0  0  0
  1 11  1  0  0  0  0
  3 13  1  1  0  0  0
  3 17  2  0  0  0  0
  3 20  1  0  0  0  0
  3 26  1  0  0  0  0
  4 14  1  6  0  0  0
  4 18  1  0  0  0  0
  4 21  2  0  0  0  0
  4 20  1  0  0  0  0
  5 19  1  0  0  0  0
  5  7  1  0  0  0  0
  6  7  2  0  0  0  0
  6 12  1  0  0  0  0
  7  8  1  0  0  0  0
  8  9  1  0  0  0  0
  8 10  2  0  0  0  0
 10 11  1  0  0  0  0
 11 12  2  0  0  0  0
 15 23  1  0  0  0  0
 15 16  1  0  0  0  0
 16 19  1  0  0  0  0
 19 22  1  0  0  0  0
 22  2  1  6  0  0  0
 22 23  1  0  0  0  0
 23 24  1  1  0  0  0
 24 25  1  0  0  0  0
 25 26  1  0  0  0  0
M  CHG  2  13  -1  18  -1
M  END
>  <CHROM.1>
-152.28367587,-93.38315595,-44.78238611,68.39440352,77.30500284,-60.26427943
162.56556376,100.31080069,26.32633424,39.63167885,67.00500465,2.89008366
-0.31683002,-0.38311129

>  <Name>
ligand

>  <RI>
0

>  <Rbt.Current_Directory>
/home/itssahil/PROJECTS/Mol_Feturizer/New_Systems/rnas/2HOJ

>  <Rbt.Executable>
rbdock ($Id: //depot/dev/client3/rdock/2013.1/src/exe/rbdock.cxx#4 $)

>  <Rbt.Library>
libRbt.so (2013.1, Build901 2013/11/27)

>  <Rbt.Parameter_File>
/export/apps/rDock/src/rDock_2013.1_src/data/scripts/dock_solv.prm

>  <Rbt.Receptor>
prm/pocket_docking_4.prm

>  <SCORE>
-10.3157

>  <SCORE.INTER>
-7.73713

>  <SCORE.INTER.CONST>
1

>  <SCORE.INTER.POLAR>
-2.53268

>  <SCORE.INTER.ROT>
8

>  <SCORE.INTER.SOLV>
22.435

>  <SCORE.INTER.VDW>
-13.1275

>  <SCORE.INTER.norm>
-0.297582

>  <SCORE.INTRA>
-2.57856

>  <SCORE.INTRA.DIHEDRAL>
-2.22257

>  <SCORE.INTRA.DIHEDRAL.0>
11.6398

>  <SCORE.INTRA.POLAR>
0

>  <SCORE.INTRA.POLAR.0>
0

>  <SCORE.INTRA.REPUL>
0

>  <SCORE.INTRA.REPUL.0>
0

>  <SCORE.INTRA.SOLV>
3.27848

>  <SCORE.INTRA.SOLV.lig_0>
-81.722

>  <SCORE.INTRA.VDW>
-3.10651

>  <SCORE.INTRA.VDW.0>
1.12598

>  <SCORE.INTRA.norm>
-0.0991753

>  <SCORE.RESTR>
0

>  <SCORE.RESTR.CAVITY>
0

>  <SCORE.RESTR.norm>
0

>  <SCORE.SYSTEM>
0

>  <SCORE.SYSTEM.CONST>
0

>  <SCORE.SYSTEM.DIHEDRAL>
0

>  <SCORE.SYSTEM.SOLV>
0

>  <SCORE.SYSTEM.norm>
0

>  <SCORE.heavy>
26

>  <SCORE.norm>
-0.396757

>  <RMSD>
4.069

$$$$
ligand
 OpenBabel11021811433D
libRbt.so/2013.1/901 2013/11/27
 26 27  0  0  0  0  0  0  0  0999 V2000
   19.7084   43.8431   65.9254 C   0  0  0  0  0  0  0  0  0  0  0  0
   22.4462   38.1014   64.9996 C   0  0  0  0  0  0  0  0  0  0  0  0
   26.6786   41.3997   65.1574 P   0  0  1  0  0  0  0  0  0  0  0  0
   27.3785   42.7216   63.0480 P   0  0  1  0  0  0  0  0  0  0  0  0
   20.8768   38.4427   67.2996 C   0  0  0  0  0  0  0  0  0  0  0  0
   21.3490   40.9080   67.4038 C   0  0  0  0  0  0  0  0  0  0  0  0
   20.5663   39.8717   66.9352 C   0  0  0  0  0  0  0  0  0  0  0  0
   19.4802   40.1811   66.1147 C   0  0  0  0  0  0  0  0  0  0  0  0
   18.6630   39.1764   65.6185 N   0  0  0  0  0  0  0  0  0  0  0  0
   19.2368   41.4548   65.8204 N   0  0  0  0  0  0  0  0  0  0  0  0
   20.0125   42.4123   66.2856 C   0  0  0  0  0  0  0  0  0  0  0  0
   21.0459   42.1535   67.0629 N   0  0  0  0  0  0  0  0  0  0  0  0
   27.6339   42.1983   65.9581 O   0  5  0  0  0  0  0  0  0  0  0  0
   25.9953   43.4094   63.0504 O   0  0  0  0  0  0  0  0  0  0  0  0
   24.5414   38.0714   68.3088 S   0  0  0  0  0  0  0  0  0  0  0  0
   22.8526   38.2942   68.6489 C   0  0  0  0  0  0  0  0  0  0  0  0
   25.2544   42.1467   65.1182 O   0  0  0  0  0  0  0  0  0  0  0  0
   28.4064   43.5772   63.9433 O   0  5  0  0  0  0  0  0  0  0  0  0
   22.3248   38.2794   67.4468 N   0  0  0  0  0  0  0  0  0  0  0  0
   27.2412   41.2371   63.6572 O   0  0  0  0  0  0  0  0  0  0  0  0
   27.9071   42.6354   61.5984 O   0  0  0  0  0  0  0  0  0  0  0  0
   23.0675   38.1175   66.3734 C   0  0  2  0  0  0  0  0  0  0  0  0
   24.4080   37.9727   66.5299 C   0  0  2  0  0  0  0  0  0  0  0  0
   25.4832   37.7788   65.4931 C   0  0  0  0  0  0  0  0  0  0  0  0
   25.8345   39.1275   64.8608 C   0  0  0  0  0  0  0  0  0  0  0  0
   26.5038   39.9442   65.8237 O   0  0  0  0  0  0  0  0  0  0  0  0
  1 11  1  0  0  0  0
  3 13  1  1  0  0  0
  3 17  2  0  0  0  0
  3 20  1  0  0  0  0
  3 26  1  0  0  0  0
  4 14  1  1  0  0  0
  4 18  1  0  0  0  0
  4 21  2  0  0  0  0
  4 20  1  0  0  0  0
  5 19  1  0  0  0  0
  5  7  1  0  0  0  0
  6  7  2  0  0  0  0
  6 12  1  0  0  0  0
  7  8  1  0  0  0  0
  8  9  1  0  0  0  0
  8 10  2  0  0  0  0
 10 11  1  0  0  0  0
 11 12  2  0  0  0  0
 15 23  1  0  0  0  0
 15 16  1  0  0  0  0
 16 19  1  0  0  0  0
 19 22  1  0  0  0  0
 22  2  1  6  0  0  0
 22 23  1  0  0  0  0
 23 24  1  1  0  0  0
 24 25  1  0  0  0  0
 25 26  1  0  0  0  0
M  CHG  2  13  -1  18  -1
M  END
>  <CHROM.1>
-60.54568429,99.13851470,-32.57072054,-59.67564865,-100.45410930,69.26858073
-173.12050486,-166.78879091,24.12723721,40.62200239,65.60004674,2.64337559
-0.20781424,2.61279666

>  <Name>
ligand

>  <RI>
0

>  <Rbt.Current_Directory>
/home/itssahil/PROJECTS/Mol_Feturizer/New_Systems/rnas/2HOJ

>  <Rbt.Executable>
rbdock ($Id: //depot/dev/client3/rdock/2013.1/src/exe/rbdock.cxx#4 $)

>  <Rbt.Library>
libRbt.so (2013.1, Build901 2013/11/27)

>  <Rbt.Parameter_File>
/export/apps/rDock/src/rDock_2013.1_src/data/scripts/dock_solv.prm

>  <Rbt.Receptor>
prm/pocket_docking_7.prm

>  <SCORE>
-15.7774

>  <SCORE.INTER>
-10.1669

>  <SCORE.INTER.CONST>
1

>  <SCORE.INTER.POLAR>
0

>  <SCORE.INTER.ROT>
8

>  <SCORE.INTER.SOLV>
15.806

>  <SCORE.INTER.VDW>
-20.9799

>  <SCORE.INTER.norm>
-0.391035

>  <SCORE.INTRA>
-5.61053

>  <SCORE.INTRA.DIHEDRAL>
-6.09537

>  <SCORE.INTRA.DIHEDRAL.0>
11.6398

>  <SCORE.INTRA.POLAR>
0

>  <SCORE.INTRA.POLAR.0>
0

>  <SCORE.INTRA.REPUL>
0

>  <SCORE.INTRA.REPUL.0>
0

>  <SCORE.INTRA.SOLV>
1.7354

>  <SCORE.INTRA.SOLV.lig_0>
-81.722

>  <SCORE.INTRA.VDW>
-3.43054

>  <SCORE.INTRA.VDW.0>
1.12598

>  <SCORE.INTRA.norm>
-0.21579

>  <SCORE.RESTR>
0

>  <SCORE.RESTR.CAVITY>
0

>  <SCORE.RESTR.norm>
0

>  <SCORE.SYSTEM>
0

>  <SCORE.SYSTEM.CONST>
0

>  <SCORE.SYSTEM.DIHEDRAL>
0

>  <SCORE.SYSTEM.SOLV>
0

>  <SCORE.SYSTEM.norm>
0

>  <SCORE.heavy>
26

>  <SCORE.norm>
-0.606825

>  <RMSD>
4.095

$$$$
ligand
 OpenBabel11021811433D
libRbt.so/2013.1/901 2013/11/27
 26 27  0  0  0  0  0  0  0  0999 V2000
   17.6328   40.2375   65.0530 C   0  0  0  0  0  0  0  0  0  0  0  0
   24.3414   42.6812   68.1260 C   0  0  0  0  0  0  0  0  0  0  0  0
   26.6157   38.9971   65.8285 P   0  0  1  0  0  0  0  0  0  0  0  0
   24.0913   38.4559   65.9744 P   0  0  1  0  0  0  0  0  0  0  0  0
   21.7974   43.4523   67.2300 C   0  0  0  0  0  0  0  0  0  0  0  0
   20.8029   41.2265   66.6228 C   0  0  0  0  0  0  0  0  0  0  0  0
   20.6943   42.6026   66.6534 C   0  0  0  0  0  0  0  0  0  0  0  0
   19.5366   43.1869   66.1369 C   0  0  0  0  0  0  0  0  0  0  0  0
   19.3792   44.5649   66.1437 N   0  0  0  0  0  0  0  0  0  0  0  0
   18.5885   42.4027   65.6325 N   0  0  0  0  0  0  0  0  0  0  0  0
   18.7313   41.0933   65.6277 C   0  0  0  0  0  0  0  0  0  0  0  0
   19.8125   40.5104   66.1075 N   0  0  0  0  0  0  0  0  0  0  0  0
   27.9197   38.8501   66.5139 O   0  5  0  0  0  0  0  0  0  0  0  0
   24.2091   37.1745   65.1198 O   0  0  0  0  0  0  0  0  0  0  0  0
   24.3014   43.7713   64.3641 S   0  0  0  0  0  0  0  0  0  0  0  0
   22.7144   43.8936   65.0597 C   0  0  0  0  0  0  0  0  0  0  0  0
   26.5554   37.9988   64.5685 O   0  0  0  0  0  0  0  0  0  0  0  0
   22.8168   38.3366   66.9499 O   0  5  0  0  0  0  0  0  0  0  0  0
   22.9223   43.4946   66.2931 N   0  0  0  0  0  0  0  0  0  0  0  0
   25.4274   38.6390   66.8548 O   0  0  0  0  0  0  0  0  0  0  0  0
   23.9160   39.6787   65.0459 O   0  0  0  0  0  0  0  0  0  0  0  0
   24.1185   43.1360   66.7057 C   0  0  2  0  0  0  0  0  0  0  0  0
   25.1474   43.1773   65.8213 C   0  0  2  0  0  0  0  0  0  0  0  0
   26.5988   42.8244   66.0154 C   0  0  0  0  0  0  0  0  0  0  0  0
   26.7175   41.3590   66.4403 C   0  0  0  0  0  0  0  0  0  0  0  0
   26.4438   40.5153   65.3199 O   0  0  0  0  0  0  0  0  0  0  0  0
  1 11  1  0  0  0  0
  3 13  1  1  0  0  0
  3 17  2  0  0  0  0
  3 20  1  0  0  0  0
  3 26  1  0  0  0  0
  4 14  1  6  0  0  0
  4 18  1  0  0  0  0
  4 21  2  0  0  0  0
  4 20  1  0  0  0  0
  5 19  1  0  0  0  0
  5  7  1  0  0  0  0
  6  7  2  0  0  0  0
  6 12  1  0  0  0  0
  7  8  1  0  0  0  0
  8  9  1  0  0  0  0
  8 10  2  0  0  0  0
 10 11  1  0  0  0  0
 11 12  2  0  0  0  0
 15 23  1  0  0  0  0
 15 16  1  0  0  0  0
 16 19  1  0  0  0  0
 19 22  1  0  0  0  0
 22  2  1  6  0  0  0
 22 23  1  0  0  0  0
 23 24  1  1  0  0  0
 24 25  1  0  0  0  0
 25 26  1  0  0  0  0
M  CHG  2  13  -1  18  -1
M  END
>  <CHROM.1>
-166.09837161,55.42766950,74.45252789,69.17703965,-120.47957936,73.07403030
178.85176211,-50.88328681,23.48762819,41.01796450,65.92062180,2.66565378
0.00370482,0.02288102

>  <Name>
ligand

>  <RI>
0

>  <Rbt.Current_Directory>
/home/itssahil/PROJECTS/Mol_Feturizer/New_Systems/rnas/2HOJ

>  <Rbt.Executable>
rbdock ($Id: //depot/dev/client3/rdock/2013.1/src/exe/rbdock.cxx#4 $)

>  <Rbt.Library>
libRbt.so (2013.1, Build901 2013/11/27)

>  <Rbt.Parameter_File>
/export/apps/rDock/src/rDock_2013.1_src/data/scripts/dock_solv.prm

>  <Rbt.Receptor>
prm/pocket_docking_6.prm

>  <SCORE>
-19.8912

>  <SCORE.INTER>
-14.1477

>  <SCORE.INTER.CONST>
1

>  <SCORE.INTER.POLAR>
0

>  <SCORE.INTER.ROT>
8

>  <SCORE.INTER.SOLV>
23.2056

>  <SCORE.INTER.VDW>
-26.1004

>  <SCORE.INTER.norm>
-0.544144

>  <SCORE.INTRA>
-5.74345

>  <SCORE.INTRA.DIHEDRAL>
-5.87722

>  <SCORE.INTRA.DIHEDRAL.0>
11.6398

>  <SCORE.INTRA.POLAR>
0

>  <SCORE.INTRA.POLAR.0>
0

>  <SCORE.INTRA.REPUL>
0

>  <SCORE.INTRA.REPUL.0>
0

>  <SCORE.INTRA.SOLV>
2.30635

>  <SCORE.INTRA.SOLV.lig_0>
-81.722

>  <SCORE.INTRA.VDW>
-3.95801

>  <SCORE.INTRA.VDW.0>
1.12598

>  <SCORE.INTRA.norm>
-0.220902

>  <SCORE.RESTR>
0

>  <SCORE.RESTR.CAVITY>
0

>  <SCORE.RESTR.norm>
0

>  <SCORE.SYSTEM>
0

>  <SCORE.SYSTEM.CONST>
0

>  <SCORE.SYSTEM.DIHEDRAL>
0

>  <SCORE.SYSTEM.SOLV>
0

>  <SCORE.SYSTEM.norm>
0

>  <SCORE.heavy>
26

>  <SCORE.norm>
-0.765046

>  <RMSD>
4.140

$$$$
ligand
 OpenBabel11021811433D
libRbt.so/2013.1/901 2013/11/27
 26 27  0  0  0  0  0  0  0  0999 V2000
   21.5802   34.7104   71.1034 C   0  0  0  0  0  0  0  0  0  0  0  0
   22.5251   39.0872   65.1072 C   0  0  0  0  0  0  0  0  0  0  0  0
   27.7392   39.0794   67.0117 P   0  0  1  0  0  0  0  0  0  0  0  0
   30.3227   39.1918   66.9990 P   0  0  1  0  0  0  0  0  0  0  0  0
   20.8362   38.9184   67.3407 C   0  0  0  0  0  0  0  0  0  0  0  0
   20.1134   37.5792   69.3397 C   0  0  0  0  0  0  0  0  0  0  0  0
   21.0345   37.8043   68.3360 C   0  0  0  0  0  0  0  0  0  0  0  0
   22.1539   36.9733   68.2663 C   0  0  0  0  0  0  0  0  0  0  0  0
   23.1085   37.1581   67.2773 N   0  0  0  0  0  0  0  0  0  0  0  0
   22.2948   36.0046   69.1664 N   0  0  0  0  0  0  0  0  0  0  0  0
   21.3888   35.8221   70.1050 C   0  0  0  0  0  0  0  0  0  0  0  0
   20.3206   36.5897   70.1983 N   0  0  0  0  0  0  0  0  0  0  0  0
   27.4925   37.8209   66.2720 O   0  5  0  0  0  0  0  0  0  0  0  0
   30.2614   37.6554   66.8511 O   0  0  0  0  0  0  0  0  0  0  0  0
   23.6294   41.4245   68.0499 S   0  0  0  0  0  0  0  0  0  0  0  0
   22.1984   40.5347   68.4714 C   0  0  0  0  0  0  0  0  0  0  0  0
   28.0550   38.7436   68.5529 O   0  0  0  0  0  0  0  0  0  0  0  0
   31.6219   39.7545   66.2338 O   0  5  0  0  0  0  0  0  0  0  0  0
   21.9851   39.8255   67.3872 N   0  0  0  0  0  0  0  0  0  0  0  0
   28.9968   39.8462   66.3605 O   0  0  0  0  0  0  0  0  0  0  0  0
   30.4077   39.5610   68.4972 O   0  0  0  0  0  0  0  0  0  0  0  0
   22.7826   39.9095   66.3447 C   0  0  2  0  0  0  0  0  0  0  0  0
   23.8392   40.7594   66.4051 C   0  0  2  0  0  0  0  0  0  0  0  0
   24.8965   41.0561   65.3741 C   0  0  0  0  0  0  0  0  0  0  0  0
   26.0653   40.0829   65.5440 C   0  0  0  0  0  0  0  0  0  0  0  0
   26.4350   40.0197   66.9228 O   0  0  0  0  0  0  0  0  0  0  0  0
  1 11  1  0  0  0  0
  3 13  1  6  0  0  0
  3 17  2  0  0  0  0
  3 20  1  0  0  0  0
  3 26  1  0  0  0  0
  4 14  1  6  0  0  0
  4 18  1  0  0  0  0
  4 21  2  0  0  0  0
  4 20  1  0  0  0  0
  5 19  1  0  0  0  0
  5  7  1  0  0  0  0
  6  7  2  0  0  0  0
  6 12  1  0  0  0  0
  7  8  1  0  0  0  0
  8  9  1  0  0  0  0
  8 10  2  0  0  0  0
 10 11  1  0  0  0  0
 11 12  2  0  0  0  0
 15 23  1  0  0  0  0
 15 16  1  0  0  0  0
 16 19  1  0  0  0  0
 19 22  1  0  0  0  0
 22  2  1  6  0  0  0
 22 23  1  0  0  0  0
 23 24  1  1  0  0  0
 24 25  1  0  0  0  0
 25 26  1  0  0  0  0
M  CHG  2  13  -1  18  -1
M  END
>  <CHROM.1>
-83.23723780,-66.33227747,122.09997494,51.46447272,90.81096181,-47.61815448
-175.41070548,-49.67448467,25.22541631,38.85379616,67.53455151,-2.86174037
0.07570998,-0.59105890

>  <Name>
ligand

>  <RI>
0

>  <Rbt.Current_Directory>
/home/itssahil/PROJECTS/Mol_Feturizer/New_Systems/rnas/2HOJ

>  <Rbt.Executable>
rbdock ($Id: //depot/dev/client3/rdock/2013.1/src/exe/rbdock.cxx#4 $)

>  <Rbt.Library>
libRbt.so (2013.1, Build901 2013/11/27)

>  <Rbt.Parameter_File>
/export/apps/rDock/src/rDock_2013.1_src/data/scripts/dock_solv.prm

>  <Rbt.Receptor>
prm/pocket_docking_6.prm

>  <SCORE>
-12.6545

>  <SCORE.INTER>
-9.53138

>  <SCORE.INTER.CONST>
1

>  <SCORE.INTER.POLAR>
-1.29904

>  <SCORE.INTER.ROT>
8

>  <SCORE.INTER.SOLV>
20.6042

>  <SCORE.INTER.VDW>
-17.8255

>  <SCORE.INTER.norm>
-0.366592

>  <SCORE.INTRA>
-3.12309

>  <SCORE.INTRA.DIHEDRAL>
-5.0747

>  <SCORE.INTRA.DIHEDRAL.0>
11.6398

>  <SCORE.INTRA.POLAR>
0

>  <SCORE.INTRA.POLAR.0>
0

>  <SCORE.INTRA.REPUL>
0

>  <SCORE.INTRA.REPUL.0>
0

>  <SCORE.INTRA.SOLV>
4.79588

>  <SCORE.INTRA.SOLV.lig_0>
-81.722

>  <SCORE.INTRA.VDW>
-2.98368

>  <SCORE.INTRA.VDW.0>
1.12598

>  <SCORE.INTRA.norm>
-0.120119

>  <SCORE.RESTR>
0

>  <SCORE.RESTR.CAVITY>
0

>  <SCORE.RESTR.norm>
0

>  <SCORE.SYSTEM>
0

>  <SCORE.SYSTEM.CONST>
0

>  <SCORE.SYSTEM.DIHEDRAL>
0

>  <SCORE.SYSTEM.SOLV>
0

>  <SCORE.SYSTEM.norm>
0

>  <SCORE.heavy>
26

>  <SCORE.norm>
-0.486711

>  <RMSD>
4.150

$$$$
ligand
 OpenBabel11021811433D
libRbt.so/2013.1/901 2013/11/27
 26 27  0  0  0  0  0  0  0  0999 V2000
   21.1749   44.8375   66.3735 C   0  0  0  0  0  0  0  0  0  0  0  0
   21.0943   38.7876   68.5352 C   0  0  0  0  0  0  0  0  0  0  0  0
   26.0075   39.0802   66.5526 P   0  0  1  0  0  0  0  0  0  0  0  0
   24.9798   41.0663   65.2541 P   0  0  1  0  0  0  0  0  0  0  0  0
   19.8666   39.3047   66.0664 C   0  0  0  0  0  0  0  0  0  0  0  0
   21.4402   41.1824   66.6227 C   0  0  0  0  0  0  0  0  0  0  0  0
   20.2115   40.7695   66.1472 C   0  0  0  0  0  0  0  0  0  0  0  0
   19.2968   41.7434   65.7428 C   0  0  0  0  0  0  0  0  0  0  0  0
   18.0490   41.3806   65.2583 N   0  0  0  0  0  0  0  0  0  0  0  0
   19.6375   43.0255   65.8345 N   0  0  0  0  0  0  0  0  0  0  0  0
   20.8230   43.3751   66.2899 C   0  0  0  0  0  0  0  0  0  0  0  0
   21.7093   42.4799   66.6801 N   0  0  0  0  0  0  0  0  0  0  0  0
   26.8701   38.8842   65.3655 O   0  5  0  0  0  0  0  0  0  0  0  0
   23.6819   41.8157   64.8800 O   0  0  0  0  0  0  0  0  0  0  0  0
   23.0079   37.2064   65.5053 S   0  0  0  0  0  0  0  0  0  0  0  0
   21.5961   38.0626   64.9655 C   0  0  0  0  0  0  0  0  0  0  0  0
   26.7477   40.0507   67.6004 O   0  0  0  0  0  0  0  0  0  0  0  0
   25.9190   42.0265   66.1407 O   0  5  0  0  0  0  0  0  0  0  0  0
   21.0968   38.5106   66.0942 N   0  0  0  0  0  0  0  0  0  0  0  0
   24.6127   39.7446   66.0979 O   0  0  0  0  0  0  0  0  0  0  0  0
   25.7293   40.6612   63.9648 O   0  0  0  0  0  0  0  0  0  0  0  0
   21.6794   38.2648   67.2475 C   0  0  2  0  0  0  0  0  0  0  0  0
   22.8160   37.5229   67.2532 C   0  0  2  0  0  0  0  0  0  0  0  0
   23.6779   37.0903   68.4103 C   0  0  0  0  0  0  0  0  0  0  0  0
   24.9624   37.9219   68.4314 C   0  0  0  0  0  0  0  0  0  0  0  0
   25.7200   37.6570   67.2490 O   0  0  0  0  0  0  0  0  0  0  0  0
  1 11  1  0  0  0  0
  3 13  1  6  0  0  0
  3 17  2  0  0  0  0
  3 20  1  0  0  0  0
  3 26  1  0  0  0  0
  4 14  1  6  0  0  0
  4 18  1  0  0  0  0
  4 21  2  0  0  0  0
  4 20  1  0  0  0  0
  5 19  1  0  0  0  0
  5  7  1  0  0  0  0
  6  7  2  0  0  0  0
  6 12  1  0  0  0  0
  7  8  1  0  0  0  0
  8  9  1  0  0  0  0
  8 10  2  0  0  0  0
 10 11  1  0  0  0  0
 11 12  2  0  0  0  0
 15 23  1  0  0  0  0
 15 16  1  0  0  0  0
 16 19  1  0  0  0  0
 19 22  1  0  0  0  0
 22  2  1  1  0  0  0
 22 23  1  0  0  0  0
 23 24  1  6  0  0  0
 24 25  1  0  0  0  0
 25 26  1  0  0  0  0
M  CHG  2  13  -1  18  -1
M  END
>  <CHROM.1>
-53.21440528,-98.93664734,-19.44826312,-175.58082153,74.43872436,-63.93085016
125.79545746,176.20060293,23.15597710,39.97573103,66.25078100,-2.64269727
-0.04930237,2.90029350

>  <Name>
ligand

>  <RI>
0

>  <Rbt.Current_Directory>
/home/itssahil/PROJECTS/Mol_Feturizer/New_Systems/rnas/2HOJ

>  <Rbt.Executable>
rbdock ($Id: //depot/dev/client3/rdock/2013.1/src/exe/rbdock.cxx#4 $)

>  <Rbt.Library>
libRbt.so (2013.1, Build901 2013/11/27)

>  <Rbt.Parameter_File>
/export/apps/rDock/src/rDock_2013.1_src/data/scripts/dock_solv.prm

>  <Rbt.Receptor>
prm/pocket_docking_7.prm

>  <SCORE>
-16.4068

>  <SCORE.INTER>
-12.609

>  <SCORE.INTER.CONST>
1

>  <SCORE.INTER.POLAR>
0

>  <SCORE.INTER.ROT>
8

>  <SCORE.INTER.SOLV>
20.8752

>  <SCORE.INTER.VDW>
-24.2977

>  <SCORE.INTER.norm>
-0.484961

>  <SCORE.INTRA>
-3.79782

>  <SCORE.INTRA.DIHEDRAL>
0.651854

>  <SCORE.INTRA.DIHEDRAL.0>
11.6398

>  <SCORE.INTRA.POLAR>
0

>  <SCORE.INTRA.POLAR.0>
0

>  <SCORE.INTRA.REPUL>
0

>  <SCORE.INTRA.REPUL.0>
0

>  <SCORE.INTRA.SOLV>
3.13955

>  <SCORE.INTRA.SOLV.lig_0>
-81.722

>  <SCORE.INTRA.VDW>
-5.69352

>  <SCORE.INTRA.VDW.0>
1.12598

>  <SCORE.INTRA.norm>
-0.14607

>  <SCORE.RESTR>
0

>  <SCORE.RESTR.CAVITY>
0

>  <SCORE.RESTR.norm>
0

>  <SCORE.SYSTEM>
0

>  <SCORE.SYSTEM.CONST>
0

>  <SCORE.SYSTEM.DIHEDRAL>
0

>  <SCORE.SYSTEM.SOLV>
0

>  <SCORE.SYSTEM.norm>
0

>  <SCORE.heavy>
26

>  <SCORE.norm>
-0.631031

>  <RMSD>
4.171

$$$$
ligand
 OpenBabel11021811433D
libRbt.so/2013.1/901 2013/11/27
 26 27  0  0  0  0  0  0  0  0999 V2000
   19.4717   44.3183   66.2234 C   0  0  0  0  0  0  0  0  0  0  0  0
   21.1522   38.3820   67.9721 C   0  0  0  0  0  0  0  0  0  0  0  0
   26.0037   40.9749   68.2467 P   0  0  1  0  0  0  0  0  0  0  0  0
   24.2693   42.8152   67.7060 P   0  0  1  0  0  0  0  0  0  0  0  0
   20.1200   38.7239   65.3861 C   0  0  0  0  0  0  0  0  0  0  0  0
   21.0039   40.9854   66.0309 C   0  0  0  0  0  0  0  0  0  0  0  0
   19.9470   40.2045   65.6074 C   0  0  0  0  0  0  0  0  0  0  0  0
   18.7139   40.8214   65.3889 C   0  0  0  0  0  0  0  0  0  0  0  0
   17.6210   40.0811   64.9636 N   0  0  0  0  0  0  0  0  0  0  0  0
   18.6010   42.1294   65.6004 N   0  0  0  0  0  0  0  0  0  0  0  0
   19.6371   42.8377   66.0001 C   0  0  0  0  0  0  0  0  0  0  0  0
   20.8150   42.2852   66.2157 N   0  0  0  0  0  0  0  0  0  0  0  0
   26.6429   41.0603   66.9141 O   0  5  0  0  0  0  0  0  0  0  0  0
   23.7915   44.2523   68.0101 O   0  0  0  0  0  0  0  0  0  0  0  0
   23.8217   37.8113   65.1631 S   0  0  0  0  0  0  0  0  0  0  0  0
   22.2795   38.2194   64.4760 C   0  0  0  0  0  0  0  0  0  0  0  0
   27.0721   40.4357   69.3216 O   0  0  0  0  0  0  0  0  0  0  0  0
   24.7633   42.7247   66.1769 O   0  5  0  0  0  0  0  0  0  0  0  0
   21.5317   38.3676   65.5449 N   0  0  0  0  0  0  0  0  0  0  0  0
   25.4877   42.4352   68.6883 O   0  0  0  0  0  0  0  0  0  0  0  0
   23.1021   41.8273   67.9290 O   0  0  0  0  0  0  0  0  0  0  0  0
   22.0237   38.2069   66.7540 C   0  0  2  0  0  0  0  0  0  0  0  0
   23.3330   37.8720   66.8805 C   0  0  2  0  0  0  0  0  0  0  0  0
   24.1480   37.6244   68.1229 C   0  0  0  0  0  0  0  0  0  0  0  0
   25.2906   38.6398   68.1969 C   0  0  0  0  0  0  0  0  0  0  0  0
   24.7524   39.9635   68.1789 O   0  0  0  0  0  0  0  0  0  0  0  0
  1 11  1  0  0  0  0
  3 13  1  6  0  0  0
  3 17  2  0  0  0  0
  3 20  1  0  0  0  0
  3 26  1  0  0  0  0
  4 14  1  1  0  0  0
  4 18  1  0  0  0  0
  4 21  2  0  0  0  0
  4 20  1  0  0  0  0
  5 19  1  0  0  0  0
  5  7  1  0  0  0  0
  6  7  2  0  0  0  0
  6 12  1  0  0  0  0
  7  8  1  0  0  0  0
  8  9  1  0  0  0  0
  8 10  2  0  0  0  0
 10 11  1  0  0  0  0
 11 12  2  0  0  0  0
 15 23  1  0  0  0  0
 15 16  1  0  0  0  0
 16 19  1  0  0  0  0
 19 22  1  0  0  0  0
 22  2  1  6  0  0  0
 22 23  1  0  0  0  0
 23 24  1  1  0  0  0
 24 25  1  0  0  0  0
 25 26  1  0  0  0  0
M  CHG  2  13  -1  18  -1
M  END
>  <CHROM.1>
68.40904127,-99.30208341,-6.09474484,-175.96271025,61.18815027,57.46900598
-179.54303235,77.57641998,22.91025707,40.59907542,66.85656266,3.04195383
0.37161607,-2.94523671

>  <Name>
ligand

>  <RI>
0

>  <Rbt.Current_Directory>
/home/itssahil/PROJECTS/Mol_Feturizer/New_Systems/rnas/2HOJ

>  <Rbt.Executable>
rbdock ($Id: //depot/dev/client3/rdock/2013.1/src/exe/rbdock.cxx#4 $)

>  <Rbt.Library>
libRbt.so (2013.1, Build901 2013/11/27)

>  <Rbt.Parameter_File>
/export/apps/rDock/src/rDock_2013.1_src/data/scripts/dock_solv.prm

>  <Rbt.Receptor>
prm/pocket_docking_6.prm

>  <SCORE>
-21.1971

>  <SCORE.INTER>
-15.8779

>  <SCORE.INTER.CONST>
1

>  <SCORE.INTER.POLAR>
0

>  <SCORE.INTER.ROT>
8

>  <SCORE.INTER.SOLV>
20.203

>  <SCORE.INTER.VDW>
-26.253

>  <SCORE.INTER.norm>
-0.610689

>  <SCORE.INTRA>
-5.32742

>  <SCORE.INTRA.DIHEDRAL>
-5.84755

>  <SCORE.INTRA.DIHEDRAL.0>
11.6398

>  <SCORE.INTRA.POLAR>
0

>  <SCORE.INTRA.POLAR.0>
0

>  <SCORE.INTRA.REPUL>
0

>  <SCORE.INTRA.REPUL.0>
0

>  <SCORE.INTRA.SOLV>
3.52972

>  <SCORE.INTRA.SOLV.lig_0>
-81.722

>  <SCORE.INTRA.VDW>
-4.16851

>  <SCORE.INTRA.VDW.0>
1.12598

>  <SCORE.INTRA.norm>
-0.204901

>  <SCORE.RESTR>
0.00820586

>  <SCORE.RESTR.CAVITY>
0.00820586

>  <SCORE.RESTR.norm>
0.00031561

>  <SCORE.SYSTEM>
0

>  <SCORE.SYSTEM.CONST>
0

>  <SCORE.SYSTEM.DIHEDRAL>
0

>  <SCORE.SYSTEM.SOLV>
0

>  <SCORE.SYSTEM.norm>
0

>  <SCORE.heavy>
26

>  <SCORE.norm>
-0.815275

>  <RMSD>
4.259

$$$$
ligand
 OpenBabel11021811433D
libRbt.so/2013.1/901 2013/11/27
 26 27  0  0  0  0  0  0  0  0999 V2000
   24.9127   45.4759   63.9045 C   0  0  0  0  0  0  0  0  0  0  0  0
   23.3069   40.4495   68.1540 C   0  0  0  0  0  0  0  0  0  0  0  0
   26.4428   38.8047   65.4201 P   0  0  1  0  0  0  0  0  0  0  0  0
   28.4382   39.9721   66.5788 P   0  0  1  0  0  0  0  0  0  0  0  0
   21.4571   42.2822   67.1102 C   0  0  0  0  0  0  0  0  0  0  0  0
   23.1241   42.5644   65.2520 C   0  0  0  0  0  0  0  0  0  0  0  0
   22.3714   43.1287   66.2625 C   0  0  0  0  0  0  0  0  0  0  0  0
   22.4785   44.5036   66.4789 C   0  0  0  0  0  0  0  0  0  0  0  0
   21.7440   45.1186   67.4818 N   0  0  0  0  0  0  0  0  0  0  0  0
   23.3002   45.2147   65.7126 N   0  0  0  0  0  0  0  0  0  0  0  0
   23.9967   44.6361   64.7559 C   0  0  0  0  0  0  0  0  0  0  0  0
   23.9183   43.3399   64.5261 N   0  0  0  0  0  0  0  0  0  0  0  0
   26.6789   39.7076   64.2710 O   0  5  0  0  0  0  0  0  0  0  0  0
   29.2755   38.7373   66.1780 O   0  0  0  0  0  0  0  0  0  0  0  0
   20.9750   38.8919   65.4193 S   0  0  0  0  0  0  0  0  0  0  0  0
   20.5927   40.5668   65.6762 C   0  0  0  0  0  0  0  0  0  0  0  0
   27.2936   37.4534   65.2253 O   0  0  0  0  0  0  0  0  0  0  0  0
   28.5344   41.0861   65.4212 O   0  5  0  0  0  0  0  0  0  0  0  0
   21.4559   40.9075   66.6050 N   0  0  0  0  0  0  0  0  0  0  0  0
   26.9008   39.5364   66.7797 O   0  0  0  0  0  0  0  0  0  0  0  0
   28.9840   40.5559   67.9014 O   0  0  0  0  0  0  0  0  0  0  0  0
   22.3208   40.0425   67.0882 C   0  0  2  0  0  0  0  0  0  0  0  0
   22.3009   38.7720   66.6109 C   0  0  2  0  0  0  0  0  0  0  0  0
   23.1598   37.5910   66.9800 C   0  0  0  0  0  0  0  0  0  0  0  0
   24.6363   37.9654   66.8328 C   0  0  0  0  0  0  0  0  0  0  0  0
   24.8757   38.4451   65.5082 O   0  0  0  0  0  0  0  0  0  0  0  0
  1 11  1  0  0  0  0
  3 13  1  6  0  0  0
  3 17  2  0  0  0  0
  3 20  1  0  0  0  0
  3 26  1  0  0  0  0
  4 14  1  6  0  0  0
  4 18  1  0  0  0  0
  4 21  2  0  0  0  0
  4 20  1  0  0  0  0
  5 19  1  0  0  0  0
  5  7  1  0  0  0  0
  6  7  2  0  0  0  0
  6 12  1  0  0  0  0
  7  8  1  0  0  0  0
  8  9  1  0  0  0  0
  8 10  2  0  0  0  0
 10 11  1  0  0  0  0
 11 12  2  0  0  0  0
 15 23  1  0  0  0  0
 15 16  1  0  0  0  0
 16 19  1  0  0  0  0
 19 22  1  0  0  0  0
 22  2  1  1  0  0  0
 22 23  1  0  0  0  0
 23 24  1  6  0  0  0
 24 25  1  0  0  0  0
 25 26  1  0  0  0  0
M  CHG  2  13  -1  18  -1
M  END
>  <CHROM.1>
-55.57693651,-88.86825204,-4.44645278,-54.46947583,125.56043697,-55.26746995
-179.45065684,-161.25544269,24.63483803,40.69015236,66.04264890,-2.57676811
-0.05178421,3.04734325

>  <Name>
ligand

>  <RI>
0

>  <Rbt.Current_Directory>
/home/itssahil/PROJECTS/Mol_Feturizer/New_Systems/rnas/2HOJ

>  <Rbt.Executable>
rbdock ($Id: //depot/dev/client3/rdock/2013.1/src/exe/rbdock.cxx#4 $)

>  <Rbt.Library>
libRbt.so (2013.1, Build901 2013/11/27)

>  <Rbt.Parameter_File>
/export/apps/rDock/src/rDock_2013.1_src/data/scripts/dock_solv.prm

>  <Rbt.Receptor>
prm/pocket_docking_8.prm

>  <SCORE>
-12.7732

>  <SCORE.INTER>
-7.60533

>  <SCORE.INTER.CONST>
1

>  <SCORE.INTER.POLAR>
-1.29904

>  <SCORE.INTER.ROT>
8

>  <SCORE.INTER.SOLV>
21.9804

>  <SCORE.INTER.VDW>
-17.0002

>  <SCORE.INTER.norm>
-0.292513

>  <SCORE.INTRA>
-5.16783

>  <SCORE.INTRA.DIHEDRAL>
-6.36975

>  <SCORE.INTRA.DIHEDRAL.0>
11.6398

>  <SCORE.INTRA.POLAR>
0

>  <SCORE.INTRA.POLAR.0>
0

>  <SCORE.INTRA.REPUL>
0

>  <SCORE.INTRA.REPUL.0>
0

>  <SCORE.INTRA.SOLV>
0.729692

>  <SCORE.INTRA.SOLV.lig_0>
-81.722

>  <SCORE.INTRA.VDW>
-2.34781

>  <SCORE.INTRA.VDW.0>
1.12598

>  <SCORE.INTRA.norm>
-0.198763

>  <SCORE.RESTR>
0

>  <SCORE.RESTR.CAVITY>
0

>  <SCORE.RESTR.norm>
0

>  <SCORE.SYSTEM>
0

>  <SCORE.SYSTEM.CONST>
0

>  <SCORE.SYSTEM.DIHEDRAL>
0

>  <SCORE.SYSTEM.SOLV>
0

>  <SCORE.SYSTEM.norm>
0

>  <SCORE.heavy>
26

>  <SCORE.norm>
-0.491275

>  <RMSD>
4.279

$$$$
ligand
 OpenBabel11021811433D
libRbt.so/2013.1/901 2013/11/27
 26 27  0  0  0  0  0  0  0  0999 V2000
   18.2393   41.1207   65.1772 C   0  0  0  0  0  0  0  0  0  0  0  0
   23.2095   45.3615   65.1628 C   0  0  0  0  0  0  0  0  0  0  0  0
   26.9083   40.8421   63.3516 P   0  0  1  0  0  0  0  0  0  0  0  0
   27.1755   39.4924   65.5411 P   0  0  1  0  0  0  0  0  0  0  0  0
   22.1124   44.5170   67.6027 C   0  0  0  0  0  0  0  0  0  0  0  0
   20.0909   44.1369   66.1602 C   0  0  0  0  0  0  0  0  0  0  0  0
   21.0878   43.6169   66.9614 C   0  0  0  0  0  0  0  0  0  0  0  0
   21.1229   42.2359   67.1621 C   0  0  0  0  0  0  0  0  0  0  0  0
   22.1038   41.6641   67.9586 N   0  0  0  0  0  0  0  0  0  0  0  0
   20.1978   41.4765   66.5826 N   0  0  0  0  0  0  0  0  0  0  0  0
   19.2668   42.0142   65.8216 C   0  0  0  0  0  0  0  0  0  0  0  0
   19.2059   43.3148   65.6123 N   0  0  0  0  0  0  0  0  0  0  0  0
   28.3370   41.1443   63.1085 O   0  5  0  0  0  0  0  0  0  0  0  0
   26.0684   40.2564   66.3008 O   0  0  0  0  0  0  0  0  0  0  0  0
   25.6078   43.0314   67.2026 S   0  0  0  0  0  0  0  0  0  0  0  0
   24.1141   43.2781   68.0543 C   0  0  0  0  0  0  0  0  0  0  0  0
   26.1020   40.9032   61.9610 O   0  0  0  0  0  0  0  0  0  0  0  0
   27.3439   38.0214   66.1720 O   0  5  0  0  0  0  0  0  0  0  0  0
   23.4567   44.0665   67.2357 N   0  0  0  0  0  0  0  0  0  0  0  0
   26.7727   39.3684   63.9868 O   0  0  0  0  0  0  0  0  0  0  0  0
   28.5097   40.2619   65.6665 O   0  0  0  0  0  0  0  0  0  0  0  0
   23.9778   44.4569   66.0930 C   0  0  2  0  0  0  0  0  0  0  0  0
   25.2268   44.0328   65.7728 C   0  0  2  0  0  0  0  0  0  0  0  0
   26.0585   44.3224   64.5509 C   0  0  0  0  0  0  0  0  0  0  0  0
   26.0397   43.1087   63.6189 C   0  0  0  0  0  0  0  0  0  0  0  0
   26.2966   41.9240   64.3755 O   0  0  0  0  0  0  0  0  0  0  0  0
  1 11  1  0  0  0  0
  3 13  1  6  0  0  0
  3 17  2  0  0  0  0
  3 20  1  0  0  0  0
  3 26  1  0  0  0  0
  4 14  1  1  0  0  0
  4 18  1  0  0  0  0
  4 21  2  0  0  0  0
  4 20  1  0  0  0  0
  5 19  1  0  0  0  0
  5  7  1  0  0  0  0
  6  7  2  0  0  0  0
  6 12  1  0  0  0  0
  7  8  1  0  0  0  0
  8  9  1  0  0  0  0
  8 10  2  0  0  0  0
 10 11  1  0  0  0  0
 11 12  2  0  0  0  0
 15 23  1  0  0  0  0
 15 16  1  0  0  0  0
 16 19  1  0  0  0  0
 19 22  1  0  0  0  0
 22  2  1  1  0  0  0
 22 23  1  0  0  0  0
 23 24  1  6  0  0  0
 24 25  1  0  0  0  0
 25 26  1  0  0  0  0
M  CHG  2  13  -1  18  -1
M  END
>  <CHROM.1>
77.53955616,-95.86805553,-124.82537205,70.94262263,76.54760618,-47.42557829
-155.16354766,78.55323849,24.48607327,41.99773541,65.55784922,2.72021306
0.20187776,0.21684547

>  <Name>
ligand

>  <RI>
0

>  <Rbt.Current_Directory>
/home/itssahil/PROJECTS/Mol_Feturizer/New_Systems/rnas/2HOJ

>  <Rbt.Executable>
rbdock ($Id: //depot/dev/client3/rdock/2013.1/src/exe/rbdock.cxx#4 $)

>  <Rbt.Library>
libRbt.so (2013.1, Build901 2013/11/27)

>  <Rbt.Parameter_File>
/export/apps/rDock/src/rDock_2013.1_src/data/scripts/dock_solv.prm

>  <Rbt.Receptor>
prm/pocket_docking_7.prm

>  <SCORE>
-16.4432

>  <SCORE.INTER>
-13.291

>  <SCORE.INTER.CONST>
1

>  <SCORE.INTER.POLAR>
0

>  <SCORE.INTER.ROT>
8

>  <SCORE.INTER.SOLV>
19.1269

>  <SCORE.INTER.VDW>
-24.1696

>  <SCORE.INTER.norm>
-0.511191

>  <SCORE.INTRA>
-3.15223

>  <SCORE.INTRA.DIHEDRAL>
-2.19806

>  <SCORE.INTRA.DIHEDRAL.0>
11.6398

>  <SCORE.INTRA.POLAR>
0

>  <SCORE.INTRA.POLAR.0>
0

>  <SCORE.INTRA.REPUL>
0

>  <SCORE.INTRA.REPUL.0>
0

>  <SCORE.INTRA.SOLV>
2.22695

>  <SCORE.INTRA.SOLV.lig_0>
-81.722

>  <SCORE.INTRA.VDW>
-3.16667

>  <SCORE.INTRA.VDW.0>
1.12598

>  <SCORE.INTRA.norm>
-0.12124

>  <SCORE.RESTR>
0

>  <SCORE.RESTR.CAVITY>
0

>  <SCORE.RESTR.norm>
0

>  <SCORE.SYSTEM>
0

>  <SCORE.SYSTEM.CONST>
0

>  <SCORE.SYSTEM.DIHEDRAL>
0

>  <SCORE.SYSTEM.SOLV>
0

>  <SCORE.SYSTEM.norm>
0

>  <SCORE.heavy>
26

>  <SCORE.norm>
-0.632431

>  <RMSD>
4.362

$$$$
ligand
 OpenBabel11021811433D
libRbt.so/2013.1/901 2013/11/27
 26 27  0  0  0  0  0  0  0  0999 V2000
   16.4600   39.5445   64.1909 C   0  0  0  0  0  0  0  0  0  0  0  0
   23.6708   41.8410   67.2139 C   0  0  0  0  0  0  0  0  0  0  0  0
   27.4028   42.0970   63.2961 P   0  0  1  0  0  0  0  0  0  0  0  0
   26.7280   40.0237   64.6864 P   0  0  1  0  0  0  0  0  0  0  0  0
   20.8742   41.6478   67.1080 C   0  0  0  0  0  0  0  0  0  0  0  0
   18.6545   41.9005   65.9589 C   0  0  0  0  0  0  0  0  0  0  0  0
   19.7064   41.0897   66.3360 C   0  0  0  0  0  0  0  0  0  0  0  0
   19.6611   39.7397   65.9836 C   0  0  0  0  0  0  0  0  0  0  0  0
   20.6925   38.8834   66.3391 N   0  0  0  0  0  0  0  0  0  0  0  0
   18.6107   39.2851   65.3066 N   0  0  0  0  0  0  0  0  0  0  0  0
   17.6306   40.0952   64.9628 C   0  0  0  0  0  0  0  0  0  0  0  0
   17.6431   41.3750   65.2805 N   0  0  0  0  0  0  0  0  0  0  0  0
   28.8135   41.7180   63.5370 O   0  5  0  0  0  0  0  0  0  0  0  0
   26.5564   41.0325   65.8437 O   0  0  0  0  0  0  0  0  0  0  0  0
   22.0365   44.4809   64.8259 S   0  0  0  0  0  0  0  0  0  0  0  0
   20.8235   43.4772   65.5599 C   0  0  0  0  0  0  0  0  0  0  0  0
   27.2828   42.8483   61.8788 O   0  0  0  0  0  0  0  0  0  0  0  0
   25.6602   38.8307   64.8501 O   0  5  0  0  0  0  0  0  0  0  0  0
   21.5452   42.6731   66.3059 N   0  0  0  0  0  0  0  0  0  0  0  0
   26.4869   40.7724   63.2811 O   0  0  0  0  0  0  0  0  0  0  0  0
   28.1591   39.4416   64.7198 O   0  0  0  0  0  0  0  0  0  0  0  0
   22.8560   42.7712   66.3510 C   0  0  2  0  0  0  0  0  0  0  0  0
   23.4598   43.7246   65.5968 C   0  0  2  0  0  0  0  0  0  0  0  0
   24.9222   44.0555   65.4528 C   0  0  0  0  0  0  0  0  0  0  0  0
   25.5050   43.2936   64.2603 C   0  0  0  0  0  0  0  0  0  0  0  0
   26.9023   43.0798   64.4694 O   0  0  0  0  0  0  0  0  0  0  0  0
  1 11  1  0  0  0  0
  3 13  1  1  0  0  0
  3 17  2  0  0  0  0
  3 20  1  0  0  0  0
  3 26  1  0  0  0  0
  4 14  1  1  0  0  0
  4 18  1  0  0  0  0
  4 21  2  0  0  0  0
  4 20  1  0  0  0  0
  5 19  1  0  0  0  0
  5  7  1  0  0  0  0
  6  7  2  0  0  0  0
  6 12  1  0  0  0  0
  7  8  1  0  0  0  0
  8  9  1  0  0  0  0
  8 10  2  0  0  0  0
 10 11  1  0  0  0  0
 11 12  2  0  0  0  0
 15 23  1  0  0  0  0
 15 16  1  0  0  0  0
 16 19  1  0  0  0  0
 19 22  1  0  0  0  0
 22  2  1  6  0  0  0
 22 23  1  0  0  0  0
 23 24  1  1  0  0  0
 24 25  1  0  0  0  0
 25 26  1  0  0  0  0
M  CHG  2  13  -1  18  -1
M  END
>  <CHROM.1>
56.37708691,37.45845320,-61.76800019,50.22633905,-87.14501907,-152.91282067
171.91449732,-173.98034917,23.52326080,41.58922387,64.97656380,-3.07147682
0.18733628,-0.00606169

>  <Name>
ligand

>  <RI>
0

>  <Rbt.Current_Directory>
/home/itssahil/PROJECTS/Mol_Feturizer/New_Systems/rnas/2HOJ

>  <Rbt.Executable>
rbdock ($Id: //depot/dev/client3/rdock/2013.1/src/exe/rbdock.cxx#4 $)

>  <Rbt.Library>
libRbt.so (2013.1, Build901 2013/11/27)

>  <Rbt.Parameter_File>
/export/apps/rDock/src/rDock_2013.1_src/data/scripts/dock_solv.prm

>  <Rbt.Receptor>
prm/pocket_docking_6.prm

>  <SCORE>
-19.5967

>  <SCORE.INTER>
-15.5898

>  <SCORE.INTER.CONST>
1

>  <SCORE.INTER.POLAR>
0

>  <SCORE.INTER.ROT>
8

>  <SCORE.INTER.SOLV>
16.2549

>  <SCORE.INTER.VDW>
-24.7448

>  <SCORE.INTER.norm>
-0.599609

>  <SCORE.INTRA>
-4.00689

>  <SCORE.INTRA.DIHEDRAL>
-3.83888

>  <SCORE.INTRA.DIHEDRAL.0>
11.6398

>  <SCORE.INTRA.POLAR>
0

>  <SCORE.INTRA.POLAR.0>
0

>  <SCORE.INTRA.REPUL>
0

>  <SCORE.INTRA.REPUL.0>
0

>  <SCORE.INTRA.SOLV>
0.473498

>  <SCORE.INTRA.SOLV.lig_0>
-81.722

>  <SCORE.INTRA.VDW>
-2.3242

>  <SCORE.INTRA.VDW.0>
1.12598

>  <SCORE.INTRA.norm>
-0.154111

>  <SCORE.RESTR>
0

>  <SCORE.RESTR.CAVITY>
0

>  <SCORE.RESTR.norm>
0

>  <SCORE.SYSTEM>
0

>  <SCORE.SYSTEM.CONST>
0

>  <SCORE.SYSTEM.DIHEDRAL>
0

>  <SCORE.SYSTEM.SOLV>
0

>  <SCORE.SYSTEM.norm>
0

>  <SCORE.heavy>
26

>  <SCORE.norm>
-0.75372

>  <RMSD>
4.363

$$$$
ligand
 OpenBabel11021811433D
libRbt.so/2013.1/901 2013/11/27
 26 27  0  0  0  0  0  0  0  0999 V2000
   19.1550   43.7036   66.2335 C   0  0  0  0  0  0  0  0  0  0  0  0
   26.9497   43.2892   64.5008 C   0  0  0  0  0  0  0  0  0  0  0  0
   28.4089   38.1048   68.5730 P   0  0  1  0  0  0  0  0  0  0  0  0
   26.0457   37.3091   69.2577 P   0  0  1  0  0  0  0  0  0  0  0  0
   24.7742   44.5061   65.7876 C   0  0  0  0  0  0  0  0  0  0  0  0
   22.4573   45.3089   66.3344 C   0  0  0  0  0  0  0  0  0  0  0  0
   23.2871   44.2923   65.9053 C   0  0  0  0  0  0  0  0  0  0  0  0
   22.7134   43.0612   65.5827 C   0  0  0  0  0  0  0  0  0  0  0  0
   23.5036   42.0079   65.1473 N   0  0  0  0  0  0  0  0  0  0  0  0
   21.3978   42.9113   65.7047 N   0  0  0  0  0  0  0  0  0  0  0  0
   20.6424   43.9099   66.1135 C   0  0  0  0  0  0  0  0  0  0  0  0
   21.1532   45.0848   66.4262 N   0  0  0  0  0  0  0  0  0  0  0  0
   28.3477   38.8984   69.8212 O   0  5  0  0  0  0  0  0  0  0  0  0
   25.5277   38.4442   68.3469 O   0  0  0  0  0  0  0  0  0  0  0  0
   26.1944   41.7564   68.0254 S   0  0  0  0  0  0  0  0  0  0  0  0
   25.0770   43.0337   67.6548 C   0  0  0  0  0  0  0  0  0  0  0  0
   29.9276   37.6503   68.2992 O   0  0  0  0  0  0  0  0  0  0  0  0
   24.9994   36.0864   69.2412 O   0  5  0  0  0  0  0  0  0  0  0  0
   25.4798   43.4161   66.4651 N   0  0  0  0  0  0  0  0  0  0  0  0
   27.4763   36.8002   68.7209 O   0  0  0  0  0  0  0  0  0  0  0  0
   26.1970   37.8375   70.7020 O   0  0  0  0  0  0  0  0  0  0  0  0
   26.4999   42.8394   65.8680 C   0  0  2  0  0  0  0  0  0  0  0  0
   27.1441   41.8344   66.5141 C   0  0  2  0  0  0  0  0  0  0  0  0
   28.3275   41.0113   66.0770 C   0  0  0  0  0  0  0  0  0  0  0  0
   28.7780   40.1098   67.2287 C   0  0  0  0  0  0  0  0  0  0  0  0
   27.8853   38.9996   67.3408 O   0  0  0  0  0  0  0  0  0  0  0  0
  1 11  1  0  0  0  0
  3 13  1  1  0  0  0
  3 17  2  0  0  0  0
  3 20  1  0  0  0  0
  3 26  1  0  0  0  0
  4 14  1  6  0  0  0
  4 18  1  0  0  0  0
  4 21  2  0  0  0  0
  4 20  1  0  0  0  0
  5 19  1  0  0  0  0
  5  7  1  0  0  0  0
  6  7  2  0  0  0  0
  6 12  1  0  0  0  0
  7  8  1  0  0  0  0
  8  9  1  0  0  0  0
  8 10  2  0  0  0  0
 10 11  1  0  0  0  0
 11 12  2  0  0  0  0
 15 23  1  0  0  0  0
 15 16  1  0  0  0  0
 16 19  1  0  0  0  0
 19 22  1  0  0  0  0
 22  2  1  1  0  0  0
 22 23  1  0  0  0  0
 23 24  1  6  0  0  0
 24 25  1  0  0  0  0
 25 26  1  0  0  0  0
M  CHG  2  13  -1  18  -1
M  END
>  <CHROM.1>
49.74003392,-45.39975804,130.22582288,52.32376630,-6.62149798,76.96303581
-179.52571860,62.20636897,25.61010006,40.79709471,67.40938851,2.23543943
0.11146767,-0.52443352

>  <Name>
ligand

>  <RI>
0

>  <Rbt.Current_Directory>
/home/itssahil/PROJECTS/Mol_Feturizer/New_Systems/rnas/2HOJ

>  <Rbt.Executable>
rbdock ($Id: //depot/dev/client3/rdock/2013.1/src/exe/rbdock.cxx#4 $)

>  <Rbt.Library>
libRbt.so (2013.1, Build901 2013/11/27)

>  <Rbt.Parameter_File>
/export/apps/rDock/src/rDock_2013.1_src/data/scripts/dock_solv.prm

>  <Rbt.Receptor>
prm/pocket_docking_6.prm

>  <SCORE>
-14.5267

>  <SCORE.INTER>
-9.64098

>  <SCORE.INTER.CONST>
1

>  <SCORE.INTER.POLAR>
-1.71847

>  <SCORE.INTER.ROT>
8

>  <SCORE.INTER.SOLV>
21.6346

>  <SCORE.INTER.VDW>
-16.844

>  <SCORE.INTER.norm>
-0.370807

>  <SCORE.INTRA>
-4.88574

>  <SCORE.INTRA.DIHEDRAL>
-5.77215

>  <SCORE.INTRA.DIHEDRAL.0>
11.6398

>  <SCORE.INTRA.POLAR>
0

>  <SCORE.INTRA.POLAR.0>
0

>  <SCORE.INTRA.REPUL>
0

>  <SCORE.INTRA.REPUL.0>
0

>  <SCORE.INTRA.SOLV>
3.22837

>  <SCORE.INTRA.SOLV.lig_0>
-81.722

>  <SCORE.INTRA.VDW>
-3.61385

>  <SCORE.INTRA.VDW.0>
1.12598

>  <SCORE.INTRA.norm>
-0.187913

>  <SCORE.RESTR>
0

>  <SCORE.RESTR.CAVITY>
0

>  <SCORE.RESTR.norm>
0

>  <SCORE.SYSTEM>
0

>  <SCORE.SYSTEM.CONST>
0

>  <SCORE.SYSTEM.DIHEDRAL>
0

>  <SCORE.SYSTEM.SOLV>
0

>  <SCORE.SYSTEM.norm>
0

>  <SCORE.heavy>
26

>  <SCORE.norm>
-0.55872

>  <RMSD>
4.383

$$$$
ligand
 OpenBabel11021811433D
libRbt.so/2013.1/901 2013/11/27
 26 27  0  0  0  0  0  0  0  0999 V2000
   16.6229   40.2215   64.5563 C   0  0  0  0  0  0  0  0  0  0  0  0
   24.4653   38.8090   66.8628 C   0  0  0  0  0  0  0  0  0  0  0  0
   25.7005   35.8576   72.6594 P   0  0  1  0  0  0  0  0  0  0  0  0
   26.5621   37.1660   74.7167 P   0  0  1  0  0  0  0  0  0  0  0  0
   21.9859   40.0584   66.4616 C   0  0  0  0  0  0  0  0  0  0  0  0
   19.9281   38.9536   65.5360 C   0  0  0  0  0  0  0  0  0  0  0  0
   20.5664   40.1031   65.9574 C   0  0  0  0  0  0  0  0  0  0  0  0
   19.8632   41.3078   65.9050 C   0  0  0  0  0  0  0  0  0  0  0  0
   20.4595   42.4905   66.3163 N   0  0  0  0  0  0  0  0  0  0  0  0
   18.6140   41.3059   65.4491 N   0  0  0  0  0  0  0  0  0  0  0  0
   18.0416   40.1846   65.0614 C   0  0  0  0  0  0  0  0  0  0  0  0
   18.6785   39.0305   65.0981 N   0  0  0  0  0  0  0  0  0  0  0  0
   26.5160   34.7364   73.1785 O   0  5  0  0  0  0  0  0  0  0  0  0
   25.2090   36.8611   75.3966 O   0  0  0  0  0  0  0  0  0  0  0  0
   21.6744   37.4987   69.2787 S   0  0  0  0  0  0  0  0  0  0  0  0
   21.0477   38.7219   68.2164 C   0  0  0  0  0  0  0  0  0  0  0  0
   24.2040   35.7471   73.2392 O   0  0  0  0  0  0  0  0  0  0  0  0
   27.6115   35.9944   75.0574 O   0  5  0  0  0  0  0  0  0  0  0  0
   22.1035   39.0330   67.5006 N   0  0  0  0  0  0  0  0  0  0  0  0
   26.3540   37.2549   73.1222 O   0  0  0  0  0  0  0  0  0  0  0  0
   27.1080   38.5139   75.2396 O   0  0  0  0  0  0  0  0  0  0  0  0
   23.2621   38.4415   67.6942 C   0  0  2  0  0  0  0  0  0  0  0  0
   23.3524   37.4973   68.6652 C   0  0  2  0  0  0  0  0  0  0  0  0
   24.5364   36.6746   69.1013 C   0  0  0  0  0  0  0  0  0  0  0  0
   24.6569   36.7183   70.6263 C   0  0  0  0  0  0  0  0  0  0  0  0
   25.6597   35.7931   71.0509 O   0  0  0  0  0  0  0  0  0  0  0  0
  1 11  1  0  0  0  0
  3 13  1  1  0  0  0
  3 17  2  0  0  0  0
  3 20  1  0  0  0  0
  3 26  1  0  0  0  0
  4 14  1  1  0  0  0
  4 18  1  0  0  0  0
  4 21  2  0  0  0  0
  4 20  1  0  0  0  0
  5 19  1  0  0  0  0
  5  7  1  0  0  0  0
  6  7  2  0  0  0  0
  6 12  1  0  0  0  0
  7  8  1  0  0  0  0
  8  9  1  0  0  0  0
  8 10  2  0  0  0  0
 10 11  1  0  0  0  0
 11 12  2  0  0  0  0
 15 23  1  0  0  0  0
 15 16  1  0  0  0  0
 16 19  1  0  0  0  0
 19 22  1  0  0  0  0
 22  2  1  1  0  0  0
 22 23  1  0  0  0  0
 23 24  1  6  0  0  0
 24 25  1  0  0  0  0
 25 26  1  0  0  0  0
M  CHG  2  13  -1  18  -1
M  END
>  <CHROM.1>
-51.95360348,-27.32331342,-51.80686601,-56.61350441,-48.27432787,171.97179585
-178.26774832,168.62495579,23.25165007,38.00177676,69.87708095,3.02958354
0.91973215,-2.58195343

>  <Name>
ligand

>  <RI>
0

>  <Rbt.Current_Directory>
/home/itssahil/PROJECTS/Mol_Feturizer/New_Systems/rnas/2HOJ

>  <Rbt.Executable>
rbdock ($Id: //depot/dev/client3/rdock/2013.1/src/exe/rbdock.cxx#4 $)

>  <Rbt.Library>
libRbt.so (2013.1, Build901 2013/11/27)

>  <Rbt.Parameter_File>
/export/apps/rDock/src/rDock_2013.1_src/data/scripts/dock_solv.prm

>  <Rbt.Receptor>
prm/blind_docking_100.prm

>  <SCORE>
-22.6861

>  <SCORE.INTER>
-18.4424

>  <SCORE.INTER.CONST>
1

>  <SCORE.INTER.POLAR>
0

>  <SCORE.INTER.ROT>
8

>  <SCORE.INTER.SOLV>
19.533

>  <SCORE.INTER.VDW>
-27.7393

>  <SCORE.INTER.norm>
-0.709325

>  <SCORE.INTRA>
-4.24367

>  <SCORE.INTRA.DIHEDRAL>
-5.94711

>  <SCORE.INTRA.DIHEDRAL.0>
11.6398

>  <SCORE.INTRA.POLAR>
0

>  <SCORE.INTRA.POLAR.0>
0

>  <SCORE.INTRA.REPUL>
0

>  <SCORE.INTRA.REPUL.0>
0

>  <SCORE.INTRA.SOLV>
0.87698

>  <SCORE.INTRA.SOLV.lig_0>
-81.722

>  <SCORE.INTRA.VDW>
-1.70861

>  <SCORE.INTRA.VDW.0>
1.12598

>  <SCORE.INTRA.norm>
-0.163218

>  <SCORE.RESTR>
0

>  <SCORE.RESTR.CAVITY>
0

>  <SCORE.RESTR.norm>
0

>  <SCORE.SYSTEM>
0

>  <SCORE.SYSTEM.CONST>
0

>  <SCORE.SYSTEM.DIHEDRAL>
0

>  <SCORE.SYSTEM.SOLV>
0

>  <SCORE.SYSTEM.norm>
0

>  <SCORE.heavy>
26

>  <SCORE.norm>
-0.872543

>  <RMSD>
4.747

$$$$
ligand
 OpenBabel11021811433D
libRbt.so/2013.1/901 2013/11/27
 26 27  0  0  0  0  0  0  0  0999 V2000
   24.8246   46.5517   63.2487 C   0  0  0  0  0  0  0  0  0  0  0  0
   23.2646   40.6681   66.6489 C   0  0  0  0  0  0  0  0  0  0  0  0
   28.1747   37.3010   65.5236 P   0  0  1  0  0  0  0  0  0  0  0  0
   29.7902   38.5027   67.1462 P   0  0  1  0  0  0  0  0  0  0  0  0
   23.9722   43.1547   67.7378 C   0  0  0  0  0  0  0  0  0  0  0  0
   25.4035   44.0544   65.8794 C   0  0  0  0  0  0  0  0  0  0  0  0
   24.1965   44.0544   66.5498 C   0  0  0  0  0  0  0  0  0  0  0  0
   23.1888   44.9089   66.0989 C   0  0  0  0  0  0  0  0  0  0  0  0
   21.9586   44.9469   66.7382 N   0  0  0  0  0  0  0  0  0  0  0  0
   23.4279   45.6908   65.0503 N   0  0  0  0  0  0  0  0  0  0  0  0
   24.5932   45.6552   64.4370 C   0  0  0  0  0  0  0  0  0  0  0  0
   25.5655   44.8598   64.8380 N   0  0  0  0  0  0  0  0  0  0  0  0
   29.0427   37.4203   64.3302 O   0  5  0  0  0  0  0  0  0  0  0  0
   30.8518   38.1335   66.0865 O   0  0  0  0  0  0  0  0  0  0  0  0
   26.9420   40.7673   67.9937 S   0  0  0  0  0  0  0  0  0  0  0  0
   26.1561   42.2981   68.2307 C   0  0  0  0  0  0  0  0  0  0  0  0
   28.5951   35.9963   66.3654 O   0  0  0  0  0  0  0  0  0  0  0  0
   30.1693   39.9152   67.8181 O   0  5  0  0  0  0  0  0  0  0  0  0
   24.9634   42.0766   67.7284 N   0  0  0  0  0  0  0  0  0  0  0  0
   28.3452   38.6118   66.4436 O   0  0  0  0  0  0  0  0  0  0  0  0
   29.7502   37.4085   68.2367 O   0  0  0  0  0  0  0  0  0  0  0  0
   24.6391   40.9074   67.2209 C   0  0  2  0  0  0  0  0  0  0  0  0
   25.5730   39.9223   67.2168 C   0  0  2  0  0  0  0  0  0  0  0  0
   25.4798   38.5091   66.7038 C   0  0  0  0  0  0  0  0  0  0  0  0
   26.0310   38.4444   65.2776 C   0  0  0  0  0  0  0  0  0  0  0  0
   26.6383   37.1693   65.0598 O   0  0  0  0  0  0  0  0  0  0  0  0
  1 11  1  0  0  0  0
  3 13  1  6  0  0  0
  3 17  2  0  0  0  0
  3 20  1  0  0  0  0
  3 26  1  0  0  0  0
  4 14  1  6  0  0  0
  4 18  1  0  0  0  0
  4 21  2  0  0  0  0
  4 20  1  0  0  0  0
  5 19  1  0  0  0  0
  5  7  1  0  0  0  0
  6  7  2  0  0  0  0
  6 12  1  0  0  0  0
  7  8  1  0  0  0  0
  8  9  1  0  0  0  0
  8 10  2  0  0  0  0
 10 11  1  0  0  0  0
 11 12  2  0  0  0  0
 15 23  1  0  0  0  0
 15 16  1  0  0  0  0
 16 19  1  0  0  0  0
 19 22  1  0  0  0  0
 22  2  1  6  0  0  0
 22 23  1  0  0  0  0
 23 24  1  1  0  0  0
 24 25  1  0  0  0  0
 25 26  1  0  0  0  0
M  CHG  2  13  -1  18  -1
M  END
>  <CHROM.1>
-72.91986827,83.21605065,-18.83424784,47.46803528,-84.87447588,147.72722379
-88.46082920,-103.04680779,26.59963820,40.63878362,66.39025101,-2.20379350
-0.20373254,2.89955759

>  <Name>
ligand

>  <RI>
0

>  <Rbt.Current_Directory>
/home/itssahil/PROJECTS/Mol_Feturizer/New_Systems/rnas/2HOJ

>  <Rbt.Executable>
rbdock ($Id: //depot/dev/client3/rdock/2013.1/src/exe/rbdock.cxx#4 $)

>  <Rbt.Library>
libRbt.so (2013.1, Build901 2013/11/27)

>  <Rbt.Parameter_File>
/export/apps/rDock/src/rDock_2013.1_src/data/scripts/dock_solv.prm

>  <Rbt.Receptor>
prm/pocket_docking_7.prm

>  <SCORE>
-15.8337

>  <SCORE.INTER>
-15.6096

>  <SCORE.INTER.CONST>
1

>  <SCORE.INTER.POLAR>
-2.99303

>  <SCORE.INTER.ROT>
8

>  <SCORE.INTER.SOLV>
20.7917

>  <SCORE.INTER.VDW>
-16.2935

>  <SCORE.INTER.norm>
-0.600368

>  <SCORE.INTRA>
-0.224184

>  <SCORE.INTRA.DIHEDRAL>
2.18553

>  <SCORE.INTRA.DIHEDRAL.0>
11.6398

>  <SCORE.INTRA.POLAR>
0

>  <SCORE.INTRA.POLAR.0>
0

>  <SCORE.INTRA.REPUL>
0

>  <SCORE.INTRA.REPUL.0>
0

>  <SCORE.INTRA.SOLV>
2.04606

>  <SCORE.INTRA.SOLV.lig_0>
-81.722

>  <SCORE.INTRA.VDW>
-2.33998

>  <SCORE.INTRA.VDW.0>
1.12598

>  <SCORE.INTRA.norm>
-0.00862248

>  <SCORE.RESTR>
0

>  <SCORE.RESTR.CAVITY>
0

>  <SCORE.RESTR.norm>
0

>  <SCORE.SYSTEM>
0

>  <SCORE.SYSTEM.CONST>
0

>  <SCORE.SYSTEM.DIHEDRAL>
0

>  <SCORE.SYSTEM.SOLV>
0

>  <SCORE.SYSTEM.norm>
0

>  <SCORE.heavy>
26

>  <SCORE.norm>
-0.60899

>  <RMSD>
4.815

$$$$
ligand
 OpenBabel11021811433D
libRbt.so/2013.1/901 2013/11/27
 26 27  0  0  0  0  0  0  0  0999 V2000
   20.1386   42.6103   66.2437 C   0  0  0  0  0  0  0  0  0  0  0  0
   26.3172   37.9036   68.9769 C   0  0  0  0  0  0  0  0  0  0  0  0
   29.6419   36.4910   63.8505 P   0  0  1  0  0  0  0  0  0  0  0  0
   30.9056   37.3125   61.7493 P   0  0  1  0  0  0  0  0  0  0  0  0
   23.7170   38.6585   68.2430 C   0  0  0  0  0  0  0  0  0  0  0  0
   23.2093   40.9809   67.4304 C   0  0  0  0  0  0  0  0  0  0  0  0
   22.7687   39.7035   67.7139 C   0  0  0  0  0  0  0  0  0  0  0  0
   21.4225   39.4044   67.4977 C   0  0  0  0  0  0  0  0  0  0  0  0
   20.9301   38.1361   67.7672 N   0  0  0  0  0  0  0  0  0  0  0  0
   20.6170   40.3557   67.0346 N   0  0  0  0  0  0  0  0  0  0  0  0
   21.0806   41.5605   66.7728 C   0  0  0  0  0  0  0  0  0  0  0  0
   22.3466   41.8751   66.9664 N   0  0  0  0  0  0  0  0  0  0  0  0
   30.4268   35.2534   63.6413 O   0  5  0  0  0  0  0  0  0  0  0  0
   31.9823   37.5588   62.8293 O   0  0  0  0  0  0  0  0  0  0  0  0
   25.7249   37.8136   65.1061 S   0  0  0  0  0  0  0  0  0  0  0  0
   24.2876   38.3207   65.9394 C   0  0  0  0  0  0  0  0  0  0  0  0
   30.4192   37.4528   64.8794 O   0  0  0  0  0  0  0  0  0  0  0  0
   31.2035   35.9194   61.0005 O   0  5  0  0  0  0  0  0  0  0  0  0
   24.6706   38.2883   67.1949 N   0  0  0  0  0  0  0  0  0  0  0  0
   29.4534   37.2506   62.4430 O   0  0  0  0  0  0  0  0  0  0  0  0
   30.9353   38.4659   60.7213 O   0  0  0  0  0  0  0  0  0  0  0  0
   25.8920   37.9345   67.5305 C   0  0  2  0  0  0  0  0  0  0  0  0
   26.7598   37.5902   66.5452 C   0  0  2  0  0  0  0  0  0  0  0  0
   28.1964   37.1470   66.6386 C   0  0  0  0  0  0  0  0  0  0  0  0
   28.3858   35.8523   65.8450 C   0  0  0  0  0  0  0  0  0  0  0  0
   28.1965   36.1156   64.4532 O   0  0  0  0  0  0  0  0  0  0  0  0
  1 11  1  0  0  0  0
  3 13  1  6  0  0  0
  3 17  2  0  0  0  0
  3 20  1  0  0  0  0
  3 26  1  0  0  0  0
  4 14  1  1  0  0  0
  4 18  1  0  0  0  0
  4 21  2  0  0  0  0
  4 20  1  0  0  0  0
  5 19  1  0  0  0  0
  5  7  1  0  0  0  0
  6  7  2  0  0  0  0
  6 12  1  0  0  0  0
  7  8  1  0  0  0  0
  8  9  1  0  0  0  0
  8 10  2  0  0  0  0
 10 11  1  0  0  0  0
 11 12  2  0  0  0  0
 15 23  1  0  0  0  0
 15 16  1  0  0  0  0
 16 19  1  0  0  0  0
 19 22  1  0  0  0  0
 22  2  1  1  0  0  0
 22 23  1  0  0  0  0
 23 24  1  6  0  0  0
 24 25  1  0  0  0  0
 25 26  1  0  0  0  0
M  CHG  2  13  -1  18  -1
M  END
>  <CHROM.1>
-48.08463207,-31.80018953,-68.84732542,-37.73526229,-51.18299491,66.63801898
90.75400518,78.30308411,26.66787952,38.09689259,65.20152151,2.94042623,-0.55490330
2.14652981

>  <Name>
ligand

>  <RI>
0

>  <Rbt.Current_Directory>
/home/itssahil/PROJECTS/Mol_Feturizer/New_Systems/rnas/2HOJ

>  <Rbt.Executable>
rbdock ($Id: //depot/dev/client3/rdock/2013.1/src/exe/rbdock.cxx#4 $)

>  <Rbt.Library>
libRbt.so (2013.1, Build901 2013/11/27)

>  <Rbt.Parameter_File>
/export/apps/rDock/src/rDock_2013.1_src/data/scripts/dock_solv.prm

>  <Rbt.Receptor>
prm/pocket_docking_8.prm

>  <SCORE>
-8.88794

>  <SCORE.INTER>
-7.71411

>  <SCORE.INTER.CONST>
1

>  <SCORE.INTER.POLAR>
0

>  <SCORE.INTER.ROT>
8

>  <SCORE.INTER.SOLV>
26.1769

>  <SCORE.INTER.VDW>
-22.8017

>  <SCORE.INTER.norm>
-0.296696

>  <SCORE.INTRA>
-1.17384

>  <SCORE.INTRA.DIHEDRAL>
-1.13903

>  <SCORE.INTRA.DIHEDRAL.0>
11.6398

>  <SCORE.INTRA.POLAR>
0

>  <SCORE.INTRA.POLAR.0>
0

>  <SCORE.INTRA.REPUL>
0

>  <SCORE.INTRA.REPUL.0>
0

>  <SCORE.INTRA.SOLV>
1.9384

>  <SCORE.INTRA.SOLV.lig_0>
-81.722

>  <SCORE.INTRA.VDW>
-1.57352

>  <SCORE.INTRA.VDW.0>
1.12598

>  <SCORE.INTRA.norm>
-0.0451475

>  <SCORE.RESTR>
0

>  <SCORE.RESTR.CAVITY>
0

>  <SCORE.RESTR.norm>
0

>  <SCORE.SYSTEM>
0

>  <SCORE.SYSTEM.CONST>
0

>  <SCORE.SYSTEM.DIHEDRAL>
0

>  <SCORE.SYSTEM.SOLV>
0

>  <SCORE.SYSTEM.norm>
0

>  <SCORE.heavy>
26

>  <SCORE.norm>
-0.341844

>  <RMSD>
4.991

$$$$
ligand
 OpenBabel11021811433D
libRbt.so/2013.1/901 2013/11/27
 26 27  0  0  0  0  0  0  0  0999 V2000
   15.9767   39.1237   64.4098 C   0  0  0  0  0  0  0  0  0  0  0  0
   22.4864   40.5969   68.6314 C   0  0  0  0  0  0  0  0  0  0  0  0
   24.4540   35.6215   70.3379 P   0  0  1  0  0  0  0  0  0  0  0  0
   24.3429   35.2269   72.8911 P   0  0  1  0  0  0  0  0  0  0  0  0
   20.8122   41.2930   66.4908 C   0  0  0  0  0  0  0  0  0  0  0  0
   18.6982   41.4782   65.1461 C   0  0  0  0  0  0  0  0  0  0  0  0
   19.5326   40.7175   65.9407 C   0  0  0  0  0  0  0  0  0  0  0  0
   19.1609   39.4016   66.2215 C   0  0  0  0  0  0  0  0  0  0  0  0
   19.9642   38.5963   67.0151 N   0  0  0  0  0  0  0  0  0  0  0  0
   18.0216   38.9327   65.7212 N   0  0  0  0  0  0  0  0  0  0  0  0
   17.2573   39.6921   64.9633 C   0  0  0  0  0  0  0  0  0  0  0  0
   17.5797   40.9389   64.6797 N   0  0  0  0  0  0  0  0  0  0  0  0
   25.1217   34.3002   70.3432 O   0  5  0  0  0  0  0  0  0  0  0  0
   22.9421   34.6270   72.6377 O   0  0  0  0  0  0  0  0  0  0  0  0
   23.4690   38.8337   65.2746 S   0  0  0  0  0  0  0  0  0  0  0  0
   22.0880   39.8632   65.0505 C   0  0  0  0  0  0  0  0  0  0  0  0
   22.8812   35.4276   70.0615 O   0  0  0  0  0  0  0  0  0  0  0  0
   25.4480   34.0587   72.8267 O   0  5  0  0  0  0  0  0  0  0  0  0
   21.9113   40.3540   66.2554 N   0  0  0  0  0  0  0  0  0  0  0  0
   24.6644   36.3342   71.7667 O   0  0  0  0  0  0  0  0  0  0  0  0
   24.3740   35.8883   74.2874 O   0  0  0  0  0  0  0  0  0  0  0  0
   22.7015   40.0235   67.2534 C   0  0  2  0  0  0  0  0  0  0  0  0
   23.7115   39.1481   67.0166 C   0  0  2  0  0  0  0  0  0  0  0  0
   24.7499   38.5980   67.9588 C   0  0  0  0  0  0  0  0  0  0  0  0
   24.1155   37.5315   68.8545 C   0  0  0  0  0  0  0  0  0  0  0  0
   25.0933   36.5422   69.1818 O   0  0  0  0  0  0  0  0  0  0  0  0
  1 11  1  0  0  0  0
  3 13  1  1  0  0  0
  3 17  2  0  0  0  0
  3 20  1  0  0  0  0
  3 26  1  0  0  0  0
  4 14  1  6  0  0  0
  4 18  1  0  0  0  0
  4 21  2  0  0  0  0
  4 20  1  0  0  0  0
  5 19  1  0  0  0  0
  5  7  1  0  0  0  0
  6  7  2  0  0  0  0
  6 12  1  0  0  0  0
  7  8  1  0  0  0  0
  8  9  1  0  0  0  0
  8 10  2  0  0  0  0
 10 11  1  0  0  0  0
 11 12  2  0  0  0  0
 15 23  1  0  0  0  0
 15 16  1  0  0  0  0
 16 19  1  0  0  0  0
 19 22  1  0  0  0  0
 22  2  1  1  0  0  0
 22 23  1  0  0  0  0
 23 24  1  6  0  0  0
 24 25  1  0  0  0  0
 25 26  1  0  0  0  0
M  CHG  2  13  -1  18  -1
M  END
>  <CHROM.1>
-46.41659679,50.23196511,-132.14971802,-53.86240746,-104.19209285,148.35420797
169.29764134,157.03333373,22.36028048,37.85072593,68.46443462,2.15084854
-0.02621192,-0.92052227

>  <Name>
ligand

>  <RI>
0

>  <Rbt.Current_Directory>
/home/itssahil/PROJECTS/Mol_Feturizer/New_Systems/rnas/2HOJ

>  <Rbt.Executable>
rbdock ($Id: //depot/dev/client3/rdock/2013.1/src/exe/rbdock.cxx#4 $)

>  <Rbt.Library>
libRbt.so (2013.1, Build901 2013/11/27)

>  <Rbt.Parameter_File>
/export/apps/rDock/src/rDock_2013.1_src/data/scripts/dock_solv.prm

>  <Rbt.Receptor>
prm/pocket_docking_8.prm

>  <SCORE>
-21.7808

>  <SCORE.INTER>
-20.3627

>  <SCORE.INTER.CONST>
1

>  <SCORE.INTER.POLAR>
0

>  <SCORE.INTER.ROT>
8

>  <SCORE.INTER.SOLV>
22.91

>  <SCORE.INTER.VDW>
-30.1451

>  <SCORE.INTER.norm>
-0.78318

>  <SCORE.INTRA>
-1.41811

>  <SCORE.INTRA.DIHEDRAL>
-2.30294

>  <SCORE.INTRA.DIHEDRAL.0>
11.6398

>  <SCORE.INTRA.POLAR>
0

>  <SCORE.INTRA.POLAR.0>
0

>  <SCORE.INTRA.REPUL>
0

>  <SCORE.INTRA.REPUL.0>
0

>  <SCORE.INTRA.SOLV>
4.66369

>  <SCORE.INTRA.SOLV.lig_0>
-81.722

>  <SCORE.INTRA.VDW>
-2.59849

>  <SCORE.INTRA.VDW.0>
1.12598

>  <SCORE.INTRA.norm>
-0.0545428

>  <SCORE.RESTR>
0

>  <SCORE.RESTR.CAVITY>
0

>  <SCORE.RESTR.norm>
0

>  <SCORE.SYSTEM>
0

>  <SCORE.SYSTEM.CONST>
0

>  <SCORE.SYSTEM.DIHEDRAL>
0

>  <SCORE.SYSTEM.SOLV>
0

>  <SCORE.SYSTEM.norm>
0

>  <SCORE.heavy>
26

>  <SCORE.norm>
-0.837723

>  <RMSD>
5.011

$$$$
ligand
 OpenBabel11021811433D
libRbt.so/2013.1/901 2013/11/27
 26 27  0  0  0  0  0  0  0  0999 V2000
   24.5901   46.3739   63.5289 C   0  0  0  0  0  0  0  0  0  0  0  0
   24.7622   41.2487   67.0687 C   0  0  0  0  0  0  0  0  0  0  0  0
   24.9159   36.7358   69.2107 P   0  0  1  0  0  0  0  0  0  0  0  0
   26.3961   34.9275   70.3179 P   0  0  1  0  0  0  0  0  0  0  0  0
   22.2363   42.4613   66.9303 C   0  0  0  0  0  0  0  0  0  0  0  0
   23.4607   43.1349   64.8425 C   0  0  0  0  0  0  0  0  0  0  0  0
   22.8590   43.4979   66.0310 C   0  0  0  0  0  0  0  0  0  0  0  0
   22.8418   44.8499   66.3784 C   0  0  0  0  0  0  0  0  0  0  0  0
   22.2503   45.2661   67.5618 N   0  0  0  0  0  0  0  0  0  0  0  0
   23.4065   45.7330   65.5601 N   0  0  0  0  0  0  0  0  0  0  0  0
   23.9657   45.3432   64.4330 C   0  0  0  0  0  0  0  0  0  0  0  0
   23.9989   44.0742   64.0761 N   0  0  0  0  0  0  0  0  0  0  0  0
   23.8166   36.1335   69.9984 O   0  5  0  0  0  0  0  0  0  0  0  0
   27.6349   34.0210   70.1449 O   0  0  0  0  0  0  0  0  0  0  0  0
   22.0935   39.0383   65.2427 S   0  0  0  0  0  0  0  0  0  0  0  0
   21.3977   40.5418   65.7649 C   0  0  0  0  0  0  0  0  0  0  0  0
   25.5761   37.9424   70.0450 O   0  0  0  0  0  0  0  0  0  0  0  0
   26.7122   36.0679   71.4087 O   0  5  0  0  0  0  0  0  0  0  0  0
   22.4181   41.1320   66.3430 N   0  0  0  0  0  0  0  0  0  0  0  0
   26.0341   35.6170   68.9082 O   0  0  0  0  0  0  0  0  0  0  0  0
   25.1986   34.0758   70.7960 O   0  0  0  0  0  0  0  0  0  0  0  0
   23.5996   40.5572   66.4024 C   0  0  2  0  0  0  0  0  0  0  0  0
   23.7470   39.3231   65.8567 C   0  0  2  0  0  0  0  0  0  0  0  0
   24.9659   38.4412   65.7851 C   0  0  0  0  0  0  0  0  0  0  0  0
   25.3894   38.0367   67.1990 C   0  0  0  0  0  0  0  0  0  0  0  0
   24.3337   37.3000   67.8193 O   0  0  0  0  0  0  0  0  0  0  0  0
  1 11  1  0  0  0  0
  3 13  1  1  0  0  0
  3 17  2  0  0  0  0
  3 20  1  0  0  0  0
  3 26  1  0  0  0  0
  4 14  1  6  0  0  0
  4 18  1  0  0  0  0
  4 21  2  0  0  0  0
  4 20  1  0  0  0  0
  5 19  1  0  0  0  0
  5  7  1  0  0  0  0
  6  7  2  0  0  0  0
  6 12  1  0  0  0  0
  7  8  1  0  0  0  0
  8  9  1  0  0  0  0
  8 10  2  0  0  0  0
 10 11  1  0  0  0  0
 11 12  2  0  0  0  0
 15 23  1  0  0  0  0
 15 16  1  0  0  0  0
 16 19  1  0  0  0  0
 19 22  1  0  0  0  0
 22  2  1  1  0  0  0
 22 23  1  0  0  0  0
 23 24  1  6  0  0  0
 24 25  1  0  0  0  0
 25 26  1  0  0  0  0
M  CHG  2  13  -1  18  -1
M  END
>  <CHROM.1>
-50.91019633,-104.41071341,1.13202923,-170.11717222,-115.98391617,61.20264943
172.36458243,171.64413460,24.29261769,39.48202921,67.46955427,-1.95901819
0.81678377,2.93670438

>  <Name>
ligand

>  <RI>
0

>  <Rbt.Current_Directory>
/home/itssahil/PROJECTS/Mol_Feturizer/New_Systems/rnas/2HOJ

>  <Rbt.Executable>
rbdock ($Id: //depot/dev/client3/rdock/2013.1/src/exe/rbdock.cxx#4 $)

>  <Rbt.Library>
libRbt.so (2013.1, Build901 2013/11/27)

>  <Rbt.Parameter_File>
/export/apps/rDock/src/rDock_2013.1_src/data/scripts/dock_solv.prm

>  <Rbt.Receptor>
prm/pocket_docking_7.prm

>  <SCORE>
-10.3727

>  <SCORE.INTER>
-6.24312

>  <SCORE.INTER.CONST>
1

>  <SCORE.INTER.POLAR>
0

>  <SCORE.INTER.ROT>
8

>  <SCORE.INTER.SOLV>
22.3551

>  <SCORE.INTER.VDW>
-20.5471

>  <SCORE.INTER.norm>
-0.24012

>  <SCORE.INTRA>
-4.12958

>  <SCORE.INTRA.DIHEDRAL>
-6.37838

>  <SCORE.INTRA.DIHEDRAL.0>
11.6398

>  <SCORE.INTRA.POLAR>
0

>  <SCORE.INTRA.POLAR.0>
0

>  <SCORE.INTRA.REPUL>
0

>  <SCORE.INTRA.REPUL.0>
0

>  <SCORE.INTRA.SOLV>
2.97445

>  <SCORE.INTRA.SOLV.lig_0>
-81.722

>  <SCORE.INTRA.VDW>
-2.42761

>  <SCORE.INTRA.VDW.0>
1.12598

>  <SCORE.INTRA.norm>
-0.15883

>  <SCORE.RESTR>
0

>  <SCORE.RESTR.CAVITY>
0

>  <SCORE.RESTR.norm>
0

>  <SCORE.SYSTEM>
0

>  <SCORE.SYSTEM.CONST>
0

>  <SCORE.SYSTEM.DIHEDRAL>
0

>  <SCORE.SYSTEM.SOLV>
0

>  <SCORE.SYSTEM.norm>
0

>  <SCORE.heavy>
26

>  <SCORE.norm>
-0.39895

>  <RMSD>
5.049

$$$$
ligand
 OpenBabel11021811433D
libRbt.so/2013.1/901 2013/11/27
 26 27  0  0  0  0  0  0  0  0999 V2000
   16.6027   39.9400   64.6183 C   0  0  0  0  0  0  0  0  0  0  0  0
   24.1213   39.7951   66.2661 C   0  0  0  0  0  0  0  0  0  0  0  0
   24.7715   35.8154   71.6966 P   0  0  1  0  0  0  0  0  0  0  0  0
   24.5296   35.2040   74.1975 P   0  0  1  0  0  0  0  0  0  0  0  0
   21.7265   41.1634   66.7788 C   0  0  0  0  0  0  0  0  0  0  0  0
   19.3993   41.8122   66.0900 C   0  0  0  0  0  0  0  0  0  0  0  0
   20.3707   40.8381   66.2068 C   0  0  0  0  0  0  0  0  0  0  0  0
   20.0653   39.5442   65.7812 C   0  0  0  0  0  0  0  0  0  0  0  0
   21.0062   38.5299   65.8778 N   0  0  0  0  0  0  0  0  0  0  0  0
   18.8558   39.2968   65.2869 N   0  0  0  0  0  0  0  0  0  0  0  0
   17.9601   40.2576   65.1891 C   0  0  0  0  0  0  0  0  0  0  0  0
   18.2171   41.4899   65.5823 N   0  0  0  0  0  0  0  0  0  0  0  0
   25.8144   34.8100   71.3918 O   0  5  0  0  0  0  0  0  0  0  0  0
   22.9966   35.0291   74.1216 O   0  0  0  0  0  0  0  0  0  0  0  0
   22.2738   38.5124   69.4729 S   0  0  0  0  0  0  0  0  0  0  0  0
   21.3841   39.8012   68.7213 C   0  0  0  0  0  0  0  0  0  0  0  0
   23.3187   35.1339   71.5833 O   0  0  0  0  0  0  0  0  0  0  0  0
   25.2495   33.8260   73.7815 O   0  5  0  0  0  0  0  0  0  0  0  0
   22.1418   40.0946   67.6899 N   0  0  0  0  0  0  0  0  0  0  0  0
   24.9871   36.3752   73.1912 O   0  0  0  0  0  0  0  0  0  0  0  0
   24.9331   35.5800   75.6411 O   0  0  0  0  0  0  0  0  0  0  0  0
   23.2626   39.4473   67.4558 C   0  0  2  0  0  0  0  0  0  0  0  0
   23.6330   38.4633   68.3144 C   0  0  2  0  0  0  0  0  0  0  0  0
   24.8491   37.5749   68.2939 C   0  0  0  0  0  0  0  0  0  0  0  0
   24.6974   36.4742   69.3463 C   0  0  0  0  0  0  0  0  0  0  0  0
   24.8767   37.0338   70.6489 O   0  0  0  0  0  0  0  0  0  0  0  0
  1 11  1  0  0  0  0
  3 13  1  6  0  0  0
  3 17  2  0  0  0  0
  3 20  1  0  0  0  0
  3 26  1  0  0  0  0
  4 14  1  6  0  0  0
  4 18  1  0  0  0  0
  4 21  2  0  0  0  0
  4 20  1  0  0  0  0
  5 19  1  0  0  0  0
  5  7  1  0  0  0  0
  6  7  2  0  0  0  0
  6 12  1  0  0  0  0
  7  8  1  0  0  0  0
  8  9  1  0  0  0  0
  8 10  2  0  0  0  0
 10 11  1  0  0  0  0
 11 12  2  0  0  0  0
 15 23  1  0  0  0  0
 15 16  1  0  0  0  0
 16 19  1  0  0  0  0
 19 22  1  0  0  0  0
 22  2  1  1  0  0  0
 22 23  1  0  0  0  0
 23 24  1  6  0  0  0
 24 25  1  0  0  0  0
 25 26  1  0  0  0  0
M  CHG  2  13  -1  18  -1
M  END
>  <CHROM.1>
-73.17127591,-58.31381131,137.41806229,-69.62272810,9.01997279,-73.42516026
-177.47259399,59.23954785,22.67984097,37.80361987,69.50019262,2.09159457
0.09344936,-1.02866876

>  <Name>
ligand

>  <RI>
0

>  <Rbt.Current_Directory>
/home/itssahil/PROJECTS/Mol_Feturizer/New_Systems/rnas/2HOJ

>  <Rbt.Executable>
rbdock ($Id: //depot/dev/client3/rdock/2013.1/src/exe/rbdock.cxx#4 $)

>  <Rbt.Library>
libRbt.so (2013.1, Build901 2013/11/27)

>  <Rbt.Parameter_File>
/export/apps/rDock/src/rDock_2013.1_src/data/scripts/dock_solv.prm

>  <Rbt.Receptor>
prm/pocket_docking_8.prm

>  <SCORE>
-24.7002

>  <SCORE.INTER>
-21.6204

>  <SCORE.INTER.CONST>
1

>  <SCORE.INTER.POLAR>
0

>  <SCORE.INTER.ROT>
8

>  <SCORE.INTER.SOLV>
14.7296

>  <SCORE.INTER.VDW>
-28.2568

>  <SCORE.INTER.norm>
-0.831553

>  <SCORE.INTRA>
-3.07982

>  <SCORE.INTRA.DIHEDRAL>
-5.93404

>  <SCORE.INTRA.DIHEDRAL.0>
11.6398

>  <SCORE.INTRA.POLAR>
0

>  <SCORE.INTRA.POLAR.0>
0

>  <SCORE.INTRA.REPUL>
0

>  <SCORE.INTRA.REPUL.0>
0

>  <SCORE.INTRA.SOLV>
6.06941

>  <SCORE.INTRA.SOLV.lig_0>
-81.722

>  <SCORE.INTRA.VDW>
-3.1475

>  <SCORE.INTRA.VDW.0>
1.12598

>  <SCORE.INTRA.norm>
-0.118455

>  <SCORE.RESTR>
0

>  <SCORE.RESTR.CAVITY>
0

>  <SCORE.RESTR.norm>
0

>  <SCORE.SYSTEM>
0

>  <SCORE.SYSTEM.CONST>
0

>  <SCORE.SYSTEM.DIHEDRAL>
0

>  <SCORE.SYSTEM.SOLV>
0

>  <SCORE.SYSTEM.norm>
0

>  <SCORE.heavy>
26

>  <SCORE.norm>
-0.950008

>  <RMSD>
5.197

$$$$
ligand
 OpenBabel11021811433D
libRbt.so/2013.1/901 2013/11/27
 26 27  0  0  0  0  0  0  0  0999 V2000
   21.8854   33.7687   71.1984 C   0  0  0  0  0  0  0  0  0  0  0  0
   24.8163   40.5501   67.6748 C   0  0  0  0  0  0  0  0  0  0  0  0
   29.0933   37.6772   66.2400 P   0  0  1  0  0  0  0  0  0  0  0  0
   29.5094   36.0534   64.2709 P   0  0  1  0  0  0  0  0  0  0  0  0
   22.8913   38.7012   68.5380 C   0  0  0  0  0  0  0  0  0  0  0  0
   23.6628   36.6252   69.7240 C   0  0  0  0  0  0  0  0  0  0  0  0
   22.6236   37.3958   69.2419 C   0  0  0  0  0  0  0  0  0  0  0  0
   21.3184   36.9352   69.4235 C   0  0  0  0  0  0  0  0  0  0  0  0
   20.2397   37.6720   68.9574 N   0  0  0  0  0  0  0  0  0  0  0  0
   21.1245   35.7759   70.0453 N   0  0  0  0  0  0  0  0  0  0  0  0
   22.1453   35.0746   70.4937 C   0  0  0  0  0  0  0  0  0  0  0  0
   23.3899   35.4816   70.3380 N   0  0  0  0  0  0  0  0  0  0  0  0
   28.3708   36.8137   67.2012 O   0  5  0  0  0  0  0  0  0  0  0  0
   28.2078   35.3899   64.7725 O   0  0  0  0  0  0  0  0  0  0  0  0
   24.4175   37.5003   65.2496 S   0  0  0  0  0  0  0  0  0  0  0  0
   23.3382   37.3585   66.6033 C   0  0  0  0  0  0  0  0  0  0  0  0
   29.7789   38.9011   67.0273 O   0  0  0  0  0  0  0  0  0  0  0  0
   29.1609   37.1118   63.1097 O   0  5  0  0  0  0  0  0  0  0  0  0
   23.6115   38.4443   67.2890 N   0  0  0  0  0  0  0  0  0  0  0  0
   30.2301   36.8144   65.4938 O   0  0  0  0  0  0  0  0  0  0  0  0
   30.4568   34.9685   63.7110 O   0  0  0  0  0  0  0  0  0  0  0  0
   24.5147   39.3069   66.8767 C   0  0  2  0  0  0  0  0  0  0  0  0
   25.1751   39.0487   65.7192 C   0  0  2  0  0  0  0  0  0  0  0  0
   26.2456   39.8472   65.0226 C   0  0  0  0  0  0  0  0  0  0  0  0
   27.6093   39.5199   65.6353 C   0  0  0  0  0  0  0  0  0  0  0  0
   28.0570   38.2526   65.1500 O   0  0  0  0  0  0  0  0  0  0  0  0
  1 11  1  0  0  0  0
  3 13  1  1  0  0  0
  3 17  2  0  0  0  0
  3 20  1  0  0  0  0
  3 26  1  0  0  0  0
  4 14  1  1  0  0  0
  4 18  1  0  0  0  0
  4 21  2  0  0  0  0
  4 20  1  0  0  0  0
  5 19  1  0  0  0  0
  5  7  1  0  0  0  0
  6  7  2  0  0  0  0
  6 12  1  0  0  0  0
  7  8  1  0  0  0  0
  8  9  1  0  0  0  0
  8 10  2  0  0  0  0
 10 11  1  0  0  0  0
 11 12  2  0  0  0  0
 15 23  1  0  0  0  0
 15 16  1  0  0  0  0
 16 19  1  0  0  0  0
 19 22  1  0  0  0  0
 22  2  1  1  0  0  0
 22 23  1  0  0  0  0
 23 24  1  6  0  0  0
 24 25  1  0  0  0  0
 25 26  1  0  0  0  0
M  CHG  2  13  -1  18  -1
M  END
>  <CHROM.1>
83.81683236,35.20362371,65.03820498,-47.34186490,-96.63524279,76.86965427
-155.99449336,93.02071201,25.91120608,37.29613754,66.79243413,-2.86887532
0.50525698,-0.43681126

>  <Name>
ligand

>  <RI>
0

>  <Rbt.Current_Directory>
/home/itssahil/PROJECTS/Mol_Feturizer/New_Systems/rnas/2HOJ

>  <Rbt.Executable>
rbdock ($Id: //depot/dev/client3/rdock/2013.1/src/exe/rbdock.cxx#4 $)

>  <Rbt.Library>
libRbt.so (2013.1, Build901 2013/11/27)

>  <Rbt.Parameter_File>
/export/apps/rDock/src/rDock_2013.1_src/data/scripts/dock_solv.prm

>  <Rbt.Receptor>
prm/pocket_docking_7.prm

>  <SCORE>
-11.9995

>  <SCORE.INTER>
-9.04827

>  <SCORE.INTER.CONST>
1

>  <SCORE.INTER.POLAR>
0

>  <SCORE.INTER.ROT>
8

>  <SCORE.INTER.SOLV>
23.6918

>  <SCORE.INTER.VDW>
-22.8628

>  <SCORE.INTER.norm>
-0.34801

>  <SCORE.INTRA>
-2.95125

>  <SCORE.INTRA.DIHEDRAL>
-0.917275

>  <SCORE.INTRA.DIHEDRAL.0>
11.6398

>  <SCORE.INTRA.POLAR>
0

>  <SCORE.INTRA.POLAR.0>
0

>  <SCORE.INTRA.REPUL>
0

>  <SCORE.INTRA.REPUL.0>
0

>  <SCORE.INTRA.SOLV>
-0.0295859

>  <SCORE.INTRA.SOLV.lig_0>
-81.722

>  <SCORE.INTRA.VDW>
-2.47782

>  <SCORE.INTRA.VDW.0>
1.12598

>  <SCORE.INTRA.norm>
-0.11351

>  <SCORE.RESTR>
0

>  <SCORE.RESTR.CAVITY>
0

>  <SCORE.RESTR.norm>
0

>  <SCORE.SYSTEM>
0

>  <SCORE.SYSTEM.CONST>
0

>  <SCORE.SYSTEM.DIHEDRAL>
0

>  <SCORE.SYSTEM.SOLV>
0

>  <SCORE.SYSTEM.norm>
0

>  <SCORE.heavy>
26

>  <SCORE.norm>
-0.46152

>  <RMSD>
5.225

$$$$
ligand
 OpenBabel11021811433D
libRbt.so/2013.1/901 2013/11/27
 26 27  0  0  0  0  0  0  0  0999 V2000
   24.5283   34.5294   72.2846 C   0  0  0  0  0  0  0  0  0  0  0  0
   22.8679   39.8344   68.2774 C   0  0  0  0  0  0  0  0  0  0  0  0
   27.7066   39.4902   68.2762 P   0  0  1  0  0  0  0  0  0  0  0  0
   30.0621   38.7766   67.4830 P   0  0  1  0  0  0  0  0  0  0  0  0
   21.6977   37.2865   68.1853 C   0  0  0  0  0  0  0  0  0  0  0  0
   23.8258   36.5166   69.2764 C   0  0  0  0  0  0  0  0  0  0  0  0
   22.4457   36.5562   69.2709 C   0  0  0  0  0  0  0  0  0  0  0  0
   21.7606   35.9030   70.2968 C   0  0  0  0  0  0  0  0  0  0  0  0
   20.3743   35.9127   70.3363 N   0  0  0  0  0  0  0  0  0  0  0  0
   22.4571   35.2657   71.2333 N   0  0  0  0  0  0  0  0  0  0  0  0
   23.7739   35.2572   71.2027 C   0  0  0  0  0  0  0  0  0  0  0  0
   24.4507   35.8642   70.2475 N   0  0  0  0  0  0  0  0  0  0  0  0
   27.7192   38.6315   69.4821 O   0  5  0  0  0  0  0  0  0  0  0  0
   30.5780   40.2324   67.4605 O   0  0  0  0  0  0  0  0  0  0  0  0
   24.0187   37.7248   65.1842 S   0  0  0  0  0  0  0  0  0  0  0  0
   22.8957   36.8283   66.1602 C   0  0  0  0  0  0  0  0  0  0  0  0
   28.4185   40.8939   68.6087 O   0  0  0  0  0  0  0  0  0  0  0  0
   30.2498   38.1622   68.9587 O   0  5  0  0  0  0  0  0  0  0  0  0
   22.6311   37.6770   67.1264 N   0  0  0  0  0  0  0  0  0  0  0  0
   28.5017   38.7535   67.0851 O   0  0  0  0  0  0  0  0  0  0  0  0
   30.8639   37.9313   66.4679 O   0  0  0  0  0  0  0  0  0  0  0  0
   23.1830   38.8703   67.1615 C   0  0  2  0  0  0  0  0  0  0  0  0
   24.0493   39.2119   66.1739 C   0  0  2  0  0  0  0  0  0  0  0  0
   24.8189   40.4902   65.9676 C   0  0  0  0  0  0  0  0  0  0  0  0
   26.2398   40.3263   66.5119 C   0  0  0  0  0  0  0  0  0  0  0  0
   26.1849   39.7542   67.8202 O   0  0  0  0  0  0  0  0  0  0  0  0
  1 11  1  0  0  0  0
  3 13  1  1  0  0  0
  3 17  2  0  0  0  0
  3 20  1  0  0  0  0
  3 26  1  0  0  0  0
  4 14  1  6  0  0  0
  4 18  1  0  0  0  0
  4 21  2  0  0  0  0
  4 20  1  0  0  0  0
  5 19  1  0  0  0  0
  5  7  1  0  0  0  0
  6  7  2  0  0  0  0
  6 12  1  0  0  0  0
  7  8  1  0  0  0  0
  8  9  1  0  0  0  0
  8 10  2  0  0  0  0
 10 11  1  0  0  0  0
 11 12  2  0  0  0  0
 15 23  1  0  0  0  0
 15 16  1  0  0  0  0
 16 19  1  0  0  0  0
 19 22  1  0  0  0  0
 22  2  1  1  0  0  0
 22 23  1  0  0  0  0
 23 24  1  6  0  0  0
 24 25  1  0  0  0  0
 25 26  1  0  0  0  0
M  CHG  2  13  -1  18  -1
M  END
>  <CHROM.1>
-70.76110794,86.79666135,9.70680817,-67.05634225,-82.84625247,-47.85826290
175.10452820,-167.55025478,25.67081908,38.10459855,68.14826290,-2.72434714
-0.18560843,-0.95593233

>  <Name>
ligand

>  <RI>
0

>  <Rbt.Current_Directory>
/home/itssahil/PROJECTS/Mol_Feturizer/New_Systems/rnas/2HOJ

>  <Rbt.Executable>
rbdock ($Id: //depot/dev/client3/rdock/2013.1/src/exe/rbdock.cxx#4 $)

>  <Rbt.Library>
libRbt.so (2013.1, Build901 2013/11/27)

>  <Rbt.Parameter_File>
/export/apps/rDock/src/rDock_2013.1_src/data/scripts/dock_solv.prm

>  <Rbt.Receptor>
prm/pocket_docking_7.prm

>  <SCORE>
-23.4815

>  <SCORE.INTER>
-17.6894

>  <SCORE.INTER.CONST>
1

>  <SCORE.INTER.POLAR>
-4.02676

>  <SCORE.INTER.ROT>
8

>  <SCORE.INTER.SOLV>
27.4418

>  <SCORE.INTER.VDW>
-16.451

>  <SCORE.INTER.norm>
-0.680361

>  <SCORE.INTRA>
-5.79215

>  <SCORE.INTRA.DIHEDRAL>
-5.48802

>  <SCORE.INTRA.DIHEDRAL.0>
11.6398

>  <SCORE.INTRA.POLAR>
0

>  <SCORE.INTRA.POLAR.0>
0

>  <SCORE.INTRA.REPUL>
0

>  <SCORE.INTRA.REPUL.0>
0

>  <SCORE.INTRA.SOLV>
0.996388

>  <SCORE.INTRA.SOLV.lig_0>
-81.722

>  <SCORE.INTRA.VDW>
-3.54633

>  <SCORE.INTRA.VDW.0>
1.12598

>  <SCORE.INTRA.norm>
-0.222775

>  <SCORE.RESTR>
0

>  <SCORE.RESTR.CAVITY>
0

>  <SCORE.RESTR.norm>
0

>  <SCORE.SYSTEM>
0

>  <SCORE.SYSTEM.CONST>
0

>  <SCORE.SYSTEM.DIHEDRAL>
0

>  <SCORE.SYSTEM.SOLV>
0

>  <SCORE.SYSTEM.norm>
0

>  <SCORE.heavy>
26

>  <SCORE.norm>
-0.903136

>  <RMSD>
5.242

$$$$
ligand
 OpenBabel11021811433D
libRbt.so/2013.1/901 2013/11/27
 26 27  0  0  0  0  0  0  0  0999 V2000
   23.8321   45.0497   63.6214 C   0  0  0  0  0  0  0  0  0  0  0  0
   21.7034   39.8281   69.3035 C   0  0  0  0  0  0  0  0  0  0  0  0
   25.8496   36.1466   69.8636 P   0  0  1  0  0  0  0  0  0  0  0  0
   25.5677   35.8830   72.4205 P   0  0  1  0  0  0  0  0  0  0  0  0
   21.0828   41.5818   67.2038 C   0  0  0  0  0  0  0  0  0  0  0  0
   21.1448   43.5141   65.5994 C   0  0  0  0  0  0  0  0  0  0  0  0
   21.8118   42.4990   66.2558 C   0  0  0  0  0  0  0  0  0  0  0  0
   23.1788   42.3438   66.0193 C   0  0  0  0  0  0  0  0  0  0  0  0
   23.8942   41.3391   66.6534 N   0  0  0  0  0  0  0  0  0  0  0  0
   23.7843   43.1705   65.1718 N   0  0  0  0  0  0  0  0  0  0  0  0
   23.1102   44.1291   64.5704 C   0  0  0  0  0  0  0  0  0  0  0  0
   21.8185   44.3020   64.7719 N   0  0  0  0  0  0  0  0  0  0  0  0
   26.4885   36.9521   68.7985 O   0  5  0  0  0  0  0  0  0  0  0  0
   25.4330   36.6240   73.7693 O   0  0  0  0  0  0  0  0  0  0  0  0
   21.8590   38.1241   65.7801 S   0  0  0  0  0  0  0  0  0  0  0  0
   21.4184   39.7983   65.6378 C   0  0  0  0  0  0  0  0  0  0  0  0
   26.6063   34.7332   69.9954 O   0  0  0  0  0  0  0  0  0  0  0  0
   24.1740   35.1630   72.0608 O   0  5  0  0  0  0  0  0  0  0  0  0
   21.4159   40.1904   66.8908 N   0  0  0  0  0  0  0  0  0  0  0  0
   25.9426   36.9381   71.2631 O   0  0  0  0  0  0  0  0  0  0  0  0
   26.6837   34.8194   72.5275 O   0  0  0  0  0  0  0  0  0  0  0  0
   21.7094   39.3621   67.8694 C   0  0  2  0  0  0  0  0  0  0  0  0
   22.0106   38.0754   67.5596 C   0  0  2  0  0  0  0  0  0  0  0  0
   22.3750   36.9271   68.4638 C   0  0  0  0  0  0  0  0  0  0  0  0
   23.7846   37.1405   69.0201 C   0  0  0  0  0  0  0  0  0  0  0  0
   24.3027   35.8955   69.4930 O   0  0  0  0  0  0  0  0  0  0  0  0
  1 11  1  0  0  0  0
  3 13  1  6  0  0  0
  3 17  2  0  0  0  0
  3 20  1  0  0  0  0
  3 26  1  0  0  0  0
  4 14  1  1  0  0  0
  4 18  1  0  0  0  0
  4 21  2  0  0  0  0
  4 20  1  0  0  0  0
  5 19  1  0  0  0  0
  5  7  1  0  0  0  0
  6  7  2  0  0  0  0
  6 12  1  0  0  0  0
  7  8  1  0  0  0  0
  8  9  1  0  0  0  0
  8 10  2  0  0  0  0
 10 11  1  0  0  0  0
 11 12  2  0  0  0  0
 15 23  1  0  0  0  0
 15 16  1  0  0  0  0
 16 19  1  0  0  0  0
 19 22  1  0  0  0  0
 22  2  1  1  0  0  0
 22 23  1  0  0  0  0
 23 24  1  6  0  0  0
 24 25  1  0  0  0  0
 25 26  1  0  0  0  0
M  CHG  2  13  -1  18  -1
M  END
>  <CHROM.1>
-166.51973576,-44.93287496,131.44604520,-171.68593914,107.87199202,-160.78648637
172.02544286,-43.74468589,23.72437099,38.77149497,68.40209901,-1.96050662
0.49457028,2.61485361

>  <Name>
ligand

>  <RI>
0

>  <Rbt.Current_Directory>
/home/itssahil/PROJECTS/Mol_Feturizer/New_Systems/rnas/2HOJ

>  <Rbt.Executable>
rbdock ($Id: //depot/dev/client3/rdock/2013.1/src/exe/rbdock.cxx#4 $)

>  <Rbt.Library>
libRbt.so (2013.1, Build901 2013/11/27)

>  <Rbt.Parameter_File>
/export/apps/rDock/src/rDock_2013.1_src/data/scripts/dock_solv.prm

>  <Rbt.Receptor>
prm/pocket_docking_6.prm

>  <SCORE>
-13.5489

>  <SCORE.INTER>
-11.5317

>  <SCORE.INTER.CONST>
1

>  <SCORE.INTER.POLAR>
0

>  <SCORE.INTER.ROT>
8

>  <SCORE.INTER.SOLV>
13.3942

>  <SCORE.INTER.VDW>
-21.0859

>  <SCORE.INTER.norm>
-0.443526

>  <SCORE.INTRA>
-2.01722

>  <SCORE.INTRA.DIHEDRAL>
-4.6249

>  <SCORE.INTRA.DIHEDRAL.0>
11.6398

>  <SCORE.INTRA.POLAR>
0

>  <SCORE.INTRA.POLAR.0>
0

>  <SCORE.INTRA.REPUL>
0

>  <SCORE.INTRA.REPUL.0>
0

>  <SCORE.INTRA.SOLV>
6.25234

>  <SCORE.INTRA.SOLV.lig_0>
-81.722

>  <SCORE.INTRA.VDW>
-2.83094

>  <SCORE.INTRA.VDW.0>
1.12598

>  <SCORE.INTRA.norm>
-0.0775855

>  <SCORE.RESTR>
0

>  <SCORE.RESTR.CAVITY>
0

>  <SCORE.RESTR.norm>
0

>  <SCORE.SYSTEM>
0

>  <SCORE.SYSTEM.CONST>
0

>  <SCORE.SYSTEM.DIHEDRAL>
0

>  <SCORE.SYSTEM.SOLV>
0

>  <SCORE.SYSTEM.norm>
0

>  <SCORE.heavy>
26

>  <SCORE.norm>
-0.521112

>  <RMSD>
5.295

$$$$
ligand
 OpenBabel11021811433D
libRbt.so/2013.1/901 2013/11/27
 26 27  0  0  0  0  0  0  0  0999 V2000
   19.4618   43.8936   66.1940 C   0  0  0  0  0  0  0  0  0  0  0  0
   23.6923   39.5078   68.0652 C   0  0  0  0  0  0  0  0  0  0  0  0
   24.0776   34.6500   70.9119 P   0  0  1  0  0  0  0  0  0  0  0  0
   25.6594   34.8095   72.9514 P   0  0  1  0  0  0  0  0  0  0  0  0
   23.4885   39.9674   65.3054 C   0  0  0  0  0  0  0  0  0  0  0  0
   21.1079   40.6412   65.7421 C   0  0  0  0  0  0  0  0  0  0  0  0
   22.4237   41.0077   65.5404 C   0  0  0  0  0  0  0  0  0  0  0  0
   22.7428   42.3665   65.5601 C   0  0  0  0  0  0  0  0  0  0  0  0
   24.0497   42.7866   65.3623 N   0  0  0  0  0  0  0  0  0  0  0  0
   21.7736   43.2535   65.7656 N   0  0  0  0  0  0  0  0  0  0  0  0
   20.5316   42.8594   65.9584 C   0  0  0  0  0  0  0  0  0  0  0  0
   20.1973   41.5838   65.9456 N   0  0  0  0  0  0  0  0  0  0  0  0
   25.1394   34.1507   70.0092 O   0  5  0  0  0  0  0  0  0  0  0  0
   25.3903   36.3208   73.1243 O   0  0  0  0  0  0  0  0  0  0  0  0
   22.1824   36.4695   66.1080 S   0  0  0  0  0  0  0  0  0  0  0  0
   22.5613   37.7746   65.0261 C   0  0  0  0  0  0  0  0  0  0  0  0
   22.6435   34.1472   70.3843 O   0  0  0  0  0  0  0  0  0  0  0  0
   26.0691   34.1702   74.3704 O   0  5  0  0  0  0  0  0  0  0  0  0
   23.0426   38.6810   65.8450 N   0  0  0  0  0  0  0  0  0  0  0  0
   24.3301   34.0869   72.3995 O   0  0  0  0  0  0  0  0  0  0  0  0
   26.8121   34.6047   71.9427 O   0  0  0  0  0  0  0  0  0  0  0  0
   23.1360   38.4571   67.1377 C   0  0  2  0  0  0  0  0  0  0  0  0
   22.7130   37.2607   67.6194 C   0  0  2  0  0  0  0  0  0  0  0  0
   22.6986   36.7428   69.0338 C   0  0  0  0  0  0  0  0  0  0  0  0
   24.1288   36.6935   69.5760 C   0  0  0  0  0  0  0  0  0  0  0  0
   24.1067   36.2598   70.9374 O   0  0  0  0  0  0  0  0  0  0  0  0
  1 11  1  0  0  0  0
  3 13  1  6  0  0  0
  3 17  2  0  0  0  0
  3 20  1  0  0  0  0
  3 26  1  0  0  0  0
  4 14  1  1  0  0  0
  4 18  1  0  0  0  0
  4 21  2  0  0  0  0
  4 20  1  0  0  0  0
  5 19  1  0  0  0  0
  5  7  1  0  0  0  0
  6  7  2  0  0  0  0
  6 12  1  0  0  0  0
  7  8  1  0  0  0  0
  8  9  1  0  0  0  0
  8 10  2  0  0  0  0
 10 11  1  0  0  0  0
 11 12  2  0  0  0  0
 15 23  1  0  0  0  0
 15 16  1  0  0  0  0
 16 19  1  0  0  0  0
 19 22  1  0  0  0  0
 22  2  1  1  0  0  0
 22 23  1  0  0  0  0
 23 24  1  6  0  0  0
 24 25  1  0  0  0  0
 25 26  1  0  0  0  0
M  CHG  2  13  -1  18  -1
M  END
>  <CHROM.1>
68.69527826,100.64062627,-22.37732172,66.32881970,118.79050112,177.38481827
84.51238881,49.50726486,23.40754870,37.68450715,68.72174323,-2.47441635,1.12671229
-3.04097570

>  <Name>
ligand

>  <RI>
0

>  <Rbt.Current_Directory>
/home/itssahil/PROJECTS/Mol_Feturizer/New_Systems/rnas/2HOJ

>  <Rbt.Executable>
rbdock ($Id: //depot/dev/client3/rdock/2013.1/src/exe/rbdock.cxx#4 $)

>  <Rbt.Library>
libRbt.so (2013.1, Build901 2013/11/27)

>  <Rbt.Parameter_File>
/export/apps/rDock/src/rDock_2013.1_src/data/scripts/dock_solv.prm

>  <Rbt.Receptor>
prm/pocket_docking_8.prm

>  <SCORE>
-17.0214

>  <SCORE.INTER>
-13.9901

>  <SCORE.INTER.CONST>
1

>  <SCORE.INTER.POLAR>
0

>  <SCORE.INTER.ROT>
8

>  <SCORE.INTER.SOLV>
13.8865

>  <SCORE.INTER.VDW>
-22.8889

>  <SCORE.INTER.norm>
-0.53808

>  <SCORE.INTRA>
-3.03133

>  <SCORE.INTRA.DIHEDRAL>
-4.1011

>  <SCORE.INTRA.DIHEDRAL.0>
11.6398

>  <SCORE.INTRA.POLAR>
0

>  <SCORE.INTRA.POLAR.0>
0

>  <SCORE.INTRA.REPUL>
0

>  <SCORE.INTRA.REPUL.0>
0

>  <SCORE.INTRA.SOLV>
1.68595

>  <SCORE.INTRA.SOLV.lig_0>
-81.722

>  <SCORE.INTRA.VDW>
-1.82376

>  <SCORE.INTRA.VDW.0>
1.12598

>  <SCORE.INTRA.norm>
-0.11659

>  <SCORE.RESTR>
0

>  <SCORE.RESTR.CAVITY>
0

>  <SCORE.RESTR.norm>
0

>  <SCORE.SYSTEM>
0

>  <SCORE.SYSTEM.CONST>
0

>  <SCORE.SYSTEM.DIHEDRAL>
0

>  <SCORE.SYSTEM.SOLV>
0

>  <SCORE.SYSTEM.norm>
0

>  <SCORE.heavy>
26

>  <SCORE.norm>
-0.65467

>  <RMSD>
5.375

$$$$
ligand
 OpenBabel11021811433D
libRbt.so/2013.1/901 2013/11/27
 26 27  0  0  0  0  0  0  0  0999 V2000
   22.5070   45.4046   67.4555 C   0  0  0  0  0  0  0  0  0  0  0  0
   24.2053   38.0729   66.1182 C   0  0  0  0  0  0  0  0  0  0  0  0
   26.6444   35.9918   69.5290 P   0  0  1  0  0  0  0  0  0  0  0  0
   24.3416   35.5144   70.6042 P   0  0  1  0  0  0  0  0  0  0  0  0
   23.3950   40.4302   64.8314 C   0  0  0  0  0  0  0  0  0  0  0  0
   23.4270   42.9417   64.8904 C   0  0  0  0  0  0  0  0  0  0  0  0
   23.1596   41.7462   65.5272 C   0  0  0  0  0  0  0  0  0  0  0  0
   22.6652   41.7873   66.8320 C   0  0  0  0  0  0  0  0  0  0  0  0
   22.3811   40.6144   67.5154 N   0  0  0  0  0  0  0  0  0  0  0  0
   22.4759   42.9685   67.4128 N   0  0  0  0  0  0  0  0  0  0  0  0
   22.7399   44.0854   66.7664 C   0  0  0  0  0  0  0  0  0  0  0  0
   23.2080   44.0808   65.5335 N   0  0  0  0  0  0  0  0  0  0  0  0
   26.9993   37.0589   70.4918 O   0  5  0  0  0  0  0  0  0  0  0  0
   22.8260   35.8018   70.5230 O   0  0  0  0  0  0  0  0  0  0  0  0
   27.1957   40.1166   64.6274 S   0  0  0  0  0  0  0  0  0  0  0  0
   25.6854   40.9171   64.3183 C   0  0  0  0  0  0  0  0  0  0  0  0
   27.0551   34.5606   70.1378 O   0  0  0  0  0  0  0  0  0  0  0  0
   24.5807   33.9322   70.7759 O   0  5  0  0  0  0  0  0  0  0  0  0
   24.8215   40.1015   64.8772 N   0  0  0  0  0  0  0  0  0  0  0  0
   25.0578   36.0235   69.2545 O   0  0  0  0  0  0  0  0  0  0  0  0
   24.9419   36.2602   71.8173 O   0  0  0  0  0  0  0  0  0  0  0  0
   25.2097   38.9988   65.4798 C   0  0  2  0  0  0  0  0  0  0  0  0
   26.5355   38.7089   65.5074 C   0  0  2  0  0  0  0  0  0  0  0  0
   27.2512   37.5308   66.1145 C   0  0  0  0  0  0  0  0  0  0  0  0
   26.9659   37.4766   67.6170 C   0  0  0  0  0  0  0  0  0  0  0  0
   27.4315   36.2330   68.1450 O   0  0  0  0  0  0  0  0  0  0  0  0
  1 11  1  0  0  0  0
  3 13  1  1  0  0  0
  3 17  2  0  0  0  0
  3 20  1  0  0  0  0
  3 26  1  0  0  0  0
  4 14  1  6  0  0  0
  4 18  1  0  0  0  0
  4 21  2  0  0  0  0
  4 20  1  0  0  0  0
  5 19  1  0  0  0  0
  5  7  1  0  0  0  0
  6  7  2  0  0  0  0
  6 12  1  0  0  0  0
  7  8  1  0  0  0  0
  8  9  1  0  0  0  0
  8 10  2  0  0  0  0
 10 11  1  0  0  0  0
 11 12  2  0  0  0  0
 15 23  1  0  0  0  0
 15 16  1  0  0  0  0
 16 19  1  0  0  0  0
 19 22  1  0  0  0  0
 22  2  1  6  0  0  0
 22 23  1  0  0  0  0
 23 24  1  1  0  0  0
 24 25  1  0  0  0  0
 25 26  1  0  0  0  0
M  CHG  2  13  -1  18  -1
M  END
>  <CHROM.1>
-70.13003952,-60.43209655,79.24498180,168.00505479,120.37424003,169.25159543
-159.23570759,-63.31725924,24.96125043,38.72318894,67.65534946,1.87595678
0.69194228,-0.75378784

>  <Name>
ligand

>  <RI>
0

>  <Rbt.Current_Directory>
/home/itssahil/PROJECTS/Mol_Feturizer/New_Systems/rnas/2HOJ

>  <Rbt.Executable>
rbdock ($Id: //depot/dev/client3/rdock/2013.1/src/exe/rbdock.cxx#4 $)

>  <Rbt.Library>
libRbt.so (2013.1, Build901 2013/11/27)

>  <Rbt.Parameter_File>
/export/apps/rDock/src/rDock_2013.1_src/data/scripts/dock_solv.prm

>  <Rbt.Receptor>
prm/pocket_docking_6.prm

>  <SCORE>
-9.63687

>  <SCORE.INTER>
-7.10154

>  <SCORE.INTER.CONST>
1

>  <SCORE.INTER.POLAR>
0

>  <SCORE.INTER.ROT>
8

>  <SCORE.INTER.SOLV>
17.4413

>  <SCORE.INTER.VDW>
-19.4815

>  <SCORE.INTER.norm>
-0.273136

>  <SCORE.INTRA>
-2.53534

>  <SCORE.INTRA.DIHEDRAL>
-4.31751

>  <SCORE.INTRA.DIHEDRAL.0>
11.6398

>  <SCORE.INTRA.POLAR>
0

>  <SCORE.INTRA.POLAR.0>
0

>  <SCORE.INTRA.REPUL>
0

>  <SCORE.INTRA.REPUL.0>
0

>  <SCORE.INTRA.SOLV>
4.81407

>  <SCORE.INTRA.SOLV.lig_0>
-81.722

>  <SCORE.INTRA.VDW>
-2.78362

>  <SCORE.INTRA.VDW.0>
1.12598

>  <SCORE.INTRA.norm>
-0.0975131

>  <SCORE.RESTR>
0

>  <SCORE.RESTR.CAVITY>
0

>  <SCORE.RESTR.norm>
0

>  <SCORE.SYSTEM>
0

>  <SCORE.SYSTEM.CONST>
0

>  <SCORE.SYSTEM.DIHEDRAL>
0

>  <SCORE.SYSTEM.SOLV>
0

>  <SCORE.SYSTEM.norm>
0

>  <SCORE.heavy>
26

>  <SCORE.norm>
-0.370649

>  <RMSD>
5.381

$$$$
ligand
 OpenBabel11021811433D
libRbt.so/2013.1/901 2013/11/27
 26 27  0  0  0  0  0  0  0  0999 V2000
   25.0578   45.1293   64.0867 C   0  0  0  0  0  0  0  0  0  0  0  0
   21.5522   41.7747   67.3430 C   0  0  0  0  0  0  0  0  0  0  0  0
   23.4925   38.7345   65.4581 P   0  0  1  0  0  0  0  0  0  0  0  0
   25.9808   39.2252   65.9627 P   0  0  1  0  0  0  0  0  0  0  0  0
   20.0437   43.9978   66.5356 C   0  0  0  0  0  0  0  0  0  0  0  0
   21.5638   44.0898   64.5374 C   0  0  0  0  0  0  0  0  0  0  0  0
   21.3715   44.2977   65.8887 C   0  0  0  0  0  0  0  0  0  0  0  0
   22.4382   44.7931   66.6407 C   0  0  0  0  0  0  0  0  0  0  0  0
   22.2963   45.0186   68.0017 N   0  0  0  0  0  0  0  0  0  0  0  0
   23.5951   45.0402   66.0335 N   0  0  0  0  0  0  0  0  0  0  0  0
   23.7335   44.8318   64.7402 C   0  0  0  0  0  0  0  0  0  0  0  0
   22.7458   44.3645   64.0020 N   0  0  0  0  0  0  0  0  0  0  0  0
   23.6841   37.3090   65.1077 O   0  5  0  0  0  0  0  0  0  0  0  0
   27.3128   39.7144   65.3521 O   0  0  0  0  0  0  0  0  0  0  0  0
   18.4052   40.8087   65.2204 S   0  0  0  0  0  0  0  0  0  0  0  0
   18.5102   42.5309   65.4209 C   0  0  0  0  0  0  0  0  0  0  0  0
   23.3354   38.8795   67.0525 O   0  0  0  0  0  0  0  0  0  0  0  0
   25.7416   39.9478   67.3807 O   0  5  0  0  0  0  0  0  0  0  0  0
   19.5998   42.6588   66.1423 N   0  0  0  0  0  0  0  0  0  0  0  0
   24.7687   39.5840   64.9648 O   0  0  0  0  0  0  0  0  0  0  0  0
   26.0411   37.6949   66.1686 O   0  0  0  0  0  0  0  0  0  0  0  0
   20.3021   41.6114   66.5157 C   0  0  2  0  0  0  0  0  0  0  0  0
   19.8718   40.3783   66.1455 C   0  0  2  0  0  0  0  0  0  0  0  0
   20.4671   39.0246   66.4316 C   0  0  0  0  0  0  0  0  0  0  0  0
   21.0857   38.4562   65.1524 C   0  0  0  0  0  0  0  0  0  0  0  0
   22.1665   39.2925   64.7345 O   0  0  0  0  0  0  0  0  0  0  0  0
  1 11  1  0  0  0  0
  3 13  1  6  0  0  0
  3 17  2  0  0  0  0
  3 20  1  0  0  0  0
  3 26  1  0  0  0  0
  4 14  1  6  0  0  0
  4 18  1  0  0  0  0
  4 21  2  0  0  0  0
  4 20  1  0  0  0  0
  5 19  1  0  0  0  0
  5  7  1  0  0  0  0
  6  7  2  0  0  0  0
  6 12  1  0  0  0  0
  7  8  1  0  0  0  0
  8  9  1  0  0  0  0
  8 10  2  0  0  0  0
 10 11  1  0  0  0  0
 11 12  2  0  0  0  0
 15 23  1  0  0  0  0
 15 16  1  0  0  0  0
 16 19  1  0  0  0  0
 19 22  1  0  0  0  0
 22  2  1  1  0  0  0
 22 23  1  0  0  0  0
 23 24  1  6  0  0  0
 24 25  1  0  0  0  0
 25 26  1  0  0  0  0
M  CHG  2  13  -1  18  -1
M  END
>  <CHROM.1>
-73.16192985,-115.30948465,49.14107570,165.81630548,71.86522786,63.67774221
89.35890241,56.90808819,22.63430023,41.13789040,65.77886075,-2.33033338,-0.01523180
3.12815123

>  <Name>
ligand

>  <RI>
0

>  <Rbt.Current_Directory>
/home/itssahil/PROJECTS/Mol_Feturizer/New_Systems/rnas/2HOJ

>  <Rbt.Executable>
rbdock ($Id: //depot/dev/client3/rdock/2013.1/src/exe/rbdock.cxx#4 $)

>  <Rbt.Library>
libRbt.so (2013.1, Build901 2013/11/27)

>  <Rbt.Parameter_File>
/export/apps/rDock/src/rDock_2013.1_src/data/scripts/dock_solv.prm

>  <Rbt.Receptor>
prm/pocket_docking_6.prm

>  <SCORE>
-20.1089

>  <SCORE.INTER>
-19.6839

>  <SCORE.INTER.CONST>
1

>  <SCORE.INTER.POLAR>
0

>  <SCORE.INTER.ROT>
8

>  <SCORE.INTER.SOLV>
22.7514

>  <SCORE.INTER.VDW>
-29.6397

>  <SCORE.INTER.norm>
-0.757073

>  <SCORE.INTRA>
-0.451614

>  <SCORE.INTRA.DIHEDRAL>
-2.41188

>  <SCORE.INTRA.DIHEDRAL.0>
11.6398

>  <SCORE.INTRA.POLAR>
0

>  <SCORE.INTRA.POLAR.0>
0

>  <SCORE.INTRA.REPUL>
0

>  <SCORE.INTRA.REPUL.0>
0

>  <SCORE.INTRA.SOLV>
6.64207

>  <SCORE.INTRA.SOLV.lig_0>
-81.722

>  <SCORE.INTRA.VDW>
-2.56671

>  <SCORE.INTRA.VDW.0>
1.12598

>  <SCORE.INTRA.norm>
-0.0173698

>  <SCORE.RESTR>
0.0266646

>  <SCORE.RESTR.CAVITY>
0.0266646

>  <SCORE.RESTR.norm>
0.00102556

>  <SCORE.SYSTEM>
0

>  <SCORE.SYSTEM.CONST>
0

>  <SCORE.SYSTEM.DIHEDRAL>
0

>  <SCORE.SYSTEM.SOLV>
0

>  <SCORE.SYSTEM.norm>
0

>  <SCORE.heavy>
26

>  <SCORE.norm>
-0.773418

>  <RMSD>
5.389

$$$$
ligand
 OpenBabel11021811433D
libRbt.so/2013.1/901 2013/11/27
 26 27  0  0  0  0  0  0  0  0999 V2000
   25.9737   36.2956   71.2351 C   0  0  0  0  0  0  0  0  0  0  0  0
   23.5064   38.9245   65.5964 C   0  0  0  0  0  0  0  0  0  0  0  0
   26.9797   42.4504   67.3323 P   0  0  1  0  0  0  0  0  0  0  0  0
   27.4200   40.5830   69.0660 P   0  0  1  0  0  0  0  0  0  0  0  0
   21.8838   38.2240   67.7749 C   0  0  0  0  0  0  0  0  0  0  0  0
   24.2798   38.0992   68.5204 C   0  0  0  0  0  0  0  0  0  0  0  0
   22.9654   37.7127   68.6915 C   0  0  0  0  0  0  0  0  0  0  0  0
   22.6636   36.8365   69.7354 C   0  0  0  0  0  0  0  0  0  0  0  0
   21.3588   36.4178   69.9492 N   0  0  0  0  0  0  0  0  0  0  0  0
   23.6471   36.4042   70.5190 N   0  0  0  0  0  0  0  0  0  0  0  0
   24.8873   36.8025   70.3228 C   0  0  0  0  0  0  0  0  0  0  0  0
   25.2054   37.6291   69.3458 N   0  0  0  0  0  0  0  0  0  0  0  0
   27.3943   43.8356   67.0146 O   0  5  0  0  0  0  0  0  0  0  0  0
   26.3809   39.8302   68.2058 O   0  0  0  0  0  0  0  0  0  0  0  0
   22.1137   42.0287   67.5370 S   0  0  0  0  0  0  0  0  0  0  0  0
   21.5604   40.5492   68.2597 C   0  0  0  0  0  0  0  0  0  0  0  0
   27.8604   41.4153   66.4717 O   0  0  0  0  0  0  0  0  0  0  0  0
   28.9041   40.1898   68.5833 O   0  5  0  0  0  0  0  0  0  0  0  0
   22.1149   39.6418   67.4896 N   0  0  0  0  0  0  0  0  0  0  0  0
   27.2039   42.1705   68.9023 O   0  0  0  0  0  0  0  0  0  0  0  0
   27.2405   40.1902   70.5498 O   0  0  0  0  0  0  0  0  0  0  0  0
   22.8754   39.9786   66.4708 C   0  0  2  0  0  0  0  0  0  0  0  0
   23.0737   41.2977   66.2195 C   0  0  2  0  0  0  0  0  0  0  0  0
   23.8813   41.9605   65.1345 C   0  0  0  0  0  0  0  0  0  0  0  0
   25.3486   42.0375   65.5625 C   0  0  0  0  0  0  0  0  0  0  0  0
   25.4218   42.2595   66.9722 O   0  0  0  0  0  0  0  0  0  0  0  0
  1 11  1  0  0  0  0
  3 13  1  6  0  0  0
  3 17  2  0  0  0  0
  3 20  1  0  0  0  0
  3 26  1  0  0  0  0
  4 14  1  6  0  0  0
  4 18  1  0  0  0  0
  4 21  2  0  0  0  0
  4 20  1  0  0  0  0
  5 19  1  0  0  0  0
  5  7  1  0  0  0  0
  6  7  2  0  0  0  0
  6 12  1  0  0  0  0
  7  8  1  0  0  0  0
  8  9  1  0  0  0  0
  8 10  2  0  0  0  0
 10 11  1  0  0  0  0
 11 12  2  0  0  0  0
 15 23  1  0  0  0  0
 15 16  1  0  0  0  0
 16 19  1  0  0  0  0
 19 22  1  0  0  0  0
 22  2  1  6  0  0  0
 22 23  1  0  0  0  0
 23 24  1  1  0  0  0
 24 25  1  0  0  0  0
 25 26  1  0  0  0  0
M  CHG  2  13  -1  18  -1
M  END
>  <CHROM.1>
-153.85764927,-91.24730149,-40.38181951,-44.08950706,95.89156547,-35.18799317
-175.44361785,80.53888631,24.92336184,40.07892344,68.10664247,-2.25221726
-0.29511027,-0.62932477

>  <Name>
ligand

>  <RI>
0

>  <Rbt.Current_Directory>
/home/itssahil/PROJECTS/Mol_Feturizer/New_Systems/rnas/2HOJ

>  <Rbt.Executable>
rbdock ($Id: //depot/dev/client3/rdock/2013.1/src/exe/rbdock.cxx#4 $)

>  <Rbt.Library>
libRbt.so (2013.1, Build901 2013/11/27)

>  <Rbt.Parameter_File>
/export/apps/rDock/src/rDock_2013.1_src/data/scripts/dock_solv.prm

>  <Rbt.Receptor>
prm/pocket_docking_4.prm

>  <SCORE>
-9.30694

>  <SCORE.INTER>
-4.75952

>  <SCORE.INTER.CONST>
1

>  <SCORE.INTER.POLAR>
-1.07023

>  <SCORE.INTER.ROT>
8

>  <SCORE.INTER.SOLV>
21.7909

>  <SCORE.INTER.VDW>
-15.8026

>  <SCORE.INTER.norm>
-0.183058

>  <SCORE.INTRA>
-4.65183

>  <SCORE.INTRA.DIHEDRAL>
-2.78311

>  <SCORE.INTRA.DIHEDRAL.0>
11.6398

>  <SCORE.INTRA.POLAR>
0

>  <SCORE.INTRA.POLAR.0>
0

>  <SCORE.INTRA.REPUL>
0

>  <SCORE.INTRA.REPUL.0>
0

>  <SCORE.INTRA.SOLV>
0.533334

>  <SCORE.INTRA.SOLV.lig_0>
-81.722

>  <SCORE.INTRA.VDW>
-3.52694

>  <SCORE.INTRA.VDW.0>
1.12598

>  <SCORE.INTRA.norm>
-0.178916

>  <SCORE.RESTR>
0.104407

>  <SCORE.RESTR.CAVITY>
0.104407

>  <SCORE.RESTR.norm>
0.00401567

>  <SCORE.SYSTEM>
0

>  <SCORE.SYSTEM.CONST>
0

>  <SCORE.SYSTEM.DIHEDRAL>
0

>  <SCORE.SYSTEM.SOLV>
0

>  <SCORE.SYSTEM.norm>
0

>  <SCORE.heavy>
26

>  <SCORE.norm>
-0.357959

>  <RMSD>
5.398

$$$$
ligand
 OpenBabel11021811433D
libRbt.so/2013.1/901 2013/11/27
 26 27  0  0  0  0  0  0  0  0999 V2000
   16.5867   39.9442   64.3632 C   0  0  0  0  0  0  0  0  0  0  0  0
   23.8589   42.1694   66.2438 C   0  0  0  0  0  0  0  0  0  0  0  0
   26.3495   44.7990   62.4804 P   0  0  1  0  0  0  0  0  0  0  0  0
   28.4302   45.2018   63.9621 P   0  0  1  0  0  0  0  0  0  0  0  0
   21.2892   41.5179   67.1612 C   0  0  0  0  0  0  0  0  0  0  0  0
   19.1221   42.0373   66.0012 C   0  0  0  0  0  0  0  0  0  0  0  0
   20.0449   41.1000   66.4208 C   0  0  0  0  0  0  0  0  0  0  0  0
   19.7962   39.7551   66.1414 C   0  0  0  0  0  0  0  0  0  0  0  0
   20.6918   38.7747   66.5418 N   0  0  0  0  0  0  0  0  0  0  0  0
   18.6843   39.4268   65.4902 N   0  0  0  0  0  0  0  0  0  0  0  0
   17.8327   40.3545   65.1039 C   0  0  0  0  0  0  0  0  0  0  0  0
   18.0381   41.6332   65.3524 N   0  0  0  0  0  0  0  0  0  0  0  0
   25.7702   44.9084   61.1225 O   0  5  0  0  0  0  0  0  0  0  0  0
   27.5299   45.9315   64.9835 O   0  0  0  0  0  0  0  0  0  0  0  0
   21.4915   45.2775   66.5208 S   0  0  0  0  0  0  0  0  0  0  0  0
   20.6673   43.8278   67.0073 C   0  0  0  0  0  0  0  0  0  0  0  0
   26.4062   43.2518   62.9173 O   0  0  0  0  0  0  0  0  0  0  0  0
   28.4712   43.6304   64.3073 O   0  5  0  0  0  0  0  0  0  0  0  0
   21.5977   42.9151   66.8488 N   0  0  0  0  0  0  0  0  0  0  0  0
   27.8389   45.4115   62.4788 O   0  0  0  0  0  0  0  0  0  0  0  0
   29.8610   45.7815   64.0317 O   0  0  0  0  0  0  0  0  0  0  0  0
   22.8006   43.2290   66.4194 C   0  0  2  0  0  0  0  0  0  0  0  0
   23.0658   44.5285   66.1305 C   0  0  2  0  0  0  0  0  0  0  0  0
   24.3351   45.1630   65.6253 C   0  0  0  0  0  0  0  0  0  0  0  0
   24.6332   44.6576   64.2119 C   0  0  0  0  0  0  0  0  0  0  0  0
   25.4353   45.6185   63.5225 O   0  0  0  0  0  0  0  0  0  0  0  0
  1 11  1  0  0  0  0
  3 13  1  6  0  0  0
  3 17  2  0  0  0  0
  3 20  1  0  0  0  0
  3 26  1  0  0  0  0
  4 14  1  1  0  0  0
  4 18  1  0  0  0  0
  4 21  2  0  0  0  0
  4 20  1  0  0  0  0
  5 19  1  0  0  0  0
  5  7  1  0  0  0  0
  6  7  2  0  0  0  0
  6 12  1  0  0  0  0
  7  8  1  0  0  0  0
  8  9  1  0  0  0  0
  8 10  2  0  0  0  0
 10 11  1  0  0  0  0
 11 12  2  0  0  0  0
 15 23  1  0  0  0  0
 15 16  1  0  0  0  0
 16 19  1  0  0  0  0
 19 22  1  0  0  0  0
 22  2  1  6  0  0  0
 22 23  1  0  0  0  0
 23 24  1  1  0  0  0
 24 25  1  0  0  0  0
 25 26  1  0  0  0  0
M  CHG  2  13  -1  18  -1
M  END
>  <CHROM.1>
-177.55197730,52.93708381,-23.37531058,-59.62220524,-114.27437346,155.20275855
149.79351631,101.25935538,23.59422637,43.44038629,64.87476117,-2.99471974
0.49621675,0.73944108

>  <Name>
ligand

>  <RI>
0

>  <Rbt.Current_Directory>
/home/itssahil/PROJECTS/Mol_Feturizer/New_Systems/rnas/2HOJ

>  <Rbt.Executable>
rbdock ($Id: //depot/dev/client3/rdock/2013.1/src/exe/rbdock.cxx#4 $)

>  <Rbt.Library>
libRbt.so (2013.1, Build901 2013/11/27)

>  <Rbt.Parameter_File>
/export/apps/rDock/src/rDock_2013.1_src/data/scripts/dock_solv.prm

>  <Rbt.Receptor>
prm/pocket_docking_8.prm

>  <SCORE>
-21.2

>  <SCORE.INTER>
-22.272

>  <SCORE.INTER.CONST>
1

>  <SCORE.INTER.POLAR>
-1.22557

>  <SCORE.INTER.ROT>
8

>  <SCORE.INTER.SOLV>
14.461

>  <SCORE.INTER.VDW>
-24.5164

>  <SCORE.INTER.norm>
-0.856615

>  <SCORE.INTRA>
1.07199

>  <SCORE.INTRA.DIHEDRAL>
0.467013

>  <SCORE.INTRA.DIHEDRAL.0>
11.6398

>  <SCORE.INTRA.POLAR>
0

>  <SCORE.INTRA.POLAR.0>
0

>  <SCORE.INTRA.REPUL>
0

>  <SCORE.INTRA.REPUL.0>
0

>  <SCORE.INTRA.SOLV>
0.974243

>  <SCORE.INTRA.SOLV.lig_0>
-81.722

>  <SCORE.INTRA.VDW>
0.351365

>  <SCORE.INTRA.VDW.0>
1.12598

>  <SCORE.INTRA.norm>
0.0412305

>  <SCORE.RESTR>
0

>  <SCORE.RESTR.CAVITY>
0

>  <SCORE.RESTR.norm>
0

>  <SCORE.SYSTEM>
0

>  <SCORE.SYSTEM.CONST>
0

>  <SCORE.SYSTEM.DIHEDRAL>
0

>  <SCORE.SYSTEM.SOLV>
0

>  <SCORE.SYSTEM.norm>
0

>  <SCORE.heavy>
26

>  <SCORE.norm>
-0.815384

>  <RMSD>
5.570

$$$$
ligand
 OpenBabel11021811433D
libRbt.so/2013.1/901 2013/11/27
 26 27  0  0  0  0  0  0  0  0999 V2000
   22.3342   45.4415   66.8510 C   0  0  0  0  0  0  0  0  0  0  0  0
   22.0615   39.6981   68.4290 C   0  0  0  0  0  0  0  0  0  0  0  0
   26.1510   34.7018   70.1700 P   0  0  1  0  0  0  0  0  0  0  0  0
   23.8613   33.8253   70.9920 P   0  0  1  0  0  0  0  0  0  0  0  0
   21.3074   39.9527   65.7390 C   0  0  0  0  0  0  0  0  0  0  0  0
   20.6649   42.1720   66.7257 C   0  0  0  0  0  0  0  0  0  0  0  0
   21.5804   41.4054   66.0325 C   0  0  0  0  0  0  0  0  0  0  0  0
   22.7658   42.0102   65.6108 C   0  0  0  0  0  0  0  0  0  0  0  0
   23.7174   41.2837   64.9108 N   0  0  0  0  0  0  0  0  0  0  0  0
   22.9668   43.2957   65.8854 N   0  0  0  0  0  0  0  0  0  0  0  0
   22.0681   43.9889   66.5538 C   0  0  0  0  0  0  0  0  0  0  0  0
   20.9385   43.4474   66.9658 N   0  0  0  0  0  0  0  0  0  0  0  0
   26.7471   34.3257   71.4719 O   0  5  0  0  0  0  0  0  0  0  0  0
   24.5125   33.4614   72.3447 O   0  0  0  0  0  0  0  0  0  0  0  0
   24.4387   37.7794   65.9775 S   0  0  0  0  0  0  0  0  0  0  0  0
   23.1699   38.5833   65.1050 C   0  0  0  0  0  0  0  0  0  0  0  0
   27.2756   34.6259   69.0223 O   0  0  0  0  0  0  0  0  0  0  0  0
   23.3193   35.3397   71.0460 O   0  5  0  0  0  0  0  0  0  0  0  0
   22.4905   39.1561   66.0716 N   0  0  0  0  0  0  0  0  0  0  0  0
   24.9525   33.6861   69.8158 O   0  0  0  0  0  0  0  0  0  0  0  0
   22.6817   32.8662   70.7148 O   0  0  0  0  0  0  0  0  0  0  0  0
   22.8515   39.0329   67.3302 C   0  0  2  0  0  0  0  0  0  0  0  0
   23.9479   38.2865   67.6188 C   0  0  2  0  0  0  0  0  0  0  0  0
   24.5778   37.9757   68.9513 C   0  0  0  0  0  0  0  0  0  0  0  0
   25.0764   36.5288   68.9573 C   0  0  0  0  0  0  0  0  0  0  0  0
   25.5724   36.2021   70.2570 O   0  0  0  0  0  0  0  0  0  0  0  0
  1 11  1  0  0  0  0
  3 13  1  1  0  0  0
  3 17  2  0  0  0  0
  3 20  1  0  0  0  0
  3 26  1  0  0  0  0
  4 14  1  1  0  0  0
  4 18  1  0  0  0  0
  4 21  2  0  0  0  0
  4 20  1  0  0  0  0
  5 19  1  0  0  0  0
  5  7  1  0  0  0  0
  6  7  2  0  0  0  0
  6 12  1  0  0  0  0
  7  8  1  0  0  0  0
  8  9  1  0  0  0  0
  8 10  2  0  0  0  0
 10 11  1  0  0  0  0
 11 12  2  0  0  0  0
 15 23  1  0  0  0  0
 15 16  1  0  0  0  0
 16 19  1  0  0  0  0
 19 22  1  0  0  0  0
 22  2  1  1  0  0  0
 22 23  1  0  0  0  0
 23 24  1  6  0  0  0
 24 25  1  0  0  0  0
 25 26  1  0  0  0  0
M  CHG  2  13  -1  18  -1
M  END
>  <CHROM.1>
60.55770197,-111.93081744,-133.05858395,-59.78172552,-38.34916886,-175.22517008
-176.98268416,177.06314893,23.77675546,37.86619253,68.31380291,1.94378435
0.64240422,-0.73378256

>  <Name>
ligand

>  <RI>
0

>  <Rbt.Current_Directory>
/home/itssahil/PROJECTS/Mol_Feturizer/New_Systems/rnas/2HOJ

>  <Rbt.Executable>
rbdock ($Id: //depot/dev/client3/rdock/2013.1/src/exe/rbdock.cxx#4 $)

>  <Rbt.Library>
libRbt.so (2013.1, Build901 2013/11/27)

>  <Rbt.Parameter_File>
/export/apps/rDock/src/rDock_2013.1_src/data/scripts/dock_solv.prm

>  <Rbt.Receptor>
prm/pocket_docking_7.prm

>  <SCORE>
-15.2348

>  <SCORE.INTER>
-11.4278

>  <SCORE.INTER.CONST>
1

>  <SCORE.INTER.POLAR>
0

>  <SCORE.INTER.ROT>
8

>  <SCORE.INTER.SOLV>
19.4613

>  <SCORE.INTER.VDW>
-23.039

>  <SCORE.INTER.norm>
-0.439531

>  <SCORE.INTRA>
-3.8131

>  <SCORE.INTRA.DIHEDRAL>
-6.5197

>  <SCORE.INTRA.DIHEDRAL.0>
11.6398

>  <SCORE.INTRA.POLAR>
0

>  <SCORE.INTRA.POLAR.0>
0

>  <SCORE.INTRA.REPUL>
0

>  <SCORE.INTRA.REPUL.0>
0

>  <SCORE.INTRA.SOLV>
4.20248

>  <SCORE.INTRA.SOLV.lig_0>
-81.722

>  <SCORE.INTRA.VDW>
-2.65449

>  <SCORE.INTRA.VDW.0>
1.12598

>  <SCORE.INTRA.norm>
-0.146658

>  <SCORE.RESTR>
0.00608974

>  <SCORE.RESTR.CAVITY>
0.00608974

>  <SCORE.RESTR.norm>
0.000234221

>  <SCORE.SYSTEM>
0

>  <SCORE.SYSTEM.CONST>
0

>  <SCORE.SYSTEM.DIHEDRAL>
0

>  <SCORE.SYSTEM.SOLV>
0

>  <SCORE.SYSTEM.norm>
0

>  <SCORE.heavy>
26

>  <SCORE.norm>
-0.585955

>  <RMSD>
5.592

$$$$
ligand
 OpenBabel11021811433D
libRbt.so/2013.1/901 2013/11/27
 26 27  0  0  0  0  0  0  0  0999 V2000
   16.2781   39.8332   64.0657 C   0  0  0  0  0  0  0  0  0  0  0  0
   23.5972   42.0782   66.5628 C   0  0  0  0  0  0  0  0  0  0  0  0
   26.1375   45.3635   62.9443 P   0  0  1  0  0  0  0  0  0  0  0  0
   28.3100   45.2118   64.3386 P   0  0  1  0  0  0  0  0  0  0  0  0
   20.9373   41.2974   66.9926 C   0  0  0  0  0  0  0  0  0  0  0  0
   19.0065   41.8444   65.4810 C   0  0  0  0  0  0  0  0  0  0  0  0
   19.7042   40.9085   66.2184 C   0  0  0  0  0  0  0  0  0  0  0  0
   19.2385   39.5925   66.2283 C   0  0  0  0  0  0  0  0  0  0  0  0
   19.9032   38.6151   66.9537 N   0  0  0  0  0  0  0  0  0  0  0  0
   18.1439   39.2908   65.5362 N   0  0  0  0  0  0  0  0  0  0  0  0
   17.5114   40.2146   64.8421 C   0  0  0  0  0  0  0  0  0  0  0  0
   17.9253   41.4663   64.8122 N   0  0  0  0  0  0  0  0  0  0  0  0
   26.5986   46.5167   62.1386 O   0  5  0  0  0  0  0  0  0  0  0  0
   27.7053   45.0794   65.7538 O   0  0  0  0  0  0  0  0  0  0  0  0
   21.0787   45.0761   66.4571 S   0  0  0  0  0  0  0  0  0  0  0  0
   20.2479   43.5820   66.7649 C   0  0  0  0  0  0  0  0  0  0  0  0
   25.0422   44.5300   62.1116 O   0  0  0  0  0  0  0  0  0  0  0  0
   29.7976   44.5977   64.3296 O   0  5  0  0  0  0  0  0  0  0  0  0
   21.2325   42.7133   66.7623 N   0  0  0  0  0  0  0  0  0  0  0  0
   27.3914   44.4120   63.2849 O   0  0  0  0  0  0  0  0  0  0  0  0
   28.3670   46.7042   63.9416 O   0  0  0  0  0  0  0  0  0  0  0  0
   22.4772   43.0878   66.5614 C   0  0  2  0  0  0  0  0  0  0  0  0
   22.7301   44.4037   66.3449 C   0  0  2  0  0  0  0  0  0  0  0  0
   24.0389   45.1029   66.0863 C   0  0  0  0  0  0  0  0  0  0  0  0
   24.3625   45.0480   64.5915 C   0  0  0  0  0  0  0  0  0  0  0  0
   25.4806   45.8939   64.3155 O   0  0  0  0  0  0  0  0  0  0  0  0
  1 11  1  0  0  0  0
  3 13  1  6  0  0  0
  3 17  2  0  0  0  0
  3 20  1  0  0  0  0
  3 26  1  0  0  0  0
  4 14  1  1  0  0  0
  4 18  1  0  0  0  0
  4 21  2  0  0  0  0
  4 20  1  0  0  0  0
  5 19  1  0  0  0  0
  5  7  1  0  0  0  0
  6  7  2  0  0  0  0
  6 12  1  0  0  0  0
  7  8  1  0  0  0  0
  8  9  1  0  0  0  0
  8 10  2  0  0  0  0
 10 11  1  0  0  0  0
 11 12  2  0  0  0  0
 15 23  1  0  0  0  0
 15 16  1  0  0  0  0
 16 19  1  0  0  0  0
 19 22  1  0  0  0  0
 22  2  1  6  0  0  0
 22 23  1  0  0  0  0
 23 24  1  1  0  0  0
 24 25  1  0  0  0  0
 25 26  1  0  0  0  0
M  CHG  2  13  -1  18  -1
M  END
>  <CHROM.1>
70.27205737,42.69230001,-2.41787790,79.99824984,-94.45216952,170.52436275
157.43359610,142.24851435,23.32126976,43.52966192,65.02336959,2.74765779
0.36236170,2.04742252

>  <Name>
ligand

>  <RI>
0

>  <Rbt.Current_Directory>
/home/itssahil/PROJECTS/Mol_Feturizer/New_Systems/rnas/2HOJ

>  <Rbt.Executable>
rbdock ($Id: //depot/dev/client3/rdock/2013.1/src/exe/rbdock.cxx#4 $)

>  <Rbt.Library>
libRbt.so (2013.1, Build901 2013/11/27)

>  <Rbt.Parameter_File>
/export/apps/rDock/src/rDock_2013.1_src/data/scripts/dock_solv.prm

>  <Rbt.Receptor>
prm/pocket_docking_8.prm

>  <SCORE>
-20.2125

>  <SCORE.INTER>
-21.0844

>  <SCORE.INTER.CONST>
1

>  <SCORE.INTER.POLAR>
-1.22844

>  <SCORE.INTER.ROT>
8

>  <SCORE.INTER.SOLV>
17.1215

>  <SCORE.INTER.VDW>
-24.6019

>  <SCORE.INTER.norm>
-0.810937

>  <SCORE.INTRA>
0.87189

>  <SCORE.INTRA.DIHEDRAL>
-1.8255

>  <SCORE.INTRA.DIHEDRAL.0>
11.6398

>  <SCORE.INTRA.POLAR>
0

>  <SCORE.INTRA.POLAR.0>
0

>  <SCORE.INTRA.REPUL>
0

>  <SCORE.INTRA.REPUL.0>
0

>  <SCORE.INTRA.SOLV>
0.175704

>  <SCORE.INTRA.SOLV.lig_0>
-81.722

>  <SCORE.INTRA.VDW>
1.69679

>  <SCORE.INTRA.VDW.0>
1.12598

>  <SCORE.INTRA.norm>
0.0335342

>  <SCORE.RESTR>
0

>  <SCORE.RESTR.CAVITY>
0

>  <SCORE.RESTR.norm>
0

>  <SCORE.SYSTEM>
0

>  <SCORE.SYSTEM.CONST>
0

>  <SCORE.SYSTEM.DIHEDRAL>
0

>  <SCORE.SYSTEM.SOLV>
0

>  <SCORE.SYSTEM.norm>
0

>  <SCORE.heavy>
26

>  <SCORE.norm>
-0.777402

>  <RMSD>
5.621

$$$$
ligand
 OpenBabel11021811433D
libRbt.so/2013.1/901 2013/11/27
 26 27  0  0  0  0  0  0  0  0999 V2000
   22.7608   45.8090   66.6128 C   0  0  0  0  0  0  0  0  0  0  0  0
   22.0888   37.4630   66.3116 C   0  0  0  0  0  0  0  0  0  0  0  0
   24.5234   34.8246   71.5500 P   0  0  1  0  0  0  0  0  0  0  0  0
   25.9223   36.0932   73.3166 P   0  0  1  0  0  0  0  0  0  0  0  0
   21.7302   40.2352   66.0757 C   0  0  0  0  0  0  0  0  0  0  0  0
   20.9679   42.6167   66.3186 C   0  0  0  0  0  0  0  0  0  0  0  0
   22.0045   41.7103   66.2177 C   0  0  0  0  0  0  0  0  0  0  0  0
   23.3132   42.1948   66.2510 C   0  0  0  0  0  0  0  0  0  0  0  0
   24.3893   41.3255   66.1528 N   0  0  0  0  0  0  0  0  0  0  0  0
   23.5131   43.5038   66.3725 N   0  0  0  0  0  0  0  0  0  0  0  0
   22.4944   44.3332   66.4705 C   0  0  0  0  0  0  0  0  0  0  0  0
   21.2466   43.9076   66.4422 N   0  0  0  0  0  0  0  0  0  0  0  0
   25.7369   34.9503   70.7113 O   0  5  0  0  0  0  0  0  0  0  0  0
   26.3834   34.6599   73.6621 O   0  0  0  0  0  0  0  0  0  0  0  0
   21.4364   39.2268   69.7475 S   0  0  0  0  0  0  0  0  0  0  0  0
   21.4271   40.3807   68.4491 C   0  0  0  0  0  0  0  0  0  0  0  0
   24.5583   33.4231   72.3388 O   0  0  0  0  0  0  0  0  0  0  0  0
   26.9836   36.7732   72.3159 O   0  5  0  0  0  0  0  0  0  0  0  0
   21.6589   39.6212   67.4034 N   0  0  0  0  0  0  0  0  0  0  0  0
   24.4763   36.0364   72.6096 O   0  0  0  0  0  0  0  0  0  0  0  0
   25.8282   36.9294   74.6127 O   0  0  0  0  0  0  0  0  0  0  0  0
   21.8246   38.3219   67.5224 C   0  0  2  0  0  0  0  0  0  0  0  0
   21.7599   37.7722   68.7618 C   0  0  2  0  0  0  0  0  0  0  0  0
   21.9138   36.3355   69.1873 C   0  0  0  0  0  0  0  0  0  0  0  0
   23.1881   36.1816   70.0206 C   0  0  0  0  0  0  0  0  0  0  0  0
   23.2145   34.8818   70.6137 O   0  0  0  0  0  0  0  0  0  0  0  0
  1 11  1  0  0  0  0
  3 13  1  6  0  0  0
  3 17  2  0  0  0  0
  3 20  1  0  0  0  0
  3 26  1  0  0  0  0
  4 14  1  1  0  0  0
  4 18  1  0  0  0  0
  4 21  2  0  0  0  0
  4 20  1  0  0  0  0
  5 19  1  0  0  0  0
  5  7  1  0  0  0  0
  6  7  2  0  0  0  0
  6 12  1  0  0  0  0
  7  8  1  0  0  0  0
  8  9  1  0  0  0  0
  8 10  2  0  0  0  0
 10 11  1  0  0  0  0
 11 12  2  0  0  0  0
 15 23  1  0  0  0  0
 15 16  1  0  0  0  0
 16 19  1  0  0  0  0
 19 22  1  0  0  0  0
 22  2  1  1  0  0  0
 22 23  1  0  0  0  0
 23 24  1  6  0  0  0
 24 25  1  0  0  0  0
 25 26  1  0  0  0  0
M  CHG  2  13  -1  18  -1
M  END
>  <CHROM.1>
-49.48343421,20.23426358,-90.09138965,-43.36548481,-67.10990718,170.08624811
-176.27287362,-64.14613896,23.46738224,38.39575962,69.54263487,-2.03253721
0.80309519,2.79999158

>  <Name>
ligand

>  <RI>
0

>  <Rbt.Current_Directory>
/home/itssahil/PROJECTS/Mol_Feturizer/New_Systems/rnas/2HOJ

>  <Rbt.Executable>
rbdock ($Id: //depot/dev/client3/rdock/2013.1/src/exe/rbdock.cxx#4 $)

>  <Rbt.Library>
libRbt.so (2013.1, Build901 2013/11/27)

>  <Rbt.Parameter_File>
/export/apps/rDock/src/rDock_2013.1_src/data/scripts/dock_solv.prm

>  <Rbt.Receptor>
prm/pocket_docking_7.prm

>  <SCORE>
-17.0044

>  <SCORE.INTER>
-12.9671

>  <SCORE.INTER.CONST>
1

>  <SCORE.INTER.POLAR>
0

>  <SCORE.INTER.ROT>
8

>  <SCORE.INTER.SOLV>
13.9599

>  <SCORE.INTER.VDW>
-22.2314

>  <SCORE.INTER.norm>
-0.498734

>  <SCORE.INTRA>
-4.03733

>  <SCORE.INTRA.DIHEDRAL>
-5.43325

>  <SCORE.INTRA.DIHEDRAL.0>
11.6398

>  <SCORE.INTRA.POLAR>
0

>  <SCORE.INTRA.POLAR.0>
0

>  <SCORE.INTRA.REPUL>
0

>  <SCORE.INTRA.REPUL.0>
0

>  <SCORE.INTRA.SOLV>
1.56347

>  <SCORE.INTRA.SOLV.lig_0>
-81.722

>  <SCORE.INTRA.VDW>
-2.10244

>  <SCORE.INTRA.VDW.0>
1.12598

>  <SCORE.INTRA.norm>
-0.155282

>  <SCORE.RESTR>
0

>  <SCORE.RESTR.CAVITY>
0

>  <SCORE.RESTR.norm>
0

>  <SCORE.SYSTEM>
0

>  <SCORE.SYSTEM.CONST>
0

>  <SCORE.SYSTEM.DIHEDRAL>
0

>  <SCORE.SYSTEM.SOLV>
0

>  <SCORE.SYSTEM.norm>
0

>  <SCORE.heavy>
26

>  <SCORE.norm>
-0.654016

>  <RMSD>
5.707

$$$$
ligand
 OpenBabel11021811433D
libRbt.so/2013.1/901 2013/11/27
 26 27  0  0  0  0  0  0  0  0999 V2000
   19.5626   41.8236   65.8377 C   0  0  0  0  0  0  0  0  0  0  0  0
   23.2019   36.8285   69.3642 C   0  0  0  0  0  0  0  0  0  0  0  0
   27.1418   34.5649   72.2390 P   0  0  1  0  0  0  0  0  0  0  0  0
   27.1437   35.0421   74.7804 P   0  0  1  0  0  0  0  0  0  0  0  0
   22.5797   37.0619   66.6387 C   0  0  0  0  0  0  0  0  0  0  0  0
   22.0691   39.1773   65.3833 C   0  0  0  0  0  0  0  0  0  0  0  0
   21.7803   38.3220   66.4279 C   0  0  0  0  0  0  0  0  0  0  0  0
   20.7287   38.6538   67.2838 C   0  0  0  0  0  0  0  0  0  0  0  0
   20.3989   37.8282   68.3483 N   0  0  0  0  0  0  0  0  0  0  0  0
   20.0508   39.7771   67.0669 N   0  0  0  0  0  0  0  0  0  0  0  0
   20.3573   40.5623   66.0547 C   0  0  0  0  0  0  0  0  0  0  0  0
   21.3448   40.2776   65.2284 N   0  0  0  0  0  0  0  0  0  0  0  0
   27.8429   33.8933   71.1214 O   0  5  0  0  0  0  0  0  0  0  0  0
   27.9968   35.1106   76.0665 O   0  0  0  0  0  0  0  0  0  0  0  0
   26.2119   38.0983   67.2032 S   0  0  0  0  0  0  0  0  0  0  0  0
   24.8126   37.8222   66.2117 C   0  0  0  0  0  0  0  0  0  0  0  0
   25.7221   33.8510   72.4891 O   0  0  0  0  0  0  0  0  0  0  0  0
   26.6220   36.5168   74.4018 O   0  5  0  0  0  0  0  0  0  0  0  0
   23.9289   37.4089   67.0905 N   0  0  0  0  0  0  0  0  0  0  0  0
   28.0376   34.4613   73.5733 O   0  0  0  0  0  0  0  0  0  0  0  0
   25.9320   34.1124   75.0162 O   0  0  0  0  0  0  0  0  0  0  0  0
   24.2283   37.3035   68.3668 C   0  0  2  0  0  0  0  0  0  0  0  0
   25.4854   37.6250   68.7653 C   0  0  2  0  0  0  0  0  0  0  0  0
   26.0966   37.5950   70.1417 C   0  0  0  0  0  0  0  0  0  0  0  0
   26.2552   36.1436   70.6003 C   0  0  0  0  0  0  0  0  0  0  0  0
   26.9065   36.1151   71.8719 O   0  0  0  0  0  0  0  0  0  0  0  0
  1 11  1  0  0  0  0
  3 13  1  6  0  0  0
  3 17  2  0  0  0  0
  3 20  1  0  0  0  0
  3 26  1  0  0  0  0
  4 14  1  1  0  0  0
  4 18  1  0  0  0  0
  4 21  2  0  0  0  0
  4 20  1  0  0  0  0
  5 19  1  0  0  0  0
  5  7  1  0  0  0  0
  6  7  2  0  0  0  0
  6 12  1  0  0  0  0
  7  8  1  0  0  0  0
  8  9  1  0  0  0  0
  8 10  2  0  0  0  0
 10 11  1  0  0  0  0
 11 12  2  0  0  0  0
 15 23  1  0  0  0  0
 15 16  1  0  0  0  0
 16 19  1  0  0  0  0
 19 22  1  0  0  0  0
 22  2  1  6  0  0  0
 22 23  1  0  0  0  0
 23 24  1  1  0  0  0
 24 25  1  0  0  0  0
 25 26  1  0  0  0  0
M  CHG  2  13  -1  18  -1
M  END
>  <CHROM.1>
-173.07050082,-78.59027342,69.96461435,-174.07049816,-110.78359688,176.63562933
-175.73714538,52.98966719,24.76139439,36.89265700,69.95550932,2.19384113
0.37421759,-1.28268277

>  <Name>
ligand

>  <RI>
0

>  <Rbt.Current_Directory>
/home/itssahil/PROJECTS/Mol_Feturizer/New_Systems/rnas/2HOJ

>  <Rbt.Executable>
rbdock ($Id: //depot/dev/client3/rdock/2013.1/src/exe/rbdock.cxx#4 $)

>  <Rbt.Library>
libRbt.so (2013.1, Build901 2013/11/27)

>  <Rbt.Parameter_File>
/export/apps/rDock/src/rDock_2013.1_src/data/scripts/dock_solv.prm

>  <Rbt.Receptor>
prm/blind_docking_100.prm

>  <SCORE>
-13.3441

>  <SCORE.INTER>
-9.2279

>  <SCORE.INTER.CONST>
1

>  <SCORE.INTER.POLAR>
0

>  <SCORE.INTER.ROT>
8

>  <SCORE.INTER.SOLV>
17.9788

>  <SCORE.INTER.VDW>
-21.0782

>  <SCORE.INTER.norm>
-0.354919

>  <SCORE.INTRA>
-4.11618

>  <SCORE.INTRA.DIHEDRAL>
-6.69428

>  <SCORE.INTRA.DIHEDRAL.0>
11.6398

>  <SCORE.INTRA.POLAR>
0

>  <SCORE.INTRA.POLAR.0>
0

>  <SCORE.INTRA.REPUL>
0

>  <SCORE.INTRA.REPUL.0>
0

>  <SCORE.INTRA.SOLV>
4.74668

>  <SCORE.INTRA.SOLV.lig_0>
-81.722

>  <SCORE.INTRA.VDW>
-3.14239

>  <SCORE.INTRA.VDW.0>
1.12598

>  <SCORE.INTRA.norm>
-0.158315

>  <SCORE.RESTR>
0

>  <SCORE.RESTR.CAVITY>
0

>  <SCORE.RESTR.norm>
0

>  <SCORE.SYSTEM>
0

>  <SCORE.SYSTEM.CONST>
0

>  <SCORE.SYSTEM.DIHEDRAL>
0

>  <SCORE.SYSTEM.SOLV>
0

>  <SCORE.SYSTEM.norm>
0

>  <SCORE.heavy>
26

>  <SCORE.norm>
-0.513234

>  <RMSD>
5.722

$$$$
ligand
 OpenBabel11021811433D
libRbt.so/2013.1/901 2013/11/27
 26 27  0  0  0  0  0  0  0  0999 V2000
   22.2868   45.7636   67.2444 C   0  0  0  0  0  0  0  0  0  0  0  0
   22.9357   37.5090   67.2074 C   0  0  0  0  0  0  0  0  0  0  0  0
   23.6223   34.2111   70.7643 P   0  0  1  0  0  0  0  0  0  0  0  0
   26.0199   34.9201   70.1042 P   0  0  1  0  0  0  0  0  0  0  0  0
   23.5243   40.2193   67.6283 C   0  0  0  0  0  0  0  0  0  0  0  0
   21.9268   42.1085   67.1917 C   0  0  0  0  0  0  0  0  0  0  0  0
   23.1982   41.6872   67.5270 C   0  0  0  0  0  0  0  0  0  0  0  0
   24.1739   42.6554   67.7700 C   0  0  0  0  0  0  0  0  0  0  0  0
   25.4663   42.2840   68.1096 N   0  0  0  0  0  0  0  0  0  0  0  0
   23.8473   43.9402   67.6654 N   0  0  0  0  0  0  0  0  0  0  0  0
   22.6202   44.2982   67.3475 C   0  0  0  0  0  0  0  0  0  0  0  0
   21.6759   43.4085   67.1115 N   0  0  0  0  0  0  0  0  0  0  0  0
   22.6572   33.0926   70.8596 O   0  5  0  0  0  0  0  0  0  0  0  0
   26.3326   35.3008   71.5683 O   0  0  0  0  0  0  0  0  0  0  0  0
   20.9366   39.0711   70.1916 S   0  0  0  0  0  0  0  0  0  0  0  0
   21.9744   40.2544   69.4566 C   0  0  0  0  0  0  0  0  0  0  0  0
   23.9441   34.7702   72.2379 O   0  0  0  0  0  0  0  0  0  0  0  0
   27.3800   34.4931   69.3571 O   0  5  0  0  0  0  0  0  0  0  0  0
   22.5498   39.5613   68.5014 N   0  0  0  0  0  0  0  0  0  0  0  0
   24.9829   33.6882   70.0793 O   0  0  0  0  0  0  0  0  0  0  0  0
   25.3942   36.1334   69.3800 O   0  0  0  0  0  0  0  0  0  0  0  0
   22.2673   38.2911   68.3098 C   0  0  2  0  0  0  0  0  0  0  0  0
   21.3653   37.6977   69.1324 C   0  0  2  0  0  0  0  0  0  0  0  0
   20.8626   36.2778   69.1460 C   0  0  0  0  0  0  0  0  0  0  0  0
   21.6089   35.4804   70.2180 C   0  0  0  0  0  0  0  0  0  0  0  0
   22.9914   35.3907   69.8678 O   0  0  0  0  0  0  0  0  0  0  0  0
  1 11  1  0  0  0  0
  3 13  1  1  0  0  0
  3 17  2  0  0  0  0
  3 20  1  0  0  0  0
  3 26  1  0  0  0  0
  4 14  1  1  0  0  0
  4 18  1  0  0  0  0
  4 21  2  0  0  0  0
  4 20  1  0  0  0  0
  5 19  1  0  0  0  0
  5  7  1  0  0  0  0
  6  7  2  0  0  0  0
  6 12  1  0  0  0  0
  7  8  1  0  0  0  0
  8  9  1  0  0  0  0
  8 10  2  0  0  0  0
 10 11  1  0  0  0  0
 11 12  2  0  0  0  0
 15 23  1  0  0  0  0
 15 16  1  0  0  0  0
 16 19  1  0  0  0  0
 19 22  1  0  0  0  0
 22  2  1  1  0  0  0
 22 23  1  0  0  0  0
 23 24  1  6  0  0  0
 24 25  1  0  0  0  0
 25 26  1  0  0  0  0
M  CHG  2  13  -1  18  -1
M  END
>  <CHROM.1>
-175.99652574,-28.51091909,-51.66366214,63.08655546,-81.13070364,-64.86831640
-163.72021673,39.58863243,23.41979706,38.06083670,69.23752230,-1.76352766
-0.07692174,2.80418080

>  <Name>
ligand

>  <RI>
0

>  <Rbt.Current_Directory>
/home/itssahil/PROJECTS/Mol_Feturizer/New_Systems/rnas/2HOJ

>  <Rbt.Executable>
rbdock ($Id: //depot/dev/client3/rdock/2013.1/src/exe/rbdock.cxx#4 $)

>  <Rbt.Library>
libRbt.so (2013.1, Build901 2013/11/27)

>  <Rbt.Parameter_File>
/export/apps/rDock/src/rDock_2013.1_src/data/scripts/dock_solv.prm

>  <Rbt.Receptor>
prm/blind_docking_100.prm

>  <SCORE>
-20.1151

>  <SCORE.INTER>
-16.0218

>  <SCORE.INTER.CONST>
1

>  <SCORE.INTER.POLAR>
0

>  <SCORE.INTER.ROT>
8

>  <SCORE.INTER.SOLV>
18.8914

>  <SCORE.INTER.VDW>
-25.9116

>  <SCORE.INTER.norm>
-0.616221

>  <SCORE.INTRA>
-4.09333

>  <SCORE.INTRA.DIHEDRAL>
-4.64081

>  <SCORE.INTRA.DIHEDRAL.0>
11.6398

>  <SCORE.INTRA.POLAR>
0

>  <SCORE.INTRA.POLAR.0>
0

>  <SCORE.INTRA.REPUL>
0

>  <SCORE.INTRA.REPUL.0>
0

>  <SCORE.INTRA.SOLV>
0.897975

>  <SCORE.INTRA.SOLV.lig_0>
-81.722

>  <SCORE.INTRA.VDW>
-2.22191

>  <SCORE.INTRA.VDW.0>
1.12598

>  <SCORE.INTRA.norm>
-0.157436

>  <SCORE.RESTR>
0

>  <SCORE.RESTR.CAVITY>
0

>  <SCORE.RESTR.norm>
0

>  <SCORE.SYSTEM>
0

>  <SCORE.SYSTEM.CONST>
0

>  <SCORE.SYSTEM.DIHEDRAL>
0

>  <SCORE.SYSTEM.SOLV>
0

>  <SCORE.SYSTEM.norm>
0

>  <SCORE.heavy>
26

>  <SCORE.norm>
-0.773657

>  <RMSD>
5.781

$$$$
ligand
 OpenBabel11021811433D
libRbt.so/2013.1/901 2013/11/27
 26 27  0  0  0  0  0  0  0  0999 V2000
   22.4163   45.7106   66.5319 C   0  0  0  0  0  0  0  0  0  0  0  0
   22.4577   37.3495   66.5135 C   0  0  0  0  0  0  0  0  0  0  0  0
   25.4192   34.9763   71.1332 P   0  0  1  0  0  0  0  0  0  0  0  0
   24.7918   33.9775   73.4344 P   0  0  1  0  0  0  0  0  0  0  0  0
   21.8278   40.0598   66.1572 C   0  0  0  0  0  0  0  0  0  0  0  0
   23.1956   42.1216   66.5931 C   0  0  0  0  0  0  0  0  0  0  0  0
   21.9821   41.5557   66.2561 C   0  0  0  0  0  0  0  0  0  0  0  0
   20.9017   42.4044   66.0089 C   0  0  0  0  0  0  0  0  0  0  0  0
   19.6617   41.8856   65.6674 N   0  0  0  0  0  0  0  0  0  0  0  0
   21.0776   43.7185   66.1115 N   0  0  0  0  0  0  0  0  0  0  0  0
   22.2545   44.2163   66.4312 C   0  0  0  0  0  0  0  0  0  0  0  0
   23.2946   43.4419   66.6711 N   0  0  0  0  0  0  0  0  0  0  0  0
   25.7964   36.2187   71.8444 O   0  5  0  0  0  0  0  0  0  0  0  0
   24.9459   32.7785   74.3961 O   0  0  0  0  0  0  0  0  0  0  0  0
   21.4620   39.1478   69.8477 S   0  0  0  0  0  0  0  0  0  0  0  0
   21.3969   40.2510   68.5075 C   0  0  0  0  0  0  0  0  0  0  0  0
   26.3239   34.8175   69.8125 O   0  0  0  0  0  0  0  0  0  0  0  0
   25.3160   35.3170   74.1563 O   0  5  0  0  0  0  0  0  0  0  0  0
   21.7559   39.4859   67.5027 N   0  0  0  0  0  0  0  0  0  0  0  0
   25.6557   33.7114   72.1015 O   0  0  0  0  0  0  0  0  0  0  0  0
   23.3027   34.1455   73.0567 O   0  0  0  0  0  0  0  0  0  0  0  0
   22.0483   38.2156   67.6780 C   0  0  2  0  0  0  0  0  0  0  0  0
   21.9806   37.7033   68.9332 C   0  0  2  0  0  0  0  0  0  0  0  0
   22.2607   36.3053   69.4191 C   0  0  0  0  0  0  0  0  0  0  0  0
   23.7099   36.2114   69.9019 C   0  0  0  0  0  0  0  0  0  0  0  0
   23.8657   35.0467   70.7150 O   0  0  0  0  0  0  0  0  0  0  0  0
  1 11  1  0  0  0  0
  3 13  1  1  0  0  0
  3 17  2  0  0  0  0
  3 20  1  0  0  0  0
  3 26  1  0  0  0  0
  4 14  1  1  0  0  0
  4 18  1  0  0  0  0
  4 21  2  0  0  0  0
  4 20  1  0  0  0  0
  5 19  1  0  0  0  0
  5  7  1  0  0  0  0
  6  7  2  0  0  0  0
  6 12  1  0  0  0  0
  7  8  1  0  0  0  0
  8  9  1  0  0  0  0
  8 10  2  0  0  0  0
 10 11  1  0  0  0  0
 11 12  2  0  0  0  0
 15 23  1  0  0  0  0
 15 16  1  0  0  0  0
 16 19  1  0  0  0  0
 19 22  1  0  0  0  0
 22  2  1  1  0  0  0
 22 23  1  0  0  0  0
 23 24  1  6  0  0  0
 24 25  1  0  0  0  0
 25 26  1  0  0  0  0
M  CHG  2  13  -1  18  -1
M  END
>  <CHROM.1>
56.67979155,21.86848688,76.30629272,178.56046738,-85.96012938,162.80769612
177.60178922,57.93286302,23.24074600,37.99688940,69.50711578,-2.02127555
0.79746228,2.83966202

>  <Name>
ligand

>  <RI>
0

>  <Rbt.Current_Directory>
/home/itssahil/PROJECTS/Mol_Feturizer/New_Systems/rnas/2HOJ

>  <Rbt.Executable>
rbdock ($Id: //depot/dev/client3/rdock/2013.1/src/exe/rbdock.cxx#4 $)

>  <Rbt.Library>
libRbt.so (2013.1, Build901 2013/11/27)

>  <Rbt.Parameter_File>
/export/apps/rDock/src/rDock_2013.1_src/data/scripts/dock_solv.prm

>  <Rbt.Receptor>
prm/blind_docking_100.prm

>  <SCORE>
-13.4685

>  <SCORE.INTER>
-9.91276

>  <SCORE.INTER.CONST>
1

>  <SCORE.INTER.POLAR>
0

>  <SCORE.INTER.ROT>
8

>  <SCORE.INTER.SOLV>
17.985

>  <SCORE.INTER.VDW>
-21.5369

>  <SCORE.INTER.norm>
-0.38126

>  <SCORE.INTRA>
-3.55853

>  <SCORE.INTRA.DIHEDRAL>
-5.6084

>  <SCORE.INTRA.DIHEDRAL.0>
11.6398

>  <SCORE.INTRA.POLAR>
0

>  <SCORE.INTRA.POLAR.0>
0

>  <SCORE.INTRA.REPUL>
0

>  <SCORE.INTRA.REPUL.0>
0

>  <SCORE.INTRA.SOLV>
3.04135

>  <SCORE.INTRA.SOLV.lig_0>
-81.722

>  <SCORE.INTRA.VDW>
-2.27501

>  <SCORE.INTRA.VDW.0>
1.12598

>  <SCORE.INTRA.norm>
-0.136867

>  <SCORE.RESTR>
0.00279965

>  <SCORE.RESTR.CAVITY>
0.00279965

>  <SCORE.RESTR.norm>
0.000107679

>  <SCORE.SYSTEM>
0

>  <SCORE.SYSTEM.CONST>
0

>  <SCORE.SYSTEM.DIHEDRAL>
0

>  <SCORE.SYSTEM.SOLV>
0

>  <SCORE.SYSTEM.norm>
0

>  <SCORE.heavy>
26

>  <SCORE.norm>
-0.518019

>  <RMSD>
5.801

$$$$
ligand
 OpenBabel11021811433D
libRbt.so/2013.1/901 2013/11/27
 26 27  0  0  0  0  0  0  0  0999 V2000
   22.0592   45.5575   67.2688 C   0  0  0  0  0  0  0  0  0  0  0  0
   26.1742   38.6257   67.1836 C   0  0  0  0  0  0  0  0  0  0  0  0
   26.9168   36.4438   72.6640 P   0  0  1  0  0  0  0  0  0  0  0  0
   27.7924   34.0235   72.4139 P   0  0  1  0  0  0  0  0  0  0  0  0
   25.8168   41.3383   66.5638 C   0  0  0  0  0  0  0  0  0  0  0  0
   25.1767   43.7672   66.5151 C   0  0  0  0  0  0  0  0  0  0  0  0
   24.8212   42.4541   66.7509 C   0  0  0  0  0  0  0  0  0  0  0  0
   23.5159   42.1861   67.1667 C   0  0  0  0  0  0  0  0  0  0  0  0
   23.1092   40.8840   67.4173 N   0  0  0  0  0  0  0  0  0  0  0  0
   22.6689   43.1990   67.3249 N   0  0  0  0  0  0  0  0  0  0  0  0
   23.0490   44.4369   67.0840 C   0  0  0  0  0  0  0  0  0  0  0  0
   24.2745   44.7235   66.6903 N   0  0  0  0  0  0  0  0  0  0  0  0
   25.7958   36.1643   73.5896 O   0  5  0  0  0  0  0  0  0  0  0  0
   27.8322   34.0786   70.8707 O   0  0  0  0  0  0  0  0  0  0  0  0
   27.3504   41.0251   70.0474 S   0  0  0  0  0  0  0  0  0  0  0  0
   26.7301   41.9290   68.7000 C   0  0  0  0  0  0  0  0  0  0  0  0
   27.3755   37.9774   72.8232 O   0  0  0  0  0  0  0  0  0  0  0  0
   28.8613   32.9421   72.9414 O   0  5  0  0  0  0  0  0  0  0  0  0
   26.3954   40.9771   67.8599 N   0  0  0  0  0  0  0  0  0  0  0  0
   28.1544   35.4741   73.0127 O   0  0  0  0  0  0  0  0  0  0  0  0
   26.3758   33.6152   72.8773 O   0  0  0  0  0  0  0  0  0  0  0  0
   26.5649   39.7075   68.1587 C   0  0  2  0  0  0  0  0  0  0  0  0
   27.1072   39.3930   69.3626 C   0  0  2  0  0  0  0  0  0  0  0  0
   27.4145   38.0437   69.9574 C   0  0  0  0  0  0  0  0  0  0  0  0
   26.1456   37.4573   70.5804 C   0  0  0  0  0  0  0  0  0  0  0  0
   26.4412   36.1798   71.1484 O   0  0  0  0  0  0  0  0  0  0  0  0
  1 11  1  0  0  0  0
  3 13  1  1  0  0  0
  3 17  2  0  0  0  0
  3 20  1  0  0  0  0
  3 26  1  0  0  0  0
  4 14  1  6  0  0  0
  4 18  1  0  0  0  0
  4 21  2  0  0  0  0
  4 20  1  0  0  0  0
  5 19  1  0  0  0  0
  5  7  1  0  0  0  0
  6  7  2  0  0  0  0
  6 12  1  0  0  0  0
  7  8  1  0  0  0  0
  8  9  1  0  0  0  0
  8 10  2  0  0  0  0
 10 11  1  0  0  0  0
 11 12  2  0  0  0  0
 15 23  1  0  0  0  0
 15 16  1  0  0  0  0
 16 19  1  0  0  0  0
 19 22  1  0  0  0  0
 22  2  1  6  0  0  0
 22 23  1  0  0  0  0
 23 24  1  1  0  0  0
 24 25  1  0  0  0  0
 25 26  1  0  0  0  0
M  CHG  2  13  -1  18  -1
M  END
>  <CHROM.1>
76.93818928,-42.07814588,98.01675352,69.61190301,97.36411713,-179.77498160
88.68862030,100.48791175,26.15544384,38.85894375,69.91787218,1.97758465,0.64695835
-0.81809815

>  <Name>
ligand

>  <RI>
0

>  <Rbt.Current_Directory>
/home/itssahil/PROJECTS/Mol_Feturizer/New_Systems/rnas/2HOJ

>  <Rbt.Executable>
rbdock ($Id: //depot/dev/client3/rdock/2013.1/src/exe/rbdock.cxx#4 $)

>  <Rbt.Library>
libRbt.so (2013.1, Build901 2013/11/27)

>  <Rbt.Parameter_File>
/export/apps/rDock/src/rDock_2013.1_src/data/scripts/dock_solv.prm

>  <Rbt.Receptor>
prm/pocket_docking_8.prm

>  <SCORE>
-6.80906

>  <SCORE.INTER>
-6.10411

>  <SCORE.INTER.CONST>
1

>  <SCORE.INTER.POLAR>
0

>  <SCORE.INTER.ROT>
8

>  <SCORE.INTER.SOLV>
18.9174

>  <SCORE.INTER.VDW>
-19.3085

>  <SCORE.INTER.norm>
-0.234774

>  <SCORE.INTRA>
-0.704945

>  <SCORE.INTRA.DIHEDRAL>
-1.12802

>  <SCORE.INTRA.DIHEDRAL.0>
11.6398

>  <SCORE.INTRA.POLAR>
0

>  <SCORE.INTRA.POLAR.0>
0

>  <SCORE.INTRA.REPUL>
0

>  <SCORE.INTRA.REPUL.0>
0

>  <SCORE.INTRA.SOLV>
2.60462

>  <SCORE.INTRA.SOLV.lig_0>
-81.722

>  <SCORE.INTRA.VDW>
-1.44324

>  <SCORE.INTRA.VDW.0>
1.12598

>  <SCORE.INTRA.norm>
-0.0271133

>  <SCORE.RESTR>
0

>  <SCORE.RESTR.CAVITY>
0

>  <SCORE.RESTR.norm>
0

>  <SCORE.SYSTEM>
0

>  <SCORE.SYSTEM.CONST>
0

>  <SCORE.SYSTEM.DIHEDRAL>
0

>  <SCORE.SYSTEM.SOLV>
0

>  <SCORE.SYSTEM.norm>
0

>  <SCORE.heavy>
26

>  <SCORE.norm>
-0.261887

>  <RMSD>
5.852

$$$$
ligand
 OpenBabel11021811433D
libRbt.so/2013.1/901 2013/11/27
 26 27  0  0  0  0  0  0  0  0999 V2000
   22.1736   45.2852   67.1590 C   0  0  0  0  0  0  0  0  0  0  0  0
   26.9986   39.6661   66.3746 C   0  0  0  0  0  0  0  0  0  0  0  0
   24.8252   36.5345   70.3472 P   0  0  1  0  0  0  0  0  0  0  0  0
   26.5314   36.0179   72.2204 P   0  0  1  0  0  0  0  0  0  0  0  0
   27.0909   42.4379   66.7969 C   0  0  0  0  0  0  0  0  0  0  0  0
   24.9414   43.0089   67.9653 C   0  0  0  0  0  0  0  0  0  0  0  0
   25.7896   43.1921   66.8914 C   0  0  0  0  0  0  0  0  0  0  0  0
   25.4114   44.0942   65.8954 C   0  0  0  0  0  0  0  0  0  0  0  0
   26.2280   44.3135   64.7961 N   0  0  0  0  0  0  0  0  0  0  0  0
   24.2529   44.7363   66.0133 N   0  0  0  0  0  0  0  0  0  0  0  0
   23.4759   44.5347   67.0577 C   0  0  0  0  0  0  0  0  0  0  0  0
   23.8041   43.6895   68.0152 N   0  0  0  0  0  0  0  0  0  0  0  0
   24.2413   35.3069   70.9335 O   0  5  0  0  0  0  0  0  0  0  0  0
   25.5306   35.4111   73.2287 O   0  0  0  0  0  0  0  0  0  0  0  0
   27.4782   40.6325   70.1399 S   0  0  0  0  0  0  0  0  0  0  0  0
   27.3738   42.0533   69.1459 C   0  0  0  0  0  0  0  0  0  0  0  0
   23.6474   37.5656   69.9765 O   0  0  0  0  0  0  0  0  0  0  0  0
   27.0077   34.8814   71.1851 O   0  5  0  0  0  0  0  0  0  0  0  0
   27.2203   41.5405   67.9470 N   0  0  0  0  0  0  0  0  0  0  0  0
   25.8206   37.2168   71.4135 O   0  0  0  0  0  0  0  0  0  0  0  0
   27.7587   36.5675   72.9817 O   0  0  0  0  0  0  0  0  0  0  0  0
   27.1767   40.2397   67.7577 C   0  0  2  0  0  0  0  0  0  0  0  0
   27.3034   39.4243   68.8355 C   0  0  2  0  0  0  0  0  0  0  0  0
   27.2950   37.9200   68.9112 C   0  0  0  0  0  0  0  0  0  0  0  0
   25.9686   37.3869   68.3648 C   0  0  0  0  0  0  0  0  0  0  0  0
   25.6468   36.1557   69.0150 O   0  0  0  0  0  0  0  0  0  0  0  0
  1 11  1  0  0  0  0
  3 13  1  1  0  0  0
  3 17  2  0  0  0  0
  3 20  1  0  0  0  0
  3 26  1  0  0  0  0
  4 14  1  1  0  0  0
  4 18  1  0  0  0  0
  4 21  2  0  0  0  0
  4 20  1  0  0  0  0
  5 19  1  0  0  0  0
  5  7  1  0  0  0  0
  6  7  2  0  0  0  0
  6 12  1  0  0  0  0
  7  8  1  0  0  0  0
  8  9  1  0  0  0  0
  8 10  2  0  0  0  0
 10 11  1  0  0  0  0
 11 12  2  0  0  0  0
 15 23  1  0  0  0  0
 15 16  1  0  0  0  0
 16 19  1  0  0  0  0
 19 22  1  0  0  0  0
 22  2  1  6  0  0  0
 22 23  1  0  0  0  0
 23 24  1  1  0  0  0
 24 25  1  0  0  0  0
 25 26  1  0  0  0  0
M  CHG  2  13  -1  18  -1
M  END
>  <CHROM.1>
35.17191281,-67.50850187,1.51040817,-75.16582137,120.42866502,-150.47457247
88.02466974,169.38358691,25.85449276,39.52386116,69.18833842,1.67686569,0.10336958
-0.55634054

>  <Name>
ligand

>  <RI>
0

>  <Rbt.Current_Directory>
/home/itssahil/PROJECTS/Mol_Feturizer/New_Systems/rnas/2HOJ

>  <Rbt.Executable>
rbdock ($Id: //depot/dev/client3/rdock/2013.1/src/exe/rbdock.cxx#4 $)

>  <Rbt.Library>
libRbt.so (2013.1, Build901 2013/11/27)

>  <Rbt.Parameter_File>
/export/apps/rDock/src/rDock_2013.1_src/data/scripts/dock_solv.prm

>  <Rbt.Receptor>
prm/pocket_docking_6.prm

>  <SCORE>
-9.00845

>  <SCORE.INTER>
-8.20954

>  <SCORE.INTER.CONST>
1

>  <SCORE.INTER.POLAR>
0

>  <SCORE.INTER.ROT>
8

>  <SCORE.INTER.SOLV>
16.0441

>  <SCORE.INTER.VDW>
-19.7544

>  <SCORE.INTER.norm>
-0.315752

>  <SCORE.INTRA>
-0.798908

>  <SCORE.INTRA.DIHEDRAL>
0.254223

>  <SCORE.INTRA.DIHEDRAL.0>
11.6398

>  <SCORE.INTRA.POLAR>
0

>  <SCORE.INTRA.POLAR.0>
0

>  <SCORE.INTRA.REPUL>
0

>  <SCORE.INTRA.REPUL.0>
0

>  <SCORE.INTRA.SOLV>
2.21299

>  <SCORE.INTRA.SOLV.lig_0>
-81.722

>  <SCORE.INTRA.VDW>
-2.03251

>  <SCORE.INTRA.VDW.0>
1.12598

>  <SCORE.INTRA.norm>
-0.0307272

>  <SCORE.RESTR>
0

>  <SCORE.RESTR.CAVITY>
0

>  <SCORE.RESTR.norm>
0

>  <SCORE.SYSTEM>
0

>  <SCORE.SYSTEM.CONST>
0

>  <SCORE.SYSTEM.DIHEDRAL>
0

>  <SCORE.SYSTEM.SOLV>
0

>  <SCORE.SYSTEM.norm>
0

>  <SCORE.heavy>
26

>  <SCORE.norm>
-0.346479

>  <RMSD>
5.891

$$$$
ligand
 OpenBabel11021811433D
libRbt.so/2013.1/901 2013/11/27
 26 27  0  0  0  0  0  0  0  0999 V2000
   21.3871   33.5407   72.4197 C   0  0  0  0  0  0  0  0  0  0  0  0
   22.0182   39.8108   69.1511 C   0  0  0  0  0  0  0  0  0  0  0  0
   25.2065   43.3399   65.4433 P   0  0  1  0  0  0  0  0  0  0  0  0
   26.9619   42.0094   64.0885 P   0  0  1  0  0  0  0  0  0  0  0  0
   20.5817   37.5142   68.4220 C   0  0  0  0  0  0  0  0  0  0  0  0
   21.7093   35.4462   69.2960 C   0  0  0  0  0  0  0  0  0  0  0  0
   20.7938   36.4631   69.4810 C   0  0  0  0  0  0  0  0  0  0  0  0
   20.0697   36.4930   70.6741 C   0  0  0  0  0  0  0  0  0  0  0  0
   19.1379   37.4932   70.9082 N   0  0  0  0  0  0  0  0  0  0  0  0
   20.2825   35.5444   71.5813 N   0  0  0  0  0  0  0  0  0  0  0  0
   21.1696   34.5948   71.3657 C   0  0  0  0  0  0  0  0  0  0  0  0
   21.8694   34.5381   70.2494 N   0  0  0  0  0  0  0  0  0  0  0  0
   26.1804   44.4519   65.5242 O   0  5  0  0  0  0  0  0  0  0  0  0
   27.2358   41.1729   62.8191 O   0  0  0  0  0  0  0  0  0  0  0  0
   23.7847   37.7164   66.3520 S   0  0  0  0  0  0  0  0  0  0  0  0
   22.2887   36.9732   66.8284 C   0  0  0  0  0  0  0  0  0  0  0  0
   23.7111   43.9321   65.4709 O   0  0  0  0  0  0  0  0  0  0  0  0
   27.9564   43.2743   64.1241 O   0  5  0  0  0  0  0  0  0  0  0  0
   21.8533   37.7975   67.7530 N   0  0  0  0  0  0  0  0  0  0  0  0
   25.4362   42.5248   64.0734 O   0  0  0  0  0  0  0  0  0  0  0  0
   27.1966   41.1350   65.3409 O   0  0  0  0  0  0  0  0  0  0  0  0
   22.5323   38.8729   68.0881 C   0  0  2  0  0  0  0  0  0  0  0  0
   23.7110   39.1157   67.4603 C   0  0  2  0  0  0  0  0  0  0  0  0
   24.6839   40.2509   67.6439 C   0  0  0  0  0  0  0  0  0  0  0  0
   24.4395   41.3139   66.5704 C   0  0  0  0  0  0  0  0  0  0  0  0
   25.4156   42.3499   66.6960 O   0  0  0  0  0  0  0  0  0  0  0  0
  1 11  1  0  0  0  0
  3 13  1  1  0  0  0
  3 17  2  0  0  0  0
  3 20  1  0  0  0  0
  3 26  1  0  0  0  0
  4 14  1  6  0  0  0
  4 18  1  0  0  0  0
  4 21  2  0  0  0  0
  4 20  1  0  0  0  0
  5 19  1  0  0  0  0
  5  7  1  0  0  0  0
  6  7  2  0  0  0  0
  6 12  1  0  0  0  0
  7  8  1  0  0  0  0
  8  9  1  0  0  0  0
  8 10  2  0  0  0  0
 10 11  1  0  0  0  0
 11 12  2  0  0  0  0
 15 23  1  0  0  0  0
 15 16  1  0  0  0  0
 16 19  1  0  0  0  0
 19 22  1  0  0  0  0
 22  2  1  1  0  0  0
 22 23  1  0  0  0  0
 23 24  1  6  0  0  0
 24 25  1  0  0  0  0
 25 26  1  0  0  0  0
M  CHG  2  13  -1  18  -1
M  END
>  <CHROM.1>
57.91382392,79.30897040,-34.66743520,178.00003143,82.18596564,-176.48067741
173.68647722,179.22858128,23.74677446,39.54918172,67.20043860,-2.32002793
0.72457812,-0.13297039

>  <Name>
ligand

>  <RI>
0

>  <Rbt.Current_Directory>
/home/itssahil/PROJECTS/Mol_Feturizer/New_Systems/rnas/2HOJ

>  <Rbt.Executable>
rbdock ($Id: //depot/dev/client3/rdock/2013.1/src/exe/rbdock.cxx#4 $)

>  <Rbt.Library>
libRbt.so (2013.1, Build901 2013/11/27)

>  <Rbt.Parameter_File>
/export/apps/rDock/src/rDock_2013.1_src/data/scripts/dock_solv.prm

>  <Rbt.Receptor>
prm/pocket_docking_8.prm

>  <SCORE>
-8.13011

>  <SCORE.INTER>
-3.42039

>  <SCORE.INTER.CONST>
1

>  <SCORE.INTER.POLAR>
0

>  <SCORE.INTER.ROT>
8

>  <SCORE.INTER.SOLV>
19.7212

>  <SCORE.INTER.VDW>
-17.7873

>  <SCORE.INTER.norm>
-0.131553

>  <SCORE.INTRA>
-4.70973

>  <SCORE.INTRA.DIHEDRAL>
-6.40989

>  <SCORE.INTRA.DIHEDRAL.0>
11.6398

>  <SCORE.INTRA.POLAR>
0

>  <SCORE.INTRA.POLAR.0>
0

>  <SCORE.INTRA.REPUL>
0

>  <SCORE.INTRA.REPUL.0>
0

>  <SCORE.INTRA.SOLV>
3.70344

>  <SCORE.INTRA.SOLV.lig_0>
-81.722

>  <SCORE.INTRA.VDW>
-3.3565

>  <SCORE.INTRA.VDW.0>
1.12598

>  <SCORE.INTRA.norm>
-0.181143

>  <SCORE.RESTR>
0

>  <SCORE.RESTR.CAVITY>
0

>  <SCORE.RESTR.norm>
0

>  <SCORE.SYSTEM>
0

>  <SCORE.SYSTEM.CONST>
0

>  <SCORE.SYSTEM.DIHEDRAL>
0

>  <SCORE.SYSTEM.SOLV>
0

>  <SCORE.SYSTEM.norm>
0

>  <SCORE.heavy>
26

>  <SCORE.norm>
-0.312697

>  <RMSD>
5.972

$$$$
ligand
 OpenBabel11021811433D
libRbt.so/2013.1/901 2013/11/27
 26 27  0  0  0  0  0  0  0  0999 V2000
   19.5136   43.9678   66.1391 C   0  0  0  0  0  0  0  0  0  0  0  0
   24.9411   41.2562   67.7765 C   0  0  0  0  0  0  0  0  0  0  0  0
   22.2202   38.1375   65.6106 P   0  0  1  0  0  0  0  0  0  0  0  0
   20.5879   39.7682   66.7783 P   0  0  1  0  0  0  0  0  0  0  0  0
   25.1947   43.6790   66.3853 C   0  0  0  0  0  0  0  0  0  0  0  0
   22.9195   43.5162   67.4384 C   0  0  0  0  0  0  0  0  0  0  0  0
   23.6911   43.7557   66.3187 C   0  0  0  0  0  0  0  0  0  0  0  0
   23.0429   44.0712   65.1233 C   0  0  0  0  0  0  0  0  0  0  0  0
   23.7725   44.3199   63.9703 N   0  0  0  0  0  0  0  0  0  0  0  0
   21.7143   44.1240   65.1047 N   0  0  0  0  0  0  0  0  0  0  0  0
   21.0171   43.8929   66.1981 C   0  0  0  0  0  0  0  0  0  0  0  0
   21.5988   43.5922   67.3427 N   0  0  0  0  0  0  0  0  0  0  0  0
   21.8109   37.1954   66.6767 O   0  5  0  0  0  0  0  0  0  0  0  0
   20.0323   38.6171   67.6458 O   0  0  0  0  0  0  0  0  0  0  0  0
   26.5404   40.8306   64.2264 S   0  0  0  0  0  0  0  0  0  0  0  0
   26.1667   42.4978   64.5398 C   0  0  0  0  0  0  0  0  0  0  0  0
   22.5276   37.3197   64.2599 O   0  0  0  0  0  0  0  0  0  0  0  0
   21.8605   40.4276   67.5104 O   0  5  0  0  0  0  0  0  0  0  0  0
   25.6498   42.4428   65.7455 N   0  0  0  0  0  0  0  0  0  0  0  0
   21.0327   39.1917   65.3418 O   0  0  0  0  0  0  0  0  0  0  0  0
   19.4926   40.8409   66.5848 O   0  0  0  0  0  0  0  0  0  0  0  0
   25.5357   41.3029   66.3916 C   0  0  2  0  0  0  0  0  0  0  0  0
   25.9586   40.1673   65.7800 C   0  0  2  0  0  0  0  0  0  0  0  0
   25.9450   38.7447   66.2747 C   0  0  0  0  0  0  0  0  0  0  0  0
   24.6512   38.0595   65.8289 C   0  0  0  0  0  0  0  0  0  0  0  0
   23.5440   38.9296   66.0724 O   0  0  0  0  0  0  0  0  0  0  0  0
  1 11  1  0  0  0  0
  3 13  1  1  0  0  0
  3 17  2  0  0  0  0
  3 20  1  0  0  0  0
  3 26  1  0  0  0  0
  4 14  1  1  0  0  0
  4 18  1  0  0  0  0
  4 21  2  0  0  0  0
  4 20  1  0  0  0  0
  5 19  1  0  0  0  0
  5  7  1  0  0  0  0
  6  7  2  0  0  0  0
  6 12  1  0  0  0  0
  7  8  1  0  0  0  0
  8  9  1  0  0  0  0
  8 10  2  0  0  0  0
 10 11  1  0  0  0  0
 11 12  2  0  0  0  0
 15 23  1  0  0  0  0
 15 16  1  0  0  0  0
 16 19  1  0  0  0  0
 19 22  1  0  0  0  0
 22  2  1  6  0  0  0
 22 23  1  0  0  0  0
 23 24  1  1  0  0  0
 24 25  1  0  0  0  0
 25 26  1  0  0  0  0
M  CHG  2  13  -1  18  -1
M  END
>  <CHROM.1>
49.43190798,103.14658579,105.06777664,-62.79136977,-87.96215944,-45.43759884
-178.86409245,80.63250115,23.03308192,40.86284952,65.99059932,0.91659382
0.23804119,-0.00294087

>  <Name>
ligand

>  <RI>
0

>  <Rbt.Current_Directory>
/home/itssahil/PROJECTS/Mol_Feturizer/New_Systems/rnas/2HOJ

>  <Rbt.Executable>
rbdock ($Id: //depot/dev/client3/rdock/2013.1/src/exe/rbdock.cxx#4 $)

>  <Rbt.Library>
libRbt.so (2013.1, Build901 2013/11/27)

>  <Rbt.Parameter_File>
/export/apps/rDock/src/rDock_2013.1_src/data/scripts/dock_solv.prm

>  <Rbt.Receptor>
prm/pocket_docking_5.prm

>  <SCORE>
-11.6711

>  <SCORE.INTER>
-7.3304

>  <SCORE.INTER.CONST>
1

>  <SCORE.INTER.POLAR>
0

>  <SCORE.INTER.ROT>
8

>  <SCORE.INTER.SOLV>
23.171

>  <SCORE.INTER.VDW>
-21.5439

>  <SCORE.INTER.norm>
-0.281938

>  <SCORE.INTRA>
-4.34074

>  <SCORE.INTRA.DIHEDRAL>
-5.13761

>  <SCORE.INTRA.DIHEDRAL.0>
11.6398

>  <SCORE.INTRA.POLAR>
0

>  <SCORE.INTRA.POLAR.0>
0

>  <SCORE.INTRA.REPUL>
0

>  <SCORE.INTRA.REPUL.0>
0

>  <SCORE.INTRA.SOLV>
4.98768

>  <SCORE.INTRA.SOLV.lig_0>
-81.722

>  <SCORE.INTRA.VDW>
-4.26578

>  <SCORE.INTRA.VDW.0>
1.12598

>  <SCORE.INTRA.norm>
-0.166951

>  <SCORE.RESTR>
0

>  <SCORE.RESTR.CAVITY>
0

>  <SCORE.RESTR.norm>
0

>  <SCORE.SYSTEM>
0

>  <SCORE.SYSTEM.CONST>
0

>  <SCORE.SYSTEM.DIHEDRAL>
0

>  <SCORE.SYSTEM.SOLV>
0

>  <SCORE.SYSTEM.norm>
0

>  <SCORE.heavy>
26

>  <SCORE.norm>
-0.44889

>  <RMSD>
6.164

$$$$
ligand
 OpenBabel11021811433D
libRbt.so/2013.1/901 2013/11/27
 26 27  0  0  0  0  0  0  0  0999 V2000
   24.4564   46.3997   64.4789 C   0  0  0  0  0  0  0  0  0  0  0  0
   25.3012   39.4264   67.2616 C   0  0  0  0  0  0  0  0  0  0  0  0
   25.8348   36.4833   70.6796 P   0  0  1  0  0  0  0  0  0  0  0  0
   24.5938   35.0455   72.4345 P   0  0  1  0  0  0  0  0  0  0  0  0
   23.9223   41.8086   67.8037 C   0  0  0  0  0  0  0  0  0  0  0  0
   23.5074   44.2322   67.2884 C   0  0  0  0  0  0  0  0  0  0  0  0
   24.0644   43.0230   66.9227 C   0  0  0  0  0  0  0  0  0  0  0  0
   24.7630   42.9539   65.7161 C   0  0  0  0  0  0  0  0  0  0  0  0
   25.3406   41.7625   65.3033 N   0  0  0  0  0  0  0  0  0  0  0  0
   24.8616   44.0466   64.9647 N   0  0  0  0  0  0  0  0  0  0  0  0
   24.3185   45.1816   65.3544 C   0  0  0  0  0  0  0  0  0  0  0  0
   23.6521   45.2800   66.4881 N   0  0  0  0  0  0  0  0  0  0  0  0
   26.7526   35.3257   70.5830 O   0  5  0  0  0  0  0  0  0  0  0  0
   23.7094   35.0767   73.7007 O   0  0  0  0  0  0  0  0  0  0  0  0
   27.1305   41.7018   69.8729 S   0  0  0  0  0  0  0  0  0  0  0  0
   25.6497   42.4384   69.3417 C   0  0  0  0  0  0  0  0  0  0  0  0
   24.6770   36.3449   69.5714 O   0  0  0  0  0  0  0  0  0  0  0  0
   23.7159   34.5577   71.1770 O   0  5  0  0  0  0  0  0  0  0  0  0
   25.1905   41.5513   68.4896 N   0  0  0  0  0  0  0  0  0  0  0  0
   25.1722   36.5209   72.1470 O   0  0  0  0  0  0  0  0  0  0  0  0
   25.7692   34.0662   72.6525 O   0  0  0  0  0  0  0  0  0  0  0  0
   25.8425   40.4362   68.2421 C   0  0  2  0  0  0  0  0  0  0  0  0
   27.0185   40.2181   68.8839 C   0  0  2  0  0  0  0  0  0  0  0  0
   27.9637   39.0490   68.7913 C   0  0  0  0  0  0  0  0  0  0  0  0
   27.2125   37.7558   69.1155 C   0  0  0  0  0  0  0  0  0  0  0  0
   26.6581   37.8445   70.4296 O   0  0  0  0  0  0  0  0  0  0  0  0
  1 11  1  0  0  0  0
  3 13  1  6  0  0  0
  3 17  2  0  0  0  0
  3 20  1  0  0  0  0
  3 26  1  0  0  0  0
  4 14  1  1  0  0  0
  4 18  1  0  0  0  0
  4 21  2  0  0  0  0
  4 20  1  0  0  0  0
  5 19  1  0  0  0  0
  5  7  1  0  0  0  0
  6  7  2  0  0  0  0
  6 12  1  0  0  0  0
  7  8  1  0  0  0  0
  8  9  1  0  0  0  0
  8 10  2  0  0  0  0
 10 11  1  0  0  0  0
 11 12  2  0  0  0  0
 15 23  1  0  0  0  0
 15 16  1  0  0  0  0
 16 19  1  0  0  0  0
 19 22  1  0  0  0  0
 22  2  1  6  0  0  0
 22 23  1  0  0  0  0
 23 24  1  1  0  0  0
 24 25  1  0  0  0  0
 25 26  1  0  0  0  0
M  CHG  2  13  -1  18  -1
M  END
>  <CHROM.1>
-50.17038091,63.98070332,-104.89315676,-169.17467133,123.62559958,-58.85188079
177.69630156,60.42416896,25.35213066,39.46244053,69.15445591,1.61891550,-0.01925545
-0.57380145

>  <Name>
ligand

>  <RI>
0

>  <Rbt.Current_Directory>
/home/itssahil/PROJECTS/Mol_Feturizer/New_Systems/rnas/2HOJ

>  <Rbt.Executable>
rbdock ($Id: //depot/dev/client3/rdock/2013.1/src/exe/rbdock.cxx#4 $)

>  <Rbt.Library>
libRbt.so (2013.1, Build901 2013/11/27)

>  <Rbt.Parameter_File>
/export/apps/rDock/src/rDock_2013.1_src/data/scripts/dock_solv.prm

>  <Rbt.Receptor>
prm/pocket_docking_8.prm

>  <SCORE>
-10.8398

>  <SCORE.INTER>
-8.03859

>  <SCORE.INTER.CONST>
1

>  <SCORE.INTER.POLAR>
0

>  <SCORE.INTER.ROT>
8

>  <SCORE.INTER.SOLV>
11.2566

>  <SCORE.INTER.VDW>
-18.0446

>  <SCORE.INTER.norm>
-0.309177

>  <SCORE.INTRA>
-2.80118

>  <SCORE.INTRA.DIHEDRAL>
-6.69436

>  <SCORE.INTRA.DIHEDRAL.0>
11.6398

>  <SCORE.INTRA.POLAR>
0

>  <SCORE.INTRA.POLAR.0>
0

>  <SCORE.INTRA.REPUL>
0

>  <SCORE.INTRA.REPUL.0>
0

>  <SCORE.INTRA.SOLV>
6.81899

>  <SCORE.INTRA.SOLV.lig_0>
-81.722

>  <SCORE.INTRA.VDW>
-2.86349

>  <SCORE.INTRA.VDW.0>
1.12598

>  <SCORE.INTRA.norm>
-0.107738

>  <SCORE.RESTR>
0

>  <SCORE.RESTR.CAVITY>
0

>  <SCORE.RESTR.norm>
0

>  <SCORE.SYSTEM>
0

>  <SCORE.SYSTEM.CONST>
0

>  <SCORE.SYSTEM.DIHEDRAL>
0

>  <SCORE.SYSTEM.SOLV>
0

>  <SCORE.SYSTEM.norm>
0

>  <SCORE.heavy>
26

>  <SCORE.norm>
-0.416914

>  <RMSD>
6.166

$$$$
ligand
 OpenBabel11021811433D
libRbt.so/2013.1/901 2013/11/27
 26 27  0  0  0  0  0  0  0  0999 V2000
   25.6742   38.1490   65.2114 C   0  0  0  0  0  0  0  0  0  0  0  0
   21.6366   41.3307   67.7446 C   0  0  0  0  0  0  0  0  0  0  0  0
   24.0744   44.6709   65.2298 P   0  0  1  0  0  0  0  0  0  0  0  0
   26.5905   44.7519   64.6387 P   0  0  1  0  0  0  0  0  0  0  0  0
   20.2886   39.0487   66.8254 C   0  0  0  0  0  0  0  0  0  0  0  0
   22.2214   39.4013   65.2596 C   0  0  0  0  0  0  0  0  0  0  0  0
   21.7143   38.8096   66.3993 C   0  0  0  0  0  0  0  0  0  0  0  0
   22.5559   37.9844   67.1473 C   0  0  0  0  0  0  0  0  0  0  0  0
   22.0945   37.3662   68.2999 N   0  0  0  0  0  0  0  0  0  0  0  0
   23.8058   37.7949   66.7350 N   0  0  0  0  0  0  0  0  0  0  0  0
   24.2502   38.3832   65.6435 C   0  0  0  0  0  0  0  0  0  0  0  0
   23.4808   39.1681   64.9147 N   0  0  0  0  0  0  0  0  0  0  0  0
   23.9537   46.1399   65.3676 O   0  5  0  0  0  0  0  0  0  0  0  0
   26.3289   46.2516   64.3763 O   0  0  0  0  0  0  0  0  0  0  0  0
   18.7148   42.1625   65.2721 S   0  0  0  0  0  0  0  0  0  0  0  0
   18.8430   40.4484   65.5226 C   0  0  0  0  0  0  0  0  0  0  0  0
   23.8724   44.2574   63.6884 O   0  0  0  0  0  0  0  0  0  0  0  0
   28.0868   44.5568   65.1984 O   0  5  0  0  0  0  0  0  0  0  0  0
   19.8531   40.3663   66.3574 N   0  0  0  0  0  0  0  0  0  0  0  0
   25.5344   44.2043   65.7242 O   0  0  0  0  0  0  0  0  0  0  0  0
   26.4275   43.9632   63.3198 O   0  0  0  0  0  0  0  0  0  0  0  0
   20.4790   41.4413   66.7847 C   0  0  2  0  0  0  0  0  0  0  0  0
   20.0638   42.6531   66.3358 C   0  0  2  0  0  0  0  0  0  0  0  0
   20.5909   44.0287   66.6501 C   0  0  0  0  0  0  0  0  0  0  0  0
   21.6831   44.4009   65.6448 C   0  0  0  0  0  0  0  0  0  0  0  0
   22.9498   43.9522   66.1308 O   0  0  0  0  0  0  0  0  0  0  0  0
  1 11  1  0  0  0  0
  3 13  1  1  0  0  0
  3 17  2  0  0  0  0
  3 20  1  0  0  0  0
  3 26  1  0  0  0  0
  4 14  1  6  0  0  0
  4 18  1  0  0  0  0
  4 21  2  0  0  0  0
  4 20  1  0  0  0  0
  5 19  1  0  0  0  0
  5  7  1  0  0  0  0
  6  7  2  0  0  0  0
  6 12  1  0  0  0  0
  7  8  1  0  0  0  0
  8  9  1  0  0  0  0
  8 10  2  0  0  0  0
 10 11  1  0  0  0  0
 11 12  2  0  0  0  0
 15 23  1  0  0  0  0
 15 16  1  0  0  0  0
 16 19  1  0  0  0  0
 19 22  1  0  0  0  0
 22  2  1  6  0  0  0
 22 23  1  0  0  0  0
 23 24  1  1  0  0  0
 24 25  1  0  0  0  0
 25 26  1  0  0  0  0
M  CHG  2  13  -1  18  -1
M  END
>  <CHROM.1>
-69.41115530,118.69380519,-28.49040215,49.72976880,-90.04251029,-88.90128650
-166.64930908,60.19856994,23.06131710,42.16757274,65.65347021,-2.27459681
0.14903771,-0.18137012

>  <Name>
ligand

>  <RI>
0

>  <Rbt.Current_Directory>
/home/itssahil/PROJECTS/Mol_Feturizer/New_Systems/rnas/2HOJ

>  <Rbt.Executable>
rbdock ($Id: //depot/dev/client3/rdock/2013.1/src/exe/rbdock.cxx#4 $)

>  <Rbt.Library>
libRbt.so (2013.1, Build901 2013/11/27)

>  <Rbt.Parameter_File>
/export/apps/rDock/src/rDock_2013.1_src/data/scripts/dock_solv.prm

>  <Rbt.Receptor>
prm/pocket_docking_7.prm

>  <SCORE>
-20.7634

>  <SCORE.INTER>
-18.2984

>  <SCORE.INTER.CONST>
1

>  <SCORE.INTER.POLAR>
0

>  <SCORE.INTER.ROT>
8

>  <SCORE.INTER.SOLV>
16.0335

>  <SCORE.INTER.VDW>
-26.4768

>  <SCORE.INTER.norm>
-0.703785

>  <SCORE.INTRA>
-2.46495

>  <SCORE.INTRA.DIHEDRAL>
-3.01195

>  <SCORE.INTRA.DIHEDRAL.0>
11.6398

>  <SCORE.INTRA.POLAR>
0

>  <SCORE.INTRA.POLAR.0>
0

>  <SCORE.INTRA.REPUL>
0

>  <SCORE.INTRA.REPUL.0>
0

>  <SCORE.INTRA.SOLV>
1.77837

>  <SCORE.INTRA.SOLV.lig_0>
-81.722

>  <SCORE.INTRA.VDW>
-1.84816

>  <SCORE.INTRA.VDW.0>
1.12598

>  <SCORE.INTRA.norm>
-0.0948059

>  <SCORE.RESTR>
0

>  <SCORE.RESTR.CAVITY>
0

>  <SCORE.RESTR.norm>
0

>  <SCORE.SYSTEM>
0

>  <SCORE.SYSTEM.CONST>
0

>  <SCORE.SYSTEM.DIHEDRAL>
0

>  <SCORE.SYSTEM.SOLV>
0

>  <SCORE.SYSTEM.norm>
0

>  <SCORE.heavy>
26

>  <SCORE.norm>
-0.798591

>  <RMSD>
6.332

$$$$
ligand
 OpenBabel11021811433D
libRbt.so/2013.1/901 2013/11/27
 26 27  0  0  0  0  0  0  0  0999 V2000
   26.0473   37.6874   65.1744 C   0  0  0  0  0  0  0  0  0  0  0  0
   21.8288   40.8348   67.9471 C   0  0  0  0  0  0  0  0  0  0  0  0
   23.1535   44.4523   65.7954 P   0  0  1  0  0  0  0  0  0  0  0  0
   24.6177   42.9924   67.3483 P   0  0  1  0  0  0  0  0  0  0  0  0
   20.8037   38.3034   67.3060 C   0  0  0  0  0  0  0  0  0  0  0  0
   22.4388   38.3357   65.3988 C   0  0  0  0  0  0  0  0  0  0  0  0
   22.1921   38.1400   66.7431 C   0  0  0  0  0  0  0  0  0  0  0  0
   23.2616   37.7870   67.5679 C   0  0  0  0  0  0  0  0  0  0  0  0
   23.0662   37.5786   68.9250 N   0  0  0  0  0  0  0  0  0  0  0  0
   24.4705   37.6478   67.0317 N   0  0  0  0  0  0  0  0  0  0  0  0
   24.6621   37.8489   65.7442 C   0  0  0  0  0  0  0  0  0  0  0  0
   23.6731   38.1829   64.9383 N   0  0  0  0  0  0  0  0  0  0  0  0
   24.0864   45.6003   65.7357 O   0  5  0  0  0  0  0  0  0  0  0  0
   25.7500   43.8827   66.7904 O   0  0  0  0  0  0  0  0  0  0  0  0
   18.7745   40.9876   65.4997 S   0  0  0  0  0  0  0  0  0  0  0  0
   19.1502   39.3438   65.9168 C   0  0  0  0  0  0  0  0  0  0  0  0
   23.5719   43.3618   64.6893 O   0  0  0  0  0  0  0  0  0  0  0  0
   24.9302   42.6236   68.8834 O   0  5  0  0  0  0  0  0  0  0  0  0
   20.1765   39.4913   66.7224 N   0  0  0  0  0  0  0  0  0  0  0  0
   23.2183   43.7845   67.2595 O   0  0  0  0  0  0  0  0  0  0  0  0
   24.5270   41.6939   66.5154 O   0  0  0  0  0  0  0  0  0  0  0  0
   20.6502   40.6818   67.0190 C   0  0  2  0  0  0  0  0  0  0  0  0
   20.0586   41.7703   66.4644 C   0  0  2  0  0  0  0  0  0  0  0  0
   20.3897   43.2312   66.6216 C   0  0  0  0  0  0  0  0  0  0  0  0
   20.8582   43.7977   65.2793 C   0  0  0  0  0  0  0  0  0  0  0  0
   21.6538   44.9628   65.5064 O   0  0  0  0  0  0  0  0  0  0  0  0
  1 11  1  0  0  0  0
  3 13  1  6  0  0  0
  3 17  2  0  0  0  0
  3 20  1  0  0  0  0
  3 26  1  0  0  0  0
  4 14  1  6  0  0  0
  4 18  1  0  0  0  0
  4 21  2  0  0  0  0
  4 20  1  0  0  0  0
  5 19  1  0  0  0  0
  5  7  1  0  0  0  0
  6  7  2  0  0  0  0
  6 12  1  0  0  0  0
  7  8  1  0  0  0  0
  8  9  1  0  0  0  0
  8 10  2  0  0  0  0
 10 11  1  0  0  0  0
 11 12  2  0  0  0  0
 15 23  1  0  0  0  0
 15 16  1  0  0  0  0
 16 19  1  0  0  0  0
 19 22  1  0  0  0  0
 22  2  1  6  0  0  0
 22 23  1  0  0  0  0
 23 24  1  1  0  0  0
 24 25  1  0  0  0  0
 25 26  1  0  0  0  0
M  CHG  2  13  -1  18  -1
M  END
>  <CHROM.1>
-73.25047284,112.57465443,-42.40010830,45.34923680,-65.06930563,-157.07061338
84.55174796,167.26168347,22.63230388,41.33113764,66.45954640,-1.70400610
-0.13297675,-0.08001970

>  <Name>
ligand

>  <RI>
0

>  <Rbt.Current_Directory>
/home/itssahil/PROJECTS/Mol_Feturizer/New_Systems/rnas/2HOJ

>  <Rbt.Executable>
rbdock ($Id: //depot/dev/client3/rdock/2013.1/src/exe/rbdock.cxx#4 $)

>  <Rbt.Library>
libRbt.so (2013.1, Build901 2013/11/27)

>  <Rbt.Parameter_File>
/export/apps/rDock/src/rDock_2013.1_src/data/scripts/dock_solv.prm

>  <Rbt.Receptor>
prm/pocket_docking_5.prm

>  <SCORE>
-19.9765

>  <SCORE.INTER>
-18.5401

>  <SCORE.INTER.CONST>
1

>  <SCORE.INTER.POLAR>
0

>  <SCORE.INTER.ROT>
8

>  <SCORE.INTER.SOLV>
18.9895

>  <SCORE.INTER.VDW>
-27.6232

>  <SCORE.INTER.norm>
-0.71308

>  <SCORE.INTRA>
-1.43666

>  <SCORE.INTRA.DIHEDRAL>
-1.26692

>  <SCORE.INTRA.DIHEDRAL.0>
11.6398

>  <SCORE.INTRA.POLAR>
0

>  <SCORE.INTRA.POLAR.0>
0

>  <SCORE.INTRA.REPUL>
0

>  <SCORE.INTRA.REPUL.0>
0

>  <SCORE.INTRA.SOLV>
5.45937

>  <SCORE.INTRA.SOLV.lig_0>
-81.722

>  <SCORE.INTRA.VDW>
-3.53288

>  <SCORE.INTRA.VDW.0>
1.12598

>  <SCORE.INTRA.norm>
-0.0552562

>  <SCORE.RESTR>
0.000263821

>  <SCORE.RESTR.CAVITY>
0.000263821

>  <SCORE.RESTR.norm>
1.0147e-05

>  <SCORE.SYSTEM>
0

>  <SCORE.SYSTEM.CONST>
0

>  <SCORE.SYSTEM.DIHEDRAL>
0

>  <SCORE.SYSTEM.SOLV>
0

>  <SCORE.SYSTEM.norm>
0

>  <SCORE.heavy>
26

>  <SCORE.norm>
-0.768326

>  <RMSD>
6.344

$$$$
ligand
 OpenBabel11021811433D
libRbt.so/2013.1/901 2013/11/27
 26 27  0  0  0  0  0  0  0  0999 V2000
   21.4330   43.3189   66.8831 C   0  0  0  0  0  0  0  0  0  0  0  0
   21.2161   36.0026   69.5153 C   0  0  0  0  0  0  0  0  0  0  0  0
   26.6129   34.7047   73.6380 P   0  0  1  0  0  0  0  0  0  0  0  0
   25.9075   36.5120   75.3478 P   0  0  1  0  0  0  0  0  0  0  0  0
   21.6999   37.6463   67.2941 C   0  0  0  0  0  0  0  0  0  0  0  0
   21.6285   39.7705   65.9544 C   0  0  0  0  0  0  0  0  0  0  0  0
   21.6293   39.1479   67.1868 C   0  0  0  0  0  0  0  0  0  0  0  0
   21.5626   39.9447   68.3310 C   0  0  0  0  0  0  0  0  0  0  0  0
   21.5609   39.3681   69.5923 N   0  0  0  0  0  0  0  0  0  0  0  0
   21.5065   41.2662   68.1940 N   0  0  0  0  0  0  0  0  0  0  0  0
   21.5034   41.8185   66.9981 C   0  0  0  0  0  0  0  0  0  0  0  0
   21.5657   41.0941   65.8980 N   0  0  0  0  0  0  0  0  0  0  0  0
   27.6157   34.3177   72.6201 O   0  5  0  0  0  0  0  0  0  0  0  0
   24.4509   36.1415   74.9911 O   0  0  0  0  0  0  0  0  0  0  0  0
   24.9816   37.0148   69.1426 S   0  0  0  0  0  0  0  0  0  0  0  0
   24.0256   37.7120   67.8708 C   0  0  0  0  0  0  0  0  0  0  0  0
   26.7546   33.7474   74.9230 O   0  0  0  0  0  0  0  0  0  0  0  0
   26.3999   35.6199   76.5935 O   0  5  0  0  0  0  0  0  0  0  0  0
   22.8226   37.2702   68.1560 N   0  0  0  0  0  0  0  0  0  0  0  0
   26.8586   36.2343   74.0780 O   0  0  0  0  0  0  0  0  0  0  0  0
   25.9794   38.0085   75.7262 O   0  0  0  0  0  0  0  0  0  0  0  0
   22.6040   36.5009   69.2002 C   0  0  2  0  0  0  0  0  0  0  0  0
   23.6580   36.1592   69.9841 C   0  0  2  0  0  0  0  0  0  0  0  0
   23.6997   35.3010   71.2213 C   0  0  0  0  0  0  0  0  0  0  0  0
   25.0726   35.4263   71.8857 C   0  0  0  0  0  0  0  0  0  0  0  0
   25.1338   34.5575   73.0186 O   0  0  0  0  0  0  0  0  0  0  0  0
  1 11  1  0  0  0  0
  3 13  1  6  0  0  0
  3 17  2  0  0  0  0
  3 20  1  0  0  0  0
  3 26  1  0  0  0  0
  4 14  1  6  0  0  0
  4 18  1  0  0  0  0
  4 21  2  0  0  0  0
  4 20  1  0  0  0  0
  5 19  1  0  0  0  0
  5  7  1  0  0  0  0
  6  7  2  0  0  0  0
  6 12  1  0  0  0  0
  7  8  1  0  0  0  0
  8  9  1  0  0  0  0
  8 10  2  0  0  0  0
 10 11  1  0  0  0  0
 11 12  2  0  0  0  0
 15 23  1  0  0  0  0
 15 16  1  0  0  0  0
 16 19  1  0  0  0  0
 19 22  1  0  0  0  0
 22  2  1  6  0  0  0
 22 23  1  0  0  0  0
 23 24  1  1  0  0  0
 24 25  1  0  0  0  0
 25 26  1  0  0  0  0
M  CHG  2  13  -1  18  -1
M  END
>  <CHROM.1>
-170.74222221,-55.09979160,125.53876556,-53.94906743,10.15413237,-176.95823866
178.24994481,-59.83372464,24.13442150,37.21588392,71.01699747,3.03354554
1.09027676,-2.45096897

>  <Name>
ligand

>  <RI>
0

>  <Rbt.Current_Directory>
/home/itssahil/PROJECTS/Mol_Feturizer/New_Systems/rnas/2HOJ

>  <Rbt.Executable>
rbdock ($Id: //depot/dev/client3/rdock/2013.1/src/exe/rbdock.cxx#4 $)

>  <Rbt.Library>
libRbt.so (2013.1, Build901 2013/11/27)

>  <Rbt.Parameter_File>
/export/apps/rDock/src/rDock_2013.1_src/data/scripts/dock_solv.prm

>  <Rbt.Receptor>
prm/blind_docking_100.prm

>  <SCORE>
-16.0678

>  <SCORE.INTER>
-11.0348

>  <SCORE.INTER.CONST>
1

>  <SCORE.INTER.POLAR>
0

>  <SCORE.INTER.ROT>
8

>  <SCORE.INTER.SOLV>
20.4535

>  <SCORE.INTER.VDW>
-23.1077

>  <SCORE.INTER.norm>
-0.424415

>  <SCORE.INTRA>
-5.03302

>  <SCORE.INTRA.DIHEDRAL>
-6.78124

>  <SCORE.INTRA.DIHEDRAL.0>
11.6398

>  <SCORE.INTRA.POLAR>
0

>  <SCORE.INTRA.POLAR.0>
0

>  <SCORE.INTRA.REPUL>
0

>  <SCORE.INTRA.REPUL.0>
0

>  <SCORE.INTRA.SOLV>
3.37199

>  <SCORE.INTRA.SOLV.lig_0>
-81.722

>  <SCORE.INTRA.VDW>
-3.32839

>  <SCORE.INTRA.VDW.0>
1.12598

>  <SCORE.INTRA.norm>
-0.193578

>  <SCORE.RESTR>
0

>  <SCORE.RESTR.CAVITY>
0

>  <SCORE.RESTR.norm>
0

>  <SCORE.SYSTEM>
0

>  <SCORE.SYSTEM.CONST>
0

>  <SCORE.SYSTEM.DIHEDRAL>
0

>  <SCORE.SYSTEM.SOLV>
0

>  <SCORE.SYSTEM.norm>
0

>  <SCORE.heavy>
26

>  <SCORE.norm>
-0.617992

>  <RMSD>
6.350

$$$$
ligand
 OpenBabel11021811433D
libRbt.so/2013.1/901 2013/11/27
 26 27  0  0  0  0  0  0  0  0999 V2000
   27.0378   40.6563   63.5015 C   0  0  0  0  0  0  0  0  0  0  0  0
   22.4106   36.6963   69.3240 C   0  0  0  0  0  0  0  0  0  0  0  0
   27.5591   35.9510   73.5354 P   0  0  1  0  0  0  0  0  0  0  0  0
   27.9652   38.4934   73.7762 P   0  0  1  0  0  0  0  0  0  0  0  0
   23.7260   37.6798   67.0498 C   0  0  0  0  0  0  0  0  0  0  0  0
   25.5934   37.8481   65.3776 C   0  0  0  0  0  0  0  0  0  0  0  0
   24.6019   38.4689   66.1110 C   0  0  0  0  0  0  0  0  0  0  0  0
   24.4311   39.8461   65.9606 C   0  0  0  0  0  0  0  0  0  0  0  0
   23.4496   40.5168   66.6750 N   0  0  0  0  0  0  0  0  0  0  0  0
   25.2277   40.5072   65.1260 N   0  0  0  0  0  0  0  0  0  0  0  0
   26.1584   39.8741   64.4418 C   0  0  0  0  0  0  0  0  0  0  0  0
   26.3456   38.5742   64.5614 N   0  0  0  0  0  0  0  0  0  0  0  0
   28.1154   34.6917   72.9909 O   0  5  0  0  0  0  0  0  0  0  0  0
   29.0155   39.5820   74.0892 O   0  0  0  0  0  0  0  0  0  0  0  0
   26.3132   36.6042   69.6448 S   0  0  0  0  0  0  0  0  0  0  0  0
   25.8350   37.2557   68.1073 C   0  0  0  0  0  0  0  0  0  0  0  0
   27.0320   35.7015   75.0347 O   0  0  0  0  0  0  0  0  0  0  0  0
   27.1552   38.8944   72.4445 O   0  5  0  0  0  0  0  0  0  0  0  0
   24.5251   37.2065   68.1822 N   0  0  0  0  0  0  0  0  0  0  0  0
   28.7061   37.0814   73.5505 O   0  0  0  0  0  0  0  0  0  0  0  0
   26.9803   38.3735   74.9610 O   0  0  0  0  0  0  0  0  0  0  0  0
   23.9160   36.7452   69.2527 C   0  0  2  0  0  0  0  0  0  0  0  0
   24.6739   36.3065   70.2899 C   0  0  2  0  0  0  0  0  0  0  0  0
   24.2508   35.7325   71.6166 C   0  0  0  0  0  0  0  0  0  0  0  0
   25.4891   35.3091   72.4100 C   0  0  0  0  0  0  0  0  0  0  0  0
   26.3359   36.4425   72.6106 O   0  0  0  0  0  0  0  0  0  0  0  0
  1 11  1  0  0  0  0
  3 13  1  6  0  0  0
  3 17  2  0  0  0  0
  3 20  1  0  0  0  0
  3 26  1  0  0  0  0
  4 14  1  1  0  0  0
  4 18  1  0  0  0  0
  4 21  2  0  0  0  0
  4 20  1  0  0  0  0
  5 19  1  0  0  0  0
  5  7  1  0  0  0  0
  6  7  2  0  0  0  0
  6 12  1  0  0  0  0
  7  8  1  0  0  0  0
  8  9  1  0  0  0  0
  8 10  2  0  0  0  0
 10 11  1  0  0  0  0
 11 12  2  0  0  0  0
 15 23  1  0  0  0  0
 15 16  1  0  0  0  0
 16 19  1  0  0  0  0
 19 22  1  0  0  0  0
 22  2  1  6  0  0  0
 22 23  1  0  0  0  0
 23 24  1  1  0  0  0
 24 25  1  0  0  0  0
 25 26  1  0  0  0  0
M  CHG  2  13  -1  18  -1
M  END
>  <CHROM.1>
165.49990804,-14.10537178,68.42637493,168.50095515,-3.63484659,59.08345000
176.07559430,48.33660636,26.13093981,37.62002745,70.16974280,-1.93620892
0.73314680,2.08376688

>  <Name>
ligand

>  <RI>
0

>  <Rbt.Current_Directory>
/home/itssahil/PROJECTS/Mol_Feturizer/New_Systems/rnas/2HOJ

>  <Rbt.Executable>
rbdock ($Id: //depot/dev/client3/rdock/2013.1/src/exe/rbdock.cxx#4 $)

>  <Rbt.Library>
libRbt.so (2013.1, Build901 2013/11/27)

>  <Rbt.Parameter_File>
/export/apps/rDock/src/rDock_2013.1_src/data/scripts/dock_solv.prm

>  <Rbt.Receptor>
prm/pocket_docking_7.prm

>  <SCORE>
-11.1311

>  <SCORE.INTER>
-7.67759

>  <SCORE.INTER.CONST>
1

>  <SCORE.INTER.POLAR>
0

>  <SCORE.INTER.ROT>
8

>  <SCORE.INTER.SOLV>
17.4901

>  <SCORE.INTER.VDW>
-19.8818

>  <SCORE.INTER.norm>
-0.295292

>  <SCORE.INTRA>
-3.45356

>  <SCORE.INTRA.DIHEDRAL>
-6.23719

>  <SCORE.INTRA.DIHEDRAL.0>
11.6398

>  <SCORE.INTRA.POLAR>
0

>  <SCORE.INTRA.POLAR.0>
0

>  <SCORE.INTRA.REPUL>
0

>  <SCORE.INTRA.REPUL.0>
0

>  <SCORE.INTRA.SOLV>
2.7226

>  <SCORE.INTRA.SOLV.lig_0>
-81.722

>  <SCORE.INTRA.VDW>
-1.69626

>  <SCORE.INTRA.VDW.0>
1.12598

>  <SCORE.INTRA.norm>
-0.132829

>  <SCORE.RESTR>
0

>  <SCORE.RESTR.CAVITY>
0

>  <SCORE.RESTR.norm>
0

>  <SCORE.SYSTEM>
0

>  <SCORE.SYSTEM.CONST>
0

>  <SCORE.SYSTEM.DIHEDRAL>
0

>  <SCORE.SYSTEM.SOLV>
0

>  <SCORE.SYSTEM.norm>
0

>  <SCORE.heavy>
26

>  <SCORE.norm>
-0.428121

>  <RMSD>
6.420

$$$$
ligand
 OpenBabel11021811433D
libRbt.so/2013.1/901 2013/11/27
 26 27  0  0  0  0  0  0  0  0999 V2000
   22.9062   44.3599   67.4804 C   0  0  0  0  0  0  0  0  0  0  0  0
   26.9830   37.1220   68.6889 C   0  0  0  0  0  0  0  0  0  0  0  0
   26.2643   36.4371   73.7609 P   0  0  1  0  0  0  0  0  0  0  0  0
   27.3106   37.6372   75.7986 P   0  0  1  0  0  0  0  0  0  0  0  0
   25.6966   39.4007   67.6779 C   0  0  0  0  0  0  0  0  0  0  0  0
   25.2978   41.7524   68.4669 C   0  0  0  0  0  0  0  0  0  0  0  0
   24.9571   40.7128   67.6246 C   0  0  0  0  0  0  0  0  0  0  0  0
   23.9103   40.9081   66.7219 C   0  0  0  0  0  0  0  0  0  0  0  0
   23.5290   39.8950   65.8549 N   0  0  0  0  0  0  0  0  0  0  0  0
   23.2796   42.0787   66.7096 N   0  0  0  0  0  0  0  0  0  0  0  0
   23.6408   43.0456   67.5280 C   0  0  0  0  0  0  0  0  0  0  0  0
   24.6250   42.8930   68.3924 N   0  0  0  0  0  0  0  0  0  0  0  0
   27.1144   35.2935   74.1624 O   0  5  0  0  0  0  0  0  0  0  0  0
   28.4801   36.6397   75.9521 O   0  0  0  0  0  0  0  0  0  0  0  0
   23.1752   37.2676   69.5957 S   0  0  0  0  0  0  0  0  0  0  0  0
   23.6395   38.6517   68.6544 C   0  0  0  0  0  0  0  0  0  0  0  0
   24.8165   36.2976   74.4480 O   0  0  0  0  0  0  0  0  0  0  0  0
   27.7340   39.0618   76.4160 O   0  5  0  0  0  0  0  0  0  0  0  0
   24.9183   38.4322   68.4533 N   0  0  0  0  0  0  0  0  0  0  0  0
   26.9549   37.8117   74.2375 O   0  0  0  0  0  0  0  0  0  0  0  0
   26.0729   37.0978   76.5505 O   0  0  0  0  0  0  0  0  0  0  0  0
   25.5136   37.3606   68.9297 C   0  0  2  0  0  0  0  0  0  0  0  0
   24.7766   36.4772   69.6500 C   0  0  2  0  0  0  0  0  0  0  0  0
   25.1920   35.1876   70.3082 C   0  0  0  0  0  0  0  0  0  0  0  0
   25.2193   35.3733   71.8271 C   0  0  0  0  0  0  0  0  0  0  0  0
   26.1001   36.4485   72.1590 O   0  0  0  0  0  0  0  0  0  0  0  0
  1 11  1  0  0  0  0
  3 13  1  1  0  0  0
  3 17  2  0  0  0  0
  3 20  1  0  0  0  0
  3 26  1  0  0  0  0
  4 14  1  1  0  0  0
  4 18  1  0  0  0  0
  4 21  2  0  0  0  0
  4 20  1  0  0  0  0
  5 19  1  0  0  0  0
  5  7  1  0  0  0  0
  6  7  2  0  0  0  0
  6 12  1  0  0  0  0
  7  8  1  0  0  0  0
  8  9  1  0  0  0  0
  8 10  2  0  0  0  0
 10 11  1  0  0  0  0
 11 12  2  0  0  0  0
 15 23  1  0  0  0  0
 15 16  1  0  0  0  0
 16 19  1  0  0  0  0
 19 22  1  0  0  0  0
 22  2  1  1  0  0  0
 22 23  1  0  0  0  0
 23 24  1  6  0  0  0
 24 25  1  0  0  0  0
 25 26  1  0  0  0  0
M  CHG  2  13  -1  18  -1
M  END
>  <CHROM.1>
-50.87657436,18.35055909,99.59778561,71.02534179,-72.19556580,-56.99042296
-171.16701165,73.21072990,25.41161060,38.33079751,71.11930367,-2.65921435
1.20872584,-3.14068957

>  <Name>
ligand

>  <RI>
0

>  <Rbt.Current_Directory>
/home/itssahil/PROJECTS/Mol_Feturizer/New_Systems/rnas/2HOJ

>  <Rbt.Executable>
rbdock ($Id: //depot/dev/client3/rdock/2013.1/src/exe/rbdock.cxx#4 $)

>  <Rbt.Library>
libRbt.so (2013.1, Build901 2013/11/27)

>  <Rbt.Parameter_File>
/export/apps/rDock/src/rDock_2013.1_src/data/scripts/dock_solv.prm

>  <Rbt.Receptor>
prm/blind_docking_100.prm

>  <SCORE>
-14.0087

>  <SCORE.INTER>
-10.417

>  <SCORE.INTER.CONST>
1

>  <SCORE.INTER.POLAR>
0

>  <SCORE.INTER.ROT>
8

>  <SCORE.INTER.SOLV>
14.4115

>  <SCORE.INTER.VDW>
-20.6819

>  <SCORE.INTER.norm>
-0.400655

>  <SCORE.INTRA>
-3.59165

>  <SCORE.INTRA.DIHEDRAL>
-5.51826

>  <SCORE.INTRA.DIHEDRAL.0>
11.6398

>  <SCORE.INTRA.POLAR>
0

>  <SCORE.INTRA.POLAR.0>
0

>  <SCORE.INTRA.REPUL>
0

>  <SCORE.INTRA.REPUL.0>
0

>  <SCORE.INTRA.SOLV>
2.7807

>  <SCORE.INTRA.SOLV.lig_0>
-81.722

>  <SCORE.INTRA.VDW>
-2.22287

>  <SCORE.INTRA.VDW.0>
1.12598

>  <SCORE.INTRA.norm>
-0.13814

>  <SCORE.RESTR>
0

>  <SCORE.RESTR.CAVITY>
0

>  <SCORE.RESTR.norm>
0

>  <SCORE.SYSTEM>
0

>  <SCORE.SYSTEM.CONST>
0

>  <SCORE.SYSTEM.DIHEDRAL>
0

>  <SCORE.SYSTEM.SOLV>
0

>  <SCORE.SYSTEM.norm>
0

>  <SCORE.heavy>
26

>  <SCORE.norm>
-0.538796

>  <RMSD>
6.438

$$$$
ligand
 OpenBabel11021811433D
libRbt.so/2013.1/901 2013/11/27
 26 27  0  0  0  0  0  0  0  0999 V2000
   24.6331   35.8475   70.4251 C   0  0  0  0  0  0  0  0  0  0  0  0
   20.8840   42.2343   66.4998 C   0  0  0  0  0  0  0  0  0  0  0  0
   24.8388   45.6815   64.3810 P   0  0  1  0  0  0  0  0  0  0  0  0
   26.8408   44.0867   64.7495 P   0  0  1  0  0  0  0  0  0  0  0  0
   22.2408   39.8790   67.1937 C   0  0  0  0  0  0  0  0  0  0  0  0
   24.1552   38.3678   67.7960 C   0  0  0  0  0  0  0  0  0  0  0  0
   22.8727   38.8118   68.0498 C   0  0  0  0  0  0  0  0  0  0  0  0
   22.1763   38.2472   69.1198 C   0  0  0  0  0  0  0  0  0  0  0  0
   20.8852   38.6582   69.4158 N   0  0  0  0  0  0  0  0  0  0  0  0
   22.7672   37.3045   69.8481 N   0  0  0  0  0  0  0  0  0  0  0  0
   23.9949   36.9138   69.5736 C   0  0  0  0  0  0  0  0  0  0  0  0
   24.6794   37.4268   68.5700 N   0  0  0  0  0  0  0  0  0  0  0  0
   24.4126   47.0595   64.0480 O   0  5  0  0  0  0  0  0  0  0  0  0
   26.3674   43.8202   66.1956 O   0  0  0  0  0  0  0  0  0  0  0  0
   24.3625   42.8997   68.1730 S   0  0  0  0  0  0  0  0  0  0  0  0
   24.0531   41.1950   68.0479 C   0  0  0  0  0  0  0  0  0  0  0  0
   24.2034   44.6516   63.3211 O   0  0  0  0  0  0  0  0  0  0  0  0
   26.1343   43.0408   63.7509 O   0  5  0  0  0  0  0  0  0  0  0  0
   22.8704   41.1703   67.4783 N   0  0  0  0  0  0  0  0  0  0  0  0
   26.4456   45.5886   64.3231 O   0  0  0  0  0  0  0  0  0  0  0  0
   28.3747   43.9170   64.6713 O   0  0  0  0  0  0  0  0  0  0  0  0
   22.2415   42.2792   67.1548 C   0  0  2  0  0  0  0  0  0  0  0  0
   22.8391   43.4662   67.4311 C   0  0  2  0  0  0  0  0  0  0  0  0
   22.3548   44.8700   67.1789 C   0  0  0  0  0  0  0  0  0  0  0  0
   22.9071   45.3701   65.8422 C   0  0  0  0  0  0  0  0  0  0  0  0
   24.3345   45.3062   65.8635 O   0  0  0  0  0  0  0  0  0  0  0  0
  1 11  1  0  0  0  0
  3 13  1  6  0  0  0
  3 17  2  0  0  0  0
  3 20  1  0  0  0  0
  3 26  1  0  0  0  0
  4 14  1  1  0  0  0
  4 18  1  0  0  0  0
  4 21  2  0  0  0  0
  4 20  1  0  0  0  0
  5 19  1  0  0  0  0
  5  7  1  0  0  0  0
  6  7  2  0  0  0  0
  6 12  1  0  0  0  0
  7  8  1  0  0  0  0
  8  9  1  0  0  0  0
  8 10  2  0  0  0  0
 10 11  1  0  0  0  0
 11 12  2  0  0  0  0
 15 23  1  0  0  0  0
 15 16  1  0  0  0  0
 16 19  1  0  0  0  0
 19 22  1  0  0  0  0
 22  2  1  1  0  0  0
 22 23  1  0  0  0  0
 23 24  1  6  0  0  0
 24 25  1  0  0  0  0
 25 26  1  0  0  0  0
M  CHG  2  13  -1  18  -1
M  END
>  <CHROM.1>
177.84493979,19.86600332,-71.91214413,-61.84711795,85.61407962,-57.54456349
173.63401870,61.61869496,24.20624624,42.29024917,66.64401099,-1.84451308
0.30156009,-0.47477429

>  <Name>
ligand

>  <RI>
0

>  <Rbt.Current_Directory>
/home/itssahil/PROJECTS/Mol_Feturizer/New_Systems/rnas/2HOJ

>  <Rbt.Executable>
rbdock ($Id: //depot/dev/client3/rdock/2013.1/src/exe/rbdock.cxx#4 $)

>  <Rbt.Library>
libRbt.so (2013.1, Build901 2013/11/27)

>  <Rbt.Parameter_File>
/export/apps/rDock/src/rDock_2013.1_src/data/scripts/dock_solv.prm

>  <Rbt.Receptor>
prm/pocket_docking_7.prm

>  <SCORE>
-15.4091

>  <SCORE.INTER>
-9.48123

>  <SCORE.INTER.CONST>
1

>  <SCORE.INTER.POLAR>
0

>  <SCORE.INTER.ROT>
8

>  <SCORE.INTER.SOLV>
16.2277

>  <SCORE.INTER.VDW>
-20.6634

>  <SCORE.INTER.norm>
-0.364663

>  <SCORE.INTRA>
-5.93163

>  <SCORE.INTRA.DIHEDRAL>
-6.49108

>  <SCORE.INTRA.DIHEDRAL.0>
11.6398

>  <SCORE.INTRA.POLAR>
0

>  <SCORE.INTRA.POLAR.0>
0

>  <SCORE.INTRA.REPUL>
0

>  <SCORE.INTRA.REPUL.0>
0

>  <SCORE.INTRA.SOLV>
0.335306

>  <SCORE.INTRA.SOLV.lig_0>
-81.722

>  <SCORE.INTRA.VDW>
-2.85374

>  <SCORE.INTRA.VDW.0>
1.12598

>  <SCORE.INTRA.norm>
-0.22814

>  <SCORE.RESTR>
0.00378568

>  <SCORE.RESTR.CAVITY>
0.00378568

>  <SCORE.RESTR.norm>
0.000145603

>  <SCORE.SYSTEM>
0

>  <SCORE.SYSTEM.CONST>
0

>  <SCORE.SYSTEM.DIHEDRAL>
0

>  <SCORE.SYSTEM.SOLV>
0

>  <SCORE.SYSTEM.norm>
0

>  <SCORE.heavy>
26

>  <SCORE.norm>
-0.592657

>  <RMSD>
6.461

$$$$
ligand
 OpenBabel11021811433D
libRbt.so/2013.1/901 2013/11/27
 26 27  0  0  0  0  0  0  0  0999 V2000
   19.3806   37.1032   70.9620 C   0  0  0  0  0  0  0  0  0  0  0  0
   24.0368   42.5504   66.9003 C   0  0  0  0  0  0  0  0  0  0  0  0
   24.8169   45.7085   63.0105 P   0  0  1  0  0  0  0  0  0  0  0  0
   27.1102   44.6705   62.4186 P   0  0  1  0  0  0  0  0  0  0  0  0
   22.7151   40.1483   67.4942 C   0  0  0  0  0  0  0  0  0  0  0  0
   21.4300   39.8458   69.6316 C   0  0  0  0  0  0  0  0  0  0  0  0
   21.8326   39.3412   68.4111 C   0  0  0  0  0  0  0  0  0  0  0  0
   21.4010   38.0643   68.0478 C   0  0  0  0  0  0  0  0  0  0  0  0
   21.7780   37.5120   66.8328 N   0  0  0  0  0  0  0  0  0  0  0  0
   20.6272   37.3823   68.8870 N   0  0  0  0  0  0  0  0  0  0  0  0
   20.2627   37.9041   70.0403 C   0  0  0  0  0  0  0  0  0  0  0  0
   20.6534   39.1072   70.4131 N   0  0  0  0  0  0  0  0  0  0  0  0
   25.5867   46.9501   62.7708 O   0  5  0  0  0  0  0  0  0  0  0  0
   27.9379   45.8987   62.8576 O   0  0  0  0  0  0  0  0  0  0  0  0
   20.2122   42.6518   66.0614 S   0  0  0  0  0  0  0  0  0  0  0  0
   20.6599   41.1071   66.7177 C   0  0  0  0  0  0  0  0  0  0  0  0
   23.9949   45.3212   61.6830 O   0  0  0  0  0  0  0  0  0  0  0  0
   28.0205   43.3466   62.5132 O   0  5  0  0  0  0  0  0  0  0  0  0
   21.9466   41.2599   66.9297 N   0  0  0  0  0  0  0  0  0  0  0  0
   25.8299   44.5131   63.3828 O   0  0  0  0  0  0  0  0  0  0  0  0
   26.6350   44.8651   60.9611 O   0  0  0  0  0  0  0  0  0  0  0  0
   22.5586   42.3900   66.6497 C   0  0  2  0  0  0  0  0  0  0  0  0
   21.8302   43.4069   66.1226 C   0  0  2  0  0  0  0  0  0  0  0  0
   22.2643   44.7885   65.7084 C   0  0  0  0  0  0  0  0  0  0  0  0
   23.1094   44.6999   64.4356 C   0  0  0  0  0  0  0  0  0  0  0  0
   23.7907   45.9391   64.2299 O   0  0  0  0  0  0  0  0  0  0  0  0
  1 11  1  0  0  0  0
  3 13  1  6  0  0  0
  3 17  2  0  0  0  0
  3 20  1  0  0  0  0
  3 26  1  0  0  0  0
  4 14  1  1  0  0  0
  4 18  1  0  0  0  0
  4 21  2  0  0  0  0
  4 20  1  0  0  0  0
  5 19  1  0  0  0  0
  5  7  1  0  0  0  0
  6  7  2  0  0  0  0
  6 12  1  0  0  0  0
  7  8  1  0  0  0  0
  8  9  1  0  0  0  0
  8 10  2  0  0  0  0
 10 11  1  0  0  0  0
 11 12  2  0  0  0  0
 15 23  1  0  0  0  0
 15 16  1  0  0  0  0
 16 19  1  0  0  0  0
 19 22  1  0  0  0  0
 22  2  1  6  0  0  0
 22 23  1  0  0  0  0
 23 24  1  1  0  0  0
 24 25  1  0  0  0  0
 25 26  1  0  0  0  0
M  CHG  2  13  -1  18  -1
M  END
>  <CHROM.1>
-40.29742830,-31.57939021,-71.19671185,71.66933672,-108.76995733,-165.67826619
171.92602942,-178.36056495,23.34650922,42.59206196,65.50848534,-2.16117610
0.43413248,-0.49775116

>  <Name>
ligand

>  <RI>
0

>  <Rbt.Current_Directory>
/home/itssahil/PROJECTS/Mol_Feturizer/New_Systems/rnas/2HOJ

>  <Rbt.Executable>
rbdock ($Id: //depot/dev/client3/rdock/2013.1/src/exe/rbdock.cxx#4 $)

>  <Rbt.Library>
libRbt.so (2013.1, Build901 2013/11/27)

>  <Rbt.Parameter_File>
/export/apps/rDock/src/rDock_2013.1_src/data/scripts/dock_solv.prm

>  <Rbt.Receptor>
prm/pocket_docking_8.prm

>  <SCORE>
-19.6517

>  <SCORE.INTER>
-15.6074

>  <SCORE.INTER.CONST>
1

>  <SCORE.INTER.POLAR>
-1.23663

>  <SCORE.INTER.ROT>
8

>  <SCORE.INTER.SOLV>
14.6609

>  <SCORE.INTER.VDW>
-20.1031

>  <SCORE.INTER.norm>
-0.600284

>  <SCORE.INTRA>
-4.07592

>  <SCORE.INTRA.DIHEDRAL>
-5.15163

>  <SCORE.INTRA.DIHEDRAL.0>
11.6398

>  <SCORE.INTRA.POLAR>
0

>  <SCORE.INTRA.POLAR.0>
0

>  <SCORE.INTRA.REPUL>
0

>  <SCORE.INTRA.REPUL.0>
0

>  <SCORE.INTRA.SOLV>
1.40931

>  <SCORE.INTRA.SOLV.lig_0>
-81.722

>  <SCORE.INTRA.VDW>
-2.20476

>  <SCORE.INTRA.VDW.0>
1.12598

>  <SCORE.INTRA.norm>
-0.156766

>  <SCORE.RESTR>
0.0316036

>  <SCORE.RESTR.CAVITY>
0.0316036

>  <SCORE.RESTR.norm>
0.00121552

>  <SCORE.SYSTEM>
0

>  <SCORE.SYSTEM.CONST>
0

>  <SCORE.SYSTEM.DIHEDRAL>
0

>  <SCORE.SYSTEM.SOLV>
0

>  <SCORE.SYSTEM.norm>
0

>  <SCORE.heavy>
26

>  <SCORE.norm>
-0.755834

>  <RMSD>
6.537

$$$$
ligand
 OpenBabel11021811433D
libRbt.so/2013.1/901 2013/11/27
 26 27  0  0  0  0  0  0  0  0999 V2000
   26.2909   35.4308   71.7787 C   0  0  0  0  0  0  0  0  0  0  0  0
   21.4972   39.2302   68.8105 C   0  0  0  0  0  0  0  0  0  0  0  0
   24.5629   42.2297   66.2429 P   0  0  1  0  0  0  0  0  0  0  0  0
   26.7388   41.2760   65.2218 P   0  0  1  0  0  0  0  0  0  0  0  0
   21.3860   36.4390   69.0688 C   0  0  0  0  0  0  0  0  0  0  0  0
   23.6659   37.1385   69.8590 C   0  0  0  0  0  0  0  0  0  0  0  0
   22.6838   36.1707   69.7863 C   0  0  0  0  0  0  0  0  0  0  0  0
   22.9234   34.9374   70.3948 C   0  0  0  0  0  0  0  0  0  0  0  0
   21.9691   33.9320   70.3497 N   0  0  0  0  0  0  0  0  0  0  0  0
   24.0834   34.7385   71.0137 N   0  0  0  0  0  0  0  0  0  0  0  0
   24.9912   35.6917   71.0631 C   0  0  0  0  0  0  0  0  0  0  0  0
   24.7958   36.8672   70.4985 N   0  0  0  0  0  0  0  0  0  0  0  0
   23.7107   42.2893   67.4520 O   0  5  0  0  0  0  0  0  0  0  0  0
   25.9567   41.2956   63.8898 O   0  0  0  0  0  0  0  0  0  0  0  0
   22.1428   37.3470   65.4373 S   0  0  0  0  0  0  0  0  0  0  0  0
   21.8548   36.2209   66.7281 C   0  0  0  0  0  0  0  0  0  0  0  0
   25.2488   43.6640   65.9978 O   0  0  0  0  0  0  0  0  0  0  0  0
   27.5577   42.6518   65.3851 O   0  5  0  0  0  0  0  0  0  0  0  0
   21.6656   37.0190   67.7534 N   0  0  0  0  0  0  0  0  0  0  0  0
   25.7071   41.1152   66.4480 O   0  0  0  0  0  0  0  0  0  0  0  0
   27.7255   40.0867   65.2210 O   0  0  0  0  0  0  0  0  0  0  0  0
   21.7181   38.3267   67.6236 C   0  0  2  0  0  0  0  0  0  0  0  0
   21.9834   38.8452   66.3974 C   0  0  2  0  0  0  0  0  0  0  0  0
   22.1054   40.2830   65.9657 C   0  0  0  0  0  0  0  0  0  0  0  0
   23.3493   40.4514   65.0904 C   0  0  0  0  0  0  0  0  0  0  0  0
   23.6600   41.8408   64.9675 O   0  0  0  0  0  0  0  0  0  0  0  0
  1 11  1  0  0  0  0
  3 13  1  1  0  0  0
  3 17  2  0  0  0  0
  3 20  1  0  0  0  0
  3 26  1  0  0  0  0
  4 14  1  6  0  0  0
  4 18  1  0  0  0  0
  4 21  2  0  0  0  0
  4 20  1  0  0  0  0
  5 19  1  0  0  0  0
  5  7  1  0  0  0  0
  6  7  2  0  0  0  0
  6 12  1  0  0  0  0
  7  8  1  0  0  0  0
  8  9  1  0  0  0  0
  8 10  2  0  0  0  0
 10 11  1  0  0  0  0
 11 12  2  0  0  0  0
 15 23  1  0  0  0  0
 15 16  1  0  0  0  0
 16 19  1  0  0  0  0
 19 22  1  0  0  0  0
 22  2  1  1  0  0  0
 22 23  1  0  0  0  0
 23 24  1  6  0  0  0
 24 25  1  0  0  0  0
 25 26  1  0  0  0  0
M  CHG  2  13  -1  18  -1
M  END
>  <CHROM.1>
-170.49392592,88.36949021,48.40521921,-50.44595247,-46.18273880,-165.17220963
85.75989610,-73.75078492,24.01233421,39.02955986,67.28931160,-1.90172644
-0.34373228,-0.74209382

>  <Name>
ligand

>  <RI>
0

>  <Rbt.Current_Directory>
/home/itssahil/PROJECTS/Mol_Feturizer/New_Systems/rnas/2HOJ

>  <Rbt.Executable>
rbdock ($Id: //depot/dev/client3/rdock/2013.1/src/exe/rbdock.cxx#4 $)

>  <Rbt.Library>
libRbt.so (2013.1, Build901 2013/11/27)

>  <Rbt.Parameter_File>
/export/apps/rDock/src/rDock_2013.1_src/data/scripts/dock_solv.prm

>  <Rbt.Receptor>
prm/blind_docking_100.prm

>  <SCORE>
-13.0374

>  <SCORE.INTER>
-9.56308

>  <SCORE.INTER.CONST>
1

>  <SCORE.INTER.POLAR>
0

>  <SCORE.INTER.ROT>
8

>  <SCORE.INTER.SOLV>
12.4978

>  <SCORE.INTER.VDW>
-19.4747

>  <SCORE.INTER.norm>
-0.367811

>  <SCORE.INTRA>
-3.47433

>  <SCORE.INTRA.DIHEDRAL>
-2.36454

>  <SCORE.INTRA.DIHEDRAL.0>
11.6398

>  <SCORE.INTRA.POLAR>
0

>  <SCORE.INTRA.POLAR.0>
0

>  <SCORE.INTRA.REPUL>
0

>  <SCORE.INTRA.REPUL.0>
0

>  <SCORE.INTRA.SOLV>
1.01489

>  <SCORE.INTRA.SOLV.lig_0>
-81.722

>  <SCORE.INTRA.VDW>
-2.79951

>  <SCORE.INTRA.VDW.0>
1.12598

>  <SCORE.INTRA.norm>
-0.133628

>  <SCORE.RESTR>
0

>  <SCORE.RESTR.CAVITY>
0

>  <SCORE.RESTR.norm>
0

>  <SCORE.SYSTEM>
0

>  <SCORE.SYSTEM.CONST>
0

>  <SCORE.SYSTEM.DIHEDRAL>
0

>  <SCORE.SYSTEM.SOLV>
0

>  <SCORE.SYSTEM.norm>
0

>  <SCORE.heavy>
26

>  <SCORE.norm>
-0.501439

>  <RMSD>
6.548

$$$$
ligand
 OpenBabel11021811433D
libRbt.so/2013.1/901 2013/11/27
 26 27  0  0  0  0  0  0  0  0999 V2000
   28.4012   37.7433   64.7607 C   0  0  0  0  0  0  0  0  0  0  0  0
   22.1309   36.6651   66.1284 C   0  0  0  0  0  0  0  0  0  0  0  0
   24.5413   35.1972   70.8393 P   0  0  1  0  0  0  0  0  0  0  0  0
   25.6334   35.8549   73.0891 P   0  0  1  0  0  0  0  0  0  0  0  0
   22.9590   39.2618   65.4642 C   0  0  0  0  0  0  0  0  0  0  0  0
   24.7516   37.5355   65.1203 C   0  0  0  0  0  0  0  0  0  0  0  0
   24.3999   38.8613   65.2781 C   0  0  0  0  0  0  0  0  0  0  0  0
   25.4130   39.8215   65.2607 C   0  0  0  0  0  0  0  0  0  0  0  0
   25.1121   41.1664   65.4156 N   0  0  0  0  0  0  0  0  0  0  0  0
   26.6725   39.4269   65.0991 N   0  0  0  0  0  0  0  0  0  0  0  0
   26.9631   38.1511   64.9472 C   0  0  0  0  0  0  0  0  0  0  0  0
   26.0297   37.2196   64.9592 N   0  0  0  0  0  0  0  0  0  0  0  0
   25.7509   34.5591   70.2724 O   0  5  0  0  0  0  0  0  0  0  0  0
   24.5201   35.3098   74.0109 O   0  0  0  0  0  0  0  0  0  0  0  0
   22.0146   39.1393   69.1626 S   0  0  0  0  0  0  0  0  0  0  0  0
   22.5727   39.9458   67.7289 C   0  0  0  0  0  0  0  0  0  0  0  0
   23.7451   34.1311   71.7434 O   0  0  0  0  0  0  0  0  0  0  0  0
   26.6450   34.6636   72.7049 O   0  5  0  0  0  0  0  0  0  0  0  0
   22.5470   38.9790   66.8409 N   0  0  0  0  0  0  0  0  0  0  0  0
   24.9743   36.4546   71.7476 O   0  0  0  0  0  0  0  0  0  0  0  0
   26.4087   36.9714   73.8242 O   0  0  0  0  0  0  0  0  0  0  0  0
   22.1561   37.7645   67.1601 C   0  0  2  0  0  0  0  0  0  0  0  0
   21.7827   37.5209   68.4422 C   0  0  2  0  0  0  0  0  0  0  0  0
   21.3028   36.2432   69.0792 C   0  0  0  0  0  0  0  0  0  0  0  0
   22.2739   35.8263   70.1861 C   0  0  0  0  0  0  0  0  0  0  0  0
   23.5900   35.7040   69.6429 O   0  0  0  0  0  0  0  0  0  0  0  0
  1 11  1  0  0  0  0
  3 13  1  6  0  0  0
  3 17  2  0  0  0  0
  3 20  1  0  0  0  0
  3 26  1  0  0  0  0
  4 14  1  1  0  0  0
  4 18  1  0  0  0  0
  4 21  2  0  0  0  0
  4 20  1  0  0  0  0
  5 19  1  0  0  0  0
  5  7  1  0  0  0  0
  6  7  2  0  0  0  0
  6 12  1  0  0  0  0
  7  8  1  0  0  0  0
  8  9  1  0  0  0  0
  8 10  2  0  0  0  0
 10 11  1  0  0  0  0
 11 12  2  0  0  0  0
 15 23  1  0  0  0  0
 15 16  1  0  0  0  0
 16 19  1  0  0  0  0
 19 22  1  0  0  0  0
 22  2  1  1  0  0  0
 22 23  1  0  0  0  0
 23 24  1  6  0  0  0
 24 25  1  0  0  0  0
 25 26  1  0  0  0  0
M  CHG  2  13  -1  18  -1
M  END
>  <CHROM.1>
-72.45354811,96.81204709,77.33941956,-75.29232565,-61.90735752,-56.29610599
-177.34833755,158.30198404,24.35583757,37.14161382,68.91528049,-1.61046228
-0.17697656,2.02661339

>  <Name>
ligand

>  <RI>
0

>  <Rbt.Current_Directory>
/home/itssahil/PROJECTS/Mol_Feturizer/New_Systems/rnas/2HOJ

>  <Rbt.Executable>
rbdock ($Id: //depot/dev/client3/rdock/2013.1/src/exe/rbdock.cxx#4 $)

>  <Rbt.Library>
libRbt.so (2013.1, Build901 2013/11/27)

>  <Rbt.Parameter_File>
/export/apps/rDock/src/rDock_2013.1_src/data/scripts/dock_solv.prm

>  <Rbt.Receptor>
prm/pocket_docking_7.prm

>  <SCORE>
-16.9482

>  <SCORE.INTER>
-12.8521

>  <SCORE.INTER.CONST>
1

>  <SCORE.INTER.POLAR>
0

>  <SCORE.INTER.ROT>
8

>  <SCORE.INTER.SOLV>
15.2627

>  <SCORE.INTER.VDW>
-22.5889

>  <SCORE.INTER.norm>
-0.49431

>  <SCORE.INTRA>
-4.09612

>  <SCORE.INTRA.DIHEDRAL>
-5.08295

>  <SCORE.INTRA.DIHEDRAL.0>
11.6398

>  <SCORE.INTRA.POLAR>
0

>  <SCORE.INTRA.POLAR.0>
0

>  <SCORE.INTRA.REPUL>
0

>  <SCORE.INTRA.REPUL.0>
0

>  <SCORE.INTRA.SOLV>
1.99569

>  <SCORE.INTRA.SOLV.lig_0>
-81.722

>  <SCORE.INTRA.VDW>
-2.55248

>  <SCORE.INTRA.VDW.0>
1.12598

>  <SCORE.INTRA.norm>
-0.157543

>  <SCORE.RESTR>
0

>  <SCORE.RESTR.CAVITY>
0

>  <SCORE.RESTR.norm>
0

>  <SCORE.SYSTEM>
0

>  <SCORE.SYSTEM.CONST>
0

>  <SCORE.SYSTEM.DIHEDRAL>
0

>  <SCORE.SYSTEM.SOLV>
0

>  <SCORE.SYSTEM.norm>
0

>  <SCORE.heavy>
26

>  <SCORE.norm>
-0.651853

>  <RMSD>
6.553

$$$$
ligand
 OpenBabel11021811433D
libRbt.so/2013.1/901 2013/11/27
 26 27  0  0  0  0  0  0  0  0999 V2000
   21.0669   34.0018   72.5149 C   0  0  0  0  0  0  0  0  0  0  0  0
   23.1165   38.4070   65.9051 C   0  0  0  0  0  0  0  0  0  0  0  0
   25.2968   42.4964   65.3088 P   0  0  1  0  0  0  0  0  0  0  0  0
   26.2349   44.3561   63.7763 P   0  0  1  0  0  0  0  0  0  0  0  0
   23.4305   37.1165   68.3761 C   0  0  0  0  0  0  0  0  0  0  0  0
   21.4385   36.1130   69.5322 C   0  0  0  0  0  0  0  0  0  0  0  0
   22.8062   36.2919   69.4722 C   0  0  0  0  0  0  0  0  0  0  0  0
   23.5963   35.6891   70.4525 C   0  0  0  0  0  0  0  0  0  0  0  0
   24.9750   35.8387   70.4370 N   0  0  0  0  0  0  0  0  0  0  0  0
   23.0067   34.9735   71.4057 N   0  0  0  0  0  0  0  0  0  0  0  0
   21.6980   34.8247   71.4223 C   0  0  0  0  0  0  0  0  0  0  0  0
   20.9237   35.3812   70.5113 N   0  0  0  0  0  0  0  0  0  0  0  0
   26.5383   41.8013   64.9000 O   0  5  0  0  0  0  0  0  0  0  0  0
   27.1604   43.4125   62.9766 O   0  0  0  0  0  0  0  0  0  0  0  0
   21.7464   40.5010   68.9184 S   0  0  0  0  0  0  0  0  0  0  0  0
   22.4043   38.9892   69.4651 C   0  0  0  0  0  0  0  0  0  0  0  0
   25.5401   43.2526   66.7076 O   0  0  0  0  0  0  0  0  0  0  0  0
   25.8611   45.6351   62.8737 O   0  5  0  0  0  0  0  0  0  0  0  0
   22.8024   38.4391   68.3414 N   0  0  0  0  0  0  0  0  0  0  0  0
   24.8881   43.5712   64.1812 O   0  0  0  0  0  0  0  0  0  0  0  0
   26.9615   44.8247   65.0571 O   0  0  0  0  0  0  0  0  0  0  0  0
   22.6527   39.0514   67.1871 C   0  0  2  0  0  0  0  0  0  0  0  0
   22.0640   40.2744   67.1749 C   0  0  2  0  0  0  0  0  0  0  0  0
   21.7652   41.1878   66.0151 C   0  0  0  0  0  0  0  0  0  0  0  0
   22.9315   42.1577   65.8131 C   0  0  0  0  0  0  0  0  0  0  0  0
   24.1097   41.4216   65.4782 O   0  0  0  0  0  0  0  0  0  0  0  0
  1 11  1  0  0  0  0
  3 13  1  6  0  0  0
  3 17  2  0  0  0  0
  3 20  1  0  0  0  0
  3 26  1  0  0  0  0
  4 14  1  6  0  0  0
  4 18  1  0  0  0  0
  4 21  2  0  0  0  0
  4 20  1  0  0  0  0
  5 19  1  0  0  0  0
  5  7  1  0  0  0  0
  6  7  2  0  0  0  0
  6 12  1  0  0  0  0
  7  8  1  0  0  0  0
  8  9  1  0  0  0  0
  8 10  2  0  0  0  0
 10 11  1  0  0  0  0
 11 12  2  0  0  0  0
 15 23  1  0  0  0  0
 15 16  1  0  0  0  0
 16 19  1  0  0  0  0
 19 22  1  0  0  0  0
 22  2  1  6  0  0  0
 22 23  1  0  0  0  0
 23 24  1  1  0  0  0
 24 25  1  0  0  0  0
 25 26  1  0  0  0  0
M  CHG  2  13  -1  18  -1
M  END
>  <CHROM.1>
-45.02004388,34.04089282,53.79864858,71.01437096,87.61762564,62.74223219
-178.93761961,-177.47017416,23.85190151,40.14992265,67.14781167,-1.92765131
0.22160542,-0.58462036

>  <Name>
ligand

>  <RI>
0

>  <Rbt.Current_Directory>
/home/itssahil/PROJECTS/Mol_Feturizer/New_Systems/rnas/2HOJ

>  <Rbt.Executable>
rbdock ($Id: //depot/dev/client3/rdock/2013.1/src/exe/rbdock.cxx#4 $)

>  <Rbt.Library>
libRbt.so (2013.1, Build901 2013/11/27)

>  <Rbt.Parameter_File>
/export/apps/rDock/src/rDock_2013.1_src/data/scripts/dock_solv.prm

>  <Rbt.Receptor>
prm/pocket_docking_7.prm

>  <SCORE>
-9.81437

>  <SCORE.INTER>
-4.55859

>  <SCORE.INTER.CONST>
1

>  <SCORE.INTER.POLAR>
0

>  <SCORE.INTER.ROT>
8

>  <SCORE.INTER.SOLV>
11.207

>  <SCORE.INTER.VDW>
-15.7081

>  <SCORE.INTER.norm>
-0.17533

>  <SCORE.INTRA>
-5.25578

>  <SCORE.INTRA.DIHEDRAL>
-6.16876

>  <SCORE.INTRA.DIHEDRAL.0>
11.6398

>  <SCORE.INTRA.POLAR>
0

>  <SCORE.INTRA.POLAR.0>
0

>  <SCORE.INTRA.REPUL>
0

>  <SCORE.INTRA.REPUL.0>
0

>  <SCORE.INTRA.SOLV>
1.05426

>  <SCORE.INTRA.SOLV.lig_0>
-81.722

>  <SCORE.INTRA.VDW>
-2.69853

>  <SCORE.INTRA.VDW.0>
1.12598

>  <SCORE.INTRA.norm>
-0.202145

>  <SCORE.RESTR>
0

>  <SCORE.RESTR.CAVITY>
0

>  <SCORE.RESTR.norm>
0

>  <SCORE.SYSTEM>
0

>  <SCORE.SYSTEM.CONST>
0

>  <SCORE.SYSTEM.DIHEDRAL>
0

>  <SCORE.SYSTEM.SOLV>
0

>  <SCORE.SYSTEM.norm>
0

>  <SCORE.heavy>
26

>  <SCORE.norm>
-0.377476

>  <RMSD>
6.565

$$$$
ligand
 OpenBabel11021811433D
libRbt.so/2013.1/901 2013/11/27
 26 27  0  0  0  0  0  0  0  0999 V2000
   22.1918   36.2687   69.6799 C   0  0  0  0  0  0  0  0  0  0  0  0
   20.3212   43.7128   66.2226 C   0  0  0  0  0  0  0  0  0  0  0  0
   24.2627   45.5388   63.3928 P   0  0  1  0  0  0  0  0  0  0  0  0
   26.5697   44.6471   62.6381 P   0  0  1  0  0  0  0  0  0  0  0  0
   20.8711   41.0377   66.8638 C   0  0  0  0  0  0  0  0  0  0  0  0
   21.4562   39.7964   68.9682 C   0  0  0  0  0  0  0  0  0  0  0  0
   21.2206   39.7747   67.6079 C   0  0  0  0  0  0  0  0  0  0  0  0
   21.3142   38.5529   66.9393 C   0  0  0  0  0  0  0  0  0  0  0  0
   21.0874   38.4778   65.5731 N   0  0  0  0  0  0  0  0  0  0  0  0
   21.6300   37.4620   67.6310 N   0  0  0  0  0  0  0  0  0  0  0  0
   21.8420   37.5272   68.9294 C   0  0  0  0  0  0  0  0  0  0  0  0
   21.7617   38.6655   69.5903 N   0  0  0  0  0  0  0  0  0  0  0  0
   24.6566   46.9604   63.2692 O   0  5  0  0  0  0  0  0  0  0  0  0
   26.7280   46.0752   62.0710 O   0  0  0  0  0  0  0  0  0  0  0  0
   23.8978   43.1980   67.7341 S   0  0  0  0  0  0  0  0  0  0  0  0
   23.0478   41.6867   67.6299 C   0  0  0  0  0  0  0  0  0  0  0  0
   23.7476   44.9981   61.9680 O   0  0  0  0  0  0  0  0  0  0  0  0
   27.9982   44.1096   63.1485 O   0  5  0  0  0  0  0  0  0  0  0  0
   21.8969   42.0525   67.1145 N   0  0  0  0  0  0  0  0  0  0  0  0
   25.5323   44.6703   63.8698 O   0  0  0  0  0  0  0  0  0  0  0  0
   26.0331   43.7111   61.5318 O   0  0  0  0  0  0  0  0  0  0  0  0
   21.6475   43.3087   66.8154 C   0  0  2  0  0  0  0  0  0  0  0  0
   22.6090   44.2352   67.0596 C   0  0  2  0  0  0  0  0  0  0  0  0
   22.5948   45.7229   66.8239 C   0  0  0  0  0  0  0  0  0  0  0  0
   23.5292   46.0664   65.6616 C   0  0  0  0  0  0  0  0  0  0  0  0
   23.0818   45.4006   64.4789 O   0  0  0  0  0  0  0  0  0  0  0  0
  1 11  1  0  0  0  0
  3 13  1  6  0  0  0
  3 17  2  0  0  0  0
  3 20  1  0  0  0  0
  3 26  1  0  0  0  0
  4 14  1  6  0  0  0
  4 18  1  0  0  0  0
  4 21  2  0  0  0  0
  4 20  1  0  0  0  0
  5 19  1  0  0  0  0
  5  7  1  0  0  0  0
  6  7  2  0  0  0  0
  6 12  1  0  0  0  0
  7  8  1  0  0  0  0
  8  9  1  0  0  0  0
  8 10  2  0  0  0  0
 10 11  1  0  0  0  0
 11 12  2  0  0  0  0
 15 23  1  0  0  0  0
 15 16  1  0  0  0  0
 16 19  1  0  0  0  0
 19 22  1  0  0  0  0
 22  2  1  1  0  0  0
 22 23  1  0  0  0  0
 23 24  1  6  0  0  0
 24 25  1  0  0  0  0
 25 26  1  0  0  0  0
M  CHG  2  13  -1  18  -1
M  END
>  <CHROM.1>
-69.39709175,15.31412380,54.48454686,46.35309763,70.87322491,60.38346386
-168.01554181,-51.81296814,23.46176930,42.83145700,65.58877361,-2.19404447
0.76588701,-0.21654988

>  <Name>
ligand

>  <RI>
0

>  <Rbt.Current_Directory>
/home/itssahil/PROJECTS/Mol_Feturizer/New_Systems/rnas/2HOJ

>  <Rbt.Executable>
rbdock ($Id: //depot/dev/client3/rdock/2013.1/src/exe/rbdock.cxx#4 $)

>  <Rbt.Library>
libRbt.so (2013.1, Build901 2013/11/27)

>  <Rbt.Parameter_File>
/export/apps/rDock/src/rDock_2013.1_src/data/scripts/dock_solv.prm

>  <Rbt.Receptor>
prm/pocket_docking_7.prm

>  <SCORE>
-24.9685

>  <SCORE.INTER>
-20.8284

>  <SCORE.INTER.CONST>
1

>  <SCORE.INTER.POLAR>
-2.47033

>  <SCORE.INTER.ROT>
8

>  <SCORE.INTER.SOLV>
22.0006

>  <SCORE.INTER.VDW>
-21.918

>  <SCORE.INTER.norm>
-0.801091

>  <SCORE.INTRA>
-4.14013

>  <SCORE.INTRA.DIHEDRAL>
-5.31159

>  <SCORE.INTRA.DIHEDRAL.0>
11.6398

>  <SCORE.INTRA.POLAR>
0

>  <SCORE.INTRA.POLAR.0>
0

>  <SCORE.INTRA.REPUL>
0

>  <SCORE.INTRA.REPUL.0>
0

>  <SCORE.INTRA.SOLV>
0.480799

>  <SCORE.INTRA.SOLV.lig_0>
-81.722

>  <SCORE.INTRA.VDW>
-1.72473

>  <SCORE.INTRA.VDW.0>
1.12598

>  <SCORE.INTRA.norm>
-0.159236

>  <SCORE.RESTR>
0

>  <SCORE.RESTR.CAVITY>
0

>  <SCORE.RESTR.norm>
0

>  <SCORE.SYSTEM>
0

>  <SCORE.SYSTEM.CONST>
0

>  <SCORE.SYSTEM.DIHEDRAL>
0

>  <SCORE.SYSTEM.SOLV>
0

>  <SCORE.SYSTEM.norm>
0

>  <SCORE.heavy>
26

>  <SCORE.norm>
-0.960327

>  <RMSD>
6.573

$$$$
ligand
 OpenBabel11021811433D
libRbt.so/2013.1/901 2013/11/27
 26 27  0  0  0  0  0  0  0  0999 V2000
   27.0657   37.0413   64.6932 C   0  0  0  0  0  0  0  0  0  0  0  0
   21.2288   41.2847   66.5224 C   0  0  0  0  0  0  0  0  0  0  0  0
   24.3861   44.9805   63.7753 P   0  0  1  0  0  0  0  0  0  0  0  0
   25.8838   43.0769   64.6810 P   0  0  1  0  0  0  0  0  0  0  0  0
   23.1213   39.6838   67.8359 C   0  0  0  0  0  0  0  0  0  0  0  0
   25.5073   39.1110   67.2970 C   0  0  0  0  0  0  0  0  0  0  0  0
   24.1643   38.9839   67.0032 C   0  0  0  0  0  0  0  0  0  0  0  0
   23.7969   38.1901   65.9152 C   0  0  0  0  0  0  0  0  0  0  0  0
   22.4610   38.0306   65.5783 N   0  0  0  0  0  0  0  0  0  0  0  0
   24.7476   37.5933   65.2024 N   0  0  0  0  0  0  0  0  0  0  0  0
   26.0175   37.7380   65.5210 C   0  0  0  0  0  0  0  0  0  0  0  0
   26.3975   38.4809   66.5422 N   0  0  0  0  0  0  0  0  0  0  0  0
   24.2271   46.4459   63.6378 O   0  5  0  0  0  0  0  0  0  0  0  0
   26.4212   42.7041   63.2815 O   0  0  0  0  0  0  0  0  0  0  0  0
   24.2181   43.3382   68.0020 S   0  0  0  0  0  0  0  0  0  0  0  0
   24.4096   41.6435   68.3316 C   0  0  0  0  0  0  0  0  0  0  0  0
   24.6633   44.3321   62.3294 O   0  0  0  0  0  0  0  0  0  0  0  0
   26.9605   42.6557   65.8005 O   0  5  0  0  0  0  0  0  0  0  0  0
   23.3370   41.1311   67.7742 N   0  0  0  0  0  0  0  0  0  0  0  0
   25.6270   44.6652   64.7521 O   0  0  0  0  0  0  0  0  0  0  0  0
   24.5556   42.3297   64.9374 O   0  0  0  0  0  0  0  0  0  0  0  0
   22.4552   41.8885   67.1590 C   0  0  2  0  0  0  0  0  0  0  0  0
   22.6702   43.2281   67.1166 C   0  0  2  0  0  0  0  0  0  0  0  0
   21.8378   44.3177   66.4933 C   0  0  0  0  0  0  0  0  0  0  0  0
   22.7046   45.1421   65.5388 C   0  0  0  0  0  0  0  0  0  0  0  0
   23.0416   44.3500   64.3982 O   0  0  0  0  0  0  0  0  0  0  0  0
  1 11  1  0  0  0  0
  3 13  1  6  0  0  0
  3 17  2  0  0  0  0
  3 20  1  0  0  0  0
  3 26  1  0  0  0  0
  4 14  1  6  0  0  0
  4 18  1  0  0  0  0
  4 21  2  0  0  0  0
  4 20  1  0  0  0  0
  5 19  1  0  0  0  0
  5  7  1  0  0  0  0
  6  7  2  0  0  0  0
  6 12  1  0  0  0  0
  7  8  1  0  0  0  0
  8  9  1  0  0  0  0
  8 10  2  0  0  0  0
 10 11  1  0  0  0  0
 11 12  2  0  0  0  0
 15 23  1  0  0  0  0
 15 16  1  0  0  0  0
 16 19  1  0  0  0  0
 19 22  1  0  0  0  0
 22  2  1  1  0  0  0
 22 23  1  0  0  0  0
 23 24  1  6  0  0  0
 24 25  1  0  0  0  0
 25 26  1  0  0  0  0
M  CHG  2  13  -1  18  -1
M  END
>  <CHROM.1>
-171.59549118,-67.68687676,60.66566333,68.51417551,53.71258532,69.41005687
-156.66356452,-48.65073521,24.39763054,42.01327478,65.65232362,-1.44822452
0.74250847,-0.35535314

>  <Name>
ligand

>  <RI>
0

>  <Rbt.Current_Directory>
/home/itssahil/PROJECTS/Mol_Feturizer/New_Systems/rnas/2HOJ

>  <Rbt.Executable>
rbdock ($Id: //depot/dev/client3/rdock/2013.1/src/exe/rbdock.cxx#4 $)

>  <Rbt.Library>
libRbt.so (2013.1, Build901 2013/11/27)

>  <Rbt.Parameter_File>
/export/apps/rDock/src/rDock_2013.1_src/data/scripts/dock_solv.prm

>  <Rbt.Receptor>
prm/pocket_docking_7.prm

>  <SCORE>
-19.0373

>  <SCORE.INTER>
-13.7439

>  <SCORE.INTER.CONST>
1

>  <SCORE.INTER.POLAR>
-1.24373

>  <SCORE.INTER.ROT>
8

>  <SCORE.INTER.SOLV>
15.4611

>  <SCORE.INTER.VDW>
-19.1039

>  <SCORE.INTER.norm>
-0.528612

>  <SCORE.INTRA>
-5.29339

>  <SCORE.INTRA.DIHEDRAL>
-3.35908

>  <SCORE.INTRA.DIHEDRAL.0>
11.6398

>  <SCORE.INTRA.POLAR>
0

>  <SCORE.INTRA.POLAR.0>
0

>  <SCORE.INTRA.REPUL>
0

>  <SCORE.INTRA.REPUL.0>
0

>  <SCORE.INTRA.SOLV>
4.65194

>  <SCORE.INTRA.SOLV.lig_0>
-81.722

>  <SCORE.INTRA.VDW>
-5.93981

>  <SCORE.INTRA.VDW.0>
1.12598

>  <SCORE.INTRA.norm>
-0.203592

>  <SCORE.RESTR>
0

>  <SCORE.RESTR.CAVITY>
0

>  <SCORE.RESTR.norm>
0

>  <SCORE.SYSTEM>
0

>  <SCORE.SYSTEM.CONST>
0

>  <SCORE.SYSTEM.DIHEDRAL>
0

>  <SCORE.SYSTEM.SOLV>
0

>  <SCORE.SYSTEM.norm>
0

>  <SCORE.heavy>
26

>  <SCORE.norm>
-0.732204

>  <RMSD>
6.591

$$$$
ligand
 OpenBabel11021811433D
libRbt.so/2013.1/901 2013/11/27
 26 27  0  0  0  0  0  0  0  0999 V2000
   27.2640   41.8953   70.8269 C   0  0  0  0  0  0  0  0  0  0  0  0
   23.5456   40.3504   65.2730 C   0  0  0  0  0  0  0  0  0  0  0  0
   21.5896   37.7209   68.7684 P   0  0  1  0  0  0  0  0  0  0  0  0
   24.1586   37.8981   68.5321 P   0  0  1  0  0  0  0  0  0  0  0  0
   24.4272   42.9134   65.9963 C   0  0  0  0  0  0  0  0  0  0  0  0
   24.5908   42.8673   68.5029 C   0  0  0  0  0  0  0  0  0  0  0  0
   25.1793   42.6436   67.2741 C   0  0  0  0  0  0  0  0  0  0  0  0
   26.4887   42.1607   67.2454 C   0  0  0  0  0  0  0  0  0  0  0  0
   27.1249   41.9201   66.0368 N   0  0  0  0  0  0  0  0  0  0  0  0
   27.1199   41.9401   68.3949 N   0  0  0  0  0  0  0  0  0  0  0  0
   26.5185   42.1628   69.5455 C   0  0  0  0  0  0  0  0  0  0  0  0
   25.2827   42.6190   69.6069 N   0  0  0  0  0  0  0  0  0  0  0  0
   21.2785   36.3875   68.2054 O   0  5  0  0  0  0  0  0  0  0  0  0
   23.8909   37.0745   67.2529 O   0  0  0  0  0  0  0  0  0  0  0  0
   20.6847   42.6157   66.6965 S   0  0  0  0  0  0  0  0  0  0  0  0
   22.1964   43.4711   66.6734 C   0  0  0  0  0  0  0  0  0  0  0  0
   20.4029   38.1784   69.7534 O   0  0  0  0  0  0  0  0  0  0  0  0
   24.2244   39.4626   68.1607 O   0  5  0  0  0  0  0  0  0  0  0  0
   23.0149   42.5714   66.1789 N   0  0  0  0  0  0  0  0  0  0  0  0
   22.9719   37.6460   69.5914 O   0  0  0  0  0  0  0  0  0  0  0  0
   25.5038   37.4597   69.1536 O   0  0  0  0  0  0  0  0  0  0  0  0
   22.5933   41.3723   65.8410 C   0  0  2  0  0  0  0  0  0  0  0  0
   21.2819   41.0726   66.0223 C   0  0  2  0  0  0  0  0  0  0  0  0
   20.5367   39.7962   65.7322 C   0  0  0  0  0  0  0  0  0  0  0  0
   20.4340   38.9610   67.0105 C   0  0  0  0  0  0  0  0  0  0  0  0
   21.7367   38.7887   67.5720 O   0  0  0  0  0  0  0  0  0  0  0  0
  1 11  1  0  0  0  0
  3 13  1  6  0  0  0
  3 17  2  0  0  0  0
  3 20  1  0  0  0  0
  3 26  1  0  0  0  0
  4 14  1  6  0  0  0
  4 18  1  0  0  0  0
  4 21  2  0  0  0  0
  4 20  1  0  0  0  0
  5 19  1  0  0  0  0
  5  7  1  0  0  0  0
  6  7  2  0  0  0  0
  6 12  1  0  0  0  0
  7  8  1  0  0  0  0
  8  9  1  0  0  0  0
  8 10  2  0  0  0  0
 10 11  1  0  0  0  0
 11 12  2  0  0  0  0
 15 23  1  0  0  0  0
 15 16  1  0  0  0  0
 16 19  1  0  0  0  0
 19 22  1  0  0  0  0
 22  2  1  1  0  0  0
 22 23  1  0  0  0  0
 23 24  1  6  0  0  0
 24 25  1  0  0  0  0
 25 26  1  0  0  0  0
M  CHG  2  13  -1  18  -1
M  END
>  <CHROM.1>
86.78986435,86.62500238,-35.92634139,-44.51428623,-83.63452982,-52.91000989
-171.31030728,68.63853477,23.39650985,40.19429635,67.76442422,-0.77733745
0.37996541,2.71251485

>  <Name>
ligand

>  <RI>
0

>  <Rbt.Current_Directory>
/home/itssahil/PROJECTS/Mol_Feturizer/New_Systems/rnas/2HOJ

>  <Rbt.Executable>
rbdock ($Id: //depot/dev/client3/rdock/2013.1/src/exe/rbdock.cxx#4 $)

>  <Rbt.Library>
libRbt.so (2013.1, Build901 2013/11/27)

>  <Rbt.Parameter_File>
/export/apps/rDock/src/rDock_2013.1_src/data/scripts/dock_solv.prm

>  <Rbt.Receptor>
prm/pocket_docking_4.prm

>  <SCORE>
-16.1906

>  <SCORE.INTER>
-10.4818

>  <SCORE.INTER.CONST>
1

>  <SCORE.INTER.POLAR>
0

>  <SCORE.INTER.ROT>
8

>  <SCORE.INTER.SOLV>
18.5963

>  <SCORE.INTER.VDW>
-22.12

>  <SCORE.INTER.norm>
-0.403148

>  <SCORE.INTRA>
-5.82607

>  <SCORE.INTRA.DIHEDRAL>
-4.61367

>  <SCORE.INTRA.DIHEDRAL.0>
11.6398

>  <SCORE.INTRA.POLAR>
0

>  <SCORE.INTRA.POLAR.0>
0

>  <SCORE.INTRA.REPUL>
0

>  <SCORE.INTRA.REPUL.0>
0

>  <SCORE.INTRA.SOLV>
2.97049

>  <SCORE.INTRA.SOLV.lig_0>
-81.722

>  <SCORE.INTRA.VDW>
-5.00448

>  <SCORE.INTRA.VDW.0>
1.12598

>  <SCORE.INTRA.norm>
-0.22408

>  <SCORE.RESTR>
0.117271

>  <SCORE.RESTR.CAVITY>
0.117271

>  <SCORE.RESTR.norm>
0.00451043

>  <SCORE.SYSTEM>
0

>  <SCORE.SYSTEM.CONST>
0

>  <SCORE.SYSTEM.DIHEDRAL>
0

>  <SCORE.SYSTEM.SOLV>
0

>  <SCORE.SYSTEM.norm>
0

>  <SCORE.heavy>
26

>  <SCORE.norm>
-0.622717

>  <RMSD>
6.620

$$$$
ligand
 OpenBabel11021811433D
libRbt.so/2013.1/901 2013/11/27
 26 27  0  0  0  0  0  0  0  0999 V2000
   28.0122   44.7155   65.6179 C   0  0  0  0  0  0  0  0  0  0  0  0
   21.9522   40.2653   69.0008 C   0  0  0  0  0  0  0  0  0  0  0  0
   24.1093   35.0514   71.1289 P   0  0  1  0  0  0  0  0  0  0  0  0
   25.6292   35.6369   73.1375 P   0  0  1  0  0  0  0  0  0  0  0  0
   23.2728   42.0154   67.2508 C   0  0  0  0  0  0  0  0  0  0  0  0
   24.5320   43.5438   65.7047 C   0  0  0  0  0  0  0  0  0  0  0  0
   24.5280   42.7294   66.8197 C   0  0  0  0  0  0  0  0  0  0  0  0
   25.7163   42.5845   67.5378 C   0  0  0  0  0  0  0  0  0  0  0  0
   25.7648   41.7774   68.6647 N   0  0  0  0  0  0  0  0  0  0  0  0
   26.8034   43.2274   67.1219 N   0  0  0  0  0  0  0  0  0  0  0  0
   26.7614   43.9985   66.0548 C   0  0  0  0  0  0  0  0  0  0  0  0
   25.6552   44.1563   65.3546 N   0  0  0  0  0  0  0  0  0  0  0  0
   25.3073   34.6782   70.3433 O   0  5  0  0  0  0  0  0  0  0  0  0
   26.0590   36.7262   74.1449 O   0  0  0  0  0  0  0  0  0  0  0  0
   24.1049   38.4099   66.3054 S   0  0  0  0  0  0  0  0  0  0  0  0
   24.2172   40.1320   66.1074 C   0  0  0  0  0  0  0  0  0  0  0  0
   23.5809   33.7696   71.9447 O   0  0  0  0  0  0  0  0  0  0  0  0
   25.0486   34.3654   73.9352 O   0  5  0  0  0  0  0  0  0  0  0  0
   23.4470   40.5718   67.0756 N   0  0  0  0  0  0  0  0  0  0  0  0
   24.4907   36.2261   72.1625 O   0  0  0  0  0  0  0  0  0  0  0  0
   26.8513   35.2030   72.2971 O   0  0  0  0  0  0  0  0  0  0  0  0
   22.8324   39.7446   67.8927 C   0  0  2  0  0  0  0  0  0  0  0  0
   23.0023   38.4102   67.7112 C   0  0  2  0  0  0  0  0  0  0  0  0
   22.4253   37.2522   68.4826 C   0  0  0  0  0  0  0  0  0  0  0  0
   23.4637   36.7324   69.4794 C   0  0  0  0  0  0  0  0  0  0  0  0
   22.9538   35.5690   70.1340 O   0  0  0  0  0  0  0  0  0  0  0  0
  1 11  1  0  0  0  0
  3 13  1  6  0  0  0
  3 17  2  0  0  0  0
  3 20  1  0  0  0  0
  3 26  1  0  0  0  0
  4 14  1  1  0  0  0
  4 18  1  0  0  0  0
  4 21  2  0  0  0  0
  4 20  1  0  0  0  0
  5 19  1  0  0  0  0
  5  7  1  0  0  0  0
  6  7  2  0  0  0  0
  6 12  1  0  0  0  0
  7  8  1  0  0  0  0
  8  9  1  0  0  0  0
  8 10  2  0  0  0  0
 10 11  1  0  0  0  0
 11 12  2  0  0  0  0
 15 23  1  0  0  0  0
 15 16  1  0  0  0  0
 16 19  1  0  0  0  0
 19 22  1  0  0  0  0
 22  2  1  6  0  0  0
 22 23  1  0  0  0  0
 23 24  1  1  0  0  0
 24 25  1  0  0  0  0
 25 26  1  0  0  0  0
M  CHG  2  13  -1  18  -1
M  END
>  <CHROM.1>
-60.88201287,-31.20790466,112.77611078,179.09446912,80.44629644,-175.42619349
178.26898347,-62.05677726,24.64586690,38.59931696,69.21981945,-1.49809016
0.67032051,2.44356557

>  <Name>
ligand

>  <RI>
0

>  <Rbt.Current_Directory>
/home/itssahil/PROJECTS/Mol_Feturizer/New_Systems/rnas/2HOJ

>  <Rbt.Executable>
rbdock ($Id: //depot/dev/client3/rdock/2013.1/src/exe/rbdock.cxx#4 $)

>  <Rbt.Library>
libRbt.so (2013.1, Build901 2013/11/27)

>  <Rbt.Parameter_File>
/export/apps/rDock/src/rDock_2013.1_src/data/scripts/dock_solv.prm

>  <Rbt.Receptor>
prm/pocket_docking_8.prm

>  <SCORE>
-10.7257

>  <SCORE.INTER>
-7.43229

>  <SCORE.INTER.CONST>
1

>  <SCORE.INTER.POLAR>
0

>  <SCORE.INTER.ROT>
8

>  <SCORE.INTER.SOLV>
12.8036

>  <SCORE.INTER.VDW>
-18.156

>  <SCORE.INTER.norm>
-0.285857

>  <SCORE.INTRA>
-3.29341

>  <SCORE.INTRA.DIHEDRAL>
-6.53717

>  <SCORE.INTRA.DIHEDRAL.0>
11.6398

>  <SCORE.INTRA.POLAR>
0

>  <SCORE.INTRA.POLAR.0>
0

>  <SCORE.INTRA.REPUL>
0

>  <SCORE.INTRA.REPUL.0>
0

>  <SCORE.INTRA.SOLV>
5.28994

>  <SCORE.INTRA.SOLV.lig_0>
-81.722

>  <SCORE.INTRA.VDW>
-2.66979

>  <SCORE.INTRA.VDW.0>
1.12598

>  <SCORE.INTRA.norm>
-0.12667

>  <SCORE.RESTR>
0

>  <SCORE.RESTR.CAVITY>
0

>  <SCORE.RESTR.norm>
0

>  <SCORE.SYSTEM>
0

>  <SCORE.SYSTEM.CONST>
0

>  <SCORE.SYSTEM.DIHEDRAL>
0

>  <SCORE.SYSTEM.SOLV>
0

>  <SCORE.SYSTEM.norm>
0

>  <SCORE.heavy>
26

>  <SCORE.norm>
-0.412527

>  <RMSD>
6.672

$$$$
ligand
 OpenBabel11021811433D
libRbt.so/2013.1/901 2013/11/27
 26 27  0  0  0  0  0  0  0  0999 V2000
   26.1375   34.7672   71.8784 C   0  0  0  0  0  0  0  0  0  0  0  0
   22.3879   37.1905   66.6185 C   0  0  0  0  0  0  0  0  0  0  0  0
   26.2968   40.2332   64.4378 P   0  0  1  0  0  0  0  0  0  0  0  0
   26.9369   42.3806   63.1471 P   0  0  1  0  0  0  0  0  0  0  0  0
   21.4749   36.6657   69.2186 C   0  0  0  0  0  0  0  0  0  0  0  0
   23.8199   36.9680   70.0680 C   0  0  0  0  0  0  0  0  0  0  0  0
   22.7084   36.1619   69.9228 C   0  0  0  0  0  0  0  0  0  0  0  0
   22.7560   34.8683   70.4452 C   0  0  0  0  0  0  0  0  0  0  0  0
   21.6661   34.0191   70.3251 N   0  0  0  0  0  0  0  0  0  0  0  0
   23.8648   34.4597   71.0551 N   0  0  0  0  0  0  0  0  0  0  0  0
   24.9010   35.2640   71.1757 C   0  0  0  0  0  0  0  0  0  0  0  0
   24.8881   36.4911   70.6931 N   0  0  0  0  0  0  0  0  0  0  0  0
   26.5851   38.7861   64.5574 O   0  5  0  0  0  0  0  0  0  0  0  0
   27.1187   42.9926   61.7405 O   0  0  0  0  0  0  0  0  0  0  0  0
   21.8183   40.4382   68.7328 S   0  0  0  0  0  0  0  0  0  0  0  0
   21.4364   39.0212   69.6621 C   0  0  0  0  0  0  0  0  0  0  0  0
   27.0137   41.0251   65.6406 O   0  0  0  0  0  0  0  0  0  0  0  0
   25.5794   42.9403   63.8060 O   0  5  0  0  0  0  0  0  0  0  0  0
   21.6810   38.0559   68.8063 N   0  0  0  0  0  0  0  0  0  0  0  0
   26.8558   40.7765   63.0286 O   0  0  0  0  0  0  0  0  0  0  0  0
   28.1392   42.7701   64.0365 O   0  0  0  0  0  0  0  0  0  0  0  0
   22.1102   38.3103   67.5894 C   0  0  2  0  0  0  0  0  0  0  0  0
   22.2903   39.6052   67.2244 C   0  0  2  0  0  0  0  0  0  0  0  0
   22.7609   40.1798   65.9139 C   0  0  0  0  0  0  0  0  0  0  0  0
   24.2696   39.9653   65.7728 C   0  0  0  0  0  0  0  0  0  0  0  0
   24.7059   40.4722   64.5100 O   0  0  0  0  0  0  0  0  0  0  0  0
  1 11  1  0  0  0  0
  3 13  1  1  0  0  0
  3 17  2  0  0  0  0
  3 20  1  0  0  0  0
  3 26  1  0  0  0  0
  4 14  1  6  0  0  0
  4 18  1  0  0  0  0
  4 21  2  0  0  0  0
  4 20  1  0  0  0  0
  5 19  1  0  0  0  0
  5  7  1  0  0  0  0
  6  7  2  0  0  0  0
  6 12  1  0  0  0  0
  7  8  1  0  0  0  0
  8  9  1  0  0  0  0
  8 10  2  0  0  0  0
 10 11  1  0  0  0  0
 11 12  2  0  0  0  0
 15 23  1  0  0  0  0
 15 16  1  0  0  0  0
 16 19  1  0  0  0  0
 19 22  1  0  0  0  0
 22  2  1  6  0  0  0
 22 23  1  0  0  0  0
 23 24  1  1  0  0  0
 24 25  1  0  0  0  0
 25 26  1  0  0  0  0
M  CHG  2  13  -1  18  -1
M  END
>  <CHROM.1>
-162.65061338,-85.17890341,-1.53763914,-165.79516030,105.17326305,178.12918518
179.23810043,59.72349138,24.45082726,39.06751615,66.90888686,-1.97119557
0.27480449,-0.74314666

>  <Name>
ligand

>  <RI>
0

>  <Rbt.Current_Directory>
/home/itssahil/PROJECTS/Mol_Feturizer/New_Systems/rnas/2HOJ

>  <Rbt.Executable>
rbdock ($Id: //depot/dev/client3/rdock/2013.1/src/exe/rbdock.cxx#4 $)

>  <Rbt.Library>
libRbt.so (2013.1, Build901 2013/11/27)

>  <Rbt.Parameter_File>
/export/apps/rDock/src/rDock_2013.1_src/data/scripts/dock_solv.prm

>  <Rbt.Receptor>
prm/pocket_docking_8.prm

>  <SCORE>
-13.0596

>  <SCORE.INTER>
-8.2279

>  <SCORE.INTER.CONST>
1

>  <SCORE.INTER.POLAR>
0

>  <SCORE.INTER.ROT>
8

>  <SCORE.INTER.SOLV>
15.6525

>  <SCORE.INTER.VDW>
-19.6361

>  <SCORE.INTER.norm>
-0.316458

>  <SCORE.INTRA>
-4.83175

>  <SCORE.INTRA.DIHEDRAL>
-6.20921

>  <SCORE.INTRA.DIHEDRAL.0>
11.6398

>  <SCORE.INTRA.POLAR>
0

>  <SCORE.INTRA.POLAR.0>
0

>  <SCORE.INTRA.REPUL>
0

>  <SCORE.INTRA.REPUL.0>
0

>  <SCORE.INTRA.SOLV>
2.80957

>  <SCORE.INTRA.SOLV.lig_0>
-81.722

>  <SCORE.INTRA.VDW>
-3.13193

>  <SCORE.INTRA.VDW.0>
1.12598

>  <SCORE.INTRA.norm>
-0.185836

>  <SCORE.RESTR>
0

>  <SCORE.RESTR.CAVITY>
0

>  <SCORE.RESTR.norm>
0

>  <SCORE.SYSTEM>
0

>  <SCORE.SYSTEM.CONST>
0

>  <SCORE.SYSTEM.DIHEDRAL>
0

>  <SCORE.SYSTEM.SOLV>
0

>  <SCORE.SYSTEM.norm>
0

>  <SCORE.heavy>
26

>  <SCORE.norm>
-0.502294

>  <RMSD>
6.679

$$$$
ligand
 OpenBabel11021811433D
libRbt.so/2013.1/901 2013/11/27
 26 27  0  0  0  0  0  0  0  0999 V2000
   26.5817   36.6651   71.8457 C   0  0  0  0  0  0  0  0  0  0  0  0
   20.8469   38.6373   69.4837 C   0  0  0  0  0  0  0  0  0  0  0  0
   24.1475   42.1984   67.7183 P   0  0  1  0  0  0  0  0  0  0  0  0
   26.3170   42.4952   66.3427 P   0  0  1  0  0  0  0  0  0  0  0  0
   21.6687   35.9906   69.0482 C   0  0  0  0  0  0  0  0  0  0  0  0
   23.7549   37.2841   69.5834 C   0  0  0  0  0  0  0  0  0  0  0  0
   22.9689   36.1678   69.7893 C   0  0  0  0  0  0  0  0  0  0  0  0
   23.4091   35.2075   70.7018 C   0  0  0  0  0  0  0  0  0  0  0  0
   22.6564   34.0681   70.9440 N   0  0  0  0  0  0  0  0  0  0  0  0
   24.5645   35.3985   71.3317 N   0  0  0  0  0  0  0  0  0  0  0  0
   25.2809   36.4811   71.1085 C   0  0  0  0  0  0  0  0  0  0  0  0
   24.8933   37.4067   70.2529 N   0  0  0  0  0  0  0  0  0  0  0  0
   25.0351   42.1594   68.9025 O   0  5  0  0  0  0  0  0  0  0  0  0
   25.9970   44.0058   66.3869 O   0  0  0  0  0  0  0  0  0  0  0  0
   21.7530   37.9042   65.7443 S   0  0  0  0  0  0  0  0  0  0  0  0
   21.9650   36.4837   66.7212 C   0  0  0  0  0  0  0  0  0  0  0  0
   23.6719   43.7121   67.4530 O   0  0  0  0  0  0  0  0  0  0  0  0
   27.2658   42.1098   67.5842 O   0  5  0  0  0  0  0  0  0  0  0  0
   21.6232   36.9151   67.9132 N   0  0  0  0  0  0  0  0  0  0  0  0
   24.9470   41.6532   66.4310 O   0  0  0  0  0  0  0  0  0  0  0  0
   27.0409   42.1615   65.0188 O   0  0  0  0  0  0  0  0  0  0  0  0
   21.2377   38.1572   68.1087 C   0  0  2  0  0  0  0  0  0  0  0  0
   21.2068   39.0002   67.0452 C   0  0  2  0  0  0  0  0  0  0  0  0
   20.8168   40.4536   66.9794 C   0  0  0  0  0  0  0  0  0  0  0  0
   22.0695   41.3122   66.7911 C   0  0  0  0  0  0  0  0  0  0  0  0
   22.8593   41.2686   67.9811 O   0  0  0  0  0  0  0  0  0  0  0  0
  1 11  1  0  0  0  0
  3 13  1  1  0  0  0
  3 17  2  0  0  0  0
  3 20  1  0  0  0  0
  3 26  1  0  0  0  0
  4 14  1  1  0  0  0
  4 18  1  0  0  0  0
  4 21  2  0  0  0  0
  4 20  1  0  0  0  0
  5 19  1  0  0  0  0
  5  7  1  0  0  0  0
  6  7  2  0  0  0  0
  6 12  1  0  0  0  0
  7  8  1  0  0  0  0
  8  9  1  0  0  0  0
  8 10  2  0  0  0  0
 10 11  1  0  0  0  0
 11 12  2  0  0  0  0
 15 23  1  0  0  0  0
 15 16  1  0  0  0  0
 16 19  1  0  0  0  0
 19 22  1  0  0  0  0
 22  2  1  1  0  0  0
 22 23  1  0  0  0  0
 23 24  1  6  0  0  0
 24 25  1  0  0  0  0
 25 26  1  0  0  0  0
M  CHG  2  13  -1  18  -1
M  END
>  <CHROM.1>
-52.57307491,96.81167077,15.62100379,-52.19914985,-73.17379893,-68.86609619
-179.52781277,-178.06828620,23.76675302,39.44362071,68.08206272,-1.91718412
-0.45363518,-0.59617348

>  <Name>
ligand

>  <RI>
0

>  <Rbt.Current_Directory>
/home/itssahil/PROJECTS/Mol_Feturizer/New_Systems/rnas/2HOJ

>  <Rbt.Executable>
rbdock ($Id: //depot/dev/client3/rdock/2013.1/src/exe/rbdock.cxx#4 $)

>  <Rbt.Library>
libRbt.so (2013.1, Build901 2013/11/27)

>  <Rbt.Parameter_File>
/export/apps/rDock/src/rDock_2013.1_src/data/scripts/dock_solv.prm

>  <Rbt.Receptor>
prm/pocket_docking_7.prm

>  <SCORE>
-17.2289

>  <SCORE.INTER>
-11.1937

>  <SCORE.INTER.CONST>
1

>  <SCORE.INTER.POLAR>
0

>  <SCORE.INTER.ROT>
8

>  <SCORE.INTER.SOLV>
15.2052

>  <SCORE.INTER.VDW>
-21.4642

>  <SCORE.INTER.norm>
-0.430529

>  <SCORE.INTRA>
-6.03513

>  <SCORE.INTRA.DIHEDRAL>
-6.04657

>  <SCORE.INTRA.DIHEDRAL.0>
11.6398

>  <SCORE.INTRA.POLAR>
0

>  <SCORE.INTRA.POLAR.0>
0

>  <SCORE.INTRA.REPUL>
0

>  <SCORE.INTRA.REPUL.0>
0

>  <SCORE.INTRA.SOLV>
0.582199

>  <SCORE.INTRA.SOLV.lig_0>
-81.722

>  <SCORE.INTRA.VDW>
-3.30295

>  <SCORE.INTRA.VDW.0>
1.12598

>  <SCORE.INTRA.norm>
-0.232121

>  <SCORE.RESTR>
0

>  <SCORE.RESTR.CAVITY>
0

>  <SCORE.RESTR.norm>
0

>  <SCORE.SYSTEM>
0

>  <SCORE.SYSTEM.CONST>
0

>  <SCORE.SYSTEM.DIHEDRAL>
0

>  <SCORE.SYSTEM.SOLV>
0

>  <SCORE.SYSTEM.norm>
0

>  <SCORE.heavy>
26

>  <SCORE.norm>
-0.662649

>  <RMSD>
6.691

$$$$
ligand
 OpenBabel11021811433D
libRbt.so/2013.1/901 2013/11/27
 26 27  0  0  0  0  0  0  0  0999 V2000
   29.6337   37.9819   66.9267 C   0  0  0  0  0  0  0  0  0  0  0  0
   22.9119   39.5728   67.9193 C   0  0  0  0  0  0  0  0  0  0  0  0
   23.8854   35.7589   70.4442 P   0  0  1  0  0  0  0  0  0  0  0  0
   26.2431   34.8474   70.9897 P   0  0  1  0  0  0  0  0  0  0  0  0
   24.3321   39.4918   65.5014 C   0  0  0  0  0  0  0  0  0  0  0  0
   26.2427   37.8605   65.5202 C   0  0  0  0  0  0  0  0  0  0  0  0
   25.7355   39.0934   65.8794 C   0  0  0  0  0  0  0  0  0  0  0  0
   26.5560   39.9619   66.6014 C   0  0  0  0  0  0  0  0  0  0  0  0
   26.0935   41.2114   66.9867 N   0  0  0  0  0  0  0  0  0  0  0  0
   27.7864   39.5710   66.9198 N   0  0  0  0  0  0  0  0  0  0  0  0
   28.2318   38.3870   66.5525 C   0  0  0  0  0  0  0  0  0  0  0  0
   27.4821   37.5435   65.8702 N   0  0  0  0  0  0  0  0  0  0  0  0
   23.4498   35.2876   71.7782 O   0  5  0  0  0  0  0  0  0  0  0  0
   25.7803   34.1292   72.2767 O   0  0  0  0  0  0  0  0  0  0  0  0
   22.1109   36.3968   65.7714 S   0  0  0  0  0  0  0  0  0  0  0  0
   23.2740   37.4076   64.9697 C   0  0  0  0  0  0  0  0  0  0  0  0
   24.4290   37.2686   70.5589 O   0  0  0  0  0  0  0  0  0  0  0  0
   27.5469   34.1100   70.4013 O   0  5  0  0  0  0  0  0  0  0  0  0
   23.4111   38.3985   65.8201 N   0  0  0  0  0  0  0  0  0  0  0  0
   25.0614   34.8048   69.8963 O   0  0  0  0  0  0  0  0  0  0  0  0
   26.5874   36.3179   71.3172 O   0  0  0  0  0  0  0  0  0  0  0  0
   22.7425   38.4283   66.9523 C   0  0  2  0  0  0  0  0  0  0  0  0
   21.8901   37.4084   67.2274 C   0  0  2  0  0  0  0  0  0  0  0  0
   21.0071   37.1886   68.4277 C   0  0  0  0  0  0  0  0  0  0  0  0
   21.8737   36.8961   69.6547 C   0  0  0  0  0  0  0  0  0  0  0  0
   22.6401   35.7122   69.4244 O   0  0  0  0  0  0  0  0  0  0  0  0
  1 11  1  0  0  0  0
  3 13  1  1  0  0  0
  3 17  2  0  0  0  0
  3 20  1  0  0  0  0
  3 26  1  0  0  0  0
  4 14  1  1  0  0  0
  4 18  1  0  0  0  0
  4 21  2  0  0  0  0
  4 20  1  0  0  0  0
  5 19  1  0  0  0  0
  5  7  1  0  0  0  0
  6  7  2  0  0  0  0
  6 12  1  0  0  0  0
  7  8  1  0  0  0  0
  8  9  1  0  0  0  0
  8 10  2  0  0  0  0
 10 11  1  0  0  0  0
 11 12  2  0  0  0  0
 15 23  1  0  0  0  0
 15 16  1  0  0  0  0
 16 19  1  0  0  0  0
 19 22  1  0  0  0  0
 22  2  1  6  0  0  0
 22 23  1  0  0  0  0
 23 24  1  1  0  0  0
 24 25  1  0  0  0  0
 25 26  1  0  0  0  0
M  CHG  2  13  -1  18  -1
M  END
>  <CHROM.1>
-57.60150636,-82.82812689,47.17264645,69.01956296,111.12673919,-60.80948381
159.21168368,81.35570219,24.78779755,37.04801199,68.36037348,-1.56799224
0.09921438,2.21053481

>  <Name>
ligand

>  <RI>
0

>  <Rbt.Current_Directory>
/home/itssahil/PROJECTS/Mol_Feturizer/New_Systems/rnas/2HOJ

>  <Rbt.Executable>
rbdock ($Id: //depot/dev/client3/rdock/2013.1/src/exe/rbdock.cxx#4 $)

>  <Rbt.Library>
libRbt.so (2013.1, Build901 2013/11/27)

>  <Rbt.Parameter_File>
/export/apps/rDock/src/rDock_2013.1_src/data/scripts/dock_solv.prm

>  <Rbt.Receptor>
prm/pocket_docking_7.prm

>  <SCORE>
-12.8192

>  <SCORE.INTER>
-9.31003

>  <SCORE.INTER.CONST>
1

>  <SCORE.INTER.POLAR>
0

>  <SCORE.INTER.ROT>
8

>  <SCORE.INTER.SOLV>
16.0952

>  <SCORE.INTER.VDW>
-20.5051

>  <SCORE.INTER.norm>
-0.358078

>  <SCORE.INTRA>
-3.50915

>  <SCORE.INTRA.DIHEDRAL>
-4.31157

>  <SCORE.INTRA.DIHEDRAL.0>
11.6398

>  <SCORE.INTRA.POLAR>
0

>  <SCORE.INTRA.POLAR.0>
0

>  <SCORE.INTRA.REPUL>
0

>  <SCORE.INTRA.REPUL.0>
0

>  <SCORE.INTRA.SOLV>
3.12621

>  <SCORE.INTRA.SOLV.lig_0>
-81.722

>  <SCORE.INTRA.VDW>
-2.91646

>  <SCORE.INTRA.VDW.0>
1.12598

>  <SCORE.INTRA.norm>
-0.134967

>  <SCORE.RESTR>
0

>  <SCORE.RESTR.CAVITY>
0

>  <SCORE.RESTR.norm>
0

>  <SCORE.SYSTEM>
0

>  <SCORE.SYSTEM.CONST>
0

>  <SCORE.SYSTEM.DIHEDRAL>
0

>  <SCORE.SYSTEM.SOLV>
0

>  <SCORE.SYSTEM.norm>
0

>  <SCORE.heavy>
26

>  <SCORE.norm>
-0.493045

>  <RMSD>
6.738

$$$$
ligand
 OpenBabel11021811433D
libRbt.so/2013.1/901 2013/11/27
 26 27  0  0  0  0  0  0  0  0999 V2000
   21.1235   36.0991   69.6712 C   0  0  0  0  0  0  0  0  0  0  0  0
   26.6279   40.0815   64.6862 C   0  0  0  0  0  0  0  0  0  0  0  0
   24.0696   44.9389   64.3394 P   0  0  1  0  0  0  0  0  0  0  0  0
   22.5991   44.8804   66.4657 P   0  0  1  0  0  0  0  0  0  0  0  0
   25.1659   38.3895   66.3801 C   0  0  0  0  0  0  0  0  0  0  0  0
   24.3856   37.3383   68.5243 C   0  0  0  0  0  0  0  0  0  0  0  0
   24.0950   37.7833   67.2501 C   0  0  0  0  0  0  0  0  0  0  0  0
   22.7836   37.6580   66.7881 C   0  0  0  0  0  0  0  0  0  0  0  0
   22.4405   38.0894   65.5155 N   0  0  0  0  0  0  0  0  0  0  0  0
   21.8688   37.1131   67.5846 N   0  0  0  0  0  0  0  0  0  0  0  0
   22.1888   36.7059   68.7958 C   0  0  0  0  0  0  0  0  0  0  0  0
   23.4180   36.8099   69.2618 N   0  0  0  0  0  0  0  0  0  0  0  0
   22.8494   44.5040   63.6226 O   0  5  0  0  0  0  0  0  0  0  0  0
   21.3338   44.6577   65.6080 O   0  0  0  0  0  0  0  0  0  0  0  0
   25.4744   41.8381   67.9917 S   0  0  0  0  0  0  0  0  0  0  0  0
   24.9422   40.1850   67.9523 C   0  0  0  0  0  0  0  0  0  0  0  0
   24.9631   45.8599   63.3692 O   0  0  0  0  0  0  0  0  0  0  0  0
   23.2680   43.4593   66.8169 O   0  5  0  0  0  0  0  0  0  0  0  0
   25.4101   39.7719   66.7972 N   0  0  0  0  0  0  0  0  0  0  0  0
   23.6517   45.7825   65.6460 O   0  0  0  0  0  0  0  0  0  0  0  0
   22.2118   45.6043   67.7749 O   0  0  0  0  0  0  0  0  0  0  0  0
   26.0958   40.5713   66.0094 C   0  0  2  0  0  0  0  0  0  0  0  0
   26.3075   41.8504   66.4112 C   0  0  2  0  0  0  0  0  0  0  0  0
   27.0432   42.9679   65.7194 C   0  0  0  0  0  0  0  0  0  0  0  0
   26.0827   44.1310   65.4609 C   0  0  0  0  0  0  0  0  0  0  0  0
   24.9197   43.6465   64.7866 O   0  0  0  0  0  0  0  0  0  0  0  0
  1 11  1  0  0  0  0
  3 13  1  6  0  0  0
  3 17  2  0  0  0  0
  3 20  1  0  0  0  0
  3 26  1  0  0  0  0
  4 14  1  6  0  0  0
  4 18  1  0  0  0  0
  4 21  2  0  0  0  0
  4 20  1  0  0  0  0
  5 19  1  0  0  0  0
  5  7  1  0  0  0  0
  6  7  2  0  0  0  0
  6 12  1  0  0  0  0
  7  8  1  0  0  0  0
  8  9  1  0  0  0  0
  8 10  2  0  0  0  0
 10 11  1  0  0  0  0
 11 12  2  0  0  0  0
 15 23  1  0  0  0  0
 15 16  1  0  0  0  0
 16 19  1  0  0  0  0
 19 22  1  0  0  0  0
 22  2  1  6  0  0  0
 22 23  1  0  0  0  0
 23 24  1  1  0  0  0
 24 25  1  0  0  0  0
 25 26  1  0  0  0  0
M  CHG  2  13  -1  18  -1
M  END
>  <CHROM.1>
52.21983179,14.22556288,-78.25048658,-62.98587289,-60.93104326,-52.27117109
-171.16277667,179.59788689,24.01727806,41.69462062,66.41900192,1.65234766
-0.34229867,2.80987516

>  <Name>
ligand

>  <RI>
0

>  <Rbt.Current_Directory>
/home/itssahil/PROJECTS/Mol_Feturizer/New_Systems/rnas/2HOJ

>  <Rbt.Executable>
rbdock ($Id: //depot/dev/client3/rdock/2013.1/src/exe/rbdock.cxx#4 $)

>  <Rbt.Library>
libRbt.so (2013.1, Build901 2013/11/27)

>  <Rbt.Parameter_File>
/export/apps/rDock/src/rDock_2013.1_src/data/scripts/dock_solv.prm

>  <Rbt.Receptor>
prm/pocket_docking_8.prm

>  <SCORE>
-13.6288

>  <SCORE.INTER>
-8.57126

>  <SCORE.INTER.CONST>
1

>  <SCORE.INTER.POLAR>
0

>  <SCORE.INTER.ROT>
8

>  <SCORE.INTER.SOLV>
21.1843

>  <SCORE.INTER.VDW>
-21.7089

>  <SCORE.INTER.norm>
-0.329664

>  <SCORE.INTRA>
-5.05756

>  <SCORE.INTRA.DIHEDRAL>
-5.77071

>  <SCORE.INTRA.DIHEDRAL.0>
11.6398

>  <SCORE.INTRA.POLAR>
0

>  <SCORE.INTRA.POLAR.0>
0

>  <SCORE.INTRA.REPUL>
0

>  <SCORE.INTRA.REPUL.0>
0

>  <SCORE.INTRA.SOLV>
1.65625

>  <SCORE.INTRA.SOLV.lig_0>
-81.722

>  <SCORE.INTRA.VDW>
-3.00033

>  <SCORE.INTRA.VDW.0>
1.12598

>  <SCORE.INTRA.norm>
-0.194521

>  <SCORE.RESTR>
0

>  <SCORE.RESTR.CAVITY>
0

>  <SCORE.RESTR.norm>
0

>  <SCORE.SYSTEM>
0

>  <SCORE.SYSTEM.CONST>
0

>  <SCORE.SYSTEM.DIHEDRAL>
0

>  <SCORE.SYSTEM.SOLV>
0

>  <SCORE.SYSTEM.norm>
0

>  <SCORE.heavy>
26

>  <SCORE.norm>
-0.524185

>  <RMSD>
6.791

$$$$
ligand
 OpenBabel11021811433D
libRbt.so/2013.1/901 2013/11/27
 26 27  0  0  0  0  0  0  0  0999 V2000
   20.8081   36.3632   69.4733 C   0  0  0  0  0  0  0  0  0  0  0  0
   27.5799   39.1509   70.2747 C   0  0  0  0  0  0  0  0  0  0  0  0
   26.2153   41.0322   65.8801 P   0  0  1  0  0  0  0  0  0  0  0  0
   24.6051   42.8480   66.7729 P   0  0  1  0  0  0  0  0  0  0  0  0
   26.3477   36.6761   70.7511 C   0  0  0  0  0  0  0  0  0  0  0  0
   24.2894   37.5289   69.5902 C   0  0  0  0  0  0  0  0  0  0  0  0
   24.8813   36.5921   70.4138 C   0  0  0  0  0  0  0  0  0  0  0  0
   24.0870   35.5647   70.9259 C   0  0  0  0  0  0  0  0  0  0  0  0
   24.6335   34.5993   71.7581 N   0  0  0  0  0  0  0  0  0  0  0  0
   22.7961   35.5286   70.6085 N   0  0  0  0  0  0  0  0  0  0  0  0
   22.2732   36.4407   69.8150 C   0  0  0  0  0  0  0  0  0  0  0  0
   22.9961   37.4238   69.3151 N   0  0  0  0  0  0  0  0  0  0  0  0
   25.0740   40.4511   65.1377 O   0  5  0  0  0  0  0  0  0  0  0  0
   25.2822   43.8585   65.8206 O   0  0  0  0  0  0  0  0  0  0  0  0
   28.2064   36.5461   67.4173 S   0  0  0  0  0  0  0  0  0  0  0  0
   27.2197   35.8612   68.6722 C   0  0  0  0  0  0  0  0  0  0  0  0
   26.9528   42.1271   64.9608 O   0  0  0  0  0  0  0  0  0  0  0  0
   23.3772   42.1347   66.0155 O   0  5  0  0  0  0  0  0  0  0  0  0
   27.1224   36.8577   69.5215 N   0  0  0  0  0  0  0  0  0  0  0  0
   25.6775   41.7350   67.2256 O   0  0  0  0  0  0  0  0  0  0  0  0
   24.0779   43.5914   68.0209 O   0  0  0  0  0  0  0  0  0  0  0  0
   27.7021   38.0154   69.2901 C   0  0  2  0  0  0  0  0  0  0  0  0
   28.4198   38.1627   68.1474 C   0  0  2  0  0  0  0  0  0  0  0  0
   29.1809   39.3575   67.6355 C   0  0  0  0  0  0  0  0  0  0  0  0
   28.1953   40.4357   67.1791 C   0  0  0  0  0  0  0  0  0  0  0  0
   27.2560   39.8654   66.2655 O   0  0  0  0  0  0  0  0  0  0  0  0
  1 11  1  0  0  0  0
  3 13  1  6  0  0  0
  3 17  2  0  0  0  0
  3 20  1  0  0  0  0
  3 26  1  0  0  0  0
  4 14  1  6  0  0  0
  4 18  1  0  0  0  0
  4 21  2  0  0  0  0
  4 20  1  0  0  0  0
  5 19  1  0  0  0  0
  5  7  1  0  0  0  0
  6  7  2  0  0  0  0
  6 12  1  0  0  0  0
  7  8  1  0  0  0  0
  8  9  1  0  0  0  0
  8 10  2  0  0  0  0
 10 11  1  0  0  0  0
 11 12  2  0  0  0  0
 15 23  1  0  0  0  0
 15 16  1  0  0  0  0
 16 19  1  0  0  0  0
 19 22  1  0  0  0  0
 22  2  1  1  0  0  0
 22 23  1  0  0  0  0
 23 24  1  6  0  0  0
 24 25  1  0  0  0  0
 25 26  1  0  0  0  0
M  CHG  2  13  -1  18  -1
M  END
>  <CHROM.1>
-57.92830235,-70.26113109,-49.15263709,-58.44440862,108.05692971,-52.34204717
177.50000822,-169.59687001,25.67343519,39.12031687,68.03440844,1.69005294
-0.21976613,2.60066162

>  <Name>
ligand

>  <RI>
0

>  <Rbt.Current_Directory>
/home/itssahil/PROJECTS/Mol_Feturizer/New_Systems/rnas/2HOJ

>  <Rbt.Executable>
rbdock ($Id: //depot/dev/client3/rdock/2013.1/src/exe/rbdock.cxx#4 $)

>  <Rbt.Library>
libRbt.so (2013.1, Build901 2013/11/27)

>  <Rbt.Parameter_File>
/export/apps/rDock/src/rDock_2013.1_src/data/scripts/dock_solv.prm

>  <Rbt.Receptor>
prm/pocket_docking_7.prm

>  <SCORE>
-9.93356

>  <SCORE.INTER>
-3.61702

>  <SCORE.INTER.CONST>
1

>  <SCORE.INTER.POLAR>
0

>  <SCORE.INTER.ROT>
8

>  <SCORE.INTER.SOLV>
13.6594

>  <SCORE.INTER.VDW>
-15.8978

>  <SCORE.INTER.norm>
-0.139116

>  <SCORE.INTRA>
-6.31654

>  <SCORE.INTRA.DIHEDRAL>
-6.5994

>  <SCORE.INTRA.DIHEDRAL.0>
11.6398

>  <SCORE.INTRA.POLAR>
0

>  <SCORE.INTRA.POLAR.0>
0

>  <SCORE.INTRA.REPUL>
0

>  <SCORE.INTRA.REPUL.0>
0

>  <SCORE.INTRA.SOLV>
0.732991

>  <SCORE.INTRA.SOLV.lig_0>
-81.722

>  <SCORE.INTRA.VDW>
-3.38334

>  <SCORE.INTRA.VDW.0>
1.12598

>  <SCORE.INTRA.norm>
-0.242944

>  <SCORE.RESTR>
0

>  <SCORE.RESTR.CAVITY>
0

>  <SCORE.RESTR.norm>
0

>  <SCORE.SYSTEM>
0

>  <SCORE.SYSTEM.CONST>
0

>  <SCORE.SYSTEM.DIHEDRAL>
0

>  <SCORE.SYSTEM.SOLV>
0

>  <SCORE.SYSTEM.norm>
0

>  <SCORE.heavy>
26

>  <SCORE.norm>
-0.38206

>  <RMSD>
6.811

$$$$
ligand
 OpenBabel11021811433D
libRbt.so/2013.1/901 2013/11/27
 26 27  0  0  0  0  0  0  0  0999 V2000
   21.8743   33.8399   70.9803 C   0  0  0  0  0  0  0  0  0  0  0  0
   21.9444   40.2629   68.6742 C   0  0  0  0  0  0  0  0  0  0  0  0
   22.3477   44.0499   66.3401 P   0  0  1  0  0  0  0  0  0  0  0  0
   24.6929   43.4928   65.4040 P   0  0  1  0  0  0  0  0  0  0  0  0
   23.9857   38.3813   68.2716 C   0  0  0  0  0  0  0  0  0  0  0  0
   22.1101   36.8032   68.8227 C   0  0  0  0  0  0  0  0  0  0  0  0
   23.4281   37.1790   68.9893 C   0  0  0  0  0  0  0  0  0  0  0  0
   24.2314   36.4168   69.8392 C   0  0  0  0  0  0  0  0  0  0  0  0
   25.5618   36.7528   70.0407 N   0  0  0  0  0  0  0  0  0  0  0  0
   23.7004   35.3663   70.4578 N   0  0  0  0  0  0  0  0  0  0  0  0
   22.4386   35.0404   70.2663 C   0  0  0  0  0  0  0  0  0  0  0  0
   21.6534   35.7397   69.4704 N   0  0  0  0  0  0  0  0  0  0  0  0
   22.8873   43.8440   67.7032 O   0  5  0  0  0  0  0  0  0  0  0  0
   24.1236   42.1212   64.9787 O   0  0  0  0  0  0  0  0  0  0  0  0
   22.0551   38.8738   65.0135 S   0  0  0  0  0  0  0  0  0  0  0  0
   23.3012   38.1532   65.9857 C   0  0  0  0  0  0  0  0  0  0  0  0
   21.1524   45.1252   66.3922 O   0  0  0  0  0  0  0  0  0  0  0  0
   25.8619   43.9287   64.3873 O   0  5  0  0  0  0  0  0  0  0  0  0
   23.1111   38.7299   67.1498 N   0  0  0  0  0  0  0  0  0  0  0  0
   23.5179   44.5939   65.3767 O   0  0  0  0  0  0  0  0  0  0  0  0
   25.2674   43.3896   66.8348 O   0  0  0  0  0  0  0  0  0  0  0  0
   22.1508   39.6102   67.3306 C   0  0  2  0  0  0  0  0  0  0  0  0
   21.3538   39.9238   66.2776 C   0  0  2  0  0  0  0  0  0  0  0  0
   20.1977   40.8860   66.1978 C   0  0  0  0  0  0  0  0  0  0  0  0
   20.6720   42.2898   66.5805 C   0  0  0  0  0  0  0  0  0  0  0  0
   21.7889   42.6528   65.7664 O   0  0  0  0  0  0  0  0  0  0  0  0
  1 11  1  0  0  0  0
  3 13  1  1  0  0  0
  3 17  2  0  0  0  0
  3 20  1  0  0  0  0
  3 26  1  0  0  0  0
  4 14  1  6  0  0  0
  4 18  1  0  0  0  0
  4 21  2  0  0  0  0
  4 20  1  0  0  0  0
  5 19  1  0  0  0  0
  5  7  1  0  0  0  0
  6  7  2  0  0  0  0
  6 12  1  0  0  0  0
  7  8  1  0  0  0  0
  8  9  1  0  0  0  0
  8 10  2  0  0  0  0
 10 11  1  0  0  0  0
 11 12  2  0  0  0  0
 15 23  1  0  0  0  0
 15 16  1  0  0  0  0
 16 19  1  0  0  0  0
 19 22  1  0  0  0  0
 22  2  1  6  0  0  0
 22 23  1  0  0  0  0
 23 24  1  1  0  0  0
 24 25  1  0  0  0  0
 25 26  1  0  0  0  0
M  CHG  2  13  -1  18  -1
M  END
>  <CHROM.1>
58.41071162,-87.38429712,-18.17984636,56.39687726,-121.65771707,54.26873926
-173.13353051,65.70570536,22.93575910,40.36021648,67.14618058,1.61414030
0.09976272,2.68484469

>  <Name>
ligand

>  <RI>
0

>  <Rbt.Current_Directory>
/home/itssahil/PROJECTS/Mol_Feturizer/New_Systems/rnas/2HOJ

>  <Rbt.Executable>
rbdock ($Id: //depot/dev/client3/rdock/2013.1/src/exe/rbdock.cxx#4 $)

>  <Rbt.Library>
libRbt.so (2013.1, Build901 2013/11/27)

>  <Rbt.Parameter_File>
/export/apps/rDock/src/rDock_2013.1_src/data/scripts/dock_solv.prm

>  <Rbt.Receptor>
prm/pocket_docking_8.prm

>  <SCORE>
-18.2638

>  <SCORE.INTER>
-11.5301

>  <SCORE.INTER.CONST>
1

>  <SCORE.INTER.POLAR>
0

>  <SCORE.INTER.ROT>
8

>  <SCORE.INTER.SOLV>
17.675

>  <SCORE.INTER.VDW>
-22.5117

>  <SCORE.INTER.norm>
-0.443465

>  <SCORE.INTRA>
-6.73365

>  <SCORE.INTRA.DIHEDRAL>
-6.65445

>  <SCORE.INTRA.DIHEDRAL.0>
11.6398

>  <SCORE.INTRA.POLAR>
0

>  <SCORE.INTRA.POLAR.0>
0

>  <SCORE.INTRA.REPUL>
0

>  <SCORE.INTRA.REPUL.0>
0

>  <SCORE.INTRA.SOLV>
0.108183

>  <SCORE.INTRA.SOLV.lig_0>
-81.722

>  <SCORE.INTRA.VDW>
-3.46052

>  <SCORE.INTRA.VDW.0>
1.12598

>  <SCORE.INTRA.norm>
-0.258987

>  <SCORE.RESTR>
0

>  <SCORE.RESTR.CAVITY>
0

>  <SCORE.RESTR.norm>
0

>  <SCORE.SYSTEM>
0

>  <SCORE.SYSTEM.CONST>
0

>  <SCORE.SYSTEM.DIHEDRAL>
0

>  <SCORE.SYSTEM.SOLV>
0

>  <SCORE.SYSTEM.norm>
0

>  <SCORE.heavy>
26

>  <SCORE.norm>
-0.702452

>  <RMSD>
6.838

$$$$
ligand
 OpenBabel11021811433D
libRbt.so/2013.1/901 2013/11/27
 26 27  0  0  0  0  0  0  0  0999 V2000
   23.0333   44.5275   64.6527 C   0  0  0  0  0  0  0  0  0  0  0  0
   26.3357   38.1652   65.6804 C   0  0  0  0  0  0  0  0  0  0  0  0
   22.7407   37.7826   67.9116 P   0  0  1  0  0  0  0  0  0  0  0  0
   20.7277   37.6760   69.5313 P   0  0  1  0  0  0  0  0  0  0  0  0
   27.2726   40.7693   65.2216 C   0  0  0  0  0  0  0  0  0  0  0  0
   24.8401   41.3939   65.2916 C   0  0  0  0  0  0  0  0  0  0  0  0
   26.1515   41.7651   65.0706 C   0  0  0  0  0  0  0  0  0  0  0  0
   26.4126   43.0865   64.7039 C   0  0  0  0  0  0  0  0  0  0  0  0
   27.7126   43.5093   64.4701 N   0  0  0  0  0  0  0  0  0  0  0  0
   25.3952   43.9332   64.5764 N   0  0  0  0  0  0  0  0  0  0  0  0
   24.1592   43.5376   64.8016 C   0  0  0  0  0  0  0  0  0  0  0  0
   23.8790   42.2967   65.1490 N   0  0  0  0  0  0  0  0  0  0  0  0
   21.9087   37.6248   66.6973 O   0  5  0  0  0  0  0  0  0  0  0  0
   21.0592   39.0100   70.2362 O   0  0  0  0  0  0  0  0  0  0  0  0
   27.5320   39.9666   68.9463 S   0  0  0  0  0  0  0  0  0  0  0  0
   27.7194   41.0031   67.5651 C   0  0  0  0  0  0  0  0  0  0  0  0
   22.8017   39.3366   68.3228 O   0  0  0  0  0  0  0  0  0  0  0  0
   19.8540   37.9675   68.2115 O   0  5  0  0  0  0  0  0  0  0  0  0
   27.2787   40.2439   66.5887 N   0  0  0  0  0  0  0  0  0  0  0  0
   22.0954   36.9328   69.1177 O   0  0  0  0  0  0  0  0  0  0  0  0
   19.9224   36.7729   70.4924 O   0  0  0  0  0  0  0  0  0  0  0  0
   26.8399   39.0244   66.8124 C   0  0  2  0  0  0  0  0  0  0  0  0
   26.8581   38.5536   68.0854 C   0  0  2  0  0  0  0  0  0  0  0  0
   26.4267   37.2143   68.6230 C   0  0  0  0  0  0  0  0  0  0  0  0
   24.9163   37.2236   68.8695 C   0  0  0  0  0  0  0  0  0  0  0  0
   24.2300   37.2460   67.6163 O   0  0  0  0  0  0  0  0  0  0  0  0
  1 11  1  0  0  0  0
  3 13  1  6  0  0  0
  3 17  2  0  0  0  0
  3 20  1  0  0  0  0
  3 26  1  0  0  0  0
  4 14  1  1  0  0  0
  4 18  1  0  0  0  0
  4 21  2  0  0  0  0
  4 20  1  0  0  0  0
  5 19  1  0  0  0  0
  5  7  1  0  0  0  0
  6  7  2  0  0  0  0
  6 12  1  0  0  0  0
  7  8  1  0  0  0  0
  8  9  1  0  0  0  0
  8 10  2  0  0  0  0
 10 11  1  0  0  0  0
 11 12  2  0  0  0  0
 15 23  1  0  0  0  0
 15 16  1  0  0  0  0
 16 19  1  0  0  0  0
 19 22  1  0  0  0  0
 22  2  1  6  0  0  0
 22 23  1  0  0  0  0
 23 24  1  1  0  0  0
 24 25  1  0  0  0  0
 25 26  1  0  0  0  0
M  CHG  2  13  -1  18  -1
M  END
>  <CHROM.1>
-69.66907832,-74.43352667,-59.31091551,-70.83388301,96.00715606,70.21092427
-159.96935095,-170.92544974,24.29625482,39.59370857,67.34398957,0.88709310
0.05319390,-0.62210378

>  <Name>
ligand

>  <RI>
0

>  <Rbt.Current_Directory>
/home/itssahil/PROJECTS/Mol_Feturizer/New_Systems/rnas/2HOJ

>  <Rbt.Executable>
rbdock ($Id: //depot/dev/client3/rdock/2013.1/src/exe/rbdock.cxx#4 $)

>  <Rbt.Library>
libRbt.so (2013.1, Build901 2013/11/27)

>  <Rbt.Parameter_File>
/export/apps/rDock/src/rDock_2013.1_src/data/scripts/dock_solv.prm

>  <Rbt.Receptor>
prm/pocket_docking_6.prm

>  <SCORE>
-8.83169

>  <SCORE.INTER>
-3.60466

>  <SCORE.INTER.CONST>
1

>  <SCORE.INTER.POLAR>
0

>  <SCORE.INTER.ROT>
8

>  <SCORE.INTER.SOLV>
18.4541

>  <SCORE.INTER.VDW>
-17.4878

>  <SCORE.INTER.norm>
-0.138641

>  <SCORE.INTRA>
-5.22703

>  <SCORE.INTRA.DIHEDRAL>
-4.23055

>  <SCORE.INTRA.DIHEDRAL.0>
11.6398

>  <SCORE.INTRA.POLAR>
0

>  <SCORE.INTRA.POLAR.0>
0

>  <SCORE.INTRA.REPUL>
0

>  <SCORE.INTRA.REPUL.0>
0

>  <SCORE.INTRA.SOLV>
1.76404

>  <SCORE.INTRA.SOLV.lig_0>
-81.722

>  <SCORE.INTRA.VDW>
-3.99378

>  <SCORE.INTRA.VDW.0>
1.12598

>  <SCORE.INTRA.norm>
-0.20104

>  <SCORE.RESTR>
0

>  <SCORE.RESTR.CAVITY>
0

>  <SCORE.RESTR.norm>
0

>  <SCORE.SYSTEM>
0

>  <SCORE.SYSTEM.CONST>
0

>  <SCORE.SYSTEM.DIHEDRAL>
0

>  <SCORE.SYSTEM.SOLV>
0

>  <SCORE.SYSTEM.norm>
0

>  <SCORE.heavy>
26

>  <SCORE.norm>
-0.33968

>  <RMSD>
6.848

$$$$
ligand
 OpenBabel11021811433D
libRbt.so/2013.1/901 2013/11/27
 26 27  0  0  0  0  0  0  0  0999 V2000
   24.8848   36.1137   70.7814 C   0  0  0  0  0  0  0  0  0  0  0  0
   23.4529   41.1994   66.7113 C   0  0  0  0  0  0  0  0  0  0  0  0
   26.5434   44.8241   62.6706 P   0  0  1  0  0  0  0  0  0  0  0  0
   27.5986   42.9228   61.2712 P   0  0  1  0  0  0  0  0  0  0  0  0
   23.8089   38.5826   65.7649 C   0  0  0  0  0  0  0  0  0  0  0  0
   25.3894   37.7110   67.5125 C   0  0  0  0  0  0  0  0  0  0  0  0
   24.0922   37.9290   67.0930 C   0  0  0  0  0  0  0  0  0  0  0  0
   23.0495   37.5287   67.9304 C   0  0  0  0  0  0  0  0  0  0  0  0
   21.7289   37.7248   67.5549 N   0  0  0  0  0  0  0  0  0  0  0  0
   23.3413   36.9509   69.0920 N   0  0  0  0  0  0  0  0  0  0  0  0
   24.5939   36.7664   69.4553 C   0  0  0  0  0  0  0  0  0  0  0  0
   25.6013   37.1328   68.6872 N   0  0  0  0  0  0  0  0  0  0  0  0
   26.7154   46.2087   63.1655 O   0  5  0  0  0  0  0  0  0  0  0  0
   26.1358   42.5259   60.9727 O   0  0  0  0  0  0  0  0  0  0  0  0
   26.7975   40.7228   64.7291 S   0  0  0  0  0  0  0  0  0  0  0  0
   25.9013   39.2363   64.7951 C   0  0  0  0  0  0  0  0  0  0  0  0
   25.0881   44.6692   62.0027 O   0  0  0  0  0  0  0  0  0  0  0  0
   28.5214   42.5712   60.0003 O   0  5  0  0  0  0  0  0  0  0  0  0
   24.8391   39.5848   65.4838 N   0  0  0  0  0  0  0  0  0  0  0  0
   27.6758   44.5032   61.5714 O   0  0  0  0  0  0  0  0  0  0  0  0
   28.1021   42.1402   62.5049 O   0  0  0  0  0  0  0  0  0  0  0  0
   24.6792   40.8143   65.9228 C   0  0  2  0  0  0  0  0  0  0  0  0
   25.6474   41.7276   65.6563 C   0  0  2  0  0  0  0  0  0  0  0  0
   25.7279   43.1836   66.0338 C   0  0  0  0  0  0  0  0  0  0  0  0
   25.5856   44.0470   64.7782 C   0  0  0  0  0  0  0  0  0  0  0  0
   26.6833   43.7927   63.8993 O   0  0  0  0  0  0  0  0  0  0  0  0
  1 11  1  0  0  0  0
  3 13  1  1  0  0  0
  3 17  2  0  0  0  0
  3 20  1  0  0  0  0
  3 26  1  0  0  0  0
  4 14  1  6  0  0  0
  4 18  1  0  0  0  0
  4 21  2  0  0  0  0
  4 20  1  0  0  0  0
  5 19  1  0  0  0  0
  5  7  1  0  0  0  0
  6  7  2  0  0  0  0
  6 12  1  0  0  0  0
  7  8  1  0  0  0  0
  8  9  1  0  0  0  0
  8 10  2  0  0  0  0
 10 11  1  0  0  0  0
 11 12  2  0  0  0  0
 15 23  1  0  0  0  0
 15 16  1  0  0  0  0
 16 19  1  0  0  0  0
 19 22  1  0  0  0  0
 22  2  1  1  0  0  0
 22 23  1  0  0  0  0
 23 24  1  6  0  0  0
 24 25  1  0  0  0  0
 25 26  1  0  0  0  0
M  CHG  2  13  -1  18  -1
M  END
>  <CHROM.1>
170.16265037,92.23284323,-34.64471220,50.07986472,68.74381823,-63.50103689
-174.95740452,65.16173811,25.72377962,41.21158267,64.80004551,-2.08555915
0.89651850,-0.36066221

>  <Name>
ligand

>  <RI>
0

>  <Rbt.Current_Directory>
/home/itssahil/PROJECTS/Mol_Feturizer/New_Systems/rnas/2HOJ

>  <Rbt.Executable>
rbdock ($Id: //depot/dev/client3/rdock/2013.1/src/exe/rbdock.cxx#4 $)

>  <Rbt.Library>
libRbt.so (2013.1, Build901 2013/11/27)

>  <Rbt.Parameter_File>
/export/apps/rDock/src/rDock_2013.1_src/data/scripts/dock_solv.prm

>  <Rbt.Receptor>
prm/pocket_docking_8.prm

>  <SCORE>
-13.6873

>  <SCORE.INTER>
-7.06734

>  <SCORE.INTER.CONST>
1

>  <SCORE.INTER.POLAR>
-2.04134

>  <SCORE.INTER.ROT>
8

>  <SCORE.INTER.SOLV>
12.0125

>  <SCORE.INTER.VDW>
-10.8446

>  <SCORE.INTER.norm>
-0.271821

>  <SCORE.INTRA>
-6.61992

>  <SCORE.INTRA.DIHEDRAL>
-5.98428

>  <SCORE.INTRA.DIHEDRAL.0>
11.6398

>  <SCORE.INTRA.POLAR>
0

>  <SCORE.INTRA.POLAR.0>
0

>  <SCORE.INTRA.REPUL>
0

>  <SCORE.INTRA.REPUL.0>
0

>  <SCORE.INTRA.SOLV>
1.19535

>  <SCORE.INTRA.SOLV.lig_0>
-81.722

>  <SCORE.INTRA.VDW>
-4.22545

>  <SCORE.INTRA.VDW.0>
1.12598

>  <SCORE.INTRA.norm>
-0.254612

>  <SCORE.RESTR>
0

>  <SCORE.RESTR.CAVITY>
0

>  <SCORE.RESTR.norm>
0

>  <SCORE.SYSTEM>
0

>  <SCORE.SYSTEM.CONST>
0

>  <SCORE.SYSTEM.DIHEDRAL>
0

>  <SCORE.SYSTEM.SOLV>
0

>  <SCORE.SYSTEM.norm>
0

>  <SCORE.heavy>
26

>  <SCORE.norm>
-0.526433

>  <RMSD>
6.870

$$$$
ligand
 OpenBabel11021811433D
libRbt.so/2013.1/901 2013/11/27
 26 27  0  0  0  0  0  0  0  0999 V2000
   22.9451   34.0139   71.5377 C   0  0  0  0  0  0  0  0  0  0  0  0
   22.4414   39.9645   68.4648 C   0  0  0  0  0  0  0  0  0  0  0  0
   22.4320   43.4396   66.1056 P   0  0  1  0  0  0  0  0  0  0  0  0
   24.7964   42.6316   65.4395 P   0  0  1  0  0  0  0  0  0  0  0  0
   24.5079   38.1413   67.9403 C   0  0  0  0  0  0  0  0  0  0  0  0
   22.7654   36.7181   69.0584 C   0  0  0  0  0  0  0  0  0  0  0  0
   24.0957   37.0486   68.8929 C   0  0  0  0  0  0  0  0  0  0  0  0
   25.0494   36.3446   69.6302 C   0  0  0  0  0  0  0  0  0  0  0  0
   26.3985   36.6387   69.5005 N   0  0  0  0  0  0  0  0  0  0  0  0
   24.6445   35.3910   70.4639 N   0  0  0  0  0  0  0  0  0  0  0  0
   23.3647   35.1049   70.5874 C   0  0  0  0  0  0  0  0  0  0  0  0
   22.4392   35.7513   69.9057 N   0  0  0  0  0  0  0  0  0  0  0  0
   22.7948   43.3963   67.5402 O   0  5  0  0  0  0  0  0  0  0  0  0
   24.1807   41.3012   64.9525 O   0  0  0  0  0  0  0  0  0  0  0  0
   22.0975   38.2116   64.9789 S   0  0  0  0  0  0  0  0  0  0  0  0
   23.5118   37.6494   65.8162 C   0  0  0  0  0  0  0  0  0  0  0  0
   21.2865   44.5451   65.8742 O   0  0  0  0  0  0  0  0  0  0  0  0
   26.1278   42.9498   64.5932 O   0  5  0  0  0  0  0  0  0  0  0  0
   23.4604   38.3343   66.9352 N   0  0  0  0  0  0  0  0  0  0  0  0
   23.7317   43.8227   65.2352 O   0  0  0  0  0  0  0  0  0  0  0  0
   25.1549   42.5141   66.9380 O   0  0  0  0  0  0  0  0  0  0  0  0
   22.4873   39.1863   67.1740 C   0  0  2  0  0  0  0  0  0  0  0  0
   21.5284   39.3550   66.2282 C   0  0  2  0  0  0  0  0  0  0  0  0
   20.3191   40.2530   66.2323 C   0  0  0  0  0  0  0  0  0  0  0  0
   20.7566   41.7004   66.4685 C   0  0  0  0  0  0  0  0  0  0  0  0
   21.8865   41.9961   65.6452 O   0  0  0  0  0  0  0  0  0  0  0  0
  1 11  1  0  0  0  0
  3 13  1  1  0  0  0
  3 17  2  0  0  0  0
  3 20  1  0  0  0  0
  3 26  1  0  0  0  0
  4 14  1  6  0  0  0
  4 18  1  0  0  0  0
  4 21  2  0  0  0  0
  4 20  1  0  0  0  0
  5 19  1  0  0  0  0
  5  7  1  0  0  0  0
  6  7  2  0  0  0  0
  6 12  1  0  0  0  0
  7  8  1  0  0  0  0
  8  9  1  0  0  0  0
  8 10  2  0  0  0  0
 10 11  1  0  0  0  0
 11 12  2  0  0  0  0
 15 23  1  0  0  0  0
 15 16  1  0  0  0  0
 16 19  1  0  0  0  0
 19 22  1  0  0  0  0
 22  2  1  6  0  0  0
 22 23  1  0  0  0  0
 23 24  1  1  0  0  0
 24 25  1  0  0  0  0
 25 26  1  0  0  0  0
M  CHG  2  13  -1  18  -1
M  END
>  <CHROM.1>
63.50113729,-90.58102270,-22.71205497,59.90270834,-124.27631820,45.34794770
-171.38428847,58.84823550,23.26169221,39.88550276,67.08824685,1.50528300
0.15164255,2.64240015

>  <Name>
ligand

>  <RI>
0

>  <Rbt.Current_Directory>
/home/itssahil/PROJECTS/Mol_Feturizer/New_Systems/rnas/2HOJ

>  <Rbt.Executable>
rbdock ($Id: //depot/dev/client3/rdock/2013.1/src/exe/rbdock.cxx#4 $)

>  <Rbt.Library>
libRbt.so (2013.1, Build901 2013/11/27)

>  <Rbt.Parameter_File>
/export/apps/rDock/src/rDock_2013.1_src/data/scripts/dock_solv.prm

>  <Rbt.Receptor>
prm/pocket_docking_6.prm

>  <SCORE>
-16.6838

>  <SCORE.INTER>
-10.3846

>  <SCORE.INTER.CONST>
1

>  <SCORE.INTER.POLAR>
0

>  <SCORE.INTER.ROT>
8

>  <SCORE.INTER.SOLV>
13.19

>  <SCORE.INTER.VDW>
-20.2531

>  <SCORE.INTER.norm>
-0.399408

>  <SCORE.INTRA>
-6.29924

>  <SCORE.INTRA.DIHEDRAL>
-5.92408

>  <SCORE.INTRA.DIHEDRAL.0>
11.6398

>  <SCORE.INTRA.POLAR>
0

>  <SCORE.INTRA.POLAR.0>
0

>  <SCORE.INTRA.REPUL>
0

>  <SCORE.INTRA.REPUL.0>
0

>  <SCORE.INTRA.SOLV>
0.81635

>  <SCORE.INTRA.SOLV.lig_0>
-81.722

>  <SCORE.INTRA.VDW>
-3.74537

>  <SCORE.INTRA.VDW.0>
1.12598

>  <SCORE.INTRA.norm>
-0.242278

>  <SCORE.RESTR>
0

>  <SCORE.RESTR.CAVITY>
0

>  <SCORE.RESTR.norm>
0

>  <SCORE.SYSTEM>
0

>  <SCORE.SYSTEM.CONST>
0

>  <SCORE.SYSTEM.DIHEDRAL>
0

>  <SCORE.SYSTEM.SOLV>
0

>  <SCORE.SYSTEM.norm>
0

>  <SCORE.heavy>
26

>  <SCORE.norm>
-0.641686

>  <RMSD>
6.894

$$$$
ligand
 OpenBabel11021811433D
libRbt.so/2013.1/901 2013/11/27
 26 27  0  0  0  0  0  0  0  0999 V2000
   27.4892   42.8178   65.5633 C   0  0  0  0  0  0  0  0  0  0  0  0
   21.7532   41.4965   67.8645 C   0  0  0  0  0  0  0  0  0  0  0  0
   21.9247   37.5722   66.2336 P   0  0  1  0  0  0  0  0  0  0  0  0
   21.8144   36.9049   68.7295 P   0  0  1  0  0  0  0  0  0  0  0  0
   22.3947   44.2214   67.6833 C   0  0  0  0  0  0  0  0  0  0  0  0
   24.5795   42.9865   67.7988 C   0  0  0  0  0  0  0  0  0  0  0  0
   23.7429   43.8508   67.1210 C   0  0  0  0  0  0  0  0  0  0  0  0
   24.1775   44.3725   65.9014 C   0  0  0  0  0  0  0  0  0  0  0  0
   23.3749   45.2452   65.1819 N   0  0  0  0  0  0  0  0  0  0  0  0
   25.3759   44.0248   65.4418 N   0  0  0  0  0  0  0  0  0  0  0  0
   26.1402   43.1928   66.1192 C   0  0  0  0  0  0  0  0  0  0  0  0
   25.7592   42.6829   67.2741 N   0  0  0  0  0  0  0  0  0  0  0  0
   23.1970   38.3232   66.3284 O   0  5  0  0  0  0  0  0  0  0  0  0
   20.3882   37.4684   68.9158 O   0  0  0  0  0  0  0  0  0  0  0  0
   19.5976   43.4105   65.2126 S   0  0  0  0  0  0  0  0  0  0  0  0
   20.7240   44.4842   65.9845 C   0  0  0  0  0  0  0  0  0  0  0  0
   21.7216   37.0475   64.7266 O   0  0  0  0  0  0  0  0  0  0  0  0
   22.0738   35.7326   69.8012 O   0  5  0  0  0  0  0  0  0  0  0  0
   21.3406   43.6821   66.8213 N   0  0  0  0  0  0  0  0  0  0  0  0
   21.9683   36.3148   67.2389 O   0  0  0  0  0  0  0  0  0  0  0  0
   22.8458   38.0354   68.9437 O   0  0  0  0  0  0  0  0  0  0  0  0
   21.0348   42.4053   66.8992 C   0  0  2  0  0  0  0  0  0  0  0  0
   20.0517   41.9252   66.0956 C   0  0  2  0  0  0  0  0  0  0  0  0
   19.5001   40.5285   65.9782 C   0  0  0  0  0  0  0  0  0  0  0  0
   20.6328   39.5572   65.6383 C   0  0  0  0  0  0  0  0  0  0  0  0
   20.6998   38.5368   66.6365 O   0  0  0  0  0  0  0  0  0  0  0  0
  1 11  1  0  0  0  0
  3 13  1  1  0  0  0
  3 17  2  0  0  0  0
  3 20  1  0  0  0  0
  3 26  1  0  0  0  0
  4 14  1  1  0  0  0
  4 18  1  0  0  0  0
  4 21  2  0  0  0  0
  4 20  1  0  0  0  0
  5 19  1  0  0  0  0
  5  7  1  0  0  0  0
  6  7  2  0  0  0  0
  6 12  1  0  0  0  0
  7  8  1  0  0  0  0
  8  9  1  0  0  0  0
  8 10  2  0  0  0  0
 10 11  1  0  0  0  0
 11 12  2  0  0  0  0
 15 23  1  0  0  0  0
 15 16  1  0  0  0  0
 16 19  1  0  0  0  0
 19 22  1  0  0  0  0
 22  2  1  1  0  0  0
 22 23  1  0  0  0  0
 23 24  1  6  0  0  0
 24 25  1  0  0  0  0
 25 26  1  0  0  0  0
M  CHG  2  13  -1  18  -1
M  END
>  <CHROM.1>
73.31077020,-101.90471465,-113.54643506,68.48948881,122.75103774,122.62508372
-178.90859470,65.54912011,22.27438339,40.63298622,66.79577162,-1.31583262
0.14135280,2.87423434

>  <Name>
ligand

>  <RI>
0

>  <Rbt.Current_Directory>
/home/itssahil/PROJECTS/Mol_Feturizer/New_Systems/rnas/2HOJ

>  <Rbt.Executable>
rbdock ($Id: //depot/dev/client3/rdock/2013.1/src/exe/rbdock.cxx#4 $)

>  <Rbt.Library>
libRbt.so (2013.1, Build901 2013/11/27)

>  <Rbt.Parameter_File>
/export/apps/rDock/src/rDock_2013.1_src/data/scripts/dock_solv.prm

>  <Rbt.Receptor>
prm/pocket_docking_8.prm

>  <SCORE>
-21.7042

>  <SCORE.INTER>
-19.3694

>  <SCORE.INTER.CONST>
1

>  <SCORE.INTER.POLAR>
0

>  <SCORE.INTER.ROT>
8

>  <SCORE.INTER.SOLV>
22.3152

>  <SCORE.INTER.VDW>
-29.2847

>  <SCORE.INTER.norm>
-0.744979

>  <SCORE.INTRA>
-2.3348

>  <SCORE.INTRA.DIHEDRAL>
-1.13179

>  <SCORE.INTRA.DIHEDRAL.0>
11.6398

>  <SCORE.INTRA.POLAR>
0

>  <SCORE.INTRA.POLAR.0>
0

>  <SCORE.INTRA.REPUL>
0

>  <SCORE.INTRA.REPUL.0>
0

>  <SCORE.INTRA.SOLV>
2.77643

>  <SCORE.INTRA.SOLV.lig_0>
-81.722

>  <SCORE.INTRA.VDW>
-3.15712

>  <SCORE.INTRA.VDW.0>
1.12598

>  <SCORE.INTRA.norm>
-0.0897999

>  <SCORE.RESTR>
0

>  <SCORE.RESTR.CAVITY>
0

>  <SCORE.RESTR.norm>
0

>  <SCORE.SYSTEM>
0

>  <SCORE.SYSTEM.CONST>
0

>  <SCORE.SYSTEM.DIHEDRAL>
0

>  <SCORE.SYSTEM.SOLV>
0

>  <SCORE.SYSTEM.norm>
0

>  <SCORE.heavy>
26

>  <SCORE.norm>
-0.834779

>  <RMSD>
6.896

$$$$
ligand
 OpenBabel11021811433D
libRbt.so/2013.1/901 2013/11/27
 26 27  0  0  0  0  0  0  0  0999 V2000
   20.9574   36.5888   69.5075 C   0  0  0  0  0  0  0  0  0  0  0  0
   26.1100   40.0981   65.3138 C   0  0  0  0  0  0  0  0  0  0  0  0
   23.4452   44.3584   66.9153 P   0  0  1  0  0  0  0  0  0  0  0  0
   21.2206   43.7752   65.7330 P   0  0  1  0  0  0  0  0  0  0  0  0
   25.9563   38.0122   67.1832 C   0  0  0  0  0  0  0  0  0  0  0  0
   24.5565   37.2027   69.1059 C   0  0  0  0  0  0  0  0  0  0  0  0
   24.6325   37.6357   67.7971 C   0  0  0  0  0  0  0  0  0  0  0  0
   23.4517   37.7163   67.0569 C   0  0  0  0  0  0  0  0  0  0  0  0
   23.4745   38.1448   65.7381 N   0  0  0  0  0  0  0  0  0  0  0  0
   22.3045   37.3702   67.6335 N   0  0  0  0  0  0  0  0  0  0  0  0
   22.2771   36.9668   68.8871 C   0  0  0  0  0  0  0  0  0  0  0  0
   23.3744   36.8793   69.6132 N   0  0  0  0  0  0  0  0  0  0  0  0
   23.5941   45.2765   65.7635 O   0  5  0  0  0  0  0  0  0  0  0  0
   20.6722   44.9703   66.5439 O   0  0  0  0  0  0  0  0  0  0  0  0
   27.0104   41.2272   68.9547 S   0  0  0  0  0  0  0  0  0  0  0  0
   26.6144   39.5364   68.9123 C   0  0  0  0  0  0  0  0  0  0  0  0
   22.8033   45.1542   68.1573 O   0  0  0  0  0  0  0  0  0  0  0  0
   21.6821   44.2801   64.2762 O   0  5  0  0  0  0  0  0  0  0  0  0
   26.3452   39.3478   67.6412 N   0  0  0  0  0  0  0  0  0  0  0  0
   22.4810   43.1355   66.5049 O   0  0  0  0  0  0  0  0  0  0  0  0
   20.1147   42.7066   65.5808 O   0  0  0  0  0  0  0  0  0  0  0  0
   26.4209   40.3309   66.7708 C   0  0  2  0  0  0  0  0  0  0  0  0
   26.7783   41.5627   67.2153 C   0  0  2  0  0  0  0  0  0  0  0  0
   26.9384   42.8523   66.4537 C   0  0  0  0  0  0  0  0  0  0  0  0
   25.5590   43.4269   66.1233 C   0  0  0  0  0  0  0  0  0  0  0  0
   24.8896   43.7831   67.3345 O   0  0  0  0  0  0  0  0  0  0  0  0
  1 11  1  0  0  0  0
  3 13  1  6  0  0  0
  3 17  2  0  0  0  0
  3 20  1  0  0  0  0
  3 26  1  0  0  0  0
  4 14  1  1  0  0  0
  4 18  1  0  0  0  0
  4 21  2  0  0  0  0
  4 20  1  0  0  0  0
  5 19  1  0  0  0  0
  5  7  1  0  0  0  0
  6  7  2  0  0  0  0
  6 12  1  0  0  0  0
  7  8  1  0  0  0  0
  8  9  1  0  0  0  0
  8 10  2  0  0  0  0
 10 11  1  0  0  0  0
 11 12  2  0  0  0  0
 15 23  1  0  0  0  0
 15 16  1  0  0  0  0
 16 19  1  0  0  0  0
 19 22  1  0  0  0  0
 22  2  1  1  0  0  0
 22 23  1  0  0  0  0
 23 24  1  6  0  0  0
 24 25  1  0  0  0  0
 25 26  1  0  0  0  0
M  CHG  2  13  -1  18  -1
M  END
>  <CHROM.1>
-45.14266265,65.48825276,-78.09601659,-47.89748827,-104.69402175,64.93900166
-179.24100023,-44.08020966,23.89328312,41.30589196,67.13421576,1.29500371
0.13799248,2.87003954

>  <Name>
ligand

>  <RI>
0

>  <Rbt.Current_Directory>
/home/itssahil/PROJECTS/Mol_Feturizer/New_Systems/rnas/2HOJ

>  <Rbt.Executable>
rbdock ($Id: //depot/dev/client3/rdock/2013.1/src/exe/rbdock.cxx#4 $)

>  <Rbt.Library>
libRbt.so (2013.1, Build901 2013/11/27)

>  <Rbt.Parameter_File>
/export/apps/rDock/src/rDock_2013.1_src/data/scripts/dock_solv.prm

>  <Rbt.Receptor>
prm/pocket_docking_7.prm

>  <SCORE>
-11.6232

>  <SCORE.INTER>
-7.04109

>  <SCORE.INTER.CONST>
1

>  <SCORE.INTER.POLAR>
0

>  <SCORE.INTER.ROT>
8

>  <SCORE.INTER.SOLV>
26.8903

>  <SCORE.INTER.VDW>
-22.5908

>  <SCORE.INTER.norm>
-0.270811

>  <SCORE.INTRA>
-4.58215

>  <SCORE.INTRA.DIHEDRAL>
-5.91194

>  <SCORE.INTRA.DIHEDRAL.0>
11.6398

>  <SCORE.INTRA.POLAR>
0

>  <SCORE.INTRA.POLAR.0>
0

>  <SCORE.INTRA.REPUL>
0

>  <SCORE.INTRA.REPUL.0>
0

>  <SCORE.INTRA.SOLV>
2.85337

>  <SCORE.INTRA.SOLV.lig_0>
-81.722

>  <SCORE.INTRA.VDW>
-3.05286

>  <SCORE.INTRA.VDW.0>
1.12598

>  <SCORE.INTRA.norm>
-0.176236

>  <SCORE.RESTR>
0

>  <SCORE.RESTR.CAVITY>
0

>  <SCORE.RESTR.norm>
0

>  <SCORE.SYSTEM>
0

>  <SCORE.SYSTEM.CONST>
0

>  <SCORE.SYSTEM.DIHEDRAL>
0

>  <SCORE.SYSTEM.SOLV>
0

>  <SCORE.SYSTEM.norm>
0

>  <SCORE.heavy>
26

>  <SCORE.norm>
-0.447047

>  <RMSD>
6.969

$$$$
ligand
 OpenBabel11021811433D
libRbt.so/2013.1/901 2013/11/27
 26 27  0  0  0  0  0  0  0  0999 V2000
   27.9517   42.0871   63.9834 C   0  0  0  0  0  0  0  0  0  0  0  0
   22.1256   37.2411   66.3103 C   0  0  0  0  0  0  0  0  0  0  0  0
   22.5786   34.5497   71.1311 P   0  0  1  0  0  0  0  0  0  0  0  0
   25.1388   34.8800   71.2820 P   0  0  1  0  0  0  0  0  0  0  0  0
   24.7275   37.5889   65.3210 C   0  0  0  0  0  0  0  0  0  0  0  0
   26.9077   38.6240   64.6234 C   0  0  0  0  0  0  0  0  0  0  0  0
   25.5797   38.7804   64.9672 C   0  0  0  0  0  0  0  0  0  0  0  0
   25.0464   40.0704   64.9786 C   0  0  0  0  0  0  0  0  0  0  0  0
   23.7181   40.2809   65.3175 N   0  0  0  0  0  0  0  0  0  0  0  0
   25.8327   41.0959   64.6651 N   0  0  0  0  0  0  0  0  0  0  0  0
   27.0937   40.9008   64.3382 C   0  0  0  0  0  0  0  0  0  0  0  0
   27.6278   39.6953   64.3182 N   0  0  0  0  0  0  0  0  0  0  0  0
   22.9541   33.4690   70.1916 O   0  5  0  0  0  0  0  0  0  0  0  0
   25.0360   33.8223   72.4031 O   0  0  0  0  0  0  0  0  0  0  0  0
   24.8148   37.5704   69.1390 S   0  0  0  0  0  0  0  0  0  0  0  0
   25.5519   37.6811   67.5700 C   0  0  0  0  0  0  0  0  0  0  0  0
   22.3920   33.9378   72.6071 O   0  0  0  0  0  0  0  0  0  0  0  0
   25.4756   34.1534   69.8861 O   0  5  0  0  0  0  0  0  0  0  0  0
   24.5189   37.5501   66.7701 N   0  0  0  0  0  0  0  0  0  0  0  0
   23.7389   35.6662   71.1553 O   0  0  0  0  0  0  0  0  0  0  0  0
   26.2628   35.8839   71.6239 O   0  0  0  0  0  0  0  0  0  0  0  0
   23.3020   37.3887   67.2420 C   0  0  2  0  0  0  0  0  0  0  0  0
   23.1296   37.3505   68.5879 C   0  0  2  0  0  0  0  0  0  0  0  0
   21.8685   37.1754   69.3926 C   0  0  0  0  0  0  0  0  0  0  0  0
   21.4170   35.7146   69.3263 C   0  0  0  0  0  0  0  0  0  0  0  0
   21.1975   35.2241   70.6504 O   0  0  0  0  0  0  0  0  0  0  0  0
  1 11  1  0  0  0  0
  3 13  1  6  0  0  0
  3 17  2  0  0  0  0
  3 20  1  0  0  0  0
  3 26  1  0  0  0  0
  4 14  1  1  0  0  0
  4 18  1  0  0  0  0
  4 21  2  0  0  0  0
  4 20  1  0  0  0  0
  5 19  1  0  0  0  0
  5  7  1  0  0  0  0
  6  7  2  0  0  0  0
  6 12  1  0  0  0  0
  7  8  1  0  0  0  0
  8  9  1  0  0  0  0
  8 10  2  0  0  0  0
 10 11  1  0  0  0  0
 11 12  2  0  0  0  0
 15 23  1  0  0  0  0
 15 16  1  0  0  0  0
 16 19  1  0  0  0  0
 19 22  1  0  0  0  0
 22  2  1  6  0  0  0
 22 23  1  0  0  0  0
 23 24  1  1  0  0  0
 24 25  1  0  0  0  0
 25 26  1  0  0  0  0
M  CHG  2  13  -1  18  -1
M  END
>  <CHROM.1>
-46.34847190,-48.63865441,104.98550152,-47.63295126,-105.61907713,128.41640633
-92.39782218,-58.41151357,24.38449044,36.92946866,68.46061699,-1.25983453
0.11723859,2.23193834

>  <Name>
ligand

>  <RI>
0

>  <Rbt.Current_Directory>
/home/itssahil/PROJECTS/Mol_Feturizer/New_Systems/rnas/2HOJ

>  <Rbt.Executable>
rbdock ($Id: //depot/dev/client3/rdock/2013.1/src/exe/rbdock.cxx#4 $)

>  <Rbt.Library>
libRbt.so (2013.1, Build901 2013/11/27)

>  <Rbt.Parameter_File>
/export/apps/rDock/src/rDock_2013.1_src/data/scripts/dock_solv.prm

>  <Rbt.Receptor>
prm/pocket_docking_8.prm

>  <SCORE>
-10.8838

>  <SCORE.INTER>
-10.0445

>  <SCORE.INTER.CONST>
1

>  <SCORE.INTER.POLAR>
0

>  <SCORE.INTER.ROT>
8

>  <SCORE.INTER.SOLV>
18.134

>  <SCORE.INTER.VDW>
-21.6744

>  <SCORE.INTER.norm>
-0.386329

>  <SCORE.INTRA>
-0.83926

>  <SCORE.INTRA.DIHEDRAL>
2.8641

>  <SCORE.INTRA.DIHEDRAL.0>
11.6398

>  <SCORE.INTRA.POLAR>
0

>  <SCORE.INTRA.POLAR.0>
0

>  <SCORE.INTRA.REPUL>
0

>  <SCORE.INTRA.REPUL.0>
0

>  <SCORE.INTRA.SOLV>
4.63525

>  <SCORE.INTRA.SOLV.lig_0>
-81.722

>  <SCORE.INTRA.VDW>
-4.58893

>  <SCORE.INTRA.VDW.0>
1.12598

>  <SCORE.INTRA.norm>
-0.0322792

>  <SCORE.RESTR>
0

>  <SCORE.RESTR.CAVITY>
0

>  <SCORE.RESTR.norm>
0

>  <SCORE.SYSTEM>
0

>  <SCORE.SYSTEM.CONST>
0

>  <SCORE.SYSTEM.DIHEDRAL>
0

>  <SCORE.SYSTEM.SOLV>
0

>  <SCORE.SYSTEM.norm>
0

>  <SCORE.heavy>
26

>  <SCORE.norm>
-0.418608

>  <RMSD>
6.986

$$$$
ligand
 OpenBabel11021811433D
libRbt.so/2013.1/901 2013/11/27
 26 27  0  0  0  0  0  0  0  0999 V2000
   27.4661   37.0120   72.9365 C   0  0  0  0  0  0  0  0  0  0  0  0
   21.0260   38.3899   69.5535 C   0  0  0  0  0  0  0  0  0  0  0  0
   23.6643   42.7991   67.1765 P   0  0  1  0  0  0  0  0  0  0  0  0
   25.6658   41.7200   68.4080 P   0  0  1  0  0  0  0  0  0  0  0  0
   22.9493   36.3478   69.5342 C   0  0  0  0  0  0  0  0  0  0  0  0
   25.1021   37.4792   70.1643 C   0  0  0  0  0  0  0  0  0  0  0  0
   24.1443   36.5225   70.4356 C   0  0  0  0  0  0  0  0  0  0  0  0
   24.3109   35.7211   71.5664 C   0  0  0  0  0  0  0  0  0  0  0  0
   23.3774   34.7453   71.8825 N   0  0  0  0  0  0  0  0  0  0  0  0
   25.3817   35.9032   72.3336 N   0  0  0  0  0  0  0  0  0  0  0  0
   26.2689   36.8316   72.0401 C   0  0  0  0  0  0  0  0  0  0  0  0
   26.1409   37.6046   70.9794 N   0  0  0  0  0  0  0  0  0  0  0  0
   23.8773   43.9412   68.0940 O   0  5  0  0  0  0  0  0  0  0  0  0
   25.6100   42.5575   69.7048 O   0  0  0  0  0  0  0  0  0  0  0  0
   23.5366   38.6706   66.5602 S   0  0  0  0  0  0  0  0  0  0  0  0
   23.9054   37.2906   67.5485 C   0  0  0  0  0  0  0  0  0  0  0  0
   24.4945   43.0380   65.8195 O   0  0  0  0  0  0  0  0  0  0  0  0
   26.4001   40.3188   68.7037 O   0  5  0  0  0  0  0  0  0  0  0  0
   22.9811   37.3622   68.4783 N   0  0  0  0  0  0  0  0  0  0  0  0
   24.1687   41.4426   67.8830 O   0  0  0  0  0  0  0  0  0  0  0  0
   26.4534   42.4960   67.3284 O   0  0  0  0  0  0  0  0  0  0  0  0
   22.0821   38.3221   68.4794 C   0  0  2  0  0  0  0  0  0  0  0  0
   22.1311   39.2557   67.4952 C   0  0  2  0  0  0  0  0  0  0  0  0
   21.2450   40.4499   67.2557 C   0  0  0  0  0  0  0  0  0  0  0  0
   21.9076   41.3843   66.2408 C   0  0  0  0  0  0  0  0  0  0  0  0
   22.0965   42.6715   66.8319 O   0  0  0  0  0  0  0  0  0  0  0  0
  1 11  1  0  0  0  0
  3 13  1  1  0  0  0
  3 17  2  0  0  0  0
  3 20  1  0  0  0  0
  3 26  1  0  0  0  0
  4 14  1  1  0  0  0
  4 18  1  0  0  0  0
  4 21  2  0  0  0  0
  4 20  1  0  0  0  0
  5 19  1  0  0  0  0
  5  7  1  0  0  0  0
  6  7  2  0  0  0  0
  6 12  1  0  0  0  0
  7  8  1  0  0  0  0
  8  9  1  0  0  0  0
  8 10  2  0  0  0  0
 10 11  1  0  0  0  0
 11 12  2  0  0  0  0
 15 23  1  0  0  0  0
 15 16  1  0  0  0  0
 16 19  1  0  0  0  0
 19 22  1  0  0  0  0
 22  2  1  1  0  0  0
 22 23  1  0  0  0  0
 23 24  1  6  0  0  0
 24 25  1  0  0  0  0
 25 26  1  0  0  0  0
M  CHG  2  13  -1  18  -1
M  END
>  <CHROM.1>
-51.26332666,69.26444348,-3.36476516,77.45290908,-14.43325797,-121.12054937
104.88387240,-165.55322164,24.13938810,39.62117850,68.72488060,-1.42232252
-0.55783595,-0.51348078

>  <Name>
ligand

>  <RI>
0

>  <Rbt.Current_Directory>
/home/itssahil/PROJECTS/Mol_Feturizer/New_Systems/rnas/2HOJ

>  <Rbt.Executable>
rbdock ($Id: //depot/dev/client3/rdock/2013.1/src/exe/rbdock.cxx#4 $)

>  <Rbt.Library>
libRbt.so (2013.1, Build901 2013/11/27)

>  <Rbt.Parameter_File>
/export/apps/rDock/src/rDock_2013.1_src/data/scripts/dock_solv.prm

>  <Rbt.Receptor>
prm/pocket_docking_7.prm

>  <SCORE>
-8.60171

>  <SCORE.INTER>
-8.71329

>  <SCORE.INTER.CONST>
1

>  <SCORE.INTER.POLAR>
0

>  <SCORE.INTER.ROT>
8

>  <SCORE.INTER.SOLV>
14.8761

>  <SCORE.INTER.VDW>
-19.7009

>  <SCORE.INTER.norm>
-0.335126

>  <SCORE.INTRA>
0.111582

>  <SCORE.INTRA.DIHEDRAL>
5.56095

>  <SCORE.INTRA.DIHEDRAL.0>
11.6398

>  <SCORE.INTRA.POLAR>
0

>  <SCORE.INTRA.POLAR.0>
0

>  <SCORE.INTRA.REPUL>
0

>  <SCORE.INTRA.REPUL.0>
0

>  <SCORE.INTRA.SOLV>
2.10642

>  <SCORE.INTRA.SOLV.lig_0>
-81.722

>  <SCORE.INTRA.VDW>
-3.7221

>  <SCORE.INTRA.VDW.0>
1.12598

>  <SCORE.INTRA.norm>
0.00429161

>  <SCORE.RESTR>
0

>  <SCORE.RESTR.CAVITY>
0

>  <SCORE.RESTR.norm>
0

>  <SCORE.SYSTEM>
0

>  <SCORE.SYSTEM.CONST>
0

>  <SCORE.SYSTEM.DIHEDRAL>
0

>  <SCORE.SYSTEM.SOLV>
0

>  <SCORE.SYSTEM.norm>
0

>  <SCORE.heavy>
26

>  <SCORE.norm>
-0.330835

>  <RMSD>
7.110

$$$$
ligand
 OpenBabel11021811433D
libRbt.so/2013.1/901 2013/11/27
 26 27  0  0  0  0  0  0  0  0999 V2000
   20.9880   36.3665   69.2931 C   0  0  0  0  0  0  0  0  0  0  0  0
   26.2642   39.1675   65.0596 C   0  0  0  0  0  0  0  0  0  0  0  0
   23.1771   44.7677   64.9050 P   0  0  1  0  0  0  0  0  0  0  0  0
   21.2985   43.8849   66.4472 P   0  0  1  0  0  0  0  0  0  0  0  0
   26.0931   38.3507   67.7379 C   0  0  0  0  0  0  0  0  0  0  0  0
   23.6479   37.9541   67.3192 C   0  0  0  0  0  0  0  0  0  0  0  0
   24.7424   37.8251   68.1509 C   0  0  0  0  0  0  0  0  0  0  0  0
   24.5662   37.1950   69.3840 C   0  0  0  0  0  0  0  0  0  0  0  0
   25.6339   37.0410   70.2557 N   0  0  0  0  0  0  0  0  0  0  0  0
   23.3574   36.7495   69.7134 N   0  0  0  0  0  0  0  0  0  0  0  0
   22.3412   36.8894   68.8872 C   0  0  0  0  0  0  0  0  0  0  0  0
   22.4743   37.4799   67.7156 N   0  0  0  0  0  0  0  0  0  0  0  0
   23.4958   45.5101   63.6644 O   0  5  0  0  0  0  0  0  0  0  0  0
   21.7265   44.8435   67.5805 O   0  0  0  0  0  0  0  0  0  0  0  0
   25.7514   42.1496   67.5468 S   0  0  0  0  0  0  0  0  0  0  0  0
   25.8174   40.6380   68.3999 C   0  0  0  0  0  0  0  0  0  0  0  0
   23.7137   45.5925   66.1776 O   0  0  0  0  0  0  0  0  0  0  0  0
   19.7286   43.5580   66.5834 O   0  5  0  0  0  0  0  0  0  0  0  0
   25.9872   39.7771   67.4232 N   0  0  0  0  0  0  0  0  0  0  0  0
   21.5821   44.5782   65.0215 O   0  0  0  0  0  0  0  0  0  0  0  0
   22.1082   42.5727   66.5507 O   0  0  0  0  0  0  0  0  0  0  0  0
   26.0677   40.1684   66.1702 C   0  0  2  0  0  0  0  0  0  0  0  0
   25.9623   41.4941   65.8982 C   0  0  2  0  0  0  0  0  0  0  0  0
   26.0131   42.2128   64.5754 C   0  0  0  0  0  0  0  0  0  0  0  0
   25.2854   43.5540   64.6927 C   0  0  0  0  0  0  0  0  0  0  0  0
   23.8857   43.3223   64.8637 O   0  0  0  0  0  0  0  0  0  0  0  0
  1 11  1  0  0  0  0
  3 13  1  6  0  0  0
  3 17  2  0  0  0  0
  3 20  1  0  0  0  0
  3 26  1  0  0  0  0
  4 14  1  1  0  0  0
  4 18  1  0  0  0  0
  4 21  2  0  0  0  0
  4 20  1  0  0  0  0
  5 19  1  0  0  0  0
  5  7  1  0  0  0  0
  6  7  2  0  0  0  0
  6 12  1  0  0  0  0
  7  8  1  0  0  0  0
  8  9  1  0  0  0  0
  8 10  2  0  0  0  0
 10 11  1  0  0  0  0
 11 12  2  0  0  0  0
 15 23  1  0  0  0  0
 15 16  1  0  0  0  0
 16 19  1  0  0  0  0
 19 22  1  0  0  0  0
 22  2  1  6  0  0  0
 22 23  1  0  0  0  0
 23 24  1  1  0  0  0
 24 25  1  0  0  0  0
 25 26  1  0  0  0  0
M  CHG  2  13  -1  18  -1
M  END
>  <CHROM.1>
-175.06839277,72.01932500,56.30957117,64.34526716,-23.90700566,-68.42059355
-177.20910810,57.21322555,23.77375641,41.40498718,66.78481945,1.38835164
-0.24535553,2.66611721

>  <Name>
ligand

>  <RI>
0

>  <Rbt.Current_Directory>
/home/itssahil/PROJECTS/Mol_Feturizer/New_Systems/rnas/2HOJ

>  <Rbt.Executable>
rbdock ($Id: //depot/dev/client3/rdock/2013.1/src/exe/rbdock.cxx#4 $)

>  <Rbt.Library>
libRbt.so (2013.1, Build901 2013/11/27)

>  <Rbt.Parameter_File>
/export/apps/rDock/src/rDock_2013.1_src/data/scripts/dock_solv.prm

>  <Rbt.Receptor>
prm/pocket_docking_8.prm

>  <SCORE>
-12.9734

>  <SCORE.INTER>
-6.25955

>  <SCORE.INTER.CONST>
1

>  <SCORE.INTER.POLAR>
0

>  <SCORE.INTER.ROT>
8

>  <SCORE.INTER.SOLV>
23.0799

>  <SCORE.INTER.VDW>
-20.7997

>  <SCORE.INTER.norm>
-0.240752

>  <SCORE.INTRA>
-6.71386

>  <SCORE.INTRA.DIHEDRAL>
-6.49466

>  <SCORE.INTRA.DIHEDRAL.0>
11.6398

>  <SCORE.INTRA.POLAR>
0

>  <SCORE.INTRA.POLAR.0>
0

>  <SCORE.INTRA.REPUL>
0

>  <SCORE.INTRA.REPUL.0>
0

>  <SCORE.INTRA.SOLV>
0.698528

>  <SCORE.INTRA.SOLV.lig_0>
-81.722

>  <SCORE.INTRA.VDW>
-3.81579

>  <SCORE.INTRA.VDW.0>
1.12598

>  <SCORE.INTRA.norm>
-0.258225

>  <SCORE.RESTR>
0

>  <SCORE.RESTR.CAVITY>
0

>  <SCORE.RESTR.norm>
0

>  <SCORE.SYSTEM>
0

>  <SCORE.SYSTEM.CONST>
0

>  <SCORE.SYSTEM.DIHEDRAL>
0

>  <SCORE.SYSTEM.SOLV>
0

>  <SCORE.SYSTEM.norm>
0

>  <SCORE.heavy>
26

>  <SCORE.norm>
-0.498977

>  <RMSD>
7.229

$$$$
ligand
 OpenBabel11021811433D
libRbt.so/2013.1/901 2013/11/27
 26 27  0  0  0  0  0  0  0  0999 V2000
   24.8990   35.7269   70.8169 C   0  0  0  0  0  0  0  0  0  0  0  0
   19.3812   39.4487   65.6439 C   0  0  0  0  0  0  0  0  0  0  0  0
   22.3915   44.6298   65.7018 P   0  0  1  0  0  0  0  0  0  0  0  0
   23.8331   45.0064   63.5883 P   0  0  1  0  0  0  0  0  0  0  0  0
   21.3965   37.9899   66.9400 C   0  0  0  0  0  0  0  0  0  0  0  0
   21.8274   36.7690   69.0930 C   0  0  0  0  0  0  0  0  0  0  0  0
   22.3248   37.3915   67.9654 C   0  0  0  0  0  0  0  0  0  0  0  0
   23.7094   37.4520   67.7990 C   0  0  0  0  0  0  0  0  0  0  0  0
   24.2591   38.0668   66.6839 N   0  0  0  0  0  0  0  0  0  0  0  0
   24.4946   36.9164   68.7290 N   0  0  0  0  0  0  0  0  0  0  0  0
   23.9773   36.3275   69.7877 C   0  0  0  0  0  0  0  0  0  0  0  0
   22.6740   36.2537   69.9745 N   0  0  0  0  0  0  0  0  0  0  0  0
   23.2303   43.4580   66.0407 O   0  5  0  0  0  0  0  0  0  0  0  0
   24.7227   43.8597   64.1174 O   0  0  0  0  0  0  0  0  0  0  0  0
   21.7928   41.6999   67.7554 S   0  0  0  0  0  0  0  0  0  0  0  0
   22.2551   40.0289   67.8628 C   0  0  0  0  0  0  0  0  0  0  0  0
   23.0331   45.9553   66.3493 O   0  0  0  0  0  0  0  0  0  0  0  0
   23.8595   45.0090   61.9791 O   0  5  0  0  0  0  0  0  0  0  0  0
   21.3518   39.4438   67.1108 N   0  0  0  0  0  0  0  0  0  0  0  0
   22.3213   44.7938   64.1012 O   0  0  0  0  0  0  0  0  0  0  0  0
   24.3690   46.3572   64.1139 O   0  0  0  0  0  0  0  0  0  0  0  0
   20.4109   40.1352   66.5054 C   0  0  2  0  0  0  0  0  0  0  0  0
   20.3830   41.4810   66.6799 C   0  0  2  0  0  0  0  0  0  0  0  0
   19.4312   42.5052   66.1197 C   0  0  0  0  0  0  0  0  0  0  0  0
   20.2182   43.5716   65.3545 C   0  0  0  0  0  0  0  0  0  0  0  0
   20.9053   44.4131   66.2828 O   0  0  0  0  0  0  0  0  0  0  0  0
  1 11  1  0  0  0  0
  3 13  1  1  0  0  0
  3 17  2  0  0  0  0
  3 20  1  0  0  0  0
  3 26  1  0  0  0  0
  4 14  1  1  0  0  0
  4 18  1  0  0  0  0
  4 21  2  0  0  0  0
  4 20  1  0  0  0  0
  5 19  1  0  0  0  0
  5  7  1  0  0  0  0
  6  7  2  0  0  0  0
  6 12  1  0  0  0  0
  7  8  1  0  0  0  0
  8  9  1  0  0  0  0
  8 10  2  0  0  0  0
 10 11  1  0  0  0  0
 11 12  2  0  0  0  0
 15 23  1  0  0  0  0
 15 16  1  0  0  0  0
 16 19  1  0  0  0  0
 19 22  1  0  0  0  0
 22  2  1  1  0  0  0
 22 23  1  0  0  0  0
 23 24  1  6  0  0  0
 24 25  1  0  0  0  0
 25 26  1  0  0  0  0
M  CHG  2  13  -1  18  -1
M  END
>  <CHROM.1>
-60.04677891,13.68332321,102.13676103,53.44627962,56.09956339,-73.22418142
136.29590217,-80.99451618,22.50124711,41.49041701,66.44104496,-1.57280714
0.07262778,-0.50676001

>  <Name>
ligand

>  <RI>
0

>  <Rbt.Current_Directory>
/home/itssahil/PROJECTS/Mol_Feturizer/New_Systems/rnas/2HOJ

>  <Rbt.Executable>
rbdock ($Id: //depot/dev/client3/rdock/2013.1/src/exe/rbdock.cxx#4 $)

>  <Rbt.Library>
libRbt.so (2013.1, Build901 2013/11/27)

>  <Rbt.Parameter_File>
/export/apps/rDock/src/rDock_2013.1_src/data/scripts/dock_solv.prm

>  <Rbt.Receptor>
prm/pocket_docking_7.prm

>  <SCORE>
-21.0893

>  <SCORE.INTER>
-21.0059

>  <SCORE.INTER.CONST>
1

>  <SCORE.INTER.POLAR>
-1.24373

>  <SCORE.INTER.ROT>
8

>  <SCORE.INTER.SOLV>
23.3215

>  <SCORE.INTER.VDW>
-26.5653

>  <SCORE.INTER.norm>
-0.807919

>  <SCORE.INTRA>
-0.0833557

>  <SCORE.INTRA.DIHEDRAL>
0.842208

>  <SCORE.INTRA.DIHEDRAL.0>
11.6398

>  <SCORE.INTRA.POLAR>
0

>  <SCORE.INTRA.POLAR.0>
0

>  <SCORE.INTRA.REPUL>
0

>  <SCORE.INTRA.REPUL.0>
0

>  <SCORE.INTRA.SOLV>
3.11549

>  <SCORE.INTRA.SOLV.lig_0>
-81.722

>  <SCORE.INTRA.VDW>
-2.06221

>  <SCORE.INTRA.VDW.0>
1.12598

>  <SCORE.INTRA.norm>
-0.00320599

>  <SCORE.RESTR>
0

>  <SCORE.RESTR.CAVITY>
0

>  <SCORE.RESTR.norm>
0

>  <SCORE.SYSTEM>
0

>  <SCORE.SYSTEM.CONST>
0

>  <SCORE.SYSTEM.DIHEDRAL>
0

>  <SCORE.SYSTEM.SOLV>
0

>  <SCORE.SYSTEM.norm>
0

>  <SCORE.heavy>
26

>  <SCORE.norm>
-0.811125

>  <RMSD>
7.252

$$$$
ligand
 OpenBabel11021811433D
libRbt.so/2013.1/901 2013/11/27
 26 27  0  0  0  0  0  0  0  0999 V2000
   29.2189   38.1218   68.0503 C   0  0  0  0  0  0  0  0  0  0  0  0
   21.9701   39.8689   68.7863 C   0  0  0  0  0  0  0  0  0  0  0  0
   23.6265   44.1166   66.8047 P   0  0  1  0  0  0  0  0  0  0  0  0
   24.9534   43.7480   64.6160 P   0  0  1  0  0  0  0  0  0  0  0  0
   23.5450   37.6505   68.1022 C   0  0  0  0  0  0  0  0  0  0  0  0
   25.6731   38.7159   67.2975 C   0  0  0  0  0  0  0  0  0  0  0  0
   25.0469   37.7741   68.0894 C   0  0  0  0  0  0  0  0  0  0  0  0
   25.8403   36.9393   68.8783 C   0  0  0  0  0  0  0  0  0  0  0  0
   25.2599   35.9768   69.6908 N   0  0  0  0  0  0  0  0  0  0  0  0
   27.1623   37.0768   68.8349 N   0  0  0  0  0  0  0  0  0  0  0  0
   27.7181   37.9924   68.0683 C   0  0  0  0  0  0  0  0  0  0  0  0
   26.9970   38.7960   67.3112 N   0  0  0  0  0  0  0  0  0  0  0  0
   23.7539   44.0443   68.2778 O   0  5  0  0  0  0  0  0  0  0  0  0
   24.6998   42.2246   64.5807 O   0  0  0  0  0  0  0  0  0  0  0  0
   22.3573   39.3923   64.9178 S   0  0  0  0  0  0  0  0  0  0  0  0
   23.2170   38.1547   65.7818 C   0  0  0  0  0  0  0  0  0  0  0  0
   22.7524   45.4062   66.4036 O   0  0  0  0  0  0  0  0  0  0  0  0
   23.7231   44.5145   63.9167 O   0  5  0  0  0  0  0  0  0  0  0  0
   22.9776   38.4744   67.0326 N   0  0  0  0  0  0  0  0  0  0  0  0
   25.0910   44.2343   66.1451 O   0  0  0  0  0  0  0  0  0  0  0  0
   26.2593   44.0694   63.8549 O   0  0  0  0  0  0  0  0  0  0  0  0
   22.2370   39.5155   67.3448 C   0  0  2  0  0  0  0  0  0  0  0  0
   21.7242   40.2697   66.3396 C   0  0  2  0  0  0  0  0  0  0  0  0
   20.8590   41.5010   66.4044 C   0  0  0  0  0  0  0  0  0  0  0  0
   21.6689   42.6668   66.9761 C   0  0  0  0  0  0  0  0  0  0  0  0
   22.9009   42.7855   66.2617 O   0  0  0  0  0  0  0  0  0  0  0  0
  1 11  1  0  0  0  0
  3 13  1  1  0  0  0
  3 17  2  0  0  0  0
  3 20  1  0  0  0  0
  3 26  1  0  0  0  0
  4 14  1  6  0  0  0
  4 18  1  0  0  0  0
  4 21  2  0  0  0  0
  4 20  1  0  0  0  0
  5 19  1  0  0  0  0
  5  7  1  0  0  0  0
  6  7  2  0  0  0  0
  6 12  1  0  0  0  0
  7  8  1  0  0  0  0
  8  9  1  0  0  0  0
  8 10  2  0  0  0  0
 10 11  1  0  0  0  0
 11 12  2  0  0  0  0
 15 23  1  0  0  0  0
 15 16  1  0  0  0  0
 16 19  1  0  0  0  0
 19 22  1  0  0  0  0
 22  2  1  1  0  0  0
 22 23  1  0  0  0  0
 23 24  1  6  0  0  0
 24 25  1  0  0  0  0
 25 26  1  0  0  0  0
M  CHG  2  13  -1  18  -1
M  END
>  <CHROM.1>
158.72433920,66.14598976,9.52809717,-70.01998140,-111.85911142,50.91643535
174.10539776,54.52929853,24.19151850,40.93854846,66.64533280,-1.29290968
-0.01469175,-0.38132530

>  <Name>
ligand

>  <RI>
0

>  <Rbt.Current_Directory>
/home/itssahil/PROJECTS/Mol_Feturizer/New_Systems/rnas/2HOJ

>  <Rbt.Executable>
rbdock ($Id: //depot/dev/client3/rdock/2013.1/src/exe/rbdock.cxx#4 $)

>  <Rbt.Library>
libRbt.so (2013.1, Build901 2013/11/27)

>  <Rbt.Parameter_File>
/export/apps/rDock/src/rDock_2013.1_src/data/scripts/dock_solv.prm

>  <Rbt.Receptor>
prm/pocket_docking_6.prm

>  <SCORE>
-11.0013

>  <SCORE.INTER>
-5.02594

>  <SCORE.INTER.CONST>
1

>  <SCORE.INTER.POLAR>
0

>  <SCORE.INTER.ROT>
8

>  <SCORE.INTER.SOLV>
20.3551

>  <SCORE.INTER.VDW>
-19.069

>  <SCORE.INTER.norm>
-0.193305

>  <SCORE.INTRA>
-5.97536

>  <SCORE.INTRA.DIHEDRAL>
-5.69125

>  <SCORE.INTRA.DIHEDRAL.0>
11.6398

>  <SCORE.INTRA.POLAR>
0

>  <SCORE.INTRA.POLAR.0>
0

>  <SCORE.INTRA.REPUL>
0

>  <SCORE.INTRA.REPUL.0>
0

>  <SCORE.INTRA.SOLV>
0.0826264

>  <SCORE.INTRA.SOLV.lig_0>
-81.722

>  <SCORE.INTRA.VDW>
-3.17104

>  <SCORE.INTRA.VDW.0>
1.12598

>  <SCORE.INTRA.norm>
-0.229821

>  <SCORE.RESTR>
0

>  <SCORE.RESTR.CAVITY>
0

>  <SCORE.RESTR.norm>
0

>  <SCORE.SYSTEM>
0

>  <SCORE.SYSTEM.CONST>
0

>  <SCORE.SYSTEM.DIHEDRAL>
0

>  <SCORE.SYSTEM.SOLV>
0

>  <SCORE.SYSTEM.norm>
0

>  <SCORE.heavy>
26

>  <SCORE.norm>
-0.423127

>  <RMSD>
7.253

$$$$
ligand
 OpenBabel11021811433D
libRbt.so/2013.1/901 2013/11/27
 26 27  0  0  0  0  0  0  0  0999 V2000
   21.6618   45.3598   66.9842 C   0  0  0  0  0  0  0  0  0  0  0  0
   28.1183   45.5173   61.6325 C   0  0  0  0  0  0  0  0  0  0  0  0
   32.8733   43.2808   65.4147 P   0  0  1  0  0  0  0  0  0  0  0  0
   35.1874   42.2459   64.9040 P   0  0  1  0  0  0  0  0  0  0  0  0
   25.8327   44.8966   63.1361 C   0  0  0  0  0  0  0  0  0  0  0  0
   24.0308   43.9085   64.5813 C   0  0  0  0  0  0  0  0  0  0  0  0
   24.7289   45.0207   64.1546 C   0  0  0  0  0  0  0  0  0  0  0  0
   24.3865   46.2632   64.6910 C   0  0  0  0  0  0  0  0  0  0  0  0
   25.0570   47.4108   64.2950 N   0  0  0  0  0  0  0  0  0  0  0  0
   23.4032   46.3311   65.5837 N   0  0  0  0  0  0  0  0  0  0  0  0
   22.7663   45.2435   65.9663 C   0  0  0  0  0  0  0  0  0  0  0  0
   23.0653   44.0553   65.4787 N   0  0  0  0  0  0  0  0  0  0  0  0
   32.3568   42.0095   64.8590 O   0  5  0  0  0  0  0  0  0  0  0  0
   34.5847   41.1582   63.9875 O   0  0  0  0  0  0  0  0  0  0  0  0
   28.8899   44.9129   65.4248 S   0  0  0  0  0  0  0  0  0  0  0  0
   27.1938   44.7226   65.1015 C   0  0  0  0  0  0  0  0  0  0  0  0
   33.0072   43.1535   67.0128 O   0  0  0  0  0  0  0  0  0  0  0  0
   36.7064   42.5409   64.4616 O   0  5  0  0  0  0  0  0  0  0  0  0
   27.1306   44.9598   63.8117 N   0  0  0  0  0  0  0  0  0  0  0  0
   34.3186   43.5961   64.7781 O   0  0  0  0  0  0  0  0  0  0  0  0
   35.1642   41.7545   66.3689 O   0  0  0  0  0  0  0  0  0  0  0  0
   28.2071   45.2488   63.1137 C   0  0  2  0  0  0  0  0  0  0  0  0
   29.4001   45.3074   63.7587 C   0  0  2  0  0  0  0  0  0  0  0  0
   30.7723   45.6153   63.2193 C   0  0  0  0  0  0  0  0  0  0  0  0
   31.7448   44.5072   63.6299 C   0  0  0  0  0  0  0  0  0  0  0  0
   31.8576   44.4771   65.0541 O   0  0  0  0  0  0  0  0  0  0  0  0
  1 11  1  0  0  0  0
  3 13  1  6  0  0  0
  3 17  2  0  0  0  0
  3 20  1  0  0  0  0
  3 26  1  0  0  0  0
  4 14  1  6  0  0  0
  4 18  1  0  0  0  0
  4 21  2  0  0  0  0
  4 20  1  0  0  0  0
  5 19  1  0  0  0  0
  5  7  1  0  0  0  0
  6  7  2  0  0  0  0
  6 12  1  0  0  0  0
  7  8  1  0  0  0  0
  8  9  1  0  0  0  0
  8 10  2  0  0  0  0
 10 11  1  0  0  0  0
 11 12  2  0  0  0  0
 15 23  1  0  0  0  0
 15 16  1  0  0  0  0
 16 19  1  0  0  0  0
 19 22  1  0  0  0  0
 22  2  1  1  0  0  0
 22 23  1  0  0  0  0
 23 24  1  6  0  0  0
 24 25  1  0  0  0  0
 25 26  1  0  0  0  0
M  CHG  2  13  -1  18  -1
M  END
>  <CHROM.1>
-48.46206382,19.26437396,-102.05764425,67.18805137,52.34520924,-63.19356818
179.17821315,-57.87408312,29.60427909,44.18316135,64.76433968,3.00335497
0.22983618,-1.04028960

>  <Name>
ligand

>  <RI>
0

>  <Rbt.Current_Directory>
/home/itssahil/PROJECTS/Mol_Feturizer/New_Systems/rnas/2HOJ

>  <Rbt.Executable>
rbdock ($Id: //depot/dev/client3/rdock/2013.1/src/exe/rbdock.cxx#4 $)

>  <Rbt.Library>
libRbt.so (2013.1, Build901 2013/11/27)

>  <Rbt.Parameter_File>
/export/apps/rDock/src/rDock_2013.1_src/data/scripts/dock_solv.prm

>  <Rbt.Receptor>
prm/pocket_docking_8.prm

>  <SCORE>
-7.6067

>  <SCORE.INTER>
-3.26739

>  <SCORE.INTER.CONST>
1

>  <SCORE.INTER.POLAR>
0

>  <SCORE.INTER.ROT>
8

>  <SCORE.INTER.SOLV>
17.4317

>  <SCORE.INTER.VDW>
-16.9221

>  <SCORE.INTER.norm>
-0.125669

>  <SCORE.INTRA>
-4.34175

>  <SCORE.INTRA.DIHEDRAL>
-6.15714

>  <SCORE.INTRA.DIHEDRAL.0>
11.6398

>  <SCORE.INTRA.POLAR>
0

>  <SCORE.INTRA.POLAR.0>
0

>  <SCORE.INTRA.REPUL>
0

>  <SCORE.INTRA.REPUL.0>
0

>  <SCORE.INTRA.SOLV>
2.3672

>  <SCORE.INTRA.SOLV.lig_0>
-81.722

>  <SCORE.INTRA.VDW>
-2.44678

>  <SCORE.INTRA.VDW.0>
1.12598

>  <SCORE.INTRA.norm>
-0.16699

>  <SCORE.RESTR>
0.0024406

>  <SCORE.RESTR.CAVITY>
0.0024406

>  <SCORE.RESTR.norm>
9.38692e-05

>  <SCORE.SYSTEM>
0

>  <SCORE.SYSTEM.CONST>
0

>  <SCORE.SYSTEM.DIHEDRAL>
0

>  <SCORE.SYSTEM.SOLV>
0

>  <SCORE.SYSTEM.norm>
0

>  <SCORE.heavy>
26

>  <SCORE.norm>
-0.292565

>  <RMSD>
7.266

$$$$
ligand
 OpenBabel11021811433D
libRbt.so/2013.1/901 2013/11/27
 26 27  0  0  0  0  0  0  0  0999 V2000
   21.1780   42.3927   66.8217 C   0  0  0  0  0  0  0  0  0  0  0  0
   27.0054   38.4333   68.8589 C   0  0  0  0  0  0  0  0  0  0  0  0
   25.1167   35.3945   74.6197 P   0  0  1  0  0  0  0  0  0  0  0  0
   23.7986   34.7708   76.7551 P   0  0  1  0  0  0  0  0  0  0  0  0
   24.7935   38.0093   67.1864 C   0  0  0  0  0  0  0  0  0  0  0  0
   24.0047   40.2945   67.8702 C   0  0  0  0  0  0  0  0  0  0  0  0
   23.8357   39.1688   67.0889 C   0  0  0  0  0  0  0  0  0  0  0  0
   22.7551   39.1320   66.2058 C   0  0  0  0  0  0  0  0  0  0  0  0
   22.5412   38.0241   65.3996 N   0  0  0  0  0  0  0  0  0  0  0  0
   21.9298   40.1734   66.1532 N   0  0  0  0  0  0  0  0  0  0  0  0
   22.1313   41.2299   66.9137 C   0  0  0  0  0  0  0  0  0  0  0  0
   23.1420   41.2957   67.7581 N   0  0  0  0  0  0  0  0  0  0  0  0
   26.2788   35.4909   75.5318 O   0  5  0  0  0  0  0  0  0  0  0  0
   24.1270   33.3165   76.3506 O   0  0  0  0  0  0  0  0  0  0  0  0
   24.1498   36.3760   70.5780 S   0  0  0  0  0  0  0  0  0  0  0  0
   23.7144   36.7959   68.9497 C   0  0  0  0  0  0  0  0  0  0  0  0
   25.0438   33.9131   73.9970 O   0  0  0  0  0  0  0  0  0  0  0  0
   24.9244   35.3146   77.7685 O   0  5  0  0  0  0  0  0  0  0  0  0
   24.7681   37.4676   68.5468 N   0  0  0  0  0  0  0  0  0  0  0  0
   23.7648   35.6996   75.4399 O   0  0  0  0  0  0  0  0  0  0  0  0
   22.4184   34.8121   77.4491 O   0  0  0  0  0  0  0  0  0  0  0  0
   25.8017   37.6608   69.3368 C   0  0  2  0  0  0  0  0  0  0  0  0
   25.7574   37.1552   70.5957 C   0  0  2  0  0  0  0  0  0  0  0  0
   26.7803   37.2274   71.6991 C   0  0  0  0  0  0  0  0  0  0  0  0
   26.4854   36.1476   72.7427 C   0  0  0  0  0  0  0  0  0  0  0  0
   25.2754   36.4697   73.4314 O   0  0  0  0  0  0  0  0  0  0  0  0
  1 11  1  0  0  0  0
  3 13  1  1  0  0  0
  3 17  2  0  0  0  0
  3 20  1  0  0  0  0
  3 26  1  0  0  0  0
  4 14  1  6  0  0  0
  4 18  1  0  0  0  0
  4 21  2  0  0  0  0
  4 20  1  0  0  0  0
  5 19  1  0  0  0  0
  5  7  1  0  0  0  0
  6  7  2  0  0  0  0
  6 12  1  0  0  0  0
  7  8  1  0  0  0  0
  8  9  1  0  0  0  0
  8 10  2  0  0  0  0
 10 11  1  0  0  0  0
 11 12  2  0  0  0  0
 15 23  1  0  0  0  0
 15 16  1  0  0  0  0
 16 19  1  0  0  0  0
 19 22  1  0  0  0  0
 22  2  1  1  0  0  0
 22 23  1  0  0  0  0
 23 24  1  6  0  0  0
 24 25  1  0  0  0  0
 25 26  1  0  0  0  0
M  CHG  2  13  -1  18  -1
M  END
>  <CHROM.1>
-50.15759407,71.61176593,60.93793145,-49.46382876,18.19729619,-68.71506247
-173.59270809,60.13900887,24.31448143,37.04876733,71.53384193,1.70725934
0.42426575,-1.13618844

>  <Name>
ligand

>  <RI>
0

>  <Rbt.Current_Directory>
/home/itssahil/PROJECTS/Mol_Feturizer/New_Systems/rnas/2HOJ

>  <Rbt.Executable>
rbdock ($Id: //depot/dev/client3/rdock/2013.1/src/exe/rbdock.cxx#4 $)

>  <Rbt.Library>
libRbt.so (2013.1, Build901 2013/11/27)

>  <Rbt.Parameter_File>
/export/apps/rDock/src/rDock_2013.1_src/data/scripts/dock_solv.prm

>  <Rbt.Receptor>
prm/blind_docking_100.prm

>  <SCORE>
-14.7421

>  <SCORE.INTER>
-9.0259

>  <SCORE.INTER.CONST>
1

>  <SCORE.INTER.POLAR>
0

>  <SCORE.INTER.ROT>
8

>  <SCORE.INTER.SOLV>
12.598

>  <SCORE.INTER.VDW>
-19.1499

>  <SCORE.INTER.norm>
-0.34715

>  <SCORE.INTRA>
-5.71618

>  <SCORE.INTRA.DIHEDRAL>
-6.12087

>  <SCORE.INTRA.DIHEDRAL.0>
11.6398

>  <SCORE.INTRA.POLAR>
0

>  <SCORE.INTRA.POLAR.0>
0

>  <SCORE.INTRA.REPUL>
0

>  <SCORE.INTRA.REPUL.0>
0

>  <SCORE.INTRA.SOLV>
1.08562

>  <SCORE.INTRA.SOLV.lig_0>
-81.722

>  <SCORE.INTRA.VDW>
-3.19855

>  <SCORE.INTRA.VDW.0>
1.12598

>  <SCORE.INTRA.norm>
-0.219853

>  <SCORE.RESTR>
0

>  <SCORE.RESTR.CAVITY>
0

>  <SCORE.RESTR.norm>
0

>  <SCORE.SYSTEM>
0

>  <SCORE.SYSTEM.CONST>
0

>  <SCORE.SYSTEM.DIHEDRAL>
0

>  <SCORE.SYSTEM.SOLV>
0

>  <SCORE.SYSTEM.norm>
0

>  <SCORE.heavy>
26

>  <SCORE.norm>
-0.567003

>  <RMSD>
7.337

$$$$
ligand
 OpenBabel11021811433D
libRbt.so/2013.1/901 2013/11/27
 26 27  0  0  0  0  0  0  0  0999 V2000
   29.3744   36.8713   63.7513 C   0  0  0  0  0  0  0  0  0  0  0  0
   23.7209   39.0081   68.1881 C   0  0  0  0  0  0  0  0  0  0  0  0
   23.2854   34.7119   71.4356 P   0  0  1  0  0  0  0  0  0  0  0  0
   25.5270   35.1529   72.6471 P   0  0  1  0  0  0  0  0  0  0  0  0
   24.5542   39.3260   65.5284 C   0  0  0  0  0  0  0  0  0  0  0  0
   25.9261   37.3053   64.9399 C   0  0  0  0  0  0  0  0  0  0  0  0
   25.8307   38.6776   65.0580 C   0  0  0  0  0  0  0  0  0  0  0  0
   26.9467   39.4494   64.7301 C   0  0  0  0  0  0  0  0  0  0  0  0
   26.9023   40.8318   64.8322 N   0  0  0  0  0  0  0  0  0  0  0  0
   28.0560   38.8389   64.3238 N   0  0  0  0  0  0  0  0  0  0  0  0
   28.1018   37.5265   64.2209 C   0  0  0  0  0  0  0  0  0  0  0  0
   27.0654   36.7691   64.5230 N   0  0  0  0  0  0  0  0  0  0  0  0
   24.1279   33.8983   70.5302 O   0  5  0  0  0  0  0  0  0  0  0  0
   25.1565   33.8735   73.4296 O   0  0  0  0  0  0  0  0  0  0  0  0
   21.9961   36.4972   65.7259 S   0  0  0  0  0  0  0  0  0  0  0  0
   23.0991   37.5361   64.8766 C   0  0  0  0  0  0  0  0  0  0  0  0
   22.6652   33.7705   72.5831 O   0  0  0  0  0  0  0  0  0  0  0  0
   26.4641   34.7665   71.3970 O   0  5  0  0  0  0  0  0  0  0  0  0
   23.5674   38.2907   65.8436 N   0  0  0  0  0  0  0  0  0  0  0  0
   24.1841   35.8638   72.1133 O   0  0  0  0  0  0  0  0  0  0  0  0
   26.2867   36.1236   73.5790 O   0  0  0  0  0  0  0  0  0  0  0  0
   23.1725   38.1343   67.0883 C   0  0  2  0  0  0  0  0  0  0  0  0
   22.2537   37.1728   67.3597 C   0  0  2  0  0  0  0  0  0  0  0  0
   21.6285   36.7815   68.6730 C   0  0  0  0  0  0  0  0  0  0  0  0
   22.7046   36.2217   69.6062 C   0  0  0  0  0  0  0  0  0  0  0  0
   22.0919   35.3906   70.5940 O   0  0  0  0  0  0  0  0  0  0  0  0
  1 11  1  0  0  0  0
  3 13  1  6  0  0  0
  3 17  2  0  0  0  0
  3 20  1  0  0  0  0
  3 26  1  0  0  0  0
  4 14  1  1  0  0  0
  4 18  1  0  0  0  0
  4 21  2  0  0  0  0
  4 20  1  0  0  0  0
  5 19  1  0  0  0  0
  5  7  1  0  0  0  0
  6  7  2  0  0  0  0
  6 12  1  0  0  0  0
  7  8  1  0  0  0  0
  8  9  1  0  0  0  0
  8 10  2  0  0  0  0
 10 11  1  0  0  0  0
 11 12  2  0  0  0  0
 15 23  1  0  0  0  0
 15 16  1  0  0  0  0
 16 19  1  0  0  0  0
 19 22  1  0  0  0  0
 22  2  1  6  0  0  0
 22 23  1  0  0  0  0
 23 24  1  1  0  0  0
 24 25  1  0  0  0  0
 25 26  1  0  0  0  0
M  CHG  2  13  -1  18  -1
M  END
>  <CHROM.1>
-47.42854053,-65.75029764,1.87710474,-47.52826813,115.03781512,-157.40556102
173.97471409,-60.57000696,24.63088674,36.60231537,68.42468898,-1.34657436
0.03846416,2.00091538

>  <Name>
ligand

>  <RI>
0

>  <Rbt.Current_Directory>
/home/itssahil/PROJECTS/Mol_Feturizer/New_Systems/rnas/2HOJ

>  <Rbt.Executable>
rbdock ($Id: //depot/dev/client3/rdock/2013.1/src/exe/rbdock.cxx#4 $)

>  <Rbt.Library>
libRbt.so (2013.1, Build901 2013/11/27)

>  <Rbt.Parameter_File>
/export/apps/rDock/src/rDock_2013.1_src/data/scripts/dock_solv.prm

>  <Rbt.Receptor>
prm/pocket_docking_8.prm

>  <SCORE>
-19.0973

>  <SCORE.INTER>
-15.1489

>  <SCORE.INTER.CONST>
1

>  <SCORE.INTER.POLAR>
0

>  <SCORE.INTER.ROT>
8

>  <SCORE.INTER.SOLV>
12.6072

>  <SCORE.INTER.VDW>
-23.235

>  <SCORE.INTER.norm>
-0.582651

>  <SCORE.INTRA>
-3.94838

>  <SCORE.INTRA.DIHEDRAL>
-4.67927

>  <SCORE.INTRA.DIHEDRAL.0>
11.6398

>  <SCORE.INTRA.POLAR>
0

>  <SCORE.INTRA.POLAR.0>
0

>  <SCORE.INTRA.REPUL>
0

>  <SCORE.INTRA.REPUL.0>
0

>  <SCORE.INTRA.SOLV>
0.782589

>  <SCORE.INTRA.SOLV.lig_0>
-81.722

>  <SCORE.INTRA.VDW>
-2.00004

>  <SCORE.INTRA.VDW.0>
1.12598

>  <SCORE.INTRA.norm>
-0.151861

>  <SCORE.RESTR>
0

>  <SCORE.RESTR.CAVITY>
0

>  <SCORE.RESTR.norm>
0

>  <SCORE.SYSTEM>
0

>  <SCORE.SYSTEM.CONST>
0

>  <SCORE.SYSTEM.DIHEDRAL>
0

>  <SCORE.SYSTEM.SOLV>
0

>  <SCORE.SYSTEM.norm>
0

>  <SCORE.heavy>
26

>  <SCORE.norm>
-0.734512

>  <RMSD>
7.346

$$$$
ligand
 OpenBabel11021811433D
libRbt.so/2013.1/901 2013/11/27
 26 27  0  0  0  0  0  0  0  0999 V2000
   27.0698   40.8645   60.7386 C   0  0  0  0  0  0  0  0  0  0  0  0
   23.0627   44.7339   64.5385 C   0  0  0  0  0  0  0  0  0  0  0  0
   20.3619   39.5523   66.5300 P   0  0  1  0  0  0  0  0  0  0  0  0
   22.5575   38.2999   65.9842 P   0  0  1  0  0  0  0  0  0  0  0  0
   25.8047   44.3939   65.0236 C   0  0  0  0  0  0  0  0  0  0  0  0
   26.1315   42.0923   64.0709 C   0  0  0  0  0  0  0  0  0  0  0  0
   26.1398   43.4608   63.8885 C   0  0  0  0  0  0  0  0  0  0  0  0
   26.4662   43.9584   62.6258 C   0  0  0  0  0  0  0  0  0  0  0  0
   26.4893   45.3252   62.3911 N   0  0  0  0  0  0  0  0  0  0  0  0
   26.7607   43.1023   61.6518 N   0  0  0  0  0  0  0  0  0  0  0  0
   26.7359   41.8032   61.8684 C   0  0  0  0  0  0  0  0  0  0  0  0
   26.4320   41.3013   63.0494 N   0  0  0  0  0  0  0  0  0  0  0  0
   18.9788   39.7893   66.0585 O   0  5  0  0  0  0  0  0  0  0  0  0
   23.5666   37.9327   64.8737 O   0  0  0  0  0  0  0  0  0  0  0  0
   23.8048   42.4931   67.6642 S   0  0  0  0  0  0  0  0  0  0  0  0
   25.2819   43.0306   66.9247 C   0  0  0  0  0  0  0  0  0  0  0  0
   20.3419   38.5001   67.7467 O   0  0  0  0  0  0  0  0  0  0  0  0
   23.2331   39.3504   66.9991 O   0  5  0  0  0  0  0  0  0  0  0  0
   24.8409   43.7490   65.9180 N   0  0  0  0  0  0  0  0  0  0  0  0
   21.2461   38.9594   65.3216 O   0  0  0  0  0  0  0  0  0  0  0  0
   22.1562   37.0232   66.7568 O   0  0  0  0  0  0  0  0  0  0  0  0
   23.5535   43.9045   65.6983 C   0  0  2  0  0  0  0  0  0  0  0  0
   22.6759   43.2950   66.5353 C   0  0  2  0  0  0  0  0  0  0  0  0
   21.1697   43.2972   66.5193 C   0  0  0  0  0  0  0  0  0  0  0  0
   20.6602   41.9297   66.0584 C   0  0  0  0  0  0  0  0  0  0  0  0
   21.0044   40.9413   67.0312 O   0  0  0  0  0  0  0  0  0  0  0  0
  1 11  1  0  0  0  0
  3 13  1  6  0  0  0
  3 17  2  0  0  0  0
  3 20  1  0  0  0  0
  3 26  1  0  0  0  0
  4 14  1  6  0  0  0
  4 18  1  0  0  0  0
  4 21  2  0  0  0  0
  4 20  1  0  0  0  0
  5 19  1  0  0  0  0
  5  7  1  0  0  0  0
  6  7  2  0  0  0  0
  6 12  1  0  0  0  0
  7  8  1  0  0  0  0
  8  9  1  0  0  0  0
  8 10  2  0  0  0  0
 10 11  1  0  0  0  0
 11 12  2  0  0  0  0
 15 23  1  0  0  0  0
 15 16  1  0  0  0  0
 16 19  1  0  0  0  0
 19 22  1  0  0  0  0
 22  2  1  6  0  0  0
 22 23  1  0  0  0  0
 23 24  1  1  0  0  0
 24 25  1  0  0  0  0
 25 26  1  0  0  0  0
M  CHG  2  13  -1  18  -1
M  END
>  <CHROM.1>
-162.54630353,90.08033829,-31.19589239,-170.13425528,-72.79365377,66.06222359
176.55704586,-44.02179971,23.41408264,41.33893328,65.35090120,-0.42883559
-0.71284195,-2.88438127

>  <Name>
ligand

>  <RI>
0

>  <Rbt.Current_Directory>
/home/itssahil/PROJECTS/Mol_Feturizer/New_Systems/rnas/2HOJ

>  <Rbt.Executable>
rbdock ($Id: //depot/dev/client3/rdock/2013.1/src/exe/rbdock.cxx#4 $)

>  <Rbt.Library>
libRbt.so (2013.1, Build901 2013/11/27)

>  <Rbt.Parameter_File>
/export/apps/rDock/src/rDock_2013.1_src/data/scripts/dock_solv.prm

>  <Rbt.Receptor>
prm/pocket_docking_7.prm

>  <SCORE>
-15.1045

>  <SCORE.INTER>
-10.4098

>  <SCORE.INTER.CONST>
1

>  <SCORE.INTER.POLAR>
0

>  <SCORE.INTER.ROT>
8

>  <SCORE.INTER.SOLV>
17.1111

>  <SCORE.INTER.VDW>
-21.5769

>  <SCORE.INTER.norm>
-0.400376

>  <SCORE.INTRA>
-4.69472

>  <SCORE.INTRA.DIHEDRAL>
-5.31398

>  <SCORE.INTRA.DIHEDRAL.0>
11.6398

>  <SCORE.INTRA.POLAR>
0

>  <SCORE.INTRA.POLAR.0>
0

>  <SCORE.INTRA.REPUL>
0

>  <SCORE.INTRA.REPUL.0>
0

>  <SCORE.INTRA.SOLV>
3.56839

>  <SCORE.INTRA.SOLV.lig_0>
-81.722

>  <SCORE.INTRA.VDW>
-3.82192

>  <SCORE.INTRA.VDW.0>
1.12598

>  <SCORE.INTRA.norm>
-0.180566

>  <SCORE.RESTR>
0

>  <SCORE.RESTR.CAVITY>
0

>  <SCORE.RESTR.norm>
0

>  <SCORE.SYSTEM>
0

>  <SCORE.SYSTEM.CONST>
0

>  <SCORE.SYSTEM.DIHEDRAL>
0

>  <SCORE.SYSTEM.SOLV>
0

>  <SCORE.SYSTEM.norm>
0

>  <SCORE.heavy>
26

>  <SCORE.norm>
-0.580942

>  <RMSD>
7.381

$$$$
ligand
 OpenBabel11021811433D
libRbt.so/2013.1/901 2013/11/27
 26 27  0  0  0  0  0  0  0  0999 V2000
   22.3045   32.9624   70.8855 C   0  0  0  0  0  0  0  0  0  0  0  0
   26.7947   39.7462   68.5274 C   0  0  0  0  0  0  0  0  0  0  0  0
   24.0187   43.3317   65.6568 P   0  0  1  0  0  0  0  0  0  0  0  0
   24.4047   45.4212   64.1831 P   0  0  1  0  0  0  0  0  0  0  0  0
   25.5442   37.4445   69.5314 C   0  0  0  0  0  0  0  0  0  0  0  0
   23.3253   36.3944   70.0658 C   0  0  0  0  0  0  0  0  0  0  0  0
   24.6879   36.2573   69.8899 C   0  0  0  0  0  0  0  0  0  0  0  0
   25.2523   34.9909   70.0521 C   0  0  0  0  0  0  0  0  0  0  0  0
   26.6161   34.8006   69.8869 N   0  0  0  0  0  0  0  0  0  0  0  0
   24.4633   33.9699   70.3735 N   0  0  0  0  0  0  0  0  0  0  0  0
   23.1668   34.1446   70.5272 C   0  0  0  0  0  0  0  0  0  0  0  0
   22.6029   35.3277   70.3813 N   0  0  0  0  0  0  0  0  0  0  0  0
   25.3579   43.6279   66.2139 O   0  5  0  0  0  0  0  0  0  0  0  0
   23.6131   46.1762   65.2739 O   0  0  0  0  0  0  0  0  0  0  0  0
   24.1965   38.1982   66.0384 S   0  0  0  0  0  0  0  0  0  0  0  0
   24.2776   37.2691   67.5039 C   0  0  0  0  0  0  0  0  0  0  0  0
   22.8928   44.0497   66.5538 O   0  0  0  0  0  0  0  0  0  0  0  0
   25.9782   45.4934   64.5133 O   0  5  0  0  0  0  0  0  0  0  0  0
   25.1801   37.9245   68.1965 N   0  0  0  0  0  0  0  0  0  0  0  0
   23.9330   43.8818   64.1456 O   0  0  0  0  0  0  0  0  0  0  0  0
   24.1369   46.0744   62.8085 O   0  0  0  0  0  0  0  0  0  0  0  0
   25.7608   39.0036   67.7190 C   0  0  2  0  0  0  0  0  0  0  0  0
   25.4137   39.4299   66.4780 C   0  0  2  0  0  0  0  0  0  0  0  0
   25.9127   40.6140   65.6919 C   0  0  0  0  0  0  0  0  0  0  0  0
   24.7802   41.1663   64.8233 C   0  0  0  0  0  0  0  0  0  0  0  0
   23.7747   41.7399   65.6611 O   0  0  0  0  0  0  0  0  0  0  0  0
  1 11  1  0  0  0  0
  3 13  1  1  0  0  0
  3 17  2  0  0  0  0
  3 20  1  0  0  0  0
  3 26  1  0  0  0  0
  4 14  1  1  0  0  0
  4 18  1  0  0  0  0
  4 21  2  0  0  0  0
  4 20  1  0  0  0  0
  5 19  1  0  0  0  0
  5  7  1  0  0  0  0
  6  7  2  0  0  0  0
  6 12  1  0  0  0  0
  7  8  1  0  0  0  0
  8  9  1  0  0  0  0
  8 10  2  0  0  0  0
 10 11  1  0  0  0  0
 11 12  2  0  0  0  0
 15 23  1  0  0  0  0
 15 16  1  0  0  0  0
 16 19  1  0  0  0  0
 19 22  1  0  0  0  0
 22  2  1  6  0  0  0
 22 23  1  0  0  0  0
 23 24  1  1  0  0  0
 24 25  1  0  0  0  0
 25 26  1  0  0  0  0
M  CHG  2  13  -1  18  -1
M  END
>  <CHROM.1>
-51.55743128,-3.45267880,-65.71453569,-51.26288269,32.82361720,67.85313141
99.57065113,-61.40370378,24.49994249,40.16104872,66.99481622,1.58262880,-0.06683898
2.64386567

>  <Name>
ligand

>  <RI>
0

>  <Rbt.Current_Directory>
/home/itssahil/PROJECTS/Mol_Feturizer/New_Systems/rnas/2HOJ

>  <Rbt.Executable>
rbdock ($Id: //depot/dev/client3/rdock/2013.1/src/exe/rbdock.cxx#4 $)

>  <Rbt.Library>
libRbt.so (2013.1, Build901 2013/11/27)

>  <Rbt.Parameter_File>
/export/apps/rDock/src/rDock_2013.1_src/data/scripts/dock_solv.prm

>  <Rbt.Receptor>
prm/pocket_docking_7.prm

>  <SCORE>
-7.4171

>  <SCORE.INTER>
-6.19264

>  <SCORE.INTER.CONST>
1

>  <SCORE.INTER.POLAR>
0

>  <SCORE.INTER.ROT>
8

>  <SCORE.INTER.SOLV>
15.983

>  <SCORE.INTER.VDW>
-18.3894

>  <SCORE.INTER.norm>
-0.238178

>  <SCORE.INTRA>
-1.22446

>  <SCORE.INTRA.DIHEDRAL>
-0.918973

>  <SCORE.INTRA.DIHEDRAL.0>
11.6398

>  <SCORE.INTRA.POLAR>
0

>  <SCORE.INTRA.POLAR.0>
0

>  <SCORE.INTRA.REPUL>
0

>  <SCORE.INTRA.REPUL.0>
0

>  <SCORE.INTRA.SOLV>
1.66121

>  <SCORE.INTRA.SOLV.lig_0>
-81.722

>  <SCORE.INTRA.VDW>
-1.59558

>  <SCORE.INTRA.VDW.0>
1.12598

>  <SCORE.INTRA.norm>
-0.0470947

>  <SCORE.RESTR>
0

>  <SCORE.RESTR.CAVITY>
0

>  <SCORE.RESTR.norm>
0

>  <SCORE.SYSTEM>
0

>  <SCORE.SYSTEM.CONST>
0

>  <SCORE.SYSTEM.DIHEDRAL>
0

>  <SCORE.SYSTEM.SOLV>
0

>  <SCORE.SYSTEM.norm>
0

>  <SCORE.heavy>
26

>  <SCORE.norm>
-0.285273

>  <RMSD>
7.488

$$$$
ligand
 OpenBabel11021811433D
libRbt.so/2013.1/901 2013/11/27
 26 27  0  0  0  0  0  0  0  0999 V2000
   27.9253   36.7047   64.9524 C   0  0  0  0  0  0  0  0  0  0  0  0
   25.1558   43.3019   65.0979 C   0  0  0  0  0  0  0  0  0  0  0  0
   21.5912   40.1814   67.4434 P   0  0  1  0  0  0  0  0  0  0  0  0
   22.6064   38.3062   65.9805 P   0  0  1  0  0  0  0  0  0  0  0  0
   27.4958   42.2385   66.2217 C   0  0  0  0  0  0  0  0  0  0  0  0
   26.8865   40.2263   64.8464 C   0  0  0  0  0  0  0  0  0  0  0  0
   27.6104   40.7736   65.8869 C   0  0  0  0  0  0  0  0  0  0  0  0
   28.4516   39.9355   66.6209 C   0  0  0  0  0  0  0  0  0  0  0  0
   29.1995   40.4363   67.6760 N   0  0  0  0  0  0  0  0  0  0  0  0
   28.5208   38.6476   66.2970 N   0  0  0  0  0  0  0  0  0  0  0  0
   27.8158   38.1681   65.2930 C   0  0  0  0  0  0  0  0  0  0  0  0
   27.0120   38.9330   64.5804 N   0  0  0  0  0  0  0  0  0  0  0  0
   20.3795   40.0657   66.6008 O   0  5  0  0  0  0  0  0  0  0  0  0
   22.2107   37.3508   67.1281 O   0  0  0  0  0  0  0  0  0  0  0  0
   24.8245   42.5682   68.9311 S   0  0  0  0  0  0  0  0  0  0  0  0
   26.4084   42.1465   68.3560 C   0  0  0  0  0  0  0  0  0  0  0  0
   21.4616   39.1968   68.7089 O   0  0  0  0  0  0  0  0  0  0  0  0
   21.4100   38.3816   64.9067 O   0  5  0  0  0  0  0  0  0  0  0  0
   26.3301   42.4535   67.0819 N   0  0  0  0  0  0  0  0  0  0  0  0
   22.8870   39.7754   66.5775 O   0  0  0  0  0  0  0  0  0  0  0  0
   23.8847   37.7790   65.2905 O   0  0  0  0  0  0  0  0  0  0  0  0
   25.2296   42.9530   66.5630 C   0  0  2  0  0  0  0  0  0  0  0  0
   24.1583   43.1403   67.3752 C   0  0  2  0  0  0  0  0  0  0  0  0
   22.7903   43.6832   67.0550 C   0  0  0  0  0  0  0  0  0  0  0  0
   21.8273   42.5232   66.7923 C   0  0  0  0  0  0  0  0  0  0  0  0
   21.7457   41.6996   67.9573 O   0  0  0  0  0  0  0  0  0  0  0  0
  1 11  1  0  0  0  0
  3 13  1  6  0  0  0
  3 17  2  0  0  0  0
  3 20  1  0  0  0  0
  3 26  1  0  0  0  0
  4 14  1  1  0  0  0
  4 18  1  0  0  0  0
  4 21  2  0  0  0  0
  4 20  1  0  0  0  0
  5 19  1  0  0  0  0
  5  7  1  0  0  0  0
  6  7  2  0  0  0  0
  6 12  1  0  0  0  0
  7  8  1  0  0  0  0
  8  9  1  0  0  0  0
  8 10  2  0  0  0  0
 10 11  1  0  0  0  0
 11 12  2  0  0  0  0
 15 23  1  0  0  0  0
 15 16  1  0  0  0  0
 16 19  1  0  0  0  0
 19 22  1  0  0  0  0
 22  2  1  6  0  0  0
 22 23  1  0  0  0  0
 23 24  1  1  0  0  0
 24 25  1  0  0  0  0
 25 26  1  0  0  0  0
M  CHG  2  13  -1  18  -1
M  END
>  <CHROM.1>
-54.74588401,77.42087148,83.78270810,-52.77007962,-84.24285209,60.27210463
-144.36429139,-58.71845383,24.46912518,40.37492322,66.66641339,0.06490054
-0.13189428,-2.77372311

>  <Name>
ligand

>  <RI>
0

>  <Rbt.Current_Directory>
/home/itssahil/PROJECTS/Mol_Feturizer/New_Systems/rnas/2HOJ

>  <Rbt.Executable>
rbdock ($Id: //depot/dev/client3/rdock/2013.1/src/exe/rbdock.cxx#4 $)

>  <Rbt.Library>
libRbt.so (2013.1, Build901 2013/11/27)

>  <Rbt.Parameter_File>
/export/apps/rDock/src/rDock_2013.1_src/data/scripts/dock_solv.prm

>  <Rbt.Receptor>
prm/pocket_docking_5.prm

>  <SCORE>
-15.0424

>  <SCORE.INTER>
-10.5504

>  <SCORE.INTER.CONST>
1

>  <SCORE.INTER.POLAR>
-0.982522

>  <SCORE.INTER.ROT>
8

>  <SCORE.INTER.SOLV>
20.6474

>  <SCORE.INTER.VDW>
-19.5743

>  <SCORE.INTER.norm>
-0.405783

>  <SCORE.INTRA>
-4.49208

>  <SCORE.INTRA.DIHEDRAL>
-1.89239

>  <SCORE.INTRA.DIHEDRAL.0>
11.6398

>  <SCORE.INTRA.POLAR>
0

>  <SCORE.INTRA.POLAR.0>
0

>  <SCORE.INTRA.REPUL>
0

>  <SCORE.INTRA.REPUL.0>
0

>  <SCORE.INTRA.SOLV>
2.46494

>  <SCORE.INTRA.SOLV.lig_0>
-81.722

>  <SCORE.INTRA.VDW>
-4.77836

>  <SCORE.INTRA.VDW.0>
1.12598

>  <SCORE.INTRA.norm>
-0.172772

>  <SCORE.RESTR>
0

>  <SCORE.RESTR.CAVITY>
0

>  <SCORE.RESTR.norm>
0

>  <SCORE.SYSTEM>
0

>  <SCORE.SYSTEM.CONST>
0

>  <SCORE.SYSTEM.DIHEDRAL>
0

>  <SCORE.SYSTEM.SOLV>
0

>  <SCORE.SYSTEM.norm>
0

>  <SCORE.heavy>
26

>  <SCORE.norm>
-0.578555

>  <RMSD>
7.519

$$$$
ligand
 OpenBabel11021811433D
libRbt.so/2013.1/901 2013/11/27
 26 27  0  0  0  0  0  0  0  0999 V2000
   27.1465   40.8584   60.2839 C   0  0  0  0  0  0  0  0  0  0  0  0
   24.9772   42.6754   66.9650 C   0  0  0  0  0  0  0  0  0  0  0  0
   22.0066   39.6800   67.0876 P   0  0  1  0  0  0  0  0  0  0  0  0
   21.1344   38.0699   68.9135 P   0  0  1  0  0  0  0  0  0  0  0  0
   25.9771   44.1372   64.7895 C   0  0  0  0  0  0  0  0  0  0  0  0
   26.2093   41.8947   63.6809 C   0  0  0  0  0  0  0  0  0  0  0  0
   26.2870   43.2706   63.5961 C   0  0  0  0  0  0  0  0  0  0  0  0
   26.6596   43.8387   62.3766 C   0  0  0  0  0  0  0  0  0  0  0  0
   26.7529   45.2156   62.2398 N   0  0  0  0  0  0  0  0  0  0  0  0
   26.9297   43.0393   61.3488 N   0  0  0  0  0  0  0  0  0  0  0  0
   26.8383   41.7311   61.4725 C   0  0  0  0  0  0  0  0  0  0  0  0
   26.4894   41.1634   62.6104 N   0  0  0  0  0  0  0  0  0  0  0  0
   23.0841   40.2059   67.9559 O   0  5  0  0  0  0  0  0  0  0  0  0
   22.4857   38.3635   69.6019 O   0  0  0  0  0  0  0  0  0  0  0  0
   22.1774   44.4978   64.9200 S   0  0  0  0  0  0  0  0  0  0  0  0
   23.7433   44.8061   64.2342 C   0  0  0  0  0  0  0  0  0  0  0  0
   22.5216   38.3548   66.3350 O   0  0  0  0  0  0  0  0  0  0  0  0
   20.0018   37.8303   70.0315 O   0  5  0  0  0  0  0  0  0  0  0  0
   24.5336   44.1310   65.0364 N   0  0  0  0  0  0  0  0  0  0  0  0
   20.7202   39.3209   67.9876 O   0  0  0  0  0  0  0  0  0  0  0  0
   21.2683   36.8041   68.0372 O   0  0  0  0  0  0  0  0  0  0  0  0
   24.0566   43.4470   66.0535 C   0  0  2  0  0  0  0  0  0  0  0  0
   22.7164   43.4575   66.2688 C   0  0  2  0  0  0  0  0  0  0  0  0
   21.9084   42.7781   67.3432 C   0  0  0  0  0  0  0  0  0  0  0  0
   20.9010   41.8226   66.6996 C   0  0  0  0  0  0  0  0  0  0  0  0
   21.6024   40.7943   65.9976 O   0  0  0  0  0  0  0  0  0  0  0  0
  1 11  1  0  0  0  0
  3 13  1  1  0  0  0
  3 17  2  0  0  0  0
  3 20  1  0  0  0  0
  3 26  1  0  0  0  0
  4 14  1  1  0  0  0
  4 18  1  0  0  0  0
  4 21  2  0  0  0  0
  4 20  1  0  0  0  0
  5 19  1  0  0  0  0
  5  7  1  0  0  0  0
  6  7  2  0  0  0  0
  6 12  1  0  0  0  0
  7  8  1  0  0  0  0
  8  9  1  0  0  0  0
  8 10  2  0  0  0  0
 10 11  1  0  0  0  0
 11 12  2  0  0  0  0
 15 23  1  0  0  0  0
 15 16  1  0  0  0  0
 16 19  1  0  0  0  0
 19 22  1  0  0  0  0
 22  2  1  1  0  0  0
 22 23  1  0  0  0  0
 23 24  1  6  0  0  0
 24 25  1  0  0  0  0
 25 26  1  0  0  0  0
M  CHG  2  13  -1  18  -1
M  END
>  <CHROM.1>
-67.55901053,-73.96892676,-72.65897706,49.30613640,59.61464928,63.20568295
82.75553706,-71.73489178,23.45272263,41.37798177,65.76554034,-0.66781171
-0.80676299,2.99769785

>  <Name>
ligand

>  <RI>
0

>  <Rbt.Current_Directory>
/home/itssahil/PROJECTS/Mol_Feturizer/New_Systems/rnas/2HOJ

>  <Rbt.Executable>
rbdock ($Id: //depot/dev/client3/rdock/2013.1/src/exe/rbdock.cxx#4 $)

>  <Rbt.Library>
libRbt.so (2013.1, Build901 2013/11/27)

>  <Rbt.Parameter_File>
/export/apps/rDock/src/rDock_2013.1_src/data/scripts/dock_solv.prm

>  <Rbt.Receptor>
prm/pocket_docking_7.prm

>  <SCORE>
-11.8603

>  <SCORE.INTER>
-8.31801

>  <SCORE.INTER.CONST>
1

>  <SCORE.INTER.POLAR>
0

>  <SCORE.INTER.ROT>
8

>  <SCORE.INTER.SOLV>
14.3491

>  <SCORE.INTER.VDW>
-19.2617

>  <SCORE.INTER.norm>
-0.319923

>  <SCORE.INTRA>
-3.54887

>  <SCORE.INTRA.DIHEDRAL>
-3.68359

>  <SCORE.INTRA.DIHEDRAL.0>
11.6398

>  <SCORE.INTRA.POLAR>
0

>  <SCORE.INTRA.POLAR.0>
0

>  <SCORE.INTRA.REPUL>
0

>  <SCORE.INTRA.REPUL.0>
0

>  <SCORE.INTRA.SOLV>
3.02568

>  <SCORE.INTRA.SOLV.lig_0>
-81.722

>  <SCORE.INTRA.VDW>
-3.21991

>  <SCORE.INTRA.VDW.0>
1.12598

>  <SCORE.INTRA.norm>
-0.136495

>  <SCORE.RESTR>
0.00660764

>  <SCORE.RESTR.CAVITY>
0.00660764

>  <SCORE.RESTR.norm>
0.00025414

>  <SCORE.SYSTEM>
0

>  <SCORE.SYSTEM.CONST>
0

>  <SCORE.SYSTEM.DIHEDRAL>
0

>  <SCORE.SYSTEM.SOLV>
0

>  <SCORE.SYSTEM.norm>
0

>  <SCORE.heavy>
26

>  <SCORE.norm>
-0.456164

>  <RMSD>
7.546

$$$$
ligand
 OpenBabel11021811433D
libRbt.so/2013.1/901 2013/11/27
 26 27  0  0  0  0  0  0  0  0999 V2000
   28.7347   38.5076   66.6368 C   0  0  0  0  0  0  0  0  0  0  0  0
   21.3139   39.1221   68.4915 C   0  0  0  0  0  0  0  0  0  0  0  0
   21.2753   43.1516   66.5366 P   0  0  1  0  0  0  0  0  0  0  0  0
   23.4641   44.2094   65.6551 P   0  0  1  0  0  0  0  0  0  0  0  0
   23.3587   37.2569   68.0342 C   0  0  0  0  0  0  0  0  0  0  0  0
   25.0673   38.3283   66.5361 C   0  0  0  0  0  0  0  0  0  0  0  0
   24.7822   37.5871   67.6655 C   0  0  0  0  0  0  0  0  0  0  0  0
   25.8460   37.1517   68.4576 C   0  0  0  0  0  0  0  0  0  0  0  0
   25.6127   36.4037   69.6020 N   0  0  0  0  0  0  0  0  0  0  0  0
   27.0878   37.4597   68.0952 N   0  0  0  0  0  0  0  0  0  0  0  0
   27.3144   38.1735   67.0117 C   0  0  0  0  0  0  0  0  0  0  0  0
   26.3319   38.5997   66.2422 N   0  0  0  0  0  0  0  0  0  0  0  0
   21.5087   43.9760   67.7439 O   0  5  0  0  0  0  0  0  0  0  0  0
   23.7970   44.8000   67.0431 O   0  0  0  0  0  0  0  0  0  0  0  0
   21.3902   37.7967   64.8064 S   0  0  0  0  0  0  0  0  0  0  0  0
   22.6501   37.0650   65.7523 C   0  0  0  0  0  0  0  0  0  0  0  0
   20.3475   43.9632   65.5029 O   0  0  0  0  0  0  0  0  0  0  0  0
   24.8264   43.9629   64.8345 O   0  5  0  0  0  0  0  0  0  0  0  0
   22.4704   37.6208   66.9282 N   0  0  0  0  0  0  0  0  0  0  0  0
   22.6863   42.8112   65.8388 O   0  0  0  0  0  0  0  0  0  0  0  0
   22.5667   45.1984   64.8774 O   0  0  0  0  0  0  0  0  0  0  0  0
   21.5083   38.4935   67.1347 C   0  0  2  0  0  0  0  0  0  0  0  0
   20.6984   38.8216   66.0960 C   0  0  2  0  0  0  0  0  0  0  0  0
   19.5373   39.7798   66.0455 C   0  0  0  0  0  0  0  0  0  0  0  0
   20.0501   41.1911   65.7499 C   0  0  0  0  0  0  0  0  0  0  0  0
   20.5413   41.7808   66.9553 O   0  0  0  0  0  0  0  0  0  0  0  0
  1 11  1  0  0  0  0
  3 13  1  1  0  0  0
  3 17  2  0  0  0  0
  3 20  1  0  0  0  0
  3 26  1  0  0  0  0
  4 14  1  1  0  0  0
  4 18  1  0  0  0  0
  4 21  2  0  0  0  0
  4 20  1  0  0  0  0
  5 19  1  0  0  0  0
  5  7  1  0  0  0  0
  6  7  2  0  0  0  0
  6 12  1  0  0  0  0
  7  8  1  0  0  0  0
  8  9  1  0  0  0  0
  8 10  2  0  0  0  0
 10 11  1  0  0  0  0
 11 12  2  0  0  0  0
 15 23  1  0  0  0  0
 15 16  1  0  0  0  0
 16 19  1  0  0  0  0
 19 22  1  0  0  0  0
 22  2  1  6  0  0  0
 22 23  1  0  0  0  0
 23 24  1  1  0  0  0
 24 25  1  0  0  0  0
 25 26  1  0  0  0  0
M  CHG  2  13  -1  18  -1
M  END
>  <CHROM.1>
-51.43254141,59.41974471,9.97932255,65.26093468,-93.62597048,-80.79754529
171.06569116,165.96171889,23.06039575,40.50002950,66.54802246,-1.09143960
-0.12133243,-0.15879631

>  <Name>
ligand

>  <RI>
0

>  <Rbt.Current_Directory>
/home/itssahil/PROJECTS/Mol_Feturizer/New_Systems/rnas/2HOJ

>  <Rbt.Executable>
rbdock ($Id: //depot/dev/client3/rdock/2013.1/src/exe/rbdock.cxx#4 $)

>  <Rbt.Library>
libRbt.so (2013.1, Build901 2013/11/27)

>  <Rbt.Parameter_File>
/export/apps/rDock/src/rDock_2013.1_src/data/scripts/dock_solv.prm

>  <Rbt.Receptor>
prm/pocket_docking_5.prm

>  <SCORE>
-16.3696

>  <SCORE.INTER>
-12.1399

>  <SCORE.INTER.CONST>
1

>  <SCORE.INTER.POLAR>
0

>  <SCORE.INTER.ROT>
8

>  <SCORE.INTER.SOLV>
21.3609

>  <SCORE.INTER.VDW>
-24.1469

>  <SCORE.INTER.norm>
-0.46692

>  <SCORE.INTRA>
-4.22967

>  <SCORE.INTRA.DIHEDRAL>
-4.48001

>  <SCORE.INTRA.DIHEDRAL.0>
11.6398

>  <SCORE.INTRA.POLAR>
0

>  <SCORE.INTRA.POLAR.0>
0

>  <SCORE.INTRA.REPUL>
0

>  <SCORE.INTRA.REPUL.0>
0

>  <SCORE.INTRA.SOLV>
1.0801

>  <SCORE.INTRA.SOLV.lig_0>
-81.722

>  <SCORE.INTRA.VDW>
-2.52972

>  <SCORE.INTRA.VDW.0>
1.12598

>  <SCORE.INTRA.norm>
-0.16268

>  <SCORE.RESTR>
0

>  <SCORE.RESTR.CAVITY>
0

>  <SCORE.RESTR.norm>
0

>  <SCORE.SYSTEM>
0

>  <SCORE.SYSTEM.CONST>
0

>  <SCORE.SYSTEM.DIHEDRAL>
0

>  <SCORE.SYSTEM.SOLV>
0

>  <SCORE.SYSTEM.norm>
0

>  <SCORE.heavy>
26

>  <SCORE.norm>
-0.6296

>  <RMSD>
7.596

$$$$
ligand
 OpenBabel11021811433D
libRbt.so/2013.1/901 2013/11/27
 26 27  0  0  0  0  0  0  0  0999 V2000
   29.2533   38.3668   67.8857 C   0  0  0  0  0  0  0  0  0  0  0  0
   21.2400   38.7389   68.6571 C   0  0  0  0  0  0  0  0  0  0  0  0
   20.7292   43.1213   66.1118 P   0  0  1  0  0  0  0  0  0  0  0  0
   23.0993   43.5817   67.0378 P   0  0  1  0  0  0  0  0  0  0  0  0
   23.6823   37.3672   68.5050 C   0  0  0  0  0  0  0  0  0  0  0  0
   26.0929   36.6970   68.7320 C   0  0  0  0  0  0  0  0  0  0  0  0
   25.1566   37.6331   68.3405 C   0  0  0  0  0  0  0  0  0  0  0  0
   25.6101   38.8322   67.7882 C   0  0  0  0  0  0  0  0  0  0  0  0
   24.7100   39.8051   67.3797 N   0  0  0  0  0  0  0  0  0  0  0  0
   26.9192   39.0306   67.6646 N   0  0  0  0  0  0  0  0  0  0  0  0
   27.7780   38.1080   68.0470 C   0  0  0  0  0  0  0  0  0  0  0  0
   27.3821   36.9652   68.5726 N   0  0  0  0  0  0  0  0  0  0  0  0
   19.3163   43.4776   66.3730 O   0  5  0  0  0  0  0  0  0  0  0  0
   23.2095   45.0470   66.5613 O   0  0  0  0  0  0  0  0  0  0  0  0
   22.3472   37.9740   64.9787 S   0  0  0  0  0  0  0  0  0  0  0  0
   23.5125   37.3651   66.1139 C   0  0  0  0  0  0  0  0  0  0  0  0
   21.3328   44.1043   64.9906 O   0  0  0  0  0  0  0  0  0  0  0  0
   24.0754   43.3505   68.2964 O   0  5  0  0  0  0  0  0  0  0  0  0
   22.9826   37.7095   67.2647 N   0  0  0  0  0  0  0  0  0  0  0  0
   21.5798   43.2707   67.4712 O   0  0  0  0  0  0  0  0  0  0  0  0
   23.5098   42.6349   65.8875 O   0  0  0  0  0  0  0  0  0  0  0  0
   21.8364   38.3514   67.3275 C   0  0  2  0  0  0  0  0  0  0  0  0
   21.2055   38.6641   66.1670 C   0  0  2  0  0  0  0  0  0  0  0  0
   19.9035   39.3877   65.9435 C   0  0  0  0  0  0  0  0  0  0  0  0
   20.0124   40.8163   66.4813 C   0  0  0  0  0  0  0  0  0  0  0  0
   20.8128   41.5991   65.5932 O   0  0  0  0  0  0  0  0  0  0  0  0
  1 11  1  0  0  0  0
  3 13  1  1  0  0  0
  3 17  2  0  0  0  0
  3 20  1  0  0  0  0
  3 26  1  0  0  0  0
  4 14  1  6  0  0  0
  4 18  1  0  0  0  0
  4 21  2  0  0  0  0
  4 20  1  0  0  0  0
  5 19  1  0  0  0  0
  5  7  1  0  0  0  0
  6  7  2  0  0  0  0
  6 12  1  0  0  0  0
  7  8  1  0  0  0  0
  8  9  1  0  0  0  0
  8 10  2  0  0  0  0
 10 11  1  0  0  0  0
 11 12  2  0  0  0  0
 15 23  1  0  0  0  0
 15 16  1  0  0  0  0
 16 19  1  0  0  0  0
 19 22  1  0  0  0  0
 22  2  1  6  0  0  0
 22 23  1  0  0  0  0
 23 24  1  1  0  0  0
 24 25  1  0  0  0  0
 25 26  1  0  0  0  0
M  CHG  2  13  -1  18  -1
M  END
>  <CHROM.1>
-153.13883696,42.45166502,-132.95200613,75.15991614,-117.51890815,74.31877811
172.86512373,-47.58576984,23.12284444,40.42457109,66.92222350,-0.81511654
-0.29455629,-0.02053828

>  <Name>
ligand

>  <RI>
0

>  <Rbt.Current_Directory>
/home/itssahil/PROJECTS/Mol_Feturizer/New_Systems/rnas/2HOJ

>  <Rbt.Executable>
rbdock ($Id: //depot/dev/client3/rdock/2013.1/src/exe/rbdock.cxx#4 $)

>  <Rbt.Library>
libRbt.so (2013.1, Build901 2013/11/27)

>  <Rbt.Parameter_File>
/export/apps/rDock/src/rDock_2013.1_src/data/scripts/dock_solv.prm

>  <Rbt.Receptor>
prm/pocket_docking_5.prm

>  <SCORE>
-14.4847

>  <SCORE.INTER>
-13.1904

>  <SCORE.INTER.CONST>
1

>  <SCORE.INTER.POLAR>
0

>  <SCORE.INTER.ROT>
8

>  <SCORE.INTER.SOLV>
22.259

>  <SCORE.INTER.VDW>
-25.1466

>  <SCORE.INTER.norm>
-0.507324

>  <SCORE.INTRA>
-1.29424

>  <SCORE.INTRA.DIHEDRAL>
-4.48248

>  <SCORE.INTRA.DIHEDRAL.0>
11.6398

>  <SCORE.INTRA.POLAR>
0

>  <SCORE.INTRA.POLAR.0>
0

>  <SCORE.INTRA.REPUL>
0

>  <SCORE.INTRA.REPUL.0>
0

>  <SCORE.INTRA.SOLV>
7.24847

>  <SCORE.INTRA.SOLV.lig_0>
-81.722

>  <SCORE.INTRA.VDW>
-2.67724

>  <SCORE.INTRA.VDW.0>
1.12598

>  <SCORE.INTRA.norm>
-0.0497787

>  <SCORE.RESTR>
0

>  <SCORE.RESTR.CAVITY>
0

>  <SCORE.RESTR.norm>
0

>  <SCORE.SYSTEM>
0

>  <SCORE.SYSTEM.CONST>
0

>  <SCORE.SYSTEM.DIHEDRAL>
0

>  <SCORE.SYSTEM.SOLV>
0

>  <SCORE.SYSTEM.norm>
0

>  <SCORE.heavy>
26

>  <SCORE.norm>
-0.557103

>  <RMSD>
7.601

$$$$
ligand
 OpenBabel11021811433D
libRbt.so/2013.1/901 2013/11/27
 26 27  0  0  0  0  0  0  0  0999 V2000
   29.3357   36.8009   63.9368 C   0  0  0  0  0  0  0  0  0  0  0  0
   23.0794   39.8205   67.8625 C   0  0  0  0  0  0  0  0  0  0  0  0
   22.0540   34.5722   70.2755 P   0  0  1  0  0  0  0  0  0  0  0  0
   24.0481   34.2645   71.8928 P   0  0  1  0  0  0  0  0  0  0  0  0
   24.5910   39.5221   65.5182 C   0  0  0  0  0  0  0  0  0  0  0  0
   25.9246   37.4254   65.1477 C   0  0  0  0  0  0  0  0  0  0  0  0
   25.8475   38.8031   65.0994 C   0  0  0  0  0  0  0  0  0  0  0  0
   26.9631   39.5133   64.6524 C   0  0  0  0  0  0  0  0  0  0  0  0
   26.9367   40.8983   64.5858 N   0  0  0  0  0  0  0  0  0  0  0  0
   28.0545   38.8421   64.2966 N   0  0  0  0  0  0  0  0  0  0  0  0
   28.0831   37.5264   64.3539 C   0  0  0  0  0  0  0  0  0  0  0  0
   27.0466   36.8263   64.7717 N   0  0  0  0  0  0  0  0  0  0  0  0
   22.0369   33.1329   69.9299 O   0  5  0  0  0  0  0  0  0  0  0  0
   23.2327   34.7696   73.1037 O   0  0  0  0  0  0  0  0  0  0  0  0
   22.0385   36.6907   65.7499 S   0  0  0  0  0  0  0  0  0  0  0  0
   23.3393   37.5491   64.9828 C   0  0  0  0  0  0  0  0  0  0  0  0
   21.1586   34.8202   71.5887 O   0  0  0  0  0  0  0  0  0  0  0  0
   23.8153   32.6827   71.7096 O   0  5  0  0  0  0  0  0  0  0  0  0
   23.5438   38.5426   65.8164 N   0  0  0  0  0  0  0  0  0  0  0  0
   23.5691   35.0365   70.5630 O   0  0  0  0  0  0  0  0  0  0  0  0
   25.5497   34.5391   72.1337 O   0  0  0  0  0  0  0  0  0  0  0  0
   22.8315   38.6746   66.9142 C   0  0  2  0  0  0  0  0  0  0  0  0
   21.8623   37.7596   67.1707 C   0  0  2  0  0  0  0  0  0  0  0  0
   20.9070   37.6684   68.3317 C   0  0  0  0  0  0  0  0  0  0  0  0
   21.5209   36.8016   69.4334 C   0  0  0  0  0  0  0  0  0  0  0  0
   21.4565   35.4270   69.0485 O   0  0  0  0  0  0  0  0  0  0  0  0
  1 11  1  0  0  0  0
  3 13  1  6  0  0  0
  3 17  2  0  0  0  0
  3 20  1  0  0  0  0
  3 26  1  0  0  0  0
  4 14  1  1  0  0  0
  4 18  1  0  0  0  0
  4 21  2  0  0  0  0
  4 20  1  0  0  0  0
  5 19  1  0  0  0  0
  5  7  1  0  0  0  0
  6  7  2  0  0  0  0
  6 12  1  0  0  0  0
  7  8  1  0  0  0  0
  8  9  1  0  0  0  0
  8 10  2  0  0  0  0
 10 11  1  0  0  0  0
 11 12  2  0  0  0  0
 15 23  1  0  0  0  0
 15 16  1  0  0  0  0
 16 19  1  0  0  0  0
 19 22  1  0  0  0  0
 22  2  1  6  0  0  0
 22 23  1  0  0  0  0
 23 24  1  1  0  0  0
 24 25  1  0  0  0  0
 25 26  1  0  0  0  0
M  CHG  2  13  -1  18  -1
M  END
>  <CHROM.1>
-66.08020999,-46.10040093,-5.39515082,-66.57301354,88.42628642,-74.84962924
-177.45685351,-179.04961447,23.94367435,36.55233091,68.02654345,-1.13021578
-0.18696206,2.22603483

>  <Name>
ligand

>  <RI>
0

>  <Rbt.Current_Directory>
/home/itssahil/PROJECTS/Mol_Feturizer/New_Systems/rnas/2HOJ

>  <Rbt.Executable>
rbdock ($Id: //depot/dev/client3/rdock/2013.1/src/exe/rbdock.cxx#4 $)

>  <Rbt.Library>
libRbt.so (2013.1, Build901 2013/11/27)

>  <Rbt.Parameter_File>
/export/apps/rDock/src/rDock_2013.1_src/data/scripts/dock_solv.prm

>  <Rbt.Receptor>
prm/pocket_docking_8.prm

>  <SCORE>
-20.4597

>  <SCORE.INTER>
-17.0038

>  <SCORE.INTER.CONST>
1

>  <SCORE.INTER.POLAR>
0

>  <SCORE.INTER.ROT>
8

>  <SCORE.INTER.SOLV>
17.1547

>  <SCORE.INTER.VDW>
-25.9874

>  <SCORE.INTER.norm>
-0.653993

>  <SCORE.INTRA>
-3.45585

>  <SCORE.INTRA.DIHEDRAL>
-5.80774

>  <SCORE.INTRA.DIHEDRAL.0>
11.6398

>  <SCORE.INTRA.POLAR>
0

>  <SCORE.INTRA.POLAR.0>
0

>  <SCORE.INTRA.REPUL>
0

>  <SCORE.INTRA.REPUL.0>
0

>  <SCORE.INTRA.SOLV>
1.1158

>  <SCORE.INTRA.SOLV.lig_0>
-81.722

>  <SCORE.INTRA.VDW>
-1.10987

>  <SCORE.INTRA.VDW.0>
1.12598

>  <SCORE.INTRA.norm>
-0.132917

>  <SCORE.RESTR>
0

>  <SCORE.RESTR.CAVITY>
0

>  <SCORE.RESTR.norm>
0

>  <SCORE.SYSTEM>
0

>  <SCORE.SYSTEM.CONST>
0

>  <SCORE.SYSTEM.DIHEDRAL>
0

>  <SCORE.SYSTEM.SOLV>
0

>  <SCORE.SYSTEM.norm>
0

>  <SCORE.heavy>
26

>  <SCORE.norm>
-0.78691

>  <RMSD>
7.639

$$$$
ligand
 OpenBabel11021811433D
libRbt.so/2013.1/901 2013/11/27
 26 27  0  0  0  0  0  0  0  0999 V2000
   24.6504   34.6501   70.5844 C   0  0  0  0  0  0  0  0  0  0  0  0
   26.0074   39.7797   67.3188 C   0  0  0  0  0  0  0  0  0  0  0  0
   26.5743   43.6056   64.8845 P   0  0  1  0  0  0  0  0  0  0  0  0
   25.6809   45.0714   62.9506 P   0  0  1  0  0  0  0  0  0  0  0  0
   28.0472   38.9579   69.0605 C   0  0  0  0  0  0  0  0  0  0  0  0
   26.3499   37.9064   70.5854 C   0  0  0  0  0  0  0  0  0  0  0  0
   27.1486   37.8169   69.4627 C   0  0  0  0  0  0  0  0  0  0  0  0
   27.1024   36.6426   68.7093 C   0  0  0  0  0  0  0  0  0  0  0  0
   27.8856   36.5027   67.5733 N   0  0  0  0  0  0  0  0  0  0  0  0
   26.3002   35.6569   69.1005 N   0  0  0  0  0  0  0  0  0  0  0  0
   25.5511   35.7865   70.1762 C   0  0  0  0  0  0  0  0  0  0  0  0
   25.5718   36.8823   70.9094 N   0  0  0  0  0  0  0  0  0  0  0  0
   27.6053   42.9343   64.0611 O   0  5  0  0  0  0  0  0  0  0  0  0
   25.7215   46.4232   63.6969 O   0  0  0  0  0  0  0  0  0  0  0  0
   26.6618   42.3200   70.2276 S   0  0  0  0  0  0  0  0  0  0  0  0
   27.7277   40.9538   70.3490 C   0  0  0  0  0  0  0  0  0  0  0  0
   27.1594   44.9921   65.4528 O   0  0  0  0  0  0  0  0  0  0  0  0
   27.1304   44.7582   62.3253 O   0  5  0  0  0  0  0  0  0  0  0  0
   27.3665   40.2294   69.3153 N   0  0  0  0  0  0  0  0  0  0  0  0
   25.2749   43.9014   63.9802 O   0  0  0  0  0  0  0  0  0  0  0  0
   24.6351   45.1423   61.8151 O   0  0  0  0  0  0  0  0  0  0  0  0
   26.4099   40.6225   68.5027 C   0  0  2  0  0  0  0  0  0  0  0  0
   25.7876   41.8014   68.7583 C   0  0  2  0  0  0  0  0  0  0  0  0
   24.6731   42.4841   68.0096 C   0  0  0  0  0  0  0  0  0  0  0  0
   25.2635   43.3994   66.9346 C   0  0  0  0  0  0  0  0  0  0  0  0
   26.1636   42.6512   66.1148 O   0  0  0  0  0  0  0  0  0  0  0  0
  1 11  1  0  0  0  0
  3 13  1  6  0  0  0
  3 17  2  0  0  0  0
  3 20  1  0  0  0  0
  3 26  1  0  0  0  0
  4 14  1  1  0  0  0
  4 18  1  0  0  0  0
  4 21  2  0  0  0  0
  4 20  1  0  0  0  0
  5 19  1  0  0  0  0
  5  7  1  0  0  0  0
  6  7  2  0  0  0  0
  6 12  1  0  0  0  0
  7  8  1  0  0  0  0
  8  9  1  0  0  0  0
  8 10  2  0  0  0  0
 10 11  1  0  0  0  0
 11 12  2  0  0  0  0
 15 23  1  0  0  0  0
 15 16  1  0  0  0  0
 16 19  1  0  0  0  0
 19 22  1  0  0  0  0
 22  2  1  1  0  0  0
 22 23  1  0  0  0  0
 23 24  1  6  0  0  0
 24 25  1  0  0  0  0
 25 26  1  0  0  0  0
M  CHG  2  13  -1  18  -1
M  END
>  <CHROM.1>
-70.72619726,104.70190776,-37.99005497,-75.35401882,90.09822326,53.41362770
171.73424906,174.80992582,26.30718579,41.35832319,67.00922052,1.06332051
1.49774828,2.95967697

>  <Name>
ligand

>  <RI>
0

>  <Rbt.Current_Directory>
/home/itssahil/PROJECTS/Mol_Feturizer/New_Systems/rnas/2HOJ

>  <Rbt.Executable>
rbdock ($Id: //depot/dev/client3/rdock/2013.1/src/exe/rbdock.cxx#4 $)

>  <Rbt.Library>
libRbt.so (2013.1, Build901 2013/11/27)

>  <Rbt.Parameter_File>
/export/apps/rDock/src/rDock_2013.1_src/data/scripts/dock_solv.prm

>  <Rbt.Receptor>
prm/pocket_docking_8.prm

>  <SCORE>
-13.4703

>  <SCORE.INTER>
-8.39273

>  <SCORE.INTER.CONST>
1

>  <SCORE.INTER.POLAR>
-1.23241

>  <SCORE.INTER.ROT>
8

>  <SCORE.INTER.SOLV>
14.8863

>  <SCORE.INTER.VDW>
-15.3825

>  <SCORE.INTER.norm>
-0.322797

>  <SCORE.INTRA>
-5.07753

>  <SCORE.INTRA.DIHEDRAL>
-5.70085

>  <SCORE.INTRA.DIHEDRAL.0>
11.6398

>  <SCORE.INTRA.POLAR>
0

>  <SCORE.INTRA.POLAR.0>
0

>  <SCORE.INTRA.REPUL>
0

>  <SCORE.INTRA.REPUL.0>
0

>  <SCORE.INTRA.SOLV>
2.51224

>  <SCORE.INTRA.SOLV.lig_0>
-81.722

>  <SCORE.INTRA.VDW>
-3.48322

>  <SCORE.INTRA.VDW.0>
1.12598

>  <SCORE.INTRA.norm>
-0.19529

>  <SCORE.RESTR>
0

>  <SCORE.RESTR.CAVITY>
0

>  <SCORE.RESTR.norm>
0

>  <SCORE.SYSTEM>
0

>  <SCORE.SYSTEM.CONST>
0

>  <SCORE.SYSTEM.DIHEDRAL>
0

>  <SCORE.SYSTEM.SOLV>
0

>  <SCORE.SYSTEM.norm>
0

>  <SCORE.heavy>
26

>  <SCORE.norm>
-0.518087

>  <RMSD>
7.725

$$$$
ligand
 OpenBabel11021811433D
libRbt.so/2013.1/901 2013/11/27
 26 27  0  0  0  0  0  0  0  0999 V2000
   32.8633   44.6082   65.2995 C   0  0  0  0  0  0  0  0  0  0  0  0
   26.5963   40.9990   63.4917 C   0  0  0  0  0  0  0  0  0  0  0  0
   28.6491   37.3780   66.7264 P   0  0  1  0  0  0  0  0  0  0  0  0
   29.3557   36.2608   64.5039 P   0  0  1  0  0  0  0  0  0  0  0  0
   27.3688   43.6021   64.1962 C   0  0  0  0  0  0  0  0  0  0  0  0
   29.6700   42.8462   64.8631 C   0  0  0  0  0  0  0  0  0  0  0  0
   28.8229   43.8699   64.4880 C   0  0  0  0  0  0  0  0  0  0  0  0
   29.3477   45.1594   64.3856 C   0  0  0  0  0  0  0  0  0  0  0  0
   28.5383   46.2222   64.0130 N   0  0  0  0  0  0  0  0  0  0  0  0
   30.6348   45.3550   64.6563 N   0  0  0  0  0  0  0  0  0  0  0  0
   31.4087   44.3482   65.0063 C   0  0  0  0  0  0  0  0  0  0  0  0
   30.9439   43.1187   65.1125 N   0  0  0  0  0  0  0  0  0  0  0  0
   27.9972   36.1769   67.2956 O   0  5  0  0  0  0  0  0  0  0  0  0
   28.1569   35.3497   64.8488 O   0  0  0  0  0  0  0  0  0  0  0  0
   26.0174   41.8020   67.2814 S   0  0  0  0  0  0  0  0  0  0  0  0
   26.6953   43.1720   66.4562 C   0  0  0  0  0  0  0  0  0  0  0  0
   29.1272   38.3459   67.9191 O   0  0  0  0  0  0  0  0  0  0  0  0
   28.8792   37.4155   63.4891 O   0  5  0  0  0  0  0  0  0  0  0  0
   26.8172   42.7221   65.2287 N   0  0  0  0  0  0  0  0  0  0  0  0
   29.9260   36.9315   65.8525 O   0  0  0  0  0  0  0  0  0  0  0  0
   30.4674   35.4181   63.8391 O   0  0  0  0  0  0  0  0  0  0  0  0
   26.4513   41.5006   64.9063 C   0  0  2  0  0  0  0  0  0  0  0  0
   25.9468   40.6984   65.8782 C   0  0  2  0  0  0  0  0  0  0  0  0
   25.4596   39.2756   65.7958 C   0  0  0  0  0  0  0  0  0  0  0  0
   26.4196   38.3602   66.5591 C   0  0  0  0  0  0  0  0  0  0  0  0
   27.6040   38.1616   65.7847 O   0  0  0  0  0  0  0  0  0  0  0  0
  1 11  1  0  0  0  0
  3 13  1  1  0  0  0
  3 17  2  0  0  0  0
  3 20  1  0  0  0  0
  3 26  1  0  0  0  0
  4 14  1  1  0  0  0
  4 18  1  0  0  0  0
  4 21  2  0  0  0  0
  4 20  1  0  0  0  0
  5 19  1  0  0  0  0
  5  7  1  0  0  0  0
  6  7  2  0  0  0  0
  6 12  1  0  0  0  0
  7  8  1  0  0  0  0
  8  9  1  0  0  0  0
  8 10  2  0  0  0  0
 10 11  1  0  0  0  0
 11 12  2  0  0  0  0
 15 23  1  0  0  0  0
 15 16  1  0  0  0  0
 16 19  1  0  0  0  0
 19 22  1  0  0  0  0
 22  2  1  1  0  0  0
 22 23  1  0  0  0  0
 23 24  1  6  0  0  0
 24 25  1  0  0  0  0
 25 26  1  0  0  0  0
M  CHG  2  13  -1  18  -1
M  END
>  <CHROM.1>
72.72075521,67.47023190,44.51086048,-42.12636170,-68.88705569,-75.75818299
171.86670533,51.89929439,28.42956108,40.26429458,65.42378837,-1.49491939
-0.30942706,3.08433475

>  <Name>
ligand

>  <RI>
0

>  <Rbt.Current_Directory>
/home/itssahil/PROJECTS/Mol_Feturizer/New_Systems/rnas/2HOJ

>  <Rbt.Executable>
rbdock ($Id: //depot/dev/client3/rdock/2013.1/src/exe/rbdock.cxx#4 $)

>  <Rbt.Library>
libRbt.so (2013.1, Build901 2013/11/27)

>  <Rbt.Parameter_File>
/export/apps/rDock/src/rDock_2013.1_src/data/scripts/dock_solv.prm

>  <Rbt.Receptor>
prm/pocket_docking_7.prm

>  <SCORE>
-8.22181

>  <SCORE.INTER>
-2.11629

>  <SCORE.INTER.CONST>
1

>  <SCORE.INTER.POLAR>
0

>  <SCORE.INTER.ROT>
8

>  <SCORE.INTER.SOLV>
16.9598

>  <SCORE.INTER.VDW>
-15.9975

>  <SCORE.INTER.norm>
-0.0813956

>  <SCORE.INTRA>
-6.10552

>  <SCORE.INTRA.DIHEDRAL>
-4.43973

>  <SCORE.INTRA.DIHEDRAL.0>
11.6398

>  <SCORE.INTRA.POLAR>
0

>  <SCORE.INTRA.POLAR.0>
0

>  <SCORE.INTRA.REPUL>
0

>  <SCORE.INTRA.REPUL.0>
0

>  <SCORE.INTRA.SOLV>
-0.250022

>  <SCORE.INTRA.SOLV.lig_0>
-81.722

>  <SCORE.INTRA.VDW>
-3.76065

>  <SCORE.INTRA.VDW.0>
1.12598

>  <SCORE.INTRA.norm>
-0.234828

>  <SCORE.RESTR>
0

>  <SCORE.RESTR.CAVITY>
0

>  <SCORE.RESTR.norm>
0

>  <SCORE.SYSTEM>
0

>  <SCORE.SYSTEM.CONST>
0

>  <SCORE.SYSTEM.DIHEDRAL>
0

>  <SCORE.SYSTEM.SOLV>
0

>  <SCORE.SYSTEM.norm>
0

>  <SCORE.heavy>
26

>  <SCORE.norm>
-0.316223

>  <RMSD>
7.726

$$$$
ligand
 OpenBabel11021811433D
libRbt.so/2013.1/901 2013/11/27
 26 27  0  0  0  0  0  0  0  0999 V2000
   26.9277   40.8096   60.1769 C   0  0  0  0  0  0  0  0  0  0  0  0
   25.1480   42.3999   66.7069 C   0  0  0  0  0  0  0  0  0  0  0  0
   20.8296   39.0004   67.0290 P   0  0  1  0  0  0  0  0  0  0  0  0
   20.7806   37.8267   69.3327 P   0  0  1  0  0  0  0  0  0  0  0  0
   26.1144   44.1354   64.7262 C   0  0  0  0  0  0  0  0  0  0  0  0
   26.2851   41.8808   63.6311 C   0  0  0  0  0  0  0  0  0  0  0  0
   26.3300   43.2563   63.5212 C   0  0  0  0  0  0  0  0  0  0  0  0
   26.5796   43.8123   62.2653 C   0  0  0  0  0  0  0  0  0  0  0  0
   26.6352   45.1884   62.1021 N   0  0  0  0  0  0  0  0  0  0  0  0
   26.7694   43.0023   61.2279 N   0  0  0  0  0  0  0  0  0  0  0  0
   26.7133   41.6947   61.3769 C   0  0  0  0  0  0  0  0  0  0  0  0
   26.4798   41.1383   62.5495 N   0  0  0  0  0  0  0  0  0  0  0  0
   22.1307   38.3199   66.8398 O   0  5  0  0  0  0  0  0  0  0  0  0
   19.8708   37.2376   70.4334 O   0  0  0  0  0  0  0  0  0  0  0  0
   22.3569   44.6673   65.1543 S   0  0  0  0  0  0  0  0  0  0  0  0
   23.8986   44.9992   64.4261 C   0  0  0  0  0  0  0  0  0  0  0  0
   20.0957   39.1617   65.6066 O   0  0  0  0  0  0  0  0  0  0  0  0
   21.9458   36.7748   68.9778 O   0  5  0  0  0  0  0  0  0  0  0  0
   24.6890   44.1649   65.0610 N   0  0  0  0  0  0  0  0  0  0  0  0
   19.9048   38.1245   68.0144 O   0  0  0  0  0  0  0  0  0  0  0  0
   21.4124   39.1433   69.8381 O   0  0  0  0  0  0  0  0  0  0  0  0
   24.2276   43.3534   65.9875 C   0  0  2  0  0  0  0  0  0  0  0  0
   22.9045   43.3990   66.2872 C   0  0  2  0  0  0  0  0  0  0  0  0
   22.1167   42.6002   67.2922 C   0  0  0  0  0  0  0  0  0  0  0  0
   21.8714   41.1911   66.7477 C   0  0  0  0  0  0  0  0  0  0  0  0
   21.0727   40.4548   67.6762 O   0  0  0  0  0  0  0  0  0  0  0  0
  1 11  1  0  0  0  0
  3 13  1  6  0  0  0
  3 17  2  0  0  0  0
  3 20  1  0  0  0  0
  3 26  1  0  0  0  0
  4 14  1  1  0  0  0
  4 18  1  0  0  0  0
  4 21  2  0  0  0  0
  4 20  1  0  0  0  0
  5 19  1  0  0  0  0
  5  7  1  0  0  0  0
  6  7  2  0  0  0  0
  6 12  1  0  0  0  0
  7  8  1  0  0  0  0
  8  9  1  0  0  0  0
  8 10  2  0  0  0  0
 10 11  1  0  0  0  0
 11 12  2  0  0  0  0
 15 23  1  0  0  0  0
 15 16  1  0  0  0  0
 16 19  1  0  0  0  0
 19 22  1  0  0  0  0
 22  2  1  1  0  0  0
 22 23  1  0  0  0  0
 23 24  1  6  0  0  0
 24 25  1  0  0  0  0
 25 26  1  0  0  0  0
M  CHG  2  13  -1  18  -1
M  END
>  <CHROM.1>
52.09985415,-83.52415589,-75.62607283,168.76257321,103.15018267,-177.40837239
178.85829486,61.27427569,23.20252173,41.18650334,65.83468136,-0.54523332
-0.85414107,-3.10530022

>  <Name>
ligand

>  <RI>
0

>  <Rbt.Current_Directory>
/home/itssahil/PROJECTS/Mol_Feturizer/New_Systems/rnas/2HOJ

>  <Rbt.Executable>
rbdock ($Id: //depot/dev/client3/rdock/2013.1/src/exe/rbdock.cxx#4 $)

>  <Rbt.Library>
libRbt.so (2013.1, Build901 2013/11/27)

>  <Rbt.Parameter_File>
/export/apps/rDock/src/rDock_2013.1_src/data/scripts/dock_solv.prm

>  <Rbt.Receptor>
prm/pocket_docking_8.prm

>  <SCORE>
-15.7344

>  <SCORE.INTER>
-10.6219

>  <SCORE.INTER.CONST>
1

>  <SCORE.INTER.POLAR>
0

>  <SCORE.INTER.ROT>
8

>  <SCORE.INTER.SOLV>
16.3092

>  <SCORE.INTER.VDW>
-21.451

>  <SCORE.INTER.norm>
-0.408536

>  <SCORE.INTRA>
-5.11248

>  <SCORE.INTRA.DIHEDRAL>
-6.65113

>  <SCORE.INTRA.DIHEDRAL.0>
11.6398

>  <SCORE.INTRA.POLAR>
0

>  <SCORE.INTRA.POLAR.0>
0

>  <SCORE.INTRA.REPUL>
0

>  <SCORE.INTRA.REPUL.0>
0

>  <SCORE.INTRA.SOLV>
3.08778

>  <SCORE.INTRA.SOLV.lig_0>
-81.722

>  <SCORE.INTRA.VDW>
-3.3308

>  <SCORE.INTRA.VDW.0>
1.12598

>  <SCORE.INTRA.norm>
-0.196634

>  <SCORE.RESTR>
0

>  <SCORE.RESTR.CAVITY>
0

>  <SCORE.RESTR.norm>
0

>  <SCORE.SYSTEM>
0

>  <SCORE.SYSTEM.CONST>
0

>  <SCORE.SYSTEM.DIHEDRAL>
0

>  <SCORE.SYSTEM.SOLV>
0

>  <SCORE.SYSTEM.norm>
0

>  <SCORE.heavy>
26

>  <SCORE.norm>
-0.60517

>  <RMSD>
7.744

$$$$
ligand
 OpenBabel11021811433D
libRbt.so/2013.1/901 2013/11/27
 26 27  0  0  0  0  0  0  0  0999 V2000
   28.9561   39.4925   60.7159 C   0  0  0  0  0  0  0  0  0  0  0  0
   24.0367   44.1674   64.2956 C   0  0  0  0  0  0  0  0  0  0  0  0
   22.6084   40.2089   66.8560 P   0  0  1  0  0  0  0  0  0  0  0  0
   22.5049   38.3638   68.6647 P   0  0  1  0  0  0  0  0  0  0  0  0
   26.5660   44.0853   63.0850 C   0  0  0  0  0  0  0  0  0  0  0  0
   27.8588   41.9360   63.2294 C   0  0  0  0  0  0  0  0  0  0  0  0
   27.1982   42.8701   62.4566 C   0  0  0  0  0  0  0  0  0  0  0  0
   27.1305   42.6603   61.0782 C   0  0  0  0  0  0  0  0  0  0  0  0
   26.4789   43.5693   60.2580 N   0  0  0  0  0  0  0  0  0  0  0  0
   27.7055   41.5782   60.5618 N   0  0  0  0  0  0  0  0  0  0  0  0
   28.3218   40.7096   61.3370 C   0  0  0  0  0  0  0  0  0  0  0  0
   28.4036   40.8788   62.6422 N   0  0  0  0  0  0  0  0  0  0  0  0
   22.6902   39.2703   65.7141 O   0  5  0  0  0  0  0  0  0  0  0  0
   23.3036   37.5834   69.7321 O   0  0  0  0  0  0  0  0  0  0  0  0
   26.9401   43.5170   66.8430 S   0  0  0  0  0  0  0  0  0  0  0  0
   27.5603   43.6850   65.2291 C   0  0  0  0  0  0  0  0  0  0  0  0
   21.0662   40.4442   67.2487 O   0  0  0  0  0  0  0  0  0  0  0  0
   21.1491   38.9342   69.3179 O   0  5  0  0  0  0  0  0  0  0  0  0
   26.4661   43.8906   64.5331 N   0  0  0  0  0  0  0  0  0  0  0  0
   23.3952   39.5890   68.1170 O   0  0  0  0  0  0  0  0  0  0  0  0
   22.1539   37.4194   67.4930 O   0  0  0  0  0  0  0  0  0  0  0  0
   25.2841   43.9289   65.1086 C   0  0  2  0  0  0  0  0  0  0  0  0
   25.2115   43.7414   66.4510 C   0  0  2  0  0  0  0  0  0  0  0  0
   24.0091   43.7296   67.3581 C   0  0  0  0  0  0  0  0  0  0  0  0
   23.6119   42.2836   67.6636 C   0  0  0  0  0  0  0  0  0  0  0  0
   23.2788   41.6144   66.4457 O   0  0  0  0  0  0  0  0  0  0  0  0
  1 11  1  0  0  0  0
  3 13  1  6  0  0  0
  3 17  2  0  0  0  0
  3 20  1  0  0  0  0
  3 26  1  0  0  0  0
  4 14  1  1  0  0  0
  4 18  1  0  0  0  0
  4 21  2  0  0  0  0
  4 20  1  0  0  0  0
  5 19  1  0  0  0  0
  5  7  1  0  0  0  0
  6  7  2  0  0  0  0
  6 12  1  0  0  0  0
  7  8  1  0  0  0  0
  8  9  1  0  0  0  0
  8 10  2  0  0  0  0
 10 11  1  0  0  0  0
 11 12  2  0  0  0  0
 15 23  1  0  0  0  0
 15 16  1  0  0  0  0
 16 19  1  0  0  0  0
 19 22  1  0  0  0  0
 22  2  1  6  0  0  0
 22 23  1  0  0  0  0
 23 24  1  1  0  0  0
 24 25  1  0  0  0  0
 25 26  1  0  0  0  0
M  CHG  2  13  -1  18  -1
M  END
>  <CHROM.1>
-71.54912605,59.49126762,-14.93360559,171.13538398,-80.03880860,-60.69360839
-169.42610168,-159.44323427,24.87276303,41.33025727,65.51204642,-0.12661042
-0.92320678,-2.79371425

>  <Name>
ligand

>  <RI>
0

>  <Rbt.Current_Directory>
/home/itssahil/PROJECTS/Mol_Feturizer/New_Systems/rnas/2HOJ

>  <Rbt.Executable>
rbdock ($Id: //depot/dev/client3/rdock/2013.1/src/exe/rbdock.cxx#4 $)

>  <Rbt.Library>
libRbt.so (2013.1, Build901 2013/11/27)

>  <Rbt.Parameter_File>
/export/apps/rDock/src/rDock_2013.1_src/data/scripts/dock_solv.prm

>  <Rbt.Receptor>
prm/pocket_docking_8.prm

>  <SCORE>
-8.6214

>  <SCORE.INTER>
-5.76556

>  <SCORE.INTER.CONST>
1

>  <SCORE.INTER.POLAR>
-0.942124

>  <SCORE.INTER.ROT>
8

>  <SCORE.INTER.SOLV>
15.7246

>  <SCORE.INTER.VDW>
-14.8782

>  <SCORE.INTER.norm>
-0.221752

>  <SCORE.INTRA>
-2.85584

>  <SCORE.INTRA.DIHEDRAL>
-5.11477

>  <SCORE.INTRA.DIHEDRAL.0>
11.6398

>  <SCORE.INTRA.POLAR>
0

>  <SCORE.INTRA.POLAR.0>
0

>  <SCORE.INTRA.REPUL>
0

>  <SCORE.INTRA.REPUL.0>
0

>  <SCORE.INTRA.SOLV>
2.97312

>  <SCORE.INTRA.SOLV.lig_0>
-81.722

>  <SCORE.INTRA.VDW>
-1.78501

>  <SCORE.INTRA.VDW.0>
1.12598

>  <SCORE.INTRA.norm>
-0.10984

>  <SCORE.RESTR>
0

>  <SCORE.RESTR.CAVITY>
0

>  <SCORE.RESTR.norm>
0

>  <SCORE.SYSTEM>
0

>  <SCORE.SYSTEM.CONST>
0

>  <SCORE.SYSTEM.DIHEDRAL>
0

>  <SCORE.SYSTEM.SOLV>
0

>  <SCORE.SYSTEM.norm>
0

>  <SCORE.heavy>
26

>  <SCORE.norm>
-0.331592

>  <RMSD>
7.784

$$$$
ligand
 OpenBabel11021811433D
libRbt.so/2013.1/901 2013/11/27
 26 27  0  0  0  0  0  0  0  0999 V2000
   28.2742   40.3418   72.6728 C   0  0  0  0  0  0  0  0  0  0  0  0
   25.8308   38.2688   65.8770 C   0  0  0  0  0  0  0  0  0  0  0  0
   22.6547   42.1470   66.9664 P   0  0  1  0  0  0  0  0  0  0  0  0
   23.4139   43.6166   64.9788 P   0  0  1  0  0  0  0  0  0  0  0  0
   26.6363   37.0929   68.2932 C   0  0  0  0  0  0  0  0  0  0  0  0
   26.6532   37.6737   70.7374 C   0  0  0  0  0  0  0  0  0  0  0  0
   27.0705   37.9538   69.4515 C   0  0  0  0  0  0  0  0  0  0  0  0
   27.9053   39.0546   69.2514 C   0  0  0  0  0  0  0  0  0  0  0  0
   28.3517   39.3786   67.9789 N   0  0  0  0  0  0  0  0  0  0  0  0
   28.2619   39.7921   70.2989 N   0  0  0  0  0  0  0  0  0  0  0  0
   27.8442   39.4859   71.5101 C   0  0  0  0  0  0  0  0  0  0  0  0
   27.0549   38.4531   71.7325 N   0  0  0  0  0  0  0  0  0  0  0  0
   23.6700   42.9122   67.7248 O   0  5  0  0  0  0  0  0  0  0  0  0
   24.4028   42.4629   64.7007 O   0  0  0  0  0  0  0  0  0  0  0  0
   22.8268   37.3535   68.2180 S   0  0  0  0  0  0  0  0  0  0  0  0
   24.3389   36.9217   68.9559 C   0  0  0  0  0  0  0  0  0  0  0  0
   21.4274   41.7739   67.9372 O   0  0  0  0  0  0  0  0  0  0  0  0
   22.9666   44.2890   63.5867 O   0  5  0  0  0  0  0  0  0  0  0  0
   25.2071   37.2937   68.0439 N   0  0  0  0  0  0  0  0  0  0  0  0
   22.1165   43.0402   65.7392 O   0  0  0  0  0  0  0  0  0  0  0  0
   24.1001   44.6791   65.8665 O   0  0  0  0  0  0  0  0  0  0  0  0
   24.8213   37.8456   66.9141 C   0  0  2  0  0  0  0  0  0  0  0  0
   23.4923   38.0188   66.6993 C   0  0  2  0  0  0  0  0  0  0  0  0
   22.7777   38.6108   65.5128 C   0  0  0  0  0  0  0  0  0  0  0  0
   22.2491   40.0008   65.8742 C   0  0  0  0  0  0  0  0  0  0  0  0
   23.3170   40.7954   66.3940 O   0  0  0  0  0  0  0  0  0  0  0  0
  1 11  1  0  0  0  0
  3 13  1  1  0  0  0
  3 17  2  0  0  0  0
  3 20  1  0  0  0  0
  3 26  1  0  0  0  0
  4 14  1  6  0  0  0
  4 18  1  0  0  0  0
  4 21  2  0  0  0  0
  4 20  1  0  0  0  0
  5 19  1  0  0  0  0
  5  7  1  0  0  0  0
  6  7  2  0  0  0  0
  6 12  1  0  0  0  0
  7  8  1  0  0  0  0
  8  9  1  0  0  0  0
  8 10  2  0  0  0  0
 10 11  1  0  0  0  0
 11 12  2  0  0  0  0
 15 23  1  0  0  0  0
 15 16  1  0  0  0  0
 16 19  1  0  0  0  0
 19 22  1  0  0  0  0
 22  2  1  6  0  0  0
 22 23  1  0  0  0  0
 23 24  1  1  0  0  0
 24 25  1  0  0  0  0
 25 26  1  0  0  0  0
M  CHG  2  13  -1  18  -1
M  END
>  <CHROM.1>
49.03265189,-65.25657305,69.78151570,49.39537635,73.55451766,53.06576760
-171.21494467,170.43172432,24.58251746,40.24838459,67.54441183,-0.81777460
-0.70685354,-0.23265411

>  <Name>
ligand

>  <RI>
0

>  <Rbt.Current_Directory>
/home/itssahil/PROJECTS/Mol_Feturizer/New_Systems/rnas/2HOJ

>  <Rbt.Executable>
rbdock ($Id: //depot/dev/client3/rdock/2013.1/src/exe/rbdock.cxx#4 $)

>  <Rbt.Library>
libRbt.so (2013.1, Build901 2013/11/27)

>  <Rbt.Parameter_File>
/export/apps/rDock/src/rDock_2013.1_src/data/scripts/dock_solv.prm

>  <Rbt.Receptor>
prm/pocket_docking_6.prm

>  <SCORE>
-12.051

>  <SCORE.INTER>
-5.85551

>  <SCORE.INTER.CONST>
1

>  <SCORE.INTER.POLAR>
0

>  <SCORE.INTER.ROT>
8

>  <SCORE.INTER.SOLV>
18.0965

>  <SCORE.INTER.VDW>
-18.8692

>  <SCORE.INTER.norm>
-0.225212

>  <SCORE.INTRA>
-6.19553

>  <SCORE.INTRA.DIHEDRAL>
-5.48825

>  <SCORE.INTRA.DIHEDRAL.0>
11.6398

>  <SCORE.INTRA.POLAR>
0

>  <SCORE.INTRA.POLAR.0>
0

>  <SCORE.INTRA.REPUL>
0

>  <SCORE.INTRA.REPUL.0>
0

>  <SCORE.INTRA.SOLV>
0.912702

>  <SCORE.INTRA.SOLV.lig_0>
-81.722

>  <SCORE.INTRA.VDW>
-3.90776

>  <SCORE.INTRA.VDW.0>
1.12598

>  <SCORE.INTRA.norm>
-0.23829

>  <SCORE.RESTR>
0

>  <SCORE.RESTR.CAVITY>
0

>  <SCORE.RESTR.norm>
0

>  <SCORE.SYSTEM>
0

>  <SCORE.SYSTEM.CONST>
0

>  <SCORE.SYSTEM.DIHEDRAL>
0

>  <SCORE.SYSTEM.SOLV>
0

>  <SCORE.SYSTEM.norm>
0

>  <SCORE.heavy>
26

>  <SCORE.norm>
-0.463502

>  <RMSD>
7.842

$$$$
ligand
 OpenBabel11021811433D
libRbt.so/2013.1/901 2013/11/27
 26 27  0  0  0  0  0  0  0  0999 V2000
   31.2554   35.6900   64.9183 C   0  0  0  0  0  0  0  0  0  0  0  0
   25.5322   40.1572   67.7209 C   0  0  0  0  0  0  0  0  0  0  0  0
   24.4624   35.8089   70.2612 P   0  0  1  0  0  0  0  0  0  0  0  0
   26.0439   35.8923   72.3054 P   0  0  1  0  0  0  0  0  0  0  0  0
   27.0307   39.4696   65.4512 C   0  0  0  0  0  0  0  0  0  0  0  0
   28.3170   37.7532   64.1432 C   0  0  0  0  0  0  0  0  0  0  0  0
   28.1493   38.4695   65.3116 C   0  0  0  0  0  0  0  0  0  0  0  0
   29.0426   38.2439   66.3603 C   0  0  0  0  0  0  0  0  0  0  0  0
   28.9168   38.9374   67.5548 N   0  0  0  0  0  0  0  0  0  0  0  0
   30.0132   37.3493   66.1993 N   0  0  0  0  0  0  0  0  0  0  0  0
   30.1396   36.6913   65.0652 C   0  0  0  0  0  0  0  0  0  0  0  0
   29.3124   36.8810   64.0559 N   0  0  0  0  0  0  0  0  0  0  0  0
   25.2514   34.6113   69.8939 O   0  5  0  0  0  0  0  0  0  0  0  0
   27.1467   35.0062   71.6850 O   0  0  0  0  0  0  0  0  0  0  0  0
   23.8857   37.3078   65.5968 S   0  0  0  0  0  0  0  0  0  0  0  0
   25.3806   37.8272   64.8805 C   0  0  0  0  0  0  0  0  0  0  0  0
   23.1669   35.3613   71.1033 O   0  0  0  0  0  0  0  0  0  0  0  0
   26.6895   36.8472   73.4286 O   0  5  0  0  0  0  0  0  0  0  0  0
   25.7740   38.7641   65.7119 N   0  0  0  0  0  0  0  0  0  0  0  0
   25.3694   36.7950   71.1548 O   0  0  0  0  0  0  0  0  0  0  0  0
   24.9656   34.9938   72.9519 O   0  0  0  0  0  0  0  0  0  0  0  0
   25.0662   39.0796   66.7746 C   0  0  2  0  0  0  0  0  0  0  0  0
   23.9020   38.4180   66.9965 C   0  0  2  0  0  0  0  0  0  0  0  0
   22.9037   38.5735   68.1137 C   0  0  0  0  0  0  0  0  0  0  0  0
   23.3850   37.7985   69.3424 C   0  0  0  0  0  0  0  0  0  0  0  0
   23.9957   36.5760   68.9245 O   0  0  0  0  0  0  0  0  0  0  0  0
  1 11  1  0  0  0  0
  3 13  1  6  0  0  0
  3 17  2  0  0  0  0
  3 20  1  0  0  0  0
  3 26  1  0  0  0  0
  4 14  1  6  0  0  0
  4 18  1  0  0  0  0
  4 21  2  0  0  0  0
  4 20  1  0  0  0  0
  5 19  1  0  0  0  0
  5  7  1  0  0  0  0
  6  7  2  0  0  0  0
  6 12  1  0  0  0  0
  7  8  1  0  0  0  0
  8  9  1  0  0  0  0
  8 10  2  0  0  0  0
 10 11  1  0  0  0  0
 11 12  2  0  0  0  0
 15 23  1  0  0  0  0
 15 16  1  0  0  0  0
 16 19  1  0  0  0  0
 19 22  1  0  0  0  0
 22  2  1  6  0  0  0
 22 23  1  0  0  0  0
 23 24  1  1  0  0  0
 24 25  1  0  0  0  0
 25 26  1  0  0  0  0
M  CHG  2  13  -1  18  -1
M  END
>  <CHROM.1>
-48.72296490,-54.92902015,78.15081299,72.69792219,98.18533637,-38.02945886
-179.43109259,-173.11752088,26.10040559,37.09168239,68.27306954,-1.11406731
-0.20924687,1.96237402

>  <Name>
ligand

>  <RI>
0

>  <Rbt.Current_Directory>
/home/itssahil/PROJECTS/Mol_Feturizer/New_Systems/rnas/2HOJ

>  <Rbt.Executable>
rbdock ($Id: //depot/dev/client3/rdock/2013.1/src/exe/rbdock.cxx#4 $)

>  <Rbt.Library>
libRbt.so (2013.1, Build901 2013/11/27)

>  <Rbt.Parameter_File>
/export/apps/rDock/src/rDock_2013.1_src/data/scripts/dock_solv.prm

>  <Rbt.Receptor>
prm/pocket_docking_6.prm

>  <SCORE>
-12.1328

>  <SCORE.INTER>
-8.29204

>  <SCORE.INTER.CONST>
1

>  <SCORE.INTER.POLAR>
0

>  <SCORE.INTER.ROT>
8

>  <SCORE.INTER.SOLV>
15.4768

>  <SCORE.INTER.VDW>
-19.6203

>  <SCORE.INTER.norm>
-0.318925

>  <SCORE.INTRA>
-4.19559

>  <SCORE.INTRA.DIHEDRAL>
-4.74038

>  <SCORE.INTRA.DIHEDRAL.0>
11.6398

>  <SCORE.INTRA.POLAR>
0

>  <SCORE.INTRA.POLAR.0>
0

>  <SCORE.INTRA.REPUL>
0

>  <SCORE.INTRA.REPUL.0>
0

>  <SCORE.INTRA.SOLV>
2.64701

>  <SCORE.INTRA.SOLV.lig_0>
-81.722

>  <SCORE.INTRA.VDW>
-3.14891

>  <SCORE.INTRA.VDW.0>
1.12598

>  <SCORE.INTRA.norm>
-0.161369

>  <SCORE.RESTR>
0.35483

>  <SCORE.RESTR.CAVITY>
0.35483

>  <SCORE.RESTR.norm>
0.0136473

>  <SCORE.SYSTEM>
0

>  <SCORE.SYSTEM.CONST>
0

>  <SCORE.SYSTEM.DIHEDRAL>
0

>  <SCORE.SYSTEM.SOLV>
0

>  <SCORE.SYSTEM.norm>
0

>  <SCORE.heavy>
26

>  <SCORE.norm>
-0.466646

>  <RMSD>
7.847

$$$$
ligand
 OpenBabel11021811433D
libRbt.so/2013.1/901 2013/11/27
 26 27  0  0  0  0  0  0  0  0999 V2000
   28.6404   42.0717   65.1055 C   0  0  0  0  0  0  0  0  0  0  0  0
   22.8125   44.2628   63.8256 C   0  0  0  0  0  0  0  0  0  0  0  0
   20.5146   39.8041   65.9918 P   0  0  1  0  0  0  0  0  0  0  0  0
   22.2890   38.0320   65.3609 P   0  0  1  0  0  0  0  0  0  0  0  0
   24.6746   46.1423   64.7581 C   0  0  0  0  0  0  0  0  0  0  0  0
   25.6621   44.0959   65.8298 C   0  0  0  0  0  0  0  0  0  0  0  0
   25.7250   45.0655   64.8489 C   0  0  0  0  0  0  0  0  0  0  0  0
   26.7863   45.0229   63.9431 C   0  0  0  0  0  0  0  0  0  0  0  0
   26.8951   45.9741   62.9397 N   0  0  0  0  0  0  0  0  0  0  0  0
   27.6954   44.0595   64.0600 N   0  0  0  0  0  0  0  0  0  0  0  0
   27.5941   43.1512   65.0085 C   0  0  0  0  0  0  0  0  0  0  0  0
   26.6043   43.1637   65.8798 N   0  0  0  0  0  0  0  0  0  0  0  0
   19.5394   38.7833   65.5460 O   0  5  0  0  0  0  0  0  0  0  0  0
   23.7581   37.8182   64.9339 O   0  0  0  0  0  0  0  0  0  0  0  0
   21.9578   45.6341   67.3937 S   0  0  0  0  0  0  0  0  0  0  0  0
   23.4144   46.3594   66.7856 C   0  0  0  0  0  0  0  0  0  0  0  0
   20.7567   39.6601   67.5756 O   0  0  0  0  0  0  0  0  0  0  0  0
   22.1021   37.5753   66.8928 O   0  5  0  0  0  0  0  0  0  0  0  0
   23.5369   45.7884   65.6097 N   0  0  0  0  0  0  0  0  0  0  0  0
   21.9082   39.5899   65.2137 O   0  0  0  0  0  0  0  0  0  0  0  0
   21.3628   37.1888   64.4558 O   0  0  0  0  0  0  0  0  0  0  0  0
   22.6586   44.9090   65.1793 C   0  0  2  0  0  0  0  0  0  0  0  0
   21.6138   44.5903   65.9851 C   0  0  2  0  0  0  0  0  0  0  0  0
   20.4784   43.6279   65.7543 C   0  0  0  0  0  0  0  0  0  0  0  0
   20.9325   42.2077   66.0990 C   0  0  0  0  0  0  0  0  0  0  0  0
   19.9411   41.2734   65.6672 O   0  0  0  0  0  0  0  0  0  0  0  0
  1 11  1  0  0  0  0
  3 13  1  6  0  0  0
  3 17  2  0  0  0  0
  3 20  1  0  0  0  0
  3 26  1  0  0  0  0
  4 14  1  6  0  0  0
  4 18  1  0  0  0  0
  4 21  2  0  0  0  0
  4 20  1  0  0  0  0
  5 19  1  0  0  0  0
  5  7  1  0  0  0  0
  6  7  2  0  0  0  0
  6 12  1  0  0  0  0
  7  8  1  0  0  0  0
  8  9  1  0  0  0  0
  8 10  2  0  0  0  0
 10 11  1  0  0  0  0
 11 12  2  0  0  0  0
 15 23  1  0  0  0  0
 15 16  1  0  0  0  0
 16 19  1  0  0  0  0
 19 22  1  0  0  0  0
 22  2  1  1  0  0  0
 22 23  1  0  0  0  0
 23 24  1  6  0  0  0
 24 25  1  0  0  0  0
 25 26  1  0  0  0  0
M  CHG  2  13  -1  18  -1
M  END
>  <CHROM.1>
-50.02864194,101.13672000,-12.72339480,-166.76682748,-97.40874663,-170.18393397
177.19711621,-179.07485643,23.12073572,42.17975813,65.52494461,-0.94647141
-0.27674335,-3.06348762

>  <Name>
ligand

>  <RI>
0

>  <Rbt.Current_Directory>
/home/itssahil/PROJECTS/Mol_Feturizer/New_Systems/rnas/2HOJ

>  <Rbt.Executable>
rbdock ($Id: //depot/dev/client3/rdock/2013.1/src/exe/rbdock.cxx#4 $)

>  <Rbt.Library>
libRbt.so (2013.1, Build901 2013/11/27)

>  <Rbt.Parameter_File>
/export/apps/rDock/src/rDock_2013.1_src/data/scripts/dock_solv.prm

>  <Rbt.Receptor>
prm/pocket_docking_7.prm

>  <SCORE>
-16.8202

>  <SCORE.INTER>
-12.358

>  <SCORE.INTER.CONST>
1

>  <SCORE.INTER.POLAR>
0

>  <SCORE.INTER.ROT>
8

>  <SCORE.INTER.SOLV>
22.0252

>  <SCORE.INTER.VDW>
-24.5137

>  <SCORE.INTER.norm>
-0.475307

>  <SCORE.INTRA>
-4.46223

>  <SCORE.INTRA.DIHEDRAL>
-6.04061

>  <SCORE.INTRA.DIHEDRAL.0>
11.6398

>  <SCORE.INTRA.POLAR>
0

>  <SCORE.INTRA.POLAR.0>
0

>  <SCORE.INTRA.REPUL>
0

>  <SCORE.INTRA.REPUL.0>
0

>  <SCORE.INTRA.SOLV>
3.12986

>  <SCORE.INTRA.SOLV.lig_0>
-81.722

>  <SCORE.INTRA.VDW>
-3.00686

>  <SCORE.INTRA.VDW.0>
1.12598

>  <SCORE.INTRA.norm>
-0.171624

>  <SCORE.RESTR>
0

>  <SCORE.RESTR.CAVITY>
0

>  <SCORE.RESTR.norm>
0

>  <SCORE.SYSTEM>
0

>  <SCORE.SYSTEM.CONST>
0

>  <SCORE.SYSTEM.DIHEDRAL>
0

>  <SCORE.SYSTEM.SOLV>
0

>  <SCORE.SYSTEM.norm>
0

>  <SCORE.heavy>
26

>  <SCORE.norm>
-0.646932

>  <RMSD>
7.903

$$$$
ligand
 OpenBabel11021811433D
libRbt.so/2013.1/901 2013/11/27
 26 27  0  0  0  0  0  0  0  0999 V2000
   26.2739   37.2975   75.7355 C   0  0  0  0  0  0  0  0  0  0  0  0
   27.1315   36.6727   68.6788 C   0  0  0  0  0  0  0  0  0  0  0  0
   24.9536   42.5285   68.0001 P   0  0  1  0  0  0  0  0  0  0  0  0
   25.6579   43.5143   65.7155 P   0  0  1  0  0  0  0  0  0  0  0  0
   25.3690   35.3930   70.4466 C   0  0  0  0  0  0  0  0  0  0  0  0
   26.5039   36.9179   72.0892 C   0  0  0  0  0  0  0  0  0  0  0  0
   25.6076   35.8960   71.8470 C   0  0  0  0  0  0  0  0  0  0  0  0
   24.9276   35.3408   72.9324 C   0  0  0  0  0  0  0  0  0  0  0  0
   24.0173   34.3119   72.7422 N   0  0  0  0  0  0  0  0  0  0  0  0
   25.1699   35.8094   74.1530 N   0  0  0  0  0  0  0  0  0  0  0  0
   26.0303   36.7894   74.3384 C   0  0  0  0  0  0  0  0  0  0  0  0
   26.6889   37.3351   73.3346 N   0  0  0  0  0  0  0  0  0  0  0  0
   25.2651   42.4710   69.4462 O   0  5  0  0  0  0  0  0  0  0  0  0
   24.5318   44.5715   65.7405 O   0  0  0  0  0  0  0  0  0  0  0  0
   23.5014   38.1392   68.5609 S   0  0  0  0  0  0  0  0  0  0  0  0
   23.6076   36.8446   69.7142 C   0  0  0  0  0  0  0  0  0  0  0  0
   23.6037   43.3738   67.7744 O   0  0  0  0  0  0  0  0  0  0  0  0
   26.8825   44.0538   64.8215 O   0  5  0  0  0  0  0  0  0  0  0  0
   24.8670   36.4875   69.6130 N   0  0  0  0  0  0  0  0  0  0  0  0
   26.1690   43.2385   67.2177 O   0  0  0  0  0  0  0  0  0  0  0  0
   25.1164   42.2008   65.1076 O   0  0  0  0  0  0  0  0  0  0  0  0
   25.6873   37.0936   68.7825 C   0  0  2  0  0  0  0  0  0  0  0  0
   25.2021   38.1024   68.0148 C   0  0  2  0  0  0  0  0  0  0  0  0
   25.9032   38.9558   66.9906 C   0  0  0  0  0  0  0  0  0  0  0  0
   26.0252   40.3885   67.5144 C   0  0  0  0  0  0  0  0  0  0  0  0
   24.7531   41.0345   67.4335 O   0  0  0  0  0  0  0  0  0  0  0  0
  1 11  1  0  0  0  0
  3 13  1  1  0  0  0
  3 17  2  0  0  0  0
  3 20  1  0  0  0  0
  3 26  1  0  0  0  0
  4 14  1  1  0  0  0
  4 18  1  0  0  0  0
  4 21  2  0  0  0  0
  4 20  1  0  0  0  0
  5 19  1  0  0  0  0
  5  7  1  0  0  0  0
  6  7  2  0  0  0  0
  6 12  1  0  0  0  0
  7  8  1  0  0  0  0
  8  9  1  0  0  0  0
  8 10  2  0  0  0  0
 10 11  1  0  0  0  0
 11 12  2  0  0  0  0
 15 23  1  0  0  0  0
 15 16  1  0  0  0  0
 16 19  1  0  0  0  0
 19 22  1  0  0  0  0
 22  2  1  6  0  0  0
 22 23  1  0  0  0  0
 23 24  1  1  0  0  0
 24 25  1  0  0  0  0
 25 26  1  0  0  0  0
M  CHG  2  13  -1  18  -1
M  END
>  <CHROM.1>
-169.75199362,-77.82777885,-60.22178282,66.99685525,68.80021928,-74.92138035
179.90429865,-66.73118710,25.27901271,39.51418072,69.10583906,-1.52766058
-1.38949668,-0.68591850

>  <Name>
ligand

>  <RI>
0

>  <Rbt.Current_Directory>
/home/itssahil/PROJECTS/Mol_Feturizer/New_Systems/rnas/2HOJ

>  <Rbt.Executable>
rbdock ($Id: //depot/dev/client3/rdock/2013.1/src/exe/rbdock.cxx#4 $)

>  <Rbt.Library>
libRbt.so (2013.1, Build901 2013/11/27)

>  <Rbt.Parameter_File>
/export/apps/rDock/src/rDock_2013.1_src/data/scripts/dock_solv.prm

>  <Rbt.Receptor>
prm/pocket_docking_7.prm

>  <SCORE>
-14.6489

>  <SCORE.INTER>
-8.54105

>  <SCORE.INTER.CONST>
1

>  <SCORE.INTER.POLAR>
0

>  <SCORE.INTER.ROT>
8

>  <SCORE.INTER.SOLV>
14.7966

>  <SCORE.INTER.VDW>
-19.5596

>  <SCORE.INTER.norm>
-0.328502

>  <SCORE.INTRA>
-6.10887

>  <SCORE.INTRA.DIHEDRAL>
-5.39577

>  <SCORE.INTRA.DIHEDRAL.0>
11.6398

>  <SCORE.INTRA.POLAR>
0

>  <SCORE.INTRA.POLAR.0>
0

>  <SCORE.INTRA.REPUL>
0

>  <SCORE.INTRA.REPUL.0>
0

>  <SCORE.INTRA.SOLV>
1.16647

>  <SCORE.INTRA.SOLV.lig_0>
-81.722

>  <SCORE.INTRA.VDW>
-3.99422

>  <SCORE.INTRA.VDW.0>
1.12598

>  <SCORE.INTRA.norm>
-0.234957

>  <SCORE.RESTR>
0.00102851

>  <SCORE.RESTR.CAVITY>
0.00102851

>  <SCORE.RESTR.norm>
3.9558e-05

>  <SCORE.SYSTEM>
0

>  <SCORE.SYSTEM.CONST>
0

>  <SCORE.SYSTEM.DIHEDRAL>
0

>  <SCORE.SYSTEM.SOLV>
0

>  <SCORE.SYSTEM.norm>
0

>  <SCORE.heavy>
26

>  <SCORE.norm>
-0.563419

>  <RMSD>
7.960

$$$$
ligand
 OpenBabel11021811433D
libRbt.so/2013.1/901 2013/11/27
 26 27  0  0  0  0  0  0  0  0999 V2000
   27.2393   34.4168   69.1051 C   0  0  0  0  0  0  0  0  0  0  0  0
   24.6724   42.0959   68.3769 C   0  0  0  0  0  0  0  0  0  0  0  0
   20.0750   39.3974   66.5692 P   0  0  1  0  0  0  0  0  0  0  0  0
   21.2846   37.9759   68.3589 P   0  0  1  0  0  0  0  0  0  0  0  0
   26.4500   39.9529   68.0346 C   0  0  0  0  0  0  0  0  0  0  0  0
   25.6556   37.7230   68.8760 C   0  0  0  0  0  0  0  0  0  0  0  0
   26.6604   38.4877   68.3175 C   0  0  0  0  0  0  0  0  0  0  0  0
   27.8761   37.8690   68.0211 C   0  0  0  0  0  0  0  0  0  0  0  0
   28.9171   38.5933   67.4597 N   0  0  0  0  0  0  0  0  0  0  0  0
   28.0236   36.5752   68.2905 N   0  0  0  0  0  0  0  0  0  0  0  0
   27.0364   35.8819   68.8196 C   0  0  0  0  0  0  0  0  0  0  0  0
   25.8761   36.4365   69.1115 N   0  0  0  0  0  0  0  0  0  0  0  0
   20.8573   38.8101   65.4581 O   0  5  0  0  0  0  0  0  0  0  0  0
   22.2769   37.5749   67.2450 O   0  0  0  0  0  0  0  0  0  0  0  0
   23.7979   39.8512   65.2884 S   0  0  0  0  0  0  0  0  0  0  0  0
   25.2079   39.2527   66.1077 C   0  0  0  0  0  0  0  0  0  0  0  0
   18.6515   39.9026   66.0157 O   0  0  0  0  0  0  0  0  0  0  0  0
   21.8256   39.2903   69.1138 O   0  5  0  0  0  0  0  0  0  0  0  0
   25.3431   40.1142   67.0892 N   0  0  0  0  0  0  0  0  0  0  0  0
   19.8435   38.2836   67.7091 O   0  0  0  0  0  0  0  0  0  0  0  0
   21.1543   36.8171   69.3729 O   0  0  0  0  0  0  0  0  0  0  0  0
   24.5045   41.1155   67.2435 C   0  0  2  0  0  0  0  0  0  0  0  0
   23.4879   41.2511   66.3543 C   0  0  2  0  0  0  0  0  0  0  0  0
   22.3993   42.2899   66.2872 C   0  0  0  0  0  0  0  0  0  0  0  0
   21.0407   41.5999   66.1453 C   0  0  0  0  0  0  0  0  0  0  0  0
   20.8812   40.6432   67.1947 O   0  0  0  0  0  0  0  0  0  0  0  0
  1 11  1  0  0  0  0
  3 13  1  6  0  0  0
  3 17  2  0  0  0  0
  3 20  1  0  0  0  0
  3 26  1  0  0  0  0
  4 14  1  6  0  0  0
  4 18  1  0  0  0  0
  4 21  2  0  0  0  0
  4 20  1  0  0  0  0
  5 19  1  0  0  0  0
  5  7  1  0  0  0  0
  6  7  2  0  0  0  0
  6 12  1  0  0  0  0
  7  8  1  0  0  0  0
  8  9  1  0  0  0  0
  8 10  2  0  0  0  0
 10 11  1  0  0  0  0
 11 12  2  0  0  0  0
 15 23  1  0  0  0  0
 15 16  1  0  0  0  0
 16 19  1  0  0  0  0
 19 22  1  0  0  0  0
 22  2  1  6  0  0  0
 22 23  1  0  0  0  0
 23 24  1  1  0  0  0
 24 25  1  0  0  0  0
 25 26  1  0  0  0  0
M  CHG  2  13  -1  18  -1
M  END
>  <CHROM.1>
67.73223874,-38.25088224,-60.45256033,-54.84895103,49.71352272,53.76143927
-144.30277309,60.75956823,23.46566084,38.94654831,67.43219088,0.40259217
0.04940040,2.68737338

>  <Name>
ligand

>  <RI>
0

>  <Rbt.Current_Directory>
/home/itssahil/PROJECTS/Mol_Feturizer/New_Systems/rnas/2HOJ

>  <Rbt.Executable>
rbdock ($Id: //depot/dev/client3/rdock/2013.1/src/exe/rbdock.cxx#4 $)

>  <Rbt.Library>
libRbt.so (2013.1, Build901 2013/11/27)

>  <Rbt.Parameter_File>
/export/apps/rDock/src/rDock_2013.1_src/data/scripts/dock_solv.prm

>  <Rbt.Receptor>
prm/pocket_docking_6.prm

>  <SCORE>
-13.0037

>  <SCORE.INTER>
-7.64759

>  <SCORE.INTER.CONST>
1

>  <SCORE.INTER.POLAR>
0

>  <SCORE.INTER.ROT>
8

>  <SCORE.INTER.SOLV>
20.4229

>  <SCORE.INTER.VDW>
-20.8393

>  <SCORE.INTER.norm>
-0.294138

>  <SCORE.INTRA>
-5.35612

>  <SCORE.INTRA.DIHEDRAL>
-1.56417

>  <SCORE.INTRA.DIHEDRAL.0>
11.6398

>  <SCORE.INTRA.POLAR>
0

>  <SCORE.INTRA.POLAR.0>
0

>  <SCORE.INTRA.REPUL>
0

>  <SCORE.INTRA.REPUL.0>
0

>  <SCORE.INTRA.SOLV>
1.32966

>  <SCORE.INTRA.SOLV.lig_0>
-81.722

>  <SCORE.INTRA.VDW>
-5.23887

>  <SCORE.INTRA.VDW.0>
1.12598

>  <SCORE.INTRA.norm>
-0.206005

>  <SCORE.RESTR>
0

>  <SCORE.RESTR.CAVITY>
0

>  <SCORE.RESTR.norm>
0

>  <SCORE.SYSTEM>
0

>  <SCORE.SYSTEM.CONST>
0

>  <SCORE.SYSTEM.DIHEDRAL>
0

>  <SCORE.SYSTEM.SOLV>
0

>  <SCORE.SYSTEM.norm>
0

>  <SCORE.heavy>
26

>  <SCORE.norm>
-0.500143

>  <RMSD>
7.965

$$$$
ligand
 OpenBabel11021811433D
libRbt.so/2013.1/901 2013/11/27
 26 27  0  0  0  0  0  0  0  0999 V2000
   28.1425   40.4284   60.9682 C   0  0  0  0  0  0  0  0  0  0  0  0
   27.0581   43.5423   66.5200 C   0  0  0  0  0  0  0  0  0  0  0  0
   22.2480   39.7869   67.8120 P   0  0  1  0  0  0  0  0  0  0  0  0
   20.3122   40.2043   66.1491 P   0  0  1  0  0  0  0  0  0  0  0  0
   26.5150   44.8842   64.1171 C   0  0  0  0  0  0  0  0  0  0  0  0
   26.2407   42.5196   63.3139 C   0  0  0  0  0  0  0  0  0  0  0  0
   26.9470   43.7056   63.2832 C   0  0  0  0  0  0  0  0  0  0  0  0
   28.0713   43.7854   62.4597 C   0  0  0  0  0  0  0  0  0  0  0  0
   28.8151   44.9541   62.3937 N   0  0  0  0  0  0  0  0  0  0  0  0
   28.4225   42.7216   61.7432 N   0  0  0  0  0  0  0  0  0  0  0  0
   27.7168   41.6107   61.7991 C   0  0  0  0  0  0  0  0  0  0  0  0
   26.6501   41.5030   62.5669 N   0  0  0  0  0  0  0  0  0  0  0  0
   22.6428   39.1513   69.0894 O   0  5  0  0  0  0  0  0  0  0  0  0
   20.9080   39.2170   65.1212 O   0  0  0  0  0  0  0  0  0  0  0  0
   23.2323   44.1244   65.9148 S   0  0  0  0  0  0  0  0  0  0  0  0
   24.1706   44.7722   64.6044 C   0  0  0  0  0  0  0  0  0  0  0  0
   22.9635   39.0251   66.5891 O   0  0  0  0  0  0  0  0  0  0  0  0
   18.7164   40.2838   65.9563 O   0  5  0  0  0  0  0  0  0  0  0  0
   25.3974   44.4905   64.9779 N   0  0  0  0  0  0  0  0  0  0  0  0
   20.6494   39.6963   67.6397 O   0  0  0  0  0  0  0  0  0  0  0  0
   20.9271   41.6053   65.9323 O   0  0  0  0  0  0  0  0  0  0  0  0
   25.6435   43.8598   66.1055 C   0  0  2  0  0  0  0  0  0  0  0  0
   24.5948   43.5076   66.8920 C   0  0  2  0  0  0  0  0  0  0  0  0
   24.5828   42.7923   68.2176 C   0  0  0  0  0  0  0  0  0  0  0  0
   24.1134   41.3496   68.0171 C   0  0  0  0  0  0  0  0  0  0  0  0
   22.6982   41.3330   67.8192 O   0  0  0  0  0  0  0  0  0  0  0  0
  1 11  1  0  0  0  0
  3 13  1  1  0  0  0
  3 17  2  0  0  0  0
  3 20  1  0  0  0  0
  3 26  1  0  0  0  0
  4 14  1  6  0  0  0
  4 18  1  0  0  0  0
  4 21  2  0  0  0  0
  4 20  1  0  0  0  0
  5 19  1  0  0  0  0
  5  7  1  0  0  0  0
  6  7  2  0  0  0  0
  6 12  1  0  0  0  0
  7  8  1  0  0  0  0
  8  9  1  0  0  0  0
  8 10  2  0  0  0  0
 10 11  1  0  0  0  0
 11 12  2  0  0  0  0
 15 23  1  0  0  0  0
 15 16  1  0  0  0  0
 16 19  1  0  0  0  0
 19 22  1  0  0  0  0
 22  2  1  1  0  0  0
 22 23  1  0  0  0  0
 23 24  1  6  0  0  0
 24 25  1  0  0  0  0
 25 26  1  0  0  0  0
M  CHG  2  13  -1  18  -1
M  END
>  <CHROM.1>
-171.88582655,-98.05401563,5.54783793,65.65344395,74.46008044,-75.66998929
-172.63634672,58.24620714,24.08404434,41.91293328,65.48913448,0.06259899
-0.69192484,-2.38937132

>  <Name>
ligand

>  <RI>
0

>  <Rbt.Current_Directory>
/home/itssahil/PROJECTS/Mol_Feturizer/New_Systems/rnas/2HOJ

>  <Rbt.Executable>
rbdock ($Id: //depot/dev/client3/rdock/2013.1/src/exe/rbdock.cxx#4 $)

>  <Rbt.Library>
libRbt.so (2013.1, Build901 2013/11/27)

>  <Rbt.Parameter_File>
/export/apps/rDock/src/rDock_2013.1_src/data/scripts/dock_solv.prm

>  <Rbt.Receptor>
prm/pocket_docking_7.prm

>  <SCORE>
-10.9127

>  <SCORE.INTER>
-5.05305

>  <SCORE.INTER.CONST>
1

>  <SCORE.INTER.POLAR>
0

>  <SCORE.INTER.ROT>
8

>  <SCORE.INTER.SOLV>
17.0238

>  <SCORE.INTER.VDW>
-17.9766

>  <SCORE.INTER.norm>
-0.194348

>  <SCORE.INTRA>
-5.85987

>  <SCORE.INTRA.DIHEDRAL>
-5.26752

>  <SCORE.INTRA.DIHEDRAL.0>
11.6398

>  <SCORE.INTRA.POLAR>
0

>  <SCORE.INTRA.POLAR.0>
0

>  <SCORE.INTRA.REPUL>
0

>  <SCORE.INTRA.REPUL.0>
0

>  <SCORE.INTRA.SOLV>
0.927576

>  <SCORE.INTRA.SOLV.lig_0>
-81.722

>  <SCORE.INTRA.VDW>
-3.68989

>  <SCORE.INTRA.VDW.0>
1.12598

>  <SCORE.INTRA.norm>
-0.225379

>  <SCORE.RESTR>
0.000175775

>  <SCORE.RESTR.CAVITY>
0.000175775

>  <SCORE.RESTR.norm>
6.76058e-06

>  <SCORE.SYSTEM>
0

>  <SCORE.SYSTEM.CONST>
0

>  <SCORE.SYSTEM.DIHEDRAL>
0

>  <SCORE.SYSTEM.SOLV>
0

>  <SCORE.SYSTEM.norm>
0

>  <SCORE.heavy>
26

>  <SCORE.norm>
-0.419721

>  <RMSD>
8.012

$$$$
ligand
 OpenBabel11021811433D
libRbt.so/2013.1/901 2013/11/27
 26 27  0  0  0  0  0  0  0  0999 V2000
   27.1425   36.2380   73.3414 C   0  0  0  0  0  0  0  0  0  0  0  0
   21.0141   38.4707   69.6679 C   0  0  0  0  0  0  0  0  0  0  0  0
   22.5100   44.4255   66.6744 P   0  0  1  0  0  0  0  0  0  0  0  0
   24.1102   45.1146   64.7636 P   0  0  1  0  0  0  0  0  0  0  0  0
   22.9362   36.4335   69.5090 C   0  0  0  0  0  0  0  0  0  0  0  0
   25.1361   37.2262   70.4276 C   0  0  0  0  0  0  0  0  0  0  0  0
   24.0489   36.3806   70.5241 C   0  0  0  0  0  0  0  0  0  0  0  0
   24.0063   35.4756   71.5860 C   0  0  0  0  0  0  0  0  0  0  0  0
   22.9363   34.6045   71.7272 N   0  0  0  0  0  0  0  0  0  0  0  0
   25.0103   35.4568   72.4577 N   0  0  0  0  0  0  0  0  0  0  0  0
   26.0266   36.2851   72.3305 C   0  0  0  0  0  0  0  0  0  0  0  0
   26.0970   37.1515   71.3388 N   0  0  0  0  0  0  0  0  0  0  0  0
   23.7436   44.4804   67.4908 O   0  5  0  0  0  0  0  0  0  0  0  0
   23.7978   46.5355   65.2829 O   0  0  0  0  0  0  0  0  0  0  0  0
   23.8786   39.2552   67.1142 S   0  0  0  0  0  0  0  0  0  0  0  0
   24.1284   37.7100   67.8672 C   0  0  0  0  0  0  0  0  0  0  0  0
   21.7400   45.8348   66.7689 O   0  0  0  0  0  0  0  0  0  0  0  0
   25.4682   44.5803   65.4423 O   0  5  0  0  0  0  0  0  0  0  0  0
   23.0945   37.6248   68.6720 N   0  0  0  0  0  0  0  0  0  0  0  0
   22.8957   44.1261   65.1397 O   0  0  0  0  0  0  0  0  0  0  0  0
   24.2835   45.1549   63.2285 O   0  0  0  0  0  0  0  0  0  0  0  0
   22.1970   38.5839   68.7395 C   0  0  2  0  0  0  0  0  0  0  0  0
   22.3637   39.6822   67.9596 C   0  0  2  0  0  0  0  0  0  0  0  0
   21.5079   40.9157   67.8378 C   0  0  0  0  0  0  0  0  0  0  0  0
   22.3355   42.0568   67.2421 C   0  0  0  0  0  0  0  0  0  0  0  0
   21.5533   43.2526   67.2239 O   0  0  0  0  0  0  0  0  0  0  0  0
  1 11  1  0  0  0  0
  3 13  1  1  0  0  0
  3 17  2  0  0  0  0
  3 20  1  0  0  0  0
  3 26  1  0  0  0  0
  4 14  1  1  0  0  0
  4 18  1  0  0  0  0
  4 21  2  0  0  0  0
  4 20  1  0  0  0  0
  5 19  1  0  0  0  0
  5  7  1  0  0  0  0
  6  7  2  0  0  0  0
  6 12  1  0  0  0  0
  7  8  1  0  0  0  0
  8  9  1  0  0  0  0
  8 10  2  0  0  0  0
 10 11  1  0  0  0  0
 11 12  2  0  0  0  0
 15 23  1  0  0  0  0
 15 16  1  0  0  0  0
 16 19  1  0  0  0  0
 19 22  1  0  0  0  0
 22  2  1  1  0  0  0
 22 23  1  0  0  0  0
 23 24  1  6  0  0  0
 24 25  1  0  0  0  0
 25 26  1  0  0  0  0
M  CHG  2  13  -1  18  -1
M  END
>  <CHROM.1>
-46.74381904,66.41219373,-11.02988177,-45.17316056,-20.53767371,-175.53690662
176.54772442,-54.14977453,23.58168630,40.69502140,68.07019789,-1.46103350
-0.20857569,-0.55426857

>  <Name>
ligand

>  <RI>
0

>  <Rbt.Current_Directory>
/home/itssahil/PROJECTS/Mol_Feturizer/New_Systems/rnas/2HOJ

>  <Rbt.Executable>
rbdock ($Id: //depot/dev/client3/rdock/2013.1/src/exe/rbdock.cxx#4 $)

>  <Rbt.Library>
libRbt.so (2013.1, Build901 2013/11/27)

>  <Rbt.Parameter_File>
/export/apps/rDock/src/rDock_2013.1_src/data/scripts/dock_solv.prm

>  <Rbt.Receptor>
prm/pocket_docking_7.prm

>  <SCORE>
-15.0802

>  <SCORE.INTER>
-10.6176

>  <SCORE.INTER.CONST>
1

>  <SCORE.INTER.POLAR>
0

>  <SCORE.INTER.ROT>
8

>  <SCORE.INTER.SOLV>
19.9986

>  <SCORE.INTER.VDW>
-22.6779

>  <SCORE.INTER.norm>
-0.408369

>  <SCORE.INTRA>
-4.46263

>  <SCORE.INTRA.DIHEDRAL>
-6.1172

>  <SCORE.INTRA.DIHEDRAL.0>
11.6398

>  <SCORE.INTRA.POLAR>
0

>  <SCORE.INTRA.POLAR.0>
0

>  <SCORE.INTRA.REPUL>
0

>  <SCORE.INTRA.REPUL.0>
0

>  <SCORE.INTRA.SOLV>
0.781178

>  <SCORE.INTRA.SOLV.lig_0>
-81.722

>  <SCORE.INTRA.VDW>
-1.79462

>  <SCORE.INTRA.VDW.0>
1.12598

>  <SCORE.INTRA.norm>
-0.17164

>  <SCORE.RESTR>
0

>  <SCORE.RESTR.CAVITY>
0

>  <SCORE.RESTR.norm>
0

>  <SCORE.SYSTEM>
0

>  <SCORE.SYSTEM.CONST>
0

>  <SCORE.SYSTEM.DIHEDRAL>
0

>  <SCORE.SYSTEM.SOLV>
0

>  <SCORE.SYSTEM.norm>
0

>  <SCORE.heavy>
26

>  <SCORE.norm>
-0.580009

>  <RMSD>
8.082

$$$$
ligand
 OpenBabel11021811433D
libRbt.so/2013.1/901 2013/11/27
 26 27  0  0  0  0  0  0  0  0999 V2000
   24.4886   35.2920   72.5923 C   0  0  0  0  0  0  0  0  0  0  0  0
   27.3654   39.6102   68.1828 C   0  0  0  0  0  0  0  0  0  0  0  0
   22.7161   40.3214   68.0308 P   0  0  1  0  0  0  0  0  0  0  0  0
   22.2080   37.8822   67.3385 P   0  0  1  0  0  0  0  0  0  0  0  0
   28.3052   39.1077   70.7777 C   0  0  0  0  0  0  0  0  0  0  0  0
   26.2813   37.6600   70.4311 C   0  0  0  0  0  0  0  0  0  0  0  0
   27.2956   38.0977   71.2594 C   0  0  0  0  0  0  0  0  0  0  0  0
   27.3625   37.5806   72.5543 C   0  0  0  0  0  0  0  0  0  0  0  0
   28.3618   37.9883   73.4253 N   0  0  0  0  0  0  0  0  0  0  0  0
   26.4498   36.6950   72.9428 N   0  0  0  0  0  0  0  0  0  0  0  0
   25.5013   36.3013   72.1179 C   0  0  0  0  0  0  0  0  0  0  0  0
   25.4103   36.7706   70.8888 N   0  0  0  0  0  0  0  0  0  0  0  0
   21.9022   40.9274   66.9529 O   0  5  0  0  0  0  0  0  0  0  0  0
   22.7117   36.6803   66.5091 O   0  0  0  0  0  0  0  0  0  0  0  0
   26.6551   42.5502   70.6715 S   0  0  0  0  0  0  0  0  0  0  0  0
   27.4860   41.2511   71.4710 C   0  0  0  0  0  0  0  0  0  0  0  0
   21.7750   39.9889   69.2924 O   0  0  0  0  0  0  0  0  0  0  0  0
   21.7496   37.3759   68.7958 O   0  5  0  0  0  0  0  0  0  0  0  0
   27.6316   40.3783   70.5010 N   0  0  0  0  0  0  0  0  0  0  0  0
   23.3924   38.9626   67.4924 O   0  0  0  0  0  0  0  0  0  0  0  0
   21.0065   38.5357   66.6193 O   0  0  0  0  0  0  0  0  0  0  0  0
   27.1892   40.6222   69.2867 C   0  0  2  0  0  0  0  0  0  0  0  0
   26.5633   41.8034   69.0511 C   0  0  2  0  0  0  0  0  0  0  0  0
   25.9622   42.3375   67.7774 C   0  0  0  0  0  0  0  0  0  0  0  0
   24.7672   41.4714   67.3722 C   0  0  0  0  0  0  0  0  0  0  0  0
   23.8696   41.3523   68.4777 O   0  0  0  0  0  0  0  0  0  0  0  0
  1 11  1  0  0  0  0
  3 13  1  6  0  0  0
  3 17  2  0  0  0  0
  3 20  1  0  0  0  0
  3 26  1  0  0  0  0
  4 14  1  6  0  0  0
  4 18  1  0  0  0  0
  4 21  2  0  0  0  0
  4 20  1  0  0  0  0
  5 19  1  0  0  0  0
  5  7  1  0  0  0  0
  6  7  2  0  0  0  0
  6 12  1  0  0  0  0
  7  8  1  0  0  0  0
  8  9  1  0  0  0  0
  8 10  2  0  0  0  0
 10 11  1  0  0  0  0
 11 12  2  0  0  0  0
 15 23  1  0  0  0  0
 15 16  1  0  0  0  0
 16 19  1  0  0  0  0
 19 22  1  0  0  0  0
 22  2  1  1  0  0  0
 22 23  1  0  0  0  0
 23 24  1  6  0  0  0
 24 25  1  0  0  0  0
 25 26  1  0  0  0  0
M  CHG  2  13  -1  18  -1
M  END
>  <CHROM.1>
-70.89282450,88.05914671,64.58320378,166.21331599,-114.70249894,52.21402698
-174.71633362,-67.29340256,24.86879096,39.27526644,69.43013733,0.34993610
0.62629023,2.65023083

>  <Name>
ligand

>  <RI>
0

>  <Rbt.Current_Directory>
/home/itssahil/PROJECTS/Mol_Feturizer/New_Systems/rnas/2HOJ

>  <Rbt.Executable>
rbdock ($Id: //depot/dev/client3/rdock/2013.1/src/exe/rbdock.cxx#4 $)

>  <Rbt.Library>
libRbt.so (2013.1, Build901 2013/11/27)

>  <Rbt.Parameter_File>
/export/apps/rDock/src/rDock_2013.1_src/data/scripts/dock_solv.prm

>  <Rbt.Receptor>
prm/pocket_docking_6.prm

>  <SCORE>
-15.9732

>  <SCORE.INTER>
-10.9488

>  <SCORE.INTER.CONST>
1

>  <SCORE.INTER.POLAR>
0

>  <SCORE.INTER.ROT>
8

>  <SCORE.INTER.SOLV>
16.6744

>  <SCORE.INTER.VDW>
-21.7907

>  <SCORE.INTER.norm>
-0.421109

>  <SCORE.INTRA>
-5.02432

>  <SCORE.INTRA.DIHEDRAL>
-6.12221

>  <SCORE.INTRA.DIHEDRAL.0>
11.6398

>  <SCORE.INTRA.POLAR>
0

>  <SCORE.INTRA.POLAR.0>
0

>  <SCORE.INTRA.REPUL>
0

>  <SCORE.INTRA.REPUL.0>
0

>  <SCORE.INTRA.SOLV>
2.99546

>  <SCORE.INTRA.SOLV.lig_0>
-81.722

>  <SCORE.INTRA.VDW>
-3.46095

>  <SCORE.INTRA.VDW.0>
1.12598

>  <SCORE.INTRA.norm>
-0.193243

>  <SCORE.RESTR>
0

>  <SCORE.RESTR.CAVITY>
0

>  <SCORE.RESTR.norm>
0

>  <SCORE.SYSTEM>
0

>  <SCORE.SYSTEM.CONST>
0

>  <SCORE.SYSTEM.DIHEDRAL>
0

>  <SCORE.SYSTEM.SOLV>
0

>  <SCORE.SYSTEM.norm>
0

>  <SCORE.heavy>
26

>  <SCORE.norm>
-0.614352

>  <RMSD>
8.123

$$$$
ligand
 OpenBabel11021811433D
libRbt.so/2013.1/901 2013/11/27
 26 27  0  0  0  0  0  0  0  0999 V2000
   28.1991   39.2467   72.3210 C   0  0  0  0  0  0  0  0  0  0  0  0
   23.1769   37.7987   66.0586 C   0  0  0  0  0  0  0  0  0  0  0  0
   21.2081   42.5373   66.5195 P   0  0  1  0  0  0  0  0  0  0  0  0
   21.9550   44.9761   66.9457 P   0  0  1  0  0  0  0  0  0  0  0  0
   24.7649   37.1678   68.2834 C   0  0  0  0  0  0  0  0  0  0  0  0
   25.7055   37.1595   70.6129 C   0  0  0  0  0  0  0  0  0  0  0  0
   25.6743   37.7192   69.3512 C   0  0  0  0  0  0  0  0  0  0  0  0
   26.5070   38.8086   69.0894 C   0  0  0  0  0  0  0  0  0  0  0  0
   26.5126   39.4068   67.8382 N   0  0  0  0  0  0  0  0  0  0  0  0
   27.2911   39.2685   70.0599 N   0  0  0  0  0  0  0  0  0  0  0  0
   27.2927   38.7011   71.2487 C   0  0  0  0  0  0  0  0  0  0  0  0
   26.5181   37.6710   71.5280 N   0  0  0  0  0  0  0  0  0  0  0  0
   20.0282   43.1001   65.8248 O   0  5  0  0  0  0  0  0  0  0  0  0
   20.6237   45.5218   66.3835 O   0  0  0  0  0  0  0  0  0  0  0  0
   21.3451   38.3843   69.4709 S   0  0  0  0  0  0  0  0  0  0  0  0
   22.9580   37.7933   69.7290 C   0  0  0  0  0  0  0  0  0  0  0  0
   22.3987   42.3136   65.4611 O   0  0  0  0  0  0  0  0  0  0  0  0
   22.5556   46.0192   68.0140 O   0  5  0  0  0  0  0  0  0  0  0  0
   23.4022   37.6584   68.5009 N   0  0  0  0  0  0  0  0  0  0  0  0
   21.6934   43.5594   67.6656 O   0  0  0  0  0  0  0  0  0  0  0  0
   22.9622   44.7866   65.7891 O   0  0  0  0  0  0  0  0  0  0  0  0
   22.6517   37.9577   67.4631 C   0  0  2  0  0  0  0  0  0  0  0  0
   21.3899   38.4062   67.6850 C   0  0  2  0  0  0  0  0  0  0  0  0
   20.3253   38.8130   66.7000 C   0  0  0  0  0  0  0  0  0  0  0  0
   20.6598   40.1907   66.1239 C   0  0  0  0  0  0  0  0  0  0  0  0
   20.8147   41.1278   67.1916 O   0  0  0  0  0  0  0  0  0  0  0  0
  1 11  1  0  0  0  0
  3 13  1  6  0  0  0
  3 17  2  0  0  0  0
  3 20  1  0  0  0  0
  3 26  1  0  0  0  0
  4 14  1  6  0  0  0
  4 18  1  0  0  0  0
  4 21  2  0  0  0  0
  4 20  1  0  0  0  0
  5 19  1  0  0  0  0
  5  7  1  0  0  0  0
  6  7  2  0  0  0  0
  6 12  1  0  0  0  0
  7  8  1  0  0  0  0
  8  9  1  0  0  0  0
  8 10  2  0  0  0  0
 10 11  1  0  0  0  0
 11 12  2  0  0  0  0
 15 23  1  0  0  0  0
 15 16  1  0  0  0  0
 16 19  1  0  0  0  0
 19 22  1  0  0  0  0
 22  2  1  6  0  0  0
 22 23  1  0  0  0  0
 23 24  1  1  0  0  0
 24 25  1  0  0  0  0
 25 26  1  0  0  0  0
M  CHG  2  13  -1  18  -1
M  END
>  <CHROM.1>
-55.52855896,-36.77217909,79.31492432,64.33629718,104.28557769,-55.79509193
178.28924127,71.65509451,23.08134345,40.62179086,68.00572944,-0.89671390
-0.52892846,-0.15283344

>  <Name>
ligand

>  <RI>
0

>  <Rbt.Current_Directory>
/home/itssahil/PROJECTS/Mol_Feturizer/New_Systems/rnas/2HOJ

>  <Rbt.Executable>
rbdock ($Id: //depot/dev/client3/rdock/2013.1/src/exe/rbdock.cxx#4 $)

>  <Rbt.Library>
libRbt.so (2013.1, Build901 2013/11/27)

>  <Rbt.Parameter_File>
/export/apps/rDock/src/rDock_2013.1_src/data/scripts/dock_solv.prm

>  <Rbt.Receptor>
prm/pocket_docking_8.prm

>  <SCORE>
-16.6713

>  <SCORE.INTER>
-12.0334

>  <SCORE.INTER.CONST>
1

>  <SCORE.INTER.POLAR>
0

>  <SCORE.INTER.ROT>
8

>  <SCORE.INTER.SOLV>
22.9565

>  <SCORE.INTER.VDW>
-24.6078

>  <SCORE.INTER.norm>
-0.462822

>  <SCORE.INTRA>
-4.6382

>  <SCORE.INTRA.DIHEDRAL>
-6.62593

>  <SCORE.INTRA.DIHEDRAL.0>
11.6398

>  <SCORE.INTRA.POLAR>
0

>  <SCORE.INTRA.POLAR.0>
0

>  <SCORE.INTRA.REPUL>
0

>  <SCORE.INTRA.REPUL.0>
0

>  <SCORE.INTRA.SOLV>
2.41672

>  <SCORE.INTRA.SOLV.lig_0>
-81.722

>  <SCORE.INTRA.VDW>
-2.53359

>  <SCORE.INTRA.VDW.0>
1.12598

>  <SCORE.INTRA.norm>
-0.178392

>  <SCORE.RESTR>
0.000274075

>  <SCORE.RESTR.CAVITY>
0.000274075

>  <SCORE.RESTR.norm>
1.05413e-05

>  <SCORE.SYSTEM>
0

>  <SCORE.SYSTEM.CONST>
0

>  <SCORE.SYSTEM.DIHEDRAL>
0

>  <SCORE.SYSTEM.SOLV>
0

>  <SCORE.SYSTEM.norm>
0

>  <SCORE.heavy>
26

>  <SCORE.norm>
-0.641204

>  <RMSD>
8.125

$$$$
ligand
 OpenBabel11021811433D
libRbt.so/2013.1/901 2013/11/27
 26 27  0  0  0  0  0  0  0  0999 V2000
   27.3618   37.1885   64.5304 C   0  0  0  0  0  0  0  0  0  0  0  0
   25.0347   36.6371   70.2231 C   0  0  0  0  0  0  0  0  0  0  0  0
   24.5874   35.5671   74.3639 P   0  0  1  0  0  0  0  0  0  0  0  0
   23.7501   35.2701   76.7924 P   0  0  1  0  0  0  0  0  0  0  0  0
   23.6324   38.4763   68.6355 C   0  0  0  0  0  0  0  0  0  0  0  0
   25.9727   38.0823   67.8112 C   0  0  0  0  0  0  0  0  0  0  0  0
   24.6184   38.1354   67.5479 C   0  0  0  0  0  0  0  0  0  0  0  0
   24.1855   37.8648   66.2487 C   0  0  0  0  0  0  0  0  0  0  0  0
   22.8357   37.9055   65.9326 N   0  0  0  0  0  0  0  0  0  0  0  0
   25.0876   37.5729   65.3163 N   0  0  0  0  0  0  0  0  0  0  0  0
   26.3703   37.5286   65.6124 C   0  0  0  0  0  0  0  0  0  0  0  0
   26.8116   37.7793   66.8295 N   0  0  0  0  0  0  0  0  0  0  0  0
   25.3251   36.7959   74.7346 O   0  5  0  0  0  0  0  0  0  0  0  0
   24.6510   36.4622   77.1843 O   0  0  0  0  0  0  0  0  0  0  0  0
   21.3558   35.5250   69.4674 S   0  0  0  0  0  0  0  0  0  0  0  0
   21.7051   37.0534   68.7196 C   0  0  0  0  0  0  0  0  0  0  0  0
   25.5244   34.2829   74.6104 O   0  0  0  0  0  0  0  0  0  0  0  0
   22.4697   35.2206   77.7662 O   0  5  0  0  0  0  0  0  0  0  0  0
   22.9517   37.2573   69.0777 N   0  0  0  0  0  0  0  0  0  0  0  0
   23.2603   35.4452   75.2682 O   0  0  0  0  0  0  0  0  0  0  0  0
   24.5502   33.9549   76.9273 O   0  0  0  0  0  0  0  0  0  0  0  0
   23.6026   36.3893   69.8212 C   0  0  2  0  0  0  0  0  0  0  0  0
   22.9531   35.2679   70.2253 C   0  0  2  0  0  0  0  0  0  0  0  0
   23.4437   34.1236   71.0731 C   0  0  0  0  0  0  0  0  0  0  0  0
   23.3432   34.5021   72.5525 C   0  0  0  0  0  0  0  0  0  0  0  0
   24.1709   35.6382   72.8100 O   0  0  0  0  0  0  0  0  0  0  0  0
  1 11  1  0  0  0  0
  3 13  1  1  0  0  0
  3 17  2  0  0  0  0
  3 20  1  0  0  0  0
  3 26  1  0  0  0  0
  4 14  1  1  0  0  0
  4 18  1  0  0  0  0
  4 21  2  0  0  0  0
  4 20  1  0  0  0  0
  5 19  1  0  0  0  0
  5  7  1  0  0  0  0
  6  7  2  0  0  0  0
  6 12  1  0  0  0  0
  7  8  1  0  0  0  0
  8  9  1  0  0  0  0
  8 10  2  0  0  0  0
 10 11  1  0  0  0  0
 11 12  2  0  0  0  0
 15 23  1  0  0  0  0
 15 16  1  0  0  0  0
 16 19  1  0  0  0  0
 19 22  1  0  0  0  0
 22  2  1  1  0  0  0
 22 23  1  0  0  0  0
 23 24  1  6  0  0  0
 24 25  1  0  0  0  0
 25 26  1  0  0  0  0
M  CHG  2  13  -1  18  -1
M  END
>  <CHROM.1>
-64.08711416,-105.97096330,-103.95546647,56.89217996,-98.06961588,-61.40501778
-153.62405434,-173.83624848,24.09889249,36.20945295,71.34343550,-1.49025902
0.21455506,1.78654444

>  <Name>
ligand

>  <RI>
0

>  <Rbt.Current_Directory>
/home/itssahil/PROJECTS/Mol_Feturizer/New_Systems/rnas/2HOJ

>  <Rbt.Executable>
rbdock ($Id: //depot/dev/client3/rdock/2013.1/src/exe/rbdock.cxx#4 $)

>  <Rbt.Library>
libRbt.so (2013.1, Build901 2013/11/27)

>  <Rbt.Parameter_File>
/export/apps/rDock/src/rDock_2013.1_src/data/scripts/dock_solv.prm

>  <Rbt.Receptor>
prm/blind_docking_100.prm

>  <SCORE>
-19.1495

>  <SCORE.INTER>
-16.1742

>  <SCORE.INTER.CONST>
1

>  <SCORE.INTER.POLAR>
0

>  <SCORE.INTER.ROT>
8

>  <SCORE.INTER.SOLV>
18.824

>  <SCORE.INTER.VDW>
-25.9908

>  <SCORE.INTER.norm>
-0.622086

>  <SCORE.INTRA>
-2.97532

>  <SCORE.INTRA.DIHEDRAL>
-3.86458

>  <SCORE.INTRA.DIHEDRAL.0>
11.6398

>  <SCORE.INTRA.POLAR>
0

>  <SCORE.INTRA.POLAR.0>
0

>  <SCORE.INTRA.REPUL>
0

>  <SCORE.INTRA.REPUL.0>
0

>  <SCORE.INTRA.SOLV>
2.65025

>  <SCORE.INTRA.SOLV.lig_0>
-81.722

>  <SCORE.INTRA.VDW>
-2.36815

>  <SCORE.INTRA.VDW.0>
1.12598

>  <SCORE.INTRA.norm>
-0.114435

>  <SCORE.RESTR>
0

>  <SCORE.RESTR.CAVITY>
0

>  <SCORE.RESTR.norm>
0

>  <SCORE.SYSTEM>
0

>  <SCORE.SYSTEM.CONST>
0

>  <SCORE.SYSTEM.DIHEDRAL>
0

>  <SCORE.SYSTEM.SOLV>
0

>  <SCORE.SYSTEM.norm>
0

>  <SCORE.heavy>
26

>  <SCORE.norm>
-0.736521

>  <RMSD>
8.144

$$$$
ligand
 OpenBabel11021811433D
libRbt.so/2013.1/901 2013/11/27
 26 27  0  0  0  0  0  0  0  0999 V2000
   28.3851   39.8139   73.7899 C   0  0  0  0  0  0  0  0  0  0  0  0
   25.6394   38.0798   66.9798 C   0  0  0  0  0  0  0  0  0  0  0  0
   24.2818   42.4018   66.6100 P   0  0  1  0  0  0  0  0  0  0  0  0
   23.6716   44.5064   65.2370 P   0  0  1  0  0  0  0  0  0  0  0  0
   26.2421   36.8485   69.4273 C   0  0  0  0  0  0  0  0  0  0  0  0
   27.3477   38.8888   70.3899 C   0  0  0  0  0  0  0  0  0  0  0  0
   26.8090   37.6323   70.5829 C   0  0  0  0  0  0  0  0  0  0  0  0
   26.8025   37.1063   71.8760 C   0  0  0  0  0  0  0  0  0  0  0  0
   26.2734   35.8483   72.1225 N   0  0  0  0  0  0  0  0  0  0  0  0
   27.3169   37.8274   72.8678 N   0  0  0  0  0  0  0  0  0  0  0  0
   27.8167   39.0246   72.6396 C   0  0  0  0  0  0  0  0  0  0  0  0
   27.8381   39.5496   71.4301 N   0  0  0  0  0  0  0  0  0  0  0  0
   25.6930   42.8325   66.4888 O   0  5  0  0  0  0  0  0  0  0  0  0
   22.7993   45.0822   64.0995 O   0  0  0  0  0  0  0  0  0  0  0  0
   22.5315   37.7480   69.3404 S   0  0  0  0  0  0  0  0  0  0  0  0
   23.9511   37.0861   70.0913 C   0  0  0  0  0  0  0  0  0  0  0  0
   23.6419   43.0277   67.9466 O   0  0  0  0  0  0  0  0  0  0  0  0
   23.2520   45.1866   66.6338 O   0  5  0  0  0  0  0  0  0  0  0  0
   24.8667   37.2817   69.1709 N   0  0  0  0  0  0  0  0  0  0  0  0
   23.4532   42.9133   65.3273 O   0  0  0  0  0  0  0  0  0  0  0  0
   25.1595   44.8054   64.9455 O   0  0  0  0  0  0  0  0  0  0  0  0
   24.5762   37.8610   68.0265 C   0  0  2  0  0  0  0  0  0  0  0  0
   23.2950   38.2510   67.8055 C   0  0  2  0  0  0  0  0  0  0  0  0
   22.6870   38.9239   66.6028 C   0  0  0  0  0  0  0  0  0  0  0  0
   22.8311   40.4415   66.7375 C   0  0  0  0  0  0  0  0  0  0  0  0
   24.2147   40.7946   66.6838 O   0  0  0  0  0  0  0  0  0  0  0  0
  1 11  1  0  0  0  0
  3 13  1  6  0  0  0
  3 17  2  0  0  0  0
  3 20  1  0  0  0  0
  3 26  1  0  0  0  0
  4 14  1  6  0  0  0
  4 18  1  0  0  0  0
  4 21  2  0  0  0  0
  4 20  1  0  0  0  0
  5 19  1  0  0  0  0
  5  7  1  0  0  0  0
  6  7  2  0  0  0  0
  6 12  1  0  0  0  0
  7  8  1  0  0  0  0
  8  9  1  0  0  0  0
  8 10  2  0  0  0  0
 10 11  1  0  0  0  0
 11 12  2  0  0  0  0
 15 23  1  0  0  0  0
 15 16  1  0  0  0  0
 16 19  1  0  0  0  0
 19 22  1  0  0  0  0
 22  2  1  6  0  0  0
 22 23  1  0  0  0  0
 23 24  1  1  0  0  0
 24 25  1  0  0  0  0
 25 26  1  0  0  0  0
M  CHG  2  13  -1  18  -1
M  END
>  <CHROM.1>
-54.99016087,-64.00333002,-83.01795120,-174.95424924,92.35670146,65.96637232
171.78106986,-177.40385499,24.80722160,40.35468831,68.29229339,-1.14289149
-0.75588141,-0.44621219

>  <Name>
ligand

>  <RI>
0

>  <Rbt.Current_Directory>
/home/itssahil/PROJECTS/Mol_Feturizer/New_Systems/rnas/2HOJ

>  <Rbt.Executable>
rbdock ($Id: //depot/dev/client3/rdock/2013.1/src/exe/rbdock.cxx#4 $)

>  <Rbt.Library>
libRbt.so (2013.1, Build901 2013/11/27)

>  <Rbt.Parameter_File>
/export/apps/rDock/src/rDock_2013.1_src/data/scripts/dock_solv.prm

>  <Rbt.Receptor>
prm/pocket_docking_8.prm

>  <SCORE>
-12.9542

>  <SCORE.INTER>
-8.12283

>  <SCORE.INTER.CONST>
1

>  <SCORE.INTER.POLAR>
0

>  <SCORE.INTER.ROT>
8

>  <SCORE.INTER.SOLV>
12.6038

>  <SCORE.INTER.VDW>
-18.5498

>  <SCORE.INTER.norm>
-0.312416

>  <SCORE.INTRA>
-4.83139

>  <SCORE.INTRA.DIHEDRAL>
-6.27421

>  <SCORE.INTRA.DIHEDRAL.0>
11.6398

>  <SCORE.INTRA.POLAR>
0

>  <SCORE.INTRA.POLAR.0>
0

>  <SCORE.INTRA.REPUL>
0

>  <SCORE.INTRA.REPUL.0>
0

>  <SCORE.INTRA.SOLV>
3.92034

>  <SCORE.INTRA.SOLV.lig_0>
-81.722

>  <SCORE.INTRA.VDW>
-3.65445

>  <SCORE.INTRA.VDW.0>
1.12598

>  <SCORE.INTRA.norm>
-0.185823

>  <SCORE.RESTR>
0

>  <SCORE.RESTR.CAVITY>
0

>  <SCORE.RESTR.norm>
0

>  <SCORE.SYSTEM>
0

>  <SCORE.SYSTEM.CONST>
0

>  <SCORE.SYSTEM.DIHEDRAL>
0

>  <SCORE.SYSTEM.SOLV>
0

>  <SCORE.SYSTEM.norm>
0

>  <SCORE.heavy>
26

>  <SCORE.norm>
-0.498239

>  <RMSD>
8.145

$$$$
ligand
 OpenBabel11021811433D
libRbt.so/2013.1/901 2013/11/27
 26 27  0  0  0  0  0  0  0  0999 V2000
   28.2163   39.8244   73.6502 C   0  0  0  0  0  0  0  0  0  0  0  0
   26.5044   38.5339   65.8976 C   0  0  0  0  0  0  0  0  0  0  0  0
   22.7620   42.1033   66.5863 P   0  0  1  0  0  0  0  0  0  0  0  0
   23.1758   44.3455   65.3664 P   0  0  1  0  0  0  0  0  0  0  0  0
   27.3286   37.6954   68.4446 C   0  0  0  0  0  0  0  0  0  0  0  0
   27.0893   37.6110   70.9441 C   0  0  0  0  0  0  0  0  0  0  0  0
   27.5642   38.2601   69.8218 C   0  0  0  0  0  0  0  0  0  0  0  0
   28.2687   39.4527   69.9953 C   0  0  0  0  0  0  0  0  0  0  0  0
   28.7659   40.1433   68.9002 N   0  0  0  0  0  0  0  0  0  0  0  0
   28.4511   39.9205   71.2267 N   0  0  0  0  0  0  0  0  0  0  0  0
   27.9846   39.2660   72.2703 C   0  0  0  0  0  0  0  0  0  0  0  0
   27.3151   38.1373   72.1404 N   0  0  0  0  0  0  0  0  0  0  0  0
   24.0855   42.3042   67.2184 O   0  5  0  0  0  0  0  0  0  0  0  0
   23.0864   45.1091   64.0266 O   0  0  0  0  0  0  0  0  0  0  0  0
   23.5163   37.5854   68.2457 S   0  0  0  0  0  0  0  0  0  0  0  0
   25.0347   37.3771   69.0633 C   0  0  0  0  0  0  0  0  0  0  0  0
   21.6194   42.7534   67.5134 O   0  0  0  0  0  0  0  0  0  0  0  0
   22.1895   45.0264   66.4405 O   0  5  0  0  0  0  0  0  0  0  0  0
   25.8967   37.7333   68.1392 N   0  0  0  0  0  0  0  0  0  0  0  0
   22.7462   42.8100   65.1393 O   0  0  0  0  0  0  0  0  0  0  0  0
   24.6274   44.4004   65.8935 O   0  0  0  0  0  0  0  0  0  0  0  0
   25.5020   38.1266   66.9479 C   0  0  2  0  0  0  0  0  0  0  0  0
   24.1710   38.1502   66.6823 C   0  0  2  0  0  0  0  0  0  0  0  0
   23.4474   38.5462   65.4220 C   0  0  0  0  0  0  0  0  0  0  0  0
   23.3281   40.0705   65.3571 C   0  0  0  0  0  0  0  0  0  0  0  0
   22.4820   40.5268   66.4145 O   0  0  0  0  0  0  0  0  0  0  0  0
  1 11  1  0  0  0  0
  3 13  1  1  0  0  0
  3 17  2  0  0  0  0
  3 20  1  0  0  0  0
  3 26  1  0  0  0  0
  4 14  1  6  0  0  0
  4 18  1  0  0  0  0
  4 21  2  0  0  0  0
  4 20  1  0  0  0  0
  5 19  1  0  0  0  0
  5  7  1  0  0  0  0
  6  7  2  0  0  0  0
  6 12  1  0  0  0  0
  7  8  1  0  0  0  0
  8  9  1  0  0  0  0
  8 10  2  0  0  0  0
 10 11  1  0  0  0  0
 11 12  2  0  0  0  0
 15 23  1  0  0  0  0
 15 16  1  0  0  0  0
 16 19  1  0  0  0  0
 19 22  1  0  0  0  0
 22  2  1  6  0  0  0
 22 23  1  0  0  0  0
 23 24  1  1  0  0  0
 24 25  1  0  0  0  0
 25 26  1  0  0  0  0
M  CHG  2  13  -1  18  -1
M  END
>  <CHROM.1>
-54.49183798,-42.99572746,66.25815434,-176.10387958,98.68538017,-65.94485890
162.47804635,-72.83591415,24.83734248,40.51320279,67.73643343,-0.63150370
-0.84095297,0.01452659

>  <Name>
ligand

>  <RI>
0

>  <Rbt.Current_Directory>
/home/itssahil/PROJECTS/Mol_Feturizer/New_Systems/rnas/2HOJ

>  <Rbt.Executable>
rbdock ($Id: //depot/dev/client3/rdock/2013.1/src/exe/rbdock.cxx#4 $)

>  <Rbt.Library>
libRbt.so (2013.1, Build901 2013/11/27)

>  <Rbt.Parameter_File>
/export/apps/rDock/src/rDock_2013.1_src/data/scripts/dock_solv.prm

>  <Rbt.Receptor>
prm/pocket_docking_7.prm

>  <SCORE>
-12.7859

>  <SCORE.INTER>
-9.69099

>  <SCORE.INTER.CONST>
1

>  <SCORE.INTER.POLAR>
-0.989956

>  <SCORE.INTER.ROT>
8

>  <SCORE.INTER.SOLV>
17.4783

>  <SCORE.INTER.VDW>
-17.9202

>  <SCORE.INTER.norm>
-0.37273

>  <SCORE.INTRA>
-3.09487

>  <SCORE.INTRA.DIHEDRAL>
-5.03478

>  <SCORE.INTRA.DIHEDRAL.0>
11.6398

>  <SCORE.INTRA.POLAR>
0

>  <SCORE.INTRA.POLAR.0>
0

>  <SCORE.INTRA.REPUL>
0

>  <SCORE.INTRA.REPUL.0>
0

>  <SCORE.INTRA.SOLV>
4.00725

>  <SCORE.INTRA.SOLV.lig_0>
-81.722

>  <SCORE.INTRA.VDW>
-2.58111

>  <SCORE.INTRA.VDW.0>
1.12598

>  <SCORE.INTRA.norm>
-0.119034

>  <SCORE.RESTR>
0

>  <SCORE.RESTR.CAVITY>
0

>  <SCORE.RESTR.norm>
0

>  <SCORE.SYSTEM>
0

>  <SCORE.SYSTEM.CONST>
0

>  <SCORE.SYSTEM.DIHEDRAL>
0

>  <SCORE.SYSTEM.SOLV>
0

>  <SCORE.SYSTEM.norm>
0

>  <SCORE.heavy>
26

>  <SCORE.norm>
-0.491764

>  <RMSD>
8.149

$$$$
ligand
 OpenBabel11021811433D
libRbt.so/2013.1/901 2013/11/27
 26 27  0  0  0  0  0  0  0  0999 V2000
   30.8372   36.1992   64.7974 C   0  0  0  0  0  0  0  0  0  0  0  0
   27.3006   41.4699   69.1361 C   0  0  0  0  0  0  0  0  0  0  0  0
   26.2563   43.4561   64.7212 P   0  0  1  0  0  0  0  0  0  0  0  0
   27.2984   43.7120   62.3684 P   0  0  1  0  0  0  0  0  0  0  0  0
   27.8970   38.7343   68.9624 C   0  0  0  0  0  0  0  0  0  0  0  0
   28.1809   36.9444   67.2225 C   0  0  0  0  0  0  0  0  0  0  0  0
   28.6763   38.0642   67.8602 C   0  0  0  0  0  0  0  0  0  0  0  0
   29.9175   38.5604   67.4578 C   0  0  0  0  0  0  0  0  0  0  0  0
   30.4593   39.6824   68.0670 N   0  0  0  0  0  0  0  0  0  0  0  0
   30.5761   37.9376   66.4848 N   0  0  0  0  0  0  0  0  0  0  0  0
   30.0639   36.8742   65.9000 C   0  0  0  0  0  0  0  0  0  0  0  0
   28.8943   36.3806   66.2569 N   0  0  0  0  0  0  0  0  0  0  0  0
   27.6075   43.6745   65.2852 O   0  5  0  0  0  0  0  0  0  0  0  0
   27.4014   43.1262   60.9427 O   0  0  0  0  0  0  0  0  0  0  0  0
   24.4584   39.3818   67.4320 S   0  0  0  0  0  0  0  0  0  0  0  0
   25.7839   38.3589   67.8948 C   0  0  0  0  0  0  0  0  0  0  0  0
   25.5065   44.8701   64.5597 O   0  0  0  0  0  0  0  0  0  0  0  0
   26.6349   45.1767   62.3015 O   0  5  0  0  0  0  0  0  0  0  0  0
   26.6191   39.2166   68.4339 N   0  0  0  0  0  0  0  0  0  0  0  0
   26.3848   42.7487   63.2801 O   0  0  0  0  0  0  0  0  0  0  0  0
   28.7115   43.8149   62.9853 O   0  0  0  0  0  0  0  0  0  0  0  0
   26.3313   40.4975   68.5127 C   0  0  2  0  0  0  0  0  0  0  0  0
   25.1442   40.9259   68.0129 C   0  0  2  0  0  0  0  0  0  0  0  0
   24.5647   42.3154   67.9650 C   0  0  0  0  0  0  0  0  0  0  0  0
   25.3607   43.1686   66.9748 C   0  0  0  0  0  0  0  0  0  0  0  0
   25.4084   42.5079   65.7086 O   0  0  0  0  0  0  0  0  0  0  0  0
  1 11  1  0  0  0  0
  3 13  1  1  0  0  0
  3 17  2  0  0  0  0
  3 20  1  0  0  0  0
  3 26  1  0  0  0  0
  4 14  1  6  0  0  0
  4 18  1  0  0  0  0
  4 21  2  0  0  0  0
  4 20  1  0  0  0  0
  5 19  1  0  0  0  0
  5  7  1  0  0  0  0
  6  7  2  0  0  0  0
  6 12  1  0  0  0  0
  7  8  1  0  0  0  0
  8  9  1  0  0  0  0
  8 10  2  0  0  0  0
 10 11  1  0  0  0  0
 11 12  2  0  0  0  0
 15 23  1  0  0  0  0
 15 16  1  0  0  0  0
 16 19  1  0  0  0  0
 19 22  1  0  0  0  0
 22  2  1  6  0  0  0
 22 23  1  0  0  0  0
 23 24  1  1  0  0  0
 24 25  1  0  0  0  0
 25 26  1  0  0  0  0
M  CHG  2  13  -1  18  -1
M  END
>  <CHROM.1>
-57.38694216,58.92367381,-61.68597352,-177.05439353,-110.78368384,53.97404391
-179.99402431,58.49050333,27.19561262,41.02476438,65.85312747,-1.24497565
0.69493879,-0.80584162

>  <Name>
ligand

>  <RI>
0

>  <Rbt.Current_Directory>
/home/itssahil/PROJECTS/Mol_Feturizer/New_Systems/rnas/2HOJ

>  <Rbt.Executable>
rbdock ($Id: //depot/dev/client3/rdock/2013.1/src/exe/rbdock.cxx#4 $)

>  <Rbt.Library>
libRbt.so (2013.1, Build901 2013/11/27)

>  <Rbt.Parameter_File>
/export/apps/rDock/src/rDock_2013.1_src/data/scripts/dock_solv.prm

>  <Rbt.Receptor>
prm/pocket_docking_8.prm

>  <SCORE>
-7.78305

>  <SCORE.INTER>
-3.87473

>  <SCORE.INTER.CONST>
1

>  <SCORE.INTER.POLAR>
-1.03512

>  <SCORE.INTER.ROT>
8

>  <SCORE.INTER.SOLV>
13.6887

>  <SCORE.INTER.VDW>
-12.629

>  <SCORE.INTER.norm>
-0.149028

>  <SCORE.INTRA>
-3.90832

>  <SCORE.INTRA.DIHEDRAL>
-6.87393

>  <SCORE.INTRA.DIHEDRAL.0>
11.6398

>  <SCORE.INTRA.POLAR>
0

>  <SCORE.INTRA.POLAR.0>
0

>  <SCORE.INTRA.REPUL>
0

>  <SCORE.INTRA.REPUL.0>
0

>  <SCORE.INTRA.SOLV>
4.57894

>  <SCORE.INTRA.SOLV.lig_0>
-81.722

>  <SCORE.INTRA.VDW>
-2.76083

>  <SCORE.INTRA.VDW.0>
1.12598

>  <SCORE.INTRA.norm>
-0.15032

>  <SCORE.RESTR>
0

>  <SCORE.RESTR.CAVITY>
0

>  <SCORE.RESTR.norm>
0

>  <SCORE.SYSTEM>
0

>  <SCORE.SYSTEM.CONST>
0

>  <SCORE.SYSTEM.DIHEDRAL>
0

>  <SCORE.SYSTEM.SOLV>
0

>  <SCORE.SYSTEM.norm>
0

>  <SCORE.heavy>
26

>  <SCORE.norm>
-0.299348

>  <RMSD>
8.156

$$$$
ligand
 OpenBabel11021811433D
libRbt.so/2013.1/901 2013/11/27
 26 27  0  0  0  0  0  0  0  0999 V2000
   27.9603   38.1967   74.6435 C   0  0  0  0  0  0  0  0  0  0  0  0
   23.6519   37.9267   68.3451 C   0  0  0  0  0  0  0  0  0  0  0  0
   25.3256   42.5782   67.4833 P   0  0  1  0  0  0  0  0  0  0  0  0
   22.9639   43.5719   67.1346 P   0  0  1  0  0  0  0  0  0  0  0  0
   25.2410   36.3195   70.0067 C   0  0  0  0  0  0  0  0  0  0  0  0
   26.6527   38.0095   71.2161 C   0  0  0  0  0  0  0  0  0  0  0  0
   25.9604   36.8151   71.2347 C   0  0  0  0  0  0  0  0  0  0  0  0
   25.9433   36.0783   72.4203 C   0  0  0  0  0  0  0  0  0  0  0  0
   25.2627   34.8719   72.4907 N   0  0  0  0  0  0  0  0  0  0  0  0
   26.5947   36.5475   73.4804 N   0  0  0  0  0  0  0  0  0  0  0  0
   27.2390   37.6948   73.4199 C   0  0  0  0  0  0  0  0  0  0  0  0
   27.2745   38.4145   72.3154 N   0  0  0  0  0  0  0  0  0  0  0  0
   25.8247   43.2255   66.2490 O   0  5  0  0  0  0  0  0  0  0  0  0
   22.3401   42.1653   66.9971 O   0  0  0  0  0  0  0  0  0  0  0  0
   27.3433   37.5857   67.0806 S   0  0  0  0  0  0  0  0  0  0  0  0
   27.1075   36.6868   68.5482 C   0  0  0  0  0  0  0  0  0  0  0  0
   26.5448   42.3712   68.5122 O   0  0  0  0  0  0  0  0  0  0  0  0
   21.8560   44.5999   67.6876 O   0  5  0  0  0  0  0  0  0  0  0  0
   25.8425   36.9180   68.8130 N   0  0  0  0  0  0  0  0  0  0  0  0
   24.2027   43.5120   68.1620 O   0  0  0  0  0  0  0  0  0  0  0  0
   23.4648   44.0493   65.7529 O   0  0  0  0  0  0  0  0  0  0  0  0
   25.1039   37.6717   68.0280 C   0  0  2  0  0  0  0  0  0  0  0  0
   25.6806   38.2215   66.9291 C   0  0  2  0  0  0  0  0  0  0  0  0
   25.0840   39.1155   65.8738 C   0  0  0  0  0  0  0  0  0  0  0  0
   25.5207   40.5613   66.1203 C   0  0  0  0  0  0  0  0  0  0  0  0
   24.6823   41.1479   67.1178 O   0  0  0  0  0  0  0  0  0  0  0  0
  1 11  1  0  0  0  0
  3 13  1  6  0  0  0
  3 17  2  0  0  0  0
  3 20  1  0  0  0  0
  3 26  1  0  0  0  0
  4 14  1  6  0  0  0
  4 18  1  0  0  0  0
  4 21  2  0  0  0  0
  4 20  1  0  0  0  0
  5 19  1  0  0  0  0
  5  7  1  0  0  0  0
  6  7  2  0  0  0  0
  6 12  1  0  0  0  0
  7  8  1  0  0  0  0
  8  9  1  0  0  0  0
  8 10  2  0  0  0  0
 10 11  1  0  0  0  0
 11 12  2  0  0  0  0
 15 23  1  0  0  0  0
 15 16  1  0  0  0  0
 16 19  1  0  0  0  0
 19 22  1  0  0  0  0
 22  2  1  1  0  0  0
 22 23  1  0  0  0  0
 23 24  1  6  0  0  0
 24 25  1  0  0  0  0
 25 26  1  0  0  0  0
M  CHG  2  13  -1  18  -1
M  END
>  <CHROM.1>
64.75196889,60.86443483,23.58977452,65.07814742,-77.48434421,-81.94427122
171.81182310,39.47570314,25.32255857,39.81863697,68.75940637,0.36115462,-1.22142612
1.30093530

>  <Name>
ligand

>  <RI>
0

>  <Rbt.Current_Directory>
/home/itssahil/PROJECTS/Mol_Feturizer/New_Systems/rnas/2HOJ

>  <Rbt.Executable>
rbdock ($Id: //depot/dev/client3/rdock/2013.1/src/exe/rbdock.cxx#4 $)

>  <Rbt.Library>
libRbt.so (2013.1, Build901 2013/11/27)

>  <Rbt.Parameter_File>
/export/apps/rDock/src/rDock_2013.1_src/data/scripts/dock_solv.prm

>  <Rbt.Receptor>
prm/pocket_docking_6.prm

>  <SCORE>
-13.4517

>  <SCORE.INTER>
-8.75516

>  <SCORE.INTER.CONST>
1

>  <SCORE.INTER.POLAR>
0

>  <SCORE.INTER.ROT>
8

>  <SCORE.INTER.SOLV>
13.6573

>  <SCORE.INTER.VDW>
-19.3226

>  <SCORE.INTER.norm>
-0.336737

>  <SCORE.INTRA>
-4.69653

>  <SCORE.INTRA.DIHEDRAL>
-3.92028

>  <SCORE.INTRA.DIHEDRAL.0>
11.6398

>  <SCORE.INTRA.POLAR>
0

>  <SCORE.INTRA.POLAR.0>
0

>  <SCORE.INTRA.REPUL>
0

>  <SCORE.INTRA.REPUL.0>
0

>  <SCORE.INTRA.SOLV>
0.00343234

>  <SCORE.INTRA.SOLV.lig_0>
-81.722

>  <SCORE.INTRA.VDW>
-2.73811

>  <SCORE.INTRA.VDW.0>
1.12598

>  <SCORE.INTRA.norm>
-0.180636

>  <SCORE.RESTR>
0

>  <SCORE.RESTR.CAVITY>
0

>  <SCORE.RESTR.norm>
0

>  <SCORE.SYSTEM>
0

>  <SCORE.SYSTEM.CONST>
0

>  <SCORE.SYSTEM.DIHEDRAL>
0

>  <SCORE.SYSTEM.SOLV>
0

>  <SCORE.SYSTEM.norm>
0

>  <SCORE.heavy>
26

>  <SCORE.norm>
-0.517373

>  <RMSD>
8.189

$$$$
ligand
 OpenBabel11021811433D
libRbt.so/2013.1/901 2013/11/27
 26 27  0  0  0  0  0  0  0  0999 V2000
   27.0599   34.7990   73.4414 C   0  0  0  0  0  0  0  0  0  0  0  0
   21.3884   38.4996   69.0761 C   0  0  0  0  0  0  0  0  0  0  0  0
   24.5571   43.5456   66.7235 P   0  0  1  0  0  0  0  0  0  0  0  0
   22.6450   45.2553   67.0517 P   0  0  1  0  0  0  0  0  0  0  0  0
   22.8683   36.2537   69.8732 C   0  0  0  0  0  0  0  0  0  0  0  0
   25.0245   36.7306   71.0712 C   0  0  0  0  0  0  0  0  0  0  0  0
   23.9772   35.8674   70.8178 C   0  0  0  0  0  0  0  0  0  0  0  0
   23.9712   34.6275   71.4593 C   0  0  0  0  0  0  0  0  0  0  0  0
   22.9421   33.7245   71.2381 N   0  0  0  0  0  0  0  0  0  0  0  0
   24.9707   34.3224   72.2816 N   0  0  0  0  0  0  0  0  0  0  0  0
   25.9481   35.1783   72.4984 C   0  0  0  0  0  0  0  0  0  0  0  0
   25.9833   36.3570   71.9081 N   0  0  0  0  0  0  0  0  0  0  0  0
   24.9528   44.3671   65.5572 O   0  5  0  0  0  0  0  0  0  0  0  0
   23.2470   46.1894   65.9788 O   0  0  0  0  0  0  0  0  0  0  0  0
   24.7557   38.1022   67.1152 S   0  0  0  0  0  0  0  0  0  0  0  0
   24.5592   36.8208   68.2715 C   0  0  0  0  0  0  0  0  0  0  0  0
   25.8650   42.8734   67.3758 O   0  0  0  0  0  0  0  0  0  0  0  0
   21.6703   44.1854   66.3477 O   0  5  0  0  0  0  0  0  0  0  0  0
   23.4034   37.1181   68.8189 N   0  0  0  0  0  0  0  0  0  0  0  0
   23.8318   44.4803   67.8162 O   0  0  0  0  0  0  0  0  0  0  0  0
   21.8393   46.0935   68.0696 O   0  0  0  0  0  0  0  0  0  0  0  0
   22.7151   38.1723   68.4385 C   0  0  2  0  0  0  0  0  0  0  0  0
   23.2299   38.9639   67.4635 C   0  0  2  0  0  0  0  0  0  0  0  0
   22.6692   40.2175   66.8446 C   0  0  0  0  0  0  0  0  0  0  0  0
   23.4911   41.4255   67.2999 C   0  0  0  0  0  0  0  0  0  0  0  0
   23.5401   42.3912   66.2478 O   0  0  0  0  0  0  0  0  0  0  0  0
  1 11  1  0  0  0  0
  3 13  1  6  0  0  0
  3 17  2  0  0  0  0
  3 20  1  0  0  0  0
  3 26  1  0  0  0  0
  4 14  1  6  0  0  0
  4 18  1  0  0  0  0
  4 21  2  0  0  0  0
  4 20  1  0  0  0  0
  5 19  1  0  0  0  0
  5  7  1  0  0  0  0
  6  7  2  0  0  0  0
  6 12  1  0  0  0  0
  7  8  1  0  0  0  0
  8  9  1  0  0  0  0
  8 10  2  0  0  0  0
 10 11  1  0  0  0  0
 11 12  2  0  0  0  0
 15 23  1  0  0  0  0
 15 16  1  0  0  0  0
 16 19  1  0  0  0  0
 19 22  1  0  0  0  0
 22  2  1  1  0  0  0
 22 23  1  0  0  0  0
 23 24  1  6  0  0  0
 24 25  1  0  0  0  0
 25 26  1  0  0  0  0
M  CHG  2  13  -1  18  -1
M  END
>  <CHROM.1>
53.24255311,42.42984052,32.14616899,-64.24420867,-71.16914784,146.47282845
-173.38273309,164.07342570,23.88292152,40.06702218,68.48577895,-1.41795122
-0.55483766,-0.37172444

>  <Name>
ligand

>  <RI>
0

>  <Rbt.Current_Directory>
/home/itssahil/PROJECTS/Mol_Feturizer/New_Systems/rnas/2HOJ

>  <Rbt.Executable>
rbdock ($Id: //depot/dev/client3/rdock/2013.1/src/exe/rbdock.cxx#4 $)

>  <Rbt.Library>
libRbt.so (2013.1, Build901 2013/11/27)

>  <Rbt.Parameter_File>
/export/apps/rDock/src/rDock_2013.1_src/data/scripts/dock_solv.prm

>  <Rbt.Receptor>
prm/pocket_docking_7.prm

>  <SCORE>
-12.5241

>  <SCORE.INTER>
-9.25497

>  <SCORE.INTER.CONST>
1

>  <SCORE.INTER.POLAR>
0

>  <SCORE.INTER.ROT>
8

>  <SCORE.INTER.SOLV>
20.082

>  <SCORE.INTER.VDW>
-21.7973

>  <SCORE.INTER.norm>
-0.355961

>  <SCORE.INTRA>
-3.26916

>  <SCORE.INTRA.DIHEDRAL>
-2.54935

>  <SCORE.INTRA.DIHEDRAL.0>
11.6398

>  <SCORE.INTRA.POLAR>
0

>  <SCORE.INTRA.POLAR.0>
0

>  <SCORE.INTRA.REPUL>
0

>  <SCORE.INTRA.REPUL.0>
0

>  <SCORE.INTRA.SOLV>
0.607791

>  <SCORE.INTRA.SOLV.lig_0>
-81.722

>  <SCORE.INTRA.VDW>
-2.29838

>  <SCORE.INTRA.VDW.0>
1.12598

>  <SCORE.INTRA.norm>
-0.125737

>  <SCORE.RESTR>
0

>  <SCORE.RESTR.CAVITY>
0

>  <SCORE.RESTR.norm>
0

>  <SCORE.SYSTEM>
0

>  <SCORE.SYSTEM.CONST>
0

>  <SCORE.SYSTEM.DIHEDRAL>
0

>  <SCORE.SYSTEM.SOLV>
0

>  <SCORE.SYSTEM.norm>
0

>  <SCORE.heavy>
26

>  <SCORE.norm>
-0.481697

>  <RMSD>
8.194

$$$$
ligand
 OpenBabel11021811433D
libRbt.so/2013.1/901 2013/11/27
 26 27  0  0  0  0  0  0  0  0999 V2000
   31.4518   35.6207   63.8492 C   0  0  0  0  0  0  0  0  0  0  0  0
   26.5161   40.0937   68.1250 C   0  0  0  0  0  0  0  0  0  0  0  0
   28.6394   44.4793   65.0822 P   0  0  1  0  0  0  0  0  0  0  0  0
   30.9534   45.1529   64.1451 P   0  0  1  0  0  0  0  0  0  0  0  0
   26.9501   37.7988   66.5710 C   0  0  0  0  0  0  0  0  0  0  0  0
   27.9783   36.3436   64.7999 C   0  0  0  0  0  0  0  0  0  0  0  0
   28.1425   37.2230   65.8515 C   0  0  0  0  0  0  0  0  0  0  0  0
   29.4414   37.5656   66.2312 C   0  0  0  0  0  0  0  0  0  0  0  0
   29.6601   38.4444   67.2817 N   0  0  0  0  0  0  0  0  0  0  0  0
   30.4671   37.0320   65.5743 N   0  0  0  0  0  0  0  0  0  0  0  0
   30.2647   36.2003   64.5731 C   0  0  0  0  0  0  0  0  0  0  0  0
   29.0506   35.8563   64.1901 N   0  0  0  0  0  0  0  0  0  0  0  0
   28.2566   45.8614   65.4491 O   0  5  0  0  0  0  0  0  0  0  0  0
   30.3487   46.5739   64.1085 O   0  0  0  0  0  0  0  0  0  0  0  0
   25.8793   40.6804   64.3050 S   0  0  0  0  0  0  0  0  0  0  0  0
   26.3635   39.0395   64.6057 C   0  0  0  0  0  0  0  0  0  0  0  0
   28.2659   44.2095   63.5409 O   0  0  0  0  0  0  0  0  0  0  0  0
   32.5286   45.2467   64.4617 O   0  5  0  0  0  0  0  0  0  0  0  0
   26.5294   39.0351   65.9081 N   0  0  0  0  0  0  0  0  0  0  0  0
   30.2247   44.2885   65.2920 O   0  0  0  0  0  0  0  0  0  0  0  0
   30.7437   44.4696   62.7751 O   0  0  0  0  0  0  0  0  0  0  0  0
   26.3226   40.1151   66.6297 C   0  0  2  0  0  0  0  0  0  0  0  0
   25.9379   41.2525   65.9965 C   0  0  2  0  0  0  0  0  0  0  0  0
   25.6396   42.6161   66.5627 C   0  0  0  0  0  0  0  0  0  0  0  0
   26.4527   43.6722   65.8107 C   0  0  0  0  0  0  0  0  0  0  0  0
   27.8467   43.4355   66.0179 O   0  0  0  0  0  0  0  0  0  0  0  0
  1 11  1  0  0  0  0
  3 13  1  1  0  0  0
  3 17  2  0  0  0  0
  3 20  1  0  0  0  0
  3 26  1  0  0  0  0
  4 14  1  6  0  0  0
  4 18  1  0  0  0  0
  4 21  2  0  0  0  0
  4 20  1  0  0  0  0
  5 19  1  0  0  0  0
  5  7  1  0  0  0  0
  6  7  2  0  0  0  0
  6 12  1  0  0  0  0
  7  8  1  0  0  0  0
  8  9  1  0  0  0  0
  8 10  2  0  0  0  0
 10 11  1  0  0  0  0
 11 12  2  0  0  0  0
 15 23  1  0  0  0  0
 15 16  1  0  0  0  0
 16 19  1  0  0  0  0
 19 22  1  0  0  0  0
 22  2  1  6  0  0  0
 22 23  1  0  0  0  0
 23 24  1  1  0  0  0
 24 25  1  0  0  0  0
 25 26  1  0  0  0  0
M  CHG  2  13  -1  18  -1
M  END
>  <CHROM.1>
-70.32922212,49.42039944,-89.12310972,48.85209918,-52.52962416,-63.24425253
174.22411145,58.81921784,28.55489971,41.37770042,65.16924454,-1.73377974
0.33539777,-0.05752998

>  <Name>
ligand

>  <RI>
0

>  <Rbt.Current_Directory>
/home/itssahil/PROJECTS/Mol_Feturizer/New_Systems/rnas/2HOJ

>  <Rbt.Executable>
rbdock ($Id: //depot/dev/client3/rdock/2013.1/src/exe/rbdock.cxx#4 $)

>  <Rbt.Library>
libRbt.so (2013.1, Build901 2013/11/27)

>  <Rbt.Parameter_File>
/export/apps/rDock/src/rDock_2013.1_src/data/scripts/dock_solv.prm

>  <Rbt.Receptor>
prm/pocket_docking_8.prm

>  <SCORE>
-10.0128

>  <SCORE.INTER>
-5.10115

>  <SCORE.INTER.CONST>
1

>  <SCORE.INTER.POLAR>
0

>  <SCORE.INTER.ROT>
8

>  <SCORE.INTER.SOLV>
13.3674

>  <SCORE.INTER.VDW>
-16.7899

>  <SCORE.INTER.norm>
-0.196198

>  <SCORE.INTRA>
-4.91166

>  <SCORE.INTRA.DIHEDRAL>
-5.93821

>  <SCORE.INTRA.DIHEDRAL.0>
11.6398

>  <SCORE.INTRA.POLAR>
0

>  <SCORE.INTRA.POLAR.0>
0

>  <SCORE.INTRA.REPUL>
0

>  <SCORE.INTRA.REPUL.0>
0

>  <SCORE.INTRA.SOLV>
2.78214

>  <SCORE.INTRA.SOLV.lig_0>
-81.722

>  <SCORE.INTRA.VDW>
-3.33363

>  <SCORE.INTRA.VDW.0>
1.12598

>  <SCORE.INTRA.norm>
-0.18891

>  <SCORE.RESTR>
0

>  <SCORE.RESTR.CAVITY>
0

>  <SCORE.RESTR.norm>
0

>  <SCORE.SYSTEM>
0

>  <SCORE.SYSTEM.CONST>
0

>  <SCORE.SYSTEM.DIHEDRAL>
0

>  <SCORE.SYSTEM.SOLV>
0

>  <SCORE.SYSTEM.norm>
0

>  <SCORE.heavy>
26

>  <SCORE.norm>
-0.385108

>  <RMSD>
8.206

$$$$
ligand
 OpenBabel11021811433D
libRbt.so/2013.1/901 2013/11/27
 26 27  0  0  0  0  0  0  0  0999 V2000
   28.4901   39.5793   72.4917 C   0  0  0  0  0  0  0  0  0  0  0  0
   25.2979   37.7957   65.5220 C   0  0  0  0  0  0  0  0  0  0  0  0
   21.1575   42.2803   66.6295 P   0  0  1  0  0  0  0  0  0  0  0  0
   22.1299   40.6834   68.4159 P   0  0  1  0  0  0  0  0  0  0  0  0
   27.5594   38.6341   66.9546 C   0  0  0  0  0  0  0  0  0  0  0  0
   26.8838   39.5646   69.1884 C   0  0  0  0  0  0  0  0  0  0  0  0
   27.8070   38.8837   68.4201 C   0  0  0  0  0  0  0  0  0  0  0  0
   28.9758   38.4318   69.0354 C   0  0  0  0  0  0  0  0  0  0  0  0
   29.9347   37.7433   68.3074 N   0  0  0  0  0  0  0  0  0  0  0  0
   29.1591   38.6765   70.3295 N   0  0  0  0  0  0  0  0  0  0  0  0
   28.2494   39.3262   71.0263 C   0  0  0  0  0  0  0  0  0  0  0  0
   27.1352   39.7663   70.4750 N   0  0  0  0  0  0  0  0  0  0  0  0
   20.0211   42.5328   65.7149 O   0  5  0  0  0  0  0  0  0  0  0  0
   22.6820   39.3617   67.8375 O   0  0  0  0  0  0  0  0  0  0  0  0
   25.5418   41.6896   65.8688 S   0  0  0  0  0  0  0  0  0  0  0  0
   26.8843   40.9143   66.6525 C   0  0  0  0  0  0  0  0  0  0  0  0
   21.4764   43.6137   67.4710 O   0  0  0  0  0  0  0  0  0  0  0  0
   23.2231   41.8499   68.2303 O   0  5  0  0  0  0  0  0  0  0  0  0
   26.6334   39.6437   66.4366 N   0  0  0  0  0  0  0  0  0  0  0  0
   20.7770   41.0856   67.6402 O   0  0  0  0  0  0  0  0  0  0  0  0
   21.8246   40.4987   69.9195 O   0  0  0  0  0  0  0  0  0  0  0  0
   25.5715   39.2589   65.7627 C   0  0  2  0  0  0  0  0  0  0  0  0
   24.7226   40.2092   65.2950 C   0  0  2  0  0  0  0  0  0  0  0  0
   23.4473   40.0580   64.5079 C   0  0  0  0  0  0  0  0  0  0  0  0
   22.2607   40.5072   65.3636 C   0  0  0  0  0  0  0  0  0  0  0  0
   22.4550   41.8627   65.7721 O   0  0  0  0  0  0  0  0  0  0  0  0
  1 11  1  0  0  0  0
  3 13  1  6  0  0  0
  3 17  2  0  0  0  0
  3 20  1  0  0  0  0
  3 26  1  0  0  0  0
  4 14  1  6  0  0  0
  4 18  1  0  0  0  0
  4 21  2  0  0  0  0
  4 20  1  0  0  0  0
  5 19  1  0  0  0  0
  5  7  1  0  0  0  0
  6  7  2  0  0  0  0
  6 12  1  0  0  0  0
  7  8  1  0  0  0  0
  8  9  1  0  0  0  0
  8 10  2  0  0  0  0
 10 11  1  0  0  0  0
 11 12  2  0  0  0  0
 15 23  1  0  0  0  0
 15 16  1  0  0  0  0
 16 19  1  0  0  0  0
 19 22  1  0  0  0  0
 22  2  1  1  0  0  0
 22 23  1  0  0  0  0
 23 24  1  6  0  0  0
 24 25  1  0  0  0  0
 25 26  1  0  0  0  0
M  CHG  2  13  -1  18  -1
M  END
>  <CHROM.1>
169.91244472,51.30236423,24.38629904,-104.04054087,-67.15803387,57.97820444
178.46514876,-76.17950460,24.59571878,40.40349841,67.56817836,0.32187913
-0.40979097,1.51718690

>  <Name>
ligand

>  <RI>
0

>  <Rbt.Current_Directory>
/home/itssahil/PROJECTS/Mol_Feturizer/New_Systems/rnas/2HOJ

>  <Rbt.Executable>
rbdock ($Id: //depot/dev/client3/rdock/2013.1/src/exe/rbdock.cxx#4 $)

>  <Rbt.Library>
libRbt.so (2013.1, Build901 2013/11/27)

>  <Rbt.Parameter_File>
/export/apps/rDock/src/rDock_2013.1_src/data/scripts/dock_solv.prm

>  <Rbt.Receptor>
prm/pocket_docking_3.prm

>  <SCORE>
-1.94749

>  <SCORE.INTER>
0.485172

>  <SCORE.INTER.CONST>
1

>  <SCORE.INTER.POLAR>
-1.36431

>  <SCORE.INTER.ROT>
8

>  <SCORE.INTER.SOLV>
30.6064

>  <SCORE.INTER.VDW>
-14.2643

>  <SCORE.INTER.norm>
0.0186605

>  <SCORE.INTRA>
-2.59409

>  <SCORE.INTRA.DIHEDRAL>
-3.89988

>  <SCORE.INTRA.DIHEDRAL.0>
11.6398

>  <SCORE.INTRA.POLAR>
0

>  <SCORE.INTRA.POLAR.0>
0

>  <SCORE.INTRA.REPUL>
0

>  <SCORE.INTRA.REPUL.0>
0

>  <SCORE.INTRA.SOLV>
1.95011

>  <SCORE.INTRA.SOLV.lig_0>
-81.722

>  <SCORE.INTRA.VDW>
-1.61921

>  <SCORE.INTRA.VDW.0>
1.12598

>  <SCORE.INTRA.norm>
-0.0997726

>  <SCORE.RESTR>
0.161424

>  <SCORE.RESTR.CAVITY>
0.161424

>  <SCORE.RESTR.norm>
0.00620863

>  <SCORE.SYSTEM>
0

>  <SCORE.SYSTEM.CONST>
0

>  <SCORE.SYSTEM.DIHEDRAL>
0

>  <SCORE.SYSTEM.SOLV>
0

>  <SCORE.SYSTEM.norm>
0

>  <SCORE.heavy>
26

>  <SCORE.norm>
-0.0749035

>  <RMSD>
8.219

$$$$
ligand
 OpenBabel11021811433D
libRbt.so/2013.1/901 2013/11/27
 26 27  0  0  0  0  0  0  0  0999 V2000
   28.3201   39.1900   74.2732 C   0  0  0  0  0  0  0  0  0  0  0  0
   23.9246   37.8251   68.4009 C   0  0  0  0  0  0  0  0  0  0  0  0
   24.8462   41.7767   65.2833 P   0  0  1  0  0  0  0  0  0  0  0  0
   23.0039   42.3405   67.0081 P   0  0  1  0  0  0  0  0  0  0  0  0
   25.6573   36.3997   70.0849 C   0  0  0  0  0  0  0  0  0  0  0  0
   26.9147   38.3834   70.9768 C   0  0  0  0  0  0  0  0  0  0  0  0
   26.3619   37.1371   71.1944 C   0  0  0  0  0  0  0  0  0  0  0  0
   26.4718   36.5774   72.4685 C   0  0  0  0  0  0  0  0  0  0  0  0
   25.9339   35.3279   72.7382 N   0  0  0  0  0  0  0  0  0  0  0  0
   27.1056   37.2579   73.4190 N   0  0  0  0  0  0  0  0  0  0  0  0
   27.6144   38.4469   73.1691 C   0  0  0  0  0  0  0  0  0  0  0  0
   27.5277   39.0031   71.9765 N   0  0  0  0  0  0  0  0  0  0  0  0
   24.4143   42.9684   64.5185 O   0  5  0  0  0  0  0  0  0  0  0  0
   21.8253   41.7987   67.8469 O   0  0  0  0  0  0  0  0  0  0  0  0
   27.5052   37.3582   66.8830 S   0  0  0  0  0  0  0  0  0  0  0  0
   27.3967   36.6158   68.4496 C   0  0  0  0  0  0  0  0  0  0  0  0
   25.9884   42.1979   66.3348 O   0  0  0  0  0  0  0  0  0  0  0  0
   24.1632   42.8721   67.9897 O   0  5  0  0  0  0  0  0  0  0  0  0
   26.1550   36.8721   68.7910 N   0  0  0  0  0  0  0  0  0  0  0  0
   23.5860   41.1629   66.0763 O   0  0  0  0  0  0  0  0  0  0  0  0
   22.5099   43.5033   66.1182 O   0  0  0  0  0  0  0  0  0  0  0  0
   25.3487   37.5399   67.9951 C   0  0  2  0  0  0  0  0  0  0  0  0
   25.8298   37.9736   66.8022 C   0  0  2  0  0  0  0  0  0  0  0  0
   25.1419   38.7531   65.7123 C   0  0  0  0  0  0  0  0  0  0  0  0
   26.1387   39.7164   65.0639 C   0  0  0  0  0  0  0  0  0  0  0  0
   25.4306   40.6702   64.2697 O   0  0  0  0  0  0  0  0  0  0  0  0
  1 11  1  0  0  0  0
  3 13  1  6  0  0  0
  3 17  2  0  0  0  0
  3 20  1  0  0  0  0
  3 26  1  0  0  0  0
  4 14  1  1  0  0  0
  4 18  1  0  0  0  0
  4 21  2  0  0  0  0
  4 20  1  0  0  0  0
  5 19  1  0  0  0  0
  5  7  1  0  0  0  0
  6  7  2  0  0  0  0
  6 12  1  0  0  0  0
  7  8  1  0  0  0  0
  8  9  1  0  0  0  0
  8 10  2  0  0  0  0
 10 11  1  0  0  0  0
 11 12  2  0  0  0  0
 15 23  1  0  0  0  0
 15 16  1  0  0  0  0
 16 19  1  0  0  0  0
 19 22  1  0  0  0  0
 22  2  1  1  0  0  0
 22 23  1  0  0  0  0
 23 24  1  6  0  0  0
 24 25  1  0  0  0  0
 25 26  1  0  0  0  0
M  CHG  2  13  -1  18  -1
M  END
>  <CHROM.1>
-57.01999388,67.25326361,24.29792015,-177.52985105,-35.64436744,-166.08482433
79.36426563,165.21921583,25.44678735,39.51952327,68.21513089,0.77849714,-1.04927117
1.51222000

>  <Name>
ligand

>  <RI>
0

>  <Rbt.Current_Directory>
/home/itssahil/PROJECTS/Mol_Feturizer/New_Systems/rnas/2HOJ

>  <Rbt.Executable>
rbdock ($Id: //depot/dev/client3/rdock/2013.1/src/exe/rbdock.cxx#4 $)

>  <Rbt.Library>
libRbt.so (2013.1, Build901 2013/11/27)

>  <Rbt.Parameter_File>
/export/apps/rDock/src/rDock_2013.1_src/data/scripts/dock_solv.prm

>  <Rbt.Receptor>
prm/pocket_docking_6.prm

>  <SCORE>
-9.2383

>  <SCORE.INTER>
-6.96588

>  <SCORE.INTER.CONST>
1

>  <SCORE.INTER.POLAR>
0

>  <SCORE.INTER.ROT>
8

>  <SCORE.INTER.SOLV>
10.0954

>  <SCORE.INTER.VDW>
-16.9424

>  <SCORE.INTER.norm>
-0.267919

>  <SCORE.INTRA>
-2.27242

>  <SCORE.INTRA.DIHEDRAL>
-3.93541

>  <SCORE.INTRA.DIHEDRAL.0>
11.6398

>  <SCORE.INTRA.POLAR>
0

>  <SCORE.INTRA.POLAR.0>
0

>  <SCORE.INTRA.REPUL>
0

>  <SCORE.INTRA.REPUL.0>
0

>  <SCORE.INTRA.SOLV>
3.90235

>  <SCORE.INTRA.SOLV.lig_0>
-81.722

>  <SCORE.INTRA.VDW>
-2.25589

>  <SCORE.INTRA.VDW.0>
1.12598

>  <SCORE.INTRA.norm>
-0.0874007

>  <SCORE.RESTR>
0

>  <SCORE.RESTR.CAVITY>
0

>  <SCORE.RESTR.norm>
0

>  <SCORE.SYSTEM>
0

>  <SCORE.SYSTEM.CONST>
0

>  <SCORE.SYSTEM.DIHEDRAL>
0

>  <SCORE.SYSTEM.SOLV>
0

>  <SCORE.SYSTEM.norm>
0

>  <SCORE.heavy>
26

>  <SCORE.norm>
-0.355319

>  <RMSD>
8.222

$$$$
ligand
 OpenBabel11021811433D
libRbt.so/2013.1/901 2013/11/27
 26 27  0  0  0  0  0  0  0  0999 V2000
   23.7409   33.9350   71.5169 C   0  0  0  0  0  0  0  0  0  0  0  0
   27.0937   39.6918   69.2215 C   0  0  0  0  0  0  0  0  0  0  0  0
   23.6965   44.5387   65.6711 P   0  0  1  0  0  0  0  0  0  0  0  0
   21.3531   43.8915   66.5522 P   0  0  1  0  0  0  0  0  0  0  0  0
   27.0749   37.0972   68.1550 C   0  0  0  0  0  0  0  0  0  0  0  0
   25.0216   36.7710   69.5654 C   0  0  0  0  0  0  0  0  0  0  0  0
   26.1934   36.2591   69.0448 C   0  0  0  0  0  0  0  0  0  0  0  0
   26.5409   34.9452   69.3634 C   0  0  0  0  0  0  0  0  0  0  0  0
   27.7080   34.3845   68.8663 N   0  0  0  0  0  0  0  0  0  0  0  0
   25.7388   34.2403   70.1558 N   0  0  0  0  0  0  0  0  0  0  0  0
   24.6270   34.7668   70.6269 C   0  0  0  0  0  0  0  0  0  0  0  0
   24.2706   36.0047   70.3451 N   0  0  0  0  0  0  0  0  0  0  0  0
   24.6625   44.4117   64.5565 O   0  5  0  0  0  0  0  0  0  0  0  0
   21.5036   45.2535   67.2653 O   0  0  0  0  0  0  0  0  0  0  0  0
   24.8068   39.3453   66.0605 S   0  0  0  0  0  0  0  0  0  0  0  0
   25.5586   37.8282   66.4484 C   0  0  0  0  0  0  0  0  0  0  0  0
   23.4594   46.0951   66.0018 O   0  0  0  0  0  0  0  0  0  0  0  0
   19.8199   43.6824   66.1097 O   0  5  0  0  0  0  0  0  0  0  0  0
   26.2700   38.1358   67.5081 N   0  0  0  0  0  0  0  0  0  0  0  0
   22.2983   43.8604   65.2486 O   0  0  0  0  0  0  0  0  0  0  0  0
   21.7696   42.7578   67.5162 O   0  0  0  0  0  0  0  0  0  0  0  0
   26.2723   39.3545   68.0027 C   0  0  2  0  0  0  0  0  0  0  0  0
   25.5239   40.3044   67.3863 C   0  0  2  0  0  0  0  0  0  0  0  0
   25.3446   41.7605   67.7274 C   0  0  0  0  0  0  0  0  0  0  0  0
   24.6511   42.4771   66.5665 C   0  0  0  0  0  0  0  0  0  0  0  0
   24.2793   43.7950   66.9750 O   0  0  0  0  0  0  0  0  0  0  0  0
  1 11  1  0  0  0  0
  3 13  1  6  0  0  0
  3 17  2  0  0  0  0
  3 20  1  0  0  0  0
  3 26  1  0  0  0  0
  4 14  1  1  0  0  0
  4 18  1  0  0  0  0
  4 21  2  0  0  0  0
  4 20  1  0  0  0  0
  5 19  1  0  0  0  0
  5  7  1  0  0  0  0
  6  7  2  0  0  0  0
  6 12  1  0  0  0  0
  7  8  1  0  0  0  0
  8  9  1  0  0  0  0
  8 10  2  0  0  0  0
 10 11  1  0  0  0  0
 11 12  2  0  0  0  0
 15 23  1  0  0  0  0
 15 16  1  0  0  0  0
 16 19  1  0  0  0  0
 19 22  1  0  0  0  0
 22  2  1  6  0  0  0
 22 23  1  0  0  0  0
 23 24  1  1  0  0  0
 24 25  1  0  0  0  0
 25 26  1  0  0  0  0
M  CHG  2  13  -1  18  -1
M  END
>  <CHROM.1>
174.02397438,-80.65665037,-24.90766341,41.73651552,-12.48953520,170.29156244
174.33590059,-51.60054580,24.32937577,40.38695341,67.50913896,1.22660600
-0.31952951,2.66085928

>  <Name>
ligand

>  <RI>
0

>  <Rbt.Current_Directory>
/home/itssahil/PROJECTS/Mol_Feturizer/New_Systems/rnas/2HOJ

>  <Rbt.Executable>
rbdock ($Id: //depot/dev/client3/rdock/2013.1/src/exe/rbdock.cxx#4 $)

>  <Rbt.Library>
libRbt.so (2013.1, Build901 2013/11/27)

>  <Rbt.Parameter_File>
/export/apps/rDock/src/rDock_2013.1_src/data/scripts/dock_solv.prm

>  <Rbt.Receptor>
prm/pocket_docking_6.prm

>  <SCORE>
-12.2265

>  <SCORE.INTER>
-6.92383

>  <SCORE.INTER.CONST>
1

>  <SCORE.INTER.POLAR>
0

>  <SCORE.INTER.ROT>
8

>  <SCORE.INTER.SOLV>
23.5714

>  <SCORE.INTER.VDW>
-21.4063

>  <SCORE.INTER.norm>
-0.266301

>  <SCORE.INTRA>
-5.30265

>  <SCORE.INTRA.DIHEDRAL>
-5.84764

>  <SCORE.INTRA.DIHEDRAL.0>
11.6398

>  <SCORE.INTRA.POLAR>
0

>  <SCORE.INTRA.POLAR.0>
0

>  <SCORE.INTRA.REPUL>
0

>  <SCORE.INTRA.REPUL.0>
0

>  <SCORE.INTRA.SOLV>
0.38683

>  <SCORE.INTRA.SOLV.lig_0>
-81.722

>  <SCORE.INTRA.VDW>
-2.57224

>  <SCORE.INTRA.VDW.0>
1.12598

>  <SCORE.INTRA.norm>
-0.203948

>  <SCORE.RESTR>
0

>  <SCORE.RESTR.CAVITY>
0

>  <SCORE.RESTR.norm>
0

>  <SCORE.SYSTEM>
0

>  <SCORE.SYSTEM.CONST>
0

>  <SCORE.SYSTEM.DIHEDRAL>
0

>  <SCORE.SYSTEM.SOLV>
0

>  <SCORE.SYSTEM.norm>
0

>  <SCORE.heavy>
26

>  <SCORE.norm>
-0.470249

>  <RMSD>
8.248

$$$$
ligand
 OpenBabel11021811433D
libRbt.so/2013.1/901 2013/11/27
 26 27  0  0  0  0  0  0  0  0999 V2000
   28.0541   38.7529   73.6233 C   0  0  0  0  0  0  0  0  0  0  0  0
   24.6535   38.2331   66.4413 C   0  0  0  0  0  0  0  0  0  0  0  0
   20.9016   43.1061   66.1592 P   0  0  1  0  0  0  0  0  0  0  0  0
   22.8585   44.2895   64.9521 P   0  0  1  0  0  0  0  0  0  0  0  0
   25.4961   37.0369   68.8348 C   0  0  0  0  0  0  0  0  0  0  0  0
   25.9647   36.8289   71.2943 C   0  0  0  0  0  0  0  0  0  0  0  0
   26.1738   37.4923   70.1015 C   0  0  0  0  0  0  0  0  0  0  0  0
   27.0292   38.5954   70.0987 C   0  0  0  0  0  0  0  0  0  0  0  0
   27.2719   39.2960   68.9266 N   0  0  0  0  0  0  0  0  0  0  0  0
   27.6040   38.9684   71.2383 N   0  0  0  0  0  0  0  0  0  0  0  0
   27.3802   38.3036   72.3532 C   0  0  0  0  0  0  0  0  0  0  0  0
   26.5776   37.2579   72.3895 N   0  0  0  0  0  0  0  0  0  0  0  0
   21.6032   43.4730   67.4101 O   0  5  0  0  0  0  0  0  0  0  0  0
   23.4687   42.8717   64.8898 O   0  0  0  0  0  0  0  0  0  0  0  0
   21.9349   38.3499   69.2587 S   0  0  0  0  0  0  0  0  0  0  0  0
   23.3755   37.5599   69.8227 C   0  0  0  0  0  0  0  0  0  0  0  0
   19.3137   43.0960   66.4169 O   0  0  0  0  0  0  0  0  0  0  0  0
   23.2924   45.1198   63.6435 O   0  5  0  0  0  0  0  0  0  0  0  0
   24.1518   37.6139   68.7651 N   0  0  0  0  0  0  0  0  0  0  0  0
   21.2528   44.1810   65.0125 O   0  0  0  0  0  0  0  0  0  0  0  0
   23.3724   45.0152   66.2159 O   0  0  0  0  0  0  0  0  0  0  0  0
   23.7496   38.1777   67.6470 C   0  0  2  0  0  0  0  0  0  0  0  0
   22.4986   38.7025   67.6005 C   0  0  2  0  0  0  0  0  0  0  0  0
   21.7857   39.3933   66.4676 C   0  0  0  0  0  0  0  0  0  0  0  0
   21.4774   40.8395   66.8622 C   0  0  0  0  0  0  0  0  0  0  0  0
   21.3783   41.6430   65.6847 O   0  0  0  0  0  0  0  0  0  0  0  0
  1 11  1  0  0  0  0
  3 13  1  1  0  0  0
  3 17  2  0  0  0  0
  3 20  1  0  0  0  0
  3 26  1  0  0  0  0
  4 14  1  6  0  0  0
  4 18  1  0  0  0  0
  4 21  2  0  0  0  0
  4 20  1  0  0  0  0
  5 19  1  0  0  0  0
  5  7  1  0  0  0  0
  6  7  2  0  0  0  0
  6 12  1  0  0  0  0
  7  8  1  0  0  0  0
  8  9  1  0  0  0  0
  8 10  2  0  0  0  0
 10 11  1  0  0  0  0
 11 12  2  0  0  0  0
 15 23  1  0  0  0  0
 15 16  1  0  0  0  0
 16 19  1  0  0  0  0
 19 22  1  0  0  0  0
 22  2  1  6  0  0  0
 22 23  1  0  0  0  0
 23 24  1  1  0  0  0
 24 25  1  0  0  0  0
 25 26  1  0  0  0  0
M  CHG  2  13  -1  18  -1
M  END
>  <CHROM.1>
52.15973968,-46.95000620,84.34583835,48.82834507,62.87420776,154.05360222
174.13309193,40.51534616,23.59685518,40.55126632,67.86222030,-1.01044407
-0.42286994,-0.50688288

>  <Name>
ligand

>  <RI>
0

>  <Rbt.Current_Directory>
/home/itssahil/PROJECTS/Mol_Feturizer/New_Systems/rnas/2HOJ

>  <Rbt.Executable>
rbdock ($Id: //depot/dev/client3/rdock/2013.1/src/exe/rbdock.cxx#4 $)

>  <Rbt.Library>
libRbt.so (2013.1, Build901 2013/11/27)

>  <Rbt.Parameter_File>
/export/apps/rDock/src/rDock_2013.1_src/data/scripts/dock_solv.prm

>  <Rbt.Receptor>
prm/pocket_docking_5.prm

>  <SCORE>
-13.7986

>  <SCORE.INTER>
-10.2666

>  <SCORE.INTER.CONST>
1

>  <SCORE.INTER.POLAR>
0

>  <SCORE.INTER.ROT>
8

>  <SCORE.INTER.SOLV>
22.7275

>  <SCORE.INTER.VDW>
-23.3536

>  <SCORE.INTER.norm>
-0.39487

>  <SCORE.INTRA>
-3.53196

>  <SCORE.INTRA.DIHEDRAL>
-3.26211

>  <SCORE.INTRA.DIHEDRAL.0>
11.6398

>  <SCORE.INTRA.POLAR>
0

>  <SCORE.INTRA.POLAR.0>
0

>  <SCORE.INTRA.REPUL>
0

>  <SCORE.INTRA.REPUL.0>
0

>  <SCORE.INTRA.SOLV>
1.2133

>  <SCORE.INTRA.SOLV.lig_0>
-81.722

>  <SCORE.INTRA.VDW>
-2.50756

>  <SCORE.INTRA.VDW.0>
1.12598

>  <SCORE.INTRA.norm>
-0.135845

>  <SCORE.RESTR>
0

>  <SCORE.RESTR.CAVITY>
0

>  <SCORE.RESTR.norm>
0

>  <SCORE.SYSTEM>
0

>  <SCORE.SYSTEM.CONST>
0

>  <SCORE.SYSTEM.DIHEDRAL>
0

>  <SCORE.SYSTEM.SOLV>
0

>  <SCORE.SYSTEM.norm>
0

>  <SCORE.heavy>
26

>  <SCORE.norm>
-0.530715

>  <RMSD>
8.291

$$$$
ligand
 OpenBabel11021811433D
libRbt.so/2013.1/901 2013/11/27
 26 27  0  0  0  0  0  0  0  0999 V2000
   26.0268   37.1413   75.5895 C   0  0  0  0  0  0  0  0  0  0  0  0
   24.5160   37.4120   68.8514 C   0  0  0  0  0  0  0  0  0  0  0  0
   22.4847   41.4965   67.4484 P   0  0  1  0  0  0  0  0  0  0  0  0
   23.3914   43.7692   66.6120 P   0  0  1  0  0  0  0  0  0  0  0  0
   24.5598   35.1225   70.4718 C   0  0  0  0  0  0  0  0  0  0  0  0
   24.1717   35.4034   72.9380 C   0  0  0  0  0  0  0  0  0  0  0  0
   24.9493   35.6575   71.8258 C   0  0  0  0  0  0  0  0  0  0  0  0
   26.1057   36.4225   71.9873 C   0  0  0  0  0  0  0  0  0  0  0  0
   26.9205   36.7063   70.9014 N   0  0  0  0  0  0  0  0  0  0  0  0
   26.4120   36.8804   73.1976 N   0  0  0  0  0  0  0  0  0  0  0  0
   25.6438   36.6099   74.2329 C   0  0  0  0  0  0  0  0  0  0  0  0
   24.5449   35.8907   74.1138 N   0  0  0  0  0  0  0  0  0  0  0  0
   22.9274   40.6014   66.3555 O   0  5  0  0  0  0  0  0  0  0  0  0
   23.9347   44.2361   67.9806 O   0  0  0  0  0  0  0  0  0  0  0  0
   20.9379   36.1171   69.7802 S   0  0  0  0  0  0  0  0  0  0  0  0
   22.1628   35.1110   70.4907 C   0  0  0  0  0  0  0  0  0  0  0  0
   23.6938   41.7152   68.4868 O   0  0  0  0  0  0  0  0  0  0  0  0
   24.4932   42.8525   65.8801 O   0  5  0  0  0  0  0  0  0  0  0  0
   23.2675   35.6870   70.0764 N   0  0  0  0  0  0  0  0  0  0  0  0
   22.0426   42.9171   66.8319 O   0  0  0  0  0  0  0  0  0  0  0  0
   23.0826   45.0026   65.7337 O   0  0  0  0  0  0  0  0  0  0  0  0
   23.2384   36.7611   69.3180 C   0  0  2  0  0  0  0  0  0  0  0  0
   22.0311   37.2665   68.9580 C   0  0  2  0  0  0  0  0  0  0  0  0
   21.7040   38.4648   68.1061 C   0  0  0  0  0  0  0  0  0  0  0  0
   21.7459   39.7308   68.9649 C   0  0  0  0  0  0  0  0  0  0  0  0
   21.2329   40.8326   68.2133 O   0  0  0  0  0  0  0  0  0  0  0  0
  1 11  1  0  0  0  0
  3 13  1  6  0  0  0
  3 17  2  0  0  0  0
  3 20  1  0  0  0  0
  3 26  1  0  0  0  0
  4 14  1  1  0  0  0
  4 18  1  0  0  0  0
  4 21  2  0  0  0  0
  4 20  1  0  0  0  0
  5 19  1  0  0  0  0
  5  7  1  0  0  0  0
  6  7  2  0  0  0  0
  6 12  1  0  0  0  0
  7  8  1  0  0  0  0
  8  9  1  0  0  0  0
  8 10  2  0  0  0  0
 10 11  1  0  0  0  0
 11 12  2  0  0  0  0
 15 23  1  0  0  0  0
 15 16  1  0  0  0  0
 16 19  1  0  0  0  0
 19 22  1  0  0  0  0
 22  2  1  6  0  0  0
 22 23  1  0  0  0  0
 23 24  1  1  0  0  0
 24 25  1  0  0  0  0
 25 26  1  0  0  0  0
M  CHG  2  13  -1  18  -1
M  END
>  <CHROM.1>
-81.88102260,-84.90039133,62.02056712,-72.88802121,96.07194953,-170.91391902
-89.97883418,71.81664244,23.49438476,39.10152918,69.39323914,-1.33971556
-0.69064356,-0.52079769

>  <Name>
ligand

>  <RI>
0

>  <Rbt.Current_Directory>
/home/itssahil/PROJECTS/Mol_Feturizer/New_Systems/rnas/2HOJ

>  <Rbt.Executable>
rbdock ($Id: //depot/dev/client3/rdock/2013.1/src/exe/rbdock.cxx#4 $)

>  <Rbt.Library>
libRbt.so (2013.1, Build901 2013/11/27)

>  <Rbt.Parameter_File>
/export/apps/rDock/src/rDock_2013.1_src/data/scripts/dock_solv.prm

>  <Rbt.Receptor>
prm/pocket_docking_7.prm

>  <SCORE>
-17.6753

>  <SCORE.INTER>
-16.181

>  <SCORE.INTER.CONST>
1

>  <SCORE.INTER.POLAR>
0

>  <SCORE.INTER.ROT>
8

>  <SCORE.INTER.SOLV>
13.5886

>  <SCORE.INTER.VDW>
-24.2502

>  <SCORE.INTER.norm>
-0.622346

>  <SCORE.INTRA>
-1.5081

>  <SCORE.INTRA.DIHEDRAL>
-1.80284

>  <SCORE.INTRA.DIHEDRAL.0>
11.6398

>  <SCORE.INTRA.POLAR>
0

>  <SCORE.INTRA.POLAR.0>
0

>  <SCORE.INTRA.REPUL>
0

>  <SCORE.INTRA.REPUL.0>
0

>  <SCORE.INTRA.SOLV>
4.81672

>  <SCORE.INTRA.SOLV.lig_0>
-81.722

>  <SCORE.INTRA.VDW>
-3.01504

>  <SCORE.INTRA.VDW.0>
1.12598

>  <SCORE.INTRA.norm>
-0.0580039

>  <SCORE.RESTR>
0.0138029

>  <SCORE.RESTR.CAVITY>
0.0138029

>  <SCORE.RESTR.norm>
0.000530882

>  <SCORE.SYSTEM>
0

>  <SCORE.SYSTEM.CONST>
0

>  <SCORE.SYSTEM.DIHEDRAL>
0

>  <SCORE.SYSTEM.SOLV>
0

>  <SCORE.SYSTEM.norm>
0

>  <SCORE.heavy>
26

>  <SCORE.norm>
-0.679819

>  <RMSD>
8.320

$$$$
ligand
 OpenBabel11021811433D
libRbt.so/2013.1/901 2013/11/27
 26 27  0  0  0  0  0  0  0  0999 V2000
   28.1284   39.9979   72.1997 C   0  0  0  0  0  0  0  0  0  0  0  0
   25.4352   41.7887   65.4938 C   0  0  0  0  0  0  0  0  0  0  0  0
   21.4159   42.0394   67.2690 P   0  0  1  0  0  0  0  0  0  0  0  0
   21.6010   44.4897   66.4636 P   0  0  1  0  0  0  0  0  0  0  0  0
   27.6768   40.4686   66.5435 C   0  0  0  0  0  0  0  0  0  0  0  0
   27.0858   41.1761   68.8805 C   0  0  0  0  0  0  0  0  0  0  0  0
   27.7974   40.3429   68.0404 C   0  0  0  0  0  0  0  0  0  0  0  0
   28.6312   39.3808   68.6129 C   0  0  0  0  0  0  0  0  0  0  0  0
   29.3675   38.5201   67.8126 N   0  0  0  0  0  0  0  0  0  0  0  0
   28.7137   39.3054   69.9380 N   0  0  0  0  0  0  0  0  0  0  0  0
   28.0131   40.1176   70.7025 C   0  0  0  0  0  0  0  0  0  0  0  0
   27.2168   41.0371   70.1931 N   0  0  0  0  0  0  0  0  0  0  0  0
   21.5432   41.1123   68.4162 O   0  5  0  0  0  0  0  0  0  0  0  0
   21.6665   45.9722   66.8928 O   0  0  0  0  0  0  0  0  0  0  0  0
   25.0594   37.8899   65.5021 S   0  0  0  0  0  0  0  0  0  0  0  0
   26.5948   38.3639   66.1617 C   0  0  0  0  0  0  0  0  0  0  0  0
   19.9377   41.9225   66.6451 O   0  0  0  0  0  0  0  0  0  0  0  0
   22.8410   44.1552   65.4937 O   0  5  0  0  0  0  0  0  0  0  0  0
   26.5395   39.6730   66.0762 N   0  0  0  0  0  0  0  0  0  0  0  0
   21.6700   43.5490   67.7690 O   0  0  0  0  0  0  0  0  0  0  0  0
   20.2756   44.2301   65.7126 O   0  0  0  0  0  0  0  0  0  0  0  0
   25.4841   40.2843   65.5840 C   0  0  2  0  0  0  0  0  0  0  0  0
   24.4421   39.5294   65.1516 C   0  0  2  0  0  0  0  0  0  0  0  0
   23.1294   39.9555   64.5482 C   0  0  0  0  0  0  0  0  0  0  0  0
   22.1602   40.3580   65.6620 C   0  0  0  0  0  0  0  0  0  0  0  0
   22.5049   41.6576   66.1459 O   0  0  0  0  0  0  0  0  0  0  0  0
  1 11  1  0  0  0  0
  3 13  1  1  0  0  0
  3 17  2  0  0  0  0
  3 20  1  0  0  0  0
  3 26  1  0  0  0  0
  4 14  1  1  0  0  0
  4 18  1  0  0  0  0
  4 21  2  0  0  0  0
  4 20  1  0  0  0  0
  5 19  1  0  0  0  0
  5  7  1  0  0  0  0
  6  7  2  0  0  0  0
  6 12  1  0  0  0  0
  7  8  1  0  0  0  0
  8  9  1  0  0  0  0
  8 10  2  0  0  0  0
 10 11  1  0  0  0  0
 11 12  2  0  0  0  0
 15 23  1  0  0  0  0
 15 16  1  0  0  0  0
 16 19  1  0  0  0  0
 19 22  1  0  0  0  0
 22  2  1  6  0  0  0
 22 23  1  0  0  0  0
 23 24  1  1  0  0  0
 24 25  1  0  0  0  0
 25 26  1  0  0  0  0
M  CHG  2  13  -1  18  -1
M  END
>  <CHROM.1>
176.81720132,-67.56239712,-86.49877856,173.20211054,98.20589474,76.98547810
177.85005883,64.90616080,24.37890849,41.20453835,67.10241994,-0.13362929
-0.58602592,0.83946106

>  <Name>
ligand

>  <RI>
0

>  <Rbt.Current_Directory>
/home/itssahil/PROJECTS/Mol_Feturizer/New_Systems/rnas/2HOJ

>  <Rbt.Executable>
rbdock ($Id: //depot/dev/client3/rdock/2013.1/src/exe/rbdock.cxx#4 $)

>  <Rbt.Library>
libRbt.so (2013.1, Build901 2013/11/27)

>  <Rbt.Parameter_File>
/export/apps/rDock/src/rDock_2013.1_src/data/scripts/dock_solv.prm

>  <Rbt.Receptor>
prm/pocket_docking_5.prm

>  <SCORE>
-11.8846

>  <SCORE.INTER>
-7.28941

>  <SCORE.INTER.CONST>
1

>  <SCORE.INTER.POLAR>
0

>  <SCORE.INTER.ROT>
8

>  <SCORE.INTER.SOLV>
23.3316

>  <SCORE.INTER.VDW>
-21.5701

>  <SCORE.INTER.norm>
-0.280362

>  <SCORE.INTRA>
-4.59518

>  <SCORE.INTRA.DIHEDRAL>
-5.74561

>  <SCORE.INTRA.DIHEDRAL.0>
11.6398

>  <SCORE.INTRA.POLAR>
0

>  <SCORE.INTRA.POLAR.0>
0

>  <SCORE.INTRA.REPUL>
0

>  <SCORE.INTRA.REPUL.0>
0

>  <SCORE.INTRA.SOLV>
4.50427

>  <SCORE.INTRA.SOLV.lig_0>
-81.722

>  <SCORE.INTRA.VDW>
-3.97451

>  <SCORE.INTRA.VDW.0>
1.12598

>  <SCORE.INTRA.norm>
-0.176738

>  <SCORE.RESTR>
0

>  <SCORE.RESTR.CAVITY>
0

>  <SCORE.RESTR.norm>
0

>  <SCORE.SYSTEM>
0

>  <SCORE.SYSTEM.CONST>
0

>  <SCORE.SYSTEM.DIHEDRAL>
0

>  <SCORE.SYSTEM.SOLV>
0

>  <SCORE.SYSTEM.norm>
0

>  <SCORE.heavy>
26

>  <SCORE.norm>
-0.4571

>  <RMSD>
8.337

$$$$
ligand
 OpenBabel11021811433D
libRbt.so/2013.1/901 2013/11/27
 26 27  0  0  0  0  0  0  0  0999 V2000
   26.0045   37.1051   75.5649 C   0  0  0  0  0  0  0  0  0  0  0  0
   24.4620   37.5177   68.6007 C   0  0  0  0  0  0  0  0  0  0  0  0
   23.1053   41.1408   66.8360 P   0  0  1  0  0  0  0  0  0  0  0  0
   22.5442   43.6563   66.6254 P   0  0  1  0  0  0  0  0  0  0  0  0
   24.5360   35.3319   70.3575 C   0  0  0  0  0  0  0  0  0  0  0  0
   24.1791   35.4489   72.8415 C   0  0  0  0  0  0  0  0  0  0  0  0
   24.9258   35.8020   71.7352 C   0  0  0  0  0  0  0  0  0  0  0  0
   26.0515   36.6054   71.9253 C   0  0  0  0  0  0  0  0  0  0  0  0
   26.8346   36.9881   70.8465 N   0  0  0  0  0  0  0  0  0  0  0  0
   26.3590   37.0035   73.1563 N   0  0  0  0  0  0  0  0  0  0  0  0
   25.6210   36.6390   74.1847 C   0  0  0  0  0  0  0  0  0  0  0  0
   24.5517   35.8812   74.0388 N   0  0  0  0  0  0  0  0  0  0  0  0
   23.3478   39.8744   66.1087 O   0  5  0  0  0  0  0  0  0  0  0  0
   22.5025   44.8811   65.6849 O   0  0  0  0  0  0  0  0  0  0  0  0
   20.9078   36.3807   69.7908 S   0  0  0  0  0  0  0  0  0  0  0  0
   22.1438   35.3870   70.4995 C   0  0  0  0  0  0  0  0  0  0  0  0
   24.3575   41.4581   67.7947 O   0  0  0  0  0  0  0  0  0  0  0  0
   21.1030   43.4571   67.3134 O   0  5  0  0  0  0  0  0  0  0  0  0
   23.2387   35.9061   69.9940 N   0  0  0  0  0  0  0  0  0  0  0  0
   22.9219   42.3404   65.7772 O   0  0  0  0  0  0  0  0  0  0  0  0
   23.6100   43.8853   67.7207 O   0  0  0  0  0  0  0  0  0  0  0  0
   23.1954   36.9319   69.1719 C   0  0  2  0  0  0  0  0  0  0  0  0
   21.9834   37.4470   68.8432 C   0  0  2  0  0  0  0  0  0  0  0  0
   21.6408   38.5991   67.9354 C   0  0  0  0  0  0  0  0  0  0  0  0
   21.9862   39.9186   68.6296 C   0  0  0  0  0  0  0  0  0  0  0  0
   21.7695   41.0031   67.7247 O   0  0  0  0  0  0  0  0  0  0  0  0
  1 11  1  0  0  0  0
  3 13  1  6  0  0  0
  3 17  2  0  0  0  0
  3 20  1  0  0  0  0
  3 26  1  0  0  0  0
  4 14  1  6  0  0  0
  4 18  1  0  0  0  0
  4 21  2  0  0  0  0
  4 20  1  0  0  0  0
  5 19  1  0  0  0  0
  5  7  1  0  0  0  0
  6  7  2  0  0  0  0
  6 12  1  0  0  0  0
  7  8  1  0  0  0  0
  8  9  1  0  0  0  0
  8 10  2  0  0  0  0
 10 11  1  0  0  0  0
 11 12  2  0  0  0  0
 15 23  1  0  0  0  0
 15 16  1  0  0  0  0
 16 19  1  0  0  0  0
 19 22  1  0  0  0  0
 22  2  1  6  0  0  0
 22 23  1  0  0  0  0
 23 24  1  1  0  0  0
 24 25  1  0  0  0  0
 25 26  1  0  0  0  0
M  CHG  2  13  -1  18  -1
M  END
>  <CHROM.1>
175.48499590,-77.65550589,64.28692222,173.95666847,105.67724948,175.01760407
-84.56927571,59.40921321,23.39781353,39.10935949,69.24279289,-1.24843548
-0.74071467,-0.48920406

>  <Name>
ligand

>  <RI>
0

>  <Rbt.Current_Directory>
/home/itssahil/PROJECTS/Mol_Feturizer/New_Systems/rnas/2HOJ

>  <Rbt.Executable>
rbdock ($Id: //depot/dev/client3/rdock/2013.1/src/exe/rbdock.cxx#4 $)

>  <Rbt.Library>
libRbt.so (2013.1, Build901 2013/11/27)

>  <Rbt.Parameter_File>
/export/apps/rDock/src/rDock_2013.1_src/data/scripts/dock_solv.prm

>  <Rbt.Receptor>
prm/pocket_docking_7.prm

>  <SCORE>
-15.9927

>  <SCORE.INTER>
-14.2366

>  <SCORE.INTER.CONST>
1

>  <SCORE.INTER.POLAR>
0

>  <SCORE.INTER.ROT>
8

>  <SCORE.INTER.SOLV>
14.1302

>  <SCORE.INTER.VDW>
-23.1344

>  <SCORE.INTER.norm>
-0.54756

>  <SCORE.INTRA>
-1.75615

>  <SCORE.INTRA.DIHEDRAL>
-4.23642

>  <SCORE.INTRA.DIHEDRAL.0>
11.6398

>  <SCORE.INTRA.POLAR>
0

>  <SCORE.INTRA.POLAR.0>
0

>  <SCORE.INTRA.REPUL>
0

>  <SCORE.INTRA.REPUL.0>
0

>  <SCORE.INTRA.SOLV>
6.35676

>  <SCORE.INTRA.SOLV.lig_0>
-81.722

>  <SCORE.INTRA.VDW>
-2.81632

>  <SCORE.INTRA.VDW.0>
1.12598

>  <SCORE.INTRA.norm>
-0.0675441

>  <SCORE.RESTR>
0

>  <SCORE.RESTR.CAVITY>
0

>  <SCORE.RESTR.norm>
0

>  <SCORE.SYSTEM>
0

>  <SCORE.SYSTEM.CONST>
0

>  <SCORE.SYSTEM.DIHEDRAL>
0

>  <SCORE.SYSTEM.SOLV>
0

>  <SCORE.SYSTEM.norm>
0

>  <SCORE.heavy>
26

>  <SCORE.norm>
-0.615104

>  <RMSD>
8.365

$$$$
ligand
 OpenBabel11021811433D
libRbt.so/2013.1/901 2013/11/27
 26 27  0  0  0  0  0  0  0  0999 V2000
   29.3026   35.7905   64.5408 C   0  0  0  0  0  0  0  0  0  0  0  0
   24.8814   39.2112   67.3665 C   0  0  0  0  0  0  0  0  0  0  0  0
   20.8441   41.2331   66.4598 P   0  0  1  0  0  0  0  0  0  0  0  0
   21.1628   43.7842   66.7371 P   0  0  1  0  0  0  0  0  0  0  0  0
   26.8888   38.2492   69.0737 C   0  0  0  0  0  0  0  0  0  0  0  0
   27.8657   38.3398   66.7609 C   0  0  0  0  0  0  0  0  0  0  0  0
   27.5276   37.5971   67.8746 C   0  0  0  0  0  0  0  0  0  0  0  0
   27.7928   36.2266   67.8618 C   0  0  0  0  0  0  0  0  0  0  0  0
   27.4718   35.4364   68.9554 N   0  0  0  0  0  0  0  0  0  0  0  0
   28.3530   35.6884   66.7825 N   0  0  0  0  0  0  0  0  0  0  0  0
   28.6638   36.4354   65.7431 C   0  0  0  0  0  0  0  0  0  0  0  0
   28.4262   37.7324   65.7235 N   0  0  0  0  0  0  0  0  0  0  0  0
   19.6469   41.6088   65.6742 O   0  5  0  0  0  0  0  0  0  0  0  0
   19.7232   44.1235   66.2911 O   0  0  0  0  0  0  0  0  0  0  0  0
   23.5658   36.5902   69.9629 S   0  0  0  0  0  0  0  0  0  0  0  0
   25.2688   36.8634   70.1696 C   0  0  0  0  0  0  0  0  0  0  0  0
   22.1022   41.0601   65.4724 O   0  0  0  0  0  0  0  0  0  0  0  0
   21.7185   44.9521   67.6949 O   0  5  0  0  0  0  0  0  0  0  0  0
   25.5220   37.7476   69.2326 N   0  0  0  0  0  0  0  0  0  0  0  0
   21.1618   42.3868   67.5376 O   0  0  0  0  0  0  0  0  0  0  0  0
   22.0713   43.6632   65.4929 O   0  0  0  0  0  0  0  0  0  0  0  0
   24.5749   38.1946   68.4371 C   0  0  2  0  0  0  0  0  0  0  0  0
   23.3155   37.7140   68.5968 C   0  0  2  0  0  0  0  0  0  0  0  0
   22.0567   38.0403   67.8367 C   0  0  0  0  0  0  0  0  0  0  0  0
   21.7569   39.5360   67.9599 C   0  0  0  0  0  0  0  0  0  0  0  0
   20.5690   39.8448   67.2280 O   0  0  0  0  0  0  0  0  0  0  0  0
  1 11  1  0  0  0  0
  3 13  1  6  0  0  0
  3 17  2  0  0  0  0
  3 20  1  0  0  0  0
  3 26  1  0  0  0  0
  4 14  1  6  0  0  0
  4 18  1  0  0  0  0
  4 21  2  0  0  0  0
  4 20  1  0  0  0  0
  5 19  1  0  0  0  0
  5  7  1  0  0  0  0
  6  7  2  0  0  0  0
  6 12  1  0  0  0  0
  7  8  1  0  0  0  0
  8  9  1  0  0  0  0
  8 10  2  0  0  0  0
 10 11  1  0  0  0  0
 11 12  2  0  0  0  0
 15 23  1  0  0  0  0
 15 16  1  0  0  0  0
 16 19  1  0  0  0  0
 19 22  1  0  0  0  0
 22  2  1  6  0  0  0
 22 23  1  0  0  0  0
 23 24  1  1  0  0  0
 24 25  1  0  0  0  0
 25 26  1  0  0  0  0
M  CHG  2  13  -1  18  -1
M  END
>  <CHROM.1>
-50.03967839,103.73313180,114.00283262,69.49357810,120.39762846,179.48528889
-138.35164625,179.78734636,23.84775688,39.48173315,67.35940955,-0.63459905
0.46072396,-0.69159729

>  <Name>
ligand

>  <RI>
0

>  <Rbt.Current_Directory>
/home/itssahil/PROJECTS/Mol_Feturizer/New_Systems/rnas/2HOJ

>  <Rbt.Executable>
rbdock ($Id: //depot/dev/client3/rdock/2013.1/src/exe/rbdock.cxx#4 $)

>  <Rbt.Library>
libRbt.so (2013.1, Build901 2013/11/27)

>  <Rbt.Parameter_File>
/export/apps/rDock/src/rDock_2013.1_src/data/scripts/dock_solv.prm

>  <Rbt.Receptor>
prm/pocket_docking_7.prm

>  <SCORE>
-11.2966

>  <SCORE.INTER>
-9.75351

>  <SCORE.INTER.CONST>
1

>  <SCORE.INTER.POLAR>
0

>  <SCORE.INTER.ROT>
8

>  <SCORE.INTER.SOLV>
23.0079

>  <SCORE.INTER.VDW>
-23.105

>  <SCORE.INTER.norm>
-0.375135

>  <SCORE.INTRA>
-1.54305

>  <SCORE.INTRA.DIHEDRAL>
-1.10445

>  <SCORE.INTRA.DIHEDRAL.0>
11.6398

>  <SCORE.INTRA.POLAR>
0

>  <SCORE.INTRA.POLAR.0>
0

>  <SCORE.INTRA.REPUL>
0

>  <SCORE.INTRA.REPUL.0>
0

>  <SCORE.INTRA.SOLV>
3.56666

>  <SCORE.INTRA.SOLV.lig_0>
-81.722

>  <SCORE.INTRA.VDW>
-2.77415

>  <SCORE.INTRA.VDW.0>
1.12598

>  <SCORE.INTRA.norm>
-0.059348

>  <SCORE.RESTR>
0

>  <SCORE.RESTR.CAVITY>
0

>  <SCORE.RESTR.norm>
0

>  <SCORE.SYSTEM>
0

>  <SCORE.SYSTEM.CONST>
0

>  <SCORE.SYSTEM.DIHEDRAL>
0

>  <SCORE.SYSTEM.SOLV>
0

>  <SCORE.SYSTEM.norm>
0

>  <SCORE.heavy>
26

>  <SCORE.norm>
-0.434483

>  <RMSD>
8.530

$$$$
ligand
 OpenBabel11021811433D
libRbt.so/2013.1/901 2013/11/27
 26 27  0  0  0  0  0  0  0  0999 V2000
   26.9619   35.0073   73.3595 C   0  0  0  0  0  0  0  0  0  0  0  0
   24.8637   38.0396   65.7515 C   0  0  0  0  0  0  0  0  0  0  0  0
   21.2363   41.2953   66.7226 P   0  0  1  0  0  0  0  0  0  0  0  0
   20.3785   43.6668   66.1507 P   0  0  1  0  0  0  0  0  0  0  0  0
   25.8228   37.3464   68.2950 C   0  0  0  0  0  0  0  0  0  0  0  0
   25.7803   35.4192   69.9061 C   0  0  0  0  0  0  0  0  0  0  0  0
   26.1248   36.7286   69.6360 C   0  0  0  0  0  0  0  0  0  0  0  0
   26.7605   37.4657   70.6366 C   0  0  0  0  0  0  0  0  0  0  0  0
   27.1266   38.7850   70.4154 N   0  0  0  0  0  0  0  0  0  0  0  0
   27.0049   36.8857   71.8080 N   0  0  0  0  0  0  0  0  0  0  0  0
   26.6631   35.6317   72.0215 C   0  0  0  0  0  0  0  0  0  0  0  0
   26.0613   34.9085   71.0975 N   0  0  0  0  0  0  0  0  0  0  0  0
   22.4172   41.6518   65.9041 O   0  5  0  0  0  0  0  0  0  0  0  0
   19.1106   44.5468   66.0849 O   0  0  0  0  0  0  0  0  0  0  0  0
   22.0250   36.9506   68.2209 S   0  0  0  0  0  0  0  0  0  0  0  0
   23.5782   36.8808   68.9957 C   0  0  0  0  0  0  0  0  0  0  0  0
   21.5171   41.6680   68.2621 O   0  0  0  0  0  0  0  0  0  0  0  0
   21.2197   44.0335   67.4728 O   0  5  0  0  0  0  0  0  0  0  0  0
   24.3837   37.2693   68.0344 N   0  0  0  0  0  0  0  0  0  0  0  0
   19.9529   42.1143   66.1972 O   0  0  0  0  0  0  0  0  0  0  0  0
   21.2482   43.9241   64.8995 O   0  0  0  0  0  0  0  0  0  0  0  0
   23.9258   37.5939   66.8449 C   0  0  2  0  0  0  0  0  0  0  0  0
   22.5895   37.5112   66.6212 C   0  0  2  0  0  0  0  0  0  0  0  0
   21.8016   37.8122   65.3733 C   0  0  0  0  0  0  0  0  0  0  0  0
   21.4652   39.3044   65.3271 C   0  0  0  0  0  0  0  0  0  0  0  0
   20.9512   39.7155   66.5955 O   0  0  0  0  0  0  0  0  0  0  0  0
  1 11  1  0  0  0  0
  3 13  1  6  0  0  0
  3 17  2  0  0  0  0
  3 20  1  0  0  0  0
  3 26  1  0  0  0  0
  4 14  1  6  0  0  0
  4 18  1  0  0  0  0
  4 21  2  0  0  0  0
  4 20  1  0  0  0  0
  5 19  1  0  0  0  0
  5  7  1  0  0  0  0
  6  7  2  0  0  0  0
  6 12  1  0  0  0  0
  7  8  1  0  0  0  0
  8  9  1  0  0  0  0
  8 10  2  0  0  0  0
 10 11  1  0  0  0  0
 11 12  2  0  0  0  0
 15 23  1  0  0  0  0
 15 16  1  0  0  0  0
 16 19  1  0  0  0  0
 19 22  1  0  0  0  0
 22  2  1  6  0  0  0
 22 23  1  0  0  0  0
 23 24  1  1  0  0  0
 24 25  1  0  0  0  0
 25 26  1  0  0  0  0
M  CHG  2  13  -1  18  -1
M  END
>  <CHROM.1>
-52.05200569,8.95027752,57.77829633,-162.60153217,93.91661442,-47.42138898
155.14569842,-26.92266668,23.09040317,39.31266598,67.88654879,-0.51552934
-0.86487614,0.33051768

>  <Name>
ligand

>  <RI>
0

>  <Rbt.Current_Directory>
/home/itssahil/PROJECTS/Mol_Feturizer/New_Systems/rnas/2HOJ

>  <Rbt.Executable>
rbdock ($Id: //depot/dev/client3/rdock/2013.1/src/exe/rbdock.cxx#4 $)

>  <Rbt.Library>
libRbt.so (2013.1, Build901 2013/11/27)

>  <Rbt.Parameter_File>
/export/apps/rDock/src/rDock_2013.1_src/data/scripts/dock_solv.prm

>  <Rbt.Receptor>
prm/pocket_docking_6.prm

>  <SCORE>
-12.3712

>  <SCORE.INTER>
-12.8976

>  <SCORE.INTER.CONST>
1

>  <SCORE.INTER.POLAR>
0

>  <SCORE.INTER.ROT>
8

>  <SCORE.INTER.SOLV>
25.7519

>  <SCORE.INTER.VDW>
-26.1157

>  <SCORE.INTER.norm>
-0.496061

>  <SCORE.INTRA>
0.526348

>  <SCORE.INTRA.DIHEDRAL>
-1.67661

>  <SCORE.INTRA.DIHEDRAL.0>
11.6398

>  <SCORE.INTRA.POLAR>
0

>  <SCORE.INTRA.POLAR.0>
0

>  <SCORE.INTRA.REPUL>
0

>  <SCORE.INTRA.REPUL.0>
0

>  <SCORE.INTRA.SOLV>
3.37818

>  <SCORE.INTRA.SOLV.lig_0>
-81.722

>  <SCORE.INTRA.VDW>
-0.324438

>  <SCORE.INTRA.VDW.0>
1.12598

>  <SCORE.INTRA.norm>
0.0202442

>  <SCORE.RESTR>
0

>  <SCORE.RESTR.CAVITY>
0

>  <SCORE.RESTR.norm>
0

>  <SCORE.SYSTEM>
0

>  <SCORE.SYSTEM.CONST>
0

>  <SCORE.SYSTEM.DIHEDRAL>
0

>  <SCORE.SYSTEM.SOLV>
0

>  <SCORE.SYSTEM.norm>
0

>  <SCORE.heavy>
26

>  <SCORE.norm>
-0.475817

>  <RMSD>
8.534

$$$$
ligand
 OpenBabel11021811433D
libRbt.so/2013.1/901 2013/11/27
 26 27  0  0  0  0  0  0  0  0999 V2000
   25.9300   35.4785   73.8973 C   0  0  0  0  0  0  0  0  0  0  0  0
   26.8117   42.2152   70.1768 C   0  0  0  0  0  0  0  0  0  0  0  0
   23.3604   40.9862   67.4947 P   0  0  1  0  0  0  0  0  0  0  0  0
   22.0120   39.0433   68.5407 P   0  0  1  0  0  0  0  0  0  0  0  0
   28.1055   40.2769   71.7384 C   0  0  0  0  0  0  0  0  0  0  0  0
   26.8060   38.1379   71.5198 C   0  0  0  0  0  0  0  0  0  0  0  0
   27.5302   39.0072   72.3112 C   0  0  0  0  0  0  0  0  0  0  0  0
   27.7163   38.6800   73.6554 C   0  0  0  0  0  0  0  0  0  0  0  0
   28.4356   39.5200   74.4923 N   0  0  0  0  0  0  0  0  0  0  0  0
   27.1883   37.5529   74.1236 N   0  0  0  0  0  0  0  0  0  0  0  0
   26.5080   36.7495   73.3318 C   0  0  0  0  0  0  0  0  0  0  0  0
   26.3142   37.0299   72.0579 N   0  0  0  0  0  0  0  0  0  0  0  0
   23.1640   40.6539   66.0654 O   0  5  0  0  0  0  0  0  0  0  0  0
   21.2647   39.8806   69.6022 O   0  0  0  0  0  0  0  0  0  0  0  0
   28.6181   39.4742   68.0400 S   0  0  0  0  0  0  0  0  0  0  0  0
   28.8261   39.1707   69.7376 C   0  0  0  0  0  0  0  0  0  0  0  0
   22.0972   41.8266   68.0293 O   0  0  0  0  0  0  0  0  0  0  0  0
   21.2193   39.1166   67.1420 O   0  5  0  0  0  0  0  0  0  0  0  0
   28.1688   40.1700   70.2791 N   0  0  0  0  0  0  0  0  0  0  0  0
   23.5005   39.6268   68.3467 O   0  0  0  0  0  0  0  0  0  0  0  0
   22.0933   37.5731   69.0096 O   0  0  0  0  0  0  0  0  0  0  0  0
   27.5638   41.0740   69.5398 C   0  0  2  0  0  0  0  0  0  0  0  0
   27.6380   40.9605   68.1892 C   0  0  2  0  0  0  0  0  0  0  0  0
   27.0535   41.8403   67.1153 C   0  0  0  0  0  0  0  0  0  0  0  0
   25.6574   41.3358   66.7432 C   0  0  0  0  0  0  0  0  0  0  0  0
   24.7000   41.8636   67.6634 O   0  0  0  0  0  0  0  0  0  0  0  0
  1 11  1  0  0  0  0
  3 13  1  6  0  0  0
  3 17  2  0  0  0  0
  3 20  1  0  0  0  0
  3 26  1  0  0  0  0
  4 14  1  1  0  0  0
  4 18  1  0  0  0  0
  4 21  2  0  0  0  0
  4 20  1  0  0  0  0
  5 19  1  0  0  0  0
  5  7  1  0  0  0  0
  6  7  2  0  0  0  0
  6 12  1  0  0  0  0
  7  8  1  0  0  0  0
  8  9  1  0  0  0  0
  8 10  2  0  0  0  0
 10 11  1  0  0  0  0
 11 12  2  0  0  0  0
 15 23  1  0  0  0  0
 15 16  1  0  0  0  0
 16 19  1  0  0  0  0
 19 22  1  0  0  0  0
 22  2  1  6  0  0  0
 22 23  1  0  0  0  0
 23 24  1  1  0  0  0
 24 25  1  0  0  0  0
 25 26  1  0  0  0  0
M  CHG  2  13  -1  18  -1
M  END
>  <CHROM.1>
-78.24836956,-56.31424451,-18.93135296,-75.07190100,89.35738791,83.87537361
-164.02333208,-37.90768461,25.42298396,39.64507114,69.61869441,0.80777009
0.26008784,2.19035303

>  <Name>
ligand

>  <RI>
0

>  <Rbt.Current_Directory>
/home/itssahil/PROJECTS/Mol_Feturizer/New_Systems/rnas/2HOJ

>  <Rbt.Executable>
rbdock ($Id: //depot/dev/client3/rdock/2013.1/src/exe/rbdock.cxx#4 $)

>  <Rbt.Library>
libRbt.so (2013.1, Build901 2013/11/27)

>  <Rbt.Parameter_File>
/export/apps/rDock/src/rDock_2013.1_src/data/scripts/dock_solv.prm

>  <Rbt.Receptor>
prm/pocket_docking_6.prm

>  <SCORE>
-9.43057

>  <SCORE.INTER>
-6.79826

>  <SCORE.INTER.CONST>
1

>  <SCORE.INTER.POLAR>
0

>  <SCORE.INTER.ROT>
8

>  <SCORE.INTER.SOLV>
15.8862

>  <SCORE.INTER.VDW>
-18.7609

>  <SCORE.INTER.norm>
-0.261471

>  <SCORE.INTRA>
-2.6345

>  <SCORE.INTRA.DIHEDRAL>
-2.12942

>  <SCORE.INTRA.DIHEDRAL.0>
11.6398

>  <SCORE.INTRA.POLAR>
0

>  <SCORE.INTRA.POLAR.0>
0

>  <SCORE.INTRA.REPUL>
0

>  <SCORE.INTRA.REPUL.0>
0

>  <SCORE.INTRA.SOLV>
1.41853

>  <SCORE.INTRA.SOLV.lig_0>
-81.722

>  <SCORE.INTRA.VDW>
-2.27905

>  <SCORE.INTRA.VDW.0>
1.12598

>  <SCORE.INTRA.norm>
-0.101327

>  <SCORE.RESTR>
0.00218486

>  <SCORE.RESTR.CAVITY>
0.00218486

>  <SCORE.RESTR.norm>
8.40329e-05

>  <SCORE.SYSTEM>
0

>  <SCORE.SYSTEM.CONST>
0

>  <SCORE.SYSTEM.DIHEDRAL>
0

>  <SCORE.SYSTEM.SOLV>
0

>  <SCORE.SYSTEM.norm>
0

>  <SCORE.heavy>
26

>  <SCORE.norm>
-0.362714

>  <RMSD>
8.574

$$$$
ligand
 OpenBabel11021811433D
libRbt.so/2013.1/901 2013/11/27
 26 27  0  0  0  0  0  0  0  0999 V2000
   30.8267   36.1367   64.8370 C   0  0  0  0  0  0  0  0  0  0  0  0
   25.6864   40.1090   67.2895 C   0  0  0  0  0  0  0  0  0  0  0  0
   21.2850   41.4744   66.8537 P   0  0  1  0  0  0  0  0  0  0  0  0
   21.8487   43.9981   66.8435 P   0  0  1  0  0  0  0  0  0  0  0  0
   27.7604   38.9118   68.7505 C   0  0  0  0  0  0  0  0  0  0  0  0
   28.0773   37.0480   67.0960 C   0  0  0  0  0  0  0  0  0  0  0  0
   28.5731   38.1782   67.7149 C   0  0  0  0  0  0  0  0  0  0  0  0
   29.8464   38.6244   67.3567 C   0  0  0  0  0  0  0  0  0  0  0  0
   30.3899   39.7544   67.9495 N   0  0  0  0  0  0  0  0  0  0  0  0
   30.5336   37.9463   66.4423 N   0  0  0  0  0  0  0  0  0  0  0  0
   30.0201   36.8751   65.8732 C   0  0  0  0  0  0  0  0  0  0  0  0
   28.8206   36.4277   66.1894 N   0  0  0  0  0  0  0  0  0  0  0  0
   20.0445   41.8753   66.1523 O   0  5  0  0  0  0  0  0  0  0  0  0
   22.4565   45.1753   67.6380 O   0  0  0  0  0  0  0  0  0  0  0  0
   24.5220   36.9699   69.3222 S   0  0  0  0  0  0  0  0  0  0  0  0
   26.2162   37.2682   69.5629 C   0  0  0  0  0  0  0  0  0  0  0  0
   22.4203   41.1127   65.7729 O   0  0  0  0  0  0  0  0  0  0  0  0
   22.7579   43.6955   65.5504 O   0  5  0  0  0  0  0  0  0  0  0  0
   26.4176   38.3313   68.8192 N   0  0  0  0  0  0  0  0  0  0  0  0
   21.7934   42.6894   67.7805 O   0  0  0  0  0  0  0  0  0  0  0  0
   20.4178   44.3674   66.3914 O   0  0  0  0  0  0  0  0  0  0  0  0
   25.4394   38.8874   68.1382 C   0  0  2  0  0  0  0  0  0  0  0  0
   24.2030   38.3318   68.2108 C   0  0  2  0  0  0  0  0  0  0  0  0
   22.9189   38.7496   67.5434 C   0  0  0  0  0  0  0  0  0  0  0  0
   22.2294   39.8246   68.3865 C   0  0  0  0  0  0  0  0  0  0  0  0
   20.9900   40.1867   67.7745 O   0  0  0  0  0  0  0  0  0  0  0  0
  1 11  1  0  0  0  0
  3 13  1  6  0  0  0
  3 17  2  0  0  0  0
  3 20  1  0  0  0  0
  3 26  1  0  0  0  0
  4 14  1  1  0  0  0
  4 18  1  0  0  0  0
  4 21  2  0  0  0  0
  4 20  1  0  0  0  0
  5 19  1  0  0  0  0
  5  7  1  0  0  0  0
  6  7  2  0  0  0  0
  6 12  1  0  0  0  0
  7  8  1  0  0  0  0
  8  9  1  0  0  0  0
  8 10  2  0  0  0  0
 10 11  1  0  0  0  0
 11 12  2  0  0  0  0
 15 23  1  0  0  0  0
 15 16  1  0  0  0  0
 16 19  1  0  0  0  0
 19 22  1  0  0  0  0
 22  2  1  6  0  0  0
 22 23  1  0  0  0  0
 23 24  1  1  0  0  0
 24 25  1  0  0  0  0
 25 26  1  0  0  0  0
M  CHG  2  13  -1  18  -1
M  END
>  <CHROM.1>
-51.40755559,84.06727917,-6.60874551,-174.71793111,94.68328981,-178.07278680
-94.32396515,178.13119683,24.73641589,40.00732755,67.32656019,-0.57609215
0.23896983,-0.40119763

>  <Name>
ligand

>  <RI>
0

>  <Rbt.Current_Directory>
/home/itssahil/PROJECTS/Mol_Feturizer/New_Systems/rnas/2HOJ

>  <Rbt.Executable>
rbdock ($Id: //depot/dev/client3/rdock/2013.1/src/exe/rbdock.cxx#4 $)

>  <Rbt.Library>
libRbt.so (2013.1, Build901 2013/11/27)

>  <Rbt.Parameter_File>
/export/apps/rDock/src/rDock_2013.1_src/data/scripts/dock_solv.prm

>  <Rbt.Receptor>
prm/pocket_docking_5.prm

>  <SCORE>
-14.3255

>  <SCORE.INTER>
-12.3063

>  <SCORE.INTER.CONST>
1

>  <SCORE.INTER.POLAR>
-1.03923

>  <SCORE.INTER.ROT>
8

>  <SCORE.INTER.SOLV>
21.8926

>  <SCORE.INTER.VDW>
-20.971

>  <SCORE.INTER.norm>
-0.47332

>  <SCORE.INTRA>
-2.01922

>  <SCORE.INTRA.DIHEDRAL>
-2.2637

>  <SCORE.INTRA.DIHEDRAL.0>
11.6398

>  <SCORE.INTRA.POLAR>
0

>  <SCORE.INTRA.POLAR.0>
0

>  <SCORE.INTRA.REPUL>
0

>  <SCORE.INTRA.REPUL.0>
0

>  <SCORE.INTRA.SOLV>
4.3425

>  <SCORE.INTRA.SOLV.lig_0>
-81.722

>  <SCORE.INTRA.VDW>
-3.05862

>  <SCORE.INTRA.VDW.0>
1.12598

>  <SCORE.INTRA.norm>
-0.0776624

>  <SCORE.RESTR>
0

>  <SCORE.RESTR.CAVITY>
0

>  <SCORE.RESTR.norm>
0

>  <SCORE.SYSTEM>
0

>  <SCORE.SYSTEM.CONST>
0

>  <SCORE.SYSTEM.DIHEDRAL>
0

>  <SCORE.SYSTEM.SOLV>
0

>  <SCORE.SYSTEM.norm>
0

>  <SCORE.heavy>
26

>  <SCORE.norm>
-0.550982

>  <RMSD>
8.663

$$$$
ligand
 OpenBabel11021811433D
libRbt.so/2013.1/901 2013/11/27
 26 27  0  0  0  0  0  0  0  0999 V2000
   23.9607   35.3151   78.3033 C   0  0  0  0  0  0  0  0  0  0  0  0
   22.8203   34.9050   70.8967 C   0  0  0  0  0  0  0  0  0  0  0  0
   27.3615   39.0060   67.6896 P   0  0  1  0  0  0  0  0  0  0  0  0
   29.9338   38.7426   67.7139 P   0  0  1  0  0  0  0  0  0  0  0  0
   23.9484   33.3665   72.9534 C   0  0  0  0  0  0  0  0  0  0  0  0
   23.3920   35.1041   74.6806 C   0  0  0  0  0  0  0  0  0  0  0  0
   23.9524   33.8811   74.3699 C   0  0  0  0  0  0  0  0  0  0  0  0
   24.5226   33.1330   75.4013 C   0  0  0  0  0  0  0  0  0  0  0  0
   25.0989   31.8986   75.1414 N   0  0  0  0  0  0  0  0  0  0  0  0
   24.5104   33.6244   76.6369 N   0  0  0  0  0  0  0  0  0  0  0  0
   23.9604   34.7943   76.8897 C   0  0  0  0  0  0  0  0  0  0  0  0
   23.4138   35.5254   75.9380 N   0  0  0  0  0  0  0  0  0  0  0  0
   27.4522   40.4823   67.7532 O   0  5  0  0  0  0  0  0  0  0  0  0
   31.1631   38.3072   68.5419 O   0  0  0  0  0  0  0  0  0  0  0  0
   26.7068   35.3108   71.1655 S   0  0  0  0  0  0  0  0  0  0  0  0
   26.1164   34.2054   72.3684 C   0  0  0  0  0  0  0  0  0  0  0  0
   27.4303   38.5291   66.1548 O   0  0  0  0  0  0  0  0  0  0  0  0
   29.9508   37.9921   66.2904 O   0  5  0  0  0  0  0  0  0  0  0  0
   24.8256   34.1999   72.1282 N   0  0  0  0  0  0  0  0  0  0  0  0
   28.5871   38.3578   68.5089 O   0  0  0  0  0  0  0  0  0  0  0  0
   29.9798   40.2710   67.4904 O   0  0  0  0  0  0  0  0  0  0  0  0
   24.3047   34.9231   71.1610 C   0  0  2  0  0  0  0  0  0  0  0  0
   25.1334   35.6927   70.4103 C   0  0  2  0  0  0  0  0  0  0  0  0
   24.8155   36.6102   69.2588 C   0  0  0  0  0  0  0  0  0  0  0  0
   26.1166   37.1371   68.6493 C   0  0  0  0  0  0  0  0  0  0  0  0
   25.9693   38.5245   68.3400 O   0  0  0  0  0  0  0  0  0  0  0  0
  1 11  1  0  0  0  0
  3 13  1  1  0  0  0
  3 17  2  0  0  0  0
  3 20  1  0  0  0  0
  3 26  1  0  0  0  0
  4 14  1  1  0  0  0
  4 18  1  0  0  0  0
  4 21  2  0  0  0  0
  4 20  1  0  0  0  0
  5 19  1  0  0  0  0
  5  7  1  0  0  0  0
  6  7  2  0  0  0  0
  6 12  1  0  0  0  0
  7  8  1  0  0  0  0
  8  9  1  0  0  0  0
  8 10  2  0  0  0  0
 10 11  1  0  0  0  0
 11 12  2  0  0  0  0
 15 23  1  0  0  0  0
 15 16  1  0  0  0  0
 16 19  1  0  0  0  0
 19 22  1  0  0  0  0
 22  2  1  1  0  0  0
 22 23  1  0  0  0  0
 23 24  1  6  0  0  0
 24 25  1  0  0  0  0
 25 26  1  0  0  0  0
M  CHG  2  13  -1  18  -1
M  END
>  <CHROM.1>
-66.18332455,65.67328780,67.84153355,172.77866581,5.90069390,-138.65763013
-179.33122408,-161.55314221,26.35211659,36.47409902,70.85182854,-2.08202564
-0.37616309,-1.21910973

>  <Name>
ligand

>  <RI>
0

>  <Rbt.Current_Directory>
/home/itssahil/PROJECTS/Mol_Feturizer/New_Systems/rnas/2HOJ

>  <Rbt.Executable>
rbdock ($Id: //depot/dev/client3/rdock/2013.1/src/exe/rbdock.cxx#4 $)

>  <Rbt.Library>
libRbt.so (2013.1, Build901 2013/11/27)

>  <Rbt.Parameter_File>
/export/apps/rDock/src/rDock_2013.1_src/data/scripts/dock_solv.prm

>  <Rbt.Receptor>
prm/blind_docking_100.prm

>  <SCORE>
-17.6264

>  <SCORE.INTER>
-15.4951

>  <SCORE.INTER.CONST>
1

>  <SCORE.INTER.POLAR>
-2.64293

>  <SCORE.INTER.ROT>
8

>  <SCORE.INTER.SOLV>
15.8793

>  <SCORE.INTER.VDW>
-15.7467

>  <SCORE.INTER.norm>
-0.595966

>  <SCORE.INTRA>
-2.13128

>  <SCORE.INTRA.DIHEDRAL>
-2.09287

>  <SCORE.INTRA.DIHEDRAL.0>
11.6398

>  <SCORE.INTRA.POLAR>
0

>  <SCORE.INTRA.POLAR.0>
0

>  <SCORE.INTRA.REPUL>
0

>  <SCORE.INTRA.REPUL.0>
0

>  <SCORE.INTRA.SOLV>
3.36212

>  <SCORE.INTRA.SOLV.lig_0>
-81.722

>  <SCORE.INTRA.VDW>
-2.76591

>  <SCORE.INTRA.VDW.0>
1.12598

>  <SCORE.INTRA.norm>
-0.0819724

>  <SCORE.RESTR>
0

>  <SCORE.RESTR.CAVITY>
0

>  <SCORE.RESTR.norm>
0

>  <SCORE.SYSTEM>
0

>  <SCORE.SYSTEM.CONST>
0

>  <SCORE.SYSTEM.DIHEDRAL>
0

>  <SCORE.SYSTEM.SOLV>
0

>  <SCORE.SYSTEM.norm>
0

>  <SCORE.heavy>
26

>  <SCORE.norm>
-0.677938

>  <RMSD>
8.829

$$$$
ligand
 OpenBabel11021811433D
libRbt.so/2013.1/901 2013/11/27
 26 27  0  0  0  0  0  0  0  0999 V2000
   28.2277   40.0181   76.2440 C   0  0  0  0  0  0  0  0  0  0  0  0
   25.1661   36.4719   70.9477 C   0  0  0  0  0  0  0  0  0  0  0  0
   28.1945   38.8637   68.3438 P   0  0  1  0  0  0  0  0  0  0  0  0
   27.0647   41.1841   68.5059 P   0  0  1  0  0  0  0  0  0  0  0  0
   25.5972   35.7084   73.6125 C   0  0  0  0  0  0  0  0  0  0  0  0
   27.1517   37.6820   73.6216 C   0  0  0  0  0  0  0  0  0  0  0  0
   26.2928   36.8487   74.3103 C   0  0  0  0  0  0  0  0  0  0  0  0
   26.0849   37.0894   75.6695 C   0  0  0  0  0  0  0  0  0  0  0  0
   25.2323   36.2809   76.4062 N   0  0  0  0  0  0  0  0  0  0  0  0
   26.7214   38.1027   76.2495 N   0  0  0  0  0  0  0  0  0  0  0  0
   27.5288   38.8763   75.5532 C   0  0  0  0  0  0  0  0  0  0  0  0
   27.7468   38.6754   74.2683 N   0  0  0  0  0  0  0  0  0  0  0  0
   28.1502   38.7845   66.8662 O   0  5  0  0  0  0  0  0  0  0  0  0
   28.1909   41.7926   69.3705 O   0  0  0  0  0  0  0  0  0  0  0  0
   28.1664   33.9895   71.3697 S   0  0  0  0  0  0  0  0  0  0  0  0
   27.4324   34.3382   72.9050 C   0  0  0  0  0  0  0  0  0  0  0  0
   29.5091   39.6713   68.7994 O   0  0  0  0  0  0  0  0  0  0  0  0
   27.4478   41.3220   66.9488 O   0  5  0  0  0  0  0  0  0  0  0  0
   26.4714   35.1675   72.5694 N   0  0  0  0  0  0  0  0  0  0  0  0
   26.8821   39.6281   68.8792 O   0  0  0  0  0  0  0  0  0  0  0  0
   25.7430   41.9368   68.7793 O   0  0  0  0  0  0  0  0  0  0  0  0
   26.2751   35.5194   71.3174 C   0  0  2  0  0  0  0  0  0  0  0  0
   27.0989   35.0114   70.3657 C   0  0  2  0  0  0  0  0  0  0  0  0
   27.1079   35.2417   68.8772 C   0  0  0  0  0  0  0  0  0  0  0  0
   27.0112   36.7418   68.5902 C   0  0  0  0  0  0  0  0  0  0  0  0
   28.2365   37.3769   68.9609 O   0  0  0  0  0  0  0  0  0  0  0  0
  1 11  1  0  0  0  0
  3 13  1  6  0  0  0
  3 17  2  0  0  0  0
  3 20  1  0  0  0  0
  3 26  1  0  0  0  0
  4 14  1  1  0  0  0
  4 18  1  0  0  0  0
  4 21  2  0  0  0  0
  4 20  1  0  0  0  0
  5 19  1  0  0  0  0
  5  7  1  0  0  0  0
  6  7  2  0  0  0  0
  6 12  1  0  0  0  0
  7  8  1  0  0  0  0
  8  9  1  0  0  0  0
  8 10  2  0  0  0  0
 10 11  1  0  0  0  0
 11 12  2  0  0  0  0
 15 23  1  0  0  0  0
 15 16  1  0  0  0  0
 16 19  1  0  0  0  0
 19 22  1  0  0  0  0
 22  2  1  1  0  0  0
 22 23  1  0  0  0  0
 23 24  1  6  0  0  0
 24 25  1  0  0  0  0
 25 26  1  0  0  0  0
M  CHG  2  13  -1  18  -1
M  END
>  <CHROM.1>
-72.42827472,80.11816983,33.50670726,-69.40314474,-132.52101988,70.63428442
167.80370008,-63.35851629,27.22136413,37.92179626,71.06511460,2.87812078
-1.44442141,-2.89360027

>  <Name>
ligand

>  <RI>
0

>  <Rbt.Current_Directory>
/home/itssahil/PROJECTS/Mol_Feturizer/New_Systems/rnas/2HOJ

>  <Rbt.Executable>
rbdock ($Id: //depot/dev/client3/rdock/2013.1/src/exe/rbdock.cxx#4 $)

>  <Rbt.Library>
libRbt.so (2013.1, Build901 2013/11/27)

>  <Rbt.Parameter_File>
/export/apps/rDock/src/rDock_2013.1_src/data/scripts/dock_solv.prm

>  <Rbt.Receptor>
prm/pocket_docking_8.prm

>  <SCORE>
-17.0975

>  <SCORE.INTER>
-13.0204

>  <SCORE.INTER.CONST>
1

>  <SCORE.INTER.POLAR>
-2.22126

>  <SCORE.INTER.ROT>
8

>  <SCORE.INTER.SOLV>
18.2632

>  <SCORE.INTER.VDW>
-16.2971

>  <SCORE.INTER.norm>
-0.500786

>  <SCORE.INTRA>
-4.07711

>  <SCORE.INTRA.DIHEDRAL>
-5.48999

>  <SCORE.INTRA.DIHEDRAL.0>
11.6398

>  <SCORE.INTRA.POLAR>
0

>  <SCORE.INTRA.POLAR.0>
0

>  <SCORE.INTRA.REPUL>
0

>  <SCORE.INTRA.REPUL.0>
0

>  <SCORE.INTRA.SOLV>
1.19794

>  <SCORE.INTRA.SOLV.lig_0>
-81.722

>  <SCORE.INTRA.VDW>
-1.93108

>  <SCORE.INTRA.VDW.0>
1.12598

>  <SCORE.INTRA.norm>
-0.156812

>  <SCORE.RESTR>
0

>  <SCORE.RESTR.CAVITY>
0

>  <SCORE.RESTR.norm>
0

>  <SCORE.SYSTEM>
0

>  <SCORE.SYSTEM.CONST>
0

>  <SCORE.SYSTEM.DIHEDRAL>
0

>  <SCORE.SYSTEM.SOLV>
0

>  <SCORE.SYSTEM.norm>
0

>  <SCORE.heavy>
26

>  <SCORE.norm>
-0.657598

>  <RMSD>
8.895

$$$$
ligand
 OpenBabel11021811433D
libRbt.so/2013.1/901 2013/11/27
 26 27  0  0  0  0  0  0  0  0999 V2000
   28.4678   38.9660   70.6095 C   0  0  0  0  0  0  0  0  0  0  0  0
   23.8147   41.1243   65.0678 C   0  0  0  0  0  0  0  0  0  0  0  0
   18.9012   41.1768   65.2914 P   0  0  1  0  0  0  0  0  0  0  0  0
   17.1744   39.3546   64.6712 P   0  0  1  0  0  0  0  0  0  0  0  0
   24.3207   38.9060   66.7087 C   0  0  0  0  0  0  0  0  0  0  0  0
   25.4231   38.0204   68.7853 C   0  0  0  0  0  0  0  0  0  0  0  0
   25.4190   38.9231   67.7406 C   0  0  0  0  0  0  0  0  0  0  0  0
   26.4583   39.8519   67.6641 C   0  0  0  0  0  0  0  0  0  0  0  0
   26.4997   40.7801   66.6345 N   0  0  0  0  0  0  0  0  0  0  0  0
   27.4057   39.8374   68.5970 N   0  0  0  0  0  0  0  0  0  0  0  0
   27.3733   38.9550   69.5745 C   0  0  0  0  0  0  0  0  0  0  0  0
   26.4056   38.0649   69.6752 N   0  0  0  0  0  0  0  0  0  0  0  0
   18.3282   41.0843   66.6533 O   0  5  0  0  0  0  0  0  0  0  0  0
   16.4407   39.5217   66.0203 O   0  0  0  0  0  0  0  0  0  0  0  0
   21.5003   40.9874   68.2248 S   0  0  0  0  0  0  0  0  0  0  0  0
   22.5945   39.6385   68.2020 C   0  0  0  0  0  0  0  0  0  0  0  0
   20.1523   40.1734   65.1655 O   0  0  0  0  0  0  0  0  0  0  0  0
   16.1402   38.8228   63.5587 O   0  5  0  0  0  0  0  0  0  0  0  0
   23.2708   39.8505   67.0968 N   0  0  0  0  0  0  0  0  0  0  0  0
   17.7787   40.7741   64.2091 O   0  0  0  0  0  0  0  0  0  0  0  0
   18.3242   38.3351   64.8341 O   0  0  0  0  0  0  0  0  0  0  0  0
   23.0283   40.8938   66.3336 C   0  0  2  0  0  0  0  0  0  0  0  0
   22.0480   41.7552   66.7074 C   0  0  2  0  0  0  0  0  0  0  0  0
   21.5605   43.0107   66.0330 C   0  0  0  0  0  0  0  0  0  0  0  0
   20.0449   43.1305   66.2073 C   0  0  0  0  0  0  0  0  0  0  0  0
   19.3925   42.6855   65.0163 O   0  0  0  0  0  0  0  0  0  0  0  0
  1 11  1  0  0  0  0
  3 13  1  1  0  0  0
  3 17  2  0  0  0  0
  3 20  1  0  0  0  0
  3 26  1  0  0  0  0
  4 14  1  1  0  0  0
  4 18  1  0  0  0  0
  4 21  2  0  0  0  0
  4 20  1  0  0  0  0
  5 19  1  0  0  0  0
  5  7  1  0  0  0  0
  6  7  2  0  0  0  0
  6 12  1  0  0  0  0
  7  8  1  0  0  0  0
  8  9  1  0  0  0  0
  8 10  2  0  0  0  0
 10 11  1  0  0  0  0
 11 12  2  0  0  0  0
 15 23  1  0  0  0  0
 15 16  1  0  0  0  0
 16 19  1  0  0  0  0
 19 22  1  0  0  0  0
 22  2  1  6  0  0  0
 22 23  1  0  0  0  0
 23 24  1  1  0  0  0
 24 25  1  0  0  0  0
 25 26  1  0  0  0  0
M  CHG  2  13  -1  18  -1
M  END
>  <CHROM.1>
-51.61522423,-63.89329180,93.69733320,65.14320384,-36.73438681,-99.71267267
99.70766820,42.35617400,21.66892107,40.23551929,66.57493086,0.17722763,0.37398701
2.92010986

>  <Name>
ligand

>  <RI>
0

>  <Rbt.Current_Directory>
/home/itssahil/PROJECTS/Mol_Feturizer/New_Systems/rnas/2HOJ

>  <Rbt.Executable>
rbdock ($Id: //depot/dev/client3/rdock/2013.1/src/exe/rbdock.cxx#4 $)

>  <Rbt.Library>
libRbt.so (2013.1, Build901 2013/11/27)

>  <Rbt.Parameter_File>
/export/apps/rDock/src/rDock_2013.1_src/data/scripts/dock_solv.prm

>  <Rbt.Receptor>
prm/pocket_docking_2.prm

>  <SCORE>
-2.96057

>  <SCORE.INTER>
-5.0147

>  <SCORE.INTER.CONST>
1

>  <SCORE.INTER.POLAR>
0

>  <SCORE.INTER.ROT>
8

>  <SCORE.INTER.SOLV>
32.2172

>  <SCORE.INTER.VDW>
-23.0155

>  <SCORE.INTER.norm>
-0.192873

>  <SCORE.INTRA>
1.09608

>  <SCORE.INTRA.DIHEDRAL>
3.40567

>  <SCORE.INTRA.DIHEDRAL.0>
11.6398

>  <SCORE.INTRA.POLAR>
0

>  <SCORE.INTRA.POLAR.0>
0

>  <SCORE.INTRA.REPUL>
0

>  <SCORE.INTRA.REPUL.0>
0

>  <SCORE.INTRA.SOLV>
6.75204

>  <SCORE.INTRA.SOLV.lig_0>
-81.722

>  <SCORE.INTRA.VDW>
-3.98278

>  <SCORE.INTRA.VDW.0>
1.12598

>  <SCORE.INTRA.norm>
0.0421569

>  <SCORE.RESTR>
0.958049

>  <SCORE.RESTR.CAVITY>
0.958049

>  <SCORE.RESTR.norm>
0.036848

>  <SCORE.SYSTEM>
0

>  <SCORE.SYSTEM.CONST>
0

>  <SCORE.SYSTEM.DIHEDRAL>
0

>  <SCORE.SYSTEM.SOLV>
0

>  <SCORE.SYSTEM.norm>
0

>  <SCORE.heavy>
26

>  <SCORE.norm>
-0.113868

>  <RMSD>
8.951

$$$$
ligand
 OpenBabel11021811433D
libRbt.so/2013.1/901 2013/11/27
 26 27  0  0  0  0  0  0  0  0999 V2000
   31.7013   42.0984   65.6065 C   0  0  0  0  0  0  0  0  0  0  0  0
   25.9192   37.8638   69.0911 C   0  0  0  0  0  0  0  0  0  0  0  0
   21.3431   40.5178   67.1029 P   0  0  1  0  0  0  0  0  0  0  0  0
   21.3573   43.0653   66.6591 P   0  0  1  0  0  0  0  0  0  0  0  0
   28.3298   37.9967   67.6624 C   0  0  0  0  0  0  0  0  0  0  0  0
   28.6888   40.2204   66.5499 C   0  0  0  0  0  0  0  0  0  0  0  0
   29.2234   39.0815   67.1186 C   0  0  0  0  0  0  0  0  0  0  0  0
   30.6128   38.9606   67.1773 C   0  0  0  0  0  0  0  0  0  0  0  0
   31.1993   37.8359   67.7382 N   0  0  0  0  0  0  0  0  0  0  0  0
   31.3666   39.9377   66.6819 N   0  0  0  0  0  0  0  0  0  0  0  0
   30.8144   41.0098   66.1521 C   0  0  0  0  0  0  0  0  0  0  0  0
   29.5056   41.1545   66.0812 N   0  0  0  0  0  0  0  0  0  0  0  0
   19.9219   40.4831   66.6898 O   0  5  0  0  0  0  0  0  0  0  0  0
   19.8959   42.9193   66.1801 O   0  0  0  0  0  0  0  0  0  0  0  0
   25.4012   38.0047   65.2111 S   0  0  0  0  0  0  0  0  0  0  0  0
   27.0914   38.0391   65.6104 C   0  0  0  0  0  0  0  0  0  0  0  0
   22.2824   40.3002   65.8152 O   0  0  0  0  0  0  0  0  0  0  0  0
   21.5718   44.5288   67.2933 O   0  5  0  0  0  0  0  0  0  0  0  0
   27.0662   37.9875   66.9221 N   0  0  0  0  0  0  0  0  0  0  0  0
   21.6719   41.9450   67.7725 O   0  0  0  0  0  0  0  0  0  0  0  0
   22.3127   42.8795   65.4588 O   0  0  0  0  0  0  0  0  0  0  0  0
   25.9316   37.9239   67.5844 C   0  0  2  0  0  0  0  0  0  0  0  0
   24.7709   37.9215   66.8808 C   0  0  2  0  0  0  0  0  0  0  0  0
   23.3478   37.8612   67.3708 C   0  0  0  0  0  0  0  0  0  0  0  0
   23.0311   39.1205   68.1807 C   0  0  0  0  0  0  0  0  0  0  0  0
   21.6203   39.3479   68.1741 O   0  0  0  0  0  0  0  0  0  0  0  0
  1 11  1  0  0  0  0
  3 13  1  6  0  0  0
  3 17  2  0  0  0  0
  3 20  1  0  0  0  0
  3 26  1  0  0  0  0
  4 14  1  6  0  0  0
  4 18  1  0  0  0  0
  4 21  2  0  0  0  0
  4 20  1  0  0  0  0
  5 19  1  0  0  0  0
  5  7  1  0  0  0  0
  6  7  2  0  0  0  0
  6 12  1  0  0  0  0
  7  8  1  0  0  0  0
  8  9  1  0  0  0  0
  8 10  2  0  0  0  0
 10 11  1  0  0  0  0
 11 12  2  0  0  0  0
 15 23  1  0  0  0  0
 15 16  1  0  0  0  0
 16 19  1  0  0  0  0
 19 22  1  0  0  0  0
 22  2  1  1  0  0  0
 22 23  1  0  0  0  0
 23 24  1  6  0  0  0
 24 25  1  0  0  0  0
 25 26  1  0  0  0  0
M  CHG  2  13  -1  18  -1
M  END
>  <CHROM.1>
-59.33560101,46.80397863,28.93691123,56.18396487,-115.78476601,156.26505979
-101.84724549,160.16104120,25.04683458,40.11731658,66.80812488,-0.25711628
0.06663862,-0.19236346

>  <Name>
ligand

>  <RI>
0

>  <Rbt.Current_Directory>
/home/itssahil/PROJECTS/Mol_Feturizer/New_Systems/rnas/2HOJ

>  <Rbt.Executable>
rbdock ($Id: //depot/dev/client3/rdock/2013.1/src/exe/rbdock.cxx#4 $)

>  <Rbt.Library>
libRbt.so (2013.1, Build901 2013/11/27)

>  <Rbt.Parameter_File>
/export/apps/rDock/src/rDock_2013.1_src/data/scripts/dock_solv.prm

>  <Rbt.Receptor>
prm/pocket_docking_6.prm

>  <SCORE>
-10.3064

>  <SCORE.INTER>
-10.2469

>  <SCORE.INTER.CONST>
1

>  <SCORE.INTER.POLAR>
-1.37477

>  <SCORE.INTER.ROT>
8

>  <SCORE.INTER.SOLV>
27.2665

>  <SCORE.INTER.VDW>
-20.2709

>  <SCORE.INTER.norm>
-0.394112

>  <SCORE.INTRA>
-0.059494

>  <SCORE.INTRA.DIHEDRAL>
1.10684

>  <SCORE.INTRA.DIHEDRAL.0>
11.6398

>  <SCORE.INTRA.POLAR>
0

>  <SCORE.INTRA.POLAR.0>
0

>  <SCORE.INTRA.REPUL>
0

>  <SCORE.INTRA.REPUL.0>
0

>  <SCORE.INTRA.SOLV>
1.90547

>  <SCORE.INTRA.SOLV.lig_0>
-81.722

>  <SCORE.INTRA.VDW>
-1.56565

>  <SCORE.INTRA.VDW.0>
1.12598

>  <SCORE.INTRA.norm>
-0.00228823

>  <SCORE.RESTR>
0

>  <SCORE.RESTR.CAVITY>
0

>  <SCORE.RESTR.norm>
0

>  <SCORE.SYSTEM>
0

>  <SCORE.SYSTEM.CONST>
0

>  <SCORE.SYSTEM.DIHEDRAL>
0

>  <SCORE.SYSTEM.SOLV>
0

>  <SCORE.SYSTEM.norm>
0

>  <SCORE.heavy>
26

>  <SCORE.norm>
-0.3964

>  <RMSD>
8.993

$$$$
ligand
 OpenBabel11021811433D
libRbt.so/2013.1/901 2013/11/27
 26 27  0  0  0  0  0  0  0  0999 V2000
   28.1552   39.7791   75.3682 C   0  0  0  0  0  0  0  0  0  0  0  0
   25.4459   34.9827   70.6153 C   0  0  0  0  0  0  0  0  0  0  0  0
   28.0336   37.5817   68.2858 P   0  0  1  0  0  0  0  0  0  0  0  0
   27.7134   40.1473   68.2415 P   0  0  1  0  0  0  0  0  0  0  0  0
   26.1334   34.8612   73.3323 C   0  0  0  0  0  0  0  0  0  0  0  0
   27.5401   36.9328   73.1294 C   0  0  0  0  0  0  0  0  0  0  0  0
   26.6678   36.1627   73.8725 C   0  0  0  0  0  0  0  0  0  0  0  0
   26.2931   36.6204   75.1369 C   0  0  0  0  0  0  0  0  0  0  0  0
   25.4199   35.8835   75.9230 N   0  0  0  0  0  0  0  0  0  0  0  0
   26.7907   37.7714   75.5795 N   0  0  0  0  0  0  0  0  0  0  0  0
   27.6170   38.4771   74.8349 C   0  0  0  0  0  0  0  0  0  0  0  0
   27.9906   38.0725   73.6367 N   0  0  0  0  0  0  0  0  0  0  0  0
   27.7648   37.7691   66.8421 O   0  5  0  0  0  0  0  0  0  0  0  0
   29.2267   40.2495   67.9489 O   0  0  0  0  0  0  0  0  0  0  0  0
   28.9353   33.3187   71.2454 S   0  0  0  0  0  0  0  0  0  0  0  0
   28.1994   33.7973   72.7444 C   0  0  0  0  0  0  0  0  0  0  0  0
   29.6215   37.5044   68.5311 O   0  0  0  0  0  0  0  0  0  0  0  0
   26.9013   40.0694   66.8543 O   0  5  0  0  0  0  0  0  0  0  0  0
   27.0668   34.3239   72.3398 N   0  0  0  0  0  0  0  0  0  0  0  0
   27.4225   38.8228   69.1103 O   0  0  0  0  0  0  0  0  0  0  0  0
   27.2581   41.3927   69.0351 O   0  0  0  0  0  0  0  0  0  0  0  0
   26.7513   34.3758   71.0641 C   0  0  2  0  0  0  0  0  0  0  0  0
   27.6315   33.8771   70.1590 C   0  0  2  0  0  0  0  0  0  0  0  0
   27.5344   33.8097   68.6574 C   0  0  0  0  0  0  0  0  0  0  0  0
   27.9575   35.1517   68.0558 C   0  0  0  0  0  0  0  0  0  0  0  0
   27.3451   36.2153   68.7878 O   0  0  0  0  0  0  0  0  0  0  0  0
  1 11  1  0  0  0  0
  3 13  1  6  0  0  0
  3 17  2  0  0  0  0
  3 20  1  0  0  0  0
  3 26  1  0  0  0  0
  4 14  1  6  0  0  0
  4 18  1  0  0  0  0
  4 21  2  0  0  0  0
  4 20  1  0  0  0  0
  5 19  1  0  0  0  0
  5  7  1  0  0  0  0
  6  7  2  0  0  0  0
  6 12  1  0  0  0  0
  7  8  1  0  0  0  0
  8  9  1  0  0  0  0
  8 10  2  0  0  0  0
 10 11  1  0  0  0  0
 11 12  2  0  0  0  0
 15 23  1  0  0  0  0
 15 16  1  0  0  0  0
 16 19  1  0  0  0  0
 19 22  1  0  0  0  0
 22  2  1  6  0  0  0
 22 23  1  0  0  0  0
 23 24  1  1  0  0  0
 24 25  1  0  0  0  0
 25 26  1  0  0  0  0
M  CHG  2  13  -1  18  -1
M  END
>  <CHROM.1>
-39.79293178,73.56034953,24.92452112,-55.27035888,-97.72087563,-45.04721042
169.88334388,61.98900437,27.55883316,36.96212434,70.74850068,2.65367561,-1.42581037
3.12957580

>  <Name>
ligand

>  <RI>
0

>  <Rbt.Current_Directory>
/home/itssahil/PROJECTS/Mol_Feturizer/New_Systems/rnas/2HOJ

>  <Rbt.Executable>
rbdock ($Id: //depot/dev/client3/rdock/2013.1/src/exe/rbdock.cxx#4 $)

>  <Rbt.Library>
libRbt.so (2013.1, Build901 2013/11/27)

>  <Rbt.Parameter_File>
/export/apps/rDock/src/rDock_2013.1_src/data/scripts/dock_solv.prm

>  <Rbt.Receptor>
prm/pocket_docking_8.prm

>  <SCORE>
-22.4721

>  <SCORE.INTER>
-18.2526

>  <SCORE.INTER.CONST>
1

>  <SCORE.INTER.POLAR>
-2.60095

>  <SCORE.INTER.ROT>
8

>  <SCORE.INTER.SOLV>
16.1699

>  <SCORE.INTER.VDW>
-17.8219

>  <SCORE.INTER.norm>
-0.702024

>  <SCORE.INTRA>
-4.21943

>  <SCORE.INTRA.DIHEDRAL>
-4.93059

>  <SCORE.INTRA.DIHEDRAL.0>
11.6398

>  <SCORE.INTRA.POLAR>
0

>  <SCORE.INTRA.POLAR.0>
0

>  <SCORE.INTRA.REPUL>
0

>  <SCORE.INTRA.REPUL.0>
0

>  <SCORE.INTRA.SOLV>
1.10926

>  <SCORE.INTRA.SOLV.lig_0>
-81.722

>  <SCORE.INTRA.VDW>
-2.30876

>  <SCORE.INTRA.VDW.0>
1.12598

>  <SCORE.INTRA.norm>
-0.162286

>  <SCORE.RESTR>
0

>  <SCORE.RESTR.CAVITY>
0

>  <SCORE.RESTR.norm>
0

>  <SCORE.SYSTEM>
0

>  <SCORE.SYSTEM.CONST>
0

>  <SCORE.SYSTEM.DIHEDRAL>
0

>  <SCORE.SYSTEM.SOLV>
0

>  <SCORE.SYSTEM.norm>
0

>  <SCORE.heavy>
26

>  <SCORE.norm>
-0.86431

>  <RMSD>
9.019

$$$$
ligand
 OpenBabel11021811433D
libRbt.so/2013.1/901 2013/11/27
 26 27  0  0  0  0  0  0  0  0999 V2000
   24.6463   35.8280   76.4417 C   0  0  0  0  0  0  0  0  0  0  0  0
   24.2598   37.2607   69.4594 C   0  0  0  0  0  0  0  0  0  0  0  0
   20.4279   40.5497   66.2112 P   0  0  1  0  0  0  0  0  0  0  0  0
   21.1528   42.9913   66.6586 P   0  0  1  0  0  0  0  0  0  0  0  0
   23.8629   34.8763   70.8830 C   0  0  0  0  0  0  0  0  0  0  0  0
   23.0916   34.8106   73.2731 C   0  0  0  0  0  0  0  0  0  0  0  0
   24.0716   35.1288   72.3540 C   0  0  0  0  0  0  0  0  0  0  0  0
   25.2609   35.6901   72.8221 C   0  0  0  0  0  0  0  0  0  0  0  0
   26.2760   36.0280   71.9395 N   0  0  0  0  0  0  0  0  0  0  0  0
   25.4042   35.9017   74.1270 N   0  0  0  0  0  0  0  0  0  0  0  0
   24.4448   35.5785   74.9698 C   0  0  0  0  0  0  0  0  0  0  0  0
   23.3097   35.0471   74.5598 N   0  0  0  0  0  0  0  0  0  0  0  0
   19.2727   41.1325   65.4919 O   0  5  0  0  0  0  0  0  0  0  0  0
   22.1691   42.8280   65.5068 O   0  0  0  0  0  0  0  0  0  0  0  0
   20.4762   36.3729   69.9473 S   0  0  0  0  0  0  0  0  0  0  0  0
   21.4925   35.1707   70.6816 C   0  0  0  0  0  0  0  0  0  0  0  0
   21.6354   40.3025   65.1774 O   0  0  0  0  0  0  0  0  0  0  0  0
   19.7605   43.5467   66.0729 O   0  5  0  0  0  0  0  0  0  0  0  0
   22.6949   35.6281   70.4189 N   0  0  0  0  0  0  0  0  0  0  0  0
   20.9083   41.5649   67.3654 O   0  0  0  0  0  0  0  0  0  0  0  0
   21.7094   43.9909   67.6974 O   0  0  0  0  0  0  0  0  0  0  0  0
   22.8723   36.7477   69.7520 C   0  0  2  0  0  0  0  0  0  0  0  0
   21.7775   37.4276   69.3260 C   0  0  2  0  0  0  0  0  0  0  0  0
   21.6852   38.7149   68.5493 C   0  0  0  0  0  0  0  0  0  0  0  0
   21.1999   38.4220   67.1278 C   0  0  0  0  0  0  0  0  0  0  0  0
   19.9954   39.1489   66.8772 O   0  0  0  0  0  0  0  0  0  0  0  0
  1 11  1  0  0  0  0
  3 13  1  6  0  0  0
  3 17  2  0  0  0  0
  3 20  1  0  0  0  0
  3 26  1  0  0  0  0
  4 14  1  6  0  0  0
  4 18  1  0  0  0  0
  4 21  2  0  0  0  0
  4 20  1  0  0  0  0
  5 19  1  0  0  0  0
  5  7  1  0  0  0  0
  6  7  2  0  0  0  0
  6 12  1  0  0  0  0
  7  8  1  0  0  0  0
  8  9  1  0  0  0  0
  8 10  2  0  0  0  0
 10 11  1  0  0  0  0
 11 12  2  0  0  0  0
 15 23  1  0  0  0  0
 15 16  1  0  0  0  0
 16 19  1  0  0  0  0
 19 22  1  0  0  0  0
 22  2  1  6  0  0  0
 22 23  1  0  0  0  0
 23 24  1  1  0  0  0
 24 25  1  0  0  0  0
 25 26  1  0  0  0  0
M  CHG  2  13  -1  18  -1
M  END
>  <CHROM.1>
-53.28900616,-77.86404230,59.72499458,-56.26772019,-71.07808905,121.57944033
92.31357738,159.77347901,22.16154553,38.51853690,69.32568334,-1.04031155
-0.85817448,-0.40411474

>  <Name>
ligand

>  <RI>
0

>  <Rbt.Current_Directory>
/home/itssahil/PROJECTS/Mol_Feturizer/New_Systems/rnas/2HOJ

>  <Rbt.Executable>
rbdock ($Id: //depot/dev/client3/rdock/2013.1/src/exe/rbdock.cxx#4 $)

>  <Rbt.Library>
libRbt.so (2013.1, Build901 2013/11/27)

>  <Rbt.Parameter_File>
/export/apps/rDock/src/rDock_2013.1_src/data/scripts/dock_solv.prm

>  <Rbt.Receptor>
prm/blind_docking_100.prm

>  <SCORE>
-16.1932

>  <SCORE.INTER>
-16.6866

>  <SCORE.INTER.CONST>
1

>  <SCORE.INTER.POLAR>
0

>  <SCORE.INTER.ROT>
8

>  <SCORE.INTER.SOLV>
23.8919

>  <SCORE.INTER.VDW>
-28.0217

>  <SCORE.INTER.norm>
-0.641791

>  <SCORE.INTRA>
0.493343

>  <SCORE.INTRA.DIHEDRAL>
3.73086

>  <SCORE.INTRA.DIHEDRAL.0>
11.6398

>  <SCORE.INTRA.POLAR>
0

>  <SCORE.INTRA.POLAR.0>
0

>  <SCORE.INTRA.REPUL>
0

>  <SCORE.INTRA.REPUL.0>
0

>  <SCORE.INTRA.SOLV>
2.99164

>  <SCORE.INTRA.SOLV.lig_0>
-81.722

>  <SCORE.INTRA.VDW>
-2.86791

>  <SCORE.INTRA.VDW.0>
1.12598

>  <SCORE.INTRA.norm>
0.0189747

>  <SCORE.RESTR>
0

>  <SCORE.RESTR.CAVITY>
0

>  <SCORE.RESTR.norm>
0

>  <SCORE.SYSTEM>
0

>  <SCORE.SYSTEM.CONST>
0

>  <SCORE.SYSTEM.DIHEDRAL>
0

>  <SCORE.SYSTEM.SOLV>
0

>  <SCORE.SYSTEM.norm>
0

>  <SCORE.heavy>
26

>  <SCORE.norm>
-0.622816

>  <RMSD>
9.125

$$$$
ligand
 OpenBabel11021811433D
libRbt.so/2013.1/901 2013/11/27
 26 27  0  0  0  0  0  0  0  0999 V2000
   25.8943   37.3255   76.5144 C   0  0  0  0  0  0  0  0  0  0  0  0
   21.8932   34.7141   70.8254 C   0  0  0  0  0  0  0  0  0  0  0  0
   21.3960   40.4146   67.3544 P   0  0  1  0  0  0  0  0  0  0  0  0
   21.4075   42.9588   66.8921 P   0  0  1  0  0  0  0  0  0  0  0  0
   24.5939   34.8020   71.5789 C   0  0  0  0  0  0  0  0  0  0  0  0
   25.9555   36.3984   72.9607 C   0  0  0  0  0  0  0  0  0  0  0  0
   24.9371   35.4691   72.8860 C   0  0  0  0  0  0  0  0  0  0  0  0
   24.2330   35.1634   74.0519 C   0  0  0  0  0  0  0  0  0  0  0  0
   23.2017   34.2364   74.0299 N   0  0  0  0  0  0  0  0  0  0  0  0
   24.5698   35.7702   75.1862 N   0  0  0  0  0  0  0  0  0  0  0  0
   25.5457   36.6546   75.2115 C   0  0  0  0  0  0  0  0  0  0  0  0
   26.2301   36.9653   74.1279 N   0  0  0  0  0  0  0  0  0  0  0  0
   20.1713   40.4205   66.5227 O   0  5  0  0  0  0  0  0  0  0  0  0
   19.9328   43.0024   66.4341 O   0  0  0  0  0  0  0  0  0  0  0  0
   23.8688   37.6388   69.1269 S   0  0  0  0  0  0  0  0  0  0  0  0
   24.9076   36.7142   70.1678 C   0  0  0  0  0  0  0  0  0  0  0  0
   22.6734   40.1031   66.4276 O   0  0  0  0  0  0  0  0  0  0  0  0
   21.8382   44.4029   67.4572 O   0  5  0  0  0  0  0  0  0  0  0  0
   24.0873   35.8030   70.6375 N   0  0  0  0  0  0  0  0  0  0  0  0
   21.5771   41.8547   68.0522 O   0  0  0  0  0  0  0  0  0  0  0  0
   22.3075   42.5863   65.6925 O   0  0  0  0  0  0  0  0  0  0  0  0
   22.8226   35.7679   70.2781 C   0  0  2  0  0  0  0  0  0  0  0  0
   22.3706   36.7070   69.4085 C   0  0  2  0  0  0  0  0  0  0  0  0
   20.9913   36.9059   68.8370 C   0  0  0  0  0  0  0  0  0  0  0  0
   21.0188   38.0467   67.8172 C   0  0  0  0  0  0  0  0  0  0  0  0
   21.2681   39.2816   68.4916 O   0  0  0  0  0  0  0  0  0  0  0  0
  1 11  1  0  0  0  0
  3 13  1  6  0  0  0
  3 17  2  0  0  0  0
  3 20  1  0  0  0  0
  3 26  1  0  0  0  0
  4 14  1  6  0  0  0
  4 18  1  0  0  0  0
  4 21  2  0  0  0  0
  4 20  1  0  0  0  0
  5 19  1  0  0  0  0
  5  7  1  0  0  0  0
  6  7  2  0  0  0  0
  6 12  1  0  0  0  0
  7  8  1  0  0  0  0
  8  9  1  0  0  0  0
  8 10  2  0  0  0  0
 10 11  1  0  0  0  0
 11 12  2  0  0  0  0
 15 23  1  0  0  0  0
 15 16  1  0  0  0  0
 16 19  1  0  0  0  0
 19 22  1  0  0  0  0
 22  2  1  1  0  0  0
 22 23  1  0  0  0  0
 23 24  1  6  0  0  0
 24 25  1  0  0  0  0
 25 26  1  0  0  0  0
M  CHG  2  13  -1  18  -1
M  END
>  <CHROM.1>
-49.11935493,68.45564183,-65.06385399,70.11397514,3.99291727,-67.77147946
175.75833989,56.17895771,22.86867066,38.52900435,69.80920056,-0.85316370
-1.00753161,-0.19473230

>  <Name>
ligand

>  <RI>
0

>  <Rbt.Current_Directory>
/home/itssahil/PROJECTS/Mol_Feturizer/New_Systems/rnas/2HOJ

>  <Rbt.Executable>
rbdock ($Id: //depot/dev/client3/rdock/2013.1/src/exe/rbdock.cxx#4 $)

>  <Rbt.Library>
libRbt.so (2013.1, Build901 2013/11/27)

>  <Rbt.Parameter_File>
/export/apps/rDock/src/rDock_2013.1_src/data/scripts/dock_solv.prm

>  <Rbt.Receptor>
prm/pocket_docking_8.prm

>  <SCORE>
-21.6449

>  <SCORE.INTER>
-16.9476

>  <SCORE.INTER.CONST>
1

>  <SCORE.INTER.POLAR>
0

>  <SCORE.INTER.ROT>
8

>  <SCORE.INTER.SOLV>
17.2129

>  <SCORE.INTER.VDW>
-25.9694

>  <SCORE.INTER.norm>
-0.65183

>  <SCORE.INTRA>
-4.69726

>  <SCORE.INTRA.DIHEDRAL>
-6.37365

>  <SCORE.INTRA.DIHEDRAL.0>
11.6398

>  <SCORE.INTRA.POLAR>
0

>  <SCORE.INTRA.POLAR.0>
0

>  <SCORE.INTRA.REPUL>
0

>  <SCORE.INTRA.REPUL.0>
0

>  <SCORE.INTRA.SOLV>
3.05588

>  <SCORE.INTRA.SOLV.lig_0>
-81.722

>  <SCORE.INTRA.VDW>
-3.03838

>  <SCORE.INTRA.VDW.0>
1.12598

>  <SCORE.INTRA.norm>
-0.180664

>  <SCORE.RESTR>
0

>  <SCORE.RESTR.CAVITY>
0

>  <SCORE.RESTR.norm>
0

>  <SCORE.SYSTEM>
0

>  <SCORE.SYSTEM.CONST>
0

>  <SCORE.SYSTEM.DIHEDRAL>
0

>  <SCORE.SYSTEM.SOLV>
0

>  <SCORE.SYSTEM.norm>
0

>  <SCORE.heavy>
26

>  <SCORE.norm>
-0.832494

>  <RMSD>
9.255

$$$$
ligand
 OpenBabel11021811433D
libRbt.so/2013.1/901 2013/11/27
 26 27  0  0  0  0  0  0  0  0999 V2000
   26.3157   37.8572   79.0752 C   0  0  0  0  0  0  0  0  0  0  0  0
   24.7530   35.5664   71.4418 C   0  0  0  0  0  0  0  0  0  0  0  0
   28.7960   38.8284   67.5422 P   0  0  1  0  0  0  0  0  0  0  0  0
   29.1151   36.8304   65.9318 P   0  0  1  0  0  0  0  0  0  0  0  0
   26.1276   35.5199   73.8867 C   0  0  0  0  0  0  0  0  0  0  0  0
   25.7916   37.4473   75.4628 C   0  0  0  0  0  0  0  0  0  0  0  0
   26.1780   36.1373   75.2606 C   0  0  0  0  0  0  0  0  0  0  0  0
   26.6162   35.3990   76.3613 C   0  0  0  0  0  0  0  0  0  0  0  0
   27.0157   34.0794   76.2109 N   0  0  0  0  0  0  0  0  0  0  0  0
   26.6507   35.9817   77.5561 N   0  0  0  0  0  0  0  0  0  0  0  0
   26.2681   37.2333   77.7049 C   0  0  0  0  0  0  0  0  0  0  0  0
   25.8494   37.9578   76.6857 N   0  0  0  0  0  0  0  0  0  0  0  0
   29.4644   39.8303   68.4029 O   0  5  0  0  0  0  0  0  0  0  0  0
   28.1727   36.0127   66.8426 O   0  0  0  0  0  0  0  0  0  0  0  0
   27.5149   38.3313   71.7056 S   0  0  0  0  0  0  0  0  0  0  0  0
   27.4570   37.3755   73.1550 C   0  0  0  0  0  0  0  0  0  0  0  0
   27.9106   39.5809   66.4297 O   0  0  0  0  0  0  0  0  0  0  0  0
   28.2512   37.5844   64.8025 O   0  5  0  0  0  0  0  0  0  0  0  0
   26.4943   36.5243   72.8859 N   0  0  0  0  0  0  0  0  0  0  0  0
   29.9083   37.9170   66.8172 O   0  0  0  0  0  0  0  0  0  0  0  0
   30.1286   35.8800   65.2553 O   0  0  0  0  0  0  0  0  0  0  0  0
   25.8556   36.5519   71.7365 C   0  0  2  0  0  0  0  0  0  0  0  0
   26.2065   37.4932   70.8237 C   0  0  2  0  0  0  0  0  0  0  0  0
   25.6505   37.7557   69.4486 C   0  0  0  0  0  0  0  0  0  0  0  0
   26.6324   38.6211   68.6555 C   0  0  0  0  0  0  0  0  0  0  0  0
   27.8443   37.8939   68.4445 O   0  0  0  0  0  0  0  0  0  0  0  0
  1 11  1  0  0  0  0
  3 13  1  1  0  0  0
  3 17  2  0  0  0  0
  3 20  1  0  0  0  0
  3 26  1  0  0  0  0
  4 14  1  1  0  0  0
  4 18  1  0  0  0  0
  4 21  2  0  0  0  0
  4 20  1  0  0  0  0
  5 19  1  0  0  0  0
  5  7  1  0  0  0  0
  6  7  2  0  0  0  0
  6 12  1  0  0  0  0
  7  8  1  0  0  0  0
  8  9  1  0  0  0  0
  8 10  2  0  0  0  0
 10 11  1  0  0  0  0
 11 12  2  0  0  0  0
 15 23  1  0  0  0  0
 15 16  1  0  0  0  0
 16 19  1  0  0  0  0
 19 22  1  0  0  0  0
 22  2  1  1  0  0  0
 22 23  1  0  0  0  0
 23 24  1  6  0  0  0
 24 25  1  0  0  0  0
 25 26  1  0  0  0  0
M  CHG  2  13  -1  18  -1
M  END
>  <CHROM.1>
178.56561667,38.94581249,36.37069450,-57.59431453,16.90665634,64.80167198
177.05253531,80.83745766,27.42243192,37.29736822,70.86979672,-2.71596270
-1.30109608,-2.58575345

>  <Name>
ligand

>  <RI>
0

>  <Rbt.Current_Directory>
/home/itssahil/PROJECTS/Mol_Feturizer/New_Systems/rnas/2HOJ

>  <Rbt.Executable>
rbdock ($Id: //depot/dev/client3/rdock/2013.1/src/exe/rbdock.cxx#4 $)

>  <Rbt.Library>
libRbt.so (2013.1, Build901 2013/11/27)

>  <Rbt.Parameter_File>
/export/apps/rDock/src/rDock_2013.1_src/data/scripts/dock_solv.prm

>  <Rbt.Receptor>
prm/blind_docking_100.prm

>  <SCORE>
-16.1078

>  <SCORE.INTER>
-10.9374

>  <SCORE.INTER.CONST>
1

>  <SCORE.INTER.POLAR>
-1.27586

>  <SCORE.INTER.ROT>
8

>  <SCORE.INTER.SOLV>
19.8159

>  <SCORE.INTER.VDW>
-18.5774

>  <SCORE.INTER.norm>
-0.420668

>  <SCORE.INTRA>
-5.1704

>  <SCORE.INTRA.DIHEDRAL>
-6.18018

>  <SCORE.INTRA.DIHEDRAL.0>
11.6398

>  <SCORE.INTRA.POLAR>
0

>  <SCORE.INTRA.POLAR.0>
0

>  <SCORE.INTRA.REPUL>
0

>  <SCORE.INTRA.REPUL.0>
0

>  <SCORE.INTRA.SOLV>
-0.021785

>  <SCORE.INTRA.SOLV.lig_0>
-81.722

>  <SCORE.INTRA.VDW>
-2.06942

>  <SCORE.INTRA.VDW.0>
1.12598

>  <SCORE.INTRA.norm>
-0.198862

>  <SCORE.RESTR>
0

>  <SCORE.RESTR.CAVITY>
0

>  <SCORE.RESTR.norm>
0

>  <SCORE.SYSTEM>
0

>  <SCORE.SYSTEM.CONST>
0

>  <SCORE.SYSTEM.DIHEDRAL>
0

>  <SCORE.SYSTEM.SOLV>
0

>  <SCORE.SYSTEM.norm>
0

>  <SCORE.heavy>
26

>  <SCORE.norm>
-0.61953

>  <RMSD>
9.269

$$$$
ligand
 OpenBabel11021811433D
libRbt.so/2013.1/901 2013/11/27
 26 27  0  0  0  0  0  0  0  0999 V2000
   28.1260   39.7319   70.7600 C   0  0  0  0  0  0  0  0  0  0  0  0
   22.8371   44.8798   66.7009 C   0  0  0  0  0  0  0  0  0  0  0  0
   18.7339   40.8463   65.5681 P   0  0  1  0  0  0  0  0  0  0  0  0
   16.7587   39.4696   64.6246 P   0  0  1  0  0  0  0  0  0  0  0  0
   24.8927   43.2002   67.6079 C   0  0  0  0  0  0  0  0  0  0  0  0
   25.9402   42.5192   69.7875 C   0  0  0  0  0  0  0  0  0  0  0  0
   25.7489   42.2814   68.4410 C   0  0  0  0  0  0  0  0  0  0  0  0
   26.3683   41.1679   67.8709 C   0  0  0  0  0  0  0  0  0  0  0  0
   26.2080   40.8855   66.5225 N   0  0  0  0  0  0  0  0  0  0  0  0
   27.1198   40.3845   68.6389 N   0  0  0  0  0  0  0  0  0  0  0  0
   27.2716   40.6459   69.9209 C   0  0  0  0  0  0  0  0  0  0  0  0
   26.7004   41.6896   70.4897 N   0  0  0  0  0  0  0  0  0  0  0  0
   17.6309   41.7327   66.0032 O   0  5  0  0  0  0  0  0  0  0  0  0
   16.6184   39.2110   66.1411 O   0  0  0  0  0  0  0  0  0  0  0  0
   21.5743   41.3127   67.7123 S   0  0  0  0  0  0  0  0  0  0  0  0
   23.2900   41.4501   67.9465 C   0  0  0  0  0  0  0  0  0  0  0  0
   19.1397   39.8620   66.7740 O   0  0  0  0  0  0  0  0  0  0  0  0
   15.7013   40.5946   64.1706 O   0  5  0  0  0  0  0  0  0  0  0  0
   23.5231   42.6835   67.5614 N   0  0  0  0  0  0  0  0  0  0  0  0
   18.2535   39.9747   64.3019 O   0  0  0  0  0  0  0  0  0  0  0  0
   16.4806   38.1604   63.8521 O   0  0  0  0  0  0  0  0  0  0  0  0
   22.5535   43.4650   67.1386 C   0  0  2  0  0  0  0  0  0  0  0  0
   21.2916   42.9664   67.0981 C   0  0  2  0  0  0  0  0  0  0  0  0
   20.0095   43.6251   66.6609 C   0  0  0  0  0  0  0  0  0  0  0  0
   19.6128   43.1060   65.2770 C   0  0  0  0  0  0  0  0  0  0  0  0
   20.0078   41.7385   65.1507 O   0  0  0  0  0  0  0  0  0  0  0  0
  1 11  1  0  0  0  0
  3 13  1  1  0  0  0
  3 17  2  0  0  0  0
  3 20  1  0  0  0  0
  3 26  1  0  0  0  0
  4 14  1  1  0  0  0
  4 18  1  0  0  0  0
  4 21  2  0  0  0  0
  4 20  1  0  0  0  0
  5 19  1  0  0  0  0
  5  7  1  0  0  0  0
  6  7  2  0  0  0  0
  6 12  1  0  0  0  0
  7  8  1  0  0  0  0
  8  9  1  0  0  0  0
  8 10  2  0  0  0  0
 10 11  1  0  0  0  0
 11 12  2  0  0  0  0
 15 23  1  0  0  0  0
 15 16  1  0  0  0  0
 16 19  1  0  0  0  0
 19 22  1  0  0  0  0
 22  2  1  6  0  0  0
 22 23  1  0  0  0  0
 23 24  1  1  0  0  0
 24 25  1  0  0  0  0
 25 26  1  0  0  0  0
M  CHG  2  13  -1  18  -1
M  END
>  <CHROM.1>
-43.12760981,-14.39461056,-93.55858911,-33.73059530,-75.93641891,33.66348819
93.97549982,-3.00598362,21.43486078,41.27681350,66.80490292,-0.10220959,0.43129860
3.05222739

>  <Name>
ligand

>  <RI>
0

>  <Rbt.Current_Directory>
/home/itssahil/PROJECTS/Mol_Feturizer/New_Systems/rnas/2HOJ

>  <Rbt.Executable>
rbdock ($Id: //depot/dev/client3/rdock/2013.1/src/exe/rbdock.cxx#4 $)

>  <Rbt.Library>
libRbt.so (2013.1, Build901 2013/11/27)

>  <Rbt.Parameter_File>
/export/apps/rDock/src/rDock_2013.1_src/data/scripts/dock_solv.prm

>  <Rbt.Receptor>
prm/pocket_docking_6.prm

>  <SCORE>
-6.91146

>  <SCORE.INTER>
-11.2715

>  <SCORE.INTER.CONST>
1

>  <SCORE.INTER.POLAR>
0

>  <SCORE.INTER.ROT>
8

>  <SCORE.INTER.SOLV>
36.2324

>  <SCORE.INTER.VDW>
-28.5251

>  <SCORE.INTER.norm>
-0.433518

>  <SCORE.INTRA>
4.24349

>  <SCORE.INTRA.DIHEDRAL>
3.80656

>  <SCORE.INTRA.DIHEDRAL.0>
11.6398

>  <SCORE.INTRA.POLAR>
0

>  <SCORE.INTRA.POLAR.0>
0

>  <SCORE.INTRA.REPUL>
0

>  <SCORE.INTRA.REPUL.0>
0

>  <SCORE.INTRA.SOLV>
3.26473

>  <SCORE.INTRA.SOLV.lig_0>
-81.722

>  <SCORE.INTRA.VDW>
0.707844

>  <SCORE.INTRA.VDW.0>
1.12598

>  <SCORE.INTRA.norm>
0.163211

>  <SCORE.RESTR>
0.116525

>  <SCORE.RESTR.CAVITY>
0.116525

>  <SCORE.RESTR.norm>
0.00448172

>  <SCORE.SYSTEM>
0

>  <SCORE.SYSTEM.CONST>
0

>  <SCORE.SYSTEM.DIHEDRAL>
0

>  <SCORE.SYSTEM.SOLV>
0

>  <SCORE.SYSTEM.norm>
0

>  <SCORE.heavy>
26

>  <SCORE.norm>
-0.265826

>  <RMSD>
9.291

$$$$
ligand
 OpenBabel11021811433D
libRbt.so/2013.1/901 2013/11/27
 26 27  0  0  0  0  0  0  0  0999 V2000
   25.9795   37.3811   76.5163 C   0  0  0  0  0  0  0  0  0  0  0  0
   22.0540   34.5212   70.9614 C   0  0  0  0  0  0  0  0  0  0  0  0
   20.9484   39.4583   66.4991 P   0  0  1  0  0  0  0  0  0  0  0  0
   21.2140   42.0267   66.6397 P   0  0  1  0  0  0  0  0  0  0  0  0
   24.7742   34.8821   71.5443 C   0  0  0  0  0  0  0  0  0  0  0  0
   24.2330   35.4392   73.9336 C   0  0  0  0  0  0  0  0  0  0  0  0
   25.0945   35.5442   72.8598 C   0  0  0  0  0  0  0  0  0  0  0  0
   26.2701   36.2789   73.0236 C   0  0  0  0  0  0  0  0  0  0  0  0
   27.1682   36.4148   71.9755 N   0  0  0  0  0  0  0  0  0  0  0  0
   26.5137   36.8519   74.1985 N   0  0  0  0  0  0  0  0  0  0  0  0
   25.6661   36.7222   75.1984 C   0  0  0  0  0  0  0  0  0  0  0  0
   24.5470   36.0353   75.0760 N   0  0  0  0  0  0  0  0  0  0  0  0
   19.5078   39.4733   66.1586 O   0  5  0  0  0  0  0  0  0  0  0  0
   19.8810   42.0815   65.8609 O   0  0  0  0  0  0  0  0  0  0  0  0
   23.5942   37.6742   69.2211 S   0  0  0  0  0  0  0  0  0  0  0  0
   24.7910   36.8451   70.1686 C   0  0  0  0  0  0  0  0  0  0  0  0
   21.8195   39.6278   65.1573 O   0  0  0  0  0  0  0  0  0  0  0  0
   21.3163   43.2981   67.6211 O   0  5  0  0  0  0  0  0  0  0  0  0
   24.1040   35.8421   70.6644 N   0  0  0  0  0  0  0  0  0  0  0  0
   21.2737   40.6712   67.5074 O   0  0  0  0  0  0  0  0  0  0  0  0
   22.3937   42.0505   65.6419 O   0  0  0  0  0  0  0  0  0  0  0  0
   22.8291   35.6792   70.3851 C   0  0  2  0  0  0  0  0  0  0  0  0
   22.2244   36.5821   69.5717 C   0  0  2  0  0  0  0  0  0  0  0  0
   20.7971   36.6439   69.0944 C   0  0  0  0  0  0  0  0  0  0  0  0
   20.5448   37.9873   68.4061 C   0  0  0  0  0  0  0  0  0  0  0  0
   21.3189   38.0602   67.2072 O   0  0  0  0  0  0  0  0  0  0  0  0
  1 11  1  0  0  0  0
  3 13  1  6  0  0  0
  3 17  2  0  0  0  0
  3 20  1  0  0  0  0
  3 26  1  0  0  0  0
  4 14  1  6  0  0  0
  4 18  1  0  0  0  0
  4 21  2  0  0  0  0
  4 20  1  0  0  0  0
  5 19  1  0  0  0  0
  5  7  1  0  0  0  0
  6  7  2  0  0  0  0
  6 12  1  0  0  0  0
  7  8  1  0  0  0  0
  8  9  1  0  0  0  0
  8 10  2  0  0  0  0
 10 11  1  0  0  0  0
 11 12  2  0  0  0  0
 15 23  1  0  0  0  0
 15 16  1  0  0  0  0
 16 19  1  0  0  0  0
 19 22  1  0  0  0  0
 22  2  1  1  0  0  0
 22 23  1  0  0  0  0
 23 24  1  6  0  0  0
 24 25  1  0  0  0  0
 25 26  1  0  0  0  0
M  CHG  2  13  -1  18  -1
M  END
>  <CHROM.1>
-72.94420352,70.09781687,94.27683896,51.68286516,-10.53431158,66.32598823
177.12213926,-61.54118977,22.85804057,38.22001074,69.55231306,-0.73441214
-0.92221657,-0.25812078

>  <Name>
ligand

>  <RI>
0

>  <Rbt.Current_Directory>
/home/itssahil/PROJECTS/Mol_Feturizer/New_Systems/rnas/2HOJ

>  <Rbt.Executable>
rbdock ($Id: //depot/dev/client3/rdock/2013.1/src/exe/rbdock.cxx#4 $)

>  <Rbt.Library>
libRbt.so (2013.1, Build901 2013/11/27)

>  <Rbt.Parameter_File>
/export/apps/rDock/src/rDock_2013.1_src/data/scripts/dock_solv.prm

>  <Rbt.Receptor>
prm/blind_docking_100.prm

>  <SCORE>
-20.3907

>  <SCORE.INTER>
-14.8554

>  <SCORE.INTER.CONST>
1

>  <SCORE.INTER.POLAR>
0

>  <SCORE.INTER.ROT>
8

>  <SCORE.INTER.SOLV>
20.9472

>  <SCORE.INTER.VDW>
-25.8194

>  <SCORE.INTER.norm>
-0.571362

>  <SCORE.INTRA>
-5.53534

>  <SCORE.INTRA.DIHEDRAL>
-6.4681

>  <SCORE.INTRA.DIHEDRAL.0>
11.6398

>  <SCORE.INTRA.POLAR>
0

>  <SCORE.INTRA.POLAR.0>
0

>  <SCORE.INTRA.REPUL>
0

>  <SCORE.INTRA.REPUL.0>
0

>  <SCORE.INTRA.SOLV>
1.94526

>  <SCORE.INTRA.SOLV.lig_0>
-81.722

>  <SCORE.INTRA.VDW>
-3.27392

>  <SCORE.INTRA.VDW.0>
1.12598

>  <SCORE.INTRA.norm>
-0.212898

>  <SCORE.RESTR>
0

>  <SCORE.RESTR.CAVITY>
0

>  <SCORE.RESTR.norm>
0

>  <SCORE.SYSTEM>
0

>  <SCORE.SYSTEM.CONST>
0

>  <SCORE.SYSTEM.DIHEDRAL>
0

>  <SCORE.SYSTEM.SOLV>
0

>  <SCORE.SYSTEM.norm>
0

>  <SCORE.heavy>
26

>  <SCORE.norm>
-0.784259

>  <RMSD>
9.306

$$$$
ligand
 OpenBabel11021811433D
libRbt.so/2013.1/901 2013/11/27
 26 27  0  0  0  0  0  0  0  0999 V2000
   23.5989   35.2823   77.3135 C   0  0  0  0  0  0  0  0  0  0  0  0
   28.5547   40.0975   74.2495 C   0  0  0  0  0  0  0  0  0  0  0  0
   28.0676   39.9847   67.7975 P   0  0  1  0  0  0  0  0  0  0  0  0
   26.2000   38.8112   66.4476 P   0  0  1  0  0  0  0  0  0  0  0  0
   28.2330   37.3531   74.7338 C   0  0  0  0  0  0  0  0  0  0  0  0
   25.7545   36.9618   74.8590 C   0  0  0  0  0  0  0  0  0  0  0  0
   27.0073   36.8046   75.4178 C   0  0  0  0  0  0  0  0  0  0  0  0
   27.1097   36.1241   76.6323 C   0  0  0  0  0  0  0  0  0  0  0  0
   28.3451   35.9401   77.2351 N   0  0  0  0  0  0  0  0  0  0  0  0
   26.0038   35.6596   77.2063 N   0  0  0  0  0  0  0  0  0  0  0  0
   24.8286   35.8280   76.6357 C   0  0  0  0  0  0  0  0  0  0  0  0
   24.6979   36.4662   75.4892 N   0  0  0  0  0  0  0  0  0  0  0  0
   29.0629   39.0851   67.1716 O   0  5  0  0  0  0  0  0  0  0  0  0
   27.2507   37.8688   65.8199 O   0  0  0  0  0  0  0  0  0  0  0  0
   27.1062   38.1527   71.1735 S   0  0  0  0  0  0  0  0  0  0  0  0
   27.3866   37.0770   72.5082 C   0  0  0  0  0  0  0  0  0  0  0  0
   27.8734   41.2921   66.8806 O   0  0  0  0  0  0  0  0  0  0  0  0
   24.7757   38.0645   66.5085 O   0  5  0  0  0  0  0  0  0  0  0  0
   27.8620   37.8902   73.4228 N   0  0  0  0  0  0  0  0  0  0  0  0
   26.6610   39.2130   67.9375 O   0  0  0  0  0  0  0  0  0  0  0  0
   26.0752   40.0882   65.5863 O   0  0  0  0  0  0  0  0  0  0  0  0
   28.0085   39.1760   73.1882 C   0  0  2  0  0  0  0  0  0  0  0  0
   27.6637   39.6541   71.9654 C   0  0  2  0  0  0  0  0  0  0  0  0
   27.7291   41.0594   71.4273 C   0  0  0  0  0  0  0  0  0  0  0  0
   27.4772   41.0424   69.9179 C   0  0  0  0  0  0  0  0  0  0  0  0
   28.5839   40.4245   69.2580 O   0  0  0  0  0  0  0  0  0  0  0  0
  1 11  1  0  0  0  0
  3 13  1  6  0  0  0
  3 17  2  0  0  0  0
  3 20  1  0  0  0  0
  3 26  1  0  0  0  0
  4 14  1  6  0  0  0
  4 18  1  0  0  0  0
  4 21  2  0  0  0  0
  4 20  1  0  0  0  0
  5 19  1  0  0  0  0
  5  7  1  0  0  0  0
  6  7  2  0  0  0  0
  6 12  1  0  0  0  0
  7  8  1  0  0  0  0
  8  9  1  0  0  0  0
  8 10  2  0  0  0  0
 10 11  1  0  0  0  0
 11 12  2  0  0  0  0
 15 23  1  0  0  0  0
 15 16  1  0  0  0  0
 16 19  1  0  0  0  0
 19 22  1  0  0  0  0
 22  2  1  6  0  0  0
 22 23  1  0  0  0  0
 23 24  1  1  0  0  0
 24 25  1  0  0  0  0
 25 26  1  0  0  0  0
M  CHG  2  13  -1  18  -1
M  END
>  <CHROM.1>
-60.35114316,-63.52909638,-5.86008488,61.29355457,-10.74910686,-69.14880536
161.12206122,-167.85746628,27.02029132,38.43529706,71.16439241,1.68257815
0.71577257,1.82139061

>  <Name>
ligand

>  <RI>
0

>  <Rbt.Current_Directory>
/home/itssahil/PROJECTS/Mol_Feturizer/New_Systems/rnas/2HOJ

>  <Rbt.Executable>
rbdock ($Id: //depot/dev/client3/rdock/2013.1/src/exe/rbdock.cxx#4 $)

>  <Rbt.Library>
libRbt.so (2013.1, Build901 2013/11/27)

>  <Rbt.Parameter_File>
/export/apps/rDock/src/rDock_2013.1_src/data/scripts/dock_solv.prm

>  <Rbt.Receptor>
prm/blind_docking_100.prm

>  <SCORE>
-16.018

>  <SCORE.INTER>
-11.3099

>  <SCORE.INTER.CONST>
1

>  <SCORE.INTER.POLAR>
-0.987068

>  <SCORE.INTER.ROT>
8

>  <SCORE.INTER.SOLV>
17.0773

>  <SCORE.INTER.VDW>
-18.8755

>  <SCORE.INTER.norm>
-0.434997

>  <SCORE.INTRA>
-4.70806

>  <SCORE.INTRA.DIHEDRAL>
-4.87427

>  <SCORE.INTRA.DIHEDRAL.0>
11.6398

>  <SCORE.INTRA.POLAR>
0

>  <SCORE.INTRA.POLAR.0>
0

>  <SCORE.INTRA.REPUL>
0

>  <SCORE.INTRA.REPUL.0>
0

>  <SCORE.INTRA.SOLV>
0.889378

>  <SCORE.INTRA.SOLV.lig_0>
-81.722

>  <SCORE.INTRA.VDW>
-2.71561

>  <SCORE.INTRA.VDW.0>
1.12598

>  <SCORE.INTRA.norm>
-0.181079

>  <SCORE.RESTR>
0

>  <SCORE.RESTR.CAVITY>
0

>  <SCORE.RESTR.norm>
0

>  <SCORE.SYSTEM>
0

>  <SCORE.SYSTEM.CONST>
0

>  <SCORE.SYSTEM.DIHEDRAL>
0

>  <SCORE.SYSTEM.SOLV>
0

>  <SCORE.SYSTEM.norm>
0

>  <SCORE.heavy>
26

>  <SCORE.norm>
-0.616077

>  <RMSD>
9.319

$$$$
ligand
 OpenBabel11021811433D
libRbt.so/2013.1/901 2013/11/27
 26 27  0  0  0  0  0  0  0  0999 V2000
   25.7583   37.1618   76.6849 C   0  0  0  0  0  0  0  0  0  0  0  0
   21.7767   34.5743   70.8233 C   0  0  0  0  0  0  0  0  0  0  0  0
   21.3754   40.3278   67.3920 P   0  0  1  0  0  0  0  0  0  0  0  0
   21.4008   42.8774   66.9609 P   0  0  1  0  0  0  0  0  0  0  0  0
   24.4261   34.6738   71.7398 C   0  0  0  0  0  0  0  0  0  0  0  0
   25.7263   36.3331   73.1066 C   0  0  0  0  0  0  0  0  0  0  0  0
   24.7778   35.3314   73.0494 C   0  0  0  0  0  0  0  0  0  0  0  0
   24.1525   34.9434   74.2356 C   0  0  0  0  0  0  0  0  0  0  0  0
   23.1933   33.9417   74.2318 N   0  0  0  0  0  0  0  0  0  0  0  0
   24.4944   35.5448   75.3713 N   0  0  0  0  0  0  0  0  0  0  0  0
   25.4016   36.4998   75.3795 C   0  0  0  0  0  0  0  0  0  0  0  0
   26.0108   36.8891   74.2767 N   0  0  0  0  0  0  0  0  0  0  0  0
   20.1455   40.3355   66.5682 O   0  5  0  0  0  0  0  0  0  0  0  0
   19.9487   42.8857   66.4338 O   0  0  0  0  0  0  0  0  0  0  0  0
   23.8164   37.5557   69.3092 S   0  0  0  0  0  0  0  0  0  0  0  0
   24.8016   36.6195   70.3910 C   0  0  0  0  0  0  0  0  0  0  0  0
   22.6495   40.0414   66.4526 O   0  0  0  0  0  0  0  0  0  0  0  0
   21.7607   44.3235   67.5687 O   0  5  0  0  0  0  0  0  0  0  0  0
   23.9652   35.6898   70.7910 N   0  0  0  0  0  0  0  0  0  0  0  0
   21.5485   41.7589   68.1101 O   0  0  0  0  0  0  0  0  0  0  0  0
   22.3673   42.5521   65.7998 O   0  0  0  0  0  0  0  0  0  0  0  0
   22.7249   35.6494   70.3554 C   0  0  2  0  0  0  0  0  0  0  0  0
   22.3150   36.6026   69.4802 C   0  0  2  0  0  0  0  0  0  0  0  0
   20.9702   36.7996   68.8310 C   0  0  0  0  0  0  0  0  0  0  0  0
   21.0523   37.9454   67.8199 C   0  0  0  0  0  0  0  0  0  0  0  0
   21.2646   39.1770   68.5129 O   0  0  0  0  0  0  0  0  0  0  0  0
  1 11  1  0  0  0  0
  3 13  1  6  0  0  0
  3 17  2  0  0  0  0
  3 20  1  0  0  0  0
  3 26  1  0  0  0  0
  4 14  1  6  0  0  0
  4 18  1  0  0  0  0
  4 21  2  0  0  0  0
  4 20  1  0  0  0  0
  5 19  1  0  0  0  0
  5  7  1  0  0  0  0
  6  7  2  0  0  0  0
  6 12  1  0  0  0  0
  7  8  1  0  0  0  0
  8  9  1  0  0  0  0
  8 10  2  0  0  0  0
 10 11  1  0  0  0  0
 11 12  2  0  0  0  0
 15 23  1  0  0  0  0
 15 16  1  0  0  0  0
 16 19  1  0  0  0  0
 19 22  1  0  0  0  0
 22  2  1  1  0  0  0
 22 23  1  0  0  0  0
 23 24  1  6  0  0  0
 24 25  1  0  0  0  0
 25 26  1  0  0  0  0
M  CHG  2  13  -1  18  -1
M  END
>  <CHROM.1>
-50.58755003,64.37904845,-57.78472685,67.53923290,5.05034093,-67.47641701
178.68952138,57.47767718,22.80584796,38.41646842,69.90921933,-0.86797916
-1.02527748,-0.20597095

>  <Name>
ligand

>  <RI>
0

>  <Rbt.Current_Directory>
/home/itssahil/PROJECTS/Mol_Feturizer/New_Systems/rnas/2HOJ

>  <Rbt.Executable>
rbdock ($Id: //depot/dev/client3/rdock/2013.1/src/exe/rbdock.cxx#4 $)

>  <Rbt.Library>
libRbt.so (2013.1, Build901 2013/11/27)

>  <Rbt.Parameter_File>
/export/apps/rDock/src/rDock_2013.1_src/data/scripts/dock_solv.prm

>  <Rbt.Receptor>
prm/pocket_docking_8.prm

>  <SCORE>
-21.5802

>  <SCORE.INTER>
-16.8536

>  <SCORE.INTER.CONST>
1

>  <SCORE.INTER.POLAR>
0

>  <SCORE.INTER.ROT>
8

>  <SCORE.INTER.SOLV>
16.189

>  <SCORE.INTER.VDW>
-25.5654

>  <SCORE.INTER.norm>
-0.648214

>  <SCORE.INTRA>
-4.72664

>  <SCORE.INTRA.DIHEDRAL>
-6.59955

>  <SCORE.INTRA.DIHEDRAL.0>
11.6398

>  <SCORE.INTRA.POLAR>
0

>  <SCORE.INTRA.POLAR.0>
0

>  <SCORE.INTRA.REPUL>
0

>  <SCORE.INTRA.REPUL.0>
0

>  <SCORE.INTRA.SOLV>
2.58895

>  <SCORE.INTRA.SOLV.lig_0>
-81.722

>  <SCORE.INTRA.VDW>
-2.72134

>  <SCORE.INTRA.VDW.0>
1.12598

>  <SCORE.INTRA.norm>
-0.181794

>  <SCORE.RESTR>
0

>  <SCORE.RESTR.CAVITY>
0

>  <SCORE.RESTR.norm>
0

>  <SCORE.SYSTEM>
0

>  <SCORE.SYSTEM.CONST>
0

>  <SCORE.SYSTEM.DIHEDRAL>
0

>  <SCORE.SYSTEM.SOLV>
0

>  <SCORE.SYSTEM.norm>
0

>  <SCORE.heavy>
26

>  <SCORE.norm>
-0.830008

>  <RMSD>
9.324

$$$$
ligand
 OpenBabel11021811433D
libRbt.so/2013.1/901 2013/11/27
 26 27  0  0  0  0  0  0  0  0999 V2000
   27.3775   36.1046   77.7447 C   0  0  0  0  0  0  0  0  0  0  0  0
   27.7445   34.1344   71.1729 C   0  0  0  0  0  0  0  0  0  0  0  0
   27.6899   39.8921   68.1759 P   0  0  1  0  0  0  0  0  0  0  0  0
   26.2784   41.9663   68.8020 P   0  0  1  0  0  0  0  0  0  0  0  0
   25.7264   33.4380   72.9927 C   0  0  0  0  0  0  0  0  0  0  0  0
   27.4479   34.6293   74.3815 C   0  0  0  0  0  0  0  0  0  0  0  0
   26.1621   34.1435   74.2511 C   0  0  0  0  0  0  0  0  0  0  0  0
   25.2756   34.3228   75.3144 C   0  0  0  0  0  0  0  0  0  0  0  0
   23.9733   33.8529   75.2333 N   0  0  0  0  0  0  0  0  0  0  0  0
   25.7002   34.9462   76.4096 N   0  0  0  0  0  0  0  0  0  0  0  0
   26.9348   35.3982   76.4899 C   0  0  0  0  0  0  0  0  0  0  0  0
   27.7965   35.2448   75.5035 N   0  0  0  0  0  0  0  0  0  0  0  0
   28.1297   40.5163   66.9075 O   0  5  0  0  0  0  0  0  0  0  0  0
   27.0095   42.6572   67.6297 O   0  0  0  0  0  0  0  0  0  0  0  0
   24.3814   36.0409   70.5430 S   0  0  0  0  0  0  0  0  0  0  0  0
   24.2375   34.9662   71.9001 C   0  0  0  0  0  0  0  0  0  0  0  0
   28.6870   40.3249   69.3617 O   0  0  0  0  0  0  0  0  0  0  0  0
   24.7912   42.5665   68.9371 O   0  5  0  0  0  0  0  0  0  0  0  0
   25.4338   34.4278   71.9537 N   0  0  0  0  0  0  0  0  0  0  0  0
   26.1960   40.3820   68.5246 O   0  0  0  0  0  0  0  0  0  0  0  0
   27.0562   42.2187   70.1132 O   0  0  0  0  0  0  0  0  0  0  0  0
   26.3749   34.7608   71.0974 C   0  0  2  0  0  0  0  0  0  0  0  0
   26.0830   35.6763   70.1387 C   0  0  2  0  0  0  0  0  0  0  0  0
   26.9526   36.2329   69.0420 C   0  0  0  0  0  0  0  0  0  0  0  0
   26.9553   37.7614   69.1161 C   0  0  0  0  0  0  0  0  0  0  0  0
   27.7044   38.2895   68.0197 O   0  0  0  0  0  0  0  0  0  0  0  0
  1 11  1  0  0  0  0
  3 13  1  6  0  0  0
  3 17  2  0  0  0  0
  3 20  1  0  0  0  0
  3 26  1  0  0  0  0
  4 14  1  6  0  0  0
  4 18  1  0  0  0  0
  4 21  2  0  0  0  0
  4 20  1  0  0  0  0
  5 19  1  0  0  0  0
  5  7  1  0  0  0  0
  6  7  2  0  0  0  0
  6 12  1  0  0  0  0
  7  8  1  0  0  0  0
  8  9  1  0  0  0  0
  8 10  2  0  0  0  0
 10 11  1  0  0  0  0
 11 12  2  0  0  0  0
 15 23  1  0  0  0  0
 15 16  1  0  0  0  0
 16 19  1  0  0  0  0
 19 22  1  0  0  0  0
 22  2  1  6  0  0  0
 22 23  1  0  0  0  0
 23 24  1  1  0  0  0
 24 25  1  0  0  0  0
 25 26  1  0  0  0  0
M  CHG  2  13  -1  18  -1
M  END
>  <CHROM.1>
-65.20173032,-85.99860568,-78.89351027,51.34284786,53.88118823,-175.99018351
-178.91701888,-165.17928446,26.45655822,37.57018630,71.09161696,-2.14812695
-1.38730196,-1.34132781

>  <Name>
ligand

>  <RI>
0

>  <Rbt.Current_Directory>
/home/itssahil/PROJECTS/Mol_Feturizer/New_Systems/rnas/2HOJ

>  <Rbt.Executable>
rbdock ($Id: //depot/dev/client3/rdock/2013.1/src/exe/rbdock.cxx#4 $)

>  <Rbt.Library>
libRbt.so (2013.1, Build901 2013/11/27)

>  <Rbt.Parameter_File>
/export/apps/rDock/src/rDock_2013.1_src/data/scripts/dock_solv.prm

>  <Rbt.Receptor>
prm/blind_docking_100.prm

>  <SCORE>
-13.9779

>  <SCORE.INTER>
-8.6748

>  <SCORE.INTER.CONST>
1

>  <SCORE.INTER.POLAR>
-1.29531

>  <SCORE.INTER.ROT>
8

>  <SCORE.INTER.SOLV>
17.6159

>  <SCORE.INTER.VDW>
-16.2708

>  <SCORE.INTER.norm>
-0.333646

>  <SCORE.INTRA>
-5.30314

>  <SCORE.INTRA.DIHEDRAL>
-5.92652

>  <SCORE.INTRA.DIHEDRAL.0>
11.6398

>  <SCORE.INTRA.POLAR>
0

>  <SCORE.INTRA.POLAR.0>
0

>  <SCORE.INTRA.REPUL>
0

>  <SCORE.INTRA.REPUL.0>
0

>  <SCORE.INTRA.SOLV>
1.46647

>  <SCORE.INTRA.SOLV.lig_0>
-81.722

>  <SCORE.INTRA.VDW>
-3.07311

>  <SCORE.INTRA.VDW.0>
1.12598

>  <SCORE.INTRA.norm>
-0.203967

>  <SCORE.RESTR>
0

>  <SCORE.RESTR.CAVITY>
0

>  <SCORE.RESTR.norm>
0

>  <SCORE.SYSTEM>
0

>  <SCORE.SYSTEM.CONST>
0

>  <SCORE.SYSTEM.DIHEDRAL>
0

>  <SCORE.SYSTEM.SOLV>
0

>  <SCORE.SYSTEM.norm>
0

>  <SCORE.heavy>
26

>  <SCORE.norm>
-0.537613

>  <RMSD>
9.383

$$$$
ligand
 OpenBabel11021811433D
libRbt.so/2013.1/901 2013/11/27
 26 27  0  0  0  0  0  0  0  0999 V2000
   28.6877   39.9398   75.8824 C   0  0  0  0  0  0  0  0  0  0  0  0
   25.2887   35.6114   72.0034 C   0  0  0  0  0  0  0  0  0  0  0  0
   26.2074   38.1842   67.9005 P   0  0  1  0  0  0  0  0  0  0  0  0
   27.2309   40.4664   68.5569 P   0  0  1  0  0  0  0  0  0  0  0  0
   26.5925   34.8655   74.3727 C   0  0  0  0  0  0  0  0  0  0  0  0
   26.8727   37.3385   74.0302 C   0  0  0  0  0  0  0  0  0  0  0  0
   27.1478   36.2079   74.7734 C   0  0  0  0  0  0  0  0  0  0  0  0
   27.9533   36.3400   75.9059 C   0  0  0  0  0  0  0  0  0  0  0  0
   28.2595   35.2348   76.6858 N   0  0  0  0  0  0  0  0  0  0  0  0
   28.4278   37.5411   76.2230 N   0  0  0  0  0  0  0  0  0  0  0  0
   28.1363   38.5946   75.4880 C   0  0  0  0  0  0  0  0  0  0  0  0
   27.3787   38.5034   74.4124 N   0  0  0  0  0  0  0  0  0  0  0  0
   24.9958   38.9507   67.5313 O   0  5  0  0  0  0  0  0  0  0  0  0
   25.8886   41.2309   68.5703 O   0  0  0  0  0  0  0  0  0  0  0  0
   28.5511   33.5366   71.3754 S   0  0  0  0  0  0  0  0  0  0  0  0
   28.2787   33.7598   73.0764 C   0  0  0  0  0  0  0  0  0  0  0  0
   27.1639   38.0395   66.6152 O   0  0  0  0  0  0  0  0  0  0  0  0
   28.2816   41.2073   69.5249 O   0  5  0  0  0  0  0  0  0  0  0  0
   27.1692   34.4616   73.0884 N   0  0  0  0  0  0  0  0  0  0  0  0
   26.9955   38.9588   69.0720 O   0  0  0  0  0  0  0  0  0  0  0  0
   27.7908   40.4360   67.1169 O   0  0  0  0  0  0  0  0  0  0  0  0
   26.5633   34.8062   71.9731 C   0  0  2  0  0  0  0  0  0  0  0  0
   27.1158   34.4268   70.7927 C   0  0  2  0  0  0  0  0  0  0  0  0
   26.6473   34.6817   69.3840 C   0  0  0  0  0  0  0  0  0  0  0  0
   26.9465   36.1324   68.9992 C   0  0  0  0  0  0  0  0  0  0  0  0
   25.7803   36.7210   68.4200 O   0  0  0  0  0  0  0  0  0  0  0  0
  1 11  1  0  0  0  0
  3 13  1  6  0  0  0
  3 17  2  0  0  0  0
  3 20  1  0  0  0  0
  3 26  1  0  0  0  0
  4 14  1  1  0  0  0
  4 18  1  0  0  0  0
  4 21  2  0  0  0  0
  4 20  1  0  0  0  0
  5 19  1  0  0  0  0
  5  7  1  0  0  0  0
  6  7  2  0  0  0  0
  6 12  1  0  0  0  0
  7  8  1  0  0  0  0
  8  9  1  0  0  0  0
  8 10  2  0  0  0  0
 10 11  1  0  0  0  0
 11 12  2  0  0  0  0
 15 23  1  0  0  0  0
 15 16  1  0  0  0  0
 16 19  1  0  0  0  0
 19 22  1  0  0  0  0
 22  2  1  6  0  0  0
 22 23  1  0  0  0  0
 23 24  1  1  0  0  0
 24 25  1  0  0  0  0
 25 26  1  0  0  0  0
M  CHG  2  13  -1  18  -1
M  END
>  <CHROM.1>
-53.17712446,90.30193356,65.23734774,72.10651717,-104.64558565,-131.70721007
-174.18364310,-168.98360663,27.16512793,37.29734743,71.14721202,-0.71478789
-1.38118644,-0.25537743

>  <Name>
ligand

>  <RI>
0

>  <Rbt.Current_Directory>
/home/itssahil/PROJECTS/Mol_Feturizer/New_Systems/rnas/2HOJ

>  <Rbt.Executable>
rbdock ($Id: //depot/dev/client3/rdock/2013.1/src/exe/rbdock.cxx#4 $)

>  <Rbt.Library>
libRbt.so (2013.1, Build901 2013/11/27)

>  <Rbt.Parameter_File>
/export/apps/rDock/src/rDock_2013.1_src/data/scripts/dock_solv.prm

>  <Rbt.Receptor>
prm/pocket_docking_8.prm

>  <SCORE>
-14.4884

>  <SCORE.INTER>
-11.7141

>  <SCORE.INTER.CONST>
1

>  <SCORE.INTER.POLAR>
-1.29904

>  <SCORE.INTER.ROT>
8

>  <SCORE.INTER.SOLV>
19.3859

>  <SCORE.INTER.VDW>
-18.8746

>  <SCORE.INTER.norm>
-0.450541

>  <SCORE.INTRA>
-2.86009

>  <SCORE.INTRA.DIHEDRAL>
-1.28603

>  <SCORE.INTRA.DIHEDRAL.0>
11.6398

>  <SCORE.INTRA.POLAR>
0

>  <SCORE.INTRA.POLAR.0>
0

>  <SCORE.INTRA.REPUL>
0

>  <SCORE.INTRA.REPUL.0>
0

>  <SCORE.INTRA.SOLV>
1.31739

>  <SCORE.INTRA.SOLV.lig_0>
-81.722

>  <SCORE.INTRA.VDW>
-2.87577

>  <SCORE.INTRA.VDW.0>
1.12598

>  <SCORE.INTRA.norm>
-0.110003

>  <SCORE.RESTR>
0.0857923

>  <SCORE.RESTR.CAVITY>
0.0857923

>  <SCORE.RESTR.norm>
0.00329971

>  <SCORE.SYSTEM>
0

>  <SCORE.SYSTEM.CONST>
0

>  <SCORE.SYSTEM.DIHEDRAL>
0

>  <SCORE.SYSTEM.SOLV>
0

>  <SCORE.SYSTEM.norm>
0

>  <SCORE.heavy>
26

>  <SCORE.norm>
-0.557245

>  <RMSD>
9.567

$$$$
ligand
 OpenBabel11021811433D
libRbt.so/2013.1/901 2013/11/27
 26 27  0  0  0  0  0  0  0  0999 V2000
   30.9151   37.7376   66.6693 C   0  0  0  0  0  0  0  0  0  0  0  0
   25.0822   38.3417   67.7953 C   0  0  0  0  0  0  0  0  0  0  0  0
   19.2614   39.5180   65.6005 P   0  0  1  0  0  0  0  0  0  0  0  0
   16.8442   40.2056   64.9913 P   0  0  1  0  0  0  0  0  0  0  0  0
   26.4508   40.6004   68.7414 C   0  0  0  0  0  0  0  0  0  0  0  0
   27.9496   39.8975   66.8516 C   0  0  0  0  0  0  0  0  0  0  0  0
   27.6327   39.8421   68.1943 C   0  0  0  0  0  0  0  0  0  0  0  0
   28.4351   39.0659   69.0324 C   0  0  0  0  0  0  0  0  0  0  0  0
   28.1587   38.9768   70.3885 N   0  0  0  0  0  0  0  0  0  0  0  0
   29.4659   38.4080   68.5099 N   0  0  0  0  0  0  0  0  0  0  0  0
   29.7352   38.4928   67.2234 C   0  0  0  0  0  0  0  0  0  0  0  0
   28.9968   39.2169   66.4051 N   0  0  0  0  0  0  0  0  0  0  0  0
   19.5190   40.9185   66.0053 O   0  5  0  0  0  0  0  0  0  0  0  0
   16.1908   39.2951   66.0545 O   0  0  0  0  0  0  0  0  0  0  0  0
   23.9855   41.6582   66.0232 S   0  0  0  0  0  0  0  0  0  0  0  0
   25.2151   41.9694   67.2101 C   0  0  0  0  0  0  0  0  0  0  0  0
   18.7039   38.6883   66.8608 O   0  0  0  0  0  0  0  0  0  0  0  0
   17.2373   41.6161   65.6592 O   0  5  0  0  0  0  0  0  0  0  0  0
   25.4478   40.7686   67.6876 N   0  0  0  0  0  0  0  0  0  0  0  0
   18.1699   39.4943   64.4165 O   0  0  0  0  0  0  0  0  0  0  0  0
   15.8466   40.4439   63.8354 O   0  0  0  0  0  0  0  0  0  0  0  0
   24.8026   39.7145   67.2376 C   0  0  2  0  0  0  0  0  0  0  0  0
   23.8733   39.8915   66.2642 C   0  0  2  0  0  0  0  0  0  0  0  0
   22.9949   38.8797   65.5761 C   0  0  0  0  0  0  0  0  0  0  0  0
   21.5763   38.9621   66.1442 C   0  0  0  0  0  0  0  0  0  0  0  0
   20.6301   38.8486   65.0793 O   0  0  0  0  0  0  0  0  0  0  0  0
  1 11  1  0  0  0  0
  3 13  1  1  0  0  0
  3 17  2  0  0  0  0
  3 20  1  0  0  0  0
  3 26  1  0  0  0  0
  4 14  1  1  0  0  0
  4 18  1  0  0  0  0
  4 21  2  0  0  0  0
  4 20  1  0  0  0  0
  5 19  1  0  0  0  0
  5  7  1  0  0  0  0
  6  7  2  0  0  0  0
  6 12  1  0  0  0  0
  7  8  1  0  0  0  0
  8  9  1  0  0  0  0
  8 10  2  0  0  0  0
 10 11  1  0  0  0  0
 11 12  2  0  0  0  0
 15 23  1  0  0  0  0
 15 16  1  0  0  0  0
 16 19  1  0  0  0  0
 19 22  1  0  0  0  0
 22  2  1  1  0  0  0
 22 23  1  0  0  0  0
 23 24  1  6  0  0  0
 24 25  1  0  0  0  0
 25 26  1  0  0  0  0
M  CHG  2  13  -1  18  -1
M  END
>  <CHROM.1>
-58.74479421,-111.70177668,27.43316370,-70.11016713,-77.32838160,138.79057923
-157.53881472,57.08222809,22.87969564,39.76645481,66.50086868,0.05821428
0.23919909,-3.08703900

>  <Name>
ligand

>  <RI>
0

>  <Rbt.Current_Directory>
/home/itssahil/PROJECTS/Mol_Feturizer/New_Systems/rnas/2HOJ

>  <Rbt.Executable>
rbdock ($Id: //depot/dev/client3/rdock/2013.1/src/exe/rbdock.cxx#4 $)

>  <Rbt.Library>
libRbt.so (2013.1, Build901 2013/11/27)

>  <Rbt.Parameter_File>
/export/apps/rDock/src/rDock_2013.1_src/data/scripts/dock_solv.prm

>  <Rbt.Receptor>
prm/pocket_docking_2.prm

>  <SCORE>
1.71955

>  <SCORE.INTER>
0.437677

>  <SCORE.INTER.CONST>
1

>  <SCORE.INTER.POLAR>
0

>  <SCORE.INTER.ROT>
8

>  <SCORE.INTER.SOLV>
37.1305

>  <SCORE.INTER.VDW>
-21.0184

>  <SCORE.INTER.norm>
0.0168337

>  <SCORE.INTRA>
-0.880029

>  <SCORE.INTRA.DIHEDRAL>
0.0947507

>  <SCORE.INTRA.DIHEDRAL.0>
11.6398

>  <SCORE.INTRA.POLAR>
0

>  <SCORE.INTRA.POLAR.0>
0

>  <SCORE.INTRA.REPUL>
0

>  <SCORE.INTRA.REPUL.0>
0

>  <SCORE.INTRA.SOLV>
2.36086

>  <SCORE.INTRA.SOLV.lig_0>
-81.722

>  <SCORE.INTRA.VDW>
-2.10784

>  <SCORE.INTRA.VDW.0>
1.12598

>  <SCORE.INTRA.norm>
-0.0338473

>  <SCORE.RESTR>
2.1619

>  <SCORE.RESTR.CAVITY>
2.1619

>  <SCORE.RESTR.norm>
0.0831501

>  <SCORE.SYSTEM>
0

>  <SCORE.SYSTEM.CONST>
0

>  <SCORE.SYSTEM.DIHEDRAL>
0

>  <SCORE.SYSTEM.SOLV>
0

>  <SCORE.SYSTEM.norm>
0

>  <SCORE.heavy>
26

>  <SCORE.norm>
0.0661366

>  <RMSD>
9.570

$$$$
ligand
 OpenBabel11021811433D
libRbt.so/2013.1/901 2013/11/27
 26 27  0  0  0  0  0  0  0  0999 V2000
   21.1217   37.4711   68.6032 C   0  0  0  0  0  0  0  0  0  0  0  0
   26.9318   35.5421   72.1359 C   0  0  0  0  0  0  0  0  0  0  0  0
   28.1421   38.9919   78.0178 P   0  0  1  0  0  0  0  0  0  0  0  0
   29.0080   39.7838   80.3221 P   0  0  1  0  0  0  0  0  0  0  0  0
   24.4336   34.2782   71.9581 C   0  0  0  0  0  0  0  0  0  0  0  0
   23.9778   36.3604   70.6283 C   0  0  0  0  0  0  0  0  0  0  0  0
   23.5559   35.1223   71.0702 C   0  0  0  0  0  0  0  0  0  0  0  0
   22.2957   34.6719   70.6732 C   0  0  0  0  0  0  0  0  0  0  0  0
   21.8254   33.4356   71.0903 N   0  0  0  0  0  0  0  0  0  0  0  0
   21.5496   35.4487   69.8934 N   0  0  0  0  0  0  0  0  0  0  0  0
   21.9935   36.6218   69.4910 C   0  0  0  0  0  0  0  0  0  0  0  0
   23.1788   37.0761   69.8483 N   0  0  0  0  0  0  0  0  0  0  0  0
   26.9904   38.3846   78.7223 O   0  5  0  0  0  0  0  0  0  0  0  0
   28.6341   41.2374   79.9568 O   0  0  0  0  0  0  0  0  0  0  0  0
   24.7180   36.0562   75.3260 S   0  0  0  0  0  0  0  0  0  0  0  0
   23.8877   35.0872   74.1475 C   0  0  0  0  0  0  0  0  0  0  0  0
   27.7848   40.5064   77.6102 O   0  0  0  0  0  0  0  0  0  0  0  0
   27.7447   39.0592   81.0070 O   0  5  0  0  0  0  0  0  0  0  0  0
   24.7648   35.0271   73.1723 N   0  0  0  0  0  0  0  0  0  0  0  0
   29.4277   38.9857   78.9877 O   0  0  0  0  0  0  0  0  0  0  0  0
   30.1954   39.7915   81.3111 O   0  0  0  0  0  0  0  0  0  0  0  0
   25.9345   35.6214   73.2641 C   0  0  2  0  0  0  0  0  0  0  0  0
   26.2209   36.3148   74.3953 C   0  0  2  0  0  0  0  0  0  0  0  0
   27.4618   37.0846   74.7647 C   0  0  0  0  0  0  0  0  0  0  0  0
   27.2176   37.8582   76.0624 C   0  0  0  0  0  0  0  0  0  0  0  0
   28.4696   38.1411   76.6903 O   0  0  0  0  0  0  0  0  0  0  0  0
  1 11  1  0  0  0  0
  3 13  1  1  0  0  0
  3 17  2  0  0  0  0
  3 20  1  0  0  0  0
  3 26  1  0  0  0  0
  4 14  1  6  0  0  0
  4 18  1  0  0  0  0
  4 21  2  0  0  0  0
  4 20  1  0  0  0  0
  5 19  1  0  0  0  0
  5  7  1  0  0  0  0
  6  7  2  0  0  0  0
  6 12  1  0  0  0  0
  7  8  1  0  0  0  0
  8  9  1  0  0  0  0
  8 10  2  0  0  0  0
 10 11  1  0  0  0  0
 11 12  2  0  0  0  0
 15 23  1  0  0  0  0
 15 16  1  0  0  0  0
 16 19  1  0  0  0  0
 19 22  1  0  0  0  0
 22  2  1  6  0  0  0
 22 23  1  0  0  0  0
 23 24  1  1  0  0  0
 24 25  1  0  0  0  0
 25 26  1  0  0  0  0
M  CHG  2  13  -1  18  -1
M  END
>  <CHROM.1>
-57.12536129,80.20332719,57.60881272,-61.13582558,-8.41207853,157.23777579
178.26387645,43.91800831,26.00777275,37.34150638,75.20747254,2.83605347,1.00388254
3.07519874

>  <Name>
ligand

>  <RI>
0

>  <Rbt.Current_Directory>
/home/itssahil/PROJECTS/Mol_Feturizer/New_Systems/rnas/2HOJ

>  <Rbt.Executable>
rbdock ($Id: //depot/dev/client3/rdock/2013.1/src/exe/rbdock.cxx#4 $)

>  <Rbt.Library>
libRbt.so (2013.1, Build901 2013/11/27)

>  <Rbt.Parameter_File>
/export/apps/rDock/src/rDock_2013.1_src/data/scripts/dock_solv.prm

>  <Rbt.Receptor>
prm/blind_docking_100.prm

>  <SCORE>
-23.548

>  <SCORE.INTER>
-19.5024

>  <SCORE.INTER.CONST>
1

>  <SCORE.INTER.POLAR>
-1.25839

>  <SCORE.INTER.ROT>
8

>  <SCORE.INTER.SOLV>
20.0878

>  <SCORE.INTER.VDW>
-24.4362

>  <SCORE.INTER.norm>
-0.750092

>  <SCORE.INTRA>
-4.04558

>  <SCORE.INTRA.DIHEDRAL>
-4.87867

>  <SCORE.INTRA.DIHEDRAL.0>
11.6398

>  <SCORE.INTRA.POLAR>
0

>  <SCORE.INTRA.POLAR.0>
0

>  <SCORE.INTRA.REPUL>
0

>  <SCORE.INTRA.REPUL.0>
0

>  <SCORE.INTRA.SOLV>
1.34614

>  <SCORE.INTRA.SOLV.lig_0>
-81.722

>  <SCORE.INTRA.VDW>
-2.27932

>  <SCORE.INTRA.VDW.0>
1.12598

>  <SCORE.INTRA.norm>
-0.155599

>  <SCORE.RESTR>
0

>  <SCORE.RESTR.CAVITY>
0

>  <SCORE.RESTR.norm>
0

>  <SCORE.SYSTEM>
0

>  <SCORE.SYSTEM.CONST>
0

>  <SCORE.SYSTEM.DIHEDRAL>
0

>  <SCORE.SYSTEM.SOLV>
0

>  <SCORE.SYSTEM.norm>
0

>  <SCORE.heavy>
26

>  <SCORE.norm>
-0.905691

>  <RMSD>
9.606

$$$$
ligand
 OpenBabel11021811433D
libRbt.so/2013.1/901 2013/11/27
 26 27  0  0  0  0  0  0  0  0999 V2000
   27.6469   39.2140   76.3420 C   0  0  0  0  0  0  0  0  0  0  0  0
   25.3759   34.9420   72.2825 C   0  0  0  0  0  0  0  0  0  0  0  0
   27.9200   37.4955   67.1576 P   0  0  1  0  0  0  0  0  0  0  0  0
   27.3506   39.8200   68.1370 P   0  0  1  0  0  0  0  0  0  0  0  0
   26.9843   33.9240   74.3431 C   0  0  0  0  0  0  0  0  0  0  0  0
   27.9967   36.2211   74.2415 C   0  0  0  0  0  0  0  0  0  0  0  0
   27.1588   35.3239   74.8733 C   0  0  0  0  0  0  0  0  0  0  0  0
   26.4769   35.7465   76.0158 C   0  0  0  0  0  0  0  0  0  0  0  0
   25.6240   34.8834   76.6872 N   0  0  0  0  0  0  0  0  0  0  0  0
   26.6619   36.9881   76.4546 N   0  0  0  0  0  0  0  0  0  0  0  0
   27.4675   37.8131   75.8179 C   0  0  0  0  0  0  0  0  0  0  0  0
   28.1262   37.4448   74.7364 N   0  0  0  0  0  0  0  0  0  0  0  0
   28.1681   36.7295   65.9152 O   0  5  0  0  0  0  0  0  0  0  0  0
   26.8210   38.9648   69.3094 O   0  0  0  0  0  0  0  0  0  0  0  0
   28.7747   33.4780   70.9994 S   0  0  0  0  0  0  0  0  0  0  0  0
   28.6486   33.3255   72.7251 C   0  0  0  0  0  0  0  0  0  0  0  0
   29.2996   37.6684   67.9668 O   0  0  0  0  0  0  0  0  0  0  0  0
   28.8572   40.2902   68.4518 O   0  5  0  0  0  0  0  0  0  0  0  0
   27.4731   33.8593   72.9640 N   0  0  0  0  0  0  0  0  0  0  0  0
   27.3311   38.9470   66.7838 O   0  0  0  0  0  0  0  0  0  0  0  0
   26.4500   41.0632   67.9597 O   0  0  0  0  0  0  0  0  0  0  0  0
   26.7245   34.3331   71.9920 C   0  0  2  0  0  0  0  0  0  0  0  0
   27.1969   34.2686   70.7211 C   0  0  2  0  0  0  0  0  0  0  0  0
   26.5652   34.7309   69.4343 C   0  0  0  0  0  0  0  0  0  0  0  0
   27.5544   35.6090   68.6645 C   0  0  0  0  0  0  0  0  0  0  0  0
   26.8557   36.7060   68.0724 O   0  0  0  0  0  0  0  0  0  0  0  0
  1 11  1  0  0  0  0
  3 13  1  6  0  0  0
  3 17  2  0  0  0  0
  3 20  1  0  0  0  0
  3 26  1  0  0  0  0
  4 14  1  1  0  0  0
  4 18  1  0  0  0  0
  4 21  2  0  0  0  0
  4 20  1  0  0  0  0
  5 19  1  0  0  0  0
  5  7  1  0  0  0  0
  6  7  2  0  0  0  0
  6 12  1  0  0  0  0
  7  8  1  0  0  0  0
  8  9  1  0  0  0  0
  8 10  2  0  0  0  0
 10 11  1  0  0  0  0
 11 12  2  0  0  0  0
 15 23  1  0  0  0  0
 15 16  1  0  0  0  0
 16 19  1  0  0  0  0
 19 22  1  0  0  0  0
 22  2  1  1  0  0  0
 22 23  1  0  0  0  0
 23 24  1  6  0  0  0
 24 25  1  0  0  0  0
 25 26  1  0  0  0  0
M  CHG  2  13  -1  18  -1
M  END
>  <CHROM.1>
-169.40388625,102.28855240,-16.51272090,-44.27814357,-51.34427060,-140.25635973
-174.19711467,75.38101720,27.45426293,36.68492269,70.98126952,2.28524294
-1.45677698,2.65199488

>  <Name>
ligand

>  <RI>
0

>  <Rbt.Current_Directory>
/home/itssahil/PROJECTS/Mol_Feturizer/New_Systems/rnas/2HOJ

>  <Rbt.Executable>
rbdock ($Id: //depot/dev/client3/rdock/2013.1/src/exe/rbdock.cxx#4 $)

>  <Rbt.Library>
libRbt.so (2013.1, Build901 2013/11/27)

>  <Rbt.Parameter_File>
/export/apps/rDock/src/rDock_2013.1_src/data/scripts/dock_solv.prm

>  <Rbt.Receptor>
prm/blind_docking_100.prm

>  <SCORE>
-16.405

>  <SCORE.INTER>
-12.8516

>  <SCORE.INTER.CONST>
1

>  <SCORE.INTER.POLAR>
-1.29904

>  <SCORE.INTER.ROT>
8

>  <SCORE.INTER.SOLV>
13.904

>  <SCORE.INTER.VDW>
-17.8056

>  <SCORE.INTER.norm>
-0.494294

>  <SCORE.INTRA>
-3.55338

>  <SCORE.INTRA.DIHEDRAL>
-1.30356

>  <SCORE.INTRA.DIHEDRAL.0>
11.6398

>  <SCORE.INTRA.POLAR>
0

>  <SCORE.INTRA.POLAR.0>
0

>  <SCORE.INTRA.REPUL>
0

>  <SCORE.INTRA.REPUL.0>
0

>  <SCORE.INTRA.SOLV>
0.132968

>  <SCORE.INTRA.SOLV.lig_0>
-81.722

>  <SCORE.INTRA.VDW>
-2.96808

>  <SCORE.INTRA.VDW.0>
1.12598

>  <SCORE.INTRA.norm>
-0.136668

>  <SCORE.RESTR>
0

>  <SCORE.RESTR.CAVITY>
0

>  <SCORE.RESTR.norm>
0

>  <SCORE.SYSTEM>
0

>  <SCORE.SYSTEM.CONST>
0

>  <SCORE.SYSTEM.DIHEDRAL>
0

>  <SCORE.SYSTEM.SOLV>
0

>  <SCORE.SYSTEM.norm>
0

>  <SCORE.heavy>
26

>  <SCORE.norm>
-0.630963

>  <RMSD>
9.615

$$$$
ligand
 OpenBabel11021811433D
libRbt.so/2013.1/901 2013/11/27
 26 27  0  0  0  0  0  0  0  0999 V2000
   28.2910   42.5724   77.0893 C   0  0  0  0  0  0  0  0  0  0  0  0
   26.2200   35.7239   74.0908 C   0  0  0  0  0  0  0  0  0  0  0  0
   24.2993   37.9843   68.0655 P   0  0  1  0  0  0  0  0  0  0  0  0
   25.5724   38.0698   65.8163 P   0  0  1  0  0  0  0  0  0  0  0  0
   28.3724   37.4445   74.6161 C   0  0  0  0  0  0  0  0  0  0  0  0
   28.9250   39.8950   74.6559 C   0  0  0  0  0  0  0  0  0  0  0  0
   28.3502   38.8012   75.2719 C   0  0  0  0  0  0  0  0  0  0  0  0
   27.7475   38.9840   76.5177 C   0  0  0  0  0  0  0  0  0  0  0  0
   27.1566   37.9172   77.1782 N   0  0  0  0  0  0  0  0  0  0  0  0
   27.7534   40.1959   77.0651 N   0  0  0  0  0  0  0  0  0  0  0  0
   28.3094   41.2132   76.4399 C   0  0  0  0  0  0  0  0  0  0  0  0
   28.8870   41.0738   75.2626 N   0  0  0  0  0  0  0  0  0  0  0  0
   23.9724   39.4087   67.8291 O   0  5  0  0  0  0  0  0  0  0  0  0
   24.3467   37.3721   65.1860 O   0  0  0  0  0  0  0  0  0  0  0  0
   27.0547   38.1017   71.0923 S   0  0  0  0  0  0  0  0  0  0  0  0
   28.1310   38.3873   72.4254 C   0  0  0  0  0  0  0  0  0  0  0  0
   23.1406   37.0569   67.4448 O   0  0  0  0  0  0  0  0  0  0  0  0
   25.3897   39.6660   65.7232 O   0  5  0  0  0  0  0  0  0  0  0  0
   27.7054   37.5199   73.3144 N   0  0  0  0  0  0  0  0  0  0  0  0
   25.7040   37.6326   67.3607 O   0  0  0  0  0  0  0  0  0  0  0  0
   26.8500   37.6527   65.0535 O   0  0  0  0  0  0  0  0  0  0  0  0
   26.6963   36.7158   73.0598 C   0  0  2  0  0  0  0  0  0  0  0  0
   26.0879   36.8041   71.8496 C   0  0  2  0  0  0  0  0  0  0  0  0
   24.9244   36.0230   71.2974 C   0  0  0  0  0  0  0  0  0  0  0  0
   24.7569   36.3367   69.8089 C   0  0  0  0  0  0  0  0  0  0  0  0
   24.4131   37.7145   69.6489 O   0  0  0  0  0  0  0  0  0  0  0  0
  1 11  1  0  0  0  0
  3 13  1  6  0  0  0
  3 17  2  0  0  0  0
  3 20  1  0  0  0  0
  3 26  1  0  0  0  0
  4 14  1  6  0  0  0
  4 18  1  0  0  0  0
  4 21  2  0  0  0  0
  4 20  1  0  0  0  0
  5 19  1  0  0  0  0
  5  7  1  0  0  0  0
  6  7  2  0  0  0  0
  6 12  1  0  0  0  0
  7  8  1  0  0  0  0
  8  9  1  0  0  0  0
  8 10  2  0  0  0  0
 10 11  1  0  0  0  0
 11 12  2  0  0  0  0
 15 23  1  0  0  0  0
 15 16  1  0  0  0  0
 16 19  1  0  0  0  0
 19 22  1  0  0  0  0
 22  2  1  1  0  0  0
 22 23  1  0  0  0  0
 23 24  1  6  0  0  0
 24 25  1  0  0  0  0
 25 26  1  0  0  0  0
M  CHG  2  13  -1  18  -1
M  END
>  <CHROM.1>
-54.15722598,56.15718970,-58.82761325,-55.49025898,8.87378109,-64.35954224
178.23748226,-178.77522327,26.30518569,38.26837100,71.02431050,-0.81472883
-1.09643494,-1.04363941

>  <Name>
ligand

>  <RI>
0

>  <Rbt.Current_Directory>
/home/itssahil/PROJECTS/Mol_Feturizer/New_Systems/rnas/2HOJ

>  <Rbt.Executable>
rbdock ($Id: //depot/dev/client3/rdock/2013.1/src/exe/rbdock.cxx#4 $)

>  <Rbt.Library>
libRbt.so (2013.1, Build901 2013/11/27)

>  <Rbt.Parameter_File>
/export/apps/rDock/src/rDock_2013.1_src/data/scripts/dock_solv.prm

>  <Rbt.Receptor>
prm/blind_docking_100.prm

>  <SCORE>
-19.4215

>  <SCORE.INTER>
-14.2308

>  <SCORE.INTER.CONST>
1

>  <SCORE.INTER.POLAR>
0

>  <SCORE.INTER.ROT>
8

>  <SCORE.INTER.SOLV>
16.2028

>  <SCORE.INTER.VDW>
-23.8215

>  <SCORE.INTER.norm>
-0.547339

>  <SCORE.INTRA>
-5.19067

>  <SCORE.INTRA.DIHEDRAL>
-6.86427

>  <SCORE.INTRA.DIHEDRAL.0>
11.6398

>  <SCORE.INTRA.POLAR>
0

>  <SCORE.INTRA.POLAR.0>
0

>  <SCORE.INTRA.REPUL>
0

>  <SCORE.INTRA.REPUL.0>
0

>  <SCORE.INTRA.SOLV>
1.79807

>  <SCORE.INTRA.SOLV.lig_0>
-81.722

>  <SCORE.INTRA.VDW>
-2.65757

>  <SCORE.INTRA.VDW.0>
1.12598

>  <SCORE.INTRA.norm>
-0.199641

>  <SCORE.RESTR>
0

>  <SCORE.RESTR.CAVITY>
0

>  <SCORE.RESTR.norm>
0

>  <SCORE.SYSTEM>
0

>  <SCORE.SYSTEM.CONST>
0

>  <SCORE.SYSTEM.DIHEDRAL>
0

>  <SCORE.SYSTEM.SOLV>
0

>  <SCORE.SYSTEM.norm>
0

>  <SCORE.heavy>
26

>  <SCORE.norm>
-0.74698

>  <RMSD>
9.815

$$$$
ligand
 OpenBabel11021811433D
libRbt.so/2013.1/901 2013/11/27
 26 27  0  0  0  0  0  0  0  0999 V2000
   28.1759   40.3795   76.8328 C   0  0  0  0  0  0  0  0  0  0  0  0
   26.3080   35.1831   70.7542 C   0  0  0  0  0  0  0  0  0  0  0  0
   22.8889   37.4591   68.6674 P   0  0  1  0  0  0  0  0  0  0  0  0
   22.0930   37.8626   66.2404 P   0  0  1  0  0  0  0  0  0  0  0  0
   27.4372   36.0969   73.1541 C   0  0  0  0  0  0  0  0  0  0  0  0
   27.6388   37.0036   75.4884 C   0  0  0  0  0  0  0  0  0  0  0  0
   27.6328   37.2314   74.1267 C   0  0  0  0  0  0  0  0  0  0  0  0
   27.8128   38.5394   73.6735 C   0  0  0  0  0  0  0  0  0  0  0  0
   27.8142   38.8209   72.3155 N   0  0  0  0  0  0  0  0  0  0  0  0
   27.9771   39.5133   74.5639 N   0  0  0  0  0  0  0  0  0  0  0  0
   27.9809   39.2505   75.8546 C   0  0  0  0  0  0  0  0  0  0  0  0
   27.8133   38.0261   76.3150 N   0  0  0  0  0  0  0  0  0  0  0  0
   23.7770   38.6075   68.3776 O   0  5  0  0  0  0  0  0  0  0  0  0
   21.0716   38.8171   66.8976 O   0  0  0  0  0  0  0  0  0  0  0  0
   23.7628   35.2303   73.7311 S   0  0  0  0  0  0  0  0  0  0  0  0
   25.3245   35.7914   74.2446 C   0  0  0  0  0  0  0  0  0  0  0  0
   21.5468   37.9847   69.3817 O   0  0  0  0  0  0  0  0  0  0  0  0
   23.4016   38.6921   65.8048 O   0  5  0  0  0  0  0  0  0  0  0  0
   26.0263   35.7044   73.1384 N   0  0  0  0  0  0  0  0  0  0  0  0
   22.5086   36.7148   67.2909 O   0  0  0  0  0  0  0  0  0  0  0  0
   21.4577   37.2107   64.9916 O   0  0  0  0  0  0  0  0  0  0  0  0
   25.4890   35.2761   72.0169 C   0  0  2  0  0  0  0  0  0  0  0  0
   24.1813   34.9123   72.0235 C   0  0  2  0  0  0  0  0  0  0  0  0
   23.3214   34.3898   70.9027 C   0  0  0  0  0  0  0  0  0  0  0  0
   22.6471   35.5615   70.1853 C   0  0  0  0  0  0  0  0  0  0  0  0
   23.6472   36.4258   69.6423 O   0  0  0  0  0  0  0  0  0  0  0  0
  1 11  1  0  0  0  0
  3 13  1  6  0  0  0
  3 17  2  0  0  0  0
  3 20  1  0  0  0  0
  3 26  1  0  0  0  0
  4 14  1  1  0  0  0
  4 18  1  0  0  0  0
  4 21  2  0  0  0  0
  4 20  1  0  0  0  0
  5 19  1  0  0  0  0
  5  7  1  0  0  0  0
  6  7  2  0  0  0  0
  6 12  1  0  0  0  0
  7  8  1  0  0  0  0
  8  9  1  0  0  0  0
  8 10  2  0  0  0  0
 10 11  1  0  0  0  0
 11 12  2  0  0  0  0
 15 23  1  0  0  0  0
 15 16  1  0  0  0  0
 16 19  1  0  0  0  0
 19 22  1  0  0  0  0
 22  2  1  1  0  0  0
 22 23  1  0  0  0  0
 23 24  1  6  0  0  0
 24 25  1  0  0  0  0
 25 26  1  0  0  0  0
M  CHG  2  13  -1  18  -1
M  END
>  <CHROM.1>
-46.44534274,-33.36196896,75.65295567,-49.21724681,89.56735446,60.46516894
169.06679741,163.89501147,24.60854200,37.16845636,70.98469187,-0.56164627
-0.87488989,-0.70903297

>  <Name>
ligand

>  <RI>
0

>  <Rbt.Current_Directory>
/home/itssahil/PROJECTS/Mol_Feturizer/New_Systems/rnas/2HOJ

>  <Rbt.Executable>
rbdock ($Id: //depot/dev/client3/rdock/2013.1/src/exe/rbdock.cxx#4 $)

>  <Rbt.Library>
libRbt.so (2013.1, Build901 2013/11/27)

>  <Rbt.Parameter_File>
/export/apps/rDock/src/rDock_2013.1_src/data/scripts/dock_solv.prm

>  <Rbt.Receptor>
prm/blind_docking_100.prm

>  <SCORE>
-15.3937

>  <SCORE.INTER>
-11.1101

>  <SCORE.INTER.CONST>
1

>  <SCORE.INTER.POLAR>
0

>  <SCORE.INTER.ROT>
8

>  <SCORE.INTER.SOLV>
19.8873

>  <SCORE.INTER.VDW>
-22.9691

>  <SCORE.INTER.norm>
-0.427311

>  <SCORE.INTRA>
-4.28367

>  <SCORE.INTRA.DIHEDRAL>
-5.32091

>  <SCORE.INTRA.DIHEDRAL.0>
11.6398

>  <SCORE.INTRA.POLAR>
0

>  <SCORE.INTRA.POLAR.0>
0

>  <SCORE.INTRA.REPUL>
0

>  <SCORE.INTRA.REPUL.0>
0

>  <SCORE.INTRA.SOLV>
1.51319

>  <SCORE.INTRA.SOLV.lig_0>
-81.722

>  <SCORE.INTRA.VDW>
-2.3798

>  <SCORE.INTRA.VDW.0>
1.12598

>  <SCORE.INTRA.norm>
-0.164756

>  <SCORE.RESTR>
0

>  <SCORE.RESTR.CAVITY>
0

>  <SCORE.RESTR.norm>
0

>  <SCORE.SYSTEM>
0

>  <SCORE.SYSTEM.CONST>
0

>  <SCORE.SYSTEM.DIHEDRAL>
0

>  <SCORE.SYSTEM.SOLV>
0

>  <SCORE.SYSTEM.norm>
0

>  <SCORE.heavy>
26

>  <SCORE.norm>
-0.592067

>  <RMSD>
9.849

$$$$
ligand
 OpenBabel11021811433D
libRbt.so/2013.1/901 2013/11/27
 26 27  0  0  0  0  0  0  0  0999 V2000
   31.1207   39.1697   67.5348 C   0  0  0  0  0  0  0  0  0  0  0  0
   22.7404   38.7180   68.5850 C   0  0  0  0  0  0  0  0  0  0  0  0
   18.3869   39.1700   65.2493 P   0  0  1  0  0  0  0  0  0  0  0  0
   16.0562   39.1156   64.1305 P   0  0  1  0  0  0  0  0  0  0  0  0
   25.5272   38.4932   68.3560 C   0  0  0  0  0  0  0  0  0  0  0  0
   27.7761   39.3812   69.0385 C   0  0  0  0  0  0  0  0  0  0  0  0
   27.0076   38.6716   68.1373 C   0  0  0  0  0  0  0  0  0  0  0  0
   27.6369   38.1230   67.0185 C   0  0  0  0  0  0  0  0  0  0  0  0
   26.9095   37.4020   66.0834 N   0  0  0  0  0  0  0  0  0  0  0  0
   28.9442   38.3071   66.8592 N   0  0  0  0  0  0  0  0  0  0  0  0
   29.6404   38.9874   67.7467 C   0  0  0  0  0  0  0  0  0  0  0  0
   29.0761   39.5183   68.8138 N   0  0  0  0  0  0  0  0  0  0  0  0
   18.2051   40.6390   65.2296 O   0  5  0  0  0  0  0  0  0  0  0  0
   15.1346   38.3575   63.1495 O   0  0  0  0  0  0  0  0  0  0  0  0
   24.1733   40.5227   65.4177 S   0  0  0  0  0  0  0  0  0  0  0  0
   25.4471   39.7756   66.3323 C   0  0  0  0  0  0  0  0  0  0  0  0
   17.8653   38.5827   66.6531 O   0  0  0  0  0  0  0  0  0  0  0  0
   15.4951   38.9535   65.6301 O   0  5  0  0  0  0  0  0  0  0  0  0
   24.7890   39.2359   67.3321 N   0  0  0  0  0  0  0  0  0  0  0  0
   17.5459   38.5096   64.0450 O   0  0  0  0  0  0  0  0  0  0  0  0
   16.0883   40.6136   63.7521 O   0  0  0  0  0  0  0  0  0  0  0  0
   23.4821   39.3448   67.4314 C   0  0  2  0  0  0  0  0  0  0  0  0
   22.8162   40.0411   66.4753 C   0  0  2  0  0  0  0  0  0  0  0  0
   21.3431   40.3253   66.3411 C   0  0  0  0  0  0  0  0  0  0  0  0
   20.5649   39.0076   66.3417 C   0  0  0  0  0  0  0  0  0  0  0  0
   19.9479   38.8190   65.0667 O   0  0  0  0  0  0  0  0  0  0  0  0
  1 11  1  0  0  0  0
  3 13  1  6  0  0  0
  3 17  2  0  0  0  0
  3 20  1  0  0  0  0
  3 26  1  0  0  0  0
  4 14  1  6  0  0  0
  4 18  1  0  0  0  0
  4 21  2  0  0  0  0
  4 20  1  0  0  0  0
  5 19  1  0  0  0  0
  5  7  1  0  0  0  0
  6  7  2  0  0  0  0
  6 12  1  0  0  0  0
  7  8  1  0  0  0  0
  8  9  1  0  0  0  0
  8 10  2  0  0  0  0
 10 11  1  0  0  0  0
 11 12  2  0  0  0  0
 15 23  1  0  0  0  0
 15 16  1  0  0  0  0
 16 19  1  0  0  0  0
 19 22  1  0  0  0  0
 22  2  1  1  0  0  0
 22 23  1  0  0  0  0
 23 24  1  6  0  0  0
 24 25  1  0  0  0  0
 25 26  1  0  0  0  0
M  CHG  2  13  -1  18  -1
M  END
>  <CHROM.1>
-49.80883606,8.17084368,112.14810458,-170.92875577,123.93841734,-114.28510247
-103.40014953,79.62914265,22.15489979,39.20452781,66.14991776,-0.25756288
-0.03815438,-1.34703441

>  <Name>
ligand

>  <RI>
0

>  <Rbt.Current_Directory>
/home/itssahil/PROJECTS/Mol_Feturizer/New_Systems/rnas/2HOJ

>  <Rbt.Executable>
rbdock ($Id: //depot/dev/client3/rdock/2013.1/src/exe/rbdock.cxx#4 $)

>  <Rbt.Library>
libRbt.so (2013.1, Build901 2013/11/27)

>  <Rbt.Parameter_File>
/export/apps/rDock/src/rDock_2013.1_src/data/scripts/dock_solv.prm

>  <Rbt.Receptor>
prm/pocket_docking_2.prm

>  <SCORE>
-1.00874

>  <SCORE.INTER>
-7.42265

>  <SCORE.INTER.CONST>
1

>  <SCORE.INTER.POLAR>
0

>  <SCORE.INTER.ROT>
8

>  <SCORE.INTER.SOLV>
37.9845

>  <SCORE.INTER.VDW>
-26.5433

>  <SCORE.INTER.norm>
-0.285486

>  <SCORE.INTRA>
5.10138

>  <SCORE.INTRA.DIHEDRAL>
5.12731

>  <SCORE.INTRA.DIHEDRAL.0>
11.6398

>  <SCORE.INTRA.POLAR>
0

>  <SCORE.INTRA.POLAR.0>
0

>  <SCORE.INTRA.REPUL>
0

>  <SCORE.INTRA.REPUL.0>
0

>  <SCORE.INTRA.SOLV>
5.701

>  <SCORE.INTRA.SOLV.lig_0>
-81.722

>  <SCORE.INTRA.VDW>
-0.312768

>  <SCORE.INTRA.VDW.0>
1.12598

>  <SCORE.INTRA.norm>
0.196207

>  <SCORE.RESTR>
1.31252

>  <SCORE.RESTR.CAVITY>
1.31252

>  <SCORE.RESTR.norm>
0.0504816

>  <SCORE.SYSTEM>
0

>  <SCORE.SYSTEM.CONST>
0

>  <SCORE.SYSTEM.DIHEDRAL>
0

>  <SCORE.SYSTEM.SOLV>
0

>  <SCORE.SYSTEM.norm>
0

>  <SCORE.heavy>
26

>  <SCORE.norm>
-0.0387978

>  <RMSD>
9.933

$$$$
ligand
 OpenBabel11021811433D
libRbt.so/2013.1/901 2013/11/27
 26 27  0  0  0  0  0  0  0  0999 V2000
   32.5897   36.9651   59.9801 C   0  0  0  0  0  0  0  0  0  0  0  0
   27.6618   37.2369   64.5594 C   0  0  0  0  0  0  0  0  0  0  0  0
   23.7163   39.1191   66.7919 P   0  0  1  0  0  0  0  0  0  0  0  0
   22.1629   37.2938   65.8211 P   0  0  1  0  0  0  0  0  0  0  0  0
   30.0060   35.7347   64.9024 C   0  0  0  0  0  0  0  0  0  0  0  0
   30.0227   36.7331   62.5970 C   0  0  0  0  0  0  0  0  0  0  0  0
   30.6911   36.0596   63.5999 C   0  0  0  0  0  0  0  0  0  0  0  0
   32.0180   35.6876   63.3771 C   0  0  0  0  0  0  0  0  0  0  0  0
   32.7331   35.0090   64.3526 N   0  0  0  0  0  0  0  0  0  0  0  0
   32.5850   35.9885   62.2125 N   0  0  0  0  0  0  0  0  0  0  0  0
   31.9115   36.6368   61.2845 C   0  0  0  0  0  0  0  0  0  0  0  0
   30.6570   37.0020   61.4637 N   0  0  0  0  0  0  0  0  0  0  0  0
   22.5306   39.9873   66.6127 O   0  5  0  0  0  0  0  0  0  0  0  0
   21.1618   38.3030   65.2165 O   0  0  0  0  0  0  0  0  0  0  0  0
   30.1179   38.7972   67.1814 S   0  0  0  0  0  0  0  0  0  0  0  0
   30.7720   37.3310   66.5183 C   0  0  0  0  0  0  0  0  0  0  0  0
   23.7324   38.5342   68.2903 O   0  0  0  0  0  0  0  0  0  0  0  0
   22.0996   35.9134   64.9962 O   0  5  0  0  0  0  0  0  0  0  0  0
   29.8299   36.9622   65.6815 N   0  0  0  0  0  0  0  0  0  0  0  0
   23.6525   37.9009   65.7404 O   0  0  0  0  0  0  0  0  0  0  0  0
   21.7957   37.0278   67.2984 O   0  0  0  0  0  0  0  0  0  0  0  0
   28.7342   37.6729   65.5256 C   0  0  2  0  0  0  0  0  0  0  0  0
   28.5871   38.8048   66.2602 C   0  0  2  0  0  0  0  0  0  0  0  0
   27.4515   39.7939   66.2881 C   0  0  0  0  0  0  0  0  0  0  0  0
   26.1546   39.0745   66.6661 C   0  0  0  0  0  0  0  0  0  0  0  0
   25.0546   39.9772   66.5355 O   0  0  0  0  0  0  0  0  0  0  0  0
  1 11  1  0  0  0  0
  3 13  1  6  0  0  0
  3 17  2  0  0  0  0
  3 20  1  0  0  0  0
  3 26  1  0  0  0  0
  4 14  1  6  0  0  0
  4 18  1  0  0  0  0
  4 21  2  0  0  0  0
  4 20  1  0  0  0  0
  5 19  1  0  0  0  0
  5  7  1  0  0  0  0
  6  7  2  0  0  0  0
  6 12  1  0  0  0  0
  7  8  1  0  0  0  0
  8  9  1  0  0  0  0
  8 10  2  0  0  0  0
 10 11  1  0  0  0  0
 11 12  2  0  0  0  0
 15 23  1  0  0  0  0
 15 16  1  0  0  0  0
 16 19  1  0  0  0  0
 19 22  1  0  0  0  0
 22  2  1  1  0  0  0
 22 23  1  0  0  0  0
 23 24  1  6  0  0  0
 24 25  1  0  0  0  0
 25 26  1  0  0  0  0
M  CHG  2  13  -1  18  -1
M  END
>  <CHROM.1>
-47.50418584,-90.07881992,-71.87419370,69.95297465,-121.88088130,-173.07794514
174.04350781,-177.56627031,27.11951647,37.67132404,65.25262923,0.39075914
-0.01778465,-2.09194018

>  <Name>
ligand

>  <RI>
0

>  <Rbt.Current_Directory>
/home/itssahil/PROJECTS/Mol_Feturizer/New_Systems/rnas/2HOJ

>  <Rbt.Executable>
rbdock ($Id: //depot/dev/client3/rdock/2013.1/src/exe/rbdock.cxx#4 $)

>  <Rbt.Library>
libRbt.so (2013.1, Build901 2013/11/27)

>  <Rbt.Parameter_File>
/export/apps/rDock/src/rDock_2013.1_src/data/scripts/dock_solv.prm

>  <Rbt.Receptor>
prm/pocket_docking_8.prm

>  <SCORE>
-11.944

>  <SCORE.INTER>
-7.11683

>  <SCORE.INTER.CONST>
1

>  <SCORE.INTER.POLAR>
0

>  <SCORE.INTER.ROT>
8

>  <SCORE.INTER.SOLV>
28.1676

>  <SCORE.INTER.VDW>
-23.0671

>  <SCORE.INTER.norm>
-0.273724

>  <SCORE.INTRA>
-4.8348

>  <SCORE.INTRA.DIHEDRAL>
-6.31376

>  <SCORE.INTRA.DIHEDRAL.0>
11.6398

>  <SCORE.INTRA.POLAR>
0

>  <SCORE.INTRA.POLAR.0>
0

>  <SCORE.INTRA.REPUL>
0

>  <SCORE.INTRA.REPUL.0>
0

>  <SCORE.INTRA.SOLV>
1.4671

>  <SCORE.INTRA.SOLV.lig_0>
-81.722

>  <SCORE.INTRA.VDW>
-2.41147

>  <SCORE.INTRA.VDW.0>
1.12598

>  <SCORE.INTRA.norm>
-0.185954

>  <SCORE.RESTR>
0.00757937

>  <SCORE.RESTR.CAVITY>
0.00757937

>  <SCORE.RESTR.norm>
0.000291514

>  <SCORE.SYSTEM>
0

>  <SCORE.SYSTEM.CONST>
0

>  <SCORE.SYSTEM.DIHEDRAL>
0

>  <SCORE.SYSTEM.SOLV>
0

>  <SCORE.SYSTEM.norm>
0

>  <SCORE.heavy>
26

>  <SCORE.norm>
-0.459387

>  <RMSD>
9.956

$$$$
ligand
 OpenBabel11021811433D
libRbt.so/2013.1/901 2013/11/27
 26 27  0  0  0  0  0  0  0  0999 V2000
   28.6343   39.8587   75.4676 C   0  0  0  0  0  0  0  0  0  0  0  0
   24.6498   35.4819   73.2984 C   0  0  0  0  0  0  0  0  0  0  0  0
   22.9290   38.4909   68.0022 P   0  0  1  0  0  0  0  0  0  0  0  0
   22.2687   37.2799   65.8148 P   0  0  1  0  0  0  0  0  0  0  0  0
   27.2876   34.6163   73.7008 C   0  0  0  0  0  0  0  0  0  0  0  0
   28.1307   36.9464   73.2866 C   0  0  0  0  0  0  0  0  0  0  0  0
   27.6438   36.0035   74.1699 C   0  0  0  0  0  0  0  0  0  0  0  0
   27.4893   36.3679   75.5085 C   0  0  0  0  0  0  0  0  0  0  0  0
   27.0045   35.4573   76.4355 N   0  0  0  0  0  0  0  0  0  0  0  0
   27.8196   37.6002   75.8834 N   0  0  0  0  0  0  0  0  0  0  0  0
   28.2763   38.4701   75.0061 C   0  0  0  0  0  0  0  0  0  0  0  0
   28.4341   38.1573   73.7348 N   0  0  0  0  0  0  0  0  0  0  0  0
   24.3363   38.6594   67.5747 O   0  5  0  0  0  0  0  0  0  0  0  0
   21.8348   36.0096   66.5792 O   0  0  0  0  0  0  0  0  0  0  0  0
   26.4962   34.5758   69.9649 S   0  0  0  0  0  0  0  0  0  0  0  0
   27.5375   34.3324   71.3337 C   0  0  0  0  0  0  0  0  0  0  0  0
   22.5413   39.6529   69.0449 O   0  0  0  0  0  0  0  0  0  0  0  0
   21.4516   37.3810   64.4320 O   0  5  0  0  0  0  0  0  0  0  0  0
   26.7633   34.6818   72.3349 N   0  0  0  0  0  0  0  0  0  0  0  0
   21.9638   38.5794   66.7160 O   0  0  0  0  0  0  0  0  0  0  0  0
   23.7826   37.2069   65.5138 O   0  0  0  0  0  0  0  0  0  0  0  0
   25.5271   35.0853   72.1378 C   0  0  2  0  0  0  0  0  0  0  0  0
   25.0608   35.1439   70.8644 C   0  0  2  0  0  0  0  0  0  0  0  0
   23.7087   35.5664   70.3524 C   0  0  0  0  0  0  0  0  0  0  0  0
   23.8312   36.9100   69.6301 C   0  0  0  0  0  0  0  0  0  0  0  0
   22.7497   37.0543   68.7074 O   0  0  0  0  0  0  0  0  0  0  0  0
  1 11  1  0  0  0  0
  3 13  1  6  0  0  0
  3 17  2  0  0  0  0
  3 20  1  0  0  0  0
  3 26  1  0  0  0  0
  4 14  1  1  0  0  0
  4 18  1  0  0  0  0
  4 21  2  0  0  0  0
  4 20  1  0  0  0  0
  5 19  1  0  0  0  0
  5  7  1  0  0  0  0
  6  7  2  0  0  0  0
  6 12  1  0  0  0  0
  7  8  1  0  0  0  0
  8  9  1  0  0  0  0
  8 10  2  0  0  0  0
 10 11  1  0  0  0  0
 11 12  2  0  0  0  0
 15 23  1  0  0  0  0
 15 16  1  0  0  0  0
 16 19  1  0  0  0  0
 19 22  1  0  0  0  0
 22  2  1  6  0  0  0
 22 23  1  0  0  0  0
 23 24  1  1  0  0  0
 24 25  1  0  0  0  0
 25 26  1  0  0  0  0
M  CHG  2  13  -1  18  -1
M  END
>  <CHROM.1>
67.47130189,102.63964662,-33.85974081,65.90138480,-70.92833177,156.64640907
179.21176195,46.79383215,25.00299875,36.81311877,70.41460002,0.11523211,-0.99898462
0.25629185

>  <Name>
ligand

>  <RI>
0

>  <Rbt.Current_Directory>
/home/itssahil/PROJECTS/Mol_Feturizer/New_Systems/rnas/2HOJ

>  <Rbt.Executable>
rbdock ($Id: //depot/dev/client3/rdock/2013.1/src/exe/rbdock.cxx#4 $)

>  <Rbt.Library>
libRbt.so (2013.1, Build901 2013/11/27)

>  <Rbt.Parameter_File>
/export/apps/rDock/src/rDock_2013.1_src/data/scripts/dock_solv.prm

>  <Rbt.Receptor>
prm/blind_docking_100.prm

>  <SCORE>
-16.6604

>  <SCORE.INTER>
-12.0497

>  <SCORE.INTER.CONST>
1

>  <SCORE.INTER.POLAR>
0

>  <SCORE.INTER.ROT>
8

>  <SCORE.INTER.SOLV>
21.9515

>  <SCORE.INTER.VDW>
-24.2836

>  <SCORE.INTER.norm>
-0.46345

>  <SCORE.INTRA>
-4.61068

>  <SCORE.INTRA.DIHEDRAL>
-4.2672

>  <SCORE.INTRA.DIHEDRAL.0>
11.6398

>  <SCORE.INTRA.POLAR>
0

>  <SCORE.INTRA.POLAR.0>
0

>  <SCORE.INTRA.REPUL>
0

>  <SCORE.INTRA.REPUL.0>
0

>  <SCORE.INTRA.SOLV>
0.953438

>  <SCORE.INTRA.SOLV.lig_0>
-81.722

>  <SCORE.INTRA.VDW>
-2.9538

>  <SCORE.INTRA.VDW.0>
1.12598

>  <SCORE.INTRA.norm>
-0.177334

>  <SCORE.RESTR>
0

>  <SCORE.RESTR.CAVITY>
0

>  <SCORE.RESTR.norm>
0

>  <SCORE.SYSTEM>
0

>  <SCORE.SYSTEM.CONST>
0

>  <SCORE.SYSTEM.DIHEDRAL>
0

>  <SCORE.SYSTEM.SOLV>
0

>  <SCORE.SYSTEM.norm>
0

>  <SCORE.heavy>
26

>  <SCORE.norm>
-0.640784

>  <RMSD>
10.037

$$$$
ligand
 OpenBabel11021811433D
libRbt.so/2013.1/901 2013/11/27
 26 27  0  0  0  0  0  0  0  0999 V2000
   23.8275   35.4430   78.1052 C   0  0  0  0  0  0  0  0  0  0  0  0
   22.5931   34.4276   70.7709 C   0  0  0  0  0  0  0  0  0  0  0  0
   21.1620   38.6038   67.6529 P   0  0  1  0  0  0  0  0  0  0  0  0
   19.6549   39.4004   65.7083 P   0  0  1  0  0  0  0  0  0  0  0  0
   24.4794   33.7123   72.7202 C   0  0  0  0  0  0  0  0  0  0  0  0
   23.8041   35.4225   74.4321 C   0  0  0  0  0  0  0  0  0  0  0  0
   24.3075   34.1691   74.1460 C   0  0  0  0  0  0  0  0  0  0  0  0
   24.6528   33.3355   75.2111 C   0  0  0  0  0  0  0  0  0  0  0  0
   25.1631   32.0673   74.9768 N   0  0  0  0  0  0  0  0  0  0  0  0
   24.4906   33.7776   76.4547 N   0  0  0  0  0  0  0  0  0  0  0  0
   24.0022   34.9795   76.6825 C   0  0  0  0  0  0  0  0  0  0  0  0
   23.6667   35.7912   75.6988 N   0  0  0  0  0  0  0  0  0  0  0  0
   21.7992   37.6038   66.7665 O   0  5  0  0  0  0  0  0  0  0  0  0
   20.4442   38.4382   64.7931 O   0  0  0  0  0  0  0  0  0  0  0  0
   25.7222   36.7831   70.8199 S   0  0  0  0  0  0  0  0  0  0  0  0
   25.8630   35.5436   72.0287 C   0  0  0  0  0  0  0  0  0  0  0  0
   21.9501   40.0016   67.5399 O   0  0  0  0  0  0  0  0  0  0  0  0
   18.1482   39.5477   65.1621 O   0  5  0  0  0  0  0  0  0  0  0  0
   24.7477   34.8705   71.8649 N   0  0  0  0  0  0  0  0  0  0  0  0
   19.6285   38.8143   67.2082 O   0  0  0  0  0  0  0  0  0  0  0  0
   20.3395   40.7858   65.7099 O   0  0  0  0  0  0  0  0  0  0  0  0
   23.8689   35.2117   70.9477 C   0  0  2  0  0  0  0  0  0  0  0  0
   24.1332   36.2910   70.1681 C   0  0  2  0  0  0  0  0  0  0  0  0
   23.3162   36.9014   69.0595 C   0  0  0  0  0  0  0  0  0  0  0  0
   22.5780   38.1341   69.5862 C   0  0  0  0  0  0  0  0  0  0  0  0
   21.2104   38.0812   69.1752 O   0  0  0  0  0  0  0  0  0  0  0  0
  1 11  1  0  0  0  0
  3 13  1  6  0  0  0
  3 17  2  0  0  0  0
  3 20  1  0  0  0  0
  3 26  1  0  0  0  0
  4 14  1  6  0  0  0
  4 18  1  0  0  0  0
  4 21  2  0  0  0  0
  4 20  1  0  0  0  0
  5 19  1  0  0  0  0
  5  7  1  0  0  0  0
  6  7  2  0  0  0  0
  6 12  1  0  0  0  0
  7  8  1  0  0  0  0
  8  9  1  0  0  0  0
  8 10  2  0  0  0  0
 10 11  1  0  0  0  0
 11 12  2  0  0  0  0
 15 23  1  0  0  0  0
 15 16  1  0  0  0  0
 16 19  1  0  0  0  0
 19 22  1  0  0  0  0
 22  2  1  1  0  0  0
 22 23  1  0  0  0  0
 23 24  1  6  0  0  0
 24 25  1  0  0  0  0
 25 26  1  0  0  0  0
M  CHG  2  13  -1  18  -1
M  END
>  <CHROM.1>
-62.62491828,65.63764794,29.94106365,56.29992247,-79.46944300,-132.84581738
-80.73025673,69.83836382,22.69713963,36.81363796,70.34586617,1.09541563,-0.53135886
1.81668881

>  <Name>
ligand

>  <RI>
0

>  <Rbt.Current_Directory>
/home/itssahil/PROJECTS/Mol_Feturizer/New_Systems/rnas/2HOJ

>  <Rbt.Executable>
rbdock ($Id: //depot/dev/client3/rdock/2013.1/src/exe/rbdock.cxx#4 $)

>  <Rbt.Library>
libRbt.so (2013.1, Build901 2013/11/27)

>  <Rbt.Parameter_File>
/export/apps/rDock/src/rDock_2013.1_src/data/scripts/dock_solv.prm

>  <Rbt.Receptor>
prm/blind_docking_100.prm

>  <SCORE>
-11.6734

>  <SCORE.INTER>
-11.1401

>  <SCORE.INTER.CONST>
1

>  <SCORE.INTER.POLAR>
0

>  <SCORE.INTER.ROT>
8

>  <SCORE.INTER.SOLV>
20.7686

>  <SCORE.INTER.VDW>
-23.283

>  <SCORE.INTER.norm>
-0.428467

>  <SCORE.INTRA>
-0.533254

>  <SCORE.INTRA.DIHEDRAL>
0.414912

>  <SCORE.INTRA.DIHEDRAL.0>
11.6398

>  <SCORE.INTRA.POLAR>
0

>  <SCORE.INTRA.POLAR.0>
0

>  <SCORE.INTRA.REPUL>
0

>  <SCORE.INTRA.REPUL.0>
0

>  <SCORE.INTRA.SOLV>
2.19062

>  <SCORE.INTRA.SOLV.lig_0>
-81.722

>  <SCORE.INTRA.VDW>
-1.83602

>  <SCORE.INTRA.VDW.0>
1.12598

>  <SCORE.INTRA.norm>
-0.0205098

>  <SCORE.RESTR>
0

>  <SCORE.RESTR.CAVITY>
0

>  <SCORE.RESTR.norm>
0

>  <SCORE.SYSTEM>
0

>  <SCORE.SYSTEM.CONST>
0

>  <SCORE.SYSTEM.DIHEDRAL>
0

>  <SCORE.SYSTEM.SOLV>
0

>  <SCORE.SYSTEM.norm>
0

>  <SCORE.heavy>
26

>  <SCORE.norm>
-0.448977

>  <RMSD>
10.177

$$$$
ligand
 OpenBabel11021811433D
libRbt.so/2013.1/901 2013/11/27
 26 27  0  0  0  0  0  0  0  0999 V2000
   27.2942   41.4512   66.5690 C   0  0  0  0  0  0  0  0  0  0  0  0
   29.8893   37.1880   61.7843 C   0  0  0  0  0  0  0  0  0  0  0  0
   36.6238   35.6237   62.1208 P   0  0  1  0  0  0  0  0  0  0  0  0
   36.9007   34.6045   59.7605 P   0  0  1  0  0  0  0  0  0  0  0  0
   28.3229   36.4753   63.9998 C   0  0  0  0  0  0  0  0  0  0  0  0
   27.8504   38.9422   63.9446 C   0  0  0  0  0  0  0  0  0  0  0  0
   28.0508   37.7917   64.6812 C   0  0  0  0  0  0  0  0  0  0  0  0
   27.9946   37.8788   66.0733 C   0  0  0  0  0  0  0  0  0  0  0  0
   28.1895   36.7522   66.8583 N   0  0  0  0  0  0  0  0  0  0  0  0
   27.7569   39.0598   66.6363 N   0  0  0  0  0  0  0  0  0  0  0  0
   27.5667   40.1318   65.8949 C   0  0  0  0  0  0  0  0  0  0  0  0
   27.6136   40.0833   64.5780 N   0  0  0  0  0  0  0  0  0  0  0  0
   36.4046   34.3557   62.8527 O   0  5  0  0  0  0  0  0  0  0  0  0
   36.1021   33.4286   60.3652 O   0  0  0  0  0  0  0  0  0  0  0  0
   31.9595   35.5104   64.6552 S   0  0  0  0  0  0  0  0  0  0  0  0
   30.2808   35.6215   65.0878 C   0  0  0  0  0  0  0  0  0  0  0  0
   37.1959   36.7360   63.1324 O   0  0  0  0  0  0  0  0  0  0  0  0
   35.8906   35.6194   59.0256 O   0  5  0  0  0  0  0  0  0  0  0  0
   29.7607   36.1979   64.0290 N   0  0  0  0  0  0  0  0  0  0  0  0
   37.6846   35.3810   60.9337 O   0  0  0  0  0  0  0  0  0  0  0  0
   37.9199   34.0599   58.7345 O   0  0  0  0  0  0  0  0  0  0  0  0
   30.5018   36.5277   62.9937 C   0  0  2  0  0  0  0  0  0  0  0  0
   31.8330   36.2670   63.0416 C   0  0  2  0  0  0  0  0  0  0  0  0
   32.9046   36.5366   62.0180 C   0  0  0  0  0  0  0  0  0  0  0  0
   34.2419   35.9865   62.5191 C   0  0  0  0  0  0  0  0  0  0  0  0
   35.2292   36.1319   61.4963 O   0  0  0  0  0  0  0  0  0  0  0  0
  1 11  1  0  0  0  0
  3 13  1  1  0  0  0
  3 17  2  0  0  0  0
  3 20  1  0  0  0  0
  3 26  1  0  0  0  0
  4 14  1  1  0  0  0
  4 18  1  0  0  0  0
  4 21  2  0  0  0  0
  4 20  1  0  0  0  0
  5 19  1  0  0  0  0
  5  7  1  0  0  0  0
  6  7  2  0  0  0  0
  6 12  1  0  0  0  0
  7  8  1  0  0  0  0
  8  9  1  0  0  0  0
  8 10  2  0  0  0  0
 10 11  1  0  0  0  0
 11 12  2  0  0  0  0
 15 23  1  0  0  0  0
 15 16  1  0  0  0  0
 16 19  1  0  0  0  0
 19 22  1  0  0  0  0
 22  2  1  1  0  0  0
 22 23  1  0  0  0  0
 23 24  1  6  0  0  0
 24 25  1  0  0  0  0
 25 26  1  0  0  0  0
M  CHG  2  13  -1  18  -1
M  END
>  <CHROM.1>
75.82178996,84.94463766,99.94797015,-47.40745923,2.78931176,174.66592282
176.44501591,44.86843434,32.61616715,36.45441426,62.98384649,2.70640843,-0.42665658
1.64647709

>  <Name>
ligand

>  <RI>
0

>  <Rbt.Current_Directory>
/home/itssahil/PROJECTS/Mol_Feturizer/New_Systems/rnas/2HOJ

>  <Rbt.Executable>
rbdock ($Id: //depot/dev/client3/rdock/2013.1/src/exe/rbdock.cxx#4 $)

>  <Rbt.Library>
libRbt.so (2013.1, Build901 2013/11/27)

>  <Rbt.Parameter_File>
/export/apps/rDock/src/rDock_2013.1_src/data/scripts/dock_solv.prm

>  <Rbt.Receptor>
prm/blind_docking_100.prm

>  <SCORE>
-18.1708

>  <SCORE.INTER>
-12.9107

>  <SCORE.INTER.CONST>
1

>  <SCORE.INTER.POLAR>
-1.11258

>  <SCORE.INTER.ROT>
8

>  <SCORE.INTER.SOLV>
27.292

>  <SCORE.INTER.VDW>
-22.9292

>  <SCORE.INTER.norm>
-0.496567

>  <SCORE.INTRA>
-5.26001

>  <SCORE.INTRA.DIHEDRAL>
-5.89632

>  <SCORE.INTRA.DIHEDRAL.0>
11.6398

>  <SCORE.INTRA.POLAR>
0

>  <SCORE.INTRA.POLAR.0>
0

>  <SCORE.INTRA.REPUL>
0

>  <SCORE.INTRA.REPUL.0>
0

>  <SCORE.INTRA.SOLV>
1.28358

>  <SCORE.INTRA.SOLV.lig_0>
-81.722

>  <SCORE.INTRA.VDW>
-2.95364

>  <SCORE.INTRA.VDW.0>
1.12598

>  <SCORE.INTRA.norm>
-0.202308

>  <SCORE.RESTR>
0

>  <SCORE.RESTR.CAVITY>
0

>  <SCORE.RESTR.norm>
0

>  <SCORE.SYSTEM>
0

>  <SCORE.SYSTEM.CONST>
0

>  <SCORE.SYSTEM.DIHEDRAL>
0

>  <SCORE.SYSTEM.SOLV>
0

>  <SCORE.SYSTEM.norm>
0

>  <SCORE.heavy>
26

>  <SCORE.norm>
-0.698875

>  <RMSD>
10.233

$$$$
ligand
 OpenBabel11021811433D
libRbt.so/2013.1/901 2013/11/27
 26 27  0  0  0  0  0  0  0  0999 V2000
   22.5294   37.4029   68.6246 C   0  0  0  0  0  0  0  0  0  0  0  0
   24.5849   34.5093   75.3087 C   0  0  0  0  0  0  0  0  0  0  0  0
   28.1548   39.0439   78.6788 P   0  0  1  0  0  0  0  0  0  0  0  0
   28.4756   40.2953   80.9188 P   0  0  1  0  0  0  0  0  0  0  0  0
   25.5667   34.8395   72.7017 C   0  0  0  0  0  0  0  0  0  0  0  0
   25.2359   36.6494   70.9910 C   0  0  0  0  0  0  0  0  0  0  0  0
   24.7617   35.5170   71.6228 C   0  0  0  0  0  0  0  0  0  0  0  0
   23.5176   35.0153   71.2365 C   0  0  0  0  0  0  0  0  0  0  0  0
   22.9967   33.8808   71.8406 N   0  0  0  0  0  0  0  0  0  0  0  0
   22.8361   35.6450   70.2840 N   0  0  0  0  0  0  0  0  0  0  0  0
   23.3284   36.7203   69.7040 C   0  0  0  0  0  0  0  0  0  0  0  0
   24.5001   37.2195   70.0460 N   0  0  0  0  0  0  0  0  0  0  0  0
   27.7622   40.2443   77.9064 O   0  5  0  0  0  0  0  0  0  0  0  0
   29.8494   39.7040   81.3055 O   0  0  0  0  0  0  0  0  0  0  0  0
   26.8490   37.6804   74.9086 S   0  0  0  0  0  0  0  0  0  0  0  0
   26.7075   36.8282   73.4016 C   0  0  0  0  0  0  0  0  0  0  0  0
   29.7590   38.9279   78.7129 O   0  0  0  0  0  0  0  0  0  0  0  0
   28.6877   41.5441   79.9260 O   0  5  0  0  0  0  0  0  0  0  0  0
   25.9325   35.8195   73.7268 N   0  0  0  0  0  0  0  0  0  0  0  0
   27.5931   39.1668   80.1830 O   0  0  0  0  0  0  0  0  0  0  0  0
   27.7431   40.7703   82.1939 O   0  0  0  0  0  0  0  0  0  0  0  0
   25.4753   35.6726   74.9512 C   0  0  2  0  0  0  0  0  0  0  0  0
   25.8294   36.5884   75.8884 C   0  0  2  0  0  0  0  0  0  0  0  0
   25.4619   36.6650   77.3471 C   0  0  0  0  0  0  0  0  0  0  0  0
   26.1166   37.8969   77.9764 C   0  0  0  0  0  0  0  0  0  0  0  0
   27.5358   37.7304   77.9825 O   0  0  0  0  0  0  0  0  0  0  0  0
  1 11  1  0  0  0  0
  3 13  1  6  0  0  0
  3 17  2  0  0  0  0
  3 20  1  0  0  0  0
  3 26  1  0  0  0  0
  4 14  1  1  0  0  0
  4 18  1  0  0  0  0
  4 21  2  0  0  0  0
  4 20  1  0  0  0  0
  5 19  1  0  0  0  0
  5  7  1  0  0  0  0
  6  7  2  0  0  0  0
  6 12  1  0  0  0  0
  7  8  1  0  0  0  0
  8  9  1  0  0  0  0
  8 10  2  0  0  0  0
 10 11  1  0  0  0  0
 11 12  2  0  0  0  0
 15 23  1  0  0  0  0
 15 16  1  0  0  0  0
 16 19  1  0  0  0  0
 19 22  1  0  0  0  0
 22  2  1  1  0  0  0
 22 23  1  0  0  0  0
 23 24  1  6  0  0  0
 24 25  1  0  0  0  0
 25 26  1  0  0  0  0
M  CHG  2  13  -1  18  -1
M  END
>  <CHROM.1>
-71.88227613,-63.25150554,53.14249445,-77.06410824,-0.09606061,-66.41424282
-178.99175326,-59.62007314,26.38714991,37.69448406,75.89118321,-2.72276482
1.10776940,2.26568988

>  <Name>
ligand

>  <RI>
0

>  <Rbt.Current_Directory>
/home/itssahil/PROJECTS/Mol_Feturizer/New_Systems/rnas/2HOJ

>  <Rbt.Executable>
rbdock ($Id: //depot/dev/client3/rdock/2013.1/src/exe/rbdock.cxx#4 $)

>  <Rbt.Library>
libRbt.so (2013.1, Build901 2013/11/27)

>  <Rbt.Parameter_File>
/export/apps/rDock/src/rDock_2013.1_src/data/scripts/dock_solv.prm

>  <Rbt.Receptor>
prm/blind_docking_100.prm

>  <SCORE>
-21.0541

>  <SCORE.INTER>
-16.3486

>  <SCORE.INTER.CONST>
1

>  <SCORE.INTER.POLAR>
-1.01256

>  <SCORE.INTER.ROT>
8

>  <SCORE.INTER.SOLV>
14.2874

>  <SCORE.INTER.VDW>
-21.2196

>  <SCORE.INTER.norm>
-0.628791

>  <SCORE.INTRA>
-4.70557

>  <SCORE.INTRA.DIHEDRAL>
-6.25257

>  <SCORE.INTRA.DIHEDRAL.0>
11.6398

>  <SCORE.INTRA.POLAR>
0

>  <SCORE.INTRA.POLAR.0>
0

>  <SCORE.INTRA.REPUL>
0

>  <SCORE.INTRA.REPUL.0>
0

>  <SCORE.INTRA.SOLV>
2.34468

>  <SCORE.INTRA.SOLV.lig_0>
-81.722

>  <SCORE.INTRA.VDW>
-2.75163

>  <SCORE.INTRA.VDW.0>
1.12598

>  <SCORE.INTRA.norm>
-0.180984

>  <SCORE.RESTR>
0

>  <SCORE.RESTR.CAVITY>
0

>  <SCORE.RESTR.norm>
0

>  <SCORE.SYSTEM>
0

>  <SCORE.SYSTEM.CONST>
0

>  <SCORE.SYSTEM.DIHEDRAL>
0

>  <SCORE.SYSTEM.SOLV>
0

>  <SCORE.SYSTEM.norm>
0

>  <SCORE.heavy>
26

>  <SCORE.norm>
-0.809774

>  <RMSD>
10.417

$$$$
ligand
 OpenBabel11021811433D
libRbt.so/2013.1/901 2013/11/27
 26 27  0  0  0  0  0  0  0  0999 V2000
   26.3231   38.6172   80.0877 C   0  0  0  0  0  0  0  0  0  0  0  0
   25.7245   34.1492   74.0916 C   0  0  0  0  0  0  0  0  0  0  0  0
   25.8955   37.9308   68.5423 P   0  0  1  0  0  0  0  0  0  0  0  0
   25.0439   38.0521   66.1036 P   0  0  1  0  0  0  0  0  0  0  0  0
   27.7308   35.3262   75.6598 C   0  0  0  0  0  0  0  0  0  0  0  0
   28.1834   37.2230   77.2438 C   0  0  0  0  0  0  0  0  0  0  0  0
   27.3569   36.1965   76.8321 C   0  0  0  0  0  0  0  0  0  0  0  0
   26.1660   35.9854   77.5290 C   0  0  0  0  0  0  0  0  0  0  0  0
   25.3017   34.9671   77.1553 N   0  0  0  0  0  0  0  0  0  0  0  0
   25.8748   36.7719   78.5609 N   0  0  0  0  0  0  0  0  0  0  0  0
   26.6902   37.7432   78.9169 C   0  0  0  0  0  0  0  0  0  0  0  0
   27.8225   37.9685   78.2798 N   0  0  0  0  0  0  0  0  0  0  0  0
   27.1840   37.3000   68.1771 O   0  5  0  0  0  0  0  0  0  0  0  0
   24.1417   37.3841   65.0424 O   0  0  0  0  0  0  0  0  0  0  0  0
   27.1146   37.4779   72.5654 S   0  0  0  0  0  0  0  0  0  0  0  0
   27.9132   37.1036   74.0618 C   0  0  0  0  0  0  0  0  0  0  0  0
   26.0257   39.5294   68.4185 O   0  0  0  0  0  0  0  0  0  0  0  0
   24.7438   39.6326   66.1469 O   0  5  0  0  0  0  0  0  0  0  0  0
   27.3267   35.9832   74.4149 N   0  0  0  0  0  0  0  0  0  0  0  0
   24.7416   37.4073   67.5482 O   0  0  0  0  0  0  0  0  0  0  0  0
   26.5270   37.8197   65.7373 O   0  0  0  0  0  0  0  0  0  0  0  0
   26.3878   35.4372   73.6732 C   0  0  2  0  0  0  0  0  0  0  0  0
   26.0236   36.0637   72.5254 C   0  0  2  0  0  0  0  0  0  0  0  0
   24.9904   35.6733   71.5013 C   0  0  0  0  0  0  0  0  0  0  0  0
   25.4560   36.1116   70.1109 C   0  0  0  0  0  0  0  0  0  0  0  0
   25.5150   37.5383   70.0570 O   0  0  0  0  0  0  0  0  0  0  0  0
  1 11  1  0  0  0  0
  3 13  1  6  0  0  0
  3 17  2  0  0  0  0
  3 20  1  0  0  0  0
  3 26  1  0  0  0  0
  4 14  1  6  0  0  0
  4 18  1  0  0  0  0
  4 21  2  0  0  0  0
  4 20  1  0  0  0  0
  5 19  1  0  0  0  0
  5  7  1  0  0  0  0
  6  7  2  0  0  0  0
  6 12  1  0  0  0  0
  7  8  1  0  0  0  0
  8  9  1  0  0  0  0
  8 10  2  0  0  0  0
 10 11  1  0  0  0  0
 11 12  2  0  0  0  0
 15 23  1  0  0  0  0
 15 16  1  0  0  0  0
 16 19  1  0  0  0  0
 19 22  1  0  0  0  0
 22  2  1  1  0  0  0
 22 23  1  0  0  0  0
 23 24  1  6  0  0  0
 24 25  1  0  0  0  0
 25 26  1  0  0  0  0
M  CHG  2  13  -1  18  -1
M  END
>  <CHROM.1>
-69.89858545,65.91689435,-83.89786852,169.23794081,33.21995804,-65.19085713
-175.60814348,-58.12746943,26.16603899,37.12928008,71.95432930,-1.08891247
-1.28337694,-0.98597404

>  <Name>
ligand

>  <RI>
0

>  <Rbt.Current_Directory>
/home/itssahil/PROJECTS/Mol_Feturizer/New_Systems/rnas/2HOJ

>  <Rbt.Executable>
rbdock ($Id: //depot/dev/client3/rdock/2013.1/src/exe/rbdock.cxx#4 $)

>  <Rbt.Library>
libRbt.so (2013.1, Build901 2013/11/27)

>  <Rbt.Parameter_File>
/export/apps/rDock/src/rDock_2013.1_src/data/scripts/dock_solv.prm

>  <Rbt.Receptor>
prm/blind_docking_100.prm

>  <SCORE>
-15.9632

>  <SCORE.INTER>
-12.1286

>  <SCORE.INTER.CONST>
1

>  <SCORE.INTER.POLAR>
0

>  <SCORE.INTER.ROT>
8

>  <SCORE.INTER.SOLV>
11.5907

>  <SCORE.INTER.VDW>
-20.8826

>  <SCORE.INTER.norm>
-0.466484

>  <SCORE.INTRA>
-3.83465

>  <SCORE.INTRA.DIHEDRAL>
-6.17457

>  <SCORE.INTRA.DIHEDRAL.0>
11.6398

>  <SCORE.INTRA.POLAR>
0

>  <SCORE.INTRA.POLAR.0>
0

>  <SCORE.INTRA.REPUL>
0

>  <SCORE.INTRA.REPUL.0>
0

>  <SCORE.INTRA.SOLV>
5.19732

>  <SCORE.INTRA.SOLV.lig_0>
-81.722

>  <SCORE.INTRA.VDW>
-3.34603

>  <SCORE.INTRA.VDW.0>
1.12598

>  <SCORE.INTRA.norm>
-0.147487

>  <SCORE.RESTR>
0

>  <SCORE.RESTR.CAVITY>
0

>  <SCORE.RESTR.norm>
0

>  <SCORE.SYSTEM>
0

>  <SCORE.SYSTEM.CONST>
0

>  <SCORE.SYSTEM.DIHEDRAL>
0

>  <SCORE.SYSTEM.SOLV>
0

>  <SCORE.SYSTEM.norm>
0

>  <SCORE.heavy>
26

>  <SCORE.norm>
-0.613971

>  <RMSD>
10.492

$$$$
ligand
 OpenBabel11021811433D
libRbt.so/2013.1/901 2013/11/27
 26 27  0  0  0  0  0  0  0  0999 V2000
   29.4339   39.7154   78.3486 C   0  0  0  0  0  0  0  0  0  0  0  0
   23.8473   35.0754   73.9966 C   0  0  0  0  0  0  0  0  0  0  0  0
   23.3649   37.9624   68.8522 P   0  0  1  0  0  0  0  0  0  0  0  0
   22.5233   40.2347   67.9493 P   0  0  1  0  0  0  0  0  0  0  0  0
   25.4384   36.6735   75.6652 C   0  0  0  0  0  0  0  0  0  0  0  0
   26.5559   38.8497   76.2368 C   0  0  0  0  0  0  0  0  0  0  0  0
   26.4965   37.4774   76.3760 C   0  0  0  0  0  0  0  0  0  0  0  0
   27.4415   36.8533   77.1923 C   0  0  0  0  0  0  0  0  0  0  0  0
   27.4250   35.4773   77.3646 N   0  0  0  0  0  0  0  0  0  0  0  0
   28.3620   37.5975   77.7981 N   0  0  0  0  0  0  0  0  0  0  0  0
   28.3791   38.9052   77.6412 C   0  0  0  0  0  0  0  0  0  0  0  0
   27.5011   39.5250   76.8770 N   0  0  0  0  0  0  0  0  0  0  0  0
   22.6885   37.1563   67.8110 O   0  5  0  0  0  0  0  0  0  0  0  0
   22.1923   39.4502   66.6604 O   0  0  0  0  0  0  0  0  0  0  0  0
   26.7287   36.9085   72.0784 S   0  0  0  0  0  0  0  0  0  0  0  0
   26.7669   37.2991   73.7706 C   0  0  0  0  0  0  0  0  0  0  0  0
   24.7937   38.4582   68.3040 O   0  0  0  0  0  0  0  0  0  0  0  0
   21.4579   41.4253   68.1429 O   0  5  0  0  0  0  0  0  0  0  0  0
   25.7507   36.6100   74.2358 N   0  0  0  0  0  0  0  0  0  0  0  0
   22.4557   39.2411   69.2150 O   0  0  0  0  0  0  0  0  0  0  0  0
   23.9452   40.8295   67.8383 O   0  0  0  0  0  0  0  0  0  0  0  0
   25.0104   35.8620   73.4469 C   0  0  2  0  0  0  0  0  0  0  0  0
   25.3126   35.8200   72.1243 C   0  0  2  0  0  0  0  0  0  0  0  0
   24.6432   35.0635   71.0070 C   0  0  0  0  0  0  0  0  0  0  0  0
   24.4459   35.9913   69.8061 C   0  0  0  0  0  0  0  0  0  0  0  0
   23.5777   37.0656   70.1726 O   0  0  0  0  0  0  0  0  0  0  0  0
  1 11  1  0  0  0  0
  3 13  1  6  0  0  0
  3 17  2  0  0  0  0
  3 20  1  0  0  0  0
  3 26  1  0  0  0  0
  4 14  1  6  0  0  0
  4 18  1  0  0  0  0
  4 21  2  0  0  0  0
  4 20  1  0  0  0  0
  5 19  1  0  0  0  0
  5  7  1  0  0  0  0
  6  7  2  0  0  0  0
  6 12  1  0  0  0  0
  7  8  1  0  0  0  0
  8  9  1  0  0  0  0
  8 10  2  0  0  0  0
 10 11  1  0  0  0  0
 11 12  2  0  0  0  0
 15 23  1  0  0  0  0
 15 16  1  0  0  0  0
 16 19  1  0  0  0  0
 19 22  1  0  0  0  0
 22  2  1  6  0  0  0
 22 23  1  0  0  0  0
 23 24  1  1  0  0  0
 24 25  1  0  0  0  0
 25 26  1  0  0  0  0
M  CHG  2  13  -1  18  -1
M  END
>  <CHROM.1>
-71.00048398,-5.32638077,73.06949670,51.10560196,-46.22167224,-62.57685072
-177.64127227,63.08929496,25.01632329,37.88185894,72.06630098,-0.25677503
-1.06946616,-0.11568126

>  <Name>
ligand

>  <RI>
0

>  <Rbt.Current_Directory>
/home/itssahil/PROJECTS/Mol_Feturizer/New_Systems/rnas/2HOJ

>  <Rbt.Executable>
rbdock ($Id: //depot/dev/client3/rdock/2013.1/src/exe/rbdock.cxx#4 $)

>  <Rbt.Library>
libRbt.so (2013.1, Build901 2013/11/27)

>  <Rbt.Parameter_File>
/export/apps/rDock/src/rDock_2013.1_src/data/scripts/dock_solv.prm

>  <Rbt.Receptor>
prm/blind_docking_100.prm

>  <SCORE>
-16.997

>  <SCORE.INTER>
-12.7298

>  <SCORE.INTER.CONST>
1

>  <SCORE.INTER.POLAR>
0

>  <SCORE.INTER.ROT>
8

>  <SCORE.INTER.SOLV>
17.9724

>  <SCORE.INTER.VDW>
-23.4107

>  <SCORE.INTER.norm>
-0.489608

>  <SCORE.INTRA>
-4.26718

>  <SCORE.INTRA.DIHEDRAL>
-6.17373

>  <SCORE.INTRA.DIHEDRAL.0>
11.6398

>  <SCORE.INTRA.POLAR>
0

>  <SCORE.INTRA.POLAR.0>
0

>  <SCORE.INTRA.REPUL>
0

>  <SCORE.INTRA.REPUL.0>
0

>  <SCORE.INTRA.SOLV>
1.21084

>  <SCORE.INTRA.SOLV.lig_0>
-81.722

>  <SCORE.INTRA.VDW>
-1.78573

>  <SCORE.INTRA.VDW.0>
1.12598

>  <SCORE.INTRA.norm>
-0.164122

>  <SCORE.RESTR>
0

>  <SCORE.RESTR.CAVITY>
0

>  <SCORE.RESTR.norm>
0

>  <SCORE.SYSTEM>
0

>  <SCORE.SYSTEM.CONST>
0

>  <SCORE.SYSTEM.DIHEDRAL>
0

>  <SCORE.SYSTEM.SOLV>
0

>  <SCORE.SYSTEM.norm>
0

>  <SCORE.heavy>
26

>  <SCORE.norm>
-0.65373

>  <RMSD>
10.554

$$$$
ligand
 OpenBabel11021811433D
libRbt.so/2013.1/901 2013/11/27
 26 27  0  0  0  0  0  0  0  0999 V2000
   26.2132   37.3556   79.8333 C   0  0  0  0  0  0  0  0  0  0  0  0
   26.1636   35.8540   71.5023 C   0  0  0  0  0  0  0  0  0  0  0  0
   21.3456   37.0049   69.4087 P   0  0  1  0  0  0  0  0  0  0  0  0
   22.1676   37.0804   66.9581 P   0  0  1  0  0  0  0  0  0  0  0  0
   26.3635   36.6464   74.1859 C   0  0  0  0  0  0  0  0  0  0  0  0
   26.0604   38.0702   76.2335 C   0  0  0  0  0  0  0  0  0  0  0  0
   26.3241   36.8327   75.6809 C   0  0  0  0  0  0  0  0  0  0  0  0
   26.5529   35.7583   76.5422 C   0  0  0  0  0  0  0  0  0  0  0  0
   26.8226   34.4951   76.0370 N   0  0  0  0  0  0  0  0  0  0  0  0
   26.5143   35.9650   77.8552 N   0  0  0  0  0  0  0  0  0  0  0  0
   26.2542   37.1618   78.3399 C   0  0  0  0  0  0  0  0  0  0  0  0
   26.0339   38.1972   77.5535 N   0  0  0  0  0  0  0  0  0  0  0  0
   21.5227   38.4729   69.3359 O   0  5  0  0  0  0  0  0  0  0  0  0
   23.5644   36.9633   67.6074 O   0  0  0  0  0  0  0  0  0  0  0  0
   23.1146   34.7047   73.6761 S   0  0  0  0  0  0  0  0  0  0  0  0
   24.2597   35.5896   74.6368 C   0  0  0  0  0  0  0  0  0  0  0  0
   20.0991   36.6608   70.3656 O   0  0  0  0  0  0  0  0  0  0  0  0
   22.1643   36.3078   65.5462 O   0  5  0  0  0  0  0  0  0  0  0  0
   25.1896   35.8827   73.7575 N   0  0  0  0  0  0  0  0  0  0  0  0
   21.0656   36.4249   67.9326 O   0  0  0  0  0  0  0  0  0  0  0  0
   21.8301   38.5710   66.7298 O   0  0  0  0  0  0  0  0  0  0  0  0
   25.0876   35.5085   72.5007 C   0  0  2  0  0  0  0  0  0  0  0  0
   23.9947   34.7971   72.1240 C   0  0  2  0  0  0  0  0  0  0  0  0
   23.6248   34.2434   70.7729 C   0  0  0  0  0  0  0  0  0  0  0  0
   22.3759   34.9573   70.2510 C   0  0  0  0  0  0  0  0  0  0  0  0
   22.6818   36.3311   70.0035 O   0  0  0  0  0  0  0  0  0  0  0  0
  1 11  1  0  0  0  0
  3 13  1  6  0  0  0
  3 17  2  0  0  0  0
  3 20  1  0  0  0  0
  3 26  1  0  0  0  0
  4 14  1  1  0  0  0
  4 18  1  0  0  0  0
  4 21  2  0  0  0  0
  4 20  1  0  0  0  0
  5 19  1  0  0  0  0
  5  7  1  0  0  0  0
  6  7  2  0  0  0  0
  6 12  1  0  0  0  0
  7  8  1  0  0  0  0
  8  9  1  0  0  0  0
  8 10  2  0  0  0  0
 10 11  1  0  0  0  0
 11 12  2  0  0  0  0
 15 23  1  0  0  0  0
 15 16  1  0  0  0  0
 16 19  1  0  0  0  0
 19 22  1  0  0  0  0
 22  2  1  1  0  0  0
 22 23  1  0  0  0  0
 23 24  1  6  0  0  0
 24 25  1  0  0  0  0
 25 26  1  0  0  0  0
M  CHG  2  13  -1  18  -1
M  END
>  <CHROM.1>
47.36600570,6.01065753,-108.76284196,47.34156432,65.92313070,65.95571910
177.96909216,170.85143771,23.78202172,36.38960838,71.99701717,0.59669756
-1.03787461,0.71717985

>  <Name>
ligand

>  <RI>
0

>  <Rbt.Current_Directory>
/home/itssahil/PROJECTS/Mol_Feturizer/New_Systems/rnas/2HOJ

>  <Rbt.Executable>
rbdock ($Id: //depot/dev/client3/rdock/2013.1/src/exe/rbdock.cxx#4 $)

>  <Rbt.Library>
libRbt.so (2013.1, Build901 2013/11/27)

>  <Rbt.Parameter_File>
/export/apps/rDock/src/rDock_2013.1_src/data/scripts/dock_solv.prm

>  <Rbt.Receptor>
prm/blind_docking_100.prm

>  <SCORE>
-19.7307

>  <SCORE.INTER>
-14.5919

>  <SCORE.INTER.CONST>
1

>  <SCORE.INTER.POLAR>
0

>  <SCORE.INTER.ROT>
8

>  <SCORE.INTER.SOLV>
25.6379

>  <SCORE.INTER.VDW>
-27.2072

>  <SCORE.INTER.norm>
-0.561227

>  <SCORE.INTRA>
-5.13883

>  <SCORE.INTRA.DIHEDRAL>
-5.70607

>  <SCORE.INTRA.DIHEDRAL.0>
11.6398

>  <SCORE.INTRA.POLAR>
0

>  <SCORE.INTRA.POLAR.0>
0

>  <SCORE.INTRA.REPUL>
0

>  <SCORE.INTRA.REPUL.0>
0

>  <SCORE.INTRA.SOLV>
0.734169

>  <SCORE.INTRA.SOLV.lig_0>
-81.722

>  <SCORE.INTRA.VDW>
-2.65288

>  <SCORE.INTRA.VDW.0>
1.12598

>  <SCORE.INTRA.norm>
-0.197647

>  <SCORE.RESTR>
0

>  <SCORE.RESTR.CAVITY>
0

>  <SCORE.RESTR.norm>
0

>  <SCORE.SYSTEM>
0

>  <SCORE.SYSTEM.CONST>
0

>  <SCORE.SYSTEM.DIHEDRAL>
0

>  <SCORE.SYSTEM.SOLV>
0

>  <SCORE.SYSTEM.norm>
0

>  <SCORE.heavy>
26

>  <SCORE.norm>
-0.758874

>  <RMSD>
10.616

$$$$
ligand
 OpenBabel11021811433D
libRbt.so/2013.1/901 2013/11/27
 26 27  0  0  0  0  0  0  0  0999 V2000
   24.7457   37.2832   69.0650 C   0  0  0  0  0  0  0  0  0  0  0  0
   27.0493   34.0583   74.5171 C   0  0  0  0  0  0  0  0  0  0  0  0
   27.9205   39.1179   78.8056 P   0  0  1  0  0  0  0  0  0  0  0  0
   29.6245   40.3810   80.2849 P   0  0  1  0  0  0  0  0  0  0  0  0
   24.3289   34.2337   73.8552 C   0  0  0  0  0  0  0  0  0  0  0  0
   25.3164   36.1015   72.4957 C   0  0  0  0  0  0  0  0  0  0  0  0
   24.4381   35.0401   72.5866 C   0  0  0  0  0  0  0  0  0  0  0  0
   23.6540   34.7325   71.4735 C   0  0  0  0  0  0  0  0  0  0  0  0
   22.7560   33.6763   71.5140 N   0  0  0  0  0  0  0  0  0  0  0  0
   23.7764   35.4713   70.3746 N   0  0  0  0  0  0  0  0  0  0  0  0
   24.6310   36.4727   70.3296 C   0  0  0  0  0  0  0  0  0  0  0  0
   25.3857   36.7891   71.3637 N   0  0  0  0  0  0  0  0  0  0  0  0
   26.9146   39.7374   79.6978 O   0  5  0  0  0  0  0  0  0  0  0  0
   31.0213   40.3409   80.9433 O   0  0  0  0  0  0  0  0  0  0  0  0
   25.0539   36.4934   76.8474 S   0  0  0  0  0  0  0  0  0  0  0  0
   24.0094   35.7874   75.6524 C   0  0  0  0  0  0  0  0  0  0  0  0
   28.1417   40.0520   77.5148 O   0  0  0  0  0  0  0  0  0  0  0  0
   29.5902   41.5371   79.1659 O   0  5  0  0  0  0  0  0  0  0  0  0
   24.8373   35.0215   74.9803 N   0  0  0  0  0  0  0  0  0  0  0  0
   29.3135   38.9579   79.5978 O   0  0  0  0  0  0  0  0  0  0  0  0
   28.5566   40.6758   81.3623 O   0  0  0  0  0  0  0  0  0  0  0  0
   26.1112   34.9438   75.2979 C   0  0  2  0  0  0  0  0  0  0  0  0
   26.5645   35.6851   76.3407 C   0  0  2  0  0  0  0  0  0  0  0  0
   27.9533   35.7933   76.9137 C   0  0  0  0  0  0  0  0  0  0  0  0
   28.2508   37.2530   77.2640 C   0  0  0  0  0  0  0  0  0  0  0  0
   27.4024   37.6671   78.3367 O   0  0  0  0  0  0  0  0  0  0  0  0
  1 11  1  0  0  0  0
  3 13  1  1  0  0  0
  3 17  2  0  0  0  0
  3 20  1  0  0  0  0
  3 26  1  0  0  0  0
  4 14  1  1  0  0  0
  4 18  1  0  0  0  0
  4 21  2  0  0  0  0
  4 20  1  0  0  0  0
  5 19  1  0  0  0  0
  5  7  1  0  0  0  0
  6  7  2  0  0  0  0
  6 12  1  0  0  0  0
  7  8  1  0  0  0  0
  8  9  1  0  0  0  0
  8 10  2  0  0  0  0
 10 11  1  0  0  0  0
 11 12  2  0  0  0  0
 15 23  1  0  0  0  0
 15 16  1  0  0  0  0
 16 19  1  0  0  0  0
 19 22  1  0  0  0  0
 22  2  1  6  0  0  0
 22 23  1  0  0  0  0
 23 24  1  1  0  0  0
 24 25  1  0  0  0  0
 25 26  1  0  0  0  0
M  CHG  2  13  -1  18  -1
M  END
>  <CHROM.1>
-49.02966881,90.10628913,21.12799145,-174.25874000,-41.09670639,66.62610625
171.30854245,167.38881638,26.68868554,37.38212586,76.19043458,-2.63543199
1.02789803,2.03757406

>  <Name>
ligand

>  <RI>
0

>  <Rbt.Current_Directory>
/home/itssahil/PROJECTS/Mol_Feturizer/New_Systems/rnas/2HOJ

>  <Rbt.Executable>
rbdock ($Id: //depot/dev/client3/rdock/2013.1/src/exe/rbdock.cxx#4 $)

>  <Rbt.Library>
libRbt.so (2013.1, Build901 2013/11/27)

>  <Rbt.Parameter_File>
/export/apps/rDock/src/rDock_2013.1_src/data/scripts/dock_solv.prm

>  <Rbt.Receptor>
prm/blind_docking_100.prm

>  <SCORE>
-19.171

>  <SCORE.INTER>
-14.8106

>  <SCORE.INTER.CONST>
1

>  <SCORE.INTER.POLAR>
0

>  <SCORE.INTER.ROT>
8

>  <SCORE.INTER.SOLV>
13.4015

>  <SCORE.INTER.VDW>
-23.2742

>  <SCORE.INTER.norm>
-0.569638

>  <SCORE.INTRA>
-4.36045

>  <SCORE.INTRA.DIHEDRAL>
-5.58692

>  <SCORE.INTRA.DIHEDRAL.0>
11.6398

>  <SCORE.INTRA.POLAR>
0

>  <SCORE.INTRA.POLAR.0>
0

>  <SCORE.INTRA.REPUL>
0

>  <SCORE.INTRA.REPUL.0>
0

>  <SCORE.INTRA.SOLV>
2.85229

>  <SCORE.INTRA.SOLV.lig_0>
-81.722

>  <SCORE.INTRA.VDW>
-2.99313

>  <SCORE.INTRA.VDW.0>
1.12598

>  <SCORE.INTRA.norm>
-0.167709

>  <SCORE.RESTR>
0

>  <SCORE.RESTR.CAVITY>
0

>  <SCORE.RESTR.norm>
0

>  <SCORE.SYSTEM>
0

>  <SCORE.SYSTEM.CONST>
0

>  <SCORE.SYSTEM.DIHEDRAL>
0

>  <SCORE.SYSTEM.SOLV>
0

>  <SCORE.SYSTEM.norm>
0

>  <SCORE.heavy>
26

>  <SCORE.norm>
-0.737348

>  <RMSD>
10.722

$$$$
ligand
 OpenBabel11021811433D
libRbt.so/2013.1/901 2013/11/27
 26 27  0  0  0  0  0  0  0  0999 V2000
   23.5723   37.6590   69.2863 C   0  0  0  0  0  0  0  0  0  0  0  0
   26.3559   33.6199   75.3659 C   0  0  0  0  0  0  0  0  0  0  0  0
   27.2402   38.9657   79.1556 P   0  0  1  0  0  0  0  0  0  0  0  0
   29.5148   39.7555   80.0985 P   0  0  1  0  0  0  0  0  0  0  0  0
   26.8129   34.5006   72.7419 C   0  0  0  0  0  0  0  0  0  0  0  0
   26.4940   36.3861   71.1126 C   0  0  0  0  0  0  0  0  0  0  0  0
   25.9539   35.3358   71.8277 C   0  0  0  0  0  0  0  0  0  0  0  0
   24.5919   35.0668   71.6820 C   0  0  0  0  0  0  0  0  0  0  0  0
   24.0011   34.0232   72.3787 N   0  0  0  0  0  0  0  0  0  0  0  0
   23.8673   35.8302   70.8693 N   0  0  0  0  0  0  0  0  0  0  0  0
   24.4246   36.8198   70.2021 C   0  0  0  0  0  0  0  0  0  0  0  0
   25.7080   37.1000   70.3177 N   0  0  0  0  0  0  0  0  0  0  0  0
   25.8290   38.6853   79.5041 O   0  5  0  0  0  0  0  0  0  0  0  0
   30.1166   39.0172   78.8824 O   0  0  0  0  0  0  0  0  0  0  0  0
   28.2517   37.0436   75.2013 S   0  0  0  0  0  0  0  0  0  0  0  0
   27.9030   36.4531   73.6053 C   0  0  0  0  0  0  0  0  0  0  0  0
   27.3286   40.3550   78.3494 O   0  0  0  0  0  0  0  0  0  0  0  0
   29.2681   41.3006   79.7217 O   0  5  0  0  0  0  0  0  0  0  0  0
   27.2827   35.3239   73.8583 N   0  0  0  0  0  0  0  0  0  0  0  0
   28.1147   39.0704   80.5038 O   0  0  0  0  0  0  0  0  0  0  0  0
   30.4945   39.6666   81.2903 O   0  0  0  0  0  0  0  0  0  0  0  0
   27.0712   34.9187   75.0916 C   0  0  2  0  0  0  0  0  0  0  0  0
   27.5185   35.6931   76.1127 C   0  0  2  0  0  0  0  0  0  0  0  0
   27.4205   35.4764   77.6001 C   0  0  0  0  0  0  0  0  0  0  0  0
   26.8409   36.7279   78.2632 C   0  0  0  0  0  0  0  0  0  0  0  0
   27.8141   37.7740   78.2371 O   0  0  0  0  0  0  0  0  0  0  0  0
  1 11  1  0  0  0  0
  3 13  1  1  0  0  0
  3 17  2  0  0  0  0
  3 20  1  0  0  0  0
  3 26  1  0  0  0  0
  4 14  1  6  0  0  0
  4 18  1  0  0  0  0
  4 21  2  0  0  0  0
  4 20  1  0  0  0  0
  5 19  1  0  0  0  0
  5  7  1  0  0  0  0
  6  7  2  0  0  0  0
  6 12  1  0  0  0  0
  7  8  1  0  0  0  0
  8  9  1  0  0  0  0
  8 10  2  0  0  0  0
 10 11  1  0  0  0  0
 11 12  2  0  0  0  0
 15 23  1  0  0  0  0
 15 16  1  0  0  0  0
 16 19  1  0  0  0  0
 19 22  1  0  0  0  0
 22  2  1  6  0  0  0
 22 23  1  0  0  0  0
 23 24  1  1  0  0  0
 24 25  1  0  0  0  0
 25 26  1  0  0  0  0
M  CHG  2  13  -1  18  -1
M  END
>  <CHROM.1>
-165.08171702,-53.69341881,65.97338851,-50.42452672,51.03315261,-71.69332236
-170.81113608,-10.11068423,27.15334982,37.32565852,75.97155498,2.74994800
1.17053958,-3.13300709

>  <Name>
ligand

>  <RI>
0

>  <Rbt.Current_Directory>
/home/itssahil/PROJECTS/Mol_Feturizer/New_Systems/rnas/2HOJ

>  <Rbt.Executable>
rbdock ($Id: //depot/dev/client3/rdock/2013.1/src/exe/rbdock.cxx#4 $)

>  <Rbt.Library>
libRbt.so (2013.1, Build901 2013/11/27)

>  <Rbt.Parameter_File>
/export/apps/rDock/src/rDock_2013.1_src/data/scripts/dock_solv.prm

>  <Rbt.Receptor>
prm/blind_docking_100.prm

>  <SCORE>
-19.8999

>  <SCORE.INTER>
-18.0448

>  <SCORE.INTER.CONST>
1

>  <SCORE.INTER.POLAR>
-1.28943

>  <SCORE.INTER.ROT>
8

>  <SCORE.INTER.SOLV>
19.4926

>  <SCORE.INTER.VDW>
-23.1626

>  <SCORE.INTER.norm>
-0.694029

>  <SCORE.INTRA>
-1.87174

>  <SCORE.INTRA.DIHEDRAL>
-2.86231

>  <SCORE.INTRA.DIHEDRAL.0>
11.6398

>  <SCORE.INTRA.POLAR>
0

>  <SCORE.INTRA.POLAR.0>
0

>  <SCORE.INTRA.REPUL>
0

>  <SCORE.INTRA.REPUL.0>
0

>  <SCORE.INTRA.SOLV>
0.939608

>  <SCORE.INTRA.SOLV.lig_0>
-81.722

>  <SCORE.INTRA.VDW>
-0.910383

>  <SCORE.INTRA.VDW.0>
1.12598

>  <SCORE.INTRA.norm>
-0.0719898

>  <SCORE.RESTR>
0.0166381

>  <SCORE.RESTR.CAVITY>
0.0166381

>  <SCORE.RESTR.norm>
0.000639927

>  <SCORE.SYSTEM>
0

>  <SCORE.SYSTEM.CONST>
0

>  <SCORE.SYSTEM.DIHEDRAL>
0

>  <SCORE.SYSTEM.SOLV>
0

>  <SCORE.SYSTEM.norm>
0

>  <SCORE.heavy>
26

>  <SCORE.norm>
-0.765379

>  <RMSD>
10.781

$$$$
ligand
 OpenBabel11021811433D
libRbt.so/2013.1/901 2013/11/27
 26 27  0  0  0  0  0  0  0  0999 V2000
   22.5544   33.3289   71.1782 C   0  0  0  0  0  0  0  0  0  0  0  0
   27.3147   37.1219   73.3179 C   0  0  0  0  0  0  0  0  0  0  0  0
   28.2970   40.7712   78.8679 P   0  0  1  0  0  0  0  0  0  0  0  0
   29.0844   42.6723   80.4339 P   0  0  1  0  0  0  0  0  0  0  0  0
   27.6762   34.3431   73.4491 C   0  0  0  0  0  0  0  0  0  0  0  0
   25.3024   33.5356   73.6068 C   0  0  0  0  0  0  0  0  0  0  0  0
   26.3210   34.0751   72.8467 C   0  0  0  0  0  0  0  0  0  0  0  0
   26.0636   34.3663   71.5060 C   0  0  0  0  0  0  0  0  0  0  0  0
   27.0534   34.9088   70.7000 N   0  0  0  0  0  0  0  0  0  0  0  0
   24.8563   34.1105   71.0109 N   0  0  0  0  0  0  0  0  0  0  0  0
   23.9116   33.5994   71.7735 C   0  0  0  0  0  0  0  0  0  0  0  0
   24.1226   33.3128   73.0432 N   0  0  0  0  0  0  0  0  0  0  0  0
   29.6960   40.2910   78.9287 O   0  5  0  0  0  0  0  0  0  0  0  0
   28.4856   41.8456   81.5933 O   0  0  0  0  0  0  0  0  0  0  0  0
   27.3226   35.7439   76.9844 S   0  0  0  0  0  0  0  0  0  0  0  0
   27.5495   34.4567   75.8402 C   0  0  0  0  0  0  0  0  0  0  0  0
   27.4345   40.0611   80.0254 O   0  0  0  0  0  0  0  0  0  0  0  0
   30.6305   42.2737   80.2314 O   0  5  0  0  0  0  0  0  0  0  0  0
   27.5170   35.0972   74.6945 N   0  0  0  0  0  0  0  0  0  0  0  0
   28.2684   42.3674   79.0793 O   0  0  0  0  0  0  0  0  0  0  0  0
   28.9807   44.1774   80.7686 O   0  0  0  0  0  0  0  0  0  0  0  0
   27.3484   36.4005   74.6417 C   0  0  2  0  0  0  0  0  0  0  0  0
   27.1977   37.0812   75.8063 C   0  0  2  0  0  0  0  0  0  0  0  0
   26.9877   38.5542   76.0406 C   0  0  0  0  0  0  0  0  0  0  0  0
   27.7785   38.9947   77.2745 C   0  0  0  0  0  0  0  0  0  0  0  0
   27.6669   40.4108   77.4305 O   0  0  0  0  0  0  0  0  0  0  0  0
  1 11  1  0  0  0  0
  3 13  1  1  0  0  0
  3 17  2  0  0  0  0
  3 20  1  0  0  0  0
  3 26  1  0  0  0  0
  4 14  1  1  0  0  0
  4 18  1  0  0  0  0
  4 21  2  0  0  0  0
  4 20  1  0  0  0  0
  5 19  1  0  0  0  0
  5  7  1  0  0  0  0
  6  7  2  0  0  0  0
  6 12  1  0  0  0  0
  7  8  1  0  0  0  0
  8  9  1  0  0  0  0
  8 10  2  0  0  0  0
 10 11  1  0  0  0  0
 11 12  2  0  0  0  0
 15 23  1  0  0  0  0
 15 16  1  0  0  0  0
 16 19  1  0  0  0  0
 19 22  1  0  0  0  0
 22  2  1  6  0  0  0
 22 23  1  0  0  0  0
 23 24  1  1  0  0  0
 24 25  1  0  0  0  0
 25 26  1  0  0  0  0
M  CHG  2  13  -1  18  -1
M  END
>  <CHROM.1>
-52.60526583,98.48633709,-50.17753744,-54.70295844,38.58907899,175.25980786
170.43140468,57.33714898,27.33885893,37.94715241,76.35561260,2.59516181,1.21265153
2.91076243

>  <Name>
ligand

>  <RI>
0

>  <Rbt.Current_Directory>
/home/itssahil/PROJECTS/Mol_Feturizer/New_Systems/rnas/2HOJ

>  <Rbt.Executable>
rbdock ($Id: //depot/dev/client3/rdock/2013.1/src/exe/rbdock.cxx#4 $)

>  <Rbt.Library>
libRbt.so (2013.1, Build901 2013/11/27)

>  <Rbt.Parameter_File>
/export/apps/rDock/src/rDock_2013.1_src/data/scripts/dock_solv.prm

>  <Rbt.Receptor>
prm/blind_docking_100.prm

>  <SCORE>
-16.8702

>  <SCORE.INTER>
-12.3215

>  <SCORE.INTER.CONST>
1

>  <SCORE.INTER.POLAR>
-0.961024

>  <SCORE.INTER.ROT>
8

>  <SCORE.INTER.SOLV>
17.039

>  <SCORE.INTER.VDW>
-19.6239

>  <SCORE.INTER.norm>
-0.473902

>  <SCORE.INTRA>
-4.54875

>  <SCORE.INTRA.DIHEDRAL>
-5.95761

>  <SCORE.INTRA.DIHEDRAL.0>
11.6398

>  <SCORE.INTRA.POLAR>
0

>  <SCORE.INTRA.POLAR.0>
0

>  <SCORE.INTRA.REPUL>
0

>  <SCORE.INTRA.REPUL.0>
0

>  <SCORE.INTRA.SOLV>
2.63527

>  <SCORE.INTRA.SOLV.lig_0>
-81.722

>  <SCORE.INTRA.VDW>
-2.88758

>  <SCORE.INTRA.VDW.0>
1.12598

>  <SCORE.INTRA.norm>
-0.174952

>  <SCORE.RESTR>
0

>  <SCORE.RESTR.CAVITY>
0

>  <SCORE.RESTR.norm>
0

>  <SCORE.SYSTEM>
0

>  <SCORE.SYSTEM.CONST>
0

>  <SCORE.SYSTEM.DIHEDRAL>
0

>  <SCORE.SYSTEM.SOLV>
0

>  <SCORE.SYSTEM.norm>
0

>  <SCORE.heavy>
26

>  <SCORE.norm>
-0.648854

>  <RMSD>
11.323

$$$$
ligand
 OpenBabel11021811433D
libRbt.so/2013.1/901 2013/11/27
 26 27  0  0  0  0  0  0  0  0999 V2000
   22.1852   34.4852   71.0056 C   0  0  0  0  0  0  0  0  0  0  0  0
   27.5563   37.0798   72.9364 C   0  0  0  0  0  0  0  0  0  0  0  0
   28.2816   40.2191   79.0583 P   0  0  1  0  0  0  0  0  0  0  0  0
   27.4997   39.6524   81.4572 P   0  0  1  0  0  0  0  0  0  0  0  0
   27.5284   34.2747   72.9611 C   0  0  0  0  0  0  0  0  0  0  0  0
   25.8343   34.8569   71.1996 C   0  0  0  0  0  0  0  0  0  0  0  0
   26.1136   34.3299   72.4448 C   0  0  0  0  0  0  0  0  0  0  0  0
   25.0521   33.8490   73.2134 C   0  0  0  0  0  0  0  0  0  0  0  0
   25.2798   33.3105   74.4710 N   0  0  0  0  0  0  0  0  0  0  0  0
   23.8177   33.9203   72.7240 N   0  0  0  0  0  0  0  0  0  0  0  0
   23.5968   34.4268   71.5283 C   0  0  0  0  0  0  0  0  0  0  0  0
   24.5773   34.8896   70.7777 N   0  0  0  0  0  0  0  0  0  0  0  0
   27.9832   41.6039   79.4885 O   0  5  0  0  0  0  0  0  0  0  0  0
   27.0149   38.5089   82.3756 O   0  0  0  0  0  0  0  0  0  0  0  0
   27.7584   35.5719   76.5458 S   0  0  0  0  0  0  0  0  0  0  0  0
   27.6752   34.3114   75.3534 C   0  0  0  0  0  0  0  0  0  0  0  0
   29.8425   39.9084   79.2924 O   0  0  0  0  0  0  0  0  0  0  0  0
   29.0294   40.0109   81.8061 O   0  5  0  0  0  0  0  0  0  0  0  0
   27.6126   34.9945   74.2339 N   0  0  0  0  0  0  0  0  0  0  0  0
   27.3936   39.1874   79.9189 O   0  0  0  0  0  0  0  0  0  0  0  0
   26.6153   40.9000   81.6791 O   0  0  0  0  0  0  0  0  0  0  0  0
   27.6275   36.3096   74.2308 C   0  0  2  0  0  0  0  0  0  0  0  0
   27.7010   36.9586   75.4207 C   0  0  2  0  0  0  0  0  0  0  0  0
   27.7301   38.4362   75.7115 C   0  0  0  0  0  0  0  0  0  0  0  0
   28.0325   38.6607   77.1948 C   0  0  0  0  0  0  0  0  0  0  0  0
   27.9292   40.0538   77.4958 O   0  0  0  0  0  0  0  0  0  0  0  0
  1 11  1  0  0  0  0
  3 13  1  1  0  0  0
  3 17  2  0  0  0  0
  3 20  1  0  0  0  0
  3 26  1  0  0  0  0
  4 14  1  1  0  0  0
  4 18  1  0  0  0  0
  4 21  2  0  0  0  0
  4 20  1  0  0  0  0
  5 19  1  0  0  0  0
  5  7  1  0  0  0  0
  6  7  2  0  0  0  0
  6 12  1  0  0  0  0
  7  8  1  0  0  0  0
  8  9  1  0  0  0  0
  8 10  2  0  0  0  0
 10 11  1  0  0  0  0
 11 12  2  0  0  0  0
 15 23  1  0  0  0  0
 15 16  1  0  0  0  0
 16 19  1  0  0  0  0
 19 22  1  0  0  0  0
 22  2  1  1  0  0  0
 22 23  1  0  0  0  0
 23 24  1  6  0  0  0
 24 25  1  0  0  0  0
 25 26  1  0  0  0  0
M  CHG  2  13  -1  18  -1
M  END
>  <CHROM.1>
-45.69420977,103.57251797,122.65555584,-164.24769070,8.39055018,-174.31467561
-179.09511861,-170.96559310,26.99437059,37.29489085,76.53170050,1.90314998
-0.60096726,-1.97263122

>  <Name>
ligand

>  <RI>
0

>  <Rbt.Current_Directory>
/home/itssahil/PROJECTS/Mol_Feturizer/New_Systems/rnas/2HOJ

>  <Rbt.Executable>
rbdock ($Id: //depot/dev/client3/rdock/2013.1/src/exe/rbdock.cxx#4 $)

>  <Rbt.Library>
libRbt.so (2013.1, Build901 2013/11/27)

>  <Rbt.Parameter_File>
/export/apps/rDock/src/rDock_2013.1_src/data/scripts/dock_solv.prm

>  <Rbt.Receptor>
prm/blind_docking_100.prm

>  <SCORE>
-19.6936

>  <SCORE.INTER>
-16.5145

>  <SCORE.INTER.CONST>
1

>  <SCORE.INTER.POLAR>
-1.27184

>  <SCORE.INTER.ROT>
8

>  <SCORE.INTER.SOLV>
13.6939

>  <SCORE.INTER.VDW>
-20.2682

>  <SCORE.INTER.norm>
-0.635173

>  <SCORE.INTRA>
-3.17914

>  <SCORE.INTRA.DIHEDRAL>
-6.07565

>  <SCORE.INTRA.DIHEDRAL.0>
11.6398

>  <SCORE.INTRA.POLAR>
0

>  <SCORE.INTRA.POLAR.0>
0

>  <SCORE.INTRA.REPUL>
0

>  <SCORE.INTRA.REPUL.0>
0

>  <SCORE.INTRA.SOLV>
5.04145

>  <SCORE.INTRA.SOLV.lig_0>
-81.722

>  <SCORE.INTRA.VDW>
-2.66204

>  <SCORE.INTRA.VDW.0>
1.12598

>  <SCORE.INTRA.norm>
-0.122275

>  <SCORE.RESTR>
0

>  <SCORE.RESTR.CAVITY>
0

>  <SCORE.RESTR.norm>
0

>  <SCORE.SYSTEM>
0

>  <SCORE.SYSTEM.CONST>
0

>  <SCORE.SYSTEM.DIHEDRAL>
0

>  <SCORE.SYSTEM.SOLV>
0

>  <SCORE.SYSTEM.norm>
0

>  <SCORE.heavy>
26

>  <SCORE.norm>
-0.757448

>  <RMSD>
11.386

$$$$
ligand
 OpenBabel11021811433D
libRbt.so/2013.1/901 2013/11/27
 26 27  0  0  0  0  0  0  0  0999 V2000
   36.8351   40.3126   63.0058 C   0  0  0  0  0  0  0  0  0  0  0  0
   29.7986   37.2852   61.5873 C   0  0  0  0  0  0  0  0  0  0  0  0
   26.3138   39.4090   64.9627 P   0  0  1  0  0  0  0  0  0  0  0  0
   24.5226   41.1065   65.7354 P   0  0  1  0  0  0  0  0  0  0  0  0
   32.5701   36.8683   61.4678 C   0  0  0  0  0  0  0  0  0  0  0  0
   33.4915   39.1329   62.0460 C   0  0  0  0  0  0  0  0  0  0  0  0
   33.6999   37.7788   61.8748 C   0  0  0  0  0  0  0  0  0  0  0  0
   34.9839   37.2744   62.0888 C   0  0  0  0  0  0  0  0  0  0  0  0
   35.2453   35.9217   61.9295 N   0  0  0  0  0  0  0  0  0  0  0  0
   35.9548   38.1115   62.4421 N   0  0  0  0  0  0  0  0  0  0  0  0
   35.7106   39.3964   62.5990 C   0  0  0  0  0  0  0  0  0  0  0  0
   34.5093   39.9043   62.4044 N   0  0  0  0  0  0  0  0  0  0  0  0
   26.7024   40.2167   63.7845 O   0  5  0  0  0  0  0  0  0  0  0  0
   25.1262   42.0779   64.6970 O   0  0  0  0  0  0  0  0  0  0  0  0
   31.2305   35.5410   64.7888 S   0  0  0  0  0  0  0  0  0  0  0  0
   32.4956   35.8642   63.6432 C   0  0  0  0  0  0  0  0  0  0  0  0
   27.1446   39.9013   66.2493 O   0  0  0  0  0  0  0  0  0  0  0  0
   22.9487   41.4014   65.8967 O   0  5  0  0  0  0  0  0  0  0  0  0
   31.8384   36.4344   62.6600 N   0  0  0  0  0  0  0  0  0  0  0  0
   24.7377   39.5892   65.2400 O   0  0  0  0  0  0  0  0  0  0  0  0
   25.2259   41.3072   67.0967 O   0  0  0  0  0  0  0  0  0  0  0  0
   30.5390   36.6275   62.7244 C   0  0  2  0  0  0  0  0  0  0  0  0
   29.8777   36.2140   63.8354 C   0  0  2  0  0  0  0  0  0  0  0  0
   28.4123   36.3018   64.1724 C   0  0  0  0  0  0  0  0  0  0  0  0
   28.0452   37.7535   64.4883 C   0  0  0  0  0  0  0  0  0  0  0  0
   26.6328   37.8563   64.6790 O   0  0  0  0  0  0  0  0  0  0  0  0
  1 11  1  0  0  0  0
  3 13  1  6  0  0  0
  3 17  2  0  0  0  0
  3 20  1  0  0  0  0
  3 26  1  0  0  0  0
  4 14  1  6  0  0  0
  4 18  1  0  0  0  0
  4 21  2  0  0  0  0
  4 20  1  0  0  0  0
  5 19  1  0  0  0  0
  5  7  1  0  0  0  0
  6  7  2  0  0  0  0
  6 12  1  0  0  0  0
  7  8  1  0  0  0  0
  8  9  1  0  0  0  0
  8 10  2  0  0  0  0
 10 11  1  0  0  0  0
 11 12  2  0  0  0  0
 15 23  1  0  0  0  0
 15 16  1  0  0  0  0
 16 19  1  0  0  0  0
 19 22  1  0  0  0  0
 22  2  1  6  0  0  0
 22 23  1  0  0  0  0
 23 24  1  1  0  0  0
 24 25  1  0  0  0  0
 25 26  1  0  0  0  0
M  CHG  2  13  -1  18  -1
M  END
>  <CHROM.1>
-68.53530173,-54.48001871,-85.96710762,54.49424165,107.24192198,174.37052021
-178.36021604,62.06659738,29.60218130,38.56450147,63.96024200,-0.30254114
0.29291943,0.07268778

>  <Name>
ligand

>  <RI>
0

>  <Rbt.Current_Directory>
/home/itssahil/PROJECTS/Mol_Feturizer/New_Systems/rnas/2HOJ

>  <Rbt.Executable>
rbdock ($Id: //depot/dev/client3/rdock/2013.1/src/exe/rbdock.cxx#4 $)

>  <Rbt.Library>
libRbt.so (2013.1, Build901 2013/11/27)

>  <Rbt.Parameter_File>
/export/apps/rDock/src/rDock_2013.1_src/data/scripts/dock_solv.prm

>  <Rbt.Receptor>
prm/pocket_docking_8.prm

>  <SCORE>
-15.2513

>  <SCORE.INTER>
-10.129

>  <SCORE.INTER.CONST>
1

>  <SCORE.INTER.POLAR>
0

>  <SCORE.INTER.ROT>
8

>  <SCORE.INTER.SOLV>
13.3278

>  <SCORE.INTER.VDW>
-20.1286

>  <SCORE.INTER.norm>
-0.389576

>  <SCORE.INTRA>
-5.12237

>  <SCORE.INTRA.DIHEDRAL>
-6.71714

>  <SCORE.INTRA.DIHEDRAL.0>
11.6398

>  <SCORE.INTRA.POLAR>
0

>  <SCORE.INTRA.POLAR.0>
0

>  <SCORE.INTRA.REPUL>
0

>  <SCORE.INTRA.REPUL.0>
0

>  <SCORE.INTRA.SOLV>
2.20372

>  <SCORE.INTRA.SOLV.lig_0>
-81.722

>  <SCORE.INTRA.VDW>
-2.86565

>  <SCORE.INTRA.VDW.0>
1.12598

>  <SCORE.INTRA.norm>
-0.197014

>  <SCORE.RESTR>
0

>  <SCORE.RESTR.CAVITY>
0

>  <SCORE.RESTR.norm>
0

>  <SCORE.SYSTEM>
0

>  <SCORE.SYSTEM.CONST>
0

>  <SCORE.SYSTEM.DIHEDRAL>
0

>  <SCORE.SYSTEM.SOLV>
0

>  <SCORE.SYSTEM.norm>
0

>  <SCORE.heavy>
26

>  <SCORE.norm>
-0.58659

>  <RMSD>
11.522

$$$$
ligand
 OpenBabel11021811433D
libRbt.so/2013.1/901 2013/11/27
 26 27  0  0  0  0  0  0  0  0999 V2000
   24.2074   36.6494   70.0888 C   0  0  0  0  0  0  0  0  0  0  0  0
   27.4112   35.9611   77.4972 C   0  0  0  0  0  0  0  0  0  0  0  0
   28.3144   42.4187   78.8719 P   0  0  1  0  0  0  0  0  0  0  0  0
   26.7761   43.9486   80.2790 P   0  0  1  0  0  0  0  0  0  0  0  0
   27.5017   36.0586   74.6950 C   0  0  0  0  0  0  0  0  0  0  0  0
   27.0434   36.9736   72.4006 C   0  0  0  0  0  0  0  0  0  0  0  0
   26.6287   36.2142   73.4765 C   0  0  0  0  0  0  0  0  0  0  0  0
   25.3802   35.5937   73.4068 C   0  0  0  0  0  0  0  0  0  0  0  0
   24.9174   34.8206   74.4612 N   0  0  0  0  0  0  0  0  0  0  0  0
   24.6378   35.7597   72.3161 N   0  0  0  0  0  0  0  0  0  0  0  0
   25.0746   36.4894   71.3102 C   0  0  0  0  0  0  0  0  0  0  0  0
   26.2488   37.0887   71.3449 N   0  0  0  0  0  0  0  0  0  0  0  0
   29.2002   42.3735   77.6866 O   0  5  0  0  0  0  0  0  0  0  0  0
   27.8081   44.6556   81.1854 O   0  0  0  0  0  0  0  0  0  0  0  0
   27.5660   39.6132   76.0900 S   0  0  0  0  0  0  0  0  0  0  0  0
   27.5691   38.4526   74.7976 C   0  0  0  0  0  0  0  0  0  0  0  0
   29.2076   42.4444   80.2096 O   0  0  0  0  0  0  0  0  0  0  0  0
   25.4453   44.8478   80.1761 O   0  5  0  0  0  0  0  0  0  0  0  0
   27.5164   37.3139   75.4492 N   0  0  0  0  0  0  0  0  0  0  0  0
   27.4025   43.7447   78.8094 O   0  0  0  0  0  0  0  0  0  0  0  0
   26.4209   42.5709   80.8820 O   0  0  0  0  0  0  0  0  0  0  0  0
   27.4729   37.2769   76.7632 C   0  0  2  0  0  0  0  0  0  0  0  0
   27.4923   38.4507   77.4446 C   0  0  2  0  0  0  0  0  0  0  0  0
   27.4575   38.7031   78.9292 C   0  0  0  0  0  0  0  0  0  0  0  0
   28.1917   40.0084   79.2444 C   0  0  0  0  0  0  0  0  0  0  0  0
   27.3658   41.1175   78.8841 O   0  0  0  0  0  0  0  0  0  0  0  0
  1 11  1  0  0  0  0
  3 13  1  6  0  0  0
  3 17  2  0  0  0  0
  3 20  1  0  0  0  0
  3 26  1  0  0  0  0
  4 14  1  1  0  0  0
  4 18  1  0  0  0  0
  4 21  2  0  0  0  0
  4 20  1  0  0  0  0
  5 19  1  0  0  0  0
  5  7  1  0  0  0  0
  6  7  2  0  0  0  0
  6 12  1  0  0  0  0
  7  8  1  0  0  0  0
  8  9  1  0  0  0  0
  8 10  2  0  0  0  0
 10 11  1  0  0  0  0
 11 12  2  0  0  0  0
 15 23  1  0  0  0  0
 15 16  1  0  0  0  0
 16 19  1  0  0  0  0
 19 22  1  0  0  0  0
 22  2  1  1  0  0  0
 22 23  1  0  0  0  0
 23 24  1  6  0  0  0
 24 25  1  0  0  0  0
 25 26  1  0  0  0  0
M  CHG  2  13  -1  18  -1
M  END
>  <CHROM.1>
-164.76243036,-39.97599996,72.42918540,82.31835040,-29.18992877,75.89699149
-165.51630690,72.99149773,27.03408691,39.74005978,76.82393515,1.91882859
1.08350613,-2.66177245

>  <Name>
ligand

>  <RI>
0

>  <Rbt.Current_Directory>
/home/itssahil/PROJECTS/Mol_Feturizer/New_Systems/rnas/2HOJ

>  <Rbt.Executable>
rbdock ($Id: //depot/dev/client3/rdock/2013.1/src/exe/rbdock.cxx#4 $)

>  <Rbt.Library>
libRbt.so (2013.1, Build901 2013/11/27)

>  <Rbt.Parameter_File>
/export/apps/rDock/src/rDock_2013.1_src/data/scripts/dock_solv.prm

>  <Rbt.Receptor>
prm/blind_docking_100.prm

>  <SCORE>
-18.6574

>  <SCORE.INTER>
-15.4527

>  <SCORE.INTER.CONST>
1

>  <SCORE.INTER.POLAR>
-0.728398

>  <SCORE.INTER.ROT>
8

>  <SCORE.INTER.SOLV>
19.0153

>  <SCORE.INTER.VDW>
-23.1456

>  <SCORE.INTER.norm>
-0.594335

>  <SCORE.INTRA>
-3.2047

>  <SCORE.INTRA.DIHEDRAL>
-3.54849

>  <SCORE.INTRA.DIHEDRAL.0>
11.6398

>  <SCORE.INTRA.POLAR>
0

>  <SCORE.INTRA.POLAR.0>
0

>  <SCORE.INTRA.REPUL>
0

>  <SCORE.INTRA.REPUL.0>
0

>  <SCORE.INTRA.SOLV>
2.58017

>  <SCORE.INTRA.SOLV.lig_0>
-81.722

>  <SCORE.INTRA.VDW>
-2.72054

>  <SCORE.INTRA.VDW.0>
1.12598

>  <SCORE.INTRA.norm>
-0.123258

>  <SCORE.RESTR>
0

>  <SCORE.RESTR.CAVITY>
0

>  <SCORE.RESTR.norm>
0

>  <SCORE.SYSTEM>
0

>  <SCORE.SYSTEM.CONST>
0

>  <SCORE.SYSTEM.DIHEDRAL>
0

>  <SCORE.SYSTEM.SOLV>
0

>  <SCORE.SYSTEM.norm>
0

>  <SCORE.heavy>
26

>  <SCORE.norm>
-0.717592

>  <RMSD>
11.723

$$$$
ligand
 OpenBabel11021811433D
libRbt.so/2013.1/901 2013/11/27
 26 27  0  0  0  0  0  0  0  0999 V2000
   26.9336   34.7085   69.6483 C   0  0  0  0  0  0  0  0  0  0  0  0
   24.4572   35.5422   76.6753 C   0  0  0  0  0  0  0  0  0  0  0  0
   28.0657   40.6221   79.2712 P   0  0  1  0  0  0  0  0  0  0  0  0
   28.6936   43.0303   79.9732 P   0  0  1  0  0  0  0  0  0  0  0  0
   25.7908   33.6259   75.1200 C   0  0  0  0  0  0  0  0  0  0  0  0
   27.3936   34.0519   73.2329 C   0  0  0  0  0  0  0  0  0  0  0  0
   26.0918   33.9125   73.6714 C   0  0  0  0  0  0  0  0  0  0  0  0
   25.0614   34.0435   72.7388 C   0  0  0  0  0  0  0  0  0  0  0  0
   23.7369   33.9128   73.1288 N   0  0  0  0  0  0  0  0  0  0  0  0
   25.3684   34.3014   71.4709 N   0  0  0  0  0  0  0  0  0  0  0  0
   26.6250   34.4220   71.0947 C   0  0  0  0  0  0  0  0  0  0  0  0
   27.6211   34.3042   71.9508 N   0  0  0  0  0  0  0  0  0  0  0  0
   28.1599   41.1512   77.8918 O   0  5  0  0  0  0  0  0  0  0  0  0
   28.5674   44.0991   81.0814 O   0  0  0  0  0  0  0  0  0  0  0  0
   28.3489   35.6509   77.1051 S   0  0  0  0  0  0  0  0  0  0  0  0
   27.8860   34.4101   75.9811 C   0  0  0  0  0  0  0  0  0  0  0  0
   29.4818   39.9932   79.7034 O   0  0  0  0  0  0  0  0  0  0  0  0
   30.2025   42.4720   79.9337 O   0  5  0  0  0  0  0  0  0  0  0  0
   26.5779   34.5225   75.9695 N   0  0  0  0  0  0  0  0  0  0  0  0
   27.6790   41.8175   80.2787 O   0  0  0  0  0  0  0  0  0  0  0  0
   28.3428   43.6622   78.6073 O   0  0  0  0  0  0  0  0  0  0  0  0
   25.9603   35.4246   76.7007 C   0  0  2  0  0  0  0  0  0  0  0  0
   26.7067   36.2431   77.4851 C   0  0  2  0  0  0  0  0  0  0  0  0
   26.2720   37.3462   78.4142 C   0  0  0  0  0  0  0  0  0  0  0  0
   27.3309   38.4509   78.4288 C   0  0  0  0  0  0  0  0  0  0  0  0
   26.9301   39.4820   79.3333 O   0  0  0  0  0  0  0  0  0  0  0  0
  1 11  1  0  0  0  0
  3 13  1  6  0  0  0
  3 17  2  0  0  0  0
  3 20  1  0  0  0  0
  3 26  1  0  0  0  0
  4 14  1  1  0  0  0
  4 18  1  0  0  0  0
  4 21  2  0  0  0  0
  4 20  1  0  0  0  0
  5 19  1  0  0  0  0
  5  7  1  0  0  0  0
  6  7  2  0  0  0  0
  6 12  1  0  0  0  0
  7  8  1  0  0  0  0
  8  9  1  0  0  0  0
  8 10  2  0  0  0  0
 10 11  1  0  0  0  0
 11 12  2  0  0  0  0
 15 23  1  0  0  0  0
 15 16  1  0  0  0  0
 16 19  1  0  0  0  0
 19 22  1  0  0  0  0
 22  2  1  1  0  0  0
 22 23  1  0  0  0  0
 23 24  1  6  0  0  0
 24 25  1  0  0  0  0
 25 26  1  0  0  0  0
M  CHG  2  13  -1  18  -1
M  END
>  <CHROM.1>
-49.83477736,-65.81611312,46.66392735,-168.88193504,32.85699256,-178.72788081
-178.62844437,60.37984355,27.30521846,37.87138500,76.79679641,-2.25814313
1.20944493,1.35714135

>  <Name>
ligand

>  <RI>
0

>  <Rbt.Current_Directory>
/home/itssahil/PROJECTS/Mol_Feturizer/New_Systems/rnas/2HOJ

>  <Rbt.Executable>
rbdock ($Id: //depot/dev/client3/rdock/2013.1/src/exe/rbdock.cxx#4 $)

>  <Rbt.Library>
libRbt.so (2013.1, Build901 2013/11/27)

>  <Rbt.Parameter_File>
/export/apps/rDock/src/rDock_2013.1_src/data/scripts/dock_solv.prm

>  <Rbt.Receptor>
prm/blind_docking_100.prm

>  <SCORE>
-18.7123

>  <SCORE.INTER>
-15.3748

>  <SCORE.INTER.CONST>
1

>  <SCORE.INTER.POLAR>
-0.731468

>  <SCORE.INTER.ROT>
8

>  <SCORE.INTER.SOLV>
16.73

>  <SCORE.INTER.VDW>
-22.3217

>  <SCORE.INTER.norm>
-0.59134

>  <SCORE.INTRA>
-3.33927

>  <SCORE.INTRA.DIHEDRAL>
-6.3436

>  <SCORE.INTRA.DIHEDRAL.0>
11.6398

>  <SCORE.INTRA.POLAR>
0

>  <SCORE.INTRA.POLAR.0>
0

>  <SCORE.INTRA.REPUL>
0

>  <SCORE.INTRA.REPUL.0>
0

>  <SCORE.INTRA.SOLV>
4.14051

>  <SCORE.INTRA.SOLV.lig_0>
-81.722

>  <SCORE.INTRA.VDW>
-2.23772

>  <SCORE.INTRA.VDW.0>
1.12598

>  <SCORE.INTRA.norm>
-0.128433

>  <SCORE.RESTR>
0.00181963

>  <SCORE.RESTR.CAVITY>
0.00181963

>  <SCORE.RESTR.norm>
6.9986e-05

>  <SCORE.SYSTEM>
0

>  <SCORE.SYSTEM.CONST>
0

>  <SCORE.SYSTEM.DIHEDRAL>
0

>  <SCORE.SYSTEM.SOLV>
0

>  <SCORE.SYSTEM.norm>
0

>  <SCORE.heavy>
26

>  <SCORE.norm>
-0.719703

>  <RMSD>
11.955

$$$$
ligand
 OpenBabel11021811433D
libRbt.so/2013.1/901 2013/11/27
 26 27  0  0  0  0  0  0  0  0999 V2000
   23.5339   33.1298   71.7970 C   0  0  0  0  0  0  0  0  0  0  0  0
   27.2295   38.6280   76.8992 C   0  0  0  0  0  0  0  0  0  0  0  0
   28.8059   40.0079   80.0912 P   0  0  1  0  0  0  0  0  0  0  0  0
   28.4867   42.5637   79.8617 P   0  0  1  0  0  0  0  0  0  0  0  0
   26.6304   36.4581   75.2252 C   0  0  0  0  0  0  0  0  0  0  0  0
   24.4711   35.8282   74.1063 C   0  0  0  0  0  0  0  0  0  0  0  0
   25.8120   35.5763   74.3176 C   0  0  0  0  0  0  0  0  0  0  0  0
   26.3907   34.4840   73.6689 C   0  0  0  0  0  0  0  0  0  0  0  0
   27.7337   34.1881   73.8484 N   0  0  0  0  0  0  0  0  0  0  0  0
   25.6333   33.7274   72.8801 N   0  0  0  0  0  0  0  0  0  0  0  0
   24.3583   34.0068   72.7029 C   0  0  0  0  0  0  0  0  0  0  0  0
   23.7817   35.0308   73.3012 N   0  0  0  0  0  0  0  0  0  0  0  0
   29.9966   40.3088   79.2646 O   0  5  0  0  0  0  0  0  0  0  0  0
   29.2616   42.7059   78.5329 O   0  0  0  0  0  0  0  0  0  0  0  0
   24.6645   36.1269   78.4826 S   0  0  0  0  0  0  0  0  0  0  0  0
   25.1474   35.5974   76.9002 C   0  0  0  0  0  0  0  0  0  0  0  0
   29.2286   39.9523   81.6423 O   0  0  0  0  0  0  0  0  0  0  0  0
   27.4326   43.7718   80.0016 O   0  5  0  0  0  0  0  0  0  0  0  0
   25.9862   36.5402   76.5379 N   0  0  0  0  0  0  0  0  0  0  0  0
   27.6998   41.1586   79.8769 O   0  0  0  0  0  0  0  0  0  0  0  0
   29.4809   42.6087   81.0439 O   0  0  0  0  0  0  0  0  0  0  0  0
   26.2627   37.5537   77.3293 C   0  0  2  0  0  0  0  0  0  0  0  0
   25.6519   37.6147   78.5399 C   0  0  2  0  0  0  0  0  0  0  0  0
   25.7752   38.6471   79.6298 C   0  0  0  0  0  0  0  0  0  0  0  0
   27.0319   38.3702   80.4580 C   0  0  0  0  0  0  0  0  0  0  0  0
   28.1909   38.5863   79.6505 O   0  0  0  0  0  0  0  0  0  0  0  0
  1 11  1  0  0  0  0
  3 13  1  6  0  0  0
  3 17  2  0  0  0  0
  3 20  1  0  0  0  0
  3 26  1  0  0  0  0
  4 14  1  6  0  0  0
  4 18  1  0  0  0  0
  4 21  2  0  0  0  0
  4 20  1  0  0  0  0
  5 19  1  0  0  0  0
  5  7  1  0  0  0  0
  6  7  2  0  0  0  0
  6 12  1  0  0  0  0
  7  8  1  0  0  0  0
  8  9  1  0  0  0  0
  8 10  2  0  0  0  0
 10 11  1  0  0  0  0
 11 12  2  0  0  0  0
 15 23  1  0  0  0  0
 15 16  1  0  0  0  0
 16 19  1  0  0  0  0
 19 22  1  0  0  0  0
 22  2  1  6  0  0  0
 22 23  1  0  0  0  0
 23 24  1  1  0  0  0
 24 25  1  0  0  0  0
 25 26  1  0  0  0  0
M  CHG  2  13  -1  18  -1
M  END
>  <CHROM.1>
-41.90444576,21.81104996,54.37402878,73.21107376,98.45195579,66.78668908
103.18302306,-178.60449797,26.89014430,38.19682610,77.60104964,-2.18159055
0.89815648,1.23744857

>  <Name>
ligand

>  <RI>
0

>  <Rbt.Current_Directory>
/home/itssahil/PROJECTS/Mol_Feturizer/New_Systems/rnas/2HOJ

>  <Rbt.Executable>
rbdock ($Id: //depot/dev/client3/rdock/2013.1/src/exe/rbdock.cxx#4 $)

>  <Rbt.Library>
libRbt.so (2013.1, Build901 2013/11/27)

>  <Rbt.Parameter_File>
/export/apps/rDock/src/rDock_2013.1_src/data/scripts/dock_solv.prm

>  <Rbt.Receptor>
prm/blind_docking_100.prm

>  <SCORE>
-13.1585

>  <SCORE.INTER>
-12.136

>  <SCORE.INTER.CONST>
1

>  <SCORE.INTER.POLAR>
-1.27497

>  <SCORE.INTER.ROT>
8

>  <SCORE.INTER.SOLV>
19.2044

>  <SCORE.INTER.VDW>
-19.1756

>  <SCORE.INTER.norm>
-0.466768

>  <SCORE.INTRA>
-1.02254

>  <SCORE.INTRA.DIHEDRAL>
-0.0782634

>  <SCORE.INTRA.DIHEDRAL.0>
11.6398

>  <SCORE.INTRA.POLAR>
0

>  <SCORE.INTRA.POLAR.0>
0

>  <SCORE.INTRA.REPUL>
0

>  <SCORE.INTRA.REPUL.0>
0

>  <SCORE.INTRA.SOLV>
1.99475

>  <SCORE.INTRA.SOLV.lig_0>
-81.722

>  <SCORE.INTRA.VDW>
-1.98079

>  <SCORE.INTRA.VDW.0>
1.12598

>  <SCORE.INTRA.norm>
-0.0393286

>  <SCORE.RESTR>
0

>  <SCORE.RESTR.CAVITY>
0

>  <SCORE.RESTR.norm>
0

>  <SCORE.SYSTEM>
0

>  <SCORE.SYSTEM.CONST>
0

>  <SCORE.SYSTEM.DIHEDRAL>
0

>  <SCORE.SYSTEM.SOLV>
0

>  <SCORE.SYSTEM.norm>
0

>  <SCORE.heavy>
26

>  <SCORE.norm>
-0.506096

>  <RMSD>
12.124

$$$$
ligand
 OpenBabel11021811433D
libRbt.so/2013.1/901 2013/11/27
 26 27  0  0  0  0  0  0  0  0999 V2000
   24.3635   35.1641   70.6702 C   0  0  0  0  0  0  0  0  0  0  0  0
   24.1633   35.8186   77.8746 C   0  0  0  0  0  0  0  0  0  0  0  0
   28.7730   40.5106   79.5788 P   0  0  1  0  0  0  0  0  0  0  0  0
   30.1305   42.4845   80.5524 P   0  0  1  0  0  0  0  0  0  0  0  0
   24.9688   33.7549   76.1535 C   0  0  0  0  0  0  0  0  0  0  0  0
   24.5752   35.4347   74.3273 C   0  0  0  0  0  0  0  0  0  0  0  0
   24.8087   34.1265   74.7018 C   0  0  0  0  0  0  0  0  0  0  0  0
   24.8931   33.1566   73.7014 C   0  0  0  0  0  0  0  0  0  0  0  0
   25.1258   31.8283   74.0253 N   0  0  0  0  0  0  0  0  0  0  0  0
   24.7413   33.5243   72.4325 N   0  0  0  0  0  0  0  0  0  0  0  0
   24.5245   34.7852   72.1193 C   0  0  0  0  0  0  0  0  0  0  0  0
   24.4391   35.7252   73.0403 N   0  0  0  0  0  0  0  0  0  0  0  0
   28.9218   40.9896   78.1860 O   0  5  0  0  0  0  0  0  0  0  0  0
   30.5622   42.7301   79.0897 O   0  0  0  0  0  0  0  0  0  0  0  0
   28.0497   35.6160   77.4302 S   0  0  0  0  0  0  0  0  0  0  0  0
   27.2559   34.3866   76.4943 C   0  0  0  0  0  0  0  0  0  0  0  0
   30.0417   39.6038   79.9736 O   0  0  0  0  0  0  0  0  0  0  0  0
   30.0503   43.8897   81.3328 O   0  5  0  0  0  0  0  0  0  0  0  0
   25.9905   34.6068   76.7662 N   0  0  0  0  0  0  0  0  0  0  0  0
   28.6853   41.7740   80.5737 O   0  0  0  0  0  0  0  0  0  0  0  0
   31.1637   41.5687   81.2464 O   0  0  0  0  0  0  0  0  0  0  0  0
   25.6210   35.5774   77.5733 C   0  0  2  0  0  0  0  0  0  0  0  0
   26.5828   36.3530   78.1353 C   0  0  2  0  0  0  0  0  0  0  0  0
   26.4502   37.5142   79.0855 C   0  0  0  0  0  0  0  0  0  0  0  0
   27.5793   38.5155   78.8316 C   0  0  0  0  0  0  0  0  0  0  0  0
   27.4269   39.6358   79.7056 O   0  0  0  0  0  0  0  0  0  0  0  0
  1 11  1  0  0  0  0
  3 13  1  6  0  0  0
  3 17  2  0  0  0  0
  3 20  1  0  0  0  0
  3 26  1  0  0  0  0
  4 14  1  6  0  0  0
  4 18  1  0  0  0  0
  4 21  2  0  0  0  0
  4 20  1  0  0  0  0
  5 19  1  0  0  0  0
  5  7  1  0  0  0  0
  6  7  2  0  0  0  0
  6 12  1  0  0  0  0
  7  8  1  0  0  0  0
  8  9  1  0  0  0  0
  8 10  2  0  0  0  0
 10 11  1  0  0  0  0
 11 12  2  0  0  0  0
 15 23  1  0  0  0  0
 15 16  1  0  0  0  0
 16 19  1  0  0  0  0
 19 22  1  0  0  0  0
 22  2  1  1  0  0  0
 22 23  1  0  0  0  0
 23 24  1  6  0  0  0
 24 25  1  0  0  0  0
 25 26  1  0  0  0  0
M  CHG  2  13  -1  18  -1
M  END
>  <CHROM.1>
-67.76031602,-74.58935887,-52.65983726,50.68393978,31.88233826,178.19192115
170.00284279,61.63163005,27.29626383,37.75566504,77.46525059,3.13148402,1.11982165
2.27065174

>  <Name>
ligand

>  <RI>
0

>  <Rbt.Current_Directory>
/home/itssahil/PROJECTS/Mol_Feturizer/New_Systems/rnas/2HOJ

>  <Rbt.Executable>
rbdock ($Id: //depot/dev/client3/rdock/2013.1/src/exe/rbdock.cxx#4 $)

>  <Rbt.Library>
libRbt.so (2013.1, Build901 2013/11/27)

>  <Rbt.Parameter_File>
/export/apps/rDock/src/rDock_2013.1_src/data/scripts/dock_solv.prm

>  <Rbt.Receptor>
prm/blind_docking_100.prm

>  <SCORE>
-21.7089

>  <SCORE.INTER>
-16.3675

>  <SCORE.INTER.CONST>
1

>  <SCORE.INTER.POLAR>
-1.0325

>  <SCORE.INTER.ROT>
8

>  <SCORE.INTER.SOLV>
21.2532

>  <SCORE.INTER.VDW>
-23.4878

>  <SCORE.INTER.norm>
-0.629521

>  <SCORE.INTRA>
-5.34139

>  <SCORE.INTRA.DIHEDRAL>
-6.0082

>  <SCORE.INTRA.DIHEDRAL.0>
11.6398

>  <SCORE.INTRA.POLAR>
0

>  <SCORE.INTRA.POLAR.0>
0

>  <SCORE.INTRA.REPUL>
0

>  <SCORE.INTRA.REPUL.0>
0

>  <SCORE.INTRA.SOLV>
1.05197

>  <SCORE.INTRA.SOLV.lig_0>
-81.722

>  <SCORE.INTRA.VDW>
-2.86327

>  <SCORE.INTRA.VDW.0>
1.12598

>  <SCORE.INTRA.norm>
-0.205438

>  <SCORE.RESTR>
0

>  <SCORE.RESTR.CAVITY>
0

>  <SCORE.RESTR.norm>
0

>  <SCORE.SYSTEM>
0

>  <SCORE.SYSTEM.CONST>
0

>  <SCORE.SYSTEM.DIHEDRAL>
0

>  <SCORE.SYSTEM.SOLV>
0

>  <SCORE.SYSTEM.norm>
0

>  <SCORE.heavy>
26

>  <SCORE.norm>
-0.834959

>  <RMSD>
12.212

$$$$
ligand
 OpenBabel11021811433D
libRbt.so/2013.1/901 2013/11/27
 26 27  0  0  0  0  0  0  0  0999 V2000
   26.1447   43.6142   80.5421 C   0  0  0  0  0  0  0  0  0  0  0  0
   27.0527   38.2513   75.7893 C   0  0  0  0  0  0  0  0  0  0  0  0
   26.0818   34.5474   72.4814 P   0  0  1  0  0  0  0  0  0  0  0  0
   24.0006   33.4631   71.3953 P   0  0  1  0  0  0  0  0  0  0  0  0
   28.0636   38.7158   78.3645 C   0  0  0  0  0  0  0  0  0  0  0  0
   26.6184   40.0197   79.9529 C   0  0  0  0  0  0  0  0  0  0  0  0
   27.5565   40.0131   78.9399 C   0  0  0  0  0  0  0  0  0  0  0  0
   28.0237   41.2388   78.4623 C   0  0  0  0  0  0  0  0  0  0  0  0
   28.9656   41.2863   77.4455 N   0  0  0  0  0  0  0  0  0  0  0  0
   27.5476   42.3613   78.9930 N   0  0  0  0  0  0  0  0  0  0  0  0
   26.6561   42.3214   79.9619 C   0  0  0  0  0  0  0  0  0  0  0  0
   26.1945   41.1803   80.4350 N   0  0  0  0  0  0  0  0  0  0  0  0
   26.6262   33.3058   73.0763 O   0  5  0  0  0  0  0  0  0  0  0  0
   24.2278   32.4104   72.5028 O   0  0  0  0  0  0  0  0  0  0  0  0
   25.1815   36.2181   78.5654 S   0  0  0  0  0  0  0  0  0  0  0  0
   26.4424   37.1923   79.2571 C   0  0  0  0  0  0  0  0  0  0  0  0
   27.2747   35.6027   72.2553 O   0  0  0  0  0  0  0  0  0  0  0  0
   22.9181   34.5442   71.8949 O   0  5  0  0  0  0  0  0  0  0  0  0
   26.9455   37.7845   78.1988 N   0  0  0  0  0  0  0  0  0  0  0  0
   25.3912   34.2062   71.0672 O   0  0  0  0  0  0  0  0  0  0  0  0
   23.4784   32.7634   70.1203 O   0  0  0  0  0  0  0  0  0  0  0  0
   26.4649   37.5622   76.9949 C   0  0  2  0  0  0  0  0  0  0  0  0
   25.4317   36.6921   76.8611 C   0  0  2  0  0  0  0  0  0  0  0  0
   24.6979   36.2517   75.6216 C   0  0  0  0  0  0  0  0  0  0  0  0
   25.6781   35.5794   74.6575 C   0  0  0  0  0  0  0  0  0  0  0  0
   24.9836   35.1822   73.4735 O   0  0  0  0  0  0  0  0  0  0  0  0
  1 11  1  0  0  0  0
  3 13  1  1  0  0  0
  3 17  2  0  0  0  0
  3 20  1  0  0  0  0
  3 26  1  0  0  0  0
  4 14  1  1  0  0  0
  4 18  1  0  0  0  0
  4 21  2  0  0  0  0
  4 20  1  0  0  0  0
  5 19  1  0  0  0  0
  5  7  1  0  0  0  0
  6  7  2  0  0  0  0
  6 12  1  0  0  0  0
  7  8  1  0  0  0  0
  8  9  1  0  0  0  0
  8 10  2  0  0  0  0
 10 11  1  0  0  0  0
 11 12  2  0  0  0  0
 15 23  1  0  0  0  0
 15 16  1  0  0  0  0
 16 19  1  0  0  0  0
 19 22  1  0  0  0  0
 22  2  1  6  0  0  0
 22 23  1  0  0  0  0
 23 24  1  1  0  0  0
 24 25  1  0  0  0  0
 25 26  1  0  0  0  0
M  CHG  2  13  -1  18  -1
M  END
>  <CHROM.1>
74.08311223,-75.11753480,41.74650686,-44.41120695,-119.79678440,-179.06800275
177.45517354,65.46190671,25.91990239,36.91125243,75.61623520,-1.19437566
-0.93768453,-2.02006344

>  <Name>
ligand

>  <RI>
0

>  <Rbt.Current_Directory>
/home/itssahil/PROJECTS/Mol_Feturizer/New_Systems/rnas/2HOJ

>  <Rbt.Executable>
rbdock ($Id: //depot/dev/client3/rdock/2013.1/src/exe/rbdock.cxx#4 $)

>  <Rbt.Library>
libRbt.so (2013.1, Build901 2013/11/27)

>  <Rbt.Parameter_File>
/export/apps/rDock/src/rDock_2013.1_src/data/scripts/dock_solv.prm

>  <Rbt.Receptor>
prm/blind_docking_100.prm

>  <SCORE>
-16.6513

>  <SCORE.INTER>
-11.217

>  <SCORE.INTER.CONST>
1

>  <SCORE.INTER.POLAR>
0

>  <SCORE.INTER.ROT>
8

>  <SCORE.INTER.SOLV>
17.9949

>  <SCORE.INTER.VDW>
-22.4096

>  <SCORE.INTER.norm>
-0.431422

>  <SCORE.INTRA>
-5.43428

>  <SCORE.INTRA.DIHEDRAL>
-6.30806

>  <SCORE.INTRA.DIHEDRAL.0>
11.6398

>  <SCORE.INTRA.POLAR>
0

>  <SCORE.INTRA.POLAR.0>
0

>  <SCORE.INTRA.REPUL>
0

>  <SCORE.INTRA.REPUL.0>
0

>  <SCORE.INTRA.SOLV>
0.708767

>  <SCORE.INTRA.SOLV.lig_0>
-81.722

>  <SCORE.INTRA.VDW>
-2.63463

>  <SCORE.INTRA.VDW.0>
1.12598

>  <SCORE.INTRA.norm>
-0.209011

>  <SCORE.RESTR>
0

>  <SCORE.RESTR.CAVITY>
0

>  <SCORE.RESTR.norm>
0

>  <SCORE.SYSTEM>
0

>  <SCORE.SYSTEM.CONST>
0

>  <SCORE.SYSTEM.DIHEDRAL>
0

>  <SCORE.SYSTEM.SOLV>
0

>  <SCORE.SYSTEM.norm>
0

>  <SCORE.heavy>
26

>  <SCORE.norm>
-0.640433

>  <RMSD>
12.277

$$$$
ligand
 OpenBabel11021811433D
libRbt.so/2013.1/901 2013/11/27
 26 27  0  0  0  0  0  0  0  0999 V2000
   23.8768   34.9549   71.1576 C   0  0  0  0  0  0  0  0  0  0  0  0
   27.6331   35.0239   76.1558 C   0  0  0  0  0  0  0  0  0  0  0  0
   29.3588   40.3706   80.0843 P   0  0  1  0  0  0  0  0  0  0  0  0
   27.6525   42.0260   81.1017 P   0  0  1  0  0  0  0  0  0  0  0  0
   25.0414   34.0770   76.6614 C   0  0  0  0  0  0  0  0  0  0  0  0
   24.3592   35.5564   74.7490 C   0  0  0  0  0  0  0  0  0  0  0  0
   24.7334   34.3079   75.2044 C   0  0  0  0  0  0  0  0  0  0  0  0
   24.8195   33.2648   74.2807 C   0  0  0  0  0  0  0  0  0  0  0  0
   25.1905   31.9919   74.6876 N   0  0  0  0  0  0  0  0  0  0  0  0
   24.5347   33.5083   73.0048 N   0  0  0  0  0  0  0  0  0  0  0  0
   24.1862   34.7165   72.6126 C   0  0  0  0  0  0  0  0  0  0  0  0
   24.0952   35.7229   73.4598 N   0  0  0  0  0  0  0  0  0  0  0  0
   29.9239   41.5882   79.4600 O   0  5  0  0  0  0  0  0  0  0  0  0
   28.0333   43.1470   80.1094 O   0  0  0  0  0  0  0  0  0  0  0  0
   25.5730   37.3703   78.5206 S   0  0  0  0  0  0  0  0  0  0  0  0
   24.6322   35.9882   78.0491 C   0  0  0  0  0  0  0  0  0  0  0  0
   30.1233   40.0718   81.4677 O   0  0  0  0  0  0  0  0  0  0  0  0
   26.1341   42.2350   81.5925 O   0  5  0  0  0  0  0  0  0  0  0  0
   25.4691   35.3356   77.2760 N   0  0  0  0  0  0  0  0  0  0  0  0
   27.7908   40.5955   80.3748 O   0  0  0  0  0  0  0  0  0  0  0  0
   28.5992   42.0760   82.3220 O   0  0  0  0  0  0  0  0  0  0  0  0
   26.6831   35.7858   77.0450 C   0  0  2  0  0  0  0  0  0  0  0  0
   27.0593   36.9566   77.6197 C   0  0  2  0  0  0  0  0  0  0  0  0
   28.3669   37.6984   77.5269 C   0  0  0  0  0  0  0  0  0  0  0  0
   28.3044   38.9574   78.3947 C   0  0  0  0  0  0  0  0  0  0  0  0
   29.5439   39.1198   79.0870 O   0  0  0  0  0  0  0  0  0  0  0  0
  1 11  1  0  0  0  0
  3 13  1  6  0  0  0
  3 17  2  0  0  0  0
  3 20  1  0  0  0  0
  3 26  1  0  0  0  0
  4 14  1  6  0  0  0
  4 18  1  0  0  0  0
  4 21  2  0  0  0  0
  4 20  1  0  0  0  0
  5 19  1  0  0  0  0
  5  7  1  0  0  0  0
  6  7  2  0  0  0  0
  6 12  1  0  0  0  0
  7  8  1  0  0  0  0
  8  9  1  0  0  0  0
  8 10  2  0  0  0  0
 10 11  1  0  0  0  0
 11 12  2  0  0  0  0
 15 23  1  0  0  0  0
 15 16  1  0  0  0  0
 16 19  1  0  0  0  0
 19 22  1  0  0  0  0
 22  2  1  6  0  0  0
 22 23  1  0  0  0  0
 23 24  1  1  0  0  0
 24 25  1  0  0  0  0
 25 26  1  0  0  0  0
M  CHG  2  13  -1  18  -1
M  END
>  <CHROM.1>
-48.03159163,104.06421834,-25.44394450,67.11282978,1.39155271,138.71367424
-174.54798469,-97.88990911,26.82304166,37.89798955,77.84196587,1.99068994
0.47606450,-2.59874592

>  <Name>
ligand

>  <RI>
0

>  <Rbt.Current_Directory>
/home/itssahil/PROJECTS/Mol_Feturizer/New_Systems/rnas/2HOJ

>  <Rbt.Executable>
rbdock ($Id: //depot/dev/client3/rdock/2013.1/src/exe/rbdock.cxx#4 $)

>  <Rbt.Library>
libRbt.so (2013.1, Build901 2013/11/27)

>  <Rbt.Parameter_File>
/export/apps/rDock/src/rDock_2013.1_src/data/scripts/dock_solv.prm

>  <Rbt.Receptor>
prm/blind_docking_100.prm

>  <SCORE>
-15.6534

>  <SCORE.INTER>
-14.6622

>  <SCORE.INTER.CONST>
1

>  <SCORE.INTER.POLAR>
-1.2848

>  <SCORE.INTER.ROT>
8

>  <SCORE.INTER.SOLV>
14.1559

>  <SCORE.INTER.VDW>
-19.1441

>  <SCORE.INTER.norm>
-0.563931

>  <SCORE.INTRA>
-0.9912

>  <SCORE.INTRA.DIHEDRAL>
-0.632592

>  <SCORE.INTRA.DIHEDRAL.0>
11.6398

>  <SCORE.INTRA.POLAR>
0

>  <SCORE.INTRA.POLAR.0>
0

>  <SCORE.INTRA.REPUL>
0

>  <SCORE.INTRA.REPUL.0>
0

>  <SCORE.INTRA.SOLV>
1.53511

>  <SCORE.INTRA.SOLV.lig_0>
-81.722

>  <SCORE.INTRA.VDW>
-1.44246

>  <SCORE.INTRA.VDW.0>
1.12598

>  <SCORE.INTRA.norm>
-0.0381231

>  <SCORE.RESTR>
0

>  <SCORE.RESTR.CAVITY>
0

>  <SCORE.RESTR.norm>
0

>  <SCORE.SYSTEM>
0

>  <SCORE.SYSTEM.CONST>
0

>  <SCORE.SYSTEM.DIHEDRAL>
0

>  <SCORE.SYSTEM.SOLV>
0

>  <SCORE.SYSTEM.norm>
0

>  <SCORE.heavy>
26

>  <SCORE.norm>
-0.602054

>  <RMSD>
12.412

$$$$
ligand
 OpenBabel11021811433D
libRbt.so/2013.1/901 2013/11/27
 26 27  0  0  0  0  0  0  0  0999 V2000
   23.9756   33.5579   70.7710 C   0  0  0  0  0  0  0  0  0  0  0  0
   28.0359   35.5978   76.9496 C   0  0  0  0  0  0  0  0  0  0  0  0
   27.5226   39.4263   81.0518 P   0  0  1  0  0  0  0  0  0  0  0  0
   28.7022   41.2677   79.6717 P   0  0  1  0  0  0  0  0  0  0  0  0
   26.4408   33.5409   75.9033 C   0  0  0  0  0  0  0  0  0  0  0  0
   25.8522   34.6573   73.7310 C   0  0  0  0  0  0  0  0  0  0  0  0
   25.7878   33.5440   74.5451 C   0  0  0  0  0  0  0  0  0  0  0  0
   25.1026   32.4211   74.0779 C   0  0  0  0  0  0  0  0  0  0  0  0
   25.0088   31.2779   74.8575 N   0  0  0  0  0  0  0  0  0  0  0  0
   24.5358   32.4656   72.8759 N   0  0  0  0  0  0  0  0  0  0  0  0
   24.6258   33.5474   72.1298 C   0  0  0  0  0  0  0  0  0  0  0  0
   25.2654   34.6245   72.5419 N   0  0  0  0  0  0  0  0  0  0  0  0
   28.4243   39.6522   82.2041 O   0  5  0  0  0  0  0  0  0  0  0  0
   27.4080   42.1109   79.6830 O   0  0  0  0  0  0  0  0  0  0  0  0
   24.2749   35.8795   78.0069 S   0  0  0  0  0  0  0  0  0  0  0  0
   24.5302   34.4898   76.9964 C   0  0  0  0  0  0  0  0  0  0  0  0
   26.2658   40.4257   81.1491 O   0  0  0  0  0  0  0  0  0  0  0  0
   29.5829   41.6165   80.9728 O   0  5  0  0  0  0  0  0  0  0  0  0
   25.8173   34.5622   76.7477 N   0  0  0  0  0  0  0  0  0  0  0  0
   28.3236   39.7024   79.6822 O   0  0  0  0  0  0  0  0  0  0  0  0
   29.5154   41.5912   78.3981 O   0  0  0  0  0  0  0  0  0  0  0  0
   26.5584   35.5292   77.2433 C   0  0  2  0  0  0  0  0  0  0  0  0
   25.9614   36.4691   78.0196 C   0  0  2  0  0  0  0  0  0  0  0  0
   26.5558   37.6719   78.7043 C   0  0  0  0  0  0  0  0  0  0  0  0
   25.9508   37.8165   80.1026 C   0  0  0  0  0  0  0  0  0  0  0  0
   27.0005   37.9031   81.0683 O   0  0  0  0  0  0  0  0  0  0  0  0
  1 11  1  0  0  0  0
  3 13  1  1  0  0  0
  3 17  2  0  0  0  0
  3 20  1  0  0  0  0
  3 26  1  0  0  0  0
  4 14  1  1  0  0  0
  4 18  1  0  0  0  0
  4 21  2  0  0  0  0
  4 20  1  0  0  0  0
  5 19  1  0  0  0  0
  5  7  1  0  0  0  0
  6  7  2  0  0  0  0
  6 12  1  0  0  0  0
  7  8  1  0  0  0  0
  8  9  1  0  0  0  0
  8 10  2  0  0  0  0
 10 11  1  0  0  0  0
 11 12  2  0  0  0  0
 15 23  1  0  0  0  0
 15 16  1  0  0  0  0
 16 19  1  0  0  0  0
 19 22  1  0  0  0  0
 22  2  1  6  0  0  0
 22 23  1  0  0  0  0
 23 24  1  1  0  0  0
 24 25  1  0  0  0  0
 25 26  1  0  0  0  0
M  CHG  2  13  -1  18  -1
M  END
>  <CHROM.1>
-64.92078339,59.55448515,62.50548245,-61.85151420,40.68165355,126.94491623
80.81095506,169.12018273,26.55248681,37.05638746,77.67832328,-2.23161288
1.05252776,1.34838719

>  <Name>
ligand

>  <RI>
0

>  <Rbt.Current_Directory>
/home/itssahil/PROJECTS/Mol_Feturizer/New_Systems/rnas/2HOJ

>  <Rbt.Executable>
rbdock ($Id: //depot/dev/client3/rdock/2013.1/src/exe/rbdock.cxx#4 $)

>  <Rbt.Library>
libRbt.so (2013.1, Build901 2013/11/27)

>  <Rbt.Parameter_File>
/export/apps/rDock/src/rDock_2013.1_src/data/scripts/dock_solv.prm

>  <Rbt.Receptor>
prm/blind_docking_100.prm

>  <SCORE>
-17.1178

>  <SCORE.INTER>
-16.3822

>  <SCORE.INTER.CONST>
1

>  <SCORE.INTER.POLAR>
-1.29394

>  <SCORE.INTER.ROT>
8

>  <SCORE.INTER.SOLV>
16.9376

>  <SCORE.INTER.VDW>
-21.1875

>  <SCORE.INTER.norm>
-0.630085

>  <SCORE.INTRA>
-0.754029

>  <SCORE.INTRA.DIHEDRAL>
0.898632

>  <SCORE.INTRA.DIHEDRAL.0>
11.6398

>  <SCORE.INTRA.POLAR>
0

>  <SCORE.INTRA.POLAR.0>
0

>  <SCORE.INTRA.REPUL>
0

>  <SCORE.INTRA.REPUL.0>
0

>  <SCORE.INTRA.SOLV>
2.12059

>  <SCORE.INTRA.SOLV.lig_0>
-81.722

>  <SCORE.INTRA.VDW>
-2.26364

>  <SCORE.INTRA.VDW.0>
1.12598

>  <SCORE.INTRA.norm>
-0.0290011

>  <SCORE.RESTR>
0.0184385

>  <SCORE.RESTR.CAVITY>
0.0184385

>  <SCORE.RESTR.norm>
0.000709174

>  <SCORE.SYSTEM>
0

>  <SCORE.SYSTEM.CONST>
0

>  <SCORE.SYSTEM.DIHEDRAL>
0

>  <SCORE.SYSTEM.SOLV>
0

>  <SCORE.SYSTEM.norm>
0

>  <SCORE.heavy>
26

>  <SCORE.norm>
-0.658377

>  <RMSD>
12.508

$$$$
ligand
 OpenBabel11021811433D
libRbt.so/2013.1/901 2013/11/27
 26 27  0  0  0  0  0  0  0  0999 V2000
   28.9179   33.2104   71.5949 C   0  0  0  0  0  0  0  0  0  0  0  0
   24.4495   35.4720   77.4236 C   0  0  0  0  0  0  0  0  0  0  0  0
   28.3106   40.3686   79.8144 P   0  0  1  0  0  0  0  0  0  0  0  0
   28.2184   42.3579   81.4640 P   0  0  1  0  0  0  0  0  0  0  0  0
   24.9276   35.8463   74.6848 C   0  0  0  0  0  0  0  0  0  0  0  0
   26.8078   35.8586   73.0185 C   0  0  0  0  0  0  0  0  0  0  0  0
   25.9833   35.1473   73.8675 C   0  0  0  0  0  0  0  0  0  0  0  0
   26.1528   33.7642   73.9498 C   0  0  0  0  0  0  0  0  0  0  0  0
   25.3498   33.0043   74.7873 N   0  0  0  0  0  0  0  0  0  0  0  0
   27.0923   33.1845   73.2085 N   0  0  0  0  0  0  0  0  0  0  0  0
   27.8604   33.9023   72.4149 C   0  0  0  0  0  0  0  0  0  0  0  0
   27.7258   35.2102   72.3141 N   0  0  0  0  0  0  0  0  0  0  0  0
   27.6992   41.2690   78.8108 O   0  5  0  0  0  0  0  0  0  0  0  0
   29.7366   42.5382   81.2431 O   0  0  0  0  0  0  0  0  0  0  0  0
   26.8559   38.4714   76.6787 S   0  0  0  0  0  0  0  0  0  0  0  0
   26.3499   37.7046   75.2045 C   0  0  0  0  0  0  0  0  0  0  0  0
   29.9134   40.4688   79.7203 O   0  0  0  0  0  0  0  0  0  0  0  0
   27.4097   43.2387   80.3867 O   0  5  0  0  0  0  0  0  0  0  0  0
   25.5696   36.7455   75.6462 N   0  0  0  0  0  0  0  0  0  0  0  0
   27.8308   40.8046   81.2886 O   0  0  0  0  0  0  0  0  0  0  0  0
   27.8478   42.8222   82.8906 O   0  0  0  0  0  0  0  0  0  0  0  0
   25.3495   36.5775   76.9320 C   0  0  2  0  0  0  0  0  0  0  0  0
   25.9574   37.4178   77.8077 C   0  0  2  0  0  0  0  0  0  0  0  0
   25.8901   37.4544   79.3120 C   0  0  0  0  0  0  0  0  0  0  0  0
   26.4515   38.7853   79.8178 C   0  0  0  0  0  0  0  0  0  0  0  0
   27.8492   38.8526   79.5284 O   0  0  0  0  0  0  0  0  0  0  0  0
  1 11  1  0  0  0  0
  3 13  1  6  0  0  0
  3 17  2  0  0  0  0
  3 20  1  0  0  0  0
  3 26  1  0  0  0  0
  4 14  1  6  0  0  0
  4 18  1  0  0  0  0
  4 21  2  0  0  0  0
  4 20  1  0  0  0  0
  5 19  1  0  0  0  0
  5  7  1  0  0  0  0
  6  7  2  0  0  0  0
  6 12  1  0  0  0  0
  7  8  1  0  0  0  0
  8  9  1  0  0  0  0
  8 10  2  0  0  0  0
 10 11  1  0  0  0  0
 11 12  2  0  0  0  0
 15 23  1  0  0  0  0
 15 16  1  0  0  0  0
 16 19  1  0  0  0  0
 19 22  1  0  0  0  0
 22  2  1  1  0  0  0
 22 23  1  0  0  0  0
 23 24  1  6  0  0  0
 24 25  1  0  0  0  0
 25 26  1  0  0  0  0
M  CHG  2  13  -1  18  -1
M  END
>  <CHROM.1>
-55.63385135,59.07133417,-64.72952703,-57.22758811,14.20247234,-66.36301561
169.05828397,-68.25107652,27.17751975,38.21211874,77.52379122,-1.74599742
0.54386193,0.88244061

>  <Name>
ligand

>  <RI>
0

>  <Rbt.Current_Directory>
/home/itssahil/PROJECTS/Mol_Feturizer/New_Systems/rnas/2HOJ

>  <Rbt.Executable>
rbdock ($Id: //depot/dev/client3/rdock/2013.1/src/exe/rbdock.cxx#4 $)

>  <Rbt.Library>
libRbt.so (2013.1, Build901 2013/11/27)

>  <Rbt.Parameter_File>
/export/apps/rDock/src/rDock_2013.1_src/data/scripts/dock_solv.prm

>  <Rbt.Receptor>
prm/blind_docking_100.prm

>  <SCORE>
-17.5619

>  <SCORE.INTER>
-12.7665

>  <SCORE.INTER.CONST>
1

>  <SCORE.INTER.POLAR>
0

>  <SCORE.INTER.ROT>
8

>  <SCORE.INTER.SOLV>
11.1225

>  <SCORE.INTER.VDW>
-21.1519

>  <SCORE.INTER.norm>
-0.49102

>  <SCORE.INTRA>
-4.79536

>  <SCORE.INTRA.DIHEDRAL>
-6.11015

>  <SCORE.INTRA.DIHEDRAL.0>
11.6398

>  <SCORE.INTRA.POLAR>
0

>  <SCORE.INTRA.POLAR.0>
0

>  <SCORE.INTRA.REPUL>
0

>  <SCORE.INTRA.REPUL.0>
0

>  <SCORE.INTRA.SOLV>
2.40809

>  <SCORE.INTRA.SOLV.lig_0>
-81.722

>  <SCORE.INTRA.VDW>
-2.94433

>  <SCORE.INTRA.VDW.0>
1.12598

>  <SCORE.INTRA.norm>
-0.184437

>  <SCORE.RESTR>
0

>  <SCORE.RESTR.CAVITY>
0

>  <SCORE.RESTR.norm>
0

>  <SCORE.SYSTEM>
0

>  <SCORE.SYSTEM.CONST>
0

>  <SCORE.SYSTEM.DIHEDRAL>
0

>  <SCORE.SYSTEM.SOLV>
0

>  <SCORE.SYSTEM.norm>
0

>  <SCORE.heavy>
26

>  <SCORE.norm>
-0.675457

>  <RMSD>
12.553

$$$$
ligand
 OpenBabel11021811433D
libRbt.so/2013.1/901 2013/11/27
 26 27  0  0  0  0  0  0  0  0999 V2000
   25.9880   30.7700   74.7819 C   0  0  0  0  0  0  0  0  0  0  0  0
   26.4169   36.7082   78.5280 C   0  0  0  0  0  0  0  0  0  0  0  0
   28.6508   40.8582   80.8356 P   0  0  1  0  0  0  0  0  0  0  0  0
   29.4050   43.2309   80.1366 P   0  0  1  0  0  0  0  0  0  0  0  0
   24.7008   36.0746   76.4012 C   0  0  0  0  0  0  0  0  0  0  0  0
   25.7431   33.8250   76.8066 C   0  0  0  0  0  0  0  0  0  0  0  0
   25.0409   34.6708   75.9713 C   0  0  0  0  0  0  0  0  0  0  0  0
   24.6536   34.1925   74.7183 C   0  0  0  0  0  0  0  0  0  0  0  0
   23.9469   35.0028   73.8422 N   0  0  0  0  0  0  0  0  0  0  0  0
   24.9774   32.9495   74.3745 N   0  0  0  0  0  0  0  0  0  0  0  0
   25.6445   32.1745   75.2048 C   0  0  0  0  0  0  0  0  0  0  0  0
   26.0252   32.5961   76.3949 N   0  0  0  0  0  0  0  0  0  0  0  0
   28.7956   39.7685   81.8271 O   0  5  0  0  0  0  0  0  0  0  0  0
   29.9980   42.6548   78.8318 O   0  0  0  0  0  0  0  0  0  0  0  0
   27.4748   38.3811   75.1480 S   0  0  0  0  0  0  0  0  0  0  0  0
   26.0398   37.4243   74.9413 C   0  0  0  0  0  0  0  0  0  0  0  0
   27.1017   41.2758   80.7186 O   0  0  0  0  0  0  0  0  0  0  0  0
   27.8591   43.6125   79.9023 O   0  5  0  0  0  0  0  0  0  0  0  0
   25.8456   36.9532   76.1513 N   0  0  0  0  0  0  0  0  0  0  0  0
   29.5161   42.1316   81.3083 O   0  0  0  0  0  0  0  0  0  0  0  0
   30.1917   44.4972   80.5437 O   0  0  0  0  0  0  0  0  0  0  0  0
   26.6542   37.2562   77.1434 C   0  0  2  0  0  0  0  0  0  0  0  0
   27.7124   38.0679   76.8908 C   0  0  2  0  0  0  0  0  0  0  0  0
   28.7858   38.5685   77.8215 C   0  0  0  0  0  0  0  0  0  0  0  0
   28.1664   39.5050   78.8614 C   0  0  0  0  0  0  0  0  0  0  0  0
   29.1812   40.3540   79.4012 O   0  0  0  0  0  0  0  0  0  0  0  0
  1 11  1  0  0  0  0
  3 13  1  1  0  0  0
  3 17  2  0  0  0  0
  3 20  1  0  0  0  0
  3 26  1  0  0  0  0
  4 14  1  6  0  0  0
  4 18  1  0  0  0  0
  4 21  2  0  0  0  0
  4 20  1  0  0  0  0
  5 19  1  0  0  0  0
  5  7  1  0  0  0  0
  6  7  2  0  0  0  0
  6 12  1  0  0  0  0
  7  8  1  0  0  0  0
  8  9  1  0  0  0  0
  8 10  2  0  0  0  0
 10 11  1  0  0  0  0
 11 12  2  0  0  0  0
 15 23  1  0  0  0  0
 15 16  1  0  0  0  0
 16 19  1  0  0  0  0
 19 22  1  0  0  0  0
 22  2  1  6  0  0  0
 22 23  1  0  0  0  0
 23 24  1  1  0  0  0
 24 25  1  0  0  0  0
 25 26  1  0  0  0  0
M  CHG  2  13  -1  18  -1
M  END
>  <CHROM.1>
175.77220263,81.26059220,83.04881377,-61.33396446,113.39518310,-158.27990343
-157.50290520,76.46764525,27.36621905,38.39565116,77.86700338,-2.90247027
-1.20447936,-0.77752495

>  <Name>
ligand

>  <RI>
0

>  <Rbt.Current_Directory>
/home/itssahil/PROJECTS/Mol_Feturizer/New_Systems/rnas/2HOJ

>  <Rbt.Executable>
rbdock ($Id: //depot/dev/client3/rdock/2013.1/src/exe/rbdock.cxx#4 $)

>  <Rbt.Library>
libRbt.so (2013.1, Build901 2013/11/27)

>  <Rbt.Parameter_File>
/export/apps/rDock/src/rDock_2013.1_src/data/scripts/dock_solv.prm

>  <Rbt.Receptor>
prm/blind_docking_100.prm

>  <SCORE>
-20.4282

>  <SCORE.INTER>
-16.4128

>  <SCORE.INTER.CONST>
1

>  <SCORE.INTER.POLAR>
-2.24469

>  <SCORE.INTER.ROT>
8

>  <SCORE.INTER.SOLV>
24.622

>  <SCORE.INTER.VDW>
-20.6002

>  <SCORE.INTER.norm>
-0.631261

>  <SCORE.INTRA>
-4.01539

>  <SCORE.INTRA.DIHEDRAL>
-2.78925

>  <SCORE.INTRA.DIHEDRAL.0>
11.6398

>  <SCORE.INTRA.POLAR>
0

>  <SCORE.INTRA.POLAR.0>
0

>  <SCORE.INTRA.REPUL>
0

>  <SCORE.INTRA.REPUL.0>
0

>  <SCORE.INTRA.SOLV>
1.09957

>  <SCORE.INTRA.SOLV.lig_0>
-81.722

>  <SCORE.INTRA.VDW>
-3.17056

>  <SCORE.INTRA.VDW.0>
1.12598

>  <SCORE.INTRA.norm>
-0.154438

>  <SCORE.RESTR>
0

>  <SCORE.RESTR.CAVITY>
0

>  <SCORE.RESTR.norm>
0

>  <SCORE.SYSTEM>
0

>  <SCORE.SYSTEM.CONST>
0

>  <SCORE.SYSTEM.DIHEDRAL>
0

>  <SCORE.SYSTEM.SOLV>
0

>  <SCORE.SYSTEM.norm>
0

>  <SCORE.heavy>
26

>  <SCORE.norm>
-0.7857

>  <RMSD>
12.682

$$$$
ligand
 OpenBabel11021811433D
libRbt.so/2013.1/901 2013/11/27
 26 27  0  0  0  0  0  0  0  0999 V2000
   26.2269   43.9783   81.3250 C   0  0  0  0  0  0  0  0  0  0  0  0
   26.8205   37.8214   78.7566 C   0  0  0  0  0  0  0  0  0  0  0  0
   25.8553   35.0549   73.6433 P   0  0  1  0  0  0  0  0  0  0  0  0
   25.0986   34.5112   71.2311 P   0  0  1  0  0  0  0  0  0  0  0  0
   29.0210   39.5134   79.1627 C   0  0  0  0  0  0  0  0  0  0  0  0
   27.7469   41.6640   78.9113 C   0  0  0  0  0  0  0  0  0  0  0  0
   28.2817   40.6947   79.7364 C   0  0  0  0  0  0  0  0  0  0  0  0
   28.1200   40.8365   81.1157 C   0  0  0  0  0  0  0  0  0  0  0  0
   28.6389   39.8906   81.9871 N   0  0  0  0  0  0  0  0  0  0  0  0
   27.4657   41.8959   81.5825 N   0  0  0  0  0  0  0  0  0  0  0  0
   26.9671   42.7948   80.7587 C   0  0  0  0  0  0  0  0  0  0  0  0
   27.1028   42.6901   79.4512 N   0  0  0  0  0  0  0  0  0  0  0  0
   27.1105   34.2743   73.5606 O   0  5  0  0  0  0  0  0  0  0  0  0
   26.6017   34.2127   71.0364 O   0  0  0  0  0  0  0  0  0  0  0  0
   28.2944   39.2541   75.4224 S   0  0  0  0  0  0  0  0  0  0  0  0
   29.1871   39.8377   76.7935 C   0  0  0  0  0  0  0  0  0  0  0  0
   26.1021   36.5327   73.0577 O   0  0  0  0  0  0  0  0  0  0  0  0
   24.2284   33.5004   70.3304 O   0  5  0  0  0  0  0  0  0  0  0  0
   28.5598   39.2655   77.7949 N   0  0  0  0  0  0  0  0  0  0  0  0
   24.7096   34.3204   72.7822 O   0  0  0  0  0  0  0  0  0  0  0  0
   24.8037   35.9663   70.8025 O   0  0  0  0  0  0  0  0  0  0  0  0
   27.5297   38.4724   77.5959 C   0  0  2  0  0  0  0  0  0  0  0  0
   27.1141   38.2589   76.3215 C   0  0  2  0  0  0  0  0  0  0  0  0
   25.9771   37.4149   75.8080 C   0  0  0  0  0  0  0  0  0  0  0  0
   26.3713   35.9371   75.8611 C   0  0  0  0  0  0  0  0  0  0  0  0
   25.3862   35.1573   75.1803 O   0  0  0  0  0  0  0  0  0  0  0  0
  1 11  1  0  0  0  0
  3 13  1  6  0  0  0
  3 17  2  0  0  0  0
  3 20  1  0  0  0  0
  3 26  1  0  0  0  0
  4 14  1  6  0  0  0
  4 18  1  0  0  0  0
  4 21  2  0  0  0  0
  4 20  1  0  0  0  0
  5 19  1  0  0  0  0
  5  7  1  0  0  0  0
  6  7  2  0  0  0  0
  6 12  1  0  0  0  0
  7  8  1  0  0  0  0
  8  9  1  0  0  0  0
  8 10  2  0  0  0  0
 10 11  1  0  0  0  0
 11 12  2  0  0  0  0
 15 23  1  0  0  0  0
 15 16  1  0  0  0  0
 16 19  1  0  0  0  0
 19 22  1  0  0  0  0
 22  2  1  1  0  0  0
 22 23  1  0  0  0  0
 23 24  1  6  0  0  0
 24 25  1  0  0  0  0
 25 26  1  0  0  0  0
M  CHG  2  13  -1  18  -1
M  END
>  <CHROM.1>
-71.10566034,91.40561718,-25.17549293,45.44620842,103.66504148,-170.80122528
90.45975852,66.04016443,26.76396963,37.81588295,75.96305139,0.77636213,-1.26816923
0.11121370

>  <Name>
ligand

>  <RI>
0

>  <Rbt.Current_Directory>
/home/itssahil/PROJECTS/Mol_Feturizer/New_Systems/rnas/2HOJ

>  <Rbt.Executable>
rbdock ($Id: //depot/dev/client3/rdock/2013.1/src/exe/rbdock.cxx#4 $)

>  <Rbt.Library>
libRbt.so (2013.1, Build901 2013/11/27)

>  <Rbt.Parameter_File>
/export/apps/rDock/src/rDock_2013.1_src/data/scripts/dock_solv.prm

>  <Rbt.Receptor>
prm/blind_docking_100.prm

>  <SCORE>
-15.1842

>  <SCORE.INTER>
-12.6538

>  <SCORE.INTER.CONST>
1

>  <SCORE.INTER.POLAR>
-1.00111

>  <SCORE.INTER.ROT>
8

>  <SCORE.INTER.SOLV>
18.3522

>  <SCORE.INTER.VDW>
-20.1495

>  <SCORE.INTER.norm>
-0.486683

>  <SCORE.INTRA>
-2.53046

>  <SCORE.INTRA.DIHEDRAL>
-2.39401

>  <SCORE.INTRA.DIHEDRAL.0>
11.6398

>  <SCORE.INTRA.POLAR>
0

>  <SCORE.INTRA.POLAR.0>
0

>  <SCORE.INTRA.REPUL>
0

>  <SCORE.INTRA.REPUL.0>
0

>  <SCORE.INTRA.SOLV>
2.46537

>  <SCORE.INTRA.SOLV.lig_0>
-81.722

>  <SCORE.INTRA.VDW>
-2.56614

>  <SCORE.INTRA.VDW.0>
1.12598

>  <SCORE.INTRA.norm>
-0.0973252

>  <SCORE.RESTR>
0

>  <SCORE.RESTR.CAVITY>
0

>  <SCORE.RESTR.norm>
0

>  <SCORE.SYSTEM>
0

>  <SCORE.SYSTEM.CONST>
0

>  <SCORE.SYSTEM.DIHEDRAL>
0

>  <SCORE.SYSTEM.SOLV>
0

>  <SCORE.SYSTEM.norm>
0

>  <SCORE.heavy>
26

>  <SCORE.norm>
-0.584008

>  <RMSD>
12.774

$$$$
ligand
 OpenBabel11021811433D
libRbt.so/2013.1/901 2013/11/27
 26 27  0  0  0  0  0  0  0  0999 V2000
   27.0220   44.2438   80.7763 C   0  0  0  0  0  0  0  0  0  0  0  0
   28.4841   38.9964   76.2157 C   0  0  0  0  0  0  0  0  0  0  0  0
   24.1096   35.0243   73.4358 P   0  0  1  0  0  0  0  0  0  0  0  0
   24.4119   35.2182   70.8749 P   0  0  1  0  0  0  0  0  0  0  0  0
   28.8622   39.1602   78.9905 C   0  0  0  0  0  0  0  0  0  0  0  0
   27.8196   41.4089   78.5809 C   0  0  0  0  0  0  0  0  0  0  0  0
   28.3756   40.5054   79.4646 C   0  0  0  0  0  0  0  0  0  0  0  0
   28.4753   40.8695   80.8085 C   0  0  0  0  0  0  0  0  0  0  0  0
   29.0265   39.9980   81.7358 N   0  0  0  0  0  0  0  0  0  0  0  0
   28.0390   42.0677   81.1859 N   0  0  0  0  0  0  0  0  0  0  0  0
   27.5106   42.8973   80.3098 C   0  0  0  0  0  0  0  0  0  0  0  0
   27.4023   42.5838   79.0334 N   0  0  0  0  0  0  0  0  0  0  0  0
   22.6811   34.7777   73.1352 O   0  5  0  0  0  0  0  0  0  0  0  0
   24.8553   33.7396   70.9345 O   0  0  0  0  0  0  0  0  0  0  0  0
   25.7814   37.0265   78.2546 S   0  0  0  0  0  0  0  0  0  0  0  0
   26.9225   37.7904   79.3184 C   0  0  0  0  0  0  0  0  0  0  0  0
   24.8931   33.6213   73.5095 O   0  0  0  0  0  0  0  0  0  0  0  0
   22.8276   35.2941   70.6020 O   0  5  0  0  0  0  0  0  0  0  0  0
   27.7317   38.3860   78.4732 N   0  0  0  0  0  0  0  0  0  0  0  0
   24.7517   35.9377   72.2751 O   0  0  0  0  0  0  0  0  0  0  0  0
   25.1658   35.9353   69.7324 O   0  0  0  0  0  0  0  0  0  0  0  0
   27.5466   38.3054   77.1736 C   0  0  2  0  0  0  0  0  0  0  0  0
   26.4962   37.5792   76.7133 C   0  0  2  0  0  0  0  0  0  0  0  0
   26.0540   37.3160   75.2977 C   0  0  0  0  0  0  0  0  0  0  0  0
   25.6318   35.8518   75.1567 C   0  0  0  0  0  0  0  0  0  0  0  0
   24.2379   35.7864   74.8485 O   0  0  0  0  0  0  0  0  0  0  0  0
  1 11  1  0  0  0  0
  3 13  1  6  0  0  0
  3 17  2  0  0  0  0
  3 20  1  0  0  0  0
  3 26  1  0  0  0  0
  4 14  1  1  0  0  0
  4 18  1  0  0  0  0
  4 21  2  0  0  0  0
  4 20  1  0  0  0  0
  5 19  1  0  0  0  0
  5  7  1  0  0  0  0
  6  7  2  0  0  0  0
  6 12  1  0  0  0  0
  7  8  1  0  0  0  0
  8  9  1  0  0  0  0
  8 10  2  0  0  0  0
 10 11  1  0  0  0  0
 11 12  2  0  0  0  0
 15 23  1  0  0  0  0
 15 16  1  0  0  0  0
 16 19  1  0  0  0  0
 19 22  1  0  0  0  0
 22  2  1  6  0  0  0
 22 23  1  0  0  0  0
 23 24  1  1  0  0  0
 24 25  1  0  0  0  0
 25 26  1  0  0  0  0
M  CHG  2  13  -1  18  -1
M  END
>  <CHROM.1>
-52.40395921,-78.82700706,-63.41545843,-52.24323390,-41.71690003,115.72009113
120.59876451,173.23125211,26.05028454,37.65649562,75.93496322,0.00774973
-1.22590138,-0.63817297

>  <Name>
ligand

>  <RI>
0

>  <Rbt.Current_Directory>
/home/itssahil/PROJECTS/Mol_Feturizer/New_Systems/rnas/2HOJ

>  <Rbt.Executable>
rbdock ($Id: //depot/dev/client3/rdock/2013.1/src/exe/rbdock.cxx#4 $)

>  <Rbt.Library>
libRbt.so (2013.1, Build901 2013/11/27)

>  <Rbt.Parameter_File>
/export/apps/rDock/src/rDock_2013.1_src/data/scripts/dock_solv.prm

>  <Rbt.Receptor>
prm/blind_docking_100.prm

>  <SCORE>
-14.7279

>  <SCORE.INTER>
-15.0489

>  <SCORE.INTER.CONST>
1

>  <SCORE.INTER.POLAR>
-1.03248

>  <SCORE.INTER.ROT>
8

>  <SCORE.INTER.SOLV>
21.093

>  <SCORE.INTER.VDW>
-22.5554

>  <SCORE.INTER.norm>
-0.578805

>  <SCORE.INTRA>
0.321056

>  <SCORE.INTRA.DIHEDRAL>
6.29607

>  <SCORE.INTRA.DIHEDRAL.0>
11.6398

>  <SCORE.INTRA.POLAR>
0

>  <SCORE.INTRA.POLAR.0>
0

>  <SCORE.INTRA.REPUL>
0

>  <SCORE.INTRA.REPUL.0>
0

>  <SCORE.INTRA.SOLV>
1.05414

>  <SCORE.INTRA.SOLV.lig_0>
-81.722

>  <SCORE.INTRA.VDW>
-3.35405

>  <SCORE.INTRA.VDW.0>
1.12598

>  <SCORE.INTRA.norm>
0.0123483

>  <SCORE.RESTR>
0

>  <SCORE.RESTR.CAVITY>
0

>  <SCORE.RESTR.norm>
0

>  <SCORE.SYSTEM>
0

>  <SCORE.SYSTEM.CONST>
0

>  <SCORE.SYSTEM.DIHEDRAL>
0

>  <SCORE.SYSTEM.SOLV>
0

>  <SCORE.SYSTEM.norm>
0

>  <SCORE.heavy>
26

>  <SCORE.norm>
-0.566457

>  <RMSD>
12.804

$$$$
ligand
 OpenBabel11021811433D
libRbt.so/2013.1/901 2013/11/27
 26 27  0  0  0  0  0  0  0  0999 V2000
   25.7725   30.6799   75.0724 C   0  0  0  0  0  0  0  0  0  0  0  0
   28.1149   37.7516   75.0839 C   0  0  0  0  0  0  0  0  0  0  0  0
   26.9691   40.4395   80.9329 P   0  0  1  0  0  0  0  0  0  0  0  0
   26.0815   42.8546   80.6751 P   0  0  1  0  0  0  0  0  0  0  0  0
   25.6913   36.3667   74.8042 C   0  0  0  0  0  0  0  0  0  0  0  0
   26.0934   34.2113   76.0307 C   0  0  0  0  0  0  0  0  0  0  0  0
   25.7124   34.8614   74.8738 C   0  0  0  0  0  0  0  0  0  0  0  0
   25.3469   34.0889   73.7700 C   0  0  0  0  0  0  0  0  0  0  0  0
   24.9570   34.6937   72.5844 N   0  0  0  0  0  0  0  0  0  0  0  0
   25.3837   32.7634   73.8702 N   0  0  0  0  0  0  0  0  0  0  0  0
   25.7490   32.1842   74.9954 C   0  0  0  0  0  0  0  0  0  0  0  0
   26.1003   32.8852   76.0557 N   0  0  0  0  0  0  0  0  0  0  0  0
   28.1102   41.1401   81.5642 O   0  5  0  0  0  0  0  0  0  0  0  0
   24.8254   43.6785   80.3148 O   0  0  0  0  0  0  0  0  0  0  0  0
   26.0565   37.5673   78.4112 S   0  0  0  0  0  0  0  0  0  0  0  0
   25.2213   36.7558   77.1223 C   0  0  0  0  0  0  0  0  0  0  0  0
   26.7227   39.0348   81.6773 O   0  0  0  0  0  0  0  0  0  0  0  0
   26.8270   43.5315   81.9305 O   0  5  0  0  0  0  0  0  0  0  0  0
   26.0443   36.9214   76.1129 N   0  0  0  0  0  0  0  0  0  0  0  0
   25.6469   41.3509   81.0543 O   0  0  0  0  0  0  0  0  0  0  0  0
   27.0401   42.8224   79.4635 O   0  0  0  0  0  0  0  0  0  0  0  0
   27.1794   37.5709   76.2527 C   0  0  2  0  0  0  0  0  0  0  0  0
   27.4866   38.0819   77.4721 C   0  0  2  0  0  0  0  0  0  0  0  0
   28.6977   38.8621   77.9120 C   0  0  0  0  0  0  0  0  0  0  0  0
   28.4831   39.3817   79.3354 C   0  0  0  0  0  0  0  0  0  0  0  0
   27.2947   40.1740   79.3784 O   0  0  0  0  0  0  0  0  0  0  0  0
  1 11  1  0  0  0  0
  3 13  1  1  0  0  0
  3 17  2  0  0  0  0
  3 20  1  0  0  0  0
  3 26  1  0  0  0  0
  4 14  1  6  0  0  0
  4 18  1  0  0  0  0
  4 21  2  0  0  0  0
  4 20  1  0  0  0  0
  5 19  1  0  0  0  0
  5  7  1  0  0  0  0
  6  7  2  0  0  0  0
  6 12  1  0  0  0  0
  7  8  1  0  0  0  0
  8  9  1  0  0  0  0
  8 10  2  0  0  0  0
 10 11  1  0  0  0  0
 11 12  2  0  0  0  0
 15 23  1  0  0  0  0
 15 16  1  0  0  0  0
 16 19  1  0  0  0  0
 19 22  1  0  0  0  0
 22  2  1  6  0  0  0
 22 23  1  0  0  0  0
 23 24  1  1  0  0  0
 24 25  1  0  0  0  0
 25 26  1  0  0  0  0
M  CHG  2  13  -1  18  -1
M  END
>  <CHROM.1>
44.33263382,-67.44374083,-3.13376364,161.41115787,-8.14338277,-56.98348520
168.95668459,59.19620158,26.45617173,38.22230142,78.02030009,-1.97201255
-1.35683271,0.23949735

>  <Name>
ligand

>  <RI>
0

>  <Rbt.Current_Directory>
/home/itssahil/PROJECTS/Mol_Feturizer/New_Systems/rnas/2HOJ

>  <Rbt.Executable>
rbdock ($Id: //depot/dev/client3/rdock/2013.1/src/exe/rbdock.cxx#4 $)

>  <Rbt.Library>
libRbt.so (2013.1, Build901 2013/11/27)

>  <Rbt.Parameter_File>
/export/apps/rDock/src/rDock_2013.1_src/data/scripts/dock_solv.prm

>  <Rbt.Receptor>
prm/blind_docking_100.prm

>  <SCORE>
-19.0356

>  <SCORE.INTER>
-15.0226

>  <SCORE.INTER.CONST>
1

>  <SCORE.INTER.POLAR>
0

>  <SCORE.INTER.ROT>
8

>  <SCORE.INTER.SOLV>
11.3535

>  <SCORE.INTER.VDW>
-22.7329

>  <SCORE.INTER.norm>
-0.577793

>  <SCORE.INTRA>
-4.01294

>  <SCORE.INTRA.DIHEDRAL>
-5.5367

>  <SCORE.INTRA.DIHEDRAL.0>
11.6398

>  <SCORE.INTRA.POLAR>
0

>  <SCORE.INTRA.POLAR.0>
0

>  <SCORE.INTRA.REPUL>
0

>  <SCORE.INTRA.REPUL.0>
0

>  <SCORE.INTRA.SOLV>
2.6769

>  <SCORE.INTRA.SOLV.lig_0>
-81.722

>  <SCORE.INTRA.VDW>
-2.58304

>  <SCORE.INTRA.VDW.0>
1.12598

>  <SCORE.INTRA.norm>
-0.154344

>  <SCORE.RESTR>
0

>  <SCORE.RESTR.CAVITY>
0

>  <SCORE.RESTR.norm>
0

>  <SCORE.SYSTEM>
0

>  <SCORE.SYSTEM.CONST>
0

>  <SCORE.SYSTEM.DIHEDRAL>
0

>  <SCORE.SYSTEM.SOLV>
0

>  <SCORE.SYSTEM.norm>
0

>  <SCORE.heavy>
26

>  <SCORE.norm>
-0.732137

>  <RMSD>
12.830

$$$$
ligand
 OpenBabel11021811433D
libRbt.so/2013.1/901 2013/11/27
 26 27  0  0  0  0  0  0  0  0999 V2000
   25.6747   30.9465   75.1789 C   0  0  0  0  0  0  0  0  0  0  0  0
   27.4543   38.4156   75.5376 C   0  0  0  0  0  0  0  0  0  0  0  0
   27.6433   40.7446   81.5079 P   0  0  1  0  0  0  0  0  0  0  0  0
   27.2839   43.3054   81.5138 P   0  0  1  0  0  0  0  0  0  0  0  0
   25.3051   36.6134   75.5887 C   0  0  0  0  0  0  0  0  0  0  0  0
   26.6161   34.4961   75.2570 C   0  0  0  0  0  0  0  0  0  0  0  0
   25.4015   35.1133   75.4804 C   0  0  0  0  0  0  0  0  0  0  0  0
   24.2647   34.3125   75.6038 C   0  0  0  0  0  0  0  0  0  0  0  0
   23.0211   34.8838   75.8282 N   0  0  0  0  0  0  0  0  0  0  0  0
   24.3910   32.9930   75.4970 N   0  0  0  0  0  0  0  0  0  0  0  0
   25.5706   32.4453   75.2883 C   0  0  0  0  0  0  0  0  0  0  0  0
   26.6633   33.1736   75.1669 N   0  0  0  0  0  0  0  0  0  0  0  0
   28.7151   40.4064   82.4715 O   0  5  0  0  0  0  0  0  0  0  0  0
   25.7868   43.3178   81.1330 O   0  0  0  0  0  0  0  0  0  0  0  0
   26.4056   37.3759   79.1654 S   0  0  0  0  0  0  0  0  0  0  0  0
   25.4055   36.5882   77.9836 C   0  0  0  0  0  0  0  0  0  0  0  0
   26.2559   40.9466   82.2966 O   0  0  0  0  0  0  0  0  0  0  0  0
   27.4332   43.0908   83.1018 O   0  5  0  0  0  0  0  0  0  0  0  0
   25.8944   37.0507   76.8562 N   0  0  0  0  0  0  0  0  0  0  0  0
   28.0258   42.1057   80.7367 O   0  0  0  0  0  0  0  0  0  0  0  0
   27.9273   44.6523   81.1138 O   0  0  0  0  0  0  0  0  0  0  0  0
   26.9031   37.8945   76.8408 C   0  0  2  0  0  0  0  0  0  0  0  0
   27.4325   38.2918   78.0259 C   0  0  2  0  0  0  0  0  0  0  0  0
   28.5711   39.2382   78.3030 C   0  0  0  0  0  0  0  0  0  0  0  0
   28.7596   39.3843   79.8147 C   0  0  0  0  0  0  0  0  0  0  0  0
   27.4850   39.5507   80.4390 O   0  0  0  0  0  0  0  0  0  0  0  0
  1 11  1  0  0  0  0
  3 13  1  1  0  0  0
  3 17  2  0  0  0  0
  3 20  1  0  0  0  0
  3 26  1  0  0  0  0
  4 14  1  6  0  0  0
  4 18  1  0  0  0  0
  4 21  2  0  0  0  0
  4 20  1  0  0  0  0
  5 19  1  0  0  0  0
  5  7  1  0  0  0  0
  6  7  2  0  0  0  0
  6 12  1  0  0  0  0
  7  8  1  0  0  0  0
  8  9  1  0  0  0  0
  8 10  2  0  0  0  0
 10 11  1  0  0  0  0
 11 12  2  0  0  0  0
 15 23  1  0  0  0  0
 15 16  1  0  0  0  0
 16 19  1  0  0  0  0
 19 22  1  0  0  0  0
 22  2  1  1  0  0  0
 22 23  1  0  0  0  0
 23 24  1  6  0  0  0
 24 25  1  0  0  0  0
 25 26  1  0  0  0  0
M  CHG  2  13  -1  18  -1
M  END
>  <CHROM.1>
-95.93852914,-58.65350607,-71.88830617,-77.08648382,-1.67863353,-44.64972642
-135.36830352,-57.54573928,26.66562671,38.47535247,78.75651583,-2.08138763
-1.15449454,0.14775556

>  <Name>
ligand

>  <RI>
0

>  <Rbt.Current_Directory>
/home/itssahil/PROJECTS/Mol_Feturizer/New_Systems/rnas/2HOJ

>  <Rbt.Executable>
rbdock ($Id: //depot/dev/client3/rdock/2013.1/src/exe/rbdock.cxx#4 $)

>  <Rbt.Library>
libRbt.so (2013.1, Build901 2013/11/27)

>  <Rbt.Parameter_File>
/export/apps/rDock/src/rDock_2013.1_src/data/scripts/dock_solv.prm

>  <Rbt.Receptor>
prm/blind_docking_100.prm

>  <SCORE>
-13.7894

>  <SCORE.INTER>
-14.4137

>  <SCORE.INTER.CONST>
1

>  <SCORE.INTER.POLAR>
-2.16991

>  <SCORE.INTER.ROT>
8

>  <SCORE.INTER.SOLV>
19.5586

>  <SCORE.INTER.VDW>
-17.8289

>  <SCORE.INTER.norm>
-0.554372

>  <SCORE.INTRA>
0.596755

>  <SCORE.INTRA.DIHEDRAL>
1.88234

>  <SCORE.INTRA.DIHEDRAL.0>
11.6398

>  <SCORE.INTRA.POLAR>
0

>  <SCORE.INTRA.POLAR.0>
0

>  <SCORE.INTRA.REPUL>
0

>  <SCORE.INTRA.REPUL.0>
0

>  <SCORE.INTRA.SOLV>
1.76034

>  <SCORE.INTRA.SOLV.lig_0>
-81.722

>  <SCORE.INTRA.VDW>
-1.22458

>  <SCORE.INTRA.VDW.0>
1.12598

>  <SCORE.INTRA.norm>
0.0229521

>  <SCORE.RESTR>
0.0275276

>  <SCORE.RESTR.CAVITY>
0.0275276

>  <SCORE.RESTR.norm>
0.00105876

>  <SCORE.SYSTEM>
0

>  <SCORE.SYSTEM.CONST>
0

>  <SCORE.SYSTEM.DIHEDRAL>
0

>  <SCORE.SYSTEM.SOLV>
0

>  <SCORE.SYSTEM.norm>
0

>  <SCORE.heavy>
26

>  <SCORE.norm>
-0.530361

>  <RMSD>
13.268

$$$$
ligand
 OpenBabel11021811433D
libRbt.so/2013.1/901 2013/11/27
 26 27  0  0  0  0  0  0  0  0999 V2000
   32.0834   42.4716   81.4969 C   0  0  0  0  0  0  0  0  0  0  0  0
   25.7428   37.2231   79.6092 C   0  0  0  0  0  0  0  0  0  0  0  0
   25.7082   36.0650   72.7983 P   0  0  1  0  0  0  0  0  0  0  0  0
   25.2747   36.1550   70.2506 P   0  0  1  0  0  0  0  0  0  0  0  0
   27.5535   39.1647   80.5152 C   0  0  0  0  0  0  0  0  0  0  0  0
   30.0333   39.5416   80.6574 C   0  0  0  0  0  0  0  0  0  0  0  0
   28.7516   40.0411   80.7754 C   0  0  0  0  0  0  0  0  0  0  0  0
   28.5936   41.3789   81.1416 C   0  0  0  0  0  0  0  0  0  0  0  0
   27.3272   41.9285   81.2742 N   0  0  0  0  0  0  0  0  0  0  0  0
   29.6760   42.1176   81.3673 N   0  0  0  0  0  0  0  0  0  0  0  0
   30.8810   41.6015   81.2385 C   0  0  0  0  0  0  0  0  0  0  0  0
   31.0642   40.3418   80.8944 N   0  0  0  0  0  0  0  0  0  0  0  0
   26.3254   34.7242   72.6857 O   0  5  0  0  0  0  0  0  0  0  0  0
   24.2224   36.3448   69.1358 O   0  0  0  0  0  0  0  0  0  0  0  0
   27.6331   39.0396   76.6990 S   0  0  0  0  0  0  0  0  0  0  0  0
   28.1414   39.6521   78.2430 C   0  0  0  0  0  0  0  0  0  0  0  0
   26.8297   37.1942   72.5634 O   0  0  0  0  0  0  0  0  0  0  0  0
   26.3786   37.3220   70.1527 O   0  5  0  0  0  0  0  0  0  0  0  0
   27.4149   38.9415   79.0744 N   0  0  0  0  0  0  0  0  0  0  0  0
   24.5515   36.2177   71.6882 O   0  0  0  0  0  0  0  0  0  0  0  0
   25.9618   34.7813   70.0804 O   0  0  0  0  0  0  0  0  0  0  0  0
   26.5692   38.0321   78.6415 C   0  0  2  0  0  0  0  0  0  0  0  0
   26.4513   37.8433   77.3025 C   0  0  2  0  0  0  0  0  0  0  0  0
   25.5721   36.8884   76.5383 C   0  0  0  0  0  0  0  0  0  0  0  0
   26.1105   36.7232   75.1153 C   0  0  0  0  0  0  0  0  0  0  0  0
   25.0680   36.2406   74.2654 O   0  0  0  0  0  0  0  0  0  0  0  0
  1 11  1  0  0  0  0
  3 13  1  6  0  0  0
  3 17  2  0  0  0  0
  3 20  1  0  0  0  0
  3 26  1  0  0  0  0
  4 14  1  6  0  0  0
  4 18  1  0  0  0  0
  4 21  2  0  0  0  0
  4 20  1  0  0  0  0
  5 19  1  0  0  0  0
  5  7  1  0  0  0  0
  6  7  2  0  0  0  0
  6 12  1  0  0  0  0
  7  8  1  0  0  0  0
  8  9  1  0  0  0  0
  8 10  2  0  0  0  0
 10 11  1  0  0  0  0
 11 12  2  0  0  0  0
 15 23  1  0  0  0  0
 15 16  1  0  0  0  0
 16 19  1  0  0  0  0
 19 22  1  0  0  0  0
 22  2  1  6  0  0  0
 22 23  1  0  0  0  0
 23 24  1  1  0  0  0
 24 25  1  0  0  0  0
 25 26  1  0  0  0  0
M  CHG  2  13  -1  18  -1
M  END
>  <CHROM.1>
-64.64113037,-10.81080274,-74.03758020,-178.07059923,18.16149664,-159.12589623
-178.97556847,86.86410368,27.08368942,38.11414660,76.02545887,-1.12044740
-0.67105499,-1.73445151

>  <Name>
ligand

>  <RI>
0

>  <Rbt.Current_Directory>
/home/itssahil/PROJECTS/Mol_Feturizer/New_Systems/rnas/2HOJ

>  <Rbt.Executable>
rbdock ($Id: //depot/dev/client3/rdock/2013.1/src/exe/rbdock.cxx#4 $)

>  <Rbt.Library>
libRbt.so (2013.1, Build901 2013/11/27)

>  <Rbt.Parameter_File>
/export/apps/rDock/src/rDock_2013.1_src/data/scripts/dock_solv.prm

>  <Rbt.Receptor>
prm/blind_docking_100.prm

>  <SCORE>
-17.2776

>  <SCORE.INTER>
-16.1976

>  <SCORE.INTER.CONST>
1

>  <SCORE.INTER.POLAR>
0

>  <SCORE.INTER.ROT>
8

>  <SCORE.INTER.SOLV>
14.0406

>  <SCORE.INTER.VDW>
-24.412

>  <SCORE.INTER.norm>
-0.622987

>  <SCORE.INTRA>
-1.09231

>  <SCORE.INTRA.DIHEDRAL>
-4.4034

>  <SCORE.INTRA.DIHEDRAL.0>
11.6398

>  <SCORE.INTRA.POLAR>
0

>  <SCORE.INTRA.POLAR.0>
0

>  <SCORE.INTRA.REPUL>
0

>  <SCORE.INTRA.REPUL.0>
0

>  <SCORE.INTRA.SOLV>
3.6751

>  <SCORE.INTRA.SOLV.lig_0>
-81.722

>  <SCORE.INTRA.VDW>
-0.728159

>  <SCORE.INTRA.VDW.0>
1.12598

>  <SCORE.INTRA.norm>
-0.0420118

>  <SCORE.RESTR>
0.0124022

>  <SCORE.RESTR.CAVITY>
0.0124022

>  <SCORE.RESTR.norm>
0.000477008

>  <SCORE.SYSTEM>
0

>  <SCORE.SYSTEM.CONST>
0

>  <SCORE.SYSTEM.DIHEDRAL>
0

>  <SCORE.SYSTEM.SOLV>
0

>  <SCORE.SYSTEM.norm>
0

>  <SCORE.heavy>
26

>  <SCORE.norm>
-0.664521

>  <RMSD>
13.410

$$$$
ligand
 OpenBabel11021811433D
libRbt.so/2013.1/901 2013/11/27
 26 27  0  0  0  0  0  0  0  0999 V2000
   32.6282   42.2065   81.7999 C   0  0  0  0  0  0  0  0  0  0  0  0
   27.7503   38.5172   78.3497 C   0  0  0  0  0  0  0  0  0  0  0  0
   25.8635   34.9172   76.0309 P   0  0  1  0  0  0  0  0  0  0  0  0
   26.0237   32.9205   74.3955 P   0  0  1  0  0  0  0  0  0  0  0  0
   27.8654   41.2802   78.8207 C   0  0  0  0  0  0  0  0  0  0  0  0
   29.8521   40.4748   80.1306 C   0  0  0  0  0  0  0  0  0  0  0  0
   29.1258   41.5269   79.6091 C   0  0  0  0  0  0  0  0  0  0  0  0
   29.5890   42.8250   79.8304 C   0  0  0  0  0  0  0  0  0  0  0  0
   28.8954   43.9160   79.3281 N   0  0  0  0  0  0  0  0  0  0  0  0
   30.7027   43.0007   80.5354 N   0  0  0  0  0  0  0  0  0  0  0  0
   31.3674   41.9677   81.0109 C   0  0  0  0  0  0  0  0  0  0  0  0
   30.9565   40.7293   80.8197 N   0  0  0  0  0  0  0  0  0  0  0  0
   24.7449   35.3843   75.1811 O   0  5  0  0  0  0  0  0  0  0  0  0
   24.6928   33.3055   73.7124 O   0  0  0  0  0  0  0  0  0  0  0  0
   28.8698   40.5675   75.2056 S   0  0  0  0  0  0  0  0  0  0  0  0
   28.5696   41.6199   76.5547 C   0  0  0  0  0  0  0  0  0  0  0  0
   25.6070   35.3696   77.5532 O   0  0  0  0  0  0  0  0  0  0  0  0
   27.2372   33.7109   73.6934 O   0  5  0  0  0  0  0  0  0  0  0  0
   28.2119   40.7723   77.4915 N   0  0  0  0  0  0  0  0  0  0  0  0
   25.9589   33.3113   75.9565 O   0  0  0  0  0  0  0  0  0  0  0  0
   26.2518   31.3985   74.2558 O   0  0  0  0  0  0  0  0  0  0  0  0
   28.1618   39.4781   77.2628 C   0  0  2  0  0  0  0  0  0  0  0  0
   28.4817   39.0271   76.0232 C   0  0  2  0  0  0  0  0  0  0  0  0
   28.5067   37.6196   75.4872 C   0  0  0  0  0  0  0  0  0  0  0  0
   27.1326   36.9738   75.6794 C   0  0  0  0  0  0  0  0  0  0  0  0
   27.2431   35.5598   75.5045 O   0  0  0  0  0  0  0  0  0  0  0  0
  1 11  1  0  0  0  0
  3 13  1  6  0  0  0
  3 17  2  0  0  0  0
  3 20  1  0  0  0  0
  3 26  1  0  0  0  0
  4 14  1  6  0  0  0
  4 18  1  0  0  0  0
  4 21  2  0  0  0  0
  4 20  1  0  0  0  0
  5 19  1  0  0  0  0
  5  7  1  0  0  0  0
  6  7  2  0  0  0  0
  6 12  1  0  0  0  0
  7  8  1  0  0  0  0
  8  9  1  0  0  0  0
  8 10  2  0  0  0  0
 10 11  1  0  0  0  0
 11 12  2  0  0  0  0
 15 23  1  0  0  0  0
 15 16  1  0  0  0  0
 16 19  1  0  0  0  0
 19 22  1  0  0  0  0
 22  2  1  6  0  0  0
 22 23  1  0  0  0  0
 23 24  1  1  0  0  0
 24 25  1  0  0  0  0
 25 26  1  0  0  0  0
M  CHG  2  13  -1  18  -1
M  END
>  <CHROM.1>
52.81180146,-81.39334519,-74.44312991,-65.40819541,-123.72840264,-164.91830680
167.83273921,63.92912549,27.84649958,37.90597999,76.95087285,-0.40702924
1.12740634,2.54238736

>  <Name>
ligand

>  <RI>
0

>  <Rbt.Current_Directory>
/home/itssahil/PROJECTS/Mol_Feturizer/New_Systems/rnas/2HOJ

>  <Rbt.Executable>
rbdock ($Id: //depot/dev/client3/rdock/2013.1/src/exe/rbdock.cxx#4 $)

>  <Rbt.Library>
libRbt.so (2013.1, Build901 2013/11/27)

>  <Rbt.Parameter_File>
/export/apps/rDock/src/rDock_2013.1_src/data/scripts/dock_solv.prm

>  <Rbt.Receptor>
prm/blind_docking_100.prm

>  <SCORE>
-19.5656

>  <SCORE.INTER>
-14.9562

>  <SCORE.INTER.CONST>
1

>  <SCORE.INTER.POLAR>
0

>  <SCORE.INTER.ROT>
8

>  <SCORE.INTER.SOLV>
18.8185

>  <SCORE.INTER.VDW>
-25.1769

>  <SCORE.INTER.norm>
-0.575238

>  <SCORE.INTRA>
-4.60944

>  <SCORE.INTRA.DIHEDRAL>
-5.40436

>  <SCORE.INTRA.DIHEDRAL.0>
11.6398

>  <SCORE.INTRA.POLAR>
0

>  <SCORE.INTRA.POLAR.0>
0

>  <SCORE.INTRA.REPUL>
0

>  <SCORE.INTRA.REPUL.0>
0

>  <SCORE.INTRA.SOLV>
1.66872

>  <SCORE.INTRA.SOLV.lig_0>
-81.722

>  <SCORE.INTRA.VDW>
-2.74162

>  <SCORE.INTRA.VDW.0>
1.12598

>  <SCORE.INTRA.norm>
-0.177286

>  <SCORE.RESTR>
0

>  <SCORE.RESTR.CAVITY>
0

>  <SCORE.RESTR.norm>
0

>  <SCORE.SYSTEM>
0

>  <SCORE.SYSTEM.CONST>
0

>  <SCORE.SYSTEM.DIHEDRAL>
0

>  <SCORE.SYSTEM.SOLV>
0

>  <SCORE.SYSTEM.norm>
0

>  <SCORE.heavy>
26

>  <SCORE.norm>
-0.752524

>  <RMSD>
13.749

$$$$
ligand
 OpenBabel11021811433D
libRbt.so/2013.1/901 2013/11/27
 26 27  0  0  0  0  0  0  0  0999 V2000
   27.8883   36.1441   64.2259 C   0  0  0  0  0  0  0  0  0  0  0  0
   34.4297   34.6889   61.8439 C   0  0  0  0  0  0  0  0  0  0  0  0
   37.8368   32.7529   58.9102 P   0  0  1  0  0  0  0  0  0  0  0  0
   38.7399   30.3797   58.4210 P   0  0  1  0  0  0  0  0  0  0  0  0
   32.9893   37.0959   61.8823 C   0  0  0  0  0  0  0  0  0  0  0  0
   31.4856   35.9220   63.5171 C   0  0  0  0  0  0  0  0  0  0  0  0
   31.6385   36.8449   62.5017 C   0  0  0  0  0  0  0  0  0  0  0  0
   30.5101   37.5400   62.0634 C   0  0  0  0  0  0  0  0  0  0  0  0
   30.6106   38.4771   61.0459 N   0  0  0  0  0  0  0  0  0  0  0  0
   29.3353   37.2861   62.6322 N   0  0  0  0  0  0  0  0  0  0  0  0
   29.2353   36.4003   63.6019 C   0  0  0  0  0  0  0  0  0  0  0  0
   30.2817   35.7268   64.0385 N   0  0  0  0  0  0  0  0  0  0  0  0
   37.4660   33.7330   59.9559 O   0  5  0  0  0  0  0  0  0  0  0  0
   37.4869   30.2287   57.5301 O   0  0  0  0  0  0  0  0  0  0  0  0
   32.9165   35.6311   58.3561 S   0  0  0  0  0  0  0  0  0  0  0  0
   32.5182   36.8314   59.5469 C   0  0  0  0  0  0  0  0  0  0  0  0
   38.9464   33.3968   57.9396 O   0  0  0  0  0  0  0  0  0  0  0  0
   39.9702   30.9155   57.5325 O   0  5  0  0  0  0  0  0  0  0  0  0
   33.0959   36.3531   60.6246 N   0  0  0  0  0  0  0  0  0  0  0  0
   38.4342   31.4283   59.6045 O   0  0  0  0  0  0  0  0  0  0  0  0
   39.1050   29.0078   59.0314 O   0  0  0  0  0  0  0  0  0  0  0  0
   33.7706   35.2244   60.5978 C   0  0  2  0  0  0  0  0  0  0  0  0
   33.8539   34.5481   59.4239 C   0  0  2  0  0  0  0  0  0  0  0  0
   34.5470   33.2485   59.1084 C   0  0  0  0  0  0  0  0  0  0  0  0
   35.6607   33.4962   58.0884 C   0  0  0  0  0  0  0  0  0  0  0  0
   36.5317   32.3640   58.0508 O   0  0  0  0  0  0  0  0  0  0  0  0
  1 11  1  0  0  0  0
  3 13  1  1  0  0  0
  3 17  2  0  0  0  0
  3 20  1  0  0  0  0
  3 26  1  0  0  0  0
  4 14  1  6  0  0  0
  4 18  1  0  0  0  0
  4 21  2  0  0  0  0
  4 20  1  0  0  0  0
  5 19  1  0  0  0  0
  5  7  1  0  0  0  0
  6  7  2  0  0  0  0
  6 12  1  0  0  0  0
  7  8  1  0  0  0  0
  8  9  1  0  0  0  0
  8 10  2  0  0  0  0
 10 11  1  0  0  0  0
 11 12  2  0  0  0  0
 15 23  1  0  0  0  0
 15 16  1  0  0  0  0
 16 19  1  0  0  0  0
 19 22  1  0  0  0  0
 22  2  1  1  0  0  0
 22 23  1  0  0  0  0
 23 24  1  6  0  0  0
 24 25  1  0  0  0  0
 25 26  1  0  0  0  0
M  CHG  2  13  -1  18  -1
M  END
>  <CHROM.1>
176.98871527,78.83727126,99.21076649,-51.19960235,63.02483893,164.96490762
-101.31427333,28.63409916,34.67839157,34.11696156,60.07001520,3.10987509
0.70747412,-0.89043866

>  <Name>
ligand

>  <RI>
0

>  <Rbt.Current_Directory>
/home/itssahil/PROJECTS/Mol_Feturizer/New_Systems/rnas/2HOJ

>  <Rbt.Executable>
rbdock ($Id: //depot/dev/client3/rdock/2013.1/src/exe/rbdock.cxx#4 $)

>  <Rbt.Library>
libRbt.so (2013.1, Build901 2013/11/27)

>  <Rbt.Parameter_File>
/export/apps/rDock/src/rDock_2013.1_src/data/scripts/dock_solv.prm

>  <Rbt.Receptor>
prm/blind_docking_80.prm

>  <SCORE>
-10.2606

>  <SCORE.INTER>
-12.1435

>  <SCORE.INTER.CONST>
1

>  <SCORE.INTER.POLAR>
-1.1225

>  <SCORE.INTER.ROT>
8

>  <SCORE.INTER.SOLV>
34.2424

>  <SCORE.INTER.VDW>
-24.7015

>  <SCORE.INTER.norm>
-0.467058

>  <SCORE.INTRA>
-0.182403

>  <SCORE.INTRA.DIHEDRAL>
1.37236

>  <SCORE.INTRA.DIHEDRAL.0>
11.6398

>  <SCORE.INTRA.POLAR>
0

>  <SCORE.INTRA.POLAR.0>
0

>  <SCORE.INTRA.REPUL>
0

>  <SCORE.INTRA.REPUL.0>
0

>  <SCORE.INTRA.SOLV>
2.25079

>  <SCORE.INTRA.SOLV.lig_0>
-81.722

>  <SCORE.INTRA.VDW>
-1.99398

>  <SCORE.INTRA.VDW.0>
1.12598

>  <SCORE.INTRA.norm>
-0.00701551

>  <SCORE.RESTR>
2.06532

>  <SCORE.RESTR.CAVITY>
2.06532

>  <SCORE.RESTR.norm>
0.0794352

>  <SCORE.SYSTEM>
0

>  <SCORE.SYSTEM.CONST>
0

>  <SCORE.SYSTEM.DIHEDRAL>
0

>  <SCORE.SYSTEM.SOLV>
0

>  <SCORE.SYSTEM.norm>
0

>  <SCORE.heavy>
26

>  <SCORE.norm>
-0.394638

>  <RMSD>
13.956

$$$$
ligand
 OpenBabel11021811433D
libRbt.so/2013.1/901 2013/11/27
 26 27  0  0  0  0  0  0  0  0999 V2000
   28.0020   40.4765   53.2562 C   0  0  0  0  0  0  0  0  0  0  0  0
   29.9741   33.4149   55.8516 C   0  0  0  0  0  0  0  0  0  0  0  0
   35.5768   34.1762   59.3594 P   0  0  1  0  0  0  0  0  0  0  0  0
   34.7161   34.0771   61.7959 P   0  0  1  0  0  0  0  0  0  0  0  0
   30.3516   35.3219   53.8291 C   0  0  0  0  0  0  0  0  0  0  0  0
   28.4294   36.9210   54.0737 C   0  0  0  0  0  0  0  0  0  0  0  0
   29.7309   36.6867   53.6768 C   0  0  0  0  0  0  0  0  0  0  0  0
   30.4575   37.7464   53.1311 C   0  0  0  0  0  0  0  0  0  0  0  0
   31.7682   37.5627   52.7166 N   0  0  0  0  0  0  0  0  0  0  0  0
   29.8722   38.9342   53.0090 N   0  0  0  0  0  0  0  0  0  0  0  0
   28.6291   39.1149   53.4053 C   0  0  0  0  0  0  0  0  0  0  0  0
   27.9157   38.1347   53.9244 N   0  0  0  0  0  0  0  0  0  0  0  0
   36.5392   34.7982   58.4222 O   0  5  0  0  0  0  0  0  0  0  0  0
   33.3103   34.5097   61.3238 O   0  0  0  0  0  0  0  0  0  0  0  0
   32.9901   35.8158   56.5457 S   0  0  0  0  0  0  0  0  0  0  0  0
   32.2171   36.2136   55.0418 C   0  0  0  0  0  0  0  0  0  0  0  0
   35.7769   32.5800   59.3543 O   0  0  0  0  0  0  0  0  0  0  0  0
   34.8380   32.4739   61.7240 O   0  5  0  0  0  0  0  0  0  0  0  0
   31.2554   35.3218   54.9815 N   0  0  0  0  0  0  0  0  0  0  0  0
   35.8311   34.7446   60.8446 O   0  0  0  0  0  0  0  0  0  0  0  0
   34.9359   34.5451   63.2521 O   0  0  0  0  0  0  0  0  0  0  0  0
   31.0843   34.4319   55.9347 C   0  0  2  0  0  0  0  0  0  0  0  0
   31.9352   34.4447   56.9922 C   0  0  2  0  0  0  0  0  0  0  0  0
   31.9762   33.5539   58.2061 C   0  0  0  0  0  0  0  0  0  0  0  0
   33.4315   33.2907   58.5996 C   0  0  0  0  0  0  0  0  0  0  0  0
   34.0744   34.5308   58.9011 O   0  0  0  0  0  0  0  0  0  0  0  0
  1 11  1  0  0  0  0
  3 13  1  6  0  0  0
  3 17  2  0  0  0  0
  3 20  1  0  0  0  0
  3 26  1  0  0  0  0
  4 14  1  6  0  0  0
  4 18  1  0  0  0  0
  4 21  2  0  0  0  0
  4 20  1  0  0  0  0
  5 19  1  0  0  0  0
  5  7  1  0  0  0  0
  6  7  2  0  0  0  0
  6 12  1  0  0  0  0
  7  8  1  0  0  0  0
  8  9  1  0  0  0  0
  8 10  2  0  0  0  0
 10 11  1  0  0  0  0
 11 12  2  0  0  0  0
 15 23  1  0  0  0  0
 15 16  1  0  0  0  0
 16 19  1  0  0  0  0
 19 22  1  0  0  0  0
 22  2  1  6  0  0  0
 22 23  1  0  0  0  0
 23 24  1  1  0  0  0
 24 25  1  0  0  0  0
 25 26  1  0  0  0  0
M  CHG  2  13  -1  18  -1
M  END
>  <CHROM.1>
177.66971875,-55.01545076,-103.17111753,-62.04128793,-36.92550424,60.13815474
177.86935379,118.24986377,32.56087113,35.35378745,57.32794815,3.07892138
0.97465322,-2.57324428

>  <Name>
ligand

>  <RI>
0

>  <Rbt.Current_Directory>
/home/itssahil/PROJECTS/Mol_Feturizer/New_Systems/rnas/2HOJ

>  <Rbt.Executable>
rbdock ($Id: //depot/dev/client3/rdock/2013.1/src/exe/rbdock.cxx#4 $)

>  <Rbt.Library>
libRbt.so (2013.1, Build901 2013/11/27)

>  <Rbt.Parameter_File>
/export/apps/rDock/src/rDock_2013.1_src/data/scripts/dock_solv.prm

>  <Rbt.Receptor>
prm/blind_docking_80.prm

>  <SCORE>
3.01322

>  <SCORE.INTER>
2.63985

>  <SCORE.INTER.CONST>
1

>  <SCORE.INTER.POLAR>
-2.79832

>  <SCORE.INTER.ROT>
8

>  <SCORE.INTER.SOLV>
29.19

>  <SCORE.INTER.VDW>
-7.5757

>  <SCORE.INTER.norm>
0.101533

>  <SCORE.INTRA>
-2.24189

>  <SCORE.INTRA.DIHEDRAL>
-4.25147

>  <SCORE.INTRA.DIHEDRAL.0>
11.6398

>  <SCORE.INTRA.POLAR>
0

>  <SCORE.INTRA.POLAR.0>
0

>  <SCORE.INTRA.REPUL>
0

>  <SCORE.INTRA.REPUL.0>
0

>  <SCORE.INTRA.SOLV>
2.31588

>  <SCORE.INTRA.SOLV.lig_0>
-81.722

>  <SCORE.INTRA.VDW>
-1.27409

>  <SCORE.INTRA.VDW.0>
1.12598

>  <SCORE.INTRA.norm>
-0.0862264

>  <SCORE.RESTR>
2.61525

>  <SCORE.RESTR.CAVITY>
2.61525

>  <SCORE.RESTR.norm>
0.100587

>  <SCORE.SYSTEM>
0

>  <SCORE.SYSTEM.CONST>
0

>  <SCORE.SYSTEM.DIHEDRAL>
0

>  <SCORE.SYSTEM.SOLV>
0

>  <SCORE.SYSTEM.norm>
0

>  <SCORE.heavy>
26

>  <SCORE.norm>
0.115893

>  <RMSD>
14.334

$$$$
ligand
 OpenBabel11021811433D
libRbt.so/2013.1/901 2013/11/27
 26 27  0  0  0  0  0  0  0  0999 V2000
   27.8878   40.5311   53.3835 C   0  0  0  0  0  0  0  0  0  0  0  0
   32.0619   36.1040   55.3184 C   0  0  0  0  0  0  0  0  0  0  0  0
   34.9417   33.9503   58.5389 P   0  0  1  0  0  0  0  0  0  0  0  0
   36.4739   34.6679   60.4945 P   0  0  1  0  0  0  0  0  0  0  0  0
   30.6857   35.5933   52.9278 C   0  0  0  0  0  0  0  0  0  0  0  0
   30.4107   38.0394   52.4251 C   0  0  0  0  0  0  0  0  0  0  0  0
   29.9442   36.8996   53.0493 C   0  0  0  0  0  0  0  0  0  0  0  0
   28.7678   36.9879   53.7957 C   0  0  0  0  0  0  0  0  0  0  0  0
   28.2579   35.8720   54.4423 N   0  0  0  0  0  0  0  0  0  0  0  0
   28.1459   38.1601   53.8825 N   0  0  0  0  0  0  0  0  0  0  0  0
   28.6237   39.2219   53.2666 C   0  0  0  0  0  0  0  0  0  0  0  0
   29.7323   39.1718   52.5542 N   0  0  0  0  0  0  0  0  0  0  0  0
   35.9162   33.1821   57.7316 O   0  5  0  0  0  0  0  0  0  0  0  0
   35.4702   34.3662   61.6293 O   0  0  0  0  0  0  0  0  0  0  0  0
   29.5399   33.1206   55.6032 S   0  0  0  0  0  0  0  0  0  0  0  0
   29.5193   33.7963   54.0031 C   0  0  0  0  0  0  0  0  0  0  0  0
   34.3414   33.0080   59.6963 O   0  0  0  0  0  0  0  0  0  0  0  0
   37.2653   33.3219   60.1042 O   0  5  0  0  0  0  0  0  0  0  0  0
   30.4048   34.7609   54.0996 N   0  0  0  0  0  0  0  0  0  0  0  0
   35.6788   35.2172   59.2061 O   0  0  0  0  0  0  0  0  0  0  0  0
   37.4821   35.7378   60.9709 O   0  0  0  0  0  0  0  0  0  0  0  0
   31.0467   34.9930   55.2238 C   0  0  2  0  0  0  0  0  0  0  0  0
   30.7690   34.2140   56.3002 C   0  0  2  0  0  0  0  0  0  0  0  0
   31.3406   34.2569   57.6931 C   0  0  0  0  0  0  0  0  0  0  0  0
   32.6819   33.5203   57.7193 C   0  0  0  0  0  0  0  0  0  0  0  0
   33.7460   34.4654   57.5912 O   0  0  0  0  0  0  0  0  0  0  0  0
  1 11  1  0  0  0  0
  3 13  1  6  0  0  0
  3 17  2  0  0  0  0
  3 20  1  0  0  0  0
  3 26  1  0  0  0  0
  4 14  1  1  0  0  0
  4 18  1  0  0  0  0
  4 21  2  0  0  0  0
  4 20  1  0  0  0  0
  5 19  1  0  0  0  0
  5  7  1  0  0  0  0
  6  7  2  0  0  0  0
  6 12  1  0  0  0  0
  7  8  1  0  0  0  0
  8  9  1  0  0  0  0
  8 10  2  0  0  0  0
 10 11  1  0  0  0  0
 11 12  2  0  0  0  0
 15 23  1  0  0  0  0
 15 16  1  0  0  0  0
 16 19  1  0  0  0  0
 19 22  1  0  0  0  0
 22  2  1  1  0  0  0
 22 23  1  0  0  0  0
 23 24  1  6  0  0  0
 24 25  1  0  0  0  0
 25 26  1  0  0  0  0
M  CHG  2  13  -1  18  -1
M  END
>  <CHROM.1>
-79.66105207,100.36858620,153.55061890,-74.37376903,98.01655793,96.92062562
142.75455314,96.33382209,32.35028185,35.24892279,56.63461845,-2.66868944
0.67087374,2.89851573

>  <Name>
ligand

>  <RI>
0

>  <Rbt.Current_Directory>
/home/itssahil/PROJECTS/Mol_Feturizer/New_Systems/rnas/2HOJ

>  <Rbt.Executable>
rbdock ($Id: //depot/dev/client3/rdock/2013.1/src/exe/rbdock.cxx#4 $)

>  <Rbt.Library>
libRbt.so (2013.1, Build901 2013/11/27)

>  <Rbt.Parameter_File>
/export/apps/rDock/src/rDock_2013.1_src/data/scripts/dock_solv.prm

>  <Rbt.Receptor>
prm/blind_docking_80.prm

>  <SCORE>
31.4463

>  <SCORE.INTER>
22.7323

>  <SCORE.INTER.CONST>
1

>  <SCORE.INTER.POLAR>
-1.40312

>  <SCORE.INTER.ROT>
8

>  <SCORE.INTER.SOLV>
34.9843

>  <SCORE.INTER.VDW>
-0.762856

>  <SCORE.INTER.norm>
0.874318

>  <SCORE.INTRA>
5.37696

>  <SCORE.INTRA.DIHEDRAL>
4.25272

>  <SCORE.INTRA.DIHEDRAL.0>
11.6398

>  <SCORE.INTRA.POLAR>
0

>  <SCORE.INTRA.POLAR.0>
0

>  <SCORE.INTRA.REPUL>
0

>  <SCORE.INTRA.REPUL.0>
0

>  <SCORE.INTRA.SOLV>
6.60898

>  <SCORE.INTRA.SOLV.lig_0>
-81.722

>  <SCORE.INTRA.VDW>
-0.053895

>  <SCORE.INTRA.VDW.0>
1.12598

>  <SCORE.INTRA.norm>
0.206806

>  <SCORE.RESTR>
3.33706

>  <SCORE.RESTR.CAVITY>
3.33706

>  <SCORE.RESTR.norm>
0.128348

>  <SCORE.SYSTEM>
0

>  <SCORE.SYSTEM.CONST>
0

>  <SCORE.SYSTEM.DIHEDRAL>
0

>  <SCORE.SYSTEM.SOLV>
0

>  <SCORE.SYSTEM.norm>
0

>  <SCORE.heavy>
26

>  <SCORE.norm>
1.20947

>  <RMSD>
14.573

$$$$
ligand
 OpenBabel11021811433D
libRbt.so/2013.1/901 2013/11/27
 26 27  0  0  0  0  0  0  0  0999 V2000
   28.7940   36.6776   63.6539 C   0  0  0  0  0  0  0  0  0  0  0  0
   36.3221   35.8881   60.3830 C   0  0  0  0  0  0  0  0  0  0  0  0
   37.0613   30.1248   58.3973 P   0  0  1  0  0  0  0  0  0  0  0  0
   37.9742   28.3783   60.0717 P   0  0  1  0  0  0  0  0  0  0  0  0
   33.8505   37.0292   61.0603 C   0  0  0  0  0  0  0  0  0  0  0  0
   32.2745   35.9785   62.7108 C   0  0  0  0  0  0  0  0  0  0  0  0
   32.5116   36.9372   61.7459 C   0  0  0  0  0  0  0  0  0  0  0  0
   31.4796   37.8196   61.4218 C   0  0  0  0  0  0  0  0  0  0  0  0
   31.6669   38.8002   60.4591 N   0  0  0  0  0  0  0  0  0  0  0  0
   30.3113   37.7023   62.0460 N   0  0  0  0  0  0  0  0  0  0  0  0
   30.1298   36.7755   62.9643 C   0  0  0  0  0  0  0  0  0  0  0  0
   31.0840   35.9268   63.2931 N   0  0  0  0  0  0  0  0  0  0  0  0
   36.6526   29.6032   57.0735 O   0  5  0  0  0  0  0  0  0  0  0  0
   37.5509   29.2055   61.3057 O   0  0  0  0  0  0  0  0  0  0  0  0
   33.3695   34.5928   58.1589 S   0  0  0  0  0  0  0  0  0  0  0  0
   32.8027   35.7458   59.3280 C   0  0  0  0  0  0  0  0  0  0  0  0
   35.8861   29.8629   59.4641 O   0  0  0  0  0  0  0  0  0  0  0  0
   36.7425   27.4606   59.5910 O   0  5  0  0  0  0  0  0  0  0  0  0
   33.9070   36.0574   59.9661 N   0  0  0  0  0  0  0  0  0  0  0  0
   38.4015   29.3729   58.8792 O   0  0  0  0  0  0  0  0  0  0  0  0
   39.1730   27.4769   60.4436 O   0  0  0  0  0  0  0  0  0  0  0  0
   35.0621   35.5188   59.6414 C   0  0  2  0  0  0  0  0  0  0  0  0
   35.0934   34.6165   58.6278 C   0  0  2  0  0  0  0  0  0  0  0  0
   36.2576   33.8514   58.0551 C   0  0  0  0  0  0  0  0  0  0  0  0
   36.0740   32.3573   58.3304 C   0  0  0  0  0  0  0  0  0  0  0  0
   37.3453   31.7061   58.2879 O   0  0  0  0  0  0  0  0  0  0  0  0
  1 11  1  0  0  0  0
  3 13  1  6  0  0  0
  3 17  2  0  0  0  0
  3 20  1  0  0  0  0
  3 26  1  0  0  0  0
  4 14  1  1  0  0  0
  4 18  1  0  0  0  0
  4 21  2  0  0  0  0
  4 20  1  0  0  0  0
  5 19  1  0  0  0  0
  5  7  1  0  0  0  0
  6  7  2  0  0  0  0
  6 12  1  0  0  0  0
  7  8  1  0  0  0  0
  8  9  1  0  0  0  0
  8 10  2  0  0  0  0
 10 11  1  0  0  0  0
 11 12  2  0  0  0  0
 15 23  1  0  0  0  0
 15 16  1  0  0  0  0
 16 19  1  0  0  0  0
 19 22  1  0  0  0  0
 22  2  1  1  0  0  0
 22 23  1  0  0  0  0
 23 24  1  6  0  0  0
 24 25  1  0  0  0  0
 25 26  1  0  0  0  0
M  CHG  2  13  -1  18  -1
M  END
>  <CHROM.1>
-107.74079550,31.22709965,82.67649134,-68.18515904,-65.92841420,-157.17624712
-172.97191465,80.12345869,34.86714098,33.13365761,59.99337740,2.67022488
0.84356839,-0.68621846

>  <Name>
ligand

>  <RI>
0

>  <Rbt.Current_Directory>
/home/itssahil/PROJECTS/Mol_Feturizer/New_Systems/rnas/2HOJ

>  <Rbt.Executable>
rbdock ($Id: //depot/dev/client3/rdock/2013.1/src/exe/rbdock.cxx#4 $)

>  <Rbt.Library>
libRbt.so (2013.1, Build901 2013/11/27)

>  <Rbt.Parameter_File>
/export/apps/rDock/src/rDock_2013.1_src/data/scripts/dock_solv.prm

>  <Rbt.Receptor>
prm/blind_docking_80.prm

>  <SCORE>
-8.06959

>  <SCORE.INTER>
-8.51521

>  <SCORE.INTER.CONST>
1

>  <SCORE.INTER.POLAR>
-1.58172

>  <SCORE.INTER.ROT>
8

>  <SCORE.INTER.SOLV>
35.6205

>  <SCORE.INTER.VDW>
-21.2112

>  <SCORE.INTER.norm>
-0.327508

>  <SCORE.INTRA>
-0.403577

>  <SCORE.INTRA.DIHEDRAL>
-1.63609

>  <SCORE.INTRA.DIHEDRAL.0>
11.6398

>  <SCORE.INTRA.POLAR>
0

>  <SCORE.INTRA.POLAR.0>
0

>  <SCORE.INTRA.REPUL>
0

>  <SCORE.INTRA.REPUL.0>
0

>  <SCORE.INTRA.SOLV>
2.27508

>  <SCORE.INTRA.SOLV.lig_0>
-81.722

>  <SCORE.INTRA.VDW>
-0.723072

>  <SCORE.INTRA.VDW.0>
1.12598

>  <SCORE.INTRA.norm>
-0.0155222

>  <SCORE.RESTR>
0.849197

>  <SCORE.RESTR.CAVITY>
0.849197

>  <SCORE.RESTR.norm>
0.0326614

>  <SCORE.SYSTEM>
0

>  <SCORE.SYSTEM.CONST>
0

>  <SCORE.SYSTEM.DIHEDRAL>
0

>  <SCORE.SYSTEM.SOLV>
0

>  <SCORE.SYSTEM.norm>
0

>  <SCORE.heavy>
26

>  <SCORE.norm>
-0.310369

>  <RMSD>
14.771

$$$$
ligand
 OpenBabel11021811433D
libRbt.so/2013.1/901 2013/11/27
 26 27  0  0  0  0  0  0  0  0999 V2000
   36.1625   28.1290   60.0860 C   0  0  0  0  0  0  0  0  0  0  0  0
   33.3383   35.3050   58.0541 C   0  0  0  0  0  0  0  0  0  0  0  0
   30.7690   36.4701   62.4800 P   0  0  1  0  0  0  0  0  0  0  0  0
   29.0753   36.0485   64.3880 P   0  0  1  0  0  0  0  0  0  0  0  0
   35.3666   33.3677   58.0026 C   0  0  0  0  0  0  0  0  0  0  0  0
   36.5996   31.1805   58.0887 C   0  0  0  0  0  0  0  0  0  0  0  0
   35.5760   31.9812   58.5549 C   0  0  0  0  0  0  0  0  0  0  0  0
   34.7402   31.4741   59.5513 C   0  0  0  0  0  0  0  0  0  0  0  0
   33.6973   32.2384   60.0529 N   0  0  0  0  0  0  0  0  0  0  0  0
   34.9551   30.2441   60.0087 N   0  0  0  0  0  0  0  0  0  0  0  0
   35.9469   29.5158   59.5387 C   0  0  0  0  0  0  0  0  0  0  0  0
   36.7540   29.9654   58.5976 N   0  0  0  0  0  0  0  0  0  0  0  0
   29.6271   37.0861   61.7671 O   0  5  0  0  0  0  0  0  0  0  0  0
   28.6956   35.1196   65.5625 O   0  0  0  0  0  0  0  0  0  0  0  0
   35.8045   35.5800   61.0847 S   0  0  0  0  0  0  0  0  0  0  0  0
   36.2567   34.2702   60.0371 C   0  0  0  0  0  0  0  0  0  0  0  0
   31.5633   37.6022   63.3017 O   0  0  0  0  0  0  0  0  0  0  0  0
   29.6196   37.4492   64.9642 O   0  5  0  0  0  0  0  0  0  0  0  0
   35.3354   34.3329   59.1037 N   0  0  0  0  0  0  0  0  0  0  0  0
   30.2229   35.3498   63.4999 O   0  0  0  0  0  0  0  0  0  0  0  0
   27.8293   36.3026   63.5100 O   0  0  0  0  0  0  0  0  0  0  0  0
   34.3886   35.2452   59.1344 C   0  0  2  0  0  0  0  0  0  0  0  0
   34.3737   36.1278   60.1656 C   0  0  2  0  0  0  0  0  0  0  0  0
   33.4191   37.2570   60.4530 C   0  0  0  0  0  0  0  0  0  0  0  0
   31.9797   36.7430   60.3768 C   0  0  0  0  0  0  0  0  0  0  0  0
   31.7616   35.7840   61.4136 O   0  0  0  0  0  0  0  0  0  0  0  0
  1 11  1  0  0  0  0
  3 13  1  6  0  0  0
  3 17  2  0  0  0  0
  3 20  1  0  0  0  0
  3 26  1  0  0  0  0
  4 14  1  1  0  0  0
  4 18  1  0  0  0  0
  4 21  2  0  0  0  0
  4 20  1  0  0  0  0
  5 19  1  0  0  0  0
  5  7  1  0  0  0  0
  6  7  2  0  0  0  0
  6 12  1  0  0  0  0
  7  8  1  0  0  0  0
  8  9  1  0  0  0  0
  8 10  2  0  0  0  0
 10 11  1  0  0  0  0
 11 12  2  0  0  0  0
 15 23  1  0  0  0  0
 15 16  1  0  0  0  0
 16 19  1  0  0  0  0
 19 22  1  0  0  0  0
 22  2  1  1  0  0  0
 22 23  1  0  0  0  0
 23 24  1  6  0  0  0
 24 25  1  0  0  0  0
 25 26  1  0  0  0  0
M  CHG  2  13  -1  18  -1
M  END
>  <CHROM.1>
-51.59222369,46.64192445,-126.44122321,-169.27463099,-129.59978248,64.72425735
109.92625395,47.71314065,32.89232182,34.56583255,61.18807018,0.48875356,-0.69910410
2.99452141

>  <Name>
ligand

>  <RI>
0

>  <Rbt.Current_Directory>
/home/itssahil/PROJECTS/Mol_Feturizer/New_Systems/rnas/2HOJ

>  <Rbt.Executable>
rbdock ($Id: //depot/dev/client3/rdock/2013.1/src/exe/rbdock.cxx#4 $)

>  <Rbt.Library>
libRbt.so (2013.1, Build901 2013/11/27)

>  <Rbt.Parameter_File>
/export/apps/rDock/src/rDock_2013.1_src/data/scripts/dock_solv.prm

>  <Rbt.Receptor>
prm/blind_docking_80.prm

>  <SCORE>
10.7961

>  <SCORE.INTER>
6.21872

>  <SCORE.INTER.CONST>
1

>  <SCORE.INTER.POLAR>
0

>  <SCORE.INTER.ROT>
8

>  <SCORE.INTER.SOLV>
36.4348

>  <SCORE.INTER.VDW>
-16.9324

>  <SCORE.INTER.norm>
0.239182

>  <SCORE.INTRA>
2.91531

>  <SCORE.INTRA.DIHEDRAL>
0.285667

>  <SCORE.INTRA.DIHEDRAL.0>
11.6398

>  <SCORE.INTRA.POLAR>
0

>  <SCORE.INTRA.POLAR.0>
0

>  <SCORE.INTRA.REPUL>
0.220453

>  <SCORE.INTRA.REPUL.0>
0

>  <SCORE.INTRA.SOLV>
7.15814

>  <SCORE.INTRA.SOLV.lig_0>
-81.722

>  <SCORE.INTRA.VDW>
-1.90886

>  <SCORE.INTRA.VDW.0>
1.12598

>  <SCORE.INTRA.norm>
0.112127

>  <SCORE.RESTR>
1.66212

>  <SCORE.RESTR.CAVITY>
1.66212

>  <SCORE.RESTR.norm>
0.0639276

>  <SCORE.SYSTEM>
0

>  <SCORE.SYSTEM.CONST>
0

>  <SCORE.SYSTEM.DIHEDRAL>
0

>  <SCORE.SYSTEM.SOLV>
0

>  <SCORE.SYSTEM.norm>
0

>  <SCORE.heavy>
26

>  <SCORE.norm>
0.415236

>  <RMSD>
14.850

$$$$
ligand
 OpenBabel11021811433D
libRbt.so/2013.1/901 2013/11/27
 26 27  0  0  0  0  0  0  0  0999 V2000
   28.2777   36.7416   63.6296 C   0  0  0  0  0  0  0  0  0  0  0  0
   35.1897   36.4826   59.2765 C   0  0  0  0  0  0  0  0  0  0  0  0
   37.0221   30.1309   57.9989 P   0  0  1  0  0  0  0  0  0  0  0  0
   37.2030   27.5579   57.8149 P   0  0  1  0  0  0  0  0  0  0  0  0
   33.5856   36.5761   61.5760 C   0  0  0  0  0  0  0  0  0  0  0  0
   31.7857   35.7721   63.1334 C   0  0  0  0  0  0  0  0  0  0  0  0
   32.1803   36.6210   62.1185 C   0  0  0  0  0  0  0  0  0  0  0  0
   31.2445   37.5222   61.6079 C   0  0  0  0  0  0  0  0  0  0  0  0
   31.5909   38.3956   60.5878 N   0  0  0  0  0  0  0  0  0  0  0  0
   30.0134   37.5270   62.1103 N   0  0  0  0  0  0  0  0  0  0  0  0
   29.6807   36.7025   63.0822 C   0  0  0  0  0  0  0  0  0  0  0  0
   30.5408   35.8392   63.5861 N   0  0  0  0  0  0  0  0  0  0  0  0
   36.5954   29.7627   59.3678 O   0  5  0  0  0  0  0  0  0  0  0  0
   38.5777   27.7799   58.4836 O   0  0  0  0  0  0  0  0  0  0  0  0
   33.8207   32.9702   60.3400 S   0  0  0  0  0  0  0  0  0  0  0  0
   33.2678   34.2047   61.4299 C   0  0  0  0  0  0  0  0  0  0  0  0
   38.5851   30.5112   58.0073 O   0  0  0  0  0  0  0  0  0  0  0  0
   36.1010   27.2387   58.9436 O   0  5  0  0  0  0  0  0  0  0  0  0
   33.8171   35.2849   60.9247 N   0  0  0  0  0  0  0  0  0  0  0  0
   36.7777   28.8852   57.0079 O   0  0  0  0  0  0  0  0  0  0  0  0
   37.2948   26.3673   56.8340 O   0  0  0  0  0  0  0  0  0  0  0  0
   34.5669   35.2327   59.8454 C   0  0  2  0  0  0  0  0  0  0  0  0
   34.7738   34.0262   59.2590 C   0  0  2  0  0  0  0  0  0  0  0  0
   35.5792   33.6756   58.0353 C   0  0  0  0  0  0  0  0  0  0  0  0
   36.4950   32.4898   58.3471 C   0  0  0  0  0  0  0  0  0  0  0  0
   36.1641   31.3952   57.4902 O   0  0  0  0  0  0  0  0  0  0  0  0
  1 11  1  0  0  0  0
  3 13  1  1  0  0  0
  3 17  2  0  0  0  0
  3 20  1  0  0  0  0
  3 26  1  0  0  0  0
  4 14  1  1  0  0  0
  4 18  1  0  0  0  0
  4 21  2  0  0  0  0
  4 20  1  0  0  0  0
  5 19  1  0  0  0  0
  5  7  1  0  0  0  0
  6  7  2  0  0  0  0
  6 12  1  0  0  0  0
  7  8  1  0  0  0  0
  8  9  1  0  0  0  0
  8 10  2  0  0  0  0
 10 11  1  0  0  0  0
 11 12  2  0  0  0  0
 15 23  1  0  0  0  0
 15 16  1  0  0  0  0
 16 19  1  0  0  0  0
 19 22  1  0  0  0  0
 22  2  1  1  0  0  0
 22 23  1  0  0  0  0
 23 24  1  6  0  0  0
 24 25  1  0  0  0  0
 25 26  1  0  0  0  0
M  CHG  2  13  -1  18  -1
M  END
>  <CHROM.1>
-40.30130263,-35.82698893,65.06793558,-47.56511484,-48.93509932,118.95659400
-172.65039556,64.14400955,34.61461688,32.70761178,59.76390635,2.34034917
0.66069633,-0.05532530

>  <Name>
ligand

>  <RI>
0

>  <Rbt.Current_Directory>
/home/itssahil/PROJECTS/Mol_Feturizer/New_Systems/rnas/2HOJ

>  <Rbt.Executable>
rbdock ($Id: //depot/dev/client3/rdock/2013.1/src/exe/rbdock.cxx#4 $)

>  <Rbt.Library>
libRbt.so (2013.1, Build901 2013/11/27)

>  <Rbt.Parameter_File>
/export/apps/rDock/src/rDock_2013.1_src/data/scripts/dock_solv.prm

>  <Rbt.Receptor>
prm/blind_docking_80.prm

>  <SCORE>
-8.41813

>  <SCORE.INTER>
-8.91927

>  <SCORE.INTER.CONST>
1

>  <SCORE.INTER.POLAR>
-1.38673

>  <SCORE.INTER.ROT>
8

>  <SCORE.INTER.SOLV>
25.484

>  <SCORE.INTER.VDW>
-18.7518

>  <SCORE.INTER.norm>
-0.343049

>  <SCORE.INTRA>
-0.885269

>  <SCORE.INTRA.DIHEDRAL>
0.109559

>  <SCORE.INTRA.DIHEDRAL.0>
11.6398

>  <SCORE.INTRA.POLAR>
0

>  <SCORE.INTRA.POLAR.0>
0

>  <SCORE.INTRA.REPUL>
0

>  <SCORE.INTRA.REPUL.0>
0

>  <SCORE.INTRA.SOLV>
1.55606

>  <SCORE.INTRA.SOLV.lig_0>
-81.722

>  <SCORE.INTRA.VDW>
-1.71808

>  <SCORE.INTRA.VDW.0>
1.12598

>  <SCORE.INTRA.norm>
-0.0340488

>  <SCORE.RESTR>
1.38641

>  <SCORE.RESTR.CAVITY>
1.38641

>  <SCORE.RESTR.norm>
0.0533234

>  <SCORE.SYSTEM>
0

>  <SCORE.SYSTEM.CONST>
0

>  <SCORE.SYSTEM.DIHEDRAL>
0

>  <SCORE.SYSTEM.SOLV>
0

>  <SCORE.SYSTEM.norm>
0

>  <SCORE.heavy>
26

>  <SCORE.norm>
-0.323774

>  <RMSD>
14.876

$$$$
ligand
 OpenBabel11021811433D
libRbt.so/2013.1/901 2013/11/27
 26 27  0  0  0  0  0  0  0  0999 V2000
   28.7014   36.8085   63.5539 C   0  0  0  0  0  0  0  0  0  0  0  0
   35.9016   36.4063   59.4954 C   0  0  0  0  0  0  0  0  0  0  0  0
   37.1213   29.9685   58.4848 P   0  0  1  0  0  0  0  0  0  0  0  0
   37.1603   27.5327   59.3519 P   0  0  1  0  0  0  0  0  0  0  0  0
   34.0375   36.5223   61.5885 C   0  0  0  0  0  0  0  0  0  0  0  0
   32.2236   35.8338   63.1846 C   0  0  0  0  0  0  0  0  0  0  0  0
   32.6247   36.5990   62.1076 C   0  0  0  0  0  0  0  0  0  0  0  0
   31.6885   37.4460   61.5120 C   0  0  0  0  0  0  0  0  0  0  0  0
   32.0413   38.2349   60.4273 N   0  0  0  0  0  0  0  0  0  0  0  0
   30.4507   37.4811   61.9967 N   0  0  0  0  0  0  0  0  0  0  0  0
   30.1118   36.7371   63.0295 C   0  0  0  0  0  0  0  0  0  0  0  0
   30.9722   35.9267   63.6143 N   0  0  0  0  0  0  0  0  0  0  0  0
   38.0181   30.1014   59.6551 O   0  5  0  0  0  0  0  0  0  0  0  0
   37.4403   27.9553   60.8112 O   0  0  0  0  0  0  0  0  0  0  0  0
   34.0940   32.9909   60.1356 S   0  0  0  0  0  0  0  0  0  0  0  0
   33.5245   34.2073   61.2371 C   0  0  0  0  0  0  0  0  0  0  0  0
   38.0014   29.8682   57.1420 O   0  0  0  0  0  0  0  0  0  0  0  0
   36.4108   26.1085   59.3387 O   0  5  0  0  0  0  0  0  0  0  0  0
   34.2294   35.2555   60.8791 N   0  0  0  0  0  0  0  0  0  0  0  0
   36.2281   28.6377   58.6422 O   0  0  0  0  0  0  0  0  0  0  0  0
   38.4967   27.4181   58.5845 O   0  0  0  0  0  0  0  0  0  0  0  0
   35.1005   35.1931   59.8957 C   0  0  2  0  0  0  0  0  0  0  0  0
   35.2677   34.0090   59.2536 C   0  0  2  0  0  0  0  0  0  0  0  0
   36.1845   33.6533   58.1126 C   0  0  0  0  0  0  0  0  0  0  0  0
   36.9953   32.4073   58.4761 C   0  0  0  0  0  0  0  0  0  0  0  0
   36.1551   31.2539   58.3992 O   0  0  0  0  0  0  0  0  0  0  0  0
  1 11  1  0  0  0  0
  3 13  1  1  0  0  0
  3 17  2  0  0  0  0
  3 20  1  0  0  0  0
  3 26  1  0  0  0  0
  4 14  1  1  0  0  0
  4 18  1  0  0  0  0
  4 21  2  0  0  0  0
  4 20  1  0  0  0  0
  5 19  1  0  0  0  0
  5  7  1  0  0  0  0
  6  7  2  0  0  0  0
  6 12  1  0  0  0  0
  7  8  1  0  0  0  0
  8  9  1  0  0  0  0
  8 10  2  0  0  0  0
 10 11  1  0  0  0  0
 11 12  2  0  0  0  0
 15 23  1  0  0  0  0
 15 16  1  0  0  0  0
 16 19  1  0  0  0  0
 19 22  1  0  0  0  0
 22  2  1  1  0  0  0
 22 23  1  0  0  0  0
 23 24  1  6  0  0  0
 24 25  1  0  0  0  0
 25 26  1  0  0  0  0
M  CHG  2  13  -1  18  -1
M  END
>  <CHROM.1>
-35.63604093,-29.01296383,73.14316554,68.50772644,-51.89407819,74.46731006
168.37877760,51.03770579,34.90316199,32.66020746,60.13970186,2.35424166,0.69211577
-0.19804134

>  <Name>
ligand

>  <RI>
0

>  <Rbt.Current_Directory>
/home/itssahil/PROJECTS/Mol_Feturizer/New_Systems/rnas/2HOJ

>  <Rbt.Executable>
rbdock ($Id: //depot/dev/client3/rdock/2013.1/src/exe/rbdock.cxx#4 $)

>  <Rbt.Library>
libRbt.so (2013.1, Build901 2013/11/27)

>  <Rbt.Parameter_File>
/export/apps/rDock/src/rDock_2013.1_src/data/scripts/dock_solv.prm

>  <Rbt.Receptor>
prm/blind_docking_80.prm

>  <SCORE>
-8.206

>  <SCORE.INTER>
-6.22883

>  <SCORE.INTER.CONST>
1

>  <SCORE.INTER.POLAR>
-0.692826

>  <SCORE.INTER.ROT>
8

>  <SCORE.INTER.SOLV>
27.6164

>  <SCORE.INTER.VDW>
-19.9819

>  <SCORE.INTER.norm>
-0.239571

>  <SCORE.INTRA>
-2.48445

>  <SCORE.INTRA.DIHEDRAL>
-4.00217

>  <SCORE.INTRA.DIHEDRAL.0>
11.6398

>  <SCORE.INTRA.POLAR>
0

>  <SCORE.INTRA.POLAR.0>
0

>  <SCORE.INTRA.REPUL>
0

>  <SCORE.INTRA.REPUL.0>
0

>  <SCORE.INTRA.SOLV>
2.00108

>  <SCORE.INTRA.SOLV.lig_0>
-81.722

>  <SCORE.INTRA.VDW>
-1.48391

>  <SCORE.INTRA.VDW.0>
1.12598

>  <SCORE.INTRA.norm>
-0.0955557

>  <SCORE.RESTR>
0.507284

>  <SCORE.RESTR.CAVITY>
0.507284

>  <SCORE.RESTR.norm>
0.0195109

>  <SCORE.SYSTEM>
0

>  <SCORE.SYSTEM.CONST>
0

>  <SCORE.SYSTEM.DIHEDRAL>
0

>  <SCORE.SYSTEM.SOLV>
0

>  <SCORE.SYSTEM.norm>
0

>  <SCORE.heavy>
26

>  <SCORE.norm>
-0.315615

>  <RMSD>
14.951

$$$$
ligand
 OpenBabel11021811433D
libRbt.so/2013.1/901 2013/11/27
 26 27  0  0  0  0  0  0  0  0999 V2000
   28.7988   36.6793   63.6847 C   0  0  0  0  0  0  0  0  0  0  0  0
   35.8882   36.7598   59.5098 C   0  0  0  0  0  0  0  0  0  0  0  0
   37.7611   30.2710   58.5010 P   0  0  1  0  0  0  0  0  0  0  0  0
   36.5581   28.0959   59.2140 P   0  0  1  0  0  0  0  0  0  0  0  0
   33.1834   37.2219   60.0931 C   0  0  0  0  0  0  0  0  0  0  0  0
   30.8436   37.7618   60.8317 C   0  0  0  0  0  0  0  0  0  0  0  0
   32.0237   37.0774   61.0446 C   0  0  0  0  0  0  0  0  0  0  0  0
   32.1152   36.2477   62.1635 C   0  0  0  0  0  0  0  0  0  0  0  0
   33.2790   35.5391   62.4222 N   0  0  0  0  0  0  0  0  0  0  0  0
   31.0714   36.1513   62.9817 N   0  0  0  0  0  0  0  0  0  0  0  0
   29.9623   36.8188   62.7380 C   0  0  0  0  0  0  0  0  0  0  0  0
   29.8439   37.6107   61.6902 N   0  0  0  0  0  0  0  0  0  0  0  0
   39.0369   29.6523   58.9266 O   0  5  0  0  0  0  0  0  0  0  0  0
   36.3401   27.7544   57.7233 O   0  0  0  0  0  0  0  0  0  0  0  0
   33.6249   33.6228   58.8943 S   0  0  0  0  0  0  0  0  0  0  0  0
   32.6800   34.9639   59.4653 C   0  0  0  0  0  0  0  0  0  0  0  0
   37.4848   29.9235   56.9548 O   0  0  0  0  0  0  0  0  0  0  0  0
   37.9694   27.4960   59.7024 O   0  5  0  0  0  0  0  0  0  0  0  0
   33.5895   35.8991   59.6131 N   0  0  0  0  0  0  0  0  0  0  0  0
   36.5585   29.6951   59.4042 O   0  0  0  0  0  0  0  0  0  0  0  0
   35.4179   27.4786   60.0548 O   0  0  0  0  0  0  0  0  0  0  0  0
   34.8555   35.6748   59.3361 C   0  0  2  0  0  0  0  0  0  0  0  0
   35.2131   34.4411   58.8972 C   0  0  2  0  0  0  0  0  0  0  0  0
   36.5702   33.9108   58.5152 C   0  0  0  0  0  0  0  0  0  0  0  0
   36.5321   32.3812   58.4831 C   0  0  0  0  0  0  0  0  0  0  0  0
   37.8505   31.8683   58.6851 O   0  0  0  0  0  0  0  0  0  0  0  0
  1 11  1  0  0  0  0
  3 13  1  1  0  0  0
  3 17  2  0  0  0  0
  3 20  1  0  0  0  0
  3 26  1  0  0  0  0
  4 14  1  6  0  0  0
  4 18  1  0  0  0  0
  4 21  2  0  0  0  0
  4 20  1  0  0  0  0
  5 19  1  0  0  0  0
  5  7  1  0  0  0  0
  6  7  2  0  0  0  0
  6 12  1  0  0  0  0
  7  8  1  0  0  0  0
  8  9  1  0  0  0  0
  8 10  2  0  0  0  0
 10 11  1  0  0  0  0
 11 12  2  0  0  0  0
 15 23  1  0  0  0  0
 15 16  1  0  0  0  0
 16 19  1  0  0  0  0
 19 22  1  0  0  0  0
 22  2  1  1  0  0  0
 22 23  1  0  0  0  0
 23 24  1  6  0  0  0
 24 25  1  0  0  0  0
 25 26  1  0  0  0  0
M  CHG  2  13  -1  18  -1
M  END
>  <CHROM.1>
-58.09506393,32.58763351,-124.90242814,-59.86130181,-16.74026400,-155.77166723
-174.75944531,-170.21629891,34.75946229,32.93678090,59.78946390,2.35200870
0.60233709,-0.15818406

>  <Name>
ligand

>  <RI>
0

>  <Rbt.Current_Directory>
/home/itssahil/PROJECTS/Mol_Feturizer/New_Systems/rnas/2HOJ

>  <Rbt.Executable>
rbdock ($Id: //depot/dev/client3/rdock/2013.1/src/exe/rbdock.cxx#4 $)

>  <Rbt.Library>
libRbt.so (2013.1, Build901 2013/11/27)

>  <Rbt.Parameter_File>
/export/apps/rDock/src/rDock_2013.1_src/data/scripts/dock_solv.prm

>  <Rbt.Receptor>
prm/blind_docking_80.prm

>  <SCORE>
-16.8412

>  <SCORE.INTER>
-14.1168

>  <SCORE.INTER.CONST>
1

>  <SCORE.INTER.POLAR>
-1.05024

>  <SCORE.INTER.ROT>
8

>  <SCORE.INTER.SOLV>
27.7059

>  <SCORE.INTER.VDW>
-24.079

>  <SCORE.INTER.norm>
-0.542955

>  <SCORE.INTRA>
-2.77664

>  <SCORE.INTRA.DIHEDRAL>
-4.75468

>  <SCORE.INTRA.DIHEDRAL.0>
11.6398

>  <SCORE.INTRA.POLAR>
0

>  <SCORE.INTRA.POLAR.0>
0

>  <SCORE.INTRA.REPUL>
0

>  <SCORE.INTRA.REPUL.0>
0

>  <SCORE.INTRA.SOLV>
3.77601

>  <SCORE.INTRA.SOLV.lig_0>
-81.722

>  <SCORE.INTRA.VDW>
-2.28731

>  <SCORE.INTRA.VDW.0>
1.12598

>  <SCORE.INTRA.norm>
-0.106794

>  <SCORE.RESTR>
0.0522241

>  <SCORE.RESTR.CAVITY>
0.0522241

>  <SCORE.RESTR.norm>
0.00200862

>  <SCORE.SYSTEM>
0

>  <SCORE.SYSTEM.CONST>
0

>  <SCORE.SYSTEM.DIHEDRAL>
0

>  <SCORE.SYSTEM.SOLV>
0

>  <SCORE.SYSTEM.norm>
0

>  <SCORE.heavy>
26

>  <SCORE.norm>
-0.64774

>  <RMSD>
14.955

$$$$
ligand
 OpenBabel11021811433D
libRbt.so/2013.1/901 2013/11/27
 26 27  0  0  0  0  0  0  0  0999 V2000
   29.1205   35.9788   64.2535 C   0  0  0  0  0  0  0  0  0  0  0  0
   35.5441   36.5537   59.0776 C   0  0  0  0  0  0  0  0  0  0  0  0
   37.1468   30.0630   58.0396 P   0  0  1  0  0  0  0  0  0  0  0  0
   36.5785   27.7763   59.1050 P   0  0  1  0  0  0  0  0  0  0  0  0
   32.9503   36.7915   60.1194 C   0  0  0  0  0  0  0  0  0  0  0  0
   30.6753   37.1287   61.1306 C   0  0  0  0  0  0  0  0  0  0  0  0
   31.9376   36.5756   61.2144 C   0  0  0  0  0  0  0  0  0  0  0  0
   32.2520   35.8110   62.3392 C   0  0  0  0  0  0  0  0  0  0  0  0
   33.5063   35.2344   62.4714 N   0  0  0  0  0  0  0  0  0  0  0  0
   31.3322   35.6483   63.2858 N   0  0  0  0  0  0  0  0  0  0  0  0
   30.1380   36.1903   63.1629 C   0  0  0  0  0  0  0  0  0  0  0  0
   29.8098   36.9180   62.1133 N   0  0  0  0  0  0  0  0  0  0  0  0
   37.7000   30.0850   59.4126 O   0  5  0  0  0  0  0  0  0  0  0  0
   35.8499   26.4260   58.9261 O   0  0  0  0  0  0  0  0  0  0  0  0
   33.5107   33.2097   58.9187 S   0  0  0  0  0  0  0  0  0  0  0  0
   32.5583   34.4788   59.6256 C   0  0  0  0  0  0  0  0  0  0  0  0
   38.3512   30.1087   56.9742 O   0  0  0  0  0  0  0  0  0  0  0  0
   38.1615   27.5196   59.2401 O   0  5  0  0  0  0  0  0  0  0  0  0
   33.3886   35.4956   59.5966 N   0  0  0  0  0  0  0  0  0  0  0  0
   36.2927   28.7143   57.8274 O   0  0  0  0  0  0  0  0  0  0  0  0
   36.0597   28.4752   60.3819 O   0  0  0  0  0  0  0  0  0  0  0  0
   34.6026   35.3761   59.1052 C   0  0  2  0  0  0  0  0  0  0  0  0
   34.9921   34.1657   58.6299 C   0  0  2  0  0  0  0  0  0  0  0  0
   36.3058   33.7464   58.0240 C   0  0  0  0  0  0  0  0  0  0  0  0
   36.7355   32.4009   58.6131 C   0  0  0  0  0  0  0  0  0  0  0  0
   36.1906   31.3408   57.8248 O   0  0  0  0  0  0  0  0  0  0  0  0
  1 11  1  0  0  0  0
  3 13  1  1  0  0  0
  3 17  2  0  0  0  0
  3 20  1  0  0  0  0
  3 26  1  0  0  0  0
  4 14  1  6  0  0  0
  4 18  1  0  0  0  0
  4 21  2  0  0  0  0
  4 20  1  0  0  0  0
  5 19  1  0  0  0  0
  5  7  1  0  0  0  0
  6  7  2  0  0  0  0
  6 12  1  0  0  0  0
  7  8  1  0  0  0  0
  8  9  1  0  0  0  0
  8 10  2  0  0  0  0
 10 11  1  0  0  0  0
 11 12  2  0  0  0  0
 15 23  1  0  0  0  0
 15 16  1  0  0  0  0
 16 19  1  0  0  0  0
 19 22  1  0  0  0  0
 22  2  1  1  0  0  0
 22 23  1  0  0  0  0
 23 24  1  6  0  0  0
 24 25  1  0  0  0  0
 25 26  1  0  0  0  0
M  CHG  2  13  -1  18  -1
M  END
>  <CHROM.1>
-9.76688902,29.68281741,-122.53192753,-176.78117973,-44.82839744,88.99265137
155.20611801,32.46891460,34.61059543,32.61096779,59.75617014,2.44938568,0.74497606
-0.27425107

>  <Name>
ligand

>  <RI>
0

>  <Rbt.Current_Directory>
/home/itssahil/PROJECTS/Mol_Feturizer/New_Systems/rnas/2HOJ

>  <Rbt.Executable>
rbdock ($Id: //depot/dev/client3/rdock/2013.1/src/exe/rbdock.cxx#4 $)

>  <Rbt.Library>
libRbt.so (2013.1, Build901 2013/11/27)

>  <Rbt.Parameter_File>
/export/apps/rDock/src/rDock_2013.1_src/data/scripts/dock_solv.prm

>  <Rbt.Receptor>
prm/blind_docking_80.prm

>  <SCORE>
-8.31398

>  <SCORE.INTER>
-12.983

>  <SCORE.INTER.CONST>
1

>  <SCORE.INTER.POLAR>
-1.40096

>  <SCORE.INTER.ROT>
8

>  <SCORE.INTER.SOLV>
25.091

>  <SCORE.INTER.VDW>
-21.2824

>  <SCORE.INTER.norm>
-0.499345

>  <SCORE.INTRA>
4.34394

>  <SCORE.INTRA.DIHEDRAL>
1.97434

>  <SCORE.INTRA.DIHEDRAL.0>
11.6398

>  <SCORE.INTRA.POLAR>
0

>  <SCORE.INTRA.POLAR.0>
0

>  <SCORE.INTRA.REPUL>
0

>  <SCORE.INTRA.REPUL.0>
0

>  <SCORE.INTRA.SOLV>
5.86387

>  <SCORE.INTRA.SOLV.lig_0>
-81.722

>  <SCORE.INTRA.VDW>
0.424835

>  <SCORE.INTRA.VDW.0>
1.12598

>  <SCORE.INTRA.norm>
0.167075

>  <SCORE.RESTR>
0.325038

>  <SCORE.RESTR.CAVITY>
0.325038

>  <SCORE.RESTR.norm>
0.0125014

>  <SCORE.SYSTEM>
0

>  <SCORE.SYSTEM.CONST>
0

>  <SCORE.SYSTEM.DIHEDRAL>
0

>  <SCORE.SYSTEM.SOLV>
0

>  <SCORE.SYSTEM.norm>
0

>  <SCORE.heavy>
26

>  <SCORE.norm>
-0.319769

>  <RMSD>
15.018

$$$$
ligand
 OpenBabel11021811433D
libRbt.so/2013.1/901 2013/11/27
 26 27  0  0  0  0  0  0  0  0999 V2000
   28.6032   36.8222   63.6201 C   0  0  0  0  0  0  0  0  0  0  0  0
   35.3036   36.1913   58.7269 C   0  0  0  0  0  0  0  0  0  0  0  0
   36.9062   29.9379   58.5721 P   0  0  1  0  0  0  0  0  0  0  0  0
   37.1279   27.3831   58.9048 P   0  0  1  0  0  0  0  0  0  0  0  0
   33.6218   36.5194   60.9481 C   0  0  0  0  0  0  0  0  0  0  0  0
   31.2763   37.3927   61.1663 C   0  0  0  0  0  0  0  0  0  0  0  0
   32.2940   36.5987   61.6564 C   0  0  0  0  0  0  0  0  0  0  0  0
   32.0616   35.8708   62.8247 C   0  0  0  0  0  0  0  0  0  0  0  0
   33.0515   35.0590   63.3580 N   0  0  0  0  0  0  0  0  0  0  0  0
   30.8781   35.9718   63.4225 N   0  0  0  0  0  0  0  0  0  0  0  0
   29.9331   36.7380   62.9176 C   0  0  0  0  0  0  0  0  0  0  0  0
   30.1209   37.4384   61.8161 N   0  0  0  0  0  0  0  0  0  0  0  0
   38.2384   30.0990   59.1973 O   0  5  0  0  0  0  0  0  0  0  0  0
   38.4316   27.5223   59.7216 O   0  0  0  0  0  0  0  0  0  0  0  0
   33.6692   32.8399   59.9264 S   0  0  0  0  0  0  0  0  0  0  0  0
   33.1563   34.1681   60.9214 C   0  0  0  0  0  0  0  0  0  0  0  0
   37.0778   29.7416   56.9847 O   0  0  0  0  0  0  0  0  0  0  0  0
   36.3699   26.0280   59.3281 O   0  5  0  0  0  0  0  0  0  0  0  0
   33.7937   35.1804   60.3803 N   0  0  0  0  0  0  0  0  0  0  0  0
   36.1735   28.6471   59.1969 O   0  0  0  0  0  0  0  0  0  0  0  0
   37.4681   27.3334   57.3982 O   0  0  0  0  0  0  0  0  0  0  0  0
   34.5794   35.0183   59.3380 C   0  0  2  0  0  0  0  0  0  0  0  0
   34.7297   33.7690   58.8291 C   0  0  2  0  0  0  0  0  0  0  0  0
   35.5570   33.2977   57.6619 C   0  0  0  0  0  0  0  0  0  0  0  0
   36.6338   32.3286   58.1552 C   0  0  0  0  0  0  0  0  0  0  0  0
   36.0160   31.2489   58.8584 O   0  0  0  0  0  0  0  0  0  0  0  0
  1 11  1  0  0  0  0
  3 13  1  1  0  0  0
  3 17  2  0  0  0  0
  3 20  1  0  0  0  0
  3 26  1  0  0  0  0
  4 14  1  1  0  0  0
  4 18  1  0  0  0  0
  4 21  2  0  0  0  0
  4 20  1  0  0  0  0
  5 19  1  0  0  0  0
  5  7  1  0  0  0  0
  6  7  2  0  0  0  0
  6 12  1  0  0  0  0
  7  8  1  0  0  0  0
  8  9  1  0  0  0  0
  8 10  2  0  0  0  0
 10 11  1  0  0  0  0
 11 12  2  0  0  0  0
 15 23  1  0  0  0  0
 15 16  1  0  0  0  0
 16 19  1  0  0  0  0
 19 22  1  0  0  0  0
 22  2  1  1  0  0  0
 22 23  1  0  0  0  0
 23 24  1  6  0  0  0
 24 25  1  0  0  0  0
 25 26  1  0  0  0  0
M  CHG  2  13  -1  18  -1
M  END
>  <CHROM.1>
-58.80856420,-25.30340871,-112.02479095,67.35430107,-63.47432519,56.23618268
146.30357536,66.49957681,34.67578002,32.46347358,59.94748099,2.45038099,0.77390026
-0.29570216

>  <Name>
ligand

>  <RI>
0

>  <Rbt.Current_Directory>
/home/itssahil/PROJECTS/Mol_Feturizer/New_Systems/rnas/2HOJ

>  <Rbt.Executable>
rbdock ($Id: //depot/dev/client3/rdock/2013.1/src/exe/rbdock.cxx#4 $)

>  <Rbt.Library>
libRbt.so (2013.1, Build901 2013/11/27)

>  <Rbt.Parameter_File>
/export/apps/rDock/src/rDock_2013.1_src/data/scripts/dock_solv.prm

>  <Rbt.Receptor>
prm/blind_docking_80.prm

>  <SCORE>
-4.87545

>  <SCORE.INTER>
-5.51077

>  <SCORE.INTER.CONST>
1

>  <SCORE.INTER.POLAR>
-0.739679

>  <SCORE.INTER.ROT>
8

>  <SCORE.INTER.SOLV>
27.2847

>  <SCORE.INTER.VDW>
-19.2365

>  <SCORE.INTER.norm>
-0.211953

>  <SCORE.INTRA>
-0.190932

>  <SCORE.INTRA.DIHEDRAL>
-1.97198

>  <SCORE.INTRA.DIHEDRAL.0>
11.6398

>  <SCORE.INTRA.POLAR>
0

>  <SCORE.INTRA.POLAR.0>
0

>  <SCORE.INTRA.REPUL>
0

>  <SCORE.INTRA.REPUL.0>
0

>  <SCORE.INTRA.SOLV>
3.42186

>  <SCORE.INTRA.SOLV.lig_0>
-81.722

>  <SCORE.INTRA.VDW>
-0.915873

>  <SCORE.INTRA.VDW.0>
1.12598

>  <SCORE.INTRA.norm>
-0.00734353

>  <SCORE.RESTR>
0.826252

>  <SCORE.RESTR.CAVITY>
0.826252

>  <SCORE.RESTR.norm>
0.0317789

>  <SCORE.SYSTEM>
0

>  <SCORE.SYSTEM.CONST>
0

>  <SCORE.SYSTEM.DIHEDRAL>
0

>  <SCORE.SYSTEM.SOLV>
0

>  <SCORE.SYSTEM.norm>
0

>  <SCORE.heavy>
26

>  <SCORE.norm>
-0.187517

>  <RMSD>
15.022

$$$$
ligand
 OpenBabel11021811433D
libRbt.so/2013.1/901 2013/11/27
 26 27  0  0  0  0  0  0  0  0999 V2000
   29.2387   39.2012   60.7865 C   0  0  0  0  0  0  0  0  0  0  0  0
   33.5490   33.3486   60.2322 C   0  0  0  0  0  0  0  0  0  0  0  0
   37.1857   29.9795   58.0442 P   0  0  1  0  0  0  0  0  0  0  0  0
   37.1685   28.2270   59.9457 P   0  0  1  0  0  0  0  0  0  0  0  0
   33.6670   35.7395   61.6949 C   0  0  0  0  0  0  0  0  0  0  0  0
   32.5646   37.6656   60.5174 C   0  0  0  0  0  0  0  0  0  0  0  0
   32.4942   36.6550   61.4555 C   0  0  0  0  0  0  0  0  0  0  0  0
   31.3086   36.5027   62.1766 C   0  0  0  0  0  0  0  0  0  0  0  0
   31.1873   35.5033   63.1305 N   0  0  0  0  0  0  0  0  0  0  0  0
   30.2984   37.3342   61.9393 N   0  0  0  0  0  0  0  0  0  0  0  0
   30.4070   38.2822   61.0312 C   0  0  0  0  0  0  0  0  0  0  0  0
   31.5130   38.4527   60.3336 N   0  0  0  0  0  0  0  0  0  0  0  0
   38.5726   30.4690   58.2130 O   0  5  0  0  0  0  0  0  0  0  0  0
   36.4431   27.0868   59.1974 O   0  0  0  0  0  0  0  0  0  0  0  0
   35.9088   36.0248   58.6162 S   0  0  0  0  0  0  0  0  0  0  0  0
   35.1950   36.6329   60.0784 C   0  0  0  0  0  0  0  0  0  0  0  0
   37.1917   28.6491   57.1398 O   0  0  0  0  0  0  0  0  0  0  0  0
   38.7396   28.1834   59.5996 O   0  5  0  0  0  0  0  0  0  0  0  0
   34.4534   35.6208   60.4651 N   0  0  0  0  0  0  0  0  0  0  0  0
   36.5560   29.6445   59.4881 O   0  0  0  0  0  0  0  0  0  0  0  0
   36.9717   28.0495   61.4681 O   0  0  0  0  0  0  0  0  0  0  0  0
   34.4046   34.5027   59.7742 C   0  0  2  0  0  0  0  0  0  0  0  0
   35.1366   34.4137   58.6346 C   0  0  2  0  0  0  0  0  0  0  0  0
   35.2653   33.2731   57.6593 C   0  0  0  0  0  0  0  0  0  0  0  0
   36.1221   32.1655   58.2764 C   0  0  0  0  0  0  0  0  0  0  0  0
   36.2988   31.1146   57.3243 O   0  0  0  0  0  0  0  0  0  0  0  0
  1 11  1  0  0  0  0
  3 13  1  1  0  0  0
  3 17  2  0  0  0  0
  3 20  1  0  0  0  0
  3 26  1  0  0  0  0
  4 14  1  6  0  0  0
  4 18  1  0  0  0  0
  4 21  2  0  0  0  0
  4 20  1  0  0  0  0
  5 19  1  0  0  0  0
  5  7  1  0  0  0  0
  6  7  2  0  0  0  0
  6 12  1  0  0  0  0
  7  8  1  0  0  0  0
  8  9  1  0  0  0  0
  8 10  2  0  0  0  0
 10 11  1  0  0  0  0
 11 12  2  0  0  0  0
 15 23  1  0  0  0  0
 15 16  1  0  0  0  0
 16 19  1  0  0  0  0
 19 22  1  0  0  0  0
 22  2  1  6  0  0  0
 22 23  1  0  0  0  0
 23 24  1  1  0  0  0
 24 25  1  0  0  0  0
 25 26  1  0  0  0  0
M  CHG  2  13  -1  18  -1
M  END
>  <CHROM.1>
-77.59855984,73.15620612,-28.69986303,-77.61236191,106.08754698,-177.09508132
-179.15901102,-70.60907479,34.93048321,33.07825679,59.71452507,2.42011255
0.76946871,-0.43005808

>  <Name>
ligand

>  <RI>
0

>  <Rbt.Current_Directory>
/home/itssahil/PROJECTS/Mol_Feturizer/New_Systems/rnas/2HOJ

>  <Rbt.Executable>
rbdock ($Id: //depot/dev/client3/rdock/2013.1/src/exe/rbdock.cxx#4 $)

>  <Rbt.Library>
libRbt.so (2013.1, Build901 2013/11/27)

>  <Rbt.Parameter_File>
/export/apps/rDock/src/rDock_2013.1_src/data/scripts/dock_solv.prm

>  <Rbt.Receptor>
prm/blind_docking_80.prm

>  <SCORE>
-18.2313

>  <SCORE.INTER>
-13.7023

>  <SCORE.INTER.CONST>
1

>  <SCORE.INTER.POLAR>
-1.11886

>  <SCORE.INTER.ROT>
8

>  <SCORE.INTER.SOLV>
30.4254

>  <SCORE.INTER.VDW>
-24.4805

>  <SCORE.INTER.norm>
-0.52701

>  <SCORE.INTRA>
-4.529

>  <SCORE.INTRA.DIHEDRAL>
-5.84426

>  <SCORE.INTRA.DIHEDRAL.0>
11.6398

>  <SCORE.INTRA.POLAR>
0

>  <SCORE.INTRA.POLAR.0>
0

>  <SCORE.INTRA.REPUL>
0

>  <SCORE.INTRA.REPUL.0>
0

>  <SCORE.INTRA.SOLV>
1.85119

>  <SCORE.INTRA.SOLV.lig_0>
-81.722

>  <SCORE.INTRA.VDW>
-2.53246

>  <SCORE.INTRA.VDW.0>
1.12598

>  <SCORE.INTRA.norm>
-0.174192

>  <SCORE.RESTR>
0

>  <SCORE.RESTR.CAVITY>
0

>  <SCORE.RESTR.norm>
0

>  <SCORE.SYSTEM>
0

>  <SCORE.SYSTEM.CONST>
0

>  <SCORE.SYSTEM.DIHEDRAL>
0

>  <SCORE.SYSTEM.SOLV>
0

>  <SCORE.SYSTEM.norm>
0

>  <SCORE.heavy>
26

>  <SCORE.norm>
-0.701203

>  <RMSD>
15.051

$$$$
ligand
 OpenBabel11021811433D
libRbt.so/2013.1/901 2013/11/27
 26 27  0  0  0  0  0  0  0  0999 V2000
   29.8915   39.5565   60.6353 C   0  0  0  0  0  0  0  0  0  0  0  0
   33.3136   33.1631   59.9087 C   0  0  0  0  0  0  0  0  0  0  0  0
   37.4102   29.8323   58.2450 P   0  0  1  0  0  0  0  0  0  0  0  0
   36.6648   28.0096   59.9210 P   0  0  1  0  0  0  0  0  0  0  0  0
   33.3677   35.2079   61.8284 C   0  0  0  0  0  0  0  0  0  0  0  0
   32.7551   37.2593   60.5138 C   0  0  0  0  0  0  0  0  0  0  0  0
   32.4467   36.3585   61.5138 C   0  0  0  0  0  0  0  0  0  0  0  0
   31.2598   36.5404   62.2257 C   0  0  0  0  0  0  0  0  0  0  0  0
   30.9049   35.6636   63.2400 N   0  0  0  0  0  0  0  0  0  0  0  0
   30.4767   37.5710   61.9209 N   0  0  0  0  0  0  0  0  0  0  0  0
   30.8073   38.4040   60.9555 C   0  0  0  0  0  0  0  0  0  0  0  0
   31.9212   38.2601   60.2646 N   0  0  0  0  0  0  0  0  0  0  0  0
   38.0177   30.2849   59.5169 O   0  5  0  0  0  0  0  0  0  0  0  0
   36.5651   28.9992   61.1030 O   0  0  0  0  0  0  0  0  0  0  0  0
   36.3803   35.5668   59.5087 S   0  0  0  0  0  0  0  0  0  0  0  0
   35.3893   36.0479   60.8518 C   0  0  0  0  0  0  0  0  0  0  0  0
   38.5386   29.1507   57.3231 O   0  0  0  0  0  0  0  0  0  0  0  0
   35.6733   26.7675   60.1744 O   0  5  0  0  0  0  0  0  0  0  0  0
   34.4342   35.1473   60.8265 N   0  0  0  0  0  0  0  0  0  0  0  0
   36.2509   28.7588   58.5568 O   0  0  0  0  0  0  0  0  0  0  0  0
   38.1167   27.4935   59.8038 O   0  0  0  0  0  0  0  0  0  0  0  0
   34.4168   34.1910   59.9237 C   0  0  2  0  0  0  0  0  0  0  0  0
   35.4112   34.1545   59.0005 C   0  0  2  0  0  0  0  0  0  0  0  0
   35.6369   33.1898   57.8660 C   0  0  0  0  0  0  0  0  0  0  0  0
   35.9912   31.8113   58.4284 C   0  0  0  0  0  0  0  0  0  0  0  0
   36.7760   31.0951   57.4728 O   0  0  0  0  0  0  0  0  0  0  0  0
  1 11  1  0  0  0  0
  3 13  1  1  0  0  0
  3 17  2  0  0  0  0
  3 20  1  0  0  0  0
  3 26  1  0  0  0  0
  4 14  1  1  0  0  0
  4 18  1  0  0  0  0
  4 21  2  0  0  0  0
  4 20  1  0  0  0  0
  5 19  1  0  0  0  0
  5  7  1  0  0  0  0
  6  7  2  0  0  0  0
  6 12  1  0  0  0  0
  7  8  1  0  0  0  0
  8  9  1  0  0  0  0
  8 10  2  0  0  0  0
 10 11  1  0  0  0  0
 11 12  2  0  0  0  0
 15 23  1  0  0  0  0
 15 16  1  0  0  0  0
 16 19  1  0  0  0  0
 19 22  1  0  0  0  0
 22  2  1  6  0  0  0
 22 23  1  0  0  0  0
 23 24  1  1  0  0  0
 24 25  1  0  0  0  0
 25 26  1  0  0  0  0
M  CHG  2  13  -1  18  -1
M  END
>  <CHROM.1>
-29.30244085,73.18670200,-7.54277608,68.63223529,111.69566591,-153.55360187
166.44246158,-48.43943731,34.96459084,32.90719398,59.90423343,-2.29352215
-0.67223567,2.87830976

>  <Name>
ligand

>  <RI>
0

>  <Rbt.Current_Directory>
/home/itssahil/PROJECTS/Mol_Feturizer/New_Systems/rnas/2HOJ

>  <Rbt.Executable>
rbdock ($Id: //depot/dev/client3/rdock/2013.1/src/exe/rbdock.cxx#4 $)

>  <Rbt.Library>
libRbt.so (2013.1, Build901 2013/11/27)

>  <Rbt.Parameter_File>
/export/apps/rDock/src/rDock_2013.1_src/data/scripts/dock_solv.prm

>  <Rbt.Receptor>
prm/blind_docking_80.prm

>  <SCORE>
-14.2873

>  <SCORE.INTER>
-13.0216

>  <SCORE.INTER.CONST>
1

>  <SCORE.INTER.POLAR>
-2.30706

>  <SCORE.INTER.ROT>
8

>  <SCORE.INTER.SOLV>
32.3497

>  <SCORE.INTER.VDW>
-20.7074

>  <SCORE.INTER.norm>
-0.50083

>  <SCORE.INTRA>
-1.908

>  <SCORE.INTRA.DIHEDRAL>
-2.35517

>  <SCORE.INTRA.DIHEDRAL.0>
11.6398

>  <SCORE.INTRA.POLAR>
0

>  <SCORE.INTRA.POLAR.0>
0

>  <SCORE.INTRA.REPUL>
0

>  <SCORE.INTRA.REPUL.0>
0

>  <SCORE.INTRA.SOLV>
1.12125

>  <SCORE.INTRA.SOLV.lig_0>
-81.722

>  <SCORE.INTRA.VDW>
-1.29104

>  <SCORE.INTRA.VDW.0>
1.12598

>  <SCORE.INTRA.norm>
-0.0733845

>  <SCORE.RESTR>
0.642254

>  <SCORE.RESTR.CAVITY>
0.642254

>  <SCORE.RESTR.norm>
0.0247021

>  <SCORE.SYSTEM>
0

>  <SCORE.SYSTEM.CONST>
0

>  <SCORE.SYSTEM.DIHEDRAL>
0

>  <SCORE.SYSTEM.SOLV>
0

>  <SCORE.SYSTEM.norm>
0

>  <SCORE.heavy>
26

>  <SCORE.norm>
-0.549512

>  <RMSD>
15.062

$$$$
ligand
 OpenBabel11021811433D
libRbt.so/2013.1/901 2013/11/27
 26 27  0  0  0  0  0  0  0  0999 V2000
   29.4097   38.4704   61.1118 C   0  0  0  0  0  0  0  0  0  0  0  0
   36.3886   35.5588   61.0590 C   0  0  0  0  0  0  0  0  0  0  0  0
   37.6589   30.0076   58.3610 P   0  0  1  0  0  0  0  0  0  0  0  0
   36.2672   28.3002   59.7156 P   0  0  1  0  0  0  0  0  0  0  0  0
   34.0069   35.4279   62.5355 C   0  0  0  0  0  0  0  0  0  0  0  0
   31.5675   35.9896   62.7493 C   0  0  0  0  0  0  0  0  0  0  0  0
   32.7909   36.2339   62.1576 C   0  0  0  0  0  0  0  0  0  0  0  0
   32.8729   37.2469   61.2007 C   0  0  0  0  0  0  0  0  0  0  0  0
   34.0784   37.5313   60.5768 N   0  0  0  0  0  0  0  0  0  0  0  0
   31.7759   37.9320   60.8915 N   0  0  0  0  0  0  0  0  0  0  0  0
   30.6295   37.6688   61.4844 C   0  0  0  0  0  0  0  0  0  0  0  0
   30.5186   36.7185   62.3919 N   0  0  0  0  0  0  0  0  0  0  0  0
   38.9182   30.7851   58.3964 O   0  5  0  0  0  0  0  0  0  0  0  0
   35.5415   27.8908   58.4148 O   0  0  0  0  0  0  0  0  0  0  0  0
   34.1043   32.5485   60.0284 S   0  0  0  0  0  0  0  0  0  0  0  0
   33.3691   33.4746   61.3009 C   0  0  0  0  0  0  0  0  0  0  0  0
   37.4013   29.4697   56.8670 O   0  0  0  0  0  0  0  0  0  0  0  0
   36.3044   27.0492   60.7274 O   0  5  0  0  0  0  0  0  0  0  0  0
   34.2610   34.4157   61.5079 N   0  0  0  0  0  0  0  0  0  0  0  0
   37.7722   28.7574   59.3699 O   0  0  0  0  0  0  0  0  0  0  0  0
   35.5124   29.4750   60.3773 O   0  0  0  0  0  0  0  0  0  0  0  0
   35.3746   34.4708   60.8104 C   0  0  2  0  0  0  0  0  0  0  0  0
   35.5943   33.5209   59.8659 C   0  0  2  0  0  0  0  0  0  0  0  0
   36.7659   33.3395   58.9368 C   0  0  0  0  0  0  0  0  0  0  0  0
   36.5140   32.1380   58.0231 C   0  0  0  0  0  0  0  0  0  0  0  0
   36.4329   30.9492   58.8120 O   0  0  0  0  0  0  0  0  0  0  0  0
  1 11  1  0  0  0  0
  3 13  1  1  0  0  0
  3 17  2  0  0  0  0
  3 20  1  0  0  0  0
  3 26  1  0  0  0  0
  4 14  1  6  0  0  0
  4 18  1  0  0  0  0
  4 21  2  0  0  0  0
  4 20  1  0  0  0  0
  5 19  1  0  0  0  0
  5  7  1  0  0  0  0
  6  7  2  0  0  0  0
  6 12  1  0  0  0  0
  7  8  1  0  0  0  0
  8  9  1  0  0  0  0
  8 10  2  0  0  0  0
 10 11  1  0  0  0  0
 11 12  2  0  0  0  0
 15 23  1  0  0  0  0
 15 16  1  0  0  0  0
 16 19  1  0  0  0  0
 19 22  1  0  0  0  0
 22  2  1  1  0  0  0
 22 23  1  0  0  0  0
 23 24  1  6  0  0  0
 24 25  1  0  0  0  0
 25 26  1  0  0  0  0
M  CHG  2  13  -1  18  -1
M  END
>  <CHROM.1>
158.99002548,-63.49639160,101.46872556,60.00194400,1.70212230,-63.54287782
-116.64702408,50.97275528,34.95929467,32.72424446,60.10628787,2.20644922
0.51489028,-0.02430916

>  <Name>
ligand

>  <RI>
0

>  <Rbt.Current_Directory>
/home/itssahil/PROJECTS/Mol_Feturizer/New_Systems/rnas/2HOJ

>  <Rbt.Executable>
rbdock ($Id: //depot/dev/client3/rdock/2013.1/src/exe/rbdock.cxx#4 $)

>  <Rbt.Library>
libRbt.so (2013.1, Build901 2013/11/27)

>  <Rbt.Parameter_File>
/export/apps/rDock/src/rDock_2013.1_src/data/scripts/dock_solv.prm

>  <Rbt.Receptor>
prm/blind_docking_80.prm

>  <SCORE>
-11.0569

>  <SCORE.INTER>
-11.1227

>  <SCORE.INTER.CONST>
1

>  <SCORE.INTER.POLAR>
-2.49725

>  <SCORE.INTER.ROT>
8

>  <SCORE.INTER.SOLV>
33.9422

>  <SCORE.INTER.VDW>
-19.3384

>  <SCORE.INTER.norm>
-0.427796

>  <SCORE.INTRA>
0.0259163

>  <SCORE.INTRA.DIHEDRAL>
0.901577

>  <SCORE.INTRA.DIHEDRAL.0>
11.6398

>  <SCORE.INTRA.POLAR>
0

>  <SCORE.INTRA.POLAR.0>
0

>  <SCORE.INTRA.REPUL>
0

>  <SCORE.INTRA.REPUL.0>
0

>  <SCORE.INTRA.SOLV>
3.78925

>  <SCORE.INTRA.SOLV.lig_0>
-81.722

>  <SCORE.INTRA.VDW>
-2.3195

>  <SCORE.INTRA.VDW.0>
1.12598

>  <SCORE.INTRA.norm>
0.000996782

>  <SCORE.RESTR>
0.0398571

>  <SCORE.RESTR.CAVITY>
0.0398571

>  <SCORE.RESTR.norm>
0.00153297

>  <SCORE.SYSTEM>
0

>  <SCORE.SYSTEM.CONST>
0

>  <SCORE.SYSTEM.DIHEDRAL>
0

>  <SCORE.SYSTEM.SOLV>
0

>  <SCORE.SYSTEM.norm>
0

>  <SCORE.heavy>
26

>  <SCORE.norm>
-0.425266

>  <RMSD>
15.074

$$$$
ligand
 OpenBabel11021811433D
libRbt.so/2013.1/901 2013/11/27
 26 27  0  0  0  0  0  0  0  0999 V2000
   29.2657   39.2211   60.8553 C   0  0  0  0  0  0  0  0  0  0  0  0
   35.8898   34.6696   61.2583 C   0  0  0  0  0  0  0  0  0  0  0  0
   37.8229   29.8660   58.0552 P   0  0  1  0  0  0  0  0  0  0  0  0
   37.1128   28.2217   59.9203 P   0  0  1  0  0  0  0  0  0  0  0  0
   33.1758   35.1804   61.7512 C   0  0  0  0  0  0  0  0  0  0  0  0
   30.8560   36.1131   61.9969 C   0  0  0  0  0  0  0  0  0  0  0  0
   32.1418   36.2507   61.5133 C   0  0  0  0  0  0  0  0  0  0  0  0
   32.4600   37.4068   60.7985 C   0  0  0  0  0  0  0  0  0  0  0  0
   33.7374   37.5927   60.2913 N   0  0  0  0  0  0  0  0  0  0  0  0
   31.5180   38.3253   60.6057 N   0  0  0  0  0  0  0  0  0  0  0  0
   30.3045   38.1555   61.0891 C   0  0  0  0  0  0  0  0  0  0  0  0
   29.9720   37.0750   61.7682 N   0  0  0  0  0  0  0  0  0  0  0  0
   38.8671   30.1853   57.0555 O   0  5  0  0  0  0  0  0  0  0  0  0
   36.0679   29.3534   60.0369 O   0  0  0  0  0  0  0  0  0  0  0  0
   33.5647   33.6330   58.2814 S   0  0  0  0  0  0  0  0  0  0  0  0
   32.6352   34.3032   59.5869 C   0  0  0  0  0  0  0  0  0  0  0  0
   36.5119   29.3130   57.3049 O   0  0  0  0  0  0  0  0  0  0  0  0
   36.4522   26.9536   59.1817 O   0  5  0  0  0  0  0  0  0  0  0  0
   33.5640   34.5828   60.4718 N   0  0  0  0  0  0  0  0  0  0  0  0
   38.3761   28.7428   59.0681 O   0  0  0  0  0  0  0  0  0  0  0  0
   37.5817   27.8075   61.3333 O   0  0  0  0  0  0  0  0  0  0  0  0
   34.8345   34.3414   60.2323 C   0  0  2  0  0  0  0  0  0  0  0  0
   35.1740   33.7826   59.0427 C   0  0  2  0  0  0  0  0  0  0  0  0
   36.5301   33.3993   58.5110 C   0  0  0  0  0  0  0  0  0  0  0  0
   36.5169   31.9292   58.0857 C   0  0  0  0  0  0  0  0  0  0  0  0
   37.4476   31.1949   58.8836 O   0  0  0  0  0  0  0  0  0  0  0  0
  1 11  1  0  0  0  0
  3 13  1  6  0  0  0
  3 17  2  0  0  0  0
  3 20  1  0  0  0  0
  3 26  1  0  0  0  0
  4 14  1  1  0  0  0
  4 18  1  0  0  0  0
  4 21  2  0  0  0  0
  4 20  1  0  0  0  0
  5 19  1  0  0  0  0
  5  7  1  0  0  0  0
  6  7  2  0  0  0  0
  6 12  1  0  0  0  0
  7  8  1  0  0  0  0
  8  9  1  0  0  0  0
  8 10  2  0  0  0  0
 10 11  1  0  0  0  0
 11 12  2  0  0  0  0
 15 23  1  0  0  0  0
 15 16  1  0  0  0  0
 16 19  1  0  0  0  0
 19 22  1  0  0  0  0
 22  2  1  1  0  0  0
 22 23  1  0  0  0  0
 23 24  1  6  0  0  0
 24 25  1  0  0  0  0
 25 26  1  0  0  0  0
M  CHG  2  13  -1  18  -1
M  END
>  <CHROM.1>
-168.36097996,-42.82634504,114.92682915,-28.61615141,-54.51107264,-117.37715186
-158.07941862,82.04975150,34.89418909,32.82415560,59.69332545,2.49842593
0.76426710,-0.50867466

>  <Name>
ligand

>  <RI>
0

>  <Rbt.Current_Directory>
/home/itssahil/PROJECTS/Mol_Feturizer/New_Systems/rnas/2HOJ

>  <Rbt.Executable>
rbdock ($Id: //depot/dev/client3/rdock/2013.1/src/exe/rbdock.cxx#4 $)

>  <Rbt.Library>
libRbt.so (2013.1, Build901 2013/11/27)

>  <Rbt.Parameter_File>
/export/apps/rDock/src/rDock_2013.1_src/data/scripts/dock_solv.prm

>  <Rbt.Receptor>
prm/blind_docking_80.prm

>  <SCORE>
-13.0226

>  <SCORE.INTER>
-14.2246

>  <SCORE.INTER.CONST>
1

>  <SCORE.INTER.POLAR>
-2.18077

>  <SCORE.INTER.ROT>
8

>  <SCORE.INTER.SOLV>
30.3802

>  <SCORE.INTER.VDW>
-21.2739

>  <SCORE.INTER.norm>
-0.547101

>  <SCORE.INTRA>
0.369541

>  <SCORE.INTRA.DIHEDRAL>
3.34455

>  <SCORE.INTRA.DIHEDRAL.0>
11.6398

>  <SCORE.INTRA.POLAR>
0

>  <SCORE.INTRA.POLAR.0>
0

>  <SCORE.INTRA.REPUL>
0

>  <SCORE.INTRA.REPUL.0>
0

>  <SCORE.INTRA.SOLV>
2.22931

>  <SCORE.INTRA.SOLV.lig_0>
-81.722

>  <SCORE.INTRA.VDW>
-2.41739

>  <SCORE.INTRA.VDW.0>
1.12598

>  <SCORE.INTRA.norm>
0.0142131

>  <SCORE.RESTR>
0.832442

>  <SCORE.RESTR.CAVITY>
0.832442

>  <SCORE.RESTR.norm>
0.032017

>  <SCORE.SYSTEM>
0

>  <SCORE.SYSTEM.CONST>
0

>  <SCORE.SYSTEM.DIHEDRAL>
0

>  <SCORE.SYSTEM.SOLV>
0

>  <SCORE.SYSTEM.norm>
0

>  <SCORE.heavy>
26

>  <SCORE.norm>
-0.500871

>  <RMSD>
15.095

$$$$
ligand
 OpenBabel11021811433D
libRbt.so/2013.1/901 2013/11/27
 26 27  0  0  0  0  0  0  0  0999 V2000
   29.1375   36.9284   63.5951 C   0  0  0  0  0  0  0  0  0  0  0  0
   36.2088   34.9163   59.5450 C   0  0  0  0  0  0  0  0  0  0  0  0
   37.3658   29.8394   58.3564 P   0  0  1  0  0  0  0  0  0  0  0  0
   36.6926   27.9777   60.0201 P   0  0  1  0  0  0  0  0  0  0  0  0
   33.9643   36.1647   60.6733 C   0  0  0  0  0  0  0  0  0  0  0  0
   31.7636   37.3146   61.0561 C   0  0  0  0  0  0  0  0  0  0  0  0
   32.6871   36.3659   61.4477 C   0  0  0  0  0  0  0  0  0  0  0  0
   32.4077   35.5973   62.5790 C   0  0  0  0  0  0  0  0  0  0  0  0
   33.3031   34.6316   63.0138 N   0  0  0  0  0  0  0  0  0  0  0  0
   31.2720   35.8088   63.2376 N   0  0  0  0  0  0  0  0  0  0  0  0
   30.4163   36.7218   62.8261 C   0  0  0  0  0  0  0  0  0  0  0  0
   30.6506   37.4643   61.7618 N   0  0  0  0  0  0  0  0  0  0  0  0
   38.5540   29.9729   59.2293 O   0  5  0  0  0  0  0  0  0  0  0  0
   38.1119   27.7880   60.5996 O   0  0  0  0  0  0  0  0  0  0  0  0
   32.8195   33.5651   58.1205 S   0  0  0  0  0  0  0  0  0  0  0  0
   32.5414   34.8042   59.3057 C   0  0  0  0  0  0  0  0  0  0  0  0
   37.7783   30.1596   56.8348 O   0  0  0  0  0  0  0  0  0  0  0  0
   35.9496   29.1749   60.7979 O   0  5  0  0  0  0  0  0  0  0  0  0
   33.7638   35.1250   59.6615 N   0  0  0  0  0  0  0  0  0  0  0  0
   36.7956   28.3364   58.4534 O   0  0  0  0  0  0  0  0  0  0  0  0
   35.8865   26.6712   60.1963 O   0  0  0  0  0  0  0  0  0  0  0  0
   34.8110   34.5357   59.1267 C   0  0  2  0  0  0  0  0  0  0  0  0
   34.6046   33.5711   58.1942 C   0  0  2  0  0  0  0  0  0  0  0  0
   35.6026   32.7401   57.4313 C   0  0  0  0  0  0  0  0  0  0  0  0
   36.6426   32.1715   58.3994 C   0  0  0  0  0  0  0  0  0  0  0  0
   36.2287   30.8747   58.8341 O   0  0  0  0  0  0  0  0  0  0  0  0
  1 11  1  0  0  0  0
  3 13  1  1  0  0  0
  3 17  2  0  0  0  0
  3 20  1  0  0  0  0
  3 26  1  0  0  0  0
  4 14  1  1  0  0  0
  4 18  1  0  0  0  0
  4 21  2  0  0  0  0
  4 20  1  0  0  0  0
  5 19  1  0  0  0  0
  5  7  1  0  0  0  0
  6  7  2  0  0  0  0
  6 12  1  0  0  0  0
  7  8  1  0  0  0  0
  8  9  1  0  0  0  0
  8 10  2  0  0  0  0
 10 11  1  0  0  0  0
 11 12  2  0  0  0  0
 15 23  1  0  0  0  0
 15 16  1  0  0  0  0
 16 19  1  0  0  0  0
 19 22  1  0  0  0  0
 22  2  1  1  0  0  0
 22 23  1  0  0  0  0
 23 24  1  6  0  0  0
 24 25  1  0  0  0  0
 25 26  1  0  0  0  0
M  CHG  2  13  -1  18  -1
M  END
>  <CHROM.1>
48.48015955,18.53929033,-92.06874203,-71.62501798,-132.52504299,92.78931334
118.80328441,75.15219456,34.73234817,32.52880703,59.92524820,2.70980631,0.88571826
-0.69480462

>  <Name>
ligand

>  <RI>
0

>  <Rbt.Current_Directory>
/home/itssahil/PROJECTS/Mol_Feturizer/New_Systems/rnas/2HOJ

>  <Rbt.Executable>
rbdock ($Id: //depot/dev/client3/rdock/2013.1/src/exe/rbdock.cxx#4 $)

>  <Rbt.Library>
libRbt.so (2013.1, Build901 2013/11/27)

>  <Rbt.Parameter_File>
/export/apps/rDock/src/rDock_2013.1_src/data/scripts/dock_solv.prm

>  <Rbt.Receptor>
prm/blind_docking_80.prm

>  <SCORE>
-9.78775

>  <SCORE.INTER>
-12.2728

>  <SCORE.INTER.CONST>
1

>  <SCORE.INTER.POLAR>
-2.13843

>  <SCORE.INTER.ROT>
8

>  <SCORE.INTER.SOLV>
34.4591

>  <SCORE.INTER.VDW>
-21.4734

>  <SCORE.INTER.norm>
-0.472029

>  <SCORE.INTRA>
2.41984

>  <SCORE.INTRA.DIHEDRAL>
4.10459

>  <SCORE.INTRA.DIHEDRAL.0>
11.6398

>  <SCORE.INTRA.POLAR>
0

>  <SCORE.INTRA.POLAR.0>
0

>  <SCORE.INTRA.REPUL>
0

>  <SCORE.INTRA.REPUL.0>
0

>  <SCORE.INTRA.SOLV>
1.97924

>  <SCORE.INTRA.SOLV.lig_0>
-81.722

>  <SCORE.INTRA.VDW>
-0.622073

>  <SCORE.INTRA.VDW.0>
1.12598

>  <SCORE.INTRA.norm>
0.093071

>  <SCORE.RESTR>
0.065161

>  <SCORE.RESTR.CAVITY>
0.065161

>  <SCORE.RESTR.norm>
0.00250619

>  <SCORE.SYSTEM>
0

>  <SCORE.SYSTEM.CONST>
0

>  <SCORE.SYSTEM.DIHEDRAL>
0

>  <SCORE.SYSTEM.SOLV>
0

>  <SCORE.SYSTEM.norm>
0

>  <SCORE.heavy>
26

>  <SCORE.norm>
-0.376452

>  <RMSD>
15.106

$$$$
ligand
 OpenBabel11021811433D
libRbt.so/2013.1/901 2013/11/27
 26 27  0  0  0  0  0  0  0  0999 V2000
   29.2952   39.6416   60.6927 C   0  0  0  0  0  0  0  0  0  0  0  0
   35.6942   34.4574   61.5411 C   0  0  0  0  0  0  0  0  0  0  0  0
   38.5023   30.6359   58.4791 P   0  0  1  0  0  0  0  0  0  0  0  0
   37.6703   28.5810   59.8103 P   0  0  1  0  0  0  0  0  0  0  0  0
   33.0699   35.4294   61.3465 C   0  0  0  0  0  0  0  0  0  0  0  0
   30.7282   36.3369   61.4124 C   0  0  0  0  0  0  0  0  0  0  0  0
   32.0719   36.5453   61.1730 C   0  0  0  0  0  0  0  0  0  0  0  0
   32.4827   37.8159   60.7664 C   0  0  0  0  0  0  0  0  0  0  0  0
   33.8210   38.0764   60.5128 N   0  0  0  0  0  0  0  0  0  0  0  0
   31.5704   38.7723   60.6201 N   0  0  0  0  0  0  0  0  0  0  0  0
   30.2986   38.5311   60.8640 C   0  0  0  0  0  0  0  0  0  0  0  0
   29.8782   37.3420   61.2491 N   0  0  0  0  0  0  0  0  0  0  0  0
   39.7769   30.1022   57.9479 O   0  5  0  0  0  0  0  0  0  0  0  0
   38.6207   27.7384   58.9311 O   0  0  0  0  0  0  0  0  0  0  0  0
   34.6352   35.2998   57.8653 S   0  0  0  0  0  0  0  0  0  0  0  0
   33.3390   35.6315   58.9731 C   0  0  0  0  0  0  0  0  0  0  0  0
   37.2890   30.1750   57.5287 O   0  0  0  0  0  0  0  0  0  0  0  0
   37.5351   27.8998   61.2621 O   0  5  0  0  0  0  0  0  0  0  0  0
   33.8683   35.2937   60.1262 N   0  0  0  0  0  0  0  0  0  0  0  0
   38.2633   30.0701   59.9678 O   0  0  0  0  0  0  0  0  0  0  0  0
   36.2784   28.6501   59.1426 O   0  0  0  0  0  0  0  0  0  0  0  0
   35.1000   34.8400   60.2090 C   0  0  2  0  0  0  0  0  0  0  0  0
   35.8223   34.7166   59.0664 C   0  0  2  0  0  0  0  0  0  0  0  0
   37.2331   34.2279   58.8670 C   0  0  0  0  0  0  0  0  0  0  0  0
   37.2274   32.7091   58.6790 C   0  0  0  0  0  0  0  0  0  0  0  0
   38.5696   32.2442   58.5228 O   0  0  0  0  0  0  0  0  0  0  0  0
  1 11  1  0  0  0  0
  3 13  1  6  0  0  0
  3 17  2  0  0  0  0
  3 20  1  0  0  0  0
  3 26  1  0  0  0  0
  4 14  1  6  0  0  0
  4 18  1  0  0  0  0
  4 21  2  0  0  0  0
  4 20  1  0  0  0  0
  5 19  1  0  0  0  0
  5  7  1  0  0  0  0
  6  7  2  0  0  0  0
  6 12  1  0  0  0  0
  7  8  1  0  0  0  0
  8  9  1  0  0  0  0
  8 10  2  0  0  0  0
 10 11  1  0  0  0  0
 11 12  2  0  0  0  0
 15 23  1  0  0  0  0
 15 16  1  0  0  0  0
 16 19  1  0  0  0  0
 19 22  1  0  0  0  0
 22  2  1  6  0  0  0
 22 23  1  0  0  0  0
 23 24  1  1  0  0  0
 24 25  1  0  0  0  0
 25 26  1  0  0  0  0
M  CHG  2  13  -1  18  -1
M  END
>  <CHROM.1>
-80.58158437,-28.72445863,127.25263324,54.64683099,-91.97144771,-178.59276607
174.43841224,164.29400974,35.35092952,33.41329295,59.65143129,2.41917589
0.60115252,-0.38616674

>  <Name>
ligand

>  <RI>
0

>  <Rbt.Current_Directory>
/home/itssahil/PROJECTS/Mol_Feturizer/New_Systems/rnas/2HOJ

>  <Rbt.Executable>
rbdock ($Id: //depot/dev/client3/rdock/2013.1/src/exe/rbdock.cxx#4 $)

>  <Rbt.Library>
libRbt.so (2013.1, Build901 2013/11/27)

>  <Rbt.Parameter_File>
/export/apps/rDock/src/rDock_2013.1_src/data/scripts/dock_solv.prm

>  <Rbt.Receptor>
prm/blind_docking_80.prm

>  <SCORE>
-17.9087

>  <SCORE.INTER>
-16.8055

>  <SCORE.INTER.CONST>
1

>  <SCORE.INTER.POLAR>
-1.12129

>  <SCORE.INTER.ROT>
8

>  <SCORE.INTER.SOLV>
29.8893

>  <SCORE.INTER.VDW>
-26.3625

>  <SCORE.INTER.norm>
-0.646366

>  <SCORE.INTRA>
-2.56417

>  <SCORE.INTRA.DIHEDRAL>
-5.57195

>  <SCORE.INTRA.DIHEDRAL.0>
11.6398

>  <SCORE.INTRA.POLAR>
0

>  <SCORE.INTRA.POLAR.0>
0

>  <SCORE.INTRA.REPUL>
0

>  <SCORE.INTRA.REPUL.0>
0

>  <SCORE.INTRA.SOLV>
4.04385

>  <SCORE.INTRA.SOLV.lig_0>
-81.722

>  <SCORE.INTRA.VDW>
-1.80012

>  <SCORE.INTRA.VDW.0>
1.12598

>  <SCORE.INTRA.norm>
-0.0986221

>  <SCORE.RESTR>
1.46104

>  <SCORE.RESTR.CAVITY>
1.46104

>  <SCORE.RESTR.norm>
0.056194

>  <SCORE.SYSTEM>
0

>  <SCORE.SYSTEM.CONST>
0

>  <SCORE.SYSTEM.DIHEDRAL>
0

>  <SCORE.SYSTEM.SOLV>
0

>  <SCORE.SYSTEM.norm>
0

>  <SCORE.heavy>
26

>  <SCORE.norm>
-0.688794

>  <RMSD>
15.118

$$$$
ligand
 OpenBabel11021811433D
libRbt.so/2013.1/901 2013/11/27
 26 27  0  0  0  0  0  0  0  0999 V2000
   29.2234   36.8284   63.5743 C   0  0  0  0  0  0  0  0  0  0  0  0
   36.2305   35.4865   59.9535 C   0  0  0  0  0  0  0  0  0  0  0  0
   37.9532   30.8291   58.2705 P   0  0  1  0  0  0  0  0  0  0  0  0
   37.5947   28.5994   59.5302 P   0  0  1  0  0  0  0  0  0  0  0  0
   33.9392   37.0447   60.3910 C   0  0  0  0  0  0  0  0  0  0  0  0
   31.6423   37.8547   61.0076 C   0  0  0  0  0  0  0  0  0  0  0  0
   32.6916   36.9864   61.2344 C   0  0  0  0  0  0  0  0  0  0  0  0
   32.5674   36.0528   62.2648 C   0  0  0  0  0  0  0  0  0  0  0  0
   33.5932   35.1589   62.5333 N   0  0  0  0  0  0  0  0  0  0  0  0
   31.4525   36.0369   62.9894 N   0  0  0  0  0  0  0  0  0  0  0  0
   30.4736   36.8808   62.7354 C   0  0  0  0  0  0  0  0  0  0  0  0
   30.5598   37.7748   61.7698 N   0  0  0  0  0  0  0  0  0  0  0  0
   38.5269   32.1923   58.3343 O   0  5  0  0  0  0  0  0  0  0  0  0
   37.5124   27.9180   60.9141 O   0  0  0  0  0  0  0  0  0  0  0  0
   33.2217   34.4745   57.6589 S   0  0  0  0  0  0  0  0  0  0  0  0
   32.7874   35.7950   58.7006 C   0  0  0  0  0  0  0  0  0  0  0  0
   38.7406   29.9660   57.1647 O   0  0  0  0  0  0  0  0  0  0  0  0
   36.1411   28.5917   58.8395 O   0  5  0  0  0  0  0  0  0  0  0  0
   33.8949   35.9870   59.3791 N   0  0  0  0  0  0  0  0  0  0  0  0
   38.0974   30.1189   59.7088 O   0  0  0  0  0  0  0  0  0  0  0  0
   38.5931   27.8294   58.6367 O   0  0  0  0  0  0  0  0  0  0  0  0
   34.9654   35.2528   59.1669 C   0  0  2  0  0  0  0  0  0  0  0  0
   34.9032   34.2742   58.2284 C   0  0  2  0  0  0  0  0  0  0  0  0
   35.9590   33.2947   57.7870 C   0  0  0  0  0  0  0  0  0  0  0  0
   35.8435   32.0107   58.6118 C   0  0  0  0  0  0  0  0  0  0  0  0
   36.3954   30.9194   57.8726 O   0  0  0  0  0  0  0  0  0  0  0  0
  1 11  1  0  0  0  0
  3 13  1  1  0  0  0
  3 17  2  0  0  0  0
  3 20  1  0  0  0  0
  3 26  1  0  0  0  0
  4 14  1  1  0  0  0
  4 18  1  0  0  0  0
  4 21  2  0  0  0  0
  4 20  1  0  0  0  0
  5 19  1  0  0  0  0
  5  7  1  0  0  0  0
  6  7  2  0  0  0  0
  6 12  1  0  0  0  0
  7  8  1  0  0  0  0
  8  9  1  0  0  0  0
  8 10  2  0  0  0  0
 10 11  1  0  0  0  0
 11 12  2  0  0  0  0
 15 23  1  0  0  0  0
 15 16  1  0  0  0  0
 16 19  1  0  0  0  0
 19 22  1  0  0  0  0
 22  2  1  1  0  0  0
 22 23  1  0  0  0  0
 23 24  1  6  0  0  0
 24 25  1  0  0  0  0
 25 26  1  0  0  0  0
M  CHG  2  13  -1  18  -1
M  END
>  <CHROM.1>
-174.38532352,45.39773914,-100.43472375,-171.84981814,-88.48535220,155.33050830
90.71141511,-41.85322775,35.08159139,33.13659373,59.66984903,2.77733532,0.85056274
-0.74184042

>  <Name>
ligand

>  <RI>
0

>  <Rbt.Current_Directory>
/home/itssahil/PROJECTS/Mol_Feturizer/New_Systems/rnas/2HOJ

>  <Rbt.Executable>
rbdock ($Id: //depot/dev/client3/rdock/2013.1/src/exe/rbdock.cxx#4 $)

>  <Rbt.Library>
libRbt.so (2013.1, Build901 2013/11/27)

>  <Rbt.Parameter_File>
/export/apps/rDock/src/rDock_2013.1_src/data/scripts/dock_solv.prm

>  <Rbt.Receptor>
prm/blind_docking_80.prm

>  <SCORE>
-11.6282

>  <SCORE.INTER>
-12.4948

>  <SCORE.INTER.CONST>
1

>  <SCORE.INTER.POLAR>
-1.12171

>  <SCORE.INTER.ROT>
8

>  <SCORE.INTER.SOLV>
23.9007

>  <SCORE.INTER.VDW>
-21.4911

>  <SCORE.INTER.norm>
-0.480568

>  <SCORE.INTRA>
0.212665

>  <SCORE.INTRA.DIHEDRAL>
-0.354473

>  <SCORE.INTRA.DIHEDRAL.0>
11.6398

>  <SCORE.INTRA.POLAR>
0

>  <SCORE.INTRA.POLAR.0>
0

>  <SCORE.INTRA.REPUL>
0

>  <SCORE.INTRA.REPUL.0>
0

>  <SCORE.INTRA.SOLV>
5.6622

>  <SCORE.INTRA.SOLV.lig_0>
-81.722

>  <SCORE.INTRA.VDW>
-2.4412

>  <SCORE.INTRA.VDW.0>
1.12598

>  <SCORE.INTRA.norm>
0.00817944

>  <SCORE.RESTR>
0.653904

>  <SCORE.RESTR.CAVITY>
0.653904

>  <SCORE.RESTR.norm>
0.0251501

>  <SCORE.SYSTEM>
0

>  <SCORE.SYSTEM.CONST>
0

>  <SCORE.SYSTEM.DIHEDRAL>
0

>  <SCORE.SYSTEM.SOLV>
0

>  <SCORE.SYSTEM.norm>
0

>  <SCORE.heavy>
26

>  <SCORE.norm>
-0.447239

>  <RMSD>
15.130

$$$$
ligand
 OpenBabel11021811433D
libRbt.so/2013.1/901 2013/11/27
 26 27  0  0  0  0  0  0  0  0999 V2000
   29.5301   39.0781   60.9127 C   0  0  0  0  0  0  0  0  0  0  0  0
   36.0065   34.2663   61.2778 C   0  0  0  0  0  0  0  0  0  0  0  0
   37.2938   29.3504   58.3187 P   0  0  1  0  0  0  0  0  0  0  0  0
   36.7000   28.0786   60.4905 P   0  0  1  0  0  0  0  0  0  0  0  0
   33.3253   34.9227   61.7776 C   0  0  0  0  0  0  0  0  0  0  0  0
   31.1031   36.0172   62.1968 C   0  0  0  0  0  0  0  0  0  0  0  0
   32.3217   36.0232   61.5476 C   0  0  0  0  0  0  0  0  0  0  0  0
   32.6006   37.0749   60.6730 C   0  0  0  0  0  0  0  0  0  0  0  0
   33.8101   37.1268   59.9963 N   0  0  0  0  0  0  0  0  0  0  0  0
   31.6867   38.0239   60.4937 N   0  0  0  0  0  0  0  0  0  0  0  0
   30.5382   37.9815   61.1374 C   0  0  0  0  0  0  0  0  0  0  0  0
   30.2440   37.0020   61.9699 N   0  0  0  0  0  0  0  0  0  0  0  0
   38.3830   29.8664   57.4590 O   0  5  0  0  0  0  0  0  0  0  0  0
   35.7414   29.2752   60.6789 O   0  0  0  0  0  0  0  0  0  0  0  0
   33.6224   33.3627   58.3043 S   0  0  0  0  0  0  0  0  0  0  0  0
   32.7334   34.0800   59.6130 C   0  0  0  0  0  0  0  0  0  0  0  0
   36.3358   28.3901   57.4539 O   0  0  0  0  0  0  0  0  0  0  0  0
   35.9058   26.8550   59.8107 O   0  5  0  0  0  0  0  0  0  0  0  0
   33.6778   34.3072   60.4962 N   0  0  0  0  0  0  0  0  0  0  0  0
   37.9262   28.5168   59.5429 O   0  0  0  0  0  0  0  0  0  0  0  0
   37.2465   27.6363   61.8666 O   0  0  0  0  0  0  0  0  0  0  0  0
   34.9329   33.9977   60.2536 C   0  0  2  0  0  0  0  0  0  0  0  0
   35.2391   33.4235   59.0624 C   0  0  2  0  0  0  0  0  0  0  0  0
   36.5713   32.9681   58.5270 C   0  0  0  0  0  0  0  0  0  0  0  0
   36.4198   31.5885   57.8821 C   0  0  0  0  0  0  0  0  0  0  0  0
   36.4362   30.5841   58.8984 O   0  0  0  0  0  0  0  0  0  0  0  0
  1 11  1  0  0  0  0
  3 13  1  6  0  0  0
  3 17  2  0  0  0  0
  3 20  1  0  0  0  0
  3 26  1  0  0  0  0
  4 14  1  1  0  0  0
  4 18  1  0  0  0  0
  4 21  2  0  0  0  0
  4 20  1  0  0  0  0
  5 19  1  0  0  0  0
  5  7  1  0  0  0  0
  6  7  2  0  0  0  0
  6 12  1  0  0  0  0
  7  8  1  0  0  0  0
  8  9  1  0  0  0  0
  8 10  2  0  0  0  0
 10 11  1  0  0  0  0
 11 12  2  0  0  0  0
 15 23  1  0  0  0  0
 15 16  1  0  0  0  0
 16 19  1  0  0  0  0
 19 22  1  0  0  0  0
 22  2  1  1  0  0  0
 22 23  1  0  0  0  0
 23 24  1  6  0  0  0
 24 25  1  0  0  0  0
 25 26  1  0  0  0  0
M  CHG  2  13  -1  18  -1
M  END
>  <CHROM.1>
175.98178676,-41.28948566,123.85543009,-44.07114928,-44.92750759,-80.83538004
-140.18597419,34.26850837,34.76984271,32.51989528,59.86343879,2.57807447
0.88737767,-0.69518452

>  <Name>
ligand

>  <RI>
0

>  <Rbt.Current_Directory>
/home/itssahil/PROJECTS/Mol_Feturizer/New_Systems/rnas/2HOJ

>  <Rbt.Executable>
rbdock ($Id: //depot/dev/client3/rdock/2013.1/src/exe/rbdock.cxx#4 $)

>  <Rbt.Library>
libRbt.so (2013.1, Build901 2013/11/27)

>  <Rbt.Parameter_File>
/export/apps/rDock/src/rDock_2013.1_src/data/scripts/dock_solv.prm

>  <Rbt.Receptor>
prm/blind_docking_80.prm

>  <SCORE>
-10.8783

>  <SCORE.INTER>
-12.2603

>  <SCORE.INTER.CONST>
1

>  <SCORE.INTER.POLAR>
-2.16963

>  <SCORE.INTER.ROT>
8

>  <SCORE.INTER.SOLV>
36.5623

>  <SCORE.INTER.VDW>
-22.0622

>  <SCORE.INTER.norm>
-0.471552

>  <SCORE.INTRA>
1.06149

>  <SCORE.INTRA.DIHEDRAL>
1.64261

>  <SCORE.INTRA.DIHEDRAL.0>
11.6398

>  <SCORE.INTRA.POLAR>
0

>  <SCORE.INTRA.POLAR.0>
0

>  <SCORE.INTRA.REPUL>
0

>  <SCORE.INTRA.REPUL.0>
0

>  <SCORE.INTRA.SOLV>
2.50565

>  <SCORE.INTRA.SOLV.lig_0>
-81.722

>  <SCORE.INTRA.VDW>
-1.01264

>  <SCORE.INTRA.VDW.0>
1.12598

>  <SCORE.INTRA.norm>
0.0408266

>  <SCORE.RESTR>
0.320505

>  <SCORE.RESTR.CAVITY>
0.320505

>  <SCORE.RESTR.norm>
0.0123271

>  <SCORE.SYSTEM>
0

>  <SCORE.SYSTEM.CONST>
0

>  <SCORE.SYSTEM.DIHEDRAL>
0

>  <SCORE.SYSTEM.SOLV>
0

>  <SCORE.SYSTEM.norm>
0

>  <SCORE.heavy>
26

>  <SCORE.norm>
-0.418398

>  <RMSD>
15.143

$$$$
ligand
 OpenBabel11021811433D
libRbt.so/2013.1/901 2013/11/27
 26 27  0  0  0  0  0  0  0  0999 V2000
   28.9398   36.7410   63.5226 C   0  0  0  0  0  0  0  0  0  0  0  0
   36.1682   36.5546   59.9434 C   0  0  0  0  0  0  0  0  0  0  0  0
   37.0119   30.3016   58.0053 P   0  0  1  0  0  0  0  0  0  0  0  0
   36.9982   27.7496   57.5877 P   0  0  1  0  0  0  0  0  0  0  0  0
   33.5431   37.4926   60.2572 C   0  0  0  0  0  0  0  0  0  0  0  0
   31.1757   38.0263   60.9071 C   0  0  0  0  0  0  0  0  0  0  0  0
   32.3254   37.2927   61.1224 C   0  0  0  0  0  0  0  0  0  0  0  0
   32.3312   36.3608   62.1616 C   0  0  0  0  0  0  0  0  0  0  0  0
   33.4614   35.5993   62.4192 N   0  0  0  0  0  0  0  0  0  0  0  0
   31.2382   36.2178   62.9054 N   0  0  0  0  0  0  0  0  0  0  0  0
   30.1608   36.9354   62.6620 C   0  0  0  0  0  0  0  0  0  0  0  0
   30.1231   37.8241   61.6884 N   0  0  0  0  0  0  0  0  0  0  0  0
   36.5079   29.8541   59.3234 O   0  5  0  0  0  0  0  0  0  0  0  0
   38.3165   27.8338   58.3885 O   0  0  0  0  0  0  0  0  0  0  0  0
   33.5163   34.3538   58.0818 S   0  0  0  0  0  0  0  0  0  0  0  0
   32.7521   35.6816   58.9005 C   0  0  0  0  0  0  0  0  0  0  0  0
   38.6006   30.5394   58.0901 O   0  0  0  0  0  0  0  0  0  0  0  0
   35.7903   27.3642   58.5790 O   0  5  0  0  0  0  0  0  0  0  0  0
   33.7753   36.2897   59.4547 N   0  0  0  0  0  0  0  0  0  0  0  0
   36.6958   29.1741   56.8997 O   0  0  0  0  0  0  0  0  0  0  0  0
   37.1303   26.6676   56.4924 O   0  0  0  0  0  0  0  0  0  0  0  0
   35.0032   35.8442   59.3016 C   0  0  2  0  0  0  0  0  0  0  0  0
   35.1976   34.7252   58.5584 C   0  0  2  0  0  0  0  0  0  0  0  0
   36.4753   34.0005   58.2249 C   0  0  0  0  0  0  0  0  0  0  0  0
   36.3862   32.5532   58.7140 C   0  0  0  0  0  0  0  0  0  0  0  0
   36.2841   31.6767   57.5900 O   0  0  0  0  0  0  0  0  0  0  0  0
  1 11  1  0  0  0  0
  3 13  1  1  0  0  0
  3 17  2  0  0  0  0
  3 20  1  0  0  0  0
  3 26  1  0  0  0  0
  4 14  1  1  0  0  0
  4 18  1  0  0  0  0
  4 21  2  0  0  0  0
  4 20  1  0  0  0  0
  5 19  1  0  0  0  0
  5  7  1  0  0  0  0
  6  7  2  0  0  0  0
  6 12  1  0  0  0  0
  7  8  1  0  0  0  0
  8  9  1  0  0  0  0
  8 10  2  0  0  0  0
 10 11  1  0  0  0  0
 11 12  2  0  0  0  0
 15 23  1  0  0  0  0
 15 16  1  0  0  0  0
 16 19  1  0  0  0  0
 19 22  1  0  0  0  0
 22  2  1  1  0  0  0
 22 23  1  0  0  0  0
 23 24  1  6  0  0  0
 24 25  1  0  0  0  0
 25 26  1  0  0  0  0
M  CHG  2  13  -1  18  -1
M  END
>  <CHROM.1>
-41.12729948,41.96985661,-112.66369509,-43.19562932,-58.35631201,109.54129157
148.23875002,49.42654222,34.75964004,33.03159610,59.31763247,2.26124352,0.62701349
-0.02492018

>  <Name>
ligand

>  <RI>
0

>  <Rbt.Current_Directory>
/home/itssahil/PROJECTS/Mol_Feturizer/New_Systems/rnas/2HOJ

>  <Rbt.Executable>
rbdock ($Id: //depot/dev/client3/rdock/2013.1/src/exe/rbdock.cxx#4 $)

>  <Rbt.Library>
libRbt.so (2013.1, Build901 2013/11/27)

>  <Rbt.Parameter_File>
/export/apps/rDock/src/rDock_2013.1_src/data/scripts/dock_solv.prm

>  <Rbt.Receptor>
prm/blind_docking_80.prm

>  <SCORE>
-9.18301

>  <SCORE.INTER>
-10.9716

>  <SCORE.INTER.CONST>
1

>  <SCORE.INTER.POLAR>
-1.28969

>  <SCORE.INTER.ROT>
8

>  <SCORE.INTER.SOLV>
23.6333

>  <SCORE.INTER.VDW>
-19.8265

>  <SCORE.INTER.norm>
-0.421984

>  <SCORE.INTRA>
0.850906

>  <SCORE.INTRA.DIHEDRAL>
3.72065

>  <SCORE.INTRA.DIHEDRAL.0>
11.6398

>  <SCORE.INTRA.POLAR>
0

>  <SCORE.INTRA.POLAR.0>
0

>  <SCORE.INTRA.REPUL>
0

>  <SCORE.INTRA.REPUL.0>
0

>  <SCORE.INTRA.SOLV>
3.50044

>  <SCORE.INTRA.SOLV.lig_0>
-81.722

>  <SCORE.INTRA.VDW>
-2.75964

>  <SCORE.INTRA.VDW.0>
1.12598

>  <SCORE.INTRA.norm>
0.0327271

>  <SCORE.RESTR>
0.937679

>  <SCORE.RESTR.CAVITY>
0.937679

>  <SCORE.RESTR.norm>
0.0360646

>  <SCORE.SYSTEM>
0

>  <SCORE.SYSTEM.CONST>
0

>  <SCORE.SYSTEM.DIHEDRAL>
0

>  <SCORE.SYSTEM.SOLV>
0

>  <SCORE.SYSTEM.norm>
0

>  <SCORE.heavy>
26

>  <SCORE.norm>
-0.353193

>  <RMSD>
15.176

$$$$
ligand
 OpenBabel11021811433D
libRbt.so/2013.1/901 2013/11/27
 26 27  0  0  0  0  0  0  0  0999 V2000
   29.9979   39.9226   60.6316 C   0  0  0  0  0  0  0  0  0  0  0  0
   35.5898   35.1124   61.3586 C   0  0  0  0  0  0  0  0  0  0  0  0
   37.0987   30.5752   58.4481 P   0  0  1  0  0  0  0  0  0  0  0  0
   39.1813   29.1438   58.9967 P   0  0  1  0  0  0  0  0  0  0  0  0
   32.7867   35.0077   61.3281 C   0  0  0  0  0  0  0  0  0  0  0  0
   30.7163   36.4224   61.4829 C   0  0  0  0  0  0  0  0  0  0  0  0
   32.0498   36.3092   61.1431 C   0  0  0  0  0  0  0  0  0  0  0  0
   32.6982   37.4312   60.6242 C   0  0  0  0  0  0  0  0  0  0  0  0
   34.0369   37.3693   60.2670 N   0  0  0  0  0  0  0  0  0  0  0  0
   32.0115   38.5597   60.4718 N   0  0  0  0  0  0  0  0  0  0  0  0
   30.7411   38.6249   60.8136 C   0  0  0  0  0  0  0  0  0  0  0  0
   30.0996   37.5833   61.3062 N   0  0  0  0  0  0  0  0  0  0  0  0
   37.0593   30.0663   57.0584 O   0  5  0  0  0  0  0  0  0  0  0  0
   38.9516   28.4652   57.6281 O   0  0  0  0  0  0  0  0  0  0  0  0
   34.1279   34.0711   57.8771 S   0  0  0  0  0  0  0  0  0  0  0  0
   32.8532   34.3557   59.0223 C   0  0  0  0  0  0  0  0  0  0  0  0
   36.2734   29.5822   59.4075 O   0  0  0  0  0  0  0  0  0  0  0  0
   40.7551   29.1582   59.3327 O   0  5  0  0  0  0  0  0  0  0  0  0
   33.5219   34.6841   60.1035 N   0  0  0  0  0  0  0  0  0  0  0  0
   38.6281   30.6555   58.9463 O   0  0  0  0  0  0  0  0  0  0  0  0
   38.4282   28.3573   60.0932 O   0  0  0  0  0  0  0  0  0  0  0  0
   34.8362   34.7321   60.1091 C   0  0  2  0  0  0  0  0  0  0  0  0
   35.4999   34.4239   58.9658 C   0  0  2  0  0  0  0  0  0  0  0  0
   36.9804   34.3922   58.6905 C   0  0  0  0  0  0  0  0  0  0  0  0
   37.4946   32.9564   58.8179 C   0  0  0  0  0  0  0  0  0  0  0  0
   36.4411   32.0441   58.5016 O   0  0  0  0  0  0  0  0  0  0  0  0
  1 11  1  0  0  0  0
  3 13  1  6  0  0  0
  3 17  2  0  0  0  0
  3 20  1  0  0  0  0
  3 26  1  0  0  0  0
  4 14  1  6  0  0  0
  4 18  1  0  0  0  0
  4 21  2  0  0  0  0
  4 20  1  0  0  0  0
  5 19  1  0  0  0  0
  5  7  1  0  0  0  0
  6  7  2  0  0  0  0
  6 12  1  0  0  0  0
  7  8  1  0  0  0  0
  8  9  1  0  0  0  0
  8 10  2  0  0  0  0
 10 11  1  0  0  0  0
 11 12  2  0  0  0  0
 15 23  1  0  0  0  0
 15 16  1  0  0  0  0
 16 19  1  0  0  0  0
 19 22  1  0  0  0  0
 22  2  1  1  0  0  0
 22 23  1  0  0  0  0
 23 24  1  6  0  0  0
 24 25  1  0  0  0  0
 25 26  1  0  0  0  0
M  CHG  2  13  -1  18  -1
M  END
>  <CHROM.1>
-65.08518006,-68.84022518,131.62631878,53.75742039,-82.82092617,28.33280212
172.05631017,-112.85280614,35.34524911,33.34109012,59.46905915,-2.31375721
0.31591865,-2.62399342

>  <Name>
ligand

>  <RI>
0

>  <Rbt.Current_Directory>
/home/itssahil/PROJECTS/Mol_Feturizer/New_Systems/rnas/2HOJ

>  <Rbt.Executable>
rbdock ($Id: //depot/dev/client3/rdock/2013.1/src/exe/rbdock.cxx#4 $)

>  <Rbt.Library>
libRbt.so (2013.1, Build901 2013/11/27)

>  <Rbt.Parameter_File>
/export/apps/rDock/src/rDock_2013.1_src/data/scripts/dock_solv.prm

>  <Rbt.Receptor>
prm/blind_docking_80.prm

>  <SCORE>
-2.29725

>  <SCORE.INTER>
-5.88821

>  <SCORE.INTER.CONST>
1

>  <SCORE.INTER.POLAR>
-0.0541634

>  <SCORE.INTER.ROT>
8

>  <SCORE.INTER.SOLV>
26.107

>  <SCORE.INTER.VDW>
-21.3806

>  <SCORE.INTER.norm>
-0.22647

>  <SCORE.INTRA>
1.13649

>  <SCORE.INTRA.DIHEDRAL>
-0.931719

>  <SCORE.INTRA.DIHEDRAL.0>
11.6398

>  <SCORE.INTRA.POLAR>
0

>  <SCORE.INTRA.POLAR.0>
0

>  <SCORE.INTRA.REPUL>
0

>  <SCORE.INTRA.REPUL.0>
0

>  <SCORE.INTRA.SOLV>
5.28669

>  <SCORE.INTRA.SOLV.lig_0>
-81.722

>  <SCORE.INTRA.VDW>
-1.04099

>  <SCORE.INTRA.VDW.0>
1.12598

>  <SCORE.INTRA.norm>
0.0437112

>  <SCORE.RESTR>
2.45447

>  <SCORE.RESTR.CAVITY>
2.45447

>  <SCORE.RESTR.norm>
0.0944027

>  <SCORE.SYSTEM>
0

>  <SCORE.SYSTEM.CONST>
0

>  <SCORE.SYSTEM.DIHEDRAL>
0

>  <SCORE.SYSTEM.SOLV>
0

>  <SCORE.SYSTEM.norm>
0

>  <SCORE.heavy>
26

>  <SCORE.norm>
-0.0883558

>  <RMSD>
15.181

$$$$
ligand
 OpenBabel11021811433D
libRbt.so/2013.1/901 2013/11/27
 26 27  0  0  0  0  0  0  0  0999 V2000
   29.3779   38.6458   61.0198 C   0  0  0  0  0  0  0  0  0  0  0  0
   36.3461   35.7928   61.1876 C   0  0  0  0  0  0  0  0  0  0  0  0
   37.3489   30.2515   58.2449 P   0  0  1  0  0  0  0  0  0  0  0  0
   36.9607   28.0410   59.5294 P   0  0  1  0  0  0  0  0  0  0  0  0
   33.8304   35.3557   62.3496 C   0  0  0  0  0  0  0  0  0  0  0  0
   31.4133   36.0065   62.5635 C   0  0  0  0  0  0  0  0  0  0  0  0
   32.6528   36.2273   61.9966 C   0  0  0  0  0  0  0  0  0  0  0  0
   32.7875   37.2788   61.0884 C   0  0  0  0  0  0  0  0  0  0  0  0
   34.0112   37.5418   60.4910 N   0  0  0  0  0  0  0  0  0  0  0  0
   31.7230   38.0217   60.7997 N   0  0  0  0  0  0  0  0  0  0  0  0
   30.5596   37.7787   61.3677 C   0  0  0  0  0  0  0  0  0  0  0  0
   30.3992   36.7933   62.2292 N   0  0  0  0  0  0  0  0  0  0  0  0
   38.8041   30.3094   58.5108 O   0  5  0  0  0  0  0  0  0  0  0  0
   36.3818   27.3886   60.8044 O   0  0  0  0  0  0  0  0  0  0  0  0
   34.2724   33.0142   59.3651 S   0  0  0  0  0  0  0  0  0  0  0  0
   33.3826   33.6704   60.7049 C   0  0  0  0  0  0  0  0  0  0  0  0
   37.0759   29.3434   56.9454 O   0  0  0  0  0  0  0  0  0  0  0  0
   36.3309   27.3321   58.2290 O   0  5  0  0  0  0  0  0  0  0  0  0
   34.2194   34.5630   61.1812 N   0  0  0  0  0  0  0  0  0  0  0  0
   36.5968   29.6098   59.5162 O   0  0  0  0  0  0  0  0  0  0  0  0
   38.4964   27.8694   59.5160 O   0  0  0  0  0  0  0  0  0  0  0  0
   35.3966   34.7628   60.6297 C   0  0  2  0  0  0  0  0  0  0  0  0
   35.7409   34.0148   59.5505 C   0  0  2  0  0  0  0  0  0  0  0  0
   37.0067   34.0276   58.7342 C   0  0  0  0  0  0  0  0  0  0  0  0
   37.6273   32.6287   58.7292 C   0  0  0  0  0  0  0  0  0  0  0  0
   36.7897   31.7395   57.9878 O   0  0  0  0  0  0  0  0  0  0  0  0
  1 11  1  0  0  0  0
  3 13  1  1  0  0  0
  3 17  2  0  0  0  0
  3 20  1  0  0  0  0
  3 26  1  0  0  0  0
  4 14  1  1  0  0  0
  4 18  1  0  0  0  0
  4 21  2  0  0  0  0
  4 20  1  0  0  0  0
  5 19  1  0  0  0  0
  5  7  1  0  0  0  0
  6  7  2  0  0  0  0
  6 12  1  0  0  0  0
  7  8  1  0  0  0  0
  8  9  1  0  0  0  0
  8 10  2  0  0  0  0
 10 11  1  0  0  0  0
 11 12  2  0  0  0  0
 15 23  1  0  0  0  0
 15 16  1  0  0  0  0
 16 19  1  0  0  0  0
 19 22  1  0  0  0  0
 22  2  1  1  0  0  0
 22 23  1  0  0  0  0
 23 24  1  6  0  0  0
 24 25  1  0  0  0  0
 25 26  1  0  0  0  0
M  CHG  2  13  -1  18  -1
M  END
>  <CHROM.1>
-71.82323289,-64.61445781,112.38747621,174.53711904,-57.15688610,68.33069196
-169.91620109,-28.90609481,35.11953248,32.82398641,59.91912755,2.21977923
0.49001667,-0.04108661

>  <Name>
ligand

>  <RI>
0

>  <Rbt.Current_Directory>
/home/itssahil/PROJECTS/Mol_Feturizer/New_Systems/rnas/2HOJ

>  <Rbt.Executable>
rbdock ($Id: //depot/dev/client3/rdock/2013.1/src/exe/rbdock.cxx#4 $)

>  <Rbt.Library>
libRbt.so (2013.1, Build901 2013/11/27)

>  <Rbt.Parameter_File>
/export/apps/rDock/src/rDock_2013.1_src/data/scripts/dock_solv.prm

>  <Rbt.Receptor>
prm/blind_docking_80.prm

>  <SCORE>
-14.5202

>  <SCORE.INTER>
-13.3709

>  <SCORE.INTER.CONST>
1

>  <SCORE.INTER.POLAR>
-1.10231

>  <SCORE.INTER.ROT>
8

>  <SCORE.INTER.SOLV>
24.0398

>  <SCORE.INTER.VDW>
-22.1862

>  <SCORE.INTER.norm>
-0.514266

>  <SCORE.INTRA>
-1.25794

>  <SCORE.INTRA.DIHEDRAL>
-4.2022

>  <SCORE.INTRA.DIHEDRAL.0>
11.6398

>  <SCORE.INTRA.POLAR>
0

>  <SCORE.INTRA.POLAR.0>
0

>  <SCORE.INTRA.REPUL>
0

>  <SCORE.INTRA.REPUL.0>
0

>  <SCORE.INTRA.SOLV>
6.42019

>  <SCORE.INTRA.SOLV.lig_0>
-81.722

>  <SCORE.INTRA.VDW>
-2.36694

>  <SCORE.INTRA.VDW.0>
1.12598

>  <SCORE.INTRA.norm>
-0.0483823

>  <SCORE.RESTR>
0.10866

>  <SCORE.RESTR.CAVITY>
0.10866

>  <SCORE.RESTR.norm>
0.00417924

>  <SCORE.SYSTEM>
0

>  <SCORE.SYSTEM.CONST>
0

>  <SCORE.SYSTEM.DIHEDRAL>
0

>  <SCORE.SYSTEM.SOLV>
0

>  <SCORE.SYSTEM.norm>
0

>  <SCORE.heavy>
26

>  <SCORE.norm>
-0.558469

>  <RMSD>
15.182

$$$$
ligand
 OpenBabel11021811433D
libRbt.so/2013.1/901 2013/11/27
 26 27  0  0  0  0  0  0  0  0999 V2000
   29.6578   39.6987   60.6795 C   0  0  0  0  0  0  0  0  0  0  0  0
   35.6501   34.4764   61.1008 C   0  0  0  0  0  0  0  0  0  0  0  0
   37.8471   29.8146   58.4291 P   0  0  1  0  0  0  0  0  0  0  0  0
   37.1023   27.8594   59.9488 P   0  0  1  0  0  0  0  0  0  0  0  0
   32.9510   35.1273   61.5016 C   0  0  0  0  0  0  0  0  0  0  0  0
   30.7264   36.2937   61.5490 C   0  0  0  0  0  0  0  0  0  0  0  0
   32.0805   36.3381   61.2835 C   0  0  0  0  0  0  0  0  0  0  0  0
   32.6231   37.5332   60.8081 C   0  0  0  0  0  0  0  0  0  0  0  0
   33.9775   37.6293   60.5257 N   0  0  0  0  0  0  0  0  0  0  0  0
   31.8205   38.5774   60.6242 N   0  0  0  0  0  0  0  0  0  0  0  0
   30.5342   38.4925   60.8951 C   0  0  0  0  0  0  0  0  0  0  0  0
   29.9908   37.3784   61.3450 N   0  0  0  0  0  0  0  0  0  0  0  0
   39.2538   29.3846   58.5960 O   0  5  0  0  0  0  0  0  0  0  0  0
   36.6208   27.4805   61.3669 O   0  0  0  0  0  0  0  0  0  0  0  0
   33.4149   33.7658   57.9637 S   0  0  0  0  0  0  0  0  0  0  0  0
   32.4649   34.4151   59.2650 C   0  0  0  0  0  0  0  0  0  0  0  0
   37.1979   29.0521   57.1702 O   0  0  0  0  0  0  0  0  0  0  0  0
   36.1697   27.1379   58.8534 O   0  5  0  0  0  0  0  0  0  0  0  0
   33.3646   34.5830   60.2064 N   0  0  0  0  0  0  0  0  0  0  0  0
   37.0155   29.4566   59.7610 O   0  0  0  0  0  0  0  0  0  0  0  0
   38.5655   27.3988   59.7625 O   0  0  0  0  0  0  0  0  0  0  0  0
   34.6284   34.2765   60.0100 C   0  0  2  0  0  0  0  0  0  0  0  0
   34.9913   33.7686   58.8046 C   0  0  2  0  0  0  0  0  0  0  0  0
   36.3462   33.3325   58.3118 C   0  0  0  0  0  0  0  0  0  0  0  0
   36.4350   31.8050   58.3414 C   0  0  0  0  0  0  0  0  0  0  0  0
   37.7970   31.4045   58.1786 O   0  0  0  0  0  0  0  0  0  0  0  0
  1 11  1  0  0  0  0
  3 13  1  1  0  0  0
  3 17  2  0  0  0  0
  3 20  1  0  0  0  0
  3 26  1  0  0  0  0
  4 14  1  1  0  0  0
  4 18  1  0  0  0  0
  4 21  2  0  0  0  0
  4 20  1  0  0  0  0
  5 19  1  0  0  0  0
  5  7  1  0  0  0  0
  6  7  2  0  0  0  0
  6 12  1  0  0  0  0
  7  8  1  0  0  0  0
  8  9  1  0  0  0  0
  8 10  2  0  0  0  0
 10 11  1  0  0  0  0
 11 12  2  0  0  0  0
 15 23  1  0  0  0  0
 15 16  1  0  0  0  0
 16 19  1  0  0  0  0
 19 22  1  0  0  0  0
 22  2  1  1  0  0  0
 22 23  1  0  0  0  0
 23 24  1  6  0  0  0
 24 25  1  0  0  0  0
 25 26  1  0  0  0  0
M  CHG  2  13  -1  18  -1
M  END
>  <CHROM.1>
-60.20362645,-47.12743220,109.03558782,166.68754146,-77.62742545,-166.59288263
172.07873598,-166.59145595,34.92493882,32.76200852,59.65005170,2.39907562
0.71175753,-0.44176685

>  <Name>
ligand

>  <RI>
0

>  <Rbt.Current_Directory>
/home/itssahil/PROJECTS/Mol_Feturizer/New_Systems/rnas/2HOJ

>  <Rbt.Executable>
rbdock ($Id: //depot/dev/client3/rdock/2013.1/src/exe/rbdock.cxx#4 $)

>  <Rbt.Library>
libRbt.so (2013.1, Build901 2013/11/27)

>  <Rbt.Parameter_File>
/export/apps/rDock/src/rDock_2013.1_src/data/scripts/dock_solv.prm

>  <Rbt.Receptor>
prm/blind_docking_80.prm

>  <SCORE>
-15.6751

>  <SCORE.INTER>
-13.8019

>  <SCORE.INTER.CONST>
1

>  <SCORE.INTER.POLAR>
-1.12135

>  <SCORE.INTER.ROT>
8

>  <SCORE.INTER.SOLV>
24.7381

>  <SCORE.INTER.VDW>
-22.6428

>  <SCORE.INTER.norm>
-0.530841

>  <SCORE.INTRA>
-2.34633

>  <SCORE.INTRA.DIHEDRAL>
-5.06793

>  <SCORE.INTRA.DIHEDRAL.0>
11.6398

>  <SCORE.INTRA.POLAR>
0

>  <SCORE.INTRA.POLAR.0>
0

>  <SCORE.INTRA.REPUL>
0

>  <SCORE.INTRA.REPUL.0>
0

>  <SCORE.INTRA.SOLV>
5.532

>  <SCORE.INTRA.SOLV.lig_0>
-81.722

>  <SCORE.INTRA.VDW>
-2.57836

>  <SCORE.INTRA.VDW.0>
1.12598

>  <SCORE.INTRA.norm>
-0.0902433

>  <SCORE.RESTR>
0.473122

>  <SCORE.RESTR.CAVITY>
0.473122

>  <SCORE.RESTR.norm>
0.018197

>  <SCORE.SYSTEM>
0

>  <SCORE.SYSTEM.CONST>
0

>  <SCORE.SYSTEM.DIHEDRAL>
0

>  <SCORE.SYSTEM.SOLV>
0

>  <SCORE.SYSTEM.norm>
0

>  <SCORE.heavy>
26

>  <SCORE.norm>
-0.602888

>  <RMSD>
15.187

$$$$
ligand
 OpenBabel11021811433D
libRbt.so/2013.1/901 2013/11/27
 26 27  0  0  0  0  0  0  0  0999 V2000
   29.3405   38.0825   61.2867 C   0  0  0  0  0  0  0  0  0  0  0  0
   36.1484   35.3296   60.3404 C   0  0  0  0  0  0  0  0  0  0  0  0
   37.8708   29.5614   58.1905 P   0  0  1  0  0  0  0  0  0  0  0  0
   36.4700   28.1528   59.8459 P   0  0  1  0  0  0  0  0  0  0  0  0
   34.1123   35.1327   62.2600 C   0  0  0  0  0  0  0  0  0  0  0  0
   31.7701   35.8187   62.8564 C   0  0  0  0  0  0  0  0  0  0  0  0
   32.8498   35.9140   62.0011 C   0  0  0  0  0  0  0  0  0  0  0  0
   32.7425   36.7529   60.8905 C   0  0  0  0  0  0  0  0  0  0  0  0
   33.7985   36.8831   60.0009 N   0  0  0  0  0  0  0  0  0  0  0  0
   31.6098   37.4214   60.6946 N   0  0  0  0  0  0  0  0  0  0  0  0
   30.6056   37.3046   61.5390 C   0  0  0  0  0  0  0  0  0  0  0  0
   30.6750   36.5206   62.5971 N   0  0  0  0  0  0  0  0  0  0  0  0
   39.1060   29.1231   58.8790 O   0  5  0  0  0  0  0  0  0  0  0  0
   37.8078   28.0365   60.6095 O   0  0  0  0  0  0  0  0  0  0  0  0
   33.9613   32.1054   59.9367 S   0  0  0  0  0  0  0  0  0  0  0  0
   33.4107   33.0614   61.2785 C   0  0  0  0  0  0  0  0  0  0  0  0
   38.1978   29.8720   56.6463 O   0  0  0  0  0  0  0  0  0  0  0  0
   35.6222   29.3892   60.4314 O   0  5  0  0  0  0  0  0  0  0  0  0
   34.2462   34.0740   61.2570 N   0  0  0  0  0  0  0  0  0  0  0  0
   36.7640   28.3951   58.2811 O   0  0  0  0  0  0  0  0  0  0  0  0
   35.6629   26.8467   60.0210 O   0  0  0  0  0  0  0  0  0  0  0  0
   35.1973   34.1595   60.3527 C   0  0  2  0  0  0  0  0  0  0  0  0
   35.3084   33.1660   59.4345 C   0  0  2  0  0  0  0  0  0  0  0  0
   36.2912   33.0045   58.3045 C   0  0  0  0  0  0  0  0  0  0  0  0
   36.4325   31.5210   57.9564 C   0  0  0  0  0  0  0  0  0  0  0  0
   37.3044   30.8924   58.8981 O   0  0  0  0  0  0  0  0  0  0  0  0
  1 11  1  0  0  0  0
  3 13  1  1  0  0  0
  3 17  2  0  0  0  0
  3 20  1  0  0  0  0
  3 26  1  0  0  0  0
  4 14  1  1  0  0  0
  4 18  1  0  0  0  0
  4 21  2  0  0  0  0
  4 20  1  0  0  0  0
  5 19  1  0  0  0  0
  5  7  1  0  0  0  0
  6  7  2  0  0  0  0
  6 12  1  0  0  0  0
  7  8  1  0  0  0  0
  8  9  1  0  0  0  0
  8 10  2  0  0  0  0
 10 11  1  0  0  0  0
 11 12  2  0  0  0  0
 15 23  1  0  0  0  0
 15 16  1  0  0  0  0
 16 19  1  0  0  0  0
 19 22  1  0  0  0  0
 22  2  1  1  0  0  0
 22 23  1  0  0  0  0
 23 24  1  6  0  0  0
 24 25  1  0  0  0  0
 25 26  1  0  0  0  0
M  CHG  2  13  -1  18  -1
M  END
>  <CHROM.1>
60.80572978,-69.11321351,109.84386585,-47.53925855,-25.15392810,-79.58688258
-158.08641200,160.23916002,35.03235521,32.38603855,60.01239090,2.34576411
0.65563927,-0.22353527

>  <Name>
ligand

>  <RI>
0

>  <Rbt.Current_Directory>
/home/itssahil/PROJECTS/Mol_Feturizer/New_Systems/rnas/2HOJ

>  <Rbt.Executable>
rbdock ($Id: //depot/dev/client3/rdock/2013.1/src/exe/rbdock.cxx#4 $)

>  <Rbt.Library>
libRbt.so (2013.1, Build901 2013/11/27)

>  <Rbt.Parameter_File>
/export/apps/rDock/src/rDock_2013.1_src/data/scripts/dock_solv.prm

>  <Rbt.Receptor>
prm/blind_docking_80.prm

>  <SCORE>
-16.3347

>  <SCORE.INTER>
-14.9703

>  <SCORE.INTER.CONST>
1

>  <SCORE.INTER.POLAR>
-2.51409

>  <SCORE.INTER.ROT>
8

>  <SCORE.INTER.SOLV>
30.6598

>  <SCORE.INTER.VDW>
-20.7532

>  <SCORE.INTER.norm>
-0.575782

>  <SCORE.INTRA>
-2.06289

>  <SCORE.INTRA.DIHEDRAL>
-2.58012

>  <SCORE.INTRA.DIHEDRAL.0>
11.6398

>  <SCORE.INTRA.POLAR>
0

>  <SCORE.INTRA.POLAR.0>
0

>  <SCORE.INTRA.REPUL>
0

>  <SCORE.INTRA.REPUL.0>
0

>  <SCORE.INTRA.SOLV>
4.06788

>  <SCORE.INTRA.SOLV.lig_0>
-81.722

>  <SCORE.INTRA.VDW>
-2.80677

>  <SCORE.INTRA.VDW.0>
1.12598

>  <SCORE.INTRA.norm>
-0.0793418

>  <SCORE.RESTR>
0.698551

>  <SCORE.RESTR.CAVITY>
0.698551

>  <SCORE.RESTR.norm>
0.0268673

>  <SCORE.SYSTEM>
0

>  <SCORE.SYSTEM.CONST>
0

>  <SCORE.SYSTEM.DIHEDRAL>
0

>  <SCORE.SYSTEM.SOLV>
0

>  <SCORE.SYSTEM.norm>
0

>  <SCORE.heavy>
26

>  <SCORE.norm>
-0.628256

>  <RMSD>
15.267

$$$$
ligand
 OpenBabel11021811433D
libRbt.so/2013.1/901 2013/11/27
 26 27  0  0  0  0  0  0  0  0999 V2000
   29.4930   37.2248   62.4188 C   0  0  0  0  0  0  0  0  0  0  0  0
   33.6155   35.2454   58.6434 C   0  0  0  0  0  0  0  0  0  0  0  0
   37.0558   30.1080   58.4168 P   0  0  1  0  0  0  0  0  0  0  0  0
   38.0898   28.3922   60.0519 P   0  0  1  0  0  0  0  0  0  0  0  0
   34.7116   37.3460   60.1452 C   0  0  0  0  0  0  0  0  0  0  0  0
   32.3259   38.1248   60.2608 C   0  0  0  0  0  0  0  0  0  0  0  0
   33.3308   37.3129   60.7480 C   0  0  0  0  0  0  0  0  0  0  0  0
   33.0352   36.4603   61.8130 C   0  0  0  0  0  0  0  0  0  0  0  0
   34.0098   35.6254   62.3390 N   0  0  0  0  0  0  0  0  0  0  0  0
   31.8059   36.4645   62.3202 N   0  0  0  0  0  0  0  0  0  0  0  0
   30.8756   37.2524   61.8214 C   0  0  0  0  0  0  0  0  0  0  0  0
   31.1226   38.0693   60.8161 N   0  0  0  0  0  0  0  0  0  0  0  0
   36.6903   29.5999   57.0752 O   0  5  0  0  0  0  0  0  0  0  0  0
   37.5959   29.1590   61.2987 O   0  0  0  0  0  0  0  0  0  0  0  0
   36.6988   34.1504   60.7965 S   0  0  0  0  0  0  0  0  0  0  0  0
   36.3556   35.8381   61.0225 C   0  0  0  0  0  0  0  0  0  0  0  0
   35.8993   29.7281   59.4686 O   0  0  0  0  0  0  0  0  0  0  0  0
   36.9364   27.3913   59.5440 O   0  5  0  0  0  0  0  0  0  0  0  0
   35.3176   36.0160   60.2384 N   0  0  0  0  0  0  0  0  0  0  0  0
   38.4456   29.4407   58.8825 O   0  0  0  0  0  0  0  0  0  0  0  0
   39.3530   27.5795   60.4153 O   0  0  0  0  0  0  0  0  0  0  0  0
   34.8088   35.0254   59.5385 C   0  0  2  0  0  0  0  0  0  0  0  0
   35.3874   33.8013   59.6345 C   0  0  2  0  0  0  0  0  0  0  0  0
   35.0229   32.5079   58.9540 C   0  0  0  0  0  0  0  0  0  0  0  0
   36.0093   32.2313   57.8171 C   0  0  0  0  0  0  0  0  0  0  0  0
   37.2241   31.7084   58.3581 O   0  0  0  0  0  0  0  0  0  0  0  0
  1 11  1  0  0  0  0
  3 13  1  6  0  0  0
  3 17  2  0  0  0  0
  3 20  1  0  0  0  0
  3 26  1  0  0  0  0
  4 14  1  1  0  0  0
  4 18  1  0  0  0  0
  4 21  2  0  0  0  0
  4 20  1  0  0  0  0
  5 19  1  0  0  0  0
  5  7  1  0  0  0  0
  6  7  2  0  0  0  0
  6 12  1  0  0  0  0
  7  8  1  0  0  0  0
  8  9  1  0  0  0  0
  8 10  2  0  0  0  0
 10 11  1  0  0  0  0
 11 12  2  0  0  0  0
 15 23  1  0  0  0  0
 15 16  1  0  0  0  0
 16 19  1  0  0  0  0
 19 22  1  0  0  0  0
 22  2  1  6  0  0  0
 22 23  1  0  0  0  0
 23 24  1  1  0  0  0
 24 25  1  0  0  0  0
 25 26  1  0  0  0  0
M  CHG  2  13  -1  18  -1
M  END
>  <CHROM.1>
-108.32867970,-112.85748509,-148.02140315,-67.54954613,-76.53975702,78.70928621
89.30529984,54.52905748,35.42995952,32.98907367,60.02307006,2.51291833,0.84458356
-0.57570066

>  <Name>
ligand

>  <RI>
0

>  <Rbt.Current_Directory>
/home/itssahil/PROJECTS/Mol_Feturizer/New_Systems/rnas/2HOJ

>  <Rbt.Executable>
rbdock ($Id: //depot/dev/client3/rdock/2013.1/src/exe/rbdock.cxx#4 $)

>  <Rbt.Library>
libRbt.so (2013.1, Build901 2013/11/27)

>  <Rbt.Parameter_File>
/export/apps/rDock/src/rDock_2013.1_src/data/scripts/dock_solv.prm

>  <Rbt.Receptor>
prm/blind_docking_80.prm

>  <SCORE>
-2.56437

>  <SCORE.INTER>
-6.83207

>  <SCORE.INTER.CONST>
1

>  <SCORE.INTER.POLAR>
-1.153

>  <SCORE.INTER.ROT>
8

>  <SCORE.INTER.SOLV>
30.969

>  <SCORE.INTER.VDW>
-19.9677

>  <SCORE.INTER.norm>
-0.262772

>  <SCORE.INTRA>
3.38846

>  <SCORE.INTRA.DIHEDRAL>
0.436061

>  <SCORE.INTRA.DIHEDRAL.0>
11.6398

>  <SCORE.INTRA.POLAR>
0

>  <SCORE.INTRA.POLAR.0>
0

>  <SCORE.INTRA.REPUL>
0

>  <SCORE.INTRA.REPUL.0>
0

>  <SCORE.INTRA.SOLV>
6.99817

>  <SCORE.INTRA.SOLV.lig_0>
-81.722

>  <SCORE.INTRA.VDW>
-0.328657

>  <SCORE.INTRA.VDW.0>
1.12598

>  <SCORE.INTRA.norm>
0.130325

>  <SCORE.RESTR>
0.879243

>  <SCORE.RESTR.CAVITY>
0.879243

>  <SCORE.RESTR.norm>
0.033817

>  <SCORE.SYSTEM>
0

>  <SCORE.SYSTEM.CONST>
0

>  <SCORE.SYSTEM.DIHEDRAL>
0

>  <SCORE.SYSTEM.SOLV>
0

>  <SCORE.SYSTEM.norm>
0

>  <SCORE.heavy>
26

>  <SCORE.norm>
-0.0986295

>  <RMSD>
15.268

$$$$
ligand
 OpenBabel11021811433D
libRbt.so/2013.1/901 2013/11/27
 26 27  0  0  0  0  0  0  0  0999 V2000
   29.4165   39.7390   60.7743 C   0  0  0  0  0  0  0  0  0  0  0  0
   35.6071   34.2630   60.7876 C   0  0  0  0  0  0  0  0  0  0  0  0
   37.4311   29.6982   58.8452 P   0  0  1  0  0  0  0  0  0  0  0  0
   38.0291   27.1825   58.8256 P   0  0  1  0  0  0  0  0  0  0  0  0
   33.1032   35.4293   61.2775 C   0  0  0  0  0  0  0  0  0  0  0  0
   30.8006   36.4121   61.4870 C   0  0  0  0  0  0  0  0  0  0  0  0
   32.1284   36.5709   61.1437 C   0  0  0  0  0  0  0  0  0  0  0  0
   32.5453   37.8160   60.6698 C   0  0  0  0  0  0  0  0  0  0  0  0
   33.8683   38.0267   60.3111 N   0  0  0  0  0  0  0  0  0  0  0  0
   31.6533   38.7963   60.5617 N   0  0  0  0  0  0  0  0  0  0  0  0
   30.3966   38.6025   60.9052 C   0  0  0  0  0  0  0  0  0  0  0  0
   29.9709   37.4386   61.3560 N   0  0  0  0  0  0  0  0  0  0  0  0
   36.1250   29.2635   59.3899 O   0  5  0  0  0  0  0  0  0  0  0  0
   36.5722   26.6965   58.9919 O   0  0  0  0  0  0  0  0  0  0  0  0
   33.2172   34.1328   57.6870 S   0  0  0  0  0  0  0  0  0  0  0  0
   32.4421   34.9121   59.0321 C   0  0  0  0  0  0  0  0  0  0  0  0
   38.4375   30.0230   60.0573 O   0  0  0  0  0  0  0  0  0  0  0  0
   38.8977   26.0395   58.0980 O   0  5  0  0  0  0  0  0  0  0  0  0
   33.3742   34.8606   59.9553 N   0  0  0  0  0  0  0  0  0  0  0  0
   38.0496   28.5233   57.9337 O   0  0  0  0  0  0  0  0  0  0  0  0
   38.6333   27.4810   60.2162 O   0  0  0  0  0  0  0  0  0  0  0  0
   34.5462   34.3132   59.7171 C   0  0  2  0  0  0  0  0  0  0  0  0
   34.7767   33.7871   58.4873 C   0  0  2  0  0  0  0  0  0  0  0  0
   36.0061   33.1054   57.9465 C   0  0  0  0  0  0  0  0  0  0  0  0
   36.0244   31.6446   58.4023 C   0  0  0  0  0  0  0  0  0  0  0  0
   37.2264   31.0196   57.9478 O   0  0  0  0  0  0  0  0  0  0  0  0
  1 11  1  0  0  0  0
  3 13  1  1  0  0  0
  3 17  2  0  0  0  0
  3 20  1  0  0  0  0
  3 26  1  0  0  0  0
  4 14  1  1  0  0  0
  4 18  1  0  0  0  0
  4 21  2  0  0  0  0
  4 20  1  0  0  0  0
  5 19  1  0  0  0  0
  5  7  1  0  0  0  0
  6  7  2  0  0  0  0
  6 12  1  0  0  0  0
  7  8  1  0  0  0  0
  8  9  1  0  0  0  0
  8 10  2  0  0  0  0
 10 11  1  0  0  0  0
 11 12  2  0  0  0  0
 15 23  1  0  0  0  0
 15 16  1  0  0  0  0
 16 19  1  0  0  0  0
 19 22  1  0  0  0  0
 22  2  1  1  0  0  0
 22 23  1  0  0  0  0
 23 24  1  6  0  0  0
 24 25  1  0  0  0  0
 25 26  1  0  0  0  0
M  CHG  2  13  -1  18  -1
M  END
>  <CHROM.1>
-52.00751516,-29.76469216,103.33810473,71.25506007,-99.09141830,-176.94234684
161.20113900,23.59532231,34.94639900,32.70469387,59.45957385,-3.10590500
0.98834324,-1.43389752

>  <Name>
ligand

>  <RI>
0

>  <Rbt.Current_Directory>
/home/itssahil/PROJECTS/Mol_Feturizer/New_Systems/rnas/2HOJ

>  <Rbt.Executable>
rbdock ($Id: //depot/dev/client3/rdock/2013.1/src/exe/rbdock.cxx#4 $)

>  <Rbt.Library>
libRbt.so (2013.1, Build901 2013/11/27)

>  <Rbt.Parameter_File>
/export/apps/rDock/src/rDock_2013.1_src/data/scripts/dock_solv.prm

>  <Rbt.Receptor>
prm/blind_docking_80.prm

>  <SCORE>
-0.445866

>  <SCORE.INTER>
-1.24913

>  <SCORE.INTER.CONST>
1

>  <SCORE.INTER.POLAR>
-0.178704

>  <SCORE.INTER.ROT>
8

>  <SCORE.INTER.SOLV>
29.1668

>  <SCORE.INTER.VDW>
-18.8927

>  <SCORE.INTER.norm>
-0.0480436

>  <SCORE.INTRA>
-1.03816

>  <SCORE.INTRA.DIHEDRAL>
-3.35086

>  <SCORE.INTRA.DIHEDRAL.0>
11.6398

>  <SCORE.INTRA.POLAR>
0

>  <SCORE.INTRA.POLAR.0>
0

>  <SCORE.INTRA.REPUL>
0

>  <SCORE.INTRA.REPUL.0>
0

>  <SCORE.INTRA.SOLV>
3.23171

>  <SCORE.INTRA.SOLV.lig_0>
-81.722

>  <SCORE.INTRA.VDW>
-0.978587

>  <SCORE.INTRA.VDW.0>
1.12598

>  <SCORE.INTRA.norm>
-0.0399292

>  <SCORE.RESTR>
1.84143

>  <SCORE.RESTR.CAVITY>
1.84143

>  <SCORE.RESTR.norm>
0.0708242

>  <SCORE.SYSTEM>
0

>  <SCORE.SYSTEM.CONST>
0

>  <SCORE.SYSTEM.DIHEDRAL>
0

>  <SCORE.SYSTEM.SOLV>
0

>  <SCORE.SYSTEM.norm>
0

>  <SCORE.heavy>
26

>  <SCORE.norm>
-0.0171487

>  <RMSD>
15.276

$$$$
ligand
 OpenBabel11021811433D
libRbt.so/2013.1/901 2013/11/27
 26 27  0  0  0  0  0  0  0  0999 V2000
   30.1690   35.7561   64.1563 C   0  0  0  0  0  0  0  0  0  0  0  0
   36.2924   36.0428   60.0043 C   0  0  0  0  0  0  0  0  0  0  0  0
   37.8798   29.8114   58.1965 P   0  0  1  0  0  0  0  0  0  0  0  0
   36.6725   28.0982   59.7113 P   0  0  1  0  0  0  0  0  0  0  0  0
   33.6514   36.9702   59.8185 C   0  0  0  0  0  0  0  0  0  0  0  0
   32.8556   35.4678   61.6682 C   0  0  0  0  0  0  0  0  0  0  0  0
   32.7289   36.6501   60.9664 C   0  0  0  0  0  0  0  0  0  0  0  0
   31.7247   37.5417   61.3475 C   0  0  0  0  0  0  0  0  0  0  0  0
   31.5556   38.7425   60.6743 N   0  0  0  0  0  0  0  0  0  0  0  0
   30.9281   37.2201   62.3625 N   0  0  0  0  0  0  0  0  0  0  0  0
   31.0873   36.0829   63.0078 C   0  0  0  0  0  0  0  0  0  0  0  0
   32.0258   35.2192   62.6726 N   0  0  0  0  0  0  0  0  0  0  0  0
   39.0234   29.0548   58.7545 O   0  5  0  0  0  0  0  0  0  0  0  0
   35.3550   27.3395   59.9846 O   0  0  0  0  0  0  0  0  0  0  0  0
   34.0007   33.7310   57.8259 S   0  0  0  0  0  0  0  0  0  0  0  0
   33.1063   35.0892   58.4362 C   0  0  0  0  0  0  0  0  0  0  0  0
   38.1497   30.1239   56.6417 O   0  0  0  0  0  0  0  0  0  0  0  0
   37.8821   27.0450   59.5776 O   0  5  0  0  0  0  0  0  0  0  0  0
   34.0188   35.7326   59.1270 N   0  0  0  0  0  0  0  0  0  0  0  0
   36.5356   28.9366   58.3430 O   0  0  0  0  0  0  0  0  0  0  0  0
   36.9602   29.0665   60.8807 O   0  0  0  0  0  0  0  0  0  0  0  0
   35.2553   35.2917   59.2080 C   0  0  2  0  0  0  0  0  0  0  0  0
   35.5752   34.1403   58.5643 C   0  0  2  0  0  0  0  0  0  0  0  0
   36.8919   33.4125   58.4899 C   0  0  0  0  0  0  0  0  0  0  0  0
   36.6395   31.9076   58.3722 C   0  0  0  0  0  0  0  0  0  0  0  0
   37.7073   31.1957   59.0008 O   0  0  0  0  0  0  0  0  0  0  0  0
  1 11  1  0  0  0  0
  3 13  1  1  0  0  0
  3 17  2  0  0  0  0
  3 20  1  0  0  0  0
  3 26  1  0  0  0  0
  4 14  1  1  0  0  0
  4 18  1  0  0  0  0
  4 21  2  0  0  0  0
  4 20  1  0  0  0  0
  5 19  1  0  0  0  0
  5  7  1  0  0  0  0
  6  7  2  0  0  0  0
  6 12  1  0  0  0  0
  7  8  1  0  0  0  0
  8  9  1  0  0  0  0
  8 10  2  0  0  0  0
 10 11  1  0  0  0  0
 11 12  2  0  0  0  0
 15 23  1  0  0  0  0
 15 16  1  0  0  0  0
 16 19  1  0  0  0  0
 19 22  1  0  0  0  0
 22  2  1  1  0  0  0
 22 23  1  0  0  0  0
 23 24  1  6  0  0  0
 24 25  1  0  0  0  0
 25 26  1  0  0  0  0
M  CHG  2  13  -1  18  -1
M  END
>  <CHROM.1>
34.01862805,69.23503834,33.11663455,174.52343137,-31.71701158,-148.88079277
-148.52665687,176.98228909,35.09413817,32.74813873,59.70969310,2.47218948
0.79906474,-0.42747331

>  <Name>
ligand

>  <RI>
0

>  <Rbt.Current_Directory>
/home/itssahil/PROJECTS/Mol_Feturizer/New_Systems/rnas/2HOJ

>  <Rbt.Executable>
rbdock ($Id: //depot/dev/client3/rdock/2013.1/src/exe/rbdock.cxx#4 $)

>  <Rbt.Library>
libRbt.so (2013.1, Build901 2013/11/27)

>  <Rbt.Parameter_File>
/export/apps/rDock/src/rDock_2013.1_src/data/scripts/dock_solv.prm

>  <Rbt.Receptor>
prm/blind_docking_80.prm

>  <SCORE>
-15.7678

>  <SCORE.INTER>
-16.3598

>  <SCORE.INTER.CONST>
1

>  <SCORE.INTER.POLAR>
-2.52562

>  <SCORE.INTER.ROT>
8

>  <SCORE.INTER.SOLV>
29.6476

>  <SCORE.INTER.VDW>
-21.3037

>  <SCORE.INTER.norm>
-0.629224

>  <SCORE.INTRA>
-0.486667

>  <SCORE.INTRA.DIHEDRAL>
1.04756

>  <SCORE.INTRA.DIHEDRAL.0>
11.6398

>  <SCORE.INTRA.POLAR>
0

>  <SCORE.INTRA.POLAR.0>
0

>  <SCORE.INTRA.REPUL>
0

>  <SCORE.INTRA.REPUL.0>
0

>  <SCORE.INTRA.SOLV>
2.49522

>  <SCORE.INTRA.SOLV.lig_0>
-81.722

>  <SCORE.INTRA.VDW>
-2.25806

>  <SCORE.INTRA.VDW.0>
1.12598

>  <SCORE.INTRA.norm>
-0.018718

>  <SCORE.RESTR>
1.0787

>  <SCORE.RESTR.CAVITY>
1.0787

>  <SCORE.RESTR.norm>
0.0414884

>  <SCORE.SYSTEM>
0

>  <SCORE.SYSTEM.CONST>
0

>  <SCORE.SYSTEM.DIHEDRAL>
0

>  <SCORE.SYSTEM.SOLV>
0

>  <SCORE.SYSTEM.norm>
0

>  <SCORE.heavy>
26

>  <SCORE.norm>
-0.606454

>  <RMSD>
15.310

$$$$
ligand
 OpenBabel11021811433D
libRbt.so/2013.1/901 2013/11/27
 26 27  0  0  0  0  0  0  0  0999 V2000
   29.3562   36.7354   63.5838 C   0  0  0  0  0  0  0  0  0  0  0  0
   36.8827   35.3801   60.3770 C   0  0  0  0  0  0  0  0  0  0  0  0
   37.6716   29.5368   58.5245 P   0  0  1  0  0  0  0  0  0  0  0  0
   36.5230   27.5770   59.7600 P   0  0  1  0  0  0  0  0  0  0  0  0
   34.3757   36.5229   60.9048 C   0  0  0  0  0  0  0  0  0  0  0  0
   32.6937   35.6156   62.5356 C   0  0  0  0  0  0  0  0  0  0  0  0
   33.0467   36.5804   61.6131 C   0  0  0  0  0  0  0  0  0  0  0  0
   32.1414   37.6107   61.3534 C   0  0  0  0  0  0  0  0  0  0  0  0
   32.4482   38.6038   60.4352 N   0  0  0  0  0  0  0  0  0  0  0  0
   30.9771   37.6229   61.9956 N   0  0  0  0  0  0  0  0  0  0  0  0
   30.6828   36.6845   62.8719 C   0  0  0  0  0  0  0  0  0  0  0  0
   31.5157   35.6978   63.1395 N   0  0  0  0  0  0  0  0  0  0  0  0
   38.1173   30.0397   59.8437 O   0  5  0  0  0  0  0  0  0  0  0  0
   35.2796   26.6621   59.8176 O   0  0  0  0  0  0  0  0  0  0  0  0
   33.9181   33.4005   58.7539 S   0  0  0  0  0  0  0  0  0  0  0  0
   33.3328   34.7832   59.6274 C   0  0  0  0  0  0  0  0  0  0  0  0
   38.7783   28.5315   57.9309 O   0  0  0  0  0  0  0  0  0  0  0  0
   37.8062   26.7133   59.3155 O   0  5  0  0  0  0  0  0  0  0  0  0
   34.4438   35.3070   60.0913 N   0  0  0  0  0  0  0  0  0  0  0  0
   36.2727   28.7569   58.6928 O   0  0  0  0  0  0  0  0  0  0  0  0
   36.7743   28.1911   61.1556 O   0  0  0  0  0  0  0  0  0  0  0  0
   35.6154   34.7657   59.8381 C   0  0  2  0  0  0  0  0  0  0  0  0
   35.6576   33.6362   59.0865 C   0  0  2  0  0  0  0  0  0  0  0  0
   36.8414   32.8131   58.6507 C   0  0  0  0  0  0  0  0  0  0  0  0
   36.3525   31.5215   57.9913 C   0  0  0  0  0  0  0  0  0  0  0  0
   37.4749   30.7761   57.5153 O   0  0  0  0  0  0  0  0  0  0  0  0
  1 11  1  0  0  0  0
  3 13  1  1  0  0  0
  3 17  2  0  0  0  0
  3 20  1  0  0  0  0
  3 26  1  0  0  0  0
  4 14  1  1  0  0  0
  4 18  1  0  0  0  0
  4 21  2  0  0  0  0
  4 20  1  0  0  0  0
  5 19  1  0  0  0  0
  5  7  1  0  0  0  0
  6  7  2  0  0  0  0
  6 12  1  0  0  0  0
  7  8  1  0  0  0  0
  8  9  1  0  0  0  0
  8 10  2  0  0  0  0
 10 11  1  0  0  0  0
 11 12  2  0  0  0  0
 15 23  1  0  0  0  0
 15 16  1  0  0  0  0
 16 19  1  0  0  0  0
 19 22  1  0  0  0  0
 22  2  1  1  0  0  0
 22 23  1  0  0  0  0
 23 24  1  6  0  0  0
 24 25  1  0  0  0  0
 25 26  1  0  0  0  0
M  CHG  2  13  -1  18  -1
M  END
>  <CHROM.1>
-57.53055473,27.79068141,62.93076745,-171.89031056,-8.53394074,176.94030633
105.70193073,-68.28636134,35.07654150,32.50270503,60.00689545,2.27470977
0.66606051,-0.17526544

>  <Name>
ligand

>  <RI>
0

>  <Rbt.Current_Directory>
/home/itssahil/PROJECTS/Mol_Feturizer/New_Systems/rnas/2HOJ

>  <Rbt.Executable>
rbdock ($Id: //depot/dev/client3/rdock/2013.1/src/exe/rbdock.cxx#4 $)

>  <Rbt.Library>
libRbt.so (2013.1, Build901 2013/11/27)

>  <Rbt.Parameter_File>
/export/apps/rDock/src/rDock_2013.1_src/data/scripts/dock_solv.prm

>  <Rbt.Receptor>
prm/blind_docking_80.prm

>  <SCORE>
-8.76762

>  <SCORE.INTER>
-9.32875

>  <SCORE.INTER.CONST>
1

>  <SCORE.INTER.POLAR>
-1.33029

>  <SCORE.INTER.ROT>
8

>  <SCORE.INTER.SOLV>
27.9859

>  <SCORE.INTER.VDW>
-20.0468

>  <SCORE.INTER.norm>
-0.358798

>  <SCORE.INTRA>
-0.128619

>  <SCORE.INTRA.DIHEDRAL>
-0.557756

>  <SCORE.INTRA.DIHEDRAL.0>
11.6398

>  <SCORE.INTRA.POLAR>
0

>  <SCORE.INTRA.POLAR.0>
0

>  <SCORE.INTRA.REPUL>
0

>  <SCORE.INTRA.REPUL.0>
0

>  <SCORE.INTRA.SOLV>
3.67812

>  <SCORE.INTRA.SOLV.lig_0>
-81.722

>  <SCORE.INTRA.VDW>
-1.6888

>  <SCORE.INTRA.VDW.0>
1.12598

>  <SCORE.INTRA.norm>
-0.0049469

>  <SCORE.RESTR>
0.689743

>  <SCORE.RESTR.CAVITY>
0.689743

>  <SCORE.RESTR.norm>
0.0265286

>  <SCORE.SYSTEM>
0

>  <SCORE.SYSTEM.CONST>
0

>  <SCORE.SYSTEM.DIHEDRAL>
0

>  <SCORE.SYSTEM.SOLV>
0

>  <SCORE.SYSTEM.norm>
0

>  <SCORE.heavy>
26

>  <SCORE.norm>
-0.337216

>  <RMSD>
15.319

$$$$
ligand
 OpenBabel11021811433D
libRbt.so/2013.1/901 2013/11/27
 26 27  0  0  0  0  0  0  0  0999 V2000
   29.6102   36.9740   62.8345 C   0  0  0  0  0  0  0  0  0  0  0  0
   34.3340   32.9604   60.6899 C   0  0  0  0  0  0  0  0  0  0  0  0
   37.5492   30.2941   58.7228 P   0  0  1  0  0  0  0  0  0  0  0  0
   37.0523   28.1886   60.1393 P   0  0  1  0  0  0  0  0  0  0  0  0
   34.9899   35.4937   61.7007 C   0  0  0  0  0  0  0  0  0  0  0  0
   32.7839   35.1247   62.8447 C   0  0  0  0  0  0  0  0  0  0  0  0
   33.5661   35.8867   61.9998 C   0  0  0  0  0  0  0  0  0  0  0  0
   33.0047   37.0307   61.4299 C   0  0  0  0  0  0  0  0  0  0  0  0
   33.7485   37.8294   60.5742 N   0  0  0  0  0  0  0  0  0  0  0  0
   31.7434   37.3404   61.7152 N   0  0  0  0  0  0  0  0  0  0  0  0
   31.0342   36.5875   62.5307 C   0  0  0  0  0  0  0  0  0  0  0  0
   31.5348   35.5007   63.0850 N   0  0  0  0  0  0  0  0  0  0  0  0
   38.6366   31.2452   58.3994 O   0  5  0  0  0  0  0  0  0  0  0  0
   37.7913   27.1571   59.2583 O   0  0  0  0  0  0  0  0  0  0  0  0
   35.5722   35.4449   57.9266 S   0  0  0  0  0  0  0  0  0  0  0  0
   35.5726   36.2069   59.4875 C   0  0  0  0  0  0  0  0  0  0  0  0
   37.4489   29.1796   57.5672 O   0  0  0  0  0  0  0  0  0  0  0  0
   36.9506   27.6338   61.6466 O   0  5  0  0  0  0  0  0  0  0  0  0
   35.1365   35.2431   60.2652 N   0  0  0  0  0  0  0  0  0  0  0  0
   37.8630   29.5801   60.1318 O   0  0  0  0  0  0  0  0  0  0  0  0
   35.6308   28.4189   59.5787 O   0  0  0  0  0  0  0  0  0  0  0  0
   34.8323   34.0576   59.7835 C   0  0  2  0  0  0  0  0  0  0  0  0
   34.9701   33.8462   58.4498 C   0  0  2  0  0  0  0  0  0  0  0  0
   34.6956   32.6077   57.6377 C   0  0  0  0  0  0  0  0  0  0  0  0
   35.9597   31.7476   57.5720 C   0  0  0  0  0  0  0  0  0  0  0  0
   36.1526   31.0891   58.8255 O   0  0  0  0  0  0  0  0  0  0  0  0
  1 11  1  0  0  0  0
  3 13  1  6  0  0  0
  3 17  2  0  0  0  0
  3 20  1  0  0  0  0
  3 26  1  0  0  0  0
  4 14  1  6  0  0  0
  4 18  1  0  0  0  0
  4 21  2  0  0  0  0
  4 20  1  0  0  0  0
  5 19  1  0  0  0  0
  5  7  1  0  0  0  0
  6  7  2  0  0  0  0
  6 12  1  0  0  0  0
  7  8  1  0  0  0  0
  8  9  1  0  0  0  0
  8 10  2  0  0  0  0
 10 11  1  0  0  0  0
 11 12  2  0  0  0  0
 15 23  1  0  0  0  0
 15 16  1  0  0  0  0
 16 19  1  0  0  0  0
 19 22  1  0  0  0  0
 22  2  1  6  0  0  0
 22 23  1  0  0  0  0
 23 24  1  1  0  0  0
 24 25  1  0  0  0  0
 25 26  1  0  0  0  0
M  CHG  2  13  -1  18  -1
M  END
>  <CHROM.1>
-156.78933724,95.37292624,118.88328357,76.79404903,89.83894093,74.99348688
-175.88274518,57.50124375,35.25283049,32.75477143,59.98046080,2.45919421
0.84772808,-0.45386179

>  <Name>
ligand

>  <RI>
0

>  <Rbt.Current_Directory>
/home/itssahil/PROJECTS/Mol_Feturizer/New_Systems/rnas/2HOJ

>  <Rbt.Executable>
rbdock ($Id: //depot/dev/client3/rdock/2013.1/src/exe/rbdock.cxx#4 $)

>  <Rbt.Library>
libRbt.so (2013.1, Build901 2013/11/27)

>  <Rbt.Parameter_File>
/export/apps/rDock/src/rDock_2013.1_src/data/scripts/dock_solv.prm

>  <Rbt.Receptor>
prm/blind_docking_80.prm

>  <SCORE>
-10.9688

>  <SCORE.INTER>
-7.22409

>  <SCORE.INTER.CONST>
1

>  <SCORE.INTER.POLAR>
-1.79529

>  <SCORE.INTER.ROT>
8

>  <SCORE.INTER.SOLV>
33.8985

>  <SCORE.INTER.VDW>
-19.0646

>  <SCORE.INTER.norm>
-0.277849

>  <SCORE.INTRA>
-4.18945

>  <SCORE.INTRA.DIHEDRAL>
-4.66072

>  <SCORE.INTRA.DIHEDRAL.0>
11.6398

>  <SCORE.INTRA.POLAR>
0

>  <SCORE.INTRA.POLAR.0>
0

>  <SCORE.INTRA.REPUL>
0

>  <SCORE.INTRA.REPUL.0>
0

>  <SCORE.INTRA.SOLV>
3.11598

>  <SCORE.INTRA.SOLV.lig_0>
-81.722

>  <SCORE.INTRA.VDW>
-3.41708

>  <SCORE.INTRA.VDW.0>
1.12598

>  <SCORE.INTRA.norm>
-0.161133

>  <SCORE.RESTR>
0.444786

>  <SCORE.RESTR.CAVITY>
0.444786

>  <SCORE.RESTR.norm>
0.0171072

>  <SCORE.SYSTEM>
0

>  <SCORE.SYSTEM.CONST>
0

>  <SCORE.SYSTEM.DIHEDRAL>
0

>  <SCORE.SYSTEM.SOLV>
0

>  <SCORE.SYSTEM.norm>
0

>  <SCORE.heavy>
26

>  <SCORE.norm>
-0.421875

>  <RMSD>
15.334

$$$$
ligand
 OpenBabel11021811433D
libRbt.so/2013.1/901 2013/11/27
 26 27  0  0  0  0  0  0  0  0999 V2000
   29.2118   37.8833   61.8130 C   0  0  0  0  0  0  0  0  0  0  0  0
   34.1364   33.7598   60.7524 C   0  0  0  0  0  0  0  0  0  0  0  0
   37.2754   30.2386   58.5962 P   0  0  1  0  0  0  0  0  0  0  0  0
   37.0294   27.6809   58.8865 P   0  0  1  0  0  0  0  0  0  0  0  0
   34.6752   36.5017   61.0007 C   0  0  0  0  0  0  0  0  0  0  0  0
   32.6372   37.8779   60.4868 C   0  0  0  0  0  0  0  0  0  0  0  0
   33.2290   36.8664   61.2168 C   0  0  0  0  0  0  0  0  0  0  0  0
   32.4537   36.1898   62.1600 C   0  0  0  0  0  0  0  0  0  0  0  0
   33.0013   35.1664   62.9192 N   0  0  0  0  0  0  0  0  0  0  0  0
   31.1828   36.5450   62.3242 N   0  0  0  0  0  0  0  0  0  0  0  0
   30.6568   37.5133   61.6025 C   0  0  0  0  0  0  0  0  0  0  0  0
   31.3622   38.1720   60.7038 N   0  0  0  0  0  0  0  0  0  0  0  0
   38.5588   30.2203   59.3338 O   0  5  0  0  0  0  0  0  0  0  0  0
   36.1620   26.5322   59.4472 O   0  0  0  0  0  0  0  0  0  0  0  0
   35.2451   35.4203   57.3825 S   0  0  0  0  0  0  0  0  0  0  0  0
   35.2151   36.5895   58.6668 C   0  0  0  0  0  0  0  0  0  0  0  0
   37.5495   29.9696   57.0341 O   0  0  0  0  0  0  0  0  0  0  0  0
   37.2154   27.4892   57.2994 O   0  5  0  0  0  0  0  0  0  0  0  0
   34.8282   35.8646   59.6908 N   0  0  0  0  0  0  0  0  0  0  0  0
   36.3068   29.0906   59.1771 O   0  0  0  0  0  0  0  0  0  0  0  0
   38.4138   27.6619   59.5729 O   0  0  0  0  0  0  0  0  0  0  0  0
   34.5788   34.5792   59.5663 C   0  0  2  0  0  0  0  0  0  0  0  0
   34.7215   34.0079   58.3433 C   0  0  2  0  0  0  0  0  0  0  0  0
   34.5030   32.5802   57.9159 C   0  0  0  0  0  0  0  0  0  0  0  0
   35.8485   31.9362   57.5737 C   0  0  0  0  0  0  0  0  0  0  0  0
   36.5710   31.6752   58.7786 O   0  0  0  0  0  0  0  0  0  0  0  0
  1 11  1  0  0  0  0
  3 13  1  1  0  0  0
  3 17  2  0  0  0  0
  3 20  1  0  0  0  0
  3 26  1  0  0  0  0
  4 14  1  1  0  0  0
  4 18  1  0  0  0  0
  4 21  2  0  0  0  0
  4 20  1  0  0  0  0
  5 19  1  0  0  0  0
  5  7  1  0  0  0  0
  6  7  2  0  0  0  0
  6 12  1  0  0  0  0
  7  8  1  0  0  0  0
  8  9  1  0  0  0  0
  8 10  2  0  0  0  0
 10 11  1  0  0  0  0
 11 12  2  0  0  0  0
 15 23  1  0  0  0  0
 15 16  1  0  0  0  0
 16 19  1  0  0  0  0
 19 22  1  0  0  0  0
 22  2  1  6  0  0  0
 22 23  1  0  0  0  0
 23 24  1  1  0  0  0
 24 25  1  0  0  0  0
 25 26  1  0  0  0  0
M  CHG  2  13  -1  18  -1
M  END
>  <CHROM.1>
-63.26068424,96.85297885,-69.71631644,178.85551133,69.02722699,73.60228582
139.75882639,147.88036194,35.05009420,32.88281558,59.47698203,2.40713527
0.83383736,-0.40602390

>  <Name>
ligand

>  <RI>
0

>  <Rbt.Current_Directory>
/home/itssahil/PROJECTS/Mol_Feturizer/New_Systems/rnas/2HOJ

>  <Rbt.Executable>
rbdock ($Id: //depot/dev/client3/rdock/2013.1/src/exe/rbdock.cxx#4 $)

>  <Rbt.Library>
libRbt.so (2013.1, Build901 2013/11/27)

>  <Rbt.Parameter_File>
/export/apps/rDock/src/rDock_2013.1_src/data/scripts/dock_solv.prm

>  <Rbt.Receptor>
prm/blind_docking_80.prm

>  <SCORE>
-5.97111

>  <SCORE.INTER>
-7.57293

>  <SCORE.INTER.CONST>
1

>  <SCORE.INTER.POLAR>
-1.12063

>  <SCORE.INTER.ROT>
8

>  <SCORE.INTER.SOLV>
25.6203

>  <SCORE.INTER.VDW>
-18.7866

>  <SCORE.INTER.norm>
-0.291266

>  <SCORE.INTRA>
1.4811

>  <SCORE.INTRA.DIHEDRAL>
0.95209

>  <SCORE.INTRA.DIHEDRAL.0>
11.6398

>  <SCORE.INTRA.POLAR>
0

>  <SCORE.INTRA.POLAR.0>
0

>  <SCORE.INTRA.REPUL>
0

>  <SCORE.INTRA.REPUL.0>
0

>  <SCORE.INTRA.SOLV>
5.70293

>  <SCORE.INTRA.SOLV.lig_0>
-81.722

>  <SCORE.INTRA.VDW>
-1.84641

>  <SCORE.INTRA.VDW.0>
1.12598

>  <SCORE.INTRA.norm>
0.0569655

>  <SCORE.RESTR>
0.120716

>  <SCORE.RESTR.CAVITY>
0.120716

>  <SCORE.RESTR.norm>
0.00464292

>  <SCORE.SYSTEM>
0

>  <SCORE.SYSTEM.CONST>
0

>  <SCORE.SYSTEM.DIHEDRAL>
0

>  <SCORE.SYSTEM.SOLV>
0

>  <SCORE.SYSTEM.norm>
0

>  <SCORE.heavy>
26

>  <SCORE.norm>
-0.229658

>  <RMSD>
15.384

$$$$
ligand
 OpenBabel11021811433D
libRbt.so/2013.1/901 2013/11/27
 26 27  0  0  0  0  0  0  0  0999 V2000
   36.0917   28.1590   60.2276 C   0  0  0  0  0  0  0  0  0  0  0  0
   34.0586   35.6515   58.0748 C   0  0  0  0  0  0  0  0  0  0  0  0
   32.6105   36.2201   62.0778 P   0  0  1  0  0  0  0  0  0  0  0  0
   30.1908   36.8033   62.7789 P   0  0  1  0  0  0  0  0  0  0  0  0
   35.4729   33.2501   57.7545 C   0  0  0  0  0  0  0  0  0  0  0  0
   36.6179   31.0267   57.9934 C   0  0  0  0  0  0  0  0  0  0  0  0
   35.6355   31.9028   58.4099 C   0  0  0  0  0  0  0  0  0  0  0  0
   34.7968   31.5091   59.4541 C   0  0  0  0  0  0  0  0  0  0  0  0
   33.7942   32.3525   59.9090 N   0  0  0  0  0  0  0  0  0  0  0  0
   34.9696   30.3102   60.0027 N   0  0  0  0  0  0  0  0  0  0  0  0
   35.9231   29.5073   59.5771 C   0  0  0  0  0  0  0  0  0  0  0  0
   36.7317   29.8491   58.5930 N   0  0  0  0  0  0  0  0  0  0  0  0
   32.7170   35.0617   62.9935 O   0  5  0  0  0  0  0  0  0  0  0  0
   29.2975   37.7630   63.5958 O   0  0  0  0  0  0  0  0  0  0  0  0
   37.3947   35.5468   60.1245 S   0  0  0  0  0  0  0  0  0  0  0  0
   37.1693   34.0716   59.2355 C   0  0  0  0  0  0  0  0  0  0  0  0
   31.9351   35.7516   60.6950 O   0  0  0  0  0  0  0  0  0  0  0  0
   29.6357   36.7037   61.2716 O   0  5  0  0  0  0  0  0  0  0  0  0
   36.0261   34.2881   58.6271 N   0  0  0  0  0  0  0  0  0  0  0  0
   31.7015   37.3610   62.7601 O   0  0  0  0  0  0  0  0  0  0  0  0
   30.1685   35.4016   63.4292 O   0  0  0  0  0  0  0  0  0  0  0  0
   35.3699   35.4174   58.7815 C   0  0  2  0  0  0  0  0  0  0  0  0
   35.8963   36.3652   59.5982 C   0  0  2  0  0  0  0  0  0  0  0  0
   35.3669   37.7288   59.9574 C   0  0  0  0  0  0  0  0  0  0  0  0
   33.9808   37.5896   60.5911 C   0  0  0  0  0  0  0  0  0  0  0  0
   34.0797   36.8108   61.7851 O   0  0  0  0  0  0  0  0  0  0  0  0
  1 11  1  0  0  0  0
  3 13  1  1  0  0  0
  3 17  2  0  0  0  0
  3 20  1  0  0  0  0
  3 26  1  0  0  0  0
  4 14  1  1  0  0  0
  4 18  1  0  0  0  0
  4 21  2  0  0  0  0
  4 20  1  0  0  0  0
  5 19  1  0  0  0  0
  5  7  1  0  0  0  0
  6  7  2  0  0  0  0
  6 12  1  0  0  0  0
  7  8  1  0  0  0  0
  8  9  1  0  0  0  0
  8 10  2  0  0  0  0
 10 11  1  0  0  0  0
 11 12  2  0  0  0  0
 15 23  1  0  0  0  0
 15 16  1  0  0  0  0
 16 19  1  0  0  0  0
 19 22  1  0  0  0  0
 22  2  1  1  0  0  0
 22 23  1  0  0  0  0
 23 24  1  6  0  0  0
 24 25  1  0  0  0  0
 25 26  1  0  0  0  0
M  CHG  2  13  -1  18  -1
M  END
>  <CHROM.1>
-70.11959914,42.58323575,-103.54847507,172.20751634,-121.80799666,61.06936576
-158.30070997,160.72159120,33.91072373,34.66138102,60.58796140,0.74887646
-0.53877112,-3.08215314

>  <Name>
ligand

>  <RI>
0

>  <Rbt.Current_Directory>
/home/itssahil/PROJECTS/Mol_Feturizer/New_Systems/rnas/2HOJ

>  <Rbt.Executable>
rbdock ($Id: //depot/dev/client3/rdock/2013.1/src/exe/rbdock.cxx#4 $)

>  <Rbt.Library>
libRbt.so (2013.1, Build901 2013/11/27)

>  <Rbt.Parameter_File>
/export/apps/rDock/src/rDock_2013.1_src/data/scripts/dock_solv.prm

>  <Rbt.Receptor>
prm/blind_docking_80.prm

>  <SCORE>
4.94743

>  <SCORE.INTER>
5.55888

>  <SCORE.INTER.CONST>
1

>  <SCORE.INTER.POLAR>
0

>  <SCORE.INTER.ROT>
8

>  <SCORE.INTER.SOLV>
36.522

>  <SCORE.INTER.VDW>
-17.4014

>  <SCORE.INTER.norm>
0.213803

>  <SCORE.INTRA>
-1.42064

>  <SCORE.INTRA.DIHEDRAL>
-4.17167

>  <SCORE.INTRA.DIHEDRAL.0>
11.6398

>  <SCORE.INTRA.POLAR>
0

>  <SCORE.INTRA.POLAR.0>
0

>  <SCORE.INTRA.REPUL>
0

>  <SCORE.INTRA.REPUL.0>
0

>  <SCORE.INTRA.SOLV>
7.22866

>  <SCORE.INTRA.SOLV.lig_0>
-81.722

>  <SCORE.INTRA.VDW>
-2.94914

>  <SCORE.INTRA.VDW.0>
1.12598

>  <SCORE.INTRA.norm>
-0.0546401

>  <SCORE.RESTR>
0.809192

>  <SCORE.RESTR.CAVITY>
0.809192

>  <SCORE.RESTR.norm>
0.0311228

>  <SCORE.SYSTEM>
0

>  <SCORE.SYSTEM.CONST>
0

>  <SCORE.SYSTEM.DIHEDRAL>
0

>  <SCORE.SYSTEM.SOLV>
0

>  <SCORE.SYSTEM.norm>
0

>  <SCORE.heavy>
26

>  <SCORE.norm>
0.190286

>  <RMSD>
15.415

$$$$
ligand
 OpenBabel11021811433D
libRbt.so/2013.1/901 2013/11/27
 26 27  0  0  0  0  0  0  0  0999 V2000
   30.4784   36.4569   64.0403 C   0  0  0  0  0  0  0  0  0  0  0  0
   35.0445   34.4066   57.7504 C   0  0  0  0  0  0  0  0  0  0  0  0
   37.2343   29.4680   57.9183 P   0  0  1  0  0  0  0  0  0  0  0  0
   36.6983   27.9159   59.9159 P   0  0  1  0  0  0  0  0  0  0  0  0
   33.9491   36.2779   59.5303 C   0  0  0  0  0  0  0  0  0  0  0  0
   32.8987   35.2369   61.5612 C   0  0  0  0  0  0  0  0  0  0  0  0
   33.0300   36.3267   60.7236 C   0  0  0  0  0  0  0  0  0  0  0  0
   32.2901   37.4751   61.0105 C   0  0  0  0  0  0  0  0  0  0  0  0
   32.3861   38.5963   60.1999 N   0  0  0  0  0  0  0  0  0  0  0  0
   31.4865   37.4763   62.0701 N   0  0  0  0  0  0  0  0  0  0  0  0
   31.3951   36.4155   62.8456 C   0  0  0  0  0  0  0  0  0  0  0  0
   32.0802   35.3154   62.6020 N   0  0  0  0  0  0  0  0  0  0  0  0
   38.5039   28.7381   57.7014 O   0  5  0  0  0  0  0  0  0  0  0  0
   35.8520   26.7118   60.3852 O   0  0  0  0  0  0  0  0  0  0  0  0
   37.1549   34.8350   61.0223 S   0  0  0  0  0  0  0  0  0  0  0  0
   35.7583   35.8677   61.0483 C   0  0  0  0  0  0  0  0  0  0  0  0
   36.7158   30.0713   56.5201 O   0  0  0  0  0  0  0  0  0  0  0  0
   38.2307   27.4585   59.7352 O   0  5  0  0  0  0  0  0  0  0  0  0
   35.1903   35.5925   59.8970 N   0  0  0  0  0  0  0  0  0  0  0  0
   36.1291   28.4571   58.5100 O   0  0  0  0  0  0  0  0  0  0  0  0
   36.6185   29.0425   60.9706 O   0  0  0  0  0  0  0  0  0  0  0  0
   35.7097   34.7128   59.0687 C   0  0  2  0  0  0  0  0  0  0  0  0
   36.8630   34.0916   59.4241 C   0  0  2  0  0  0  0  0  0  0  0  0
   37.6700   33.0599   58.6803 C   0  0  0  0  0  0  0  0  0  0  0  0
   36.8115   31.8170   58.4353 C   0  0  0  0  0  0  0  0  0  0  0  0
   37.4761   30.6680   58.9646 O   0  0  0  0  0  0  0  0  0  0  0  0
  1 11  1  0  0  0  0
  3 13  1  6  0  0  0
  3 17  2  0  0  0  0
  3 20  1  0  0  0  0
  3 26  1  0  0  0  0
  4 14  1  1  0  0  0
  4 18  1  0  0  0  0
  4 21  2  0  0  0  0
  4 20  1  0  0  0  0
  5 19  1  0  0  0  0
  5  7  1  0  0  0  0
  6  7  2  0  0  0  0
  6 12  1  0  0  0  0
  7  8  1  0  0  0  0
  8  9  1  0  0  0  0
  8 10  2  0  0  0  0
 10 11  1  0  0  0  0
 11 12  2  0  0  0  0
 15 23  1  0  0  0  0
 15 16  1  0  0  0  0
 16 19  1  0  0  0  0
 19 22  1  0  0  0  0
 22  2  1  6  0  0  0
 22 23  1  0  0  0  0
 23 24  1  1  0  0  0
 24 25  1  0  0  0  0
 25 26  1  0  0  0  0
M  CHG  2  13  -1  18  -1
M  END
>  <CHROM.1>
61.03488996,-43.15411984,-40.88701008,-167.31430572,119.67686192,-124.67560104
-140.57372691,135.58903551,35.46698955,32.65864077,59.91681432,2.26386797
0.75096934,-0.20246356

>  <Name>
ligand

>  <RI>
0

>  <Rbt.Current_Directory>
/home/itssahil/PROJECTS/Mol_Feturizer/New_Systems/rnas/2HOJ

>  <Rbt.Executable>
rbdock ($Id: //depot/dev/client3/rdock/2013.1/src/exe/rbdock.cxx#4 $)

>  <Rbt.Library>
libRbt.so (2013.1, Build901 2013/11/27)

>  <Rbt.Parameter_File>
/export/apps/rDock/src/rDock_2013.1_src/data/scripts/dock_solv.prm

>  <Rbt.Receptor>
prm/blind_docking_80.prm

>  <SCORE>
-10.4235

>  <SCORE.INTER>
-15.3075

>  <SCORE.INTER.CONST>
1

>  <SCORE.INTER.POLAR>
-2.43413

>  <SCORE.INTER.ROT>
8

>  <SCORE.INTER.SOLV>
33.0856

>  <SCORE.INTER.VDW>
-22.0531

>  <SCORE.INTER.norm>
-0.588752

>  <SCORE.INTRA>
3.89248

>  <SCORE.INTRA.DIHEDRAL>
5.95188

>  <SCORE.INTRA.DIHEDRAL.0>
11.6398

>  <SCORE.INTRA.POLAR>
0

>  <SCORE.INTRA.POLAR.0>
0

>  <SCORE.INTRA.REPUL>
0

>  <SCORE.INTRA.REPUL.0>
0

>  <SCORE.INTRA.SOLV>
2.37646

>  <SCORE.INTRA.SOLV.lig_0>
-81.722

>  <SCORE.INTRA.VDW>
-0.271686

>  <SCORE.INTRA.VDW.0>
1.12598

>  <SCORE.INTRA.norm>
0.149711

>  <SCORE.RESTR>
0.991562

>  <SCORE.RESTR.CAVITY>
0.991562

>  <SCORE.RESTR.norm>
0.038137

>  <SCORE.SYSTEM>
0

>  <SCORE.SYSTEM.CONST>
0

>  <SCORE.SYSTEM.DIHEDRAL>
0

>  <SCORE.SYSTEM.SOLV>
0

>  <SCORE.SYSTEM.norm>
0

>  <SCORE.heavy>
26

>  <SCORE.norm>
-0.400904

>  <RMSD>
15.598

$$$$
ligand
 OpenBabel11021811433D
libRbt.so/2013.1/901 2013/11/27
 26 27  0  0  0  0  0  0  0  0999 V2000
   29.4189   37.4114   61.6703 C   0  0  0  0  0  0  0  0  0  0  0  0
   36.7509   34.8152   60.9892 C   0  0  0  0  0  0  0  0  0  0  0  0
   37.6337   29.6694   58.4169 P   0  0  1  0  0  0  0  0  0  0  0  0
   36.7923   28.0333   60.2340 P   0  0  1  0  0  0  0  0  0  0  0  0
   34.9820   36.9477   60.5500 C   0  0  0  0  0  0  0  0  0  0  0  0
   32.7670   38.1131   60.3324 C   0  0  0  0  0  0  0  0  0  0  0  0
   33.5096   37.0693   60.8474 C   0  0  0  0  0  0  0  0  0  0  0  0
   32.8617   36.1289   61.6504 C   0  0  0  0  0  0  0  0  0  0  0  0
   33.5630   35.0621   62.1922 N   0  0  0  0  0  0  0  0  0  0  0  0
   31.5625   36.2744   61.8932 N   0  0  0  0  0  0  0  0  0  0  0  0
   30.8910   37.2835   61.3774 C   0  0  0  0  0  0  0  0  0  0  0  0
   31.4734   38.1886   60.6154 N   0  0  0  0  0  0  0  0  0  0  0  0
   38.1644   30.3425   59.6239 O   0  5  0  0  0  0  0  0  0  0  0  0
   35.8724   26.8185   60.4875 O   0  0  0  0  0  0  0  0  0  0  0  0
   35.0972   34.7349   57.4394 S   0  0  0  0  0  0  0  0  0  0  0  0
   34.5390   36.1047   58.3502 C   0  0  0  0  0  0  0  0  0  0  0  0
   38.7930   28.7799   57.7441 O   0  0  0  0  0  0  0  0  0  0  0  0
   38.3253   27.5461   60.1844 O   0  5  0  0  0  0  0  0  0  0  0  0
   35.1857   35.9642   59.4841 N   0  0  0  0  0  0  0  0  0  0  0  0
   36.4004   28.7202   58.8311 O   0  0  0  0  0  0  0  0  0  0  0  0
   36.6151   29.0594   61.3759 O   0  0  0  0  0  0  0  0  0  0  0  0
   36.0144   34.9622   59.6816 C   0  0  2  0  0  0  0  0  0  0  0  0
   36.1862   34.0582   58.6837 C   0  0  2  0  0  0  0  0  0  0  0  0
   37.0558   32.8292   58.6367 C   0  0  0  0  0  0  0  0  0  0  0  0
   36.2518   31.6538   58.0762 C   0  0  0  0  0  0  0  0  0  0  0  0
   37.1261   30.7765   57.3634 O   0  0  0  0  0  0  0  0  0  0  0  0
  1 11  1  0  0  0  0
  3 13  1  1  0  0  0
  3 17  2  0  0  0  0
  3 20  1  0  0  0  0
  3 26  1  0  0  0  0
  4 14  1  1  0  0  0
  4 18  1  0  0  0  0
  4 21  2  0  0  0  0
  4 20  1  0  0  0  0
  5 19  1  0  0  0  0
  5  7  1  0  0  0  0
  6  7  2  0  0  0  0
  6 12  1  0  0  0  0
  7  8  1  0  0  0  0
  8  9  1  0  0  0  0
  8 10  2  0  0  0  0
 10 11  1  0  0  0  0
 11 12  2  0  0  0  0
 15 23  1  0  0  0  0
 15 16  1  0  0  0  0
 16 19  1  0  0  0  0
 19 22  1  0  0  0  0
 22  2  1  1  0  0  0
 22 23  1  0  0  0  0
 23 24  1  6  0  0  0
 24 25  1  0  0  0  0
 25 26  1  0  0  0  0
M  CHG  2  13  -1  18  -1
M  END
>  <CHROM.1>
-39.17415135,54.11053631,-99.96026390,-163.50362440,-46.53947072,148.57524757
91.69635265,-51.42198362,35.41976324,32.82034870,59.70637274,2.32777960,0.75716106
-0.40650877

>  <Name>
ligand

>  <RI>
0

>  <Rbt.Current_Directory>
/home/itssahil/PROJECTS/Mol_Feturizer/New_Systems/rnas/2HOJ

>  <Rbt.Executable>
rbdock ($Id: //depot/dev/client3/rdock/2013.1/src/exe/rbdock.cxx#4 $)

>  <Rbt.Library>
libRbt.so (2013.1, Build901 2013/11/27)

>  <Rbt.Parameter_File>
/export/apps/rDock/src/rDock_2013.1_src/data/scripts/dock_solv.prm

>  <Rbt.Receptor>
prm/blind_docking_80.prm

>  <SCORE>
-17.5958

>  <SCORE.INTER>
-19.9806

>  <SCORE.INTER.CONST>
1

>  <SCORE.INTER.POLAR>
-2.69071

>  <SCORE.INTER.ROT>
8

>  <SCORE.INTER.SOLV>
29.5114

>  <SCORE.INTER.VDW>
-23.1218

>  <SCORE.INTER.norm>
-0.768484

>  <SCORE.INTRA>
1.48048

>  <SCORE.INTRA.DIHEDRAL>
1.51103

>  <SCORE.INTRA.DIHEDRAL.0>
11.6398

>  <SCORE.INTRA.POLAR>
0

>  <SCORE.INTRA.POLAR.0>
0

>  <SCORE.INTRA.REPUL>
0

>  <SCORE.INTRA.REPUL.0>
0

>  <SCORE.INTRA.SOLV>
6.45517

>  <SCORE.INTRA.SOLV.lig_0>
-81.722

>  <SCORE.INTRA.VDW>
-2.50262

>  <SCORE.INTRA.VDW.0>
1.12598

>  <SCORE.INTRA.norm>
0.0569415

>  <SCORE.RESTR>
0.904315

>  <SCORE.RESTR.CAVITY>
0.904315

>  <SCORE.RESTR.norm>
0.0347814

>  <SCORE.SYSTEM>
0

>  <SCORE.SYSTEM.CONST>
0

>  <SCORE.SYSTEM.DIHEDRAL>
0

>  <SCORE.SYSTEM.SOLV>
0

>  <SCORE.SYSTEM.norm>
0

>  <SCORE.heavy>
26

>  <SCORE.norm>
-0.676761

>  <RMSD>
15.602

$$$$
ligand
 OpenBabel11021811433D
libRbt.so/2013.1/901 2013/11/27
 26 27  0  0  0  0  0  0  0  0999 V2000
   30.5230   36.3228   64.0830 C   0  0  0  0  0  0  0  0  0  0  0  0
   35.2691   34.5953   57.7218 C   0  0  0  0  0  0  0  0  0  0  0  0
   38.1462   29.9605   58.4945 P   0  0  1  0  0  0  0  0  0  0  0  0
   36.5908   28.2628   59.6716 P   0  0  1  0  0  0  0  0  0  0  0  0
   33.8507   36.2762   59.4632 C   0  0  0  0  0  0  0  0  0  0  0  0
   32.8720   35.1798   61.5008 C   0  0  0  0  0  0  0  0  0  0  0  0
   32.9695   36.2899   60.6857 C   0  0  0  0  0  0  0  0  0  0  0  0
   32.2312   37.4256   61.0229 C   0  0  0  0  0  0  0  0  0  0  0  0
   32.2940   38.5663   60.2364 N   0  0  0  0  0  0  0  0  0  0  0  0
   31.4615   37.3959   62.1068 N   0  0  0  0  0  0  0  0  0  0  0  0
   31.4018   36.3165   62.8594 C   0  0  0  0  0  0  0  0  0  0  0  0
   32.0863   35.2276   62.5683 N   0  0  0  0  0  0  0  0  0  0  0  0
   39.1288   28.9788   59.0067 O   0  5  0  0  0  0  0  0  0  0  0  0
   35.0983   27.9628   59.9339 O   0  0  0  0  0  0  0  0  0  0  0  0
   37.2729   35.4912   60.9659 S   0  0  0  0  0  0  0  0  0  0  0  0
   35.7091   36.2474   60.9770 C   0  0  0  0  0  0  0  0  0  0  0  0
   37.8647   29.6761   56.9364 O   0  0  0  0  0  0  0  0  0  0  0  0
   37.1094   27.3719   58.4356 O   0  5  0  0  0  0  0  0  0  0  0  0
   35.1986   35.8423   59.8372 N   0  0  0  0  0  0  0  0  0  0  0  0
   36.7714   29.8245   59.3222 O   0  0  0  0  0  0  0  0  0  0  0  0
   37.4136   27.9201   60.9339 O   0  0  0  0  0  0  0  0  0  0  0  0
   35.8697   35.0531   59.0269 C   0  0  2  0  0  0  0  0  0  0  0  0
   37.1193   34.6658   59.3888 C   0  0  2  0  0  0  0  0  0  0  0  0
   38.1015   33.7829   58.6645 C   0  0  0  0  0  0  0  0  0  0  0  0
   37.6095   32.3341   58.6981 C   0  0  0  0  0  0  0  0  0  0  0  0
   38.7319   31.4500   58.6716 O   0  0  0  0  0  0  0  0  0  0  0  0
  1 11  1  0  0  0  0
  3 13  1  1  0  0  0
  3 17  2  0  0  0  0
  3 20  1  0  0  0  0
  3 26  1  0  0  0  0
  4 14  1  1  0  0  0
  4 18  1  0  0  0  0
  4 21  2  0  0  0  0
  4 20  1  0  0  0  0
  5 19  1  0  0  0  0
  5  7  1  0  0  0  0
  6  7  2  0  0  0  0
  6 12  1  0  0  0  0
  7  8  1  0  0  0  0
  8  9  1  0  0  0  0
  8 10  2  0  0  0  0
 10 11  1  0  0  0  0
 11 12  2  0  0  0  0
 15 23  1  0  0  0  0
 15 16  1  0  0  0  0
 16 19  1  0  0  0  0
 19 22  1  0  0  0  0
 22  2  1  6  0  0  0
 22 23  1  0  0  0  0
 23 24  1  1  0  0  0
 24 25  1  0  0  0  0
 25 26  1  0  0  0  0
M  CHG  2  13  -1  18  -1
M  END
>  <CHROM.1>
-34.95502978,-38.65156217,-52.27762417,-157.20962648,108.63996159,-150.35594866
-172.01714872,-156.68718580,35.68545560,32.92442675,59.95394401,2.22234910
0.56615045,-0.07004214

>  <Name>
ligand

>  <RI>
0

>  <Rbt.Current_Directory>
/home/itssahil/PROJECTS/Mol_Feturizer/New_Systems/rnas/2HOJ

>  <Rbt.Executable>
rbdock ($Id: //depot/dev/client3/rdock/2013.1/src/exe/rbdock.cxx#4 $)

>  <Rbt.Library>
libRbt.so (2013.1, Build901 2013/11/27)

>  <Rbt.Parameter_File>
/export/apps/rDock/src/rDock_2013.1_src/data/scripts/dock_solv.prm

>  <Rbt.Receptor>
prm/blind_docking_80.prm

>  <SCORE>
-12.5134

>  <SCORE.INTER>
-12.2463

>  <SCORE.INTER.CONST>
1

>  <SCORE.INTER.POLAR>
-1.1225

>  <SCORE.INTER.ROT>
8

>  <SCORE.INTER.SOLV>
29.8763

>  <SCORE.INTER.VDW>
-23.3147

>  <SCORE.INTER.norm>
-0.471013

>  <SCORE.INTRA>
-0.862943

>  <SCORE.INTRA.DIHEDRAL>
-1.57092

>  <SCORE.INTRA.DIHEDRAL.0>
11.6398

>  <SCORE.INTRA.POLAR>
0

>  <SCORE.INTRA.POLAR.0>
0

>  <SCORE.INTRA.REPUL>
0

>  <SCORE.INTRA.REPUL.0>
0

>  <SCORE.INTRA.SOLV>
2.56155

>  <SCORE.INTRA.SOLV.lig_0>
-81.722

>  <SCORE.INTRA.VDW>
-1.35826

>  <SCORE.INTRA.VDW.0>
1.12598

>  <SCORE.INTRA.norm>
-0.0331901

>  <SCORE.RESTR>
0.595893

>  <SCORE.RESTR.CAVITY>
0.595893

>  <SCORE.RESTR.norm>
0.022919

>  <SCORE.SYSTEM>
0

>  <SCORE.SYSTEM.CONST>
0

>  <SCORE.SYSTEM.DIHEDRAL>
0

>  <SCORE.SYSTEM.SOLV>
0

>  <SCORE.SYSTEM.norm>
0

>  <SCORE.heavy>
26

>  <SCORE.norm>
-0.481284

>  <RMSD>
15.603

$$$$
ligand
 OpenBabel11021811433D
libRbt.so/2013.1/901 2013/11/27
 26 27  0  0  0  0  0  0  0  0999 V2000
   30.6852   35.8369   63.4977 C   0  0  0  0  0  0  0  0  0  0  0  0
   37.0823   35.7413   59.6701 C   0  0  0  0  0  0  0  0  0  0  0  0
   37.1281   29.3533   57.9506 P   0  0  1  0  0  0  0  0  0  0  0  0
   36.6408   27.8778   60.0175 P   0  0  1  0  0  0  0  0  0  0  0  0
   34.3643   36.2223   59.1694 C   0  0  0  0  0  0  0  0  0  0  0  0
   32.1511   36.7222   60.2481 C   0  0  0  0  0  0  0  0  0  0  0  0
   33.3915   36.1196   60.3158 C   0  0  0  0  0  0  0  0  0  0  0  0
   33.7216   35.4122   61.4731 C   0  0  0  0  0  0  0  0  0  0  0  0
   34.9552   34.7894   61.5908 N   0  0  0  0  0  0  0  0  0  0  0  0
   32.8374   35.3492   62.4644 N   0  0  0  0  0  0  0  0  0  0  0  0
   31.6628   35.9353   62.3558 C   0  0  0  0  0  0  0  0  0  0  0  0
   31.3206   36.6111   61.2763 N   0  0  0  0  0  0  0  0  0  0  0  0
   38.4375   28.6860   57.7717 O   0  5  0  0  0  0  0  0  0  0  0  0
   35.8411   26.6662   60.5456 O   0  0  0  0  0  0  0  0  0  0  0  0
   35.2115   32.6228   58.2150 S   0  0  0  0  0  0  0  0  0  0  0  0
   34.1278   33.9696   58.3849 C   0  0  0  0  0  0  0  0  0  0  0  0
   36.5912   29.8736   56.5262 O   0  0  0  0  0  0  0  0  0  0  0  0
   38.1953   27.4815   59.8888 O   0  5  0  0  0  0  0  0  0  0  0  0
   34.9159   34.8977   58.8762 N   0  0  0  0  0  0  0  0  0  0  0  0
   36.0737   28.3070   58.5725 O   0  0  0  0  0  0  0  0  0  0  0  0
   36.4909   29.0607   61.0005 O   0  0  0  0  0  0  0  0  0  0  0  0
   36.1896   34.6644   59.1069 C   0  0  2  0  0  0  0  0  0  0  0  0
   36.6811   33.4291   58.8333 C   0  0  2  0  0  0  0  0  0  0  0  0
   38.0774   32.8895   59.0006 C   0  0  0  0  0  0  0  0  0  0  0  0
   38.1844   31.5244   58.3172 C   0  0  0  0  0  0  0  0  0  0  0  0
   37.2944   30.6038   58.9515 O   0  0  0  0  0  0  0  0  0  0  0  0
  1 11  1  0  0  0  0
  3 13  1  6  0  0  0
  3 17  2  0  0  0  0
  3 20  1  0  0  0  0
  3 26  1  0  0  0  0
  4 14  1  1  0  0  0
  4 18  1  0  0  0  0
  4 21  2  0  0  0  0
  4 20  1  0  0  0  0
  5 19  1  0  0  0  0
  5  7  1  0  0  0  0
  6  7  2  0  0  0  0
  6 12  1  0  0  0  0
  7  8  1  0  0  0  0
  8  9  1  0  0  0  0
  8 10  2  0  0  0  0
 10 11  1  0  0  0  0
 11 12  2  0  0  0  0
 15 23  1  0  0  0  0
 15 16  1  0  0  0  0
 16 19  1  0  0  0  0
 19 22  1  0  0  0  0
 22  2  1  1  0  0  0
 22 23  1  0  0  0  0
 23 24  1  6  0  0  0
 24 25  1  0  0  0  0
 25 26  1  0  0  0  0
M  CHG  2  13  -1  18  -1
M  END
>  <CHROM.1>
62.31614176,67.56799689,-133.02560206,-168.43040563,10.00857430,-62.61656283
163.79167562,62.94958644,35.53327548,32.17828505,59.61233960,2.31450147,0.77829335
-0.28791620

>  <Name>
ligand

>  <RI>
0

>  <Rbt.Current_Directory>
/home/itssahil/PROJECTS/Mol_Feturizer/New_Systems/rnas/2HOJ

>  <Rbt.Executable>
rbdock ($Id: //depot/dev/client3/rdock/2013.1/src/exe/rbdock.cxx#4 $)

>  <Rbt.Library>
libRbt.so (2013.1, Build901 2013/11/27)

>  <Rbt.Parameter_File>
/export/apps/rDock/src/rDock_2013.1_src/data/scripts/dock_solv.prm

>  <Rbt.Receptor>
prm/blind_docking_80.prm

>  <SCORE>
-21.696

>  <SCORE.INTER>
-20.3084

>  <SCORE.INTER.CONST>
1

>  <SCORE.INTER.POLAR>
-2.51797

>  <SCORE.INTER.ROT>
8

>  <SCORE.INTER.SOLV>
26.5522

>  <SCORE.INTER.VDW>
-22.9298

>  <SCORE.INTER.norm>
-0.781093

>  <SCORE.INTRA>
-2.26034

>  <SCORE.INTRA.DIHEDRAL>
-5.54605

>  <SCORE.INTRA.DIHEDRAL.0>
11.6398

>  <SCORE.INTRA.POLAR>
0

>  <SCORE.INTRA.POLAR.0>
0

>  <SCORE.INTRA.REPUL>
0

>  <SCORE.INTRA.REPUL.0>
0

>  <SCORE.INTRA.SOLV>
7.44393

>  <SCORE.INTRA.SOLV.lig_0>
-81.722

>  <SCORE.INTRA.VDW>
-3.20928

>  <SCORE.INTRA.VDW.0>
1.12598

>  <SCORE.INTRA.norm>
-0.0869362

>  <SCORE.RESTR>
0.872704

>  <SCORE.RESTR.CAVITY>
0.872704

>  <SCORE.RESTR.norm>
0.0335656

>  <SCORE.SYSTEM>
0

>  <SCORE.SYSTEM.CONST>
0

>  <SCORE.SYSTEM.DIHEDRAL>
0

>  <SCORE.SYSTEM.SOLV>
0

>  <SCORE.SYSTEM.norm>
0

>  <SCORE.heavy>
26

>  <SCORE.norm>
-0.834463

>  <RMSD>
16.066

$$$$
ligand
 OpenBabel11021811433D
libRbt.so/2013.1/901 2013/11/27
 26 27  0  0  0  0  0  0  0  0999 V2000
   30.8679   35.5551   63.5990 C   0  0  0  0  0  0  0  0  0  0  0  0
   37.1173   35.8117   59.5264 C   0  0  0  0  0  0  0  0  0  0  0  0
   38.1217   29.1977   58.9369 P   0  0  1  0  0  0  0  0  0  0  0  0
   36.2693   27.5212   59.6038 P   0  0  1  0  0  0  0  0  0  0  0  0
   34.3575   36.1305   59.1369 C   0  0  0  0  0  0  0  0  0  0  0  0
   32.1461   36.4709   60.2794 C   0  0  0  0  0  0  0  0  0  0  0  0
   33.4350   35.9775   60.3188 C   0  0  0  0  0  0  0  0  0  0  0  0
   33.8619   35.3330   61.4811 C   0  0  0  0  0  0  0  0  0  0  0  0
   35.1474   34.8203   61.5712 N   0  0  0  0  0  0  0  0  0  0  0  0
   33.0191   35.2229   62.5038 N   0  0  0  0  0  0  0  0  0  0  0  0
   31.7958   35.7043   62.4216 C   0  0  0  0  0  0  0  0  0  0  0  0
   31.3620   36.3185   61.3383 N   0  0  0  0  0  0  0  0  0  0  0  0
   39.4389   28.7414   58.4385 O   0  5  0  0  0  0  0  0  0  0  0  0
   35.1276   28.5617   59.5911 O   0  0  0  0  0  0  0  0  0  0  0  0
   35.3735   32.5799   58.1640 S   0  0  0  0  0  0  0  0  0  0  0  0
   34.2208   33.8625   58.3729 C   0  0  0  0  0  0  0  0  0  0  0  0
   37.0535   29.1710   57.7343 O   0  0  0  0  0  0  0  0  0  0  0  0
   36.4893   26.9458   58.1170 O   0  5  0  0  0  0  0  0  0  0  0  0
   34.9730   34.8382   58.8269 N   0  0  0  0  0  0  0  0  0  0  0  0
   37.6268   28.2197   60.1167 O   0  0  0  0  0  0  0  0  0  0  0  0
   35.8971   26.3613   60.5546 O   0  0  0  0  0  0  0  0  0  0  0  0
   36.2665   34.6810   59.0055 C   0  0  2  0  0  0  0  0  0  0  0  0
   36.8177   33.4745   58.7172 C   0  0  2  0  0  0  0  0  0  0  0  0
   38.2488   33.0181   58.8287 C   0  0  0  0  0  0  0  0  0  0  0  0
   38.3592   31.5616   58.3721 C   0  0  0  0  0  0  0  0  0  0  0  0
   38.2527   30.6984   59.5059 O   0  0  0  0  0  0  0  0  0  0  0  0
  1 11  1  0  0  0  0
  3 13  1  6  0  0  0
  3 17  2  0  0  0  0
  3 20  1  0  0  0  0
  3 26  1  0  0  0  0
  4 14  1  6  0  0  0
  4 18  1  0  0  0  0
  4 21  2  0  0  0  0
  4 20  1  0  0  0  0
  5 19  1  0  0  0  0
  5  7  1  0  0  0  0
  6  7  2  0  0  0  0
  6 12  1  0  0  0  0
  7  8  1  0  0  0  0
  8  9  1  0  0  0  0
  8 10  2  0  0  0  0
 10 11  1  0  0  0  0
 11 12  2  0  0  0  0
 15 23  1  0  0  0  0
 15 16  1  0  0  0  0
 16 19  1  0  0  0  0
 19 22  1  0  0  0  0
 22  2  1  1  0  0  0
 22 23  1  0  0  0  0
 23 24  1  6  0  0  0
 24 25  1  0  0  0  0
 25 26  1  0  0  0  0
M  CHG  2  13  -1  18  -1
M  END
>  <CHROM.1>
-117.21472998,67.27322020,-130.95330042,-71.63334818,0.11173972,-93.84141493
170.48819041,74.34435055,35.68133651,32.01974226,59.67256139,2.18063611,0.58580123
-0.10739424

>  <Name>
ligand

>  <RI>
0

>  <Rbt.Current_Directory>
/home/itssahil/PROJECTS/Mol_Feturizer/New_Systems/rnas/2HOJ

>  <Rbt.Executable>
rbdock ($Id: //depot/dev/client3/rdock/2013.1/src/exe/rbdock.cxx#4 $)

>  <Rbt.Library>
libRbt.so (2013.1, Build901 2013/11/27)

>  <Rbt.Parameter_File>
/export/apps/rDock/src/rDock_2013.1_src/data/scripts/dock_solv.prm

>  <Rbt.Receptor>
prm/blind_docking_80.prm

>  <SCORE>
-11.7488

>  <SCORE.INTER>
-15.2018

>  <SCORE.INTER.CONST>
1

>  <SCORE.INTER.POLAR>
-1.1225

>  <SCORE.INTER.ROT>
8

>  <SCORE.INTER.SOLV>
23.5233

>  <SCORE.INTER.VDW>
-23.1673

>  <SCORE.INTER.norm>
-0.584684

>  <SCORE.INTRA>
2.67389

>  <SCORE.INTRA.DIHEDRAL>
-0.406843

>  <SCORE.INTRA.DIHEDRAL.0>
11.6398

>  <SCORE.INTRA.POLAR>
0

>  <SCORE.INTRA.POLAR.0>
0

>  <SCORE.INTRA.REPUL>
0

>  <SCORE.INTRA.REPUL.0>
0

>  <SCORE.INTRA.SOLV>
6.1773

>  <SCORE.INTRA.SOLV.lig_0>
-81.722

>  <SCORE.INTRA.VDW>
-0.211336

>  <SCORE.INTRA.VDW.0>
1.12598

>  <SCORE.INTRA.norm>
0.102842

>  <SCORE.RESTR>
0.779045

>  <SCORE.RESTR.CAVITY>
0.779045

>  <SCORE.RESTR.norm>
0.0299633

>  <SCORE.SYSTEM>
0

>  <SCORE.SYSTEM.CONST>
0

>  <SCORE.SYSTEM.DIHEDRAL>
0

>  <SCORE.SYSTEM.SOLV>
0

>  <SCORE.SYSTEM.norm>
0

>  <SCORE.heavy>
26

>  <SCORE.norm>
-0.451879

>  <RMSD>
16.240

$$$$
ligand
 OpenBabel11021811433D
libRbt.so/2013.1/901 2013/11/27
 26 27  0  0  0  0  0  0  0  0999 V2000
   31.6085   35.0013   51.0040 C   0  0  0  0  0  0  0  0  0  0  0  0
   32.2341   33.6383   58.6289 C   0  0  0  0  0  0  0  0  0  0  0  0
   37.3534   30.2753   58.5063 P   0  0  1  0  0  0  0  0  0  0  0  0
   36.9674   27.9368   59.5403 P   0  0  1  0  0  0  0  0  0  0  0  0
   31.8392   35.5987   56.6615 C   0  0  0  0  0  0  0  0  0  0  0  0
   32.4393   36.3186   54.3306 C   0  0  0  0  0  0  0  0  0  0  0  0
   31.7772   35.4394   55.1642 C   0  0  0  0  0  0  0  0  0  0  0  0
   31.0491   34.3988   54.5848 C   0  0  0  0  0  0  0  0  0  0  0  0
   30.3661   33.4894   55.3785 N   0  0  0  0  0  0  0  0  0  0  0  0
   31.0152   34.2956   53.2595 N   0  0  0  0  0  0  0  0  0  0  0  0
   31.6658   35.1542   52.5015 C   0  0  0  0  0  0  0  0  0  0  0  0
   32.3623   36.1481   53.0175 N   0  0  0  0  0  0  0  0  0  0  0  0
   38.8104   30.1683   58.7455 O   0  5  0  0  0  0  0  0  0  0  0  0
   36.3270   27.1401   60.6986 O   0  0  0  0  0  0  0  0  0  0  0  0
   35.5648   35.3353   57.4590 S   0  0  0  0  0  0  0  0  0  0  0  0
   34.2016   36.0024   56.6140 C   0  0  0  0  0  0  0  0  0  0  0  0
   36.9943   29.6273   57.0784 O   0  0  0  0  0  0  0  0  0  0  0  0
   36.4426   27.3568   58.1338 O   0  5  0  0  0  0  0  0  0  0  0  0
   33.2007   35.3244   57.1263 N   0  0  0  0  0  0  0  0  0  0  0  0
   36.5605   29.4899   59.6673 O   0  0  0  0  0  0  0  0  0  0  0  0
   38.5051   27.8009   59.6114 O   0  0  0  0  0  0  0  0  0  0  0  0
   33.3942   34.4077   58.0494 C   0  0  2  0  0  0  0  0  0  0  0  0
   34.6638   34.1644   58.4635 C   0  0  2  0  0  0  0  0  0  0  0  0
   35.1713   33.1833   59.4876 C   0  0  0  0  0  0  0  0  0  0  0  0
   35.5193   31.8604   58.8014 C   0  0  0  0  0  0  0  0  0  0  0  0
   36.9193   31.8260   58.5171 O   0  0  0  0  0  0  0  0  0  0  0  0
  1 11  1  0  0  0  0
  3 13  1  1  0  0  0
  3 17  2  0  0  0  0
  3 20  1  0  0  0  0
  3 26  1  0  0  0  0
  4 14  1  1  0  0  0
  4 18  1  0  0  0  0
  4 21  2  0  0  0  0
  4 20  1  0  0  0  0
  5 19  1  0  0  0  0
  5  7  1  0  0  0  0
  6  7  2  0  0  0  0
  6 12  1  0  0  0  0
  7  8  1  0  0  0  0
  8  9  1  0  0  0  0
  8 10  2  0  0  0  0
 10 11  1  0  0  0  0
 11 12  2  0  0  0  0
 15 23  1  0  0  0  0
 15 16  1  0  0  0  0
 16 19  1  0  0  0  0
 19 22  1  0  0  0  0
 22  2  1  6  0  0  0
 22 23  1  0  0  0  0
 23 24  1  1  0  0  0
 24 25  1  0  0  0  0
 25 26  1  0  0  0  0
M  CHG  2  13  -1  18  -1
M  END
>  <CHROM.1>
-63.56369387,55.62296982,-67.77808693,175.52821075,-88.87151794,96.40320459
152.47434596,-158.12041681,34.76308719,32.36731072,57.24941680,2.67683515
-0.91967032,0.37325500

>  <Name>
ligand

>  <RI>
0

>  <Rbt.Current_Directory>
/home/itssahil/PROJECTS/Mol_Feturizer/New_Systems/rnas/2HOJ

>  <Rbt.Executable>
rbdock ($Id: //depot/dev/client3/rdock/2013.1/src/exe/rbdock.cxx#4 $)

>  <Rbt.Library>
libRbt.so (2013.1, Build901 2013/11/27)

>  <Rbt.Parameter_File>
/export/apps/rDock/src/rDock_2013.1_src/data/scripts/dock_solv.prm

>  <Rbt.Receptor>
prm/blind_docking_80.prm

>  <SCORE>
18.5926

>  <SCORE.INTER>
17.6669

>  <SCORE.INTER.CONST>
1

>  <SCORE.INTER.POLAR>
-1.10369

>  <SCORE.INTER.ROT>
8

>  <SCORE.INTER.SOLV>
37.4353

>  <SCORE.INTER.VDW>
-5.95486

>  <SCORE.INTER.norm>
0.679497

>  <SCORE.INTRA>
-0.164272

>  <SCORE.INTRA.DIHEDRAL>
0.805931

>  <SCORE.INTRA.DIHEDRAL.0>
11.6398

>  <SCORE.INTRA.POLAR>
0

>  <SCORE.INTRA.POLAR.0>
0

>  <SCORE.INTRA.REPUL>
0

>  <SCORE.INTRA.REPUL.0>
0

>  <SCORE.INTRA.SOLV>
4.18175

>  <SCORE.INTRA.SOLV.lig_0>
-81.722

>  <SCORE.INTRA.VDW>
-2.65811

>  <SCORE.INTRA.VDW.0>
1.12598

>  <SCORE.INTRA.norm>
-0.00631814

>  <SCORE.RESTR>
1.08996

>  <SCORE.RESTR.CAVITY>
1.08996

>  <SCORE.RESTR.norm>
0.0419217

>  <SCORE.SYSTEM>
0

>  <SCORE.SYSTEM.CONST>
0

>  <SCORE.SYSTEM.DIHEDRAL>
0

>  <SCORE.SYSTEM.SOLV>
0

>  <SCORE.SYSTEM.norm>
0

>  <SCORE.heavy>
26

>  <SCORE.norm>
0.7151

>  <RMSD>
16.671

$$$$
ligand
 OpenBabel11021811433D
libRbt.so/2013.1/901 2013/11/27
 26 27  0  0  0  0  0  0  0  0999 V2000
   39.8362   27.3145   59.7836 C   0  0  0  0  0  0  0  0  0  0  0  0
   34.5744   33.6498   57.9187 C   0  0  0  0  0  0  0  0  0  0  0  0
   32.9041   37.5797   60.9452 P   0  0  1  0  0  0  0  0  0  0  0  0
   30.3421   37.6319   61.2917 P   0  0  1  0  0  0  0  0  0  0  0  0
   36.2382   31.3998   58.1154 C   0  0  0  0  0  0  0  0  0  0  0  0
   38.5042   30.3150   58.1360 C   0  0  0  0  0  0  0  0  0  0  0  0
   37.1895   30.3178   58.5577 C   0  0  0  0  0  0  0  0  0  0  0  0
   36.7637   29.2930   59.4046 C   0  0  0  0  0  0  0  0  0  0  0  0
   35.4530   29.2503   59.8558 N   0  0  0  0  0  0  0  0  0  0  0  0
   37.6325   28.3542   59.7679 N   0  0  0  0  0  0  0  0  0  0  0  0
   38.8796   28.3926   59.3456 C   0  0  0  0  0  0  0  0  0  0  0  0
   39.3131   29.3467   58.5450 N   0  0  0  0  0  0  0  0  0  0  0  0
   32.7372   38.9431   61.4976 O   0  5  0  0  0  0  0  0  0  0  0  0
   30.1854   39.1551   61.0878 O   0  0  0  0  0  0  0  0  0  0  0  0
   38.1387   34.4901   59.3085 S   0  0  0  0  0  0  0  0  0  0  0  0
   37.9936   32.7935   58.9653 C   0  0  0  0  0  0  0  0  0  0  0  0
   33.3623   36.5776   62.1172 O   0  0  0  0  0  0  0  0  0  0  0  0
   28.9545   36.8965   60.9396 O   0  5  0  0  0  0  0  0  0  0  0  0
   36.7609   32.7061   58.5218 N   0  0  0  0  0  0  0  0  0  0  0  0
   31.5051   37.0774   60.3255 O   0  0  0  0  0  0  0  0  0  0  0  0
   30.7169   37.3461   62.7634 O   0  0  0  0  0  0  0  0  0  0  0  0
   35.9877   33.7662   58.4314 C   0  0  2  0  0  0  0  0  0  0  0  0
   36.4885   34.9673   58.8175 C   0  0  2  0  0  0  0  0  0  0  0  0
   35.8361   36.3249   58.8259 C   0  0  0  0  0  0  0  0  0  0  0  0
   34.6627   36.3234   59.8083 C   0  0  0  0  0  0  0  0  0  0  0  0
   34.0242   37.6017   59.7885 O   0  0  0  0  0  0  0  0  0  0  0  0
  1 11  1  0  0  0  0
  3 13  1  1  0  0  0
  3 17  2  0  0  0  0
  3 20  1  0  0  0  0
  3 26  1  0  0  0  0
  4 14  1  6  0  0  0
  4 18  1  0  0  0  0
  4 21  2  0  0  0  0
  4 20  1  0  0  0  0
  5 19  1  0  0  0  0
  5  7  1  0  0  0  0
  6  7  2  0  0  0  0
  6 12  1  0  0  0  0
  7  8  1  0  0  0  0
  8  9  1  0  0  0  0
  8 10  2  0  0  0  0
 10 11  1  0  0  0  0
 11 12  2  0  0  0  0
 15 23  1  0  0  0  0
 15 16  1  0  0  0  0
 16 19  1  0  0  0  0
 19 22  1  0  0  0  0
 22  2  1  1  0  0  0
 22 23  1  0  0  0  0
 23 24  1  6  0  0  0
 24 25  1  0  0  0  0
 25 26  1  0  0  0  0
M  CHG  2  13  -1  18  -1
M  END
>  <CHROM.1>
-37.25346756,11.27003288,-58.37060517,72.92041211,-115.98816418,-178.50459197
-174.31082552,148.88311141,34.84709728,34.29795064,59.89657269,0.83051124
-0.35005234,3.10230881

>  <Name>
ligand

>  <RI>
0

>  <Rbt.Current_Directory>
/home/itssahil/PROJECTS/Mol_Feturizer/New_Systems/rnas/2HOJ

>  <Rbt.Executable>
rbdock ($Id: //depot/dev/client3/rdock/2013.1/src/exe/rbdock.cxx#4 $)

>  <Rbt.Library>
libRbt.so (2013.1, Build901 2013/11/27)

>  <Rbt.Parameter_File>
/export/apps/rDock/src/rDock_2013.1_src/data/scripts/dock_solv.prm

>  <Rbt.Receptor>
prm/blind_docking_80.prm

>  <SCORE>
-3.21981

>  <SCORE.INTER>
-5.13513

>  <SCORE.INTER.CONST>
1

>  <SCORE.INTER.POLAR>
0

>  <SCORE.INTER.ROT>
8

>  <SCORE.INTER.SOLV>
37.3352

>  <SCORE.INTER.VDW>
-24.8018

>  <SCORE.INTER.norm>
-0.197505

>  <SCORE.INTRA>
-0.805521

>  <SCORE.INTRA.DIHEDRAL>
-4.6107

>  <SCORE.INTRA.DIHEDRAL.0>
11.6398

>  <SCORE.INTRA.POLAR>
0

>  <SCORE.INTRA.POLAR.0>
0

>  <SCORE.INTRA.REPUL>
0

>  <SCORE.INTRA.REPUL.0>
0

>  <SCORE.INTRA.SOLV>
1.25685

>  <SCORE.INTRA.SOLV.lig_0>
-81.722

>  <SCORE.INTRA.VDW>
0.871405

>  <SCORE.INTRA.VDW.0>
1.12598

>  <SCORE.INTRA.norm>
-0.0309816

>  <SCORE.RESTR>
2.72085

>  <SCORE.RESTR.CAVITY>
2.72085

>  <SCORE.RESTR.norm>
0.104648

>  <SCORE.SYSTEM>
0

>  <SCORE.SYSTEM.CONST>
0

>  <SCORE.SYSTEM.DIHEDRAL>
0

>  <SCORE.SYSTEM.SOLV>
0

>  <SCORE.SYSTEM.norm>
0

>  <SCORE.heavy>
26

>  <SCORE.norm>
-0.123839

>  <RMSD>
17.118

$$$$
ligand
 OpenBabel11021811433D
libRbt.so/2013.1/901 2013/11/27
 26 27  0  0  0  0  0  0  0  0999 V2000
   36.2745   26.1760   57.4242 C   0  0  0  0  0  0  0  0  0  0  0  0
   38.4577   34.2256   58.9174 C   0  0  0  0  0  0  0  0  0  0  0  0
   32.8082   36.6696   60.8316 P   0  0  1  0  0  0  0  0  0  0  0  0
   30.4106   37.3430   61.5279 P   0  0  1  0  0  0  0  0  0  0  0  0
   38.0402   31.4939   58.4346 C   0  0  0  0  0  0  0  0  0  0  0  0
   37.1527   29.7054   56.9097 C   0  0  0  0  0  0  0  0  0  0  0  0
   37.5730   30.0860   58.1686 C   0  0  0  0  0  0  0  0  0  0  0  0
   37.5546   29.1334   59.1888 C   0  0  0  0  0  0  0  0  0  0  0  0
   37.9663   29.4656   60.4708 N   0  0  0  0  0  0  0  0  0  0  0  0
   37.1306   27.9032   58.9146 N   0  0  0  0  0  0  0  0  0  0  0  0
   36.7428   27.5815   57.6976 C   0  0  0  0  0  0  0  0  0  0  0  0
   36.7479   28.4579   56.7122 N   0  0  0  0  0  0  0  0  0  0  0  0
   33.0083   38.1242   61.0201 O   0  5  0  0  0  0  0  0  0  0  0  0
   28.9147   36.9618   61.4700 O   0  0  0  0  0  0  0  0  0  0  0  0
   34.7214   33.3579   58.1241 S   0  0  0  0  0  0  0  0  0  0  0  0
   35.7086   31.9291   58.0877 C   0  0  0  0  0  0  0  0  0  0  0  0
   33.2732   35.8869   62.1579 O   0  0  0  0  0  0  0  0  0  0  0  0
   30.9484   37.1836   63.0364 O   0  5  0  0  0  0  0  0  0  0  0  0
   36.8982   32.4085   58.3684 N   0  0  0  0  0  0  0  0  0  0  0  0
   31.2498   36.3746   60.5524 O   0  0  0  0  0  0  0  0  0  0  0  0
   30.5855   38.8090   61.0715 O   0  0  0  0  0  0  0  0  0  0  0  0
   37.0853   33.6905   58.5949 C   0  0  2  0  0  0  0  0  0  0  0  0
   36.0155   34.5229   58.5242 C   0  0  2  0  0  0  0  0  0  0  0  0
   35.9396   36.0132   58.7297 C   0  0  0  0  0  0  0  0  0  0  0  0
   35.0545   36.3191   59.9400 C   0  0  0  0  0  0  0  0  0  0  0  0
   33.6812   36.1651   59.5760 O   0  0  0  0  0  0  0  0  0  0  0  0
  1 11  1  0  0  0  0
  3 13  1  1  0  0  0
  3 17  2  0  0  0  0
  3 20  1  0  0  0  0
  3 26  1  0  0  0  0
  4 14  1  6  0  0  0
  4 18  1  0  0  0  0
  4 21  2  0  0  0  0
  4 20  1  0  0  0  0
  5 19  1  0  0  0  0
  5  7  1  0  0  0  0
  6  7  2  0  0  0  0
  6 12  1  0  0  0  0
  7  8  1  0  0  0  0
  8  9  1  0  0  0  0
  8 10  2  0  0  0  0
 10 11  1  0  0  0  0
 11 12  2  0  0  0  0
 15 23  1  0  0  0  0
 15 16  1  0  0  0  0
 16 19  1  0  0  0  0
 19 22  1  0  0  0  0
 22  2  1  6  0  0  0
 22 23  1  0  0  0  0
 23 24  1  1  0  0  0
 24 25  1  0  0  0  0
 25 26  1  0  0  0  0
M  CHG  2  13  -1  18  -1
M  END
>  <CHROM.1>
-39.77309915,-0.96801756,69.94551017,-171.39612404,63.30629976,-76.70052472
-173.35565685,66.17607775,34.55037445,33.79875993,59.58847364,0.94003048
-0.33634048,-2.99719067

>  <Name>
ligand

>  <RI>
0

>  <Rbt.Current_Directory>
/home/itssahil/PROJECTS/Mol_Feturizer/New_Systems/rnas/2HOJ

>  <Rbt.Executable>
rbdock ($Id: //depot/dev/client3/rdock/2013.1/src/exe/rbdock.cxx#4 $)

>  <Rbt.Library>
libRbt.so (2013.1, Build901 2013/11/27)

>  <Rbt.Parameter_File>
/export/apps/rDock/src/rDock_2013.1_src/data/scripts/dock_solv.prm

>  <Rbt.Receptor>
prm/blind_docking_80.prm

>  <SCORE>
-12.546

>  <SCORE.INTER>
-11.531

>  <SCORE.INTER.CONST>
1

>  <SCORE.INTER.POLAR>
-0.68491

>  <SCORE.INTER.ROT>
8

>  <SCORE.INTER.SOLV>
28.6291

>  <SCORE.INTER.VDW>
-23.8807

>  <SCORE.INTER.norm>
-0.443502

>  <SCORE.INTRA>
-2.0878

>  <SCORE.INTRA.DIHEDRAL>
-4.4843

>  <SCORE.INTRA.DIHEDRAL.0>
11.6398

>  <SCORE.INTRA.POLAR>
0

>  <SCORE.INTRA.POLAR.0>
0

>  <SCORE.INTRA.REPUL>
0

>  <SCORE.INTRA.REPUL.0>
0

>  <SCORE.INTRA.SOLV>
3.35817

>  <SCORE.INTRA.SOLV.lig_0>
-81.722

>  <SCORE.INTRA.VDW>
-1.52474

>  <SCORE.INTRA.VDW.0>
1.12598

>  <SCORE.INTRA.norm>
-0.0803002

>  <SCORE.RESTR>
1.0729

>  <SCORE.RESTR.CAVITY>
1.0729

>  <SCORE.RESTR.norm>
0.0412654

>  <SCORE.SYSTEM>
0

>  <SCORE.SYSTEM.CONST>
0

>  <SCORE.SYSTEM.DIHEDRAL>
0

>  <SCORE.SYSTEM.SOLV>
0

>  <SCORE.SYSTEM.norm>
0

>  <SCORE.heavy>
26

>  <SCORE.norm>
-0.482537

>  <RMSD>
17.149

$$$$
ligand
 OpenBabel11021811433D
libRbt.so/2013.1/901 2013/11/27
 26 27  0  0  0  0  0  0  0  0999 V2000
   36.2217   25.8627   57.8774 C   0  0  0  0  0  0  0  0  0  0  0  0
   38.3786   33.9370   58.9910 C   0  0  0  0  0  0  0  0  0  0  0  0
   33.7438   36.1527   61.0898 P   0  0  1  0  0  0  0  0  0  0  0  0
   31.4983   37.3675   61.5008 P   0  0  1  0  0  0  0  0  0  0  0  0
   38.0351   31.2448   58.2815 C   0  0  0  0  0  0  0  0  0  0  0  0
   37.1363   29.3017   56.9669 C   0  0  0  0  0  0  0  0  0  0  0  0
   37.5553   29.8200   58.1760 C   0  0  0  0  0  0  0  0  0  0  0  0
   37.5236   28.9907   59.2984 C   0  0  0  0  0  0  0  0  0  0  0  0
   37.9334   29.4637   60.5361 N   0  0  0  0  0  0  0  0  0  0  0  0
   37.0887   27.7412   59.1647 N   0  0  0  0  0  0  0  0  0  0  0  0
   36.7025   27.2859   57.9905 C   0  0  0  0  0  0  0  0  0  0  0  0
   36.7201   28.0435   56.9114 N   0  0  0  0  0  0  0  0  0  0  0  0
   35.1584   36.3878   61.4574 O   0  5  0  0  0  0  0  0  0  0  0  0
   30.8509   36.1330   60.8351 O   0  0  0  0  0  0  0  0  0  0  0  0
   34.7284   33.1038   57.8404 S   0  0  0  0  0  0  0  0  0  0  0  0
   35.7332   31.6881   57.7809 C   0  0  0  0  0  0  0  0  0  0  0  0
   33.0252   35.2910   62.2426 O   0  0  0  0  0  0  0  0  0  0  0  0
   31.5596   37.1493   63.0941 O   0  5  0  0  0  0  0  0  0  0  0  0
   36.8906   32.1540   58.1898 N   0  0  0  0  0  0  0  0  0  0  0  0
   32.9900   37.5666   60.9273 O   0  0  0  0  0  0  0  0  0  0  0  0
   30.6547   38.6233   61.1854 O   0  0  0  0  0  0  0  0  0  0  0  0
   37.0430   33.4174   58.5219 C   0  0  2  0  0  0  0  0  0  0  0  0
   35.9718   34.2455   58.4255 C   0  0  2  0  0  0  0  0  0  0  0  0
   35.8612   35.7164   58.7306 C   0  0  0  0  0  0  0  0  0  0  0  0
   34.3876   36.1295   58.7343 C   0  0  0  0  0  0  0  0  0  0  0  0
   33.6770   35.3479   59.6966 O   0  0  0  0  0  0  0  0  0  0  0  0
  1 11  1  0  0  0  0
  3 13  1  1  0  0  0
  3 17  2  0  0  0  0
  3 20  1  0  0  0  0
  3 26  1  0  0  0  0
  4 14  1  6  0  0  0
  4 18  1  0  0  0  0
  4 21  2  0  0  0  0
  4 20  1  0  0  0  0
  5 19  1  0  0  0  0
  5  7  1  0  0  0  0
  6  7  2  0  0  0  0
  6 12  1  0  0  0  0
  7  8  1  0  0  0  0
  8  9  1  0  0  0  0
  8 10  2  0  0  0  0
 10 11  1  0  0  0  0
 11 12  2  0  0  0  0
 15 23  1  0  0  0  0
 15 16  1  0  0  0  0
 16 19  1  0  0  0  0
 19 22  1  0  0  0  0
 22  2  1  6  0  0  0
 22 23  1  0  0  0  0
 23 24  1  1  0  0  0
 24 25  1  0  0  0  0
 25 26  1  0  0  0  0
M  CHG  2  13  -1  18  -1
M  END
>  <CHROM.1>
-142.90991361,-13.26493825,73.48498788,-51.77885757,11.17758129,57.86825014
90.06225911,-57.02456062,34.90161474,33.49908319,59.58935481,0.99048725,-0.49568165
-3.07750984

>  <Name>
ligand

>  <RI>
0

>  <Rbt.Current_Directory>
/home/itssahil/PROJECTS/Mol_Feturizer/New_Systems/rnas/2HOJ

>  <Rbt.Executable>
rbdock ($Id: //depot/dev/client3/rdock/2013.1/src/exe/rbdock.cxx#4 $)

>  <Rbt.Library>
libRbt.so (2013.1, Build901 2013/11/27)

>  <Rbt.Parameter_File>
/export/apps/rDock/src/rDock_2013.1_src/data/scripts/dock_solv.prm

>  <Rbt.Receptor>
prm/blind_docking_80.prm

>  <SCORE>
-6.08163

>  <SCORE.INTER>
-7.22805

>  <SCORE.INTER.CONST>
1

>  <SCORE.INTER.POLAR>
-0.781391

>  <SCORE.INTER.ROT>
8

>  <SCORE.INTER.SOLV>
26.097

>  <SCORE.INTER.VDW>
-19.8464

>  <SCORE.INTER.norm>
-0.278002

>  <SCORE.INTRA>
-0.402454

>  <SCORE.INTRA.DIHEDRAL>
-1.62837

>  <SCORE.INTRA.DIHEDRAL.0>
11.6398

>  <SCORE.INTRA.POLAR>
0

>  <SCORE.INTRA.POLAR.0>
0

>  <SCORE.INTRA.REPUL>
0

>  <SCORE.INTRA.REPUL.0>
0

>  <SCORE.INTRA.SOLV>
1.50235

>  <SCORE.INTRA.SOLV.lig_0>
-81.722

>  <SCORE.INTRA.VDW>
-0.339444

>  <SCORE.INTRA.VDW.0>
1.12598

>  <SCORE.INTRA.norm>
-0.015479

>  <SCORE.RESTR>
1.54888

>  <SCORE.RESTR.CAVITY>
1.54888

>  <SCORE.RESTR.norm>
0.0595723

>  <SCORE.SYSTEM>
0

>  <SCORE.SYSTEM.CONST>
0

>  <SCORE.SYSTEM.DIHEDRAL>
0

>  <SCORE.SYSTEM.SOLV>
0

>  <SCORE.SYSTEM.norm>
0

>  <SCORE.heavy>
26

>  <SCORE.norm>
-0.233909

>  <RMSD>
17.283

$$$$
ligand
 OpenBabel11021811433D
libRbt.so/2013.1/901 2013/11/27
 26 27  0  0  0  0  0  0  0  0999 V2000
   39.4932   27.0672   59.9477 C   0  0  0  0  0  0  0  0  0  0  0  0
   34.5037   33.3639   57.8601 C   0  0  0  0  0  0  0  0  0  0  0  0
   33.3026   37.3310   61.5641 P   0  0  1  0  0  0  0  0  0  0  0  0
   30.7189   37.2244   61.5666 P   0  0  1  0  0  0  0  0  0  0  0  0
   36.3225   31.2334   57.7099 C   0  0  0  0  0  0  0  0  0  0  0  0
   36.7606   29.4697   59.4445 C   0  0  0  0  0  0  0  0  0  0  0  0
   37.1628   30.1309   58.3012 C   0  0  0  0  0  0  0  0  0  0  0  0
   38.3675   29.7520   57.7065 C   0  0  0  0  0  0  0  0  0  0  0  0
   38.8160   30.3855   56.5571 N   0  0  0  0  0  0  0  0  0  0  0  0
   39.0823   28.7780   58.2619 N   0  0  0  0  0  0  0  0  0  0  0  0
   38.6586   28.1702   59.3510 C   0  0  0  0  0  0  0  0  0  0  0  0
   37.5255   28.5046   59.9371 N   0  0  0  0  0  0  0  0  0  0  0  0
   34.4227   38.1264   62.1158 O   0  5  0  0  0  0  0  0  0  0  0  0
   31.0484   35.9617   60.7399 O   0  0  0  0  0  0  0  0  0  0  0  0
   38.0950   34.3180   59.0987 S   0  0  0  0  0  0  0  0  0  0  0  0
   38.0382   32.6588   58.5879 C   0  0  0  0  0  0  0  0  0  0  0  0
   33.0483   36.0437   62.4948 O   0  0  0  0  0  0  0  0  0  0  0  0
   30.4177   36.8057   63.0911 O   0  5  0  0  0  0  0  0  0  0  0  0
   36.7854   32.5267   58.2179 N   0  0  0  0  0  0  0  0  0  0  0  0
   31.9712   38.2362   61.5239 O   0  0  0  0  0  0  0  0  0  0  0  0
   29.4753   37.9202   60.9688 O   0  0  0  0  0  0  0  0  0  0  0  0
   35.9393   33.5310   58.2902 C   0  0  2  0  0  0  0  0  0  0  0  0
   36.3859   34.7203   58.7683 C   0  0  2  0  0  0  0  0  0  0  0  0
   35.6475   36.0187   58.9624 C   0  0  0  0  0  0  0  0  0  0  0  0
   34.7401   35.9135   60.1902 C   0  0  0  0  0  0  0  0  0  0  0  0
   33.6682   36.8510   60.0712 O   0  0  0  0  0  0  0  0  0  0  0  0
  1 11  1  0  0  0  0
  3 13  1  1  0  0  0
  3 17  2  0  0  0  0
  3 20  1  0  0  0  0
  3 26  1  0  0  0  0
  4 14  1  6  0  0  0
  4 18  1  0  0  0  0
  4 21  2  0  0  0  0
  4 20  1  0  0  0  0
  5 19  1  0  0  0  0
  5  7  1  0  0  0  0
  6  7  2  0  0  0  0
  6 12  1  0  0  0  0
  7  8  1  0  0  0  0
  8  9  1  0  0  0  0
  8 10  2  0  0  0  0
 10 11  1  0  0  0  0
 11 12  2  0  0  0  0
 15 23  1  0  0  0  0
 15 16  1  0  0  0  0
 16 19  1  0  0  0  0
 19 22  1  0  0  0  0
 22  2  1  1  0  0  0
 22 23  1  0  0  0  0
 23 24  1  6  0  0  0
 24 25  1  0  0  0  0
 25 26  1  0  0  0  0
M  CHG  2  13  -1  18  -1
M  END
>  <CHROM.1>
-155.24680102,27.17647085,94.01301929,-37.21246872,-105.14309925,-155.89492657
-147.55360017,67.69941004,35.07150577,34.02512875,59.89018957,0.78002036
-0.50256870,3.06422032

>  <Name>
ligand

>  <RI>
0

>  <Rbt.Current_Directory>
/home/itssahil/PROJECTS/Mol_Feturizer/New_Systems/rnas/2HOJ

>  <Rbt.Executable>
rbdock ($Id: //depot/dev/client3/rdock/2013.1/src/exe/rbdock.cxx#4 $)

>  <Rbt.Library>
libRbt.so (2013.1, Build901 2013/11/27)

>  <Rbt.Parameter_File>
/export/apps/rDock/src/rDock_2013.1_src/data/scripts/dock_solv.prm

>  <Rbt.Receptor>
prm/blind_docking_80.prm

>  <SCORE>
-2.27311

>  <SCORE.INTER>
-4.76452

>  <SCORE.INTER.CONST>
1

>  <SCORE.INTER.POLAR>
0

>  <SCORE.INTER.ROT>
8

>  <SCORE.INTER.SOLV>
25.3141

>  <SCORE.INTER.VDW>
-20.5477

>  <SCORE.INTER.norm>
-0.183251

>  <SCORE.INTRA>
-0.994401

>  <SCORE.INTRA.DIHEDRAL>
0.723026

>  <SCORE.INTRA.DIHEDRAL.0>
11.6398

>  <SCORE.INTRA.POLAR>
0

>  <SCORE.INTRA.POLAR.0>
0

>  <SCORE.INTRA.REPUL>
0

>  <SCORE.INTRA.REPUL.0>
0

>  <SCORE.INTRA.SOLV>
1.24431

>  <SCORE.INTRA.SOLV.lig_0>
-81.722

>  <SCORE.INTRA.VDW>
-1.97807

>  <SCORE.INTRA.VDW.0>
1.12598

>  <SCORE.INTRA.norm>
-0.0382462

>  <SCORE.RESTR>
3.48581

>  <SCORE.RESTR.CAVITY>
3.48581

>  <SCORE.RESTR.norm>
0.13407

>  <SCORE.SYSTEM>
0

>  <SCORE.SYSTEM.CONST>
0

>  <SCORE.SYSTEM.DIHEDRAL>
0

>  <SCORE.SYSTEM.SOLV>
0

>  <SCORE.SYSTEM.norm>
0

>  <SCORE.heavy>
26

>  <SCORE.norm>
-0.0874274

>  <RMSD>
17.286

$$$$
ligand
 OpenBabel11021811433D
libRbt.so/2013.1/901 2013/11/27
 26 27  0  0  0  0  0  0  0  0999 V2000
   36.2793   26.0645   57.6457 C   0  0  0  0  0  0  0  0  0  0  0  0
   38.3989   34.1596   58.9383 C   0  0  0  0  0  0  0  0  0  0  0  0
   34.9393   34.5024   61.3550 P   0  0  1  0  0  0  0  0  0  0  0  0
   32.7859   35.6905   62.1538 P   0  0  1  0  0  0  0  0  0  0  0  0
   38.0304   31.4243   58.4359 C   0  0  0  0  0  0  0  0  0  0  0  0
   37.1343   29.5760   56.9895 C   0  0  0  0  0  0  0  0  0  0  0  0
   37.5671   30.0054   58.2282 C   0  0  0  0  0  0  0  0  0  0  0  0
   37.5651   29.0916   59.2835 C   0  0  0  0  0  0  0  0  0  0  0  0
   37.9899   29.4734   60.5473 N   0  0  0  0  0  0  0  0  0  0  0  0
   37.1441   27.8501   59.0605 N   0  0  0  0  0  0  0  0  0  0  0  0
   36.7438   27.4813   57.8609 C   0  0  0  0  0  0  0  0  0  0  0  0
   36.7333   28.3202   56.8435 N   0  0  0  0  0  0  0  0  0  0  0  0
   35.1642   34.3172   62.8064 O   0  5  0  0  0  0  0  0  0  0  0  0
   33.6235   36.9879   62.1128 O   0  0  0  0  0  0  0  0  0  0  0  0
   34.7714   33.2908   57.7427 S   0  0  0  0  0  0  0  0  0  0  0  0
   35.7529   31.8602   57.8286 C   0  0  0  0  0  0  0  0  0  0  0  0
   35.5148   33.2306   60.5555 O   0  0  0  0  0  0  0  0  0  0  0  0
   31.2507   36.0303   61.8108 O   0  5  0  0  0  0  0  0  0  0  0  0
   36.9052   32.3401   58.2355 N   0  0  0  0  0  0  0  0  0  0  0  0
   33.3606   34.6458   61.0711 O   0  0  0  0  0  0  0  0  0  0  0  0
   32.8721   35.0674   63.5653 O   0  0  0  0  0  0  0  0  0  0  0  0
   37.0694   33.6238   58.4700 C   0  0  2  0  0  0  0  0  0  0  0  0
   36.0162   34.4573   58.2737 C   0  0  2  0  0  0  0  0  0  0  0  0
   35.9219   35.9495   58.4565 C   0  0  0  0  0  0  0  0  0  0  0  0
   35.0371   36.2627   59.6653 C   0  0  0  0  0  0  0  0  0  0  0  0
   35.6950   35.8353   60.8597 O   0  0  0  0  0  0  0  0  0  0  0  0
  1 11  1  0  0  0  0
  3 13  1  1  0  0  0
  3 17  2  0  0  0  0
  3 20  1  0  0  0  0
  3 26  1  0  0  0  0
  4 14  1  6  0  0  0
  4 18  1  0  0  0  0
  4 21  2  0  0  0  0
  4 20  1  0  0  0  0
  5 19  1  0  0  0  0
  5  7  1  0  0  0  0
  6  7  2  0  0  0  0
  6 12  1  0  0  0  0
  7  8  1  0  0  0  0
  8  9  1  0  0  0  0
  8 10  2  0  0  0  0
 10 11  1  0  0  0  0
 11 12  2  0  0  0  0
 15 23  1  0  0  0  0
 15 16  1  0  0  0  0
 16 19  1  0  0  0  0
 19 22  1  0  0  0  0
 22  2  1  6  0  0  0
 22 23  1  0  0  0  0
 23 24  1  1  0  0  0
 24 25  1  0  0  0  0
 25 26  1  0  0  0  0
M  CHG  2  13  -1  18  -1
M  END
>  <CHROM.1>
46.62364612,-4.99318230,65.12861219,52.57871248,69.95409327,67.84261114,-105.99272199
-156.95265146,35.49108638,32.96145835,59.78439360,0.86365242,-0.88829825
3.04446673

>  <Name>
ligand

>  <RI>
0

>  <Rbt.Current_Directory>
/home/itssahil/PROJECTS/Mol_Feturizer/New_Systems/rnas/2HOJ

>  <Rbt.Executable>
rbdock ($Id: //depot/dev/client3/rdock/2013.1/src/exe/rbdock.cxx#4 $)

>  <Rbt.Library>
libRbt.so (2013.1, Build901 2013/11/27)

>  <Rbt.Parameter_File>
/export/apps/rDock/src/rDock_2013.1_src/data/scripts/dock_solv.prm

>  <Rbt.Receptor>
prm/blind_docking_80.prm

>  <SCORE>
-8.93604

>  <SCORE.INTER>
-11.6668

>  <SCORE.INTER.CONST>
1

>  <SCORE.INTER.POLAR>
-2.0439

>  <SCORE.INTER.ROT>
8

>  <SCORE.INTER.SOLV>
28.8403

>  <SCORE.INTER.VDW>
-19.5117

>  <SCORE.INTER.norm>
-0.448725

>  <SCORE.INTRA>
1.00218

>  <SCORE.INTRA.DIHEDRAL>
1.11946

>  <SCORE.INTRA.DIHEDRAL.0>
11.6398

>  <SCORE.INTRA.POLAR>
0

>  <SCORE.INTRA.POLAR.0>
0

>  <SCORE.INTRA.REPUL>
0

>  <SCORE.INTRA.REPUL.0>
0

>  <SCORE.INTRA.SOLV>
3.96262

>  <SCORE.INTRA.SOLV.lig_0>
-81.722

>  <SCORE.INTRA.VDW>
-1.53886

>  <SCORE.INTRA.VDW.0>
1.12598

>  <SCORE.INTRA.norm>
0.0385452

>  <SCORE.RESTR>
1.72862

>  <SCORE.RESTR.CAVITY>
1.72862

>  <SCORE.RESTR.norm>
0.0664854

>  <SCORE.SYSTEM>
0

>  <SCORE.SYSTEM.CONST>
0

>  <SCORE.SYSTEM.DIHEDRAL>
0

>  <SCORE.SYSTEM.SOLV>
0

>  <SCORE.SYSTEM.norm>
0

>  <SCORE.heavy>
26

>  <SCORE.norm>
-0.343694

>  <RMSD>
17.417

$$$$
ligand
 OpenBabel11021811433D
libRbt.so/2013.1/901 2013/11/27
 26 27  0  0  0  0  0  0  0  0999 V2000
   23.6294   36.2605   50.4809 C   0  0  0  0  0  0  0  0  0  0  0  0
   22.5039   35.3342   44.2444 C   0  0  0  0  0  0  0  0  0  0  0  0
   24.5938   32.4174   45.8557 P   0  0  1  0  0  0  0  0  0  0  0  0
   26.2063   33.1789   47.7284 P   0  0  1  0  0  0  0  0  0  0  0  0
   23.0199   37.9615   45.0815 C   0  0  0  0  0  0  0  0  0  0  0  0
   24.4167   37.5269   47.1240 C   0  0  0  0  0  0  0  0  0  0  0  0
   23.1798   37.5109   46.5107 C   0  0  0  0  0  0  0  0  0  0  0  0
   22.0809   37.0670   47.2482 C   0  0  0  0  0  0  0  0  0  0  0  0
   20.8172   37.0312   46.6778 N   0  0  0  0  0  0  0  0  0  0  0  0
   22.2645   36.6731   48.5049 N   0  0  0  0  0  0  0  0  0  0  0  0
   23.4619   36.7093   49.0526 C   0  0  0  0  0  0  0  0  0  0  0  0
   24.5201   37.1229   48.3831 N   0  0  0  0  0  0  0  0  0  0  0  0
   25.0053   30.9955   45.8378 O   0  5  0  0  0  0  0  0  0  0  0  0
   26.2813   31.6777   48.0849 O   0  0  0  0  0  0  0  0  0  0  0  0
   25.9246   36.7214   42.9343 S   0  0  0  0  0  0  0  0  0  0  0  0
   25.1056   37.9097   43.9011 C   0  0  0  0  0  0  0  0  0  0  0  0
   23.4860   32.6418   47.0004 O   0  0  0  0  0  0  0  0  0  0  0  0
   27.6168   33.8809   48.0570 O   0  5  0  0  0  0  0  0  0  0  0  0
   24.0055   37.2785   44.2405 N   0  0  0  0  0  0  0  0  0  0  0  0
   25.8762   33.3427   46.1606 O   0  0  0  0  0  0  0  0  0  0  0  0
   25.0911   33.8500   48.5613 O   0  0  0  0  0  0  0  0  0  0  0  0
   23.7717   36.0462   43.8450 C   0  0  2  0  0  0  0  0  0  0  0  0
   24.6948   35.4318   43.0621 C   0  0  2  0  0  0  0  0  0  0  0  0
   24.6865   34.0470   42.4694 C   0  0  0  0  0  0  0  0  0  0  0  0
   25.0794   33.0284   43.5418 C   0  0  0  0  0  0  0  0  0  0  0  0
   23.9751   32.8162   44.4235 O   0  0  0  0  0  0  0  0  0  0  0  0
  1 11  1  0  0  0  0
  3 13  1  6  0  0  0
  3 17  2  0  0  0  0
  3 20  1  0  0  0  0
  3 26  1  0  0  0  0
  4 14  1  1  0  0  0
  4 18  1  0  0  0  0
  4 21  2  0  0  0  0
  4 20  1  0  0  0  0
  5 19  1  0  0  0  0
  5  7  1  0  0  0  0
  6  7  2  0  0  0  0
  6 12  1  0  0  0  0
  7  8  1  0  0  0  0
  8  9  1  0  0  0  0
  8 10  2  0  0  0  0
 10 11  1  0  0  0  0
 11 12  2  0  0  0  0
 15 23  1  0  0  0  0
 15 16  1  0  0  0  0
 16 19  1  0  0  0  0
 19 22  1  0  0  0  0
 22  2  1  6  0  0  0
 22 23  1  0  0  0  0
 23 24  1  1  0  0  0
 24 25  1  0  0  0  0
 25 26  1  0  0  0  0
M  CHG  2  13  -1  18  -1
M  END
>  <CHROM.1>
-74.63976447,-99.59528709,50.61548679,50.63449450,101.12869818,76.09924235
-151.12784188,-78.75509779,24.48699187,34.91073528,46.07436050,2.59677377
1.11570253,-1.34591380

>  <Name>
ligand

>  <RI>
0

>  <Rbt.Current_Directory>
/home/itssahil/PROJECTS/Mol_Feturizer/New_Systems/rnas/2HOJ

>  <Rbt.Executable>
rbdock ($Id: //depot/dev/client3/rdock/2013.1/src/exe/rbdock.cxx#4 $)

>  <Rbt.Library>
libRbt.so (2013.1, Build901 2013/11/27)

>  <Rbt.Parameter_File>
/export/apps/rDock/src/rDock_2013.1_src/data/scripts/dock_solv.prm

>  <Rbt.Receptor>
prm/blind_docking_80.prm

>  <SCORE>
-5.96484

>  <SCORE.INTER>
-3.76908

>  <SCORE.INTER.CONST>
1

>  <SCORE.INTER.POLAR>
0

>  <SCORE.INTER.ROT>
8

>  <SCORE.INTER.SOLV>
23.5475

>  <SCORE.INTER.VDW>
-19.2952

>  <SCORE.INTER.norm>
-0.144965

>  <SCORE.INTRA>
-3.25308

>  <SCORE.INTRA.DIHEDRAL>
-1.63853

>  <SCORE.INTRA.DIHEDRAL.0>
11.6398

>  <SCORE.INTRA.POLAR>
0

>  <SCORE.INTRA.POLAR.0>
0

>  <SCORE.INTRA.REPUL>
0

>  <SCORE.INTRA.REPUL.0>
0

>  <SCORE.INTRA.SOLV>
3.78956

>  <SCORE.INTRA.SOLV.lig_0>
-81.722

>  <SCORE.INTRA.VDW>
-4.3286

>  <SCORE.INTRA.VDW.0>
1.12598

>  <SCORE.INTRA.norm>
-0.125119

>  <SCORE.RESTR>
1.05733

>  <SCORE.RESTR.CAVITY>
1.05733

>  <SCORE.RESTR.norm>
0.0406665

>  <SCORE.SYSTEM>
0

>  <SCORE.SYSTEM.CONST>
0

>  <SCORE.SYSTEM.DIHEDRAL>
0

>  <SCORE.SYSTEM.SOLV>
0

>  <SCORE.SYSTEM.norm>
0

>  <SCORE.heavy>
26

>  <SCORE.norm>
-0.229417

>  <RMSD>
21.948

$$$$
ligand
 OpenBabel11021811433D
libRbt.so/2013.1/901 2013/11/27
 26 27  0  0  0  0  0  0  0  0999 V2000
   23.9004   36.5360   50.3782 C   0  0  0  0  0  0  0  0  0  0  0  0
   22.6046   34.7855   44.3134 C   0  0  0  0  0  0  0  0  0  0  0  0
   26.3478   34.5939   45.5069 P   0  0  1  0  0  0  0  0  0  0  0  0
   25.7036   33.1452   47.5497 P   0  0  1  0  0  0  0  0  0  0  0  0
   22.2144   37.4719   45.0209 C   0  0  0  0  0  0  0  0  0  0  0  0
   23.9906   37.3227   46.7914 C   0  0  0  0  0  0  0  0  0  0  0  0
   22.6593   37.2238   46.4393 C   0  0  0  0  0  0  0  0  0  0  0  0
   21.7355   36.8886   47.4307 C   0  0  0  0  0  0  0  0  0  0  0  0
   20.3866   36.7762   47.1283 N   0  0  0  0  0  0  0  0  0  0  0  0
   22.1688   36.6727   48.6692 N   0  0  0  0  0  0  0  0  0  0  0  0
   23.4483   36.7825   48.9625 C   0  0  0  0  0  0  0  0  0  0  0  0
   24.3460   37.0972   48.0492 N   0  0  0  0  0  0  0  0  0  0  0  0
   26.4615   35.9690   44.9704 O   0  5  0  0  0  0  0  0  0  0  0  0
   24.1949   32.8370   47.4273 O   0  0  0  0  0  0  0  0  0  0  0  0
   25.1714   37.2103   42.6181 S   0  0  0  0  0  0  0  0  0  0  0  0
   24.0682   38.0891   43.6322 C   0  0  0  0  0  0  0  0  0  0  0  0
   27.7469   33.8241   45.3129 O   0  0  0  0  0  0  0  0  0  0  0  0
   26.5375   32.1277   46.6228 O   0  5  0  0  0  0  0  0  0  0  0  0
   23.3020   37.1315   44.1010 N   0  0  0  0  0  0  0  0  0  0  0  0
   25.9830   34.6583   47.0741 O   0  0  0  0  0  0  0  0  0  0  0  0
   26.1443   32.9795   49.0216 O   0  0  0  0  0  0  0  0  0  0  0  0
   23.4924   35.8741   43.7653 C   0  0  2  0  0  0  0  0  0  0  0  0
   24.5024   35.5792   42.9077 C   0  0  2  0  0  0  0  0  0  0  0  0
   24.9398   34.2473   42.3568 C   0  0  0  0  0  0  0  0  0  0  0  0
   25.7104   33.4766   43.4311 C   0  0  0  0  0  0  0  0  0  0  0  0
   25.1862   33.8040   44.7195 O   0  0  0  0  0  0  0  0  0  0  0  0
  1 11  1  0  0  0  0
  3 13  1  6  0  0  0
  3 17  2  0  0  0  0
  3 20  1  0  0  0  0
  3 26  1  0  0  0  0
  4 14  1  6  0  0  0
  4 18  1  0  0  0  0
  4 21  2  0  0  0  0
  4 20  1  0  0  0  0
  5 19  1  0  0  0  0
  5  7  1  0  0  0  0
  6  7  2  0  0  0  0
  6 12  1  0  0  0  0
  7  8  1  0  0  0  0
  8  9  1  0  0  0  0
  8 10  2  0  0  0  0
 10 11  1  0  0  0  0
 11 12  2  0  0  0  0
 15 23  1  0  0  0  0
 15 16  1  0  0  0  0
 16 19  1  0  0  0  0
 19 22  1  0  0  0  0
 22  2  1  6  0  0  0
 22 23  1  0  0  0  0
 23 24  1  1  0  0  0
 24 25  1  0  0  0  0
 25 26  1  0  0  0  0
M  CHG  2  13  -1  18  -1
M  END
>  <CHROM.1>
173.43568432,-98.45141117,28.61866582,-92.51877235,103.65505012,32.38092274
-113.73009019,74.68588232,24.59837566,35.34294273,45.86778656,1.68969632
-0.78559120,1.84935404

>  <Name>
ligand

>  <RI>
0

>  <Rbt.Current_Directory>
/home/itssahil/PROJECTS/Mol_Feturizer/New_Systems/rnas/2HOJ

>  <Rbt.Executable>
rbdock ($Id: //depot/dev/client3/rdock/2013.1/src/exe/rbdock.cxx#4 $)

>  <Rbt.Library>
libRbt.so (2013.1, Build901 2013/11/27)

>  <Rbt.Parameter_File>
/export/apps/rDock/src/rDock_2013.1_src/data/scripts/dock_solv.prm

>  <Rbt.Receptor>
prm/blind_docking_80.prm

>  <SCORE>
2.0882

>  <SCORE.INTER>
-0.570375

>  <SCORE.INTER.CONST>
1

>  <SCORE.INTER.POLAR>
0

>  <SCORE.INTER.ROT>
8

>  <SCORE.INTER.SOLV>
16.7108

>  <SCORE.INTER.VDW>
-14.8838

>  <SCORE.INTER.norm>
-0.0219375

>  <SCORE.INTRA>
0.681304

>  <SCORE.INTRA.DIHEDRAL>
4.19232

>  <SCORE.INTRA.DIHEDRAL.0>
11.6398

>  <SCORE.INTRA.POLAR>
0

>  <SCORE.INTRA.POLAR.0>
0

>  <SCORE.INTRA.REPUL>
0

>  <SCORE.INTRA.REPUL.0>
0

>  <SCORE.INTRA.SOLV>
5.62366

>  <SCORE.INTRA.SOLV.lig_0>
-81.722

>  <SCORE.INTRA.VDW>
-4.22669

>  <SCORE.INTRA.VDW.0>
1.12598

>  <SCORE.INTRA.norm>
0.026204

>  <SCORE.RESTR>
1.97727

>  <SCORE.RESTR.CAVITY>
1.97727

>  <SCORE.RESTR.norm>
0.0760487

>  <SCORE.SYSTEM>
0

>  <SCORE.SYSTEM.CONST>
0

>  <SCORE.SYSTEM.DIHEDRAL>
0

>  <SCORE.SYSTEM.SOLV>
0

>  <SCORE.SYSTEM.norm>
0

>  <SCORE.heavy>
26

>  <SCORE.norm>
0.0803152

>  <RMSD>
22.015

$$$$
ligand
 OpenBabel11021811433D
libRbt.so/2013.1/901 2013/11/27
 26 27  0  0  0  0  0  0  0  0999 V2000
   19.9953   34.8756   43.8948 C   0  0  0  0  0  0  0  0  0  0  0  0
   26.5957   34.0364   44.6140 C   0  0  0  0  0  0  0  0  0  0  0  0
   24.7859   36.6322   47.0330 P   0  0  1  0  0  0  0  0  0  0  0  0
   22.2226   36.9729   47.0145 P   0  0  1  0  0  0  0  0  0  0  0  0
   24.7769   31.9048   44.7484 C   0  0  0  0  0  0  0  0  0  0  0  0
   22.4155   32.5226   45.3432 C   0  0  0  0  0  0  0  0  0  0  0  0
   23.5119   32.6918   44.5212 C   0  0  0  0  0  0  0  0  0  0  0  0
   23.4190   33.6107   43.4745 C   0  0  0  0  0  0  0  0  0  0  0  0
   24.4921   33.8170   42.6204 N   0  0  0  0  0  0  0  0  0  0  0  0
   22.2836   34.2816   43.3046 N   0  0  0  0  0  0  0  0  0  0  0  0
   21.2631   34.0925   44.1157 C   0  0  0  0  0  0  0  0  0  0  0  0
   21.3186   33.2320   45.1134 N   0  0  0  0  0  0  0  0  0  0  0  0
   24.5470   35.4372   46.1925 O   0  5  0  0  0  0  0  0  0  0  0  0
   22.0397   35.6280   46.2770 O   0  0  0  0  0  0  0  0  0  0  0  0
   26.1250   32.6435   48.2444 S   0  0  0  0  0  0  0  0  0  0  0  0
   25.1396   31.7670   47.1139 C   0  0  0  0  0  0  0  0  0  0  0  0
   25.0171   37.9149   46.0901 O   0  0  0  0  0  0  0  0  0  0  0  0
   20.9110   37.2876   47.8926 O   0  5  0  0  0  0  0  0  0  0  0  0
   25.4238   32.3640   45.9795 N   0  0  0  0  0  0  0  0  0  0  0  0
   23.5083   36.8853   47.9804 O   0  0  0  0  0  0  0  0  0  0  0  0
   22.4325   38.1019   45.9804 O   0  0  0  0  0  0  0  0  0  0  0  0
   26.2788   33.3619   45.9248 C   0  0  2  0  0  0  0  0  0  0  0  0
   26.8642   33.7763   47.0772 C   0  0  2  0  0  0  0  0  0  0  0  0
   27.8621   34.8808   47.3074 C   0  0  0  0  0  0  0  0  0  0  0  0
   27.1952   36.2348   47.0545 C   0  0  0  0  0  0  0  0  0  0  0  0
   26.0905   36.3948   47.9467 O   0  0  0  0  0  0  0  0  0  0  0  0
  1 11  1  0  0  0  0
  3 13  1  6  0  0  0
  3 17  2  0  0  0  0
  3 20  1  0  0  0  0
  3 26  1  0  0  0  0
  4 14  1  6  0  0  0
  4 18  1  0  0  0  0
  4 21  2  0  0  0  0
  4 20  1  0  0  0  0
  5 19  1  0  0  0  0
  5  7  1  0  0  0  0
  6  7  2  0  0  0  0
  6 12  1  0  0  0  0
  7  8  1  0  0  0  0
  8  9  1  0  0  0  0
  8 10  2  0  0  0  0
 10 11  1  0  0  0  0
 11 12  2  0  0  0  0
 15 23  1  0  0  0  0
 15 16  1  0  0  0  0
 16 19  1  0  0  0  0
 19 22  1  0  0  0  0
 22  2  1  1  0  0  0
 22 23  1  0  0  0  0
 23 24  1  6  0  0  0
 24 25  1  0  0  0  0
 25 26  1  0  0  0  0
M  CHG  2  13  -1  18  -1
M  END
>  <CHROM.1>
-54.69885887,91.60410136,-69.57120144,62.25108469,-112.26576202,59.86150149
-122.20650564,62.51907121,24.11191311,34.87518362,46.11766154,2.88771611
-0.43950704,0.53662177

>  <Name>
ligand

>  <RI>
0

>  <Rbt.Current_Directory>
/home/itssahil/PROJECTS/Mol_Feturizer/New_Systems/rnas/2HOJ

>  <Rbt.Executable>
rbdock ($Id: //depot/dev/client3/rdock/2013.1/src/exe/rbdock.cxx#4 $)

>  <Rbt.Library>
libRbt.so (2013.1, Build901 2013/11/27)

>  <Rbt.Parameter_File>
/export/apps/rDock/src/rDock_2013.1_src/data/scripts/dock_solv.prm

>  <Rbt.Receptor>
prm/blind_docking_80.prm

>  <SCORE>
-3.59276

>  <SCORE.INTER>
-5.26451

>  <SCORE.INTER.CONST>
1

>  <SCORE.INTER.POLAR>
0

>  <SCORE.INTER.ROT>
8

>  <SCORE.INTER.SOLV>
11.3274

>  <SCORE.INTER.VDW>
-16.2188

>  <SCORE.INTER.norm>
-0.202481

>  <SCORE.INTRA>
-0.793731

>  <SCORE.INTRA.DIHEDRAL>
0.195861

>  <SCORE.INTRA.DIHEDRAL.0>
11.6398

>  <SCORE.INTRA.POLAR>
0

>  <SCORE.INTRA.POLAR.0>
0

>  <SCORE.INTRA.REPUL>
0

>  <SCORE.INTRA.REPUL.0>
0

>  <SCORE.INTRA.SOLV>
8.02639

>  <SCORE.INTRA.SOLV.lig_0>
-81.722

>  <SCORE.INTRA.VDW>
-4.90486

>  <SCORE.INTRA.VDW.0>
1.12598

>  <SCORE.INTRA.norm>
-0.0305281

>  <SCORE.RESTR>
2.46548

>  <SCORE.RESTR.CAVITY>
2.46548

>  <SCORE.RESTR.norm>
0.0948263

>  <SCORE.SYSTEM>
0

>  <SCORE.SYSTEM.CONST>
0

>  <SCORE.SYSTEM.DIHEDRAL>
0

>  <SCORE.SYSTEM.SOLV>
0

>  <SCORE.SYSTEM.norm>
0

>  <SCORE.heavy>
26

>  <SCORE.norm>
-0.138183

>  <RMSD>
22.414

$$$$
ligand
 OpenBabel11021811433D
libRbt.so/2013.1/901 2013/11/27
 26 27  0  0  0  0  0  0  0  0999 V2000
   16.0843   32.4625   44.8567 C   0  0  0  0  0  0  0  0  0  0  0  0
   23.1476   36.1249   43.7767 C   0  0  0  0  0  0  0  0  0  0  0  0
   26.0916   34.9938   46.1791 P   0  0  1  0  0  0  0  0  0  0  0  0
   25.6416   32.9267   47.6662 P   0  0  1  0  0  0  0  0  0  0  0  0
   21.1041   35.0943   45.3989 C   0  0  0  0  0  0  0  0  0  0  0  0
   19.3012   33.5634   46.2463 C   0  0  0  0  0  0  0  0  0  0  0  0
   19.7752   34.3983   45.2540 C   0  0  0  0  0  0  0  0  0  0  0  0
   18.9921   34.5816   44.1131 C   0  0  0  0  0  0  0  0  0  0  0  0
   19.4236   35.4095   43.0875 N   0  0  0  0  0  0  0  0  0  0  0  0
   17.8279   33.9455   44.0213 N   0  0  0  0  0  0  0  0  0  0  0  0
   17.4116   33.1615   44.9945 C   0  0  0  0  0  0  0  0  0  0  0  0
   18.1276   32.9672   46.0847 N   0  0  0  0  0  0  0  0  0  0  0  0
   25.1069   35.7450   46.9900 O   0  5  0  0  0  0  0  0  0  0  0  0
   27.0455   33.0764   48.2931 O   0  0  0  0  0  0  0  0  0  0  0  0
   23.5862   32.3136   44.5668 S   0  0  0  0  0  0  0  0  0  0  0  0
   22.1525   32.9400   45.3215 C   0  0  0  0  0  0  0  0  0  0  0  0
   27.5532   35.1438   46.8341 O   0  0  0  0  0  0  0  0  0  0  0  0
   24.5828   33.8046   48.5021 O   0  5  0  0  0  0  0  0  0  0  0  0
   22.1752   34.2002   44.9537 N   0  0  0  0  0  0  0  0  0  0  0  0
   25.6779   33.4379   46.1394 O   0  0  0  0  0  0  0  0  0  0  0  0
   25.2190   31.4407   47.7008 O   0  0  0  0  0  0  0  0  0  0  0  0
   23.1363   34.6752   44.1918 C   0  0  2  0  0  0  0  0  0  0  0  0
   24.1227   33.8322   43.7935 C   0  0  2  0  0  0  0  0  0  0  0  0
   25.3310   34.1010   42.9353 C   0  0  0  0  0  0  0  0  0  0  0  0
   26.5096   34.5077   43.8227 C   0  0  0  0  0  0  0  0  0  0  0  0
   26.1121   35.5801   44.6794 O   0  0  0  0  0  0  0  0  0  0  0  0
  1 11  1  0  0  0  0
  3 13  1  1  0  0  0
  3 17  2  0  0  0  0
  3 20  1  0  0  0  0
  3 26  1  0  0  0  0
  4 14  1  1  0  0  0
  4 18  1  0  0  0  0
  4 21  2  0  0  0  0
  4 20  1  0  0  0  0
  5 19  1  0  0  0  0
  5  7  1  0  0  0  0
  6  7  2  0  0  0  0
  6 12  1  0  0  0  0
  7  8  1  0  0  0  0
  8  9  1  0  0  0  0
  8 10  2  0  0  0  0
 10 11  1  0  0  0  0
 11 12  2  0  0  0  0
 15 23  1  0  0  0  0
 15 16  1  0  0  0  0
 16 19  1  0  0  0  0
 19 22  1  0  0  0  0
 22  2  1  1  0  0  0
 22 23  1  0  0  0  0
 23 24  1  6  0  0  0
 24 25  1  0  0  0  0
 25 26  1  0  0  0  0
M  CHG  2  13  -1  18  -1
M  END
>  <CHROM.1>
-58.66410313,-43.73086072,84.98747289,-61.29231177,-89.37698461,-52.39400290
111.94851307,-152.14034801,23.18859806,33.94497010,45.55472625,2.97397092
-0.16177768,-0.99746235

>  <Name>
ligand

>  <RI>
0

>  <Rbt.Current_Directory>
/home/itssahil/PROJECTS/Mol_Feturizer/New_Systems/rnas/2HOJ

>  <Rbt.Executable>
rbdock ($Id: //depot/dev/client3/rdock/2013.1/src/exe/rbdock.cxx#4 $)

>  <Rbt.Library>
libRbt.so (2013.1, Build901 2013/11/27)

>  <Rbt.Parameter_File>
/export/apps/rDock/src/rDock_2013.1_src/data/scripts/dock_solv.prm

>  <Rbt.Receptor>
prm/blind_docking_80.prm

>  <SCORE>
-5.79009

>  <SCORE.INTER>
-4.53029

>  <SCORE.INTER.CONST>
1

>  <SCORE.INTER.POLAR>
0

>  <SCORE.INTER.ROT>
8

>  <SCORE.INTER.SOLV>
24.1459

>  <SCORE.INTER.VDW>
-20.0022

>  <SCORE.INTER.norm>
-0.174242

>  <SCORE.INTRA>
-1.98452

>  <SCORE.INTRA.DIHEDRAL>
1.41622

>  <SCORE.INTRA.DIHEDRAL.0>
11.6398

>  <SCORE.INTRA.POLAR>
0

>  <SCORE.INTRA.POLAR.0>
0

>  <SCORE.INTRA.REPUL>
0

>  <SCORE.INTRA.REPUL.0>
0

>  <SCORE.INTRA.SOLV>
4.29314

>  <SCORE.INTRA.SOLV.lig_0>
-81.722

>  <SCORE.INTRA.VDW>
-4.83919

>  <SCORE.INTRA.VDW.0>
1.12598

>  <SCORE.INTRA.norm>
-0.0763276

>  <SCORE.RESTR>
0.724722

>  <SCORE.RESTR.CAVITY>
0.724722

>  <SCORE.RESTR.norm>
0.0278739

>  <SCORE.SYSTEM>
0

>  <SCORE.SYSTEM.CONST>
0

>  <SCORE.SYSTEM.DIHEDRAL>
0

>  <SCORE.SYSTEM.SOLV>
0

>  <SCORE.SYSTEM.norm>
0

>  <SCORE.heavy>
26

>  <SCORE.norm>
-0.222696

>  <RMSD>
22.566

$$$$
ligand
 OpenBabel11021811433D
libRbt.so/2013.1/901 2013/11/27
 26 27  0  0  0  0  0  0  0  0999 V2000
   21.4742   37.5235   49.5930 C   0  0  0  0  0  0  0  0  0  0  0  0
   24.6587   32.7649   45.6268 C   0  0  0  0  0  0  0  0  0  0  0  0
   23.4964   36.2591   42.7443 P   0  0  1  0  0  0  0  0  0  0  0  0
   21.5305   35.4750   44.2300 P   0  0  1  0  0  0  0  0  0  0  0  0
   25.4011   33.6490   48.1835 C   0  0  0  0  0  0  0  0  0  0  0  0
   23.7669   34.6612   49.8011 C   0  0  0  0  0  0  0  0  0  0  0  0
   24.3618   34.6751   48.5552 C   0  0  0  0  0  0  0  0  0  0  0  0
   23.9764   35.6641   47.6486 C   0  0  0  0  0  0  0  0  0  0  0  0
   24.5436   35.7210   46.3843 N   0  0  0  0  0  0  0  0  0  0  0  0
   23.0523   36.5481   48.0132 N   0  0  0  0  0  0  0  0  0  0  0  0
   22.5138   36.5011   49.2144 C   0  0  0  0  0  0  0  0  0  0  0  0
   22.8557   35.5796   50.0936 N   0  0  0  0  0  0  0  0  0  0  0  0
   23.8890   36.9194   41.4788 O   0  5  0  0  0  0  0  0  0  0  0  0
   22.3603   34.1931   44.4637 O   0  0  0  0  0  0  0  0  0  0  0  0
   27.7254   35.2012   45.5809 S   0  0  0  0  0  0  0  0  0  0  0  0
   27.1676   34.9406   47.2052 C   0  0  0  0  0  0  0  0  0  0  0  0
   23.9792   37.1551   43.9901 O   0  0  0  0  0  0  0  0  0  0  0  0
   21.8668   36.5504   45.3791 O   0  5  0  0  0  0  0  0  0  0  0  0
   26.1593   34.1198   47.0224 N   0  0  0  0  0  0  0  0  0  0  0  0
   21.8949   36.0955   42.7892 O   0  0  0  0  0  0  0  0  0  0  0  0
   20.0253   35.1281   44.2744 O   0  0  0  0  0  0  0  0  0  0  0  0
   25.8185   33.7089   45.8203 C   0  0  2  0  0  0  0  0  0  0  0  0
   26.5302   34.1602   44.7563 C   0  0  2  0  0  0  0  0  0  0  0  0
   26.3619   33.8631   43.2892 C   0  0  0  0  0  0  0  0  0  0  0  0
   25.5855   35.0006   42.6218 C   0  0  0  0  0  0  0  0  0  0  0  0
   24.1850   34.8059   42.8287 O   0  0  0  0  0  0  0  0  0  0  0  0
  1 11  1  0  0  0  0
  3 13  1  6  0  0  0
  3 17  2  0  0  0  0
  3 20  1  0  0  0  0
  3 26  1  0  0  0  0
  4 14  1  1  0  0  0
  4 18  1  0  0  0  0
  4 21  2  0  0  0  0
  4 20  1  0  0  0  0
  5 19  1  0  0  0  0
  5  7  1  0  0  0  0
  6  7  2  0  0  0  0
  6 12  1  0  0  0  0
  7  8  1  0  0  0  0
  8  9  1  0  0  0  0
  8 10  2  0  0  0  0
 10 11  1  0  0  0  0
 11 12  2  0  0  0  0
 15 23  1  0  0  0  0
 15 16  1  0  0  0  0
 16 19  1  0  0  0  0
 19 22  1  0  0  0  0
 22  2  1  6  0  0  0
 22 23  1  0  0  0  0
 23 24  1  1  0  0  0
 24 25  1  0  0  0  0
 25 26  1  0  0  0  0
M  CHG  2  13  -1  18  -1
M  END
>  <CHROM.1>
-175.88139469,83.48706362,-162.21920228,-53.08841122,-81.55372871,-82.49718801
154.43806571,53.19148561,23.99941675,35.34062114,45.50549695,1.48053456,-0.32087318
1.59381053

>  <Name>
ligand

>  <RI>
0

>  <Rbt.Current_Directory>
/home/itssahil/PROJECTS/Mol_Feturizer/New_Systems/rnas/2HOJ

>  <Rbt.Executable>
rbdock ($Id: //depot/dev/client3/rdock/2013.1/src/exe/rbdock.cxx#4 $)

>  <Rbt.Library>
libRbt.so (2013.1, Build901 2013/11/27)

>  <Rbt.Parameter_File>
/export/apps/rDock/src/rDock_2013.1_src/data/scripts/dock_solv.prm

>  <Rbt.Receptor>
prm/blind_docking_80.prm

>  <SCORE>
1.83186

>  <SCORE.INTER>
-3.19763

>  <SCORE.INTER.CONST>
1

>  <SCORE.INTER.POLAR>
0

>  <SCORE.INTER.ROT>
8

>  <SCORE.INTER.SOLV>
17.104

>  <SCORE.INTER.VDW>
-16.7664

>  <SCORE.INTER.norm>
-0.122986

>  <SCORE.INTRA>
3.83524

>  <SCORE.INTRA.DIHEDRAL>
-1.97645

>  <SCORE.INTRA.DIHEDRAL.0>
11.6398

>  <SCORE.INTRA.POLAR>
0

>  <SCORE.INTRA.POLAR.0>
0

>  <SCORE.INTRA.REPUL>
0

>  <SCORE.INTRA.REPUL.0>
0

>  <SCORE.INTRA.SOLV>
13.8879

>  <SCORE.INTRA.SOLV.lig_0>
-81.722

>  <SCORE.INTRA.VDW>
-2.12047

>  <SCORE.INTRA.VDW.0>
1.12598

>  <SCORE.INTRA.norm>
0.147509

>  <SCORE.RESTR>
1.19425

>  <SCORE.RESTR.CAVITY>
1.19425

>  <SCORE.RESTR.norm>
0.0459326

>  <SCORE.SYSTEM>
0

>  <SCORE.SYSTEM.CONST>
0

>  <SCORE.SYSTEM.DIHEDRAL>
0

>  <SCORE.SYSTEM.SOLV>
0

>  <SCORE.SYSTEM.norm>
0

>  <SCORE.heavy>
26

>  <SCORE.norm>
0.0704562

>  <RMSD>
22.618

$$$$
ligand
 OpenBabel11021811433D
libRbt.so/2013.1/901 2013/11/27
 26 27  0  0  0  0  0  0  0  0999 V2000
   16.2715   32.6837   44.5589 C   0  0  0  0  0  0  0  0  0  0  0  0
   23.1320   37.2369   44.7770 C   0  0  0  0  0  0  0  0  0  0  0  0
   26.3441   34.4387   45.5353 P   0  0  1  0  0  0  0  0  0  0  0  0
   24.9828   35.3366   47.5422 P   0  0  1  0  0  0  0  0  0  0  0  0
   21.1605   35.4139   45.5893 C   0  0  0  0  0  0  0  0  0  0  0  0
   18.7939   35.3470   44.7488 C   0  0  0  0  0  0  0  0  0  0  0  0
   19.8670   34.6900   45.3172 C   0  0  0  0  0  0  0  0  0  0  0  0
   19.7235   33.3379   45.6332 C   0  0  0  0  0  0  0  0  0  0  0  0
   20.7715   32.6329   46.2061 N   0  0  0  0  0  0  0  0  0  0  0  0
   18.5644   32.7366   45.3819 N   0  0  0  0  0  0  0  0  0  0  0  0
   17.5675   33.4007   44.8339 C   0  0  0  0  0  0  0  0  0  0  0  0
   17.6708   34.6783   44.5239 N   0  0  0  0  0  0  0  0  0  0  0  0
   27.4721   35.1005   46.2291 O   0  5  0  0  0  0  0  0  0  0  0  0
   25.3766   33.9954   48.1999 O   0  0  0  0  0  0  0  0  0  0  0  0
   23.5041   33.7190   43.0953 S   0  0  0  0  0  0  0  0  0  0  0  0
   22.1379   33.7497   44.1676 C   0  0  0  0  0  0  0  0  0  0  0  0
   26.2822   32.8902   45.9666 O   0  0  0  0  0  0  0  0  0  0  0  0
   26.0509   36.4695   47.9495 O   0  5  0  0  0  0  0  0  0  0  0  0
   22.1757   34.9789   44.6276 N   0  0  0  0  0  0  0  0  0  0  0  0
   24.9650   35.1648   45.9410 O   0  0  0  0  0  0  0  0  0  0  0  0
   23.5775   35.7552   48.0298 O   0  0  0  0  0  0  0  0  0  0  0  0
   23.1027   35.8279   44.2406 C   0  0  2  0  0  0  0  0  0  0  0  0
   24.0378   35.4045   43.3524 C   0  0  2  0  0  0  0  0  0  0  0  0
   25.1995   36.1494   42.7487 C   0  0  0  0  0  0  0  0  0  0  0  0
   26.4495   35.9290   43.6036 C   0  0  0  0  0  0  0  0  0  0  0  0
   26.5559   34.5448   43.9425 O   0  0  0  0  0  0  0  0  0  0  0  0
  1 11  1  0  0  0  0
  3 13  1  1  0  0  0
  3 17  2  0  0  0  0
  3 20  1  0  0  0  0
  3 26  1  0  0  0  0
  4 14  1  1  0  0  0
  4 18  1  0  0  0  0
  4 21  2  0  0  0  0
  4 20  1  0  0  0  0
  5 19  1  0  0  0  0
  5  7  1  0  0  0  0
  6  7  2  0  0  0  0
  6 12  1  0  0  0  0
  7  8  1  0  0  0  0
  8  9  1  0  0  0  0
  8 10  2  0  0  0  0
 10 11  1  0  0  0  0
 11 12  2  0  0  0  0
 15 23  1  0  0  0  0
 15 16  1  0  0  0  0
 16 19  1  0  0  0  0
 19 22  1  0  0  0  0
 22  2  1  1  0  0  0
 22 23  1  0  0  0  0
 23 24  1  6  0  0  0
 24 25  1  0  0  0  0
 25 26  1  0  0  0  0
M  CHG  2  13  -1  18  -1
M  END
>  <CHROM.1>
-46.77575884,-31.61941390,-107.14967152,-48.42578145,-87.98329705,45.02247270
-113.39881744,-66.38880114,23.17919407,34.66494926,45.33319127,3.01480301
-0.17226582,-1.56777700

>  <Name>
ligand

>  <RI>
0

>  <Rbt.Current_Directory>
/home/itssahil/PROJECTS/Mol_Feturizer/New_Systems/rnas/2HOJ

>  <Rbt.Executable>
rbdock ($Id: //depot/dev/client3/rdock/2013.1/src/exe/rbdock.cxx#4 $)

>  <Rbt.Library>
libRbt.so (2013.1, Build901 2013/11/27)

>  <Rbt.Parameter_File>
/export/apps/rDock/src/rDock_2013.1_src/data/scripts/dock_solv.prm

>  <Rbt.Receptor>
prm/blind_docking_80.prm

>  <SCORE>
4.65911

>  <SCORE.INTER>
2.90552

>  <SCORE.INTER.CONST>
1

>  <SCORE.INTER.POLAR>
0

>  <SCORE.INTER.ROT>
8

>  <SCORE.INTER.SOLV>
14.3073

>  <SCORE.INTER.VDW>
-11.7654

>  <SCORE.INTER.norm>
0.111751

>  <SCORE.INTRA>
-0.179115

>  <SCORE.INTRA.DIHEDRAL>
1.62281

>  <SCORE.INTRA.DIHEDRAL.0>
11.6398

>  <SCORE.INTRA.POLAR>
0

>  <SCORE.INTRA.POLAR.0>
0

>  <SCORE.INTRA.REPUL>
0

>  <SCORE.INTRA.REPUL.0>
0

>  <SCORE.INTRA.SOLV>
5.64986

>  <SCORE.INTRA.SOLV.lig_0>
-81.722

>  <SCORE.INTRA.VDW>
-3.81545

>  <SCORE.INTRA.VDW.0>
1.12598

>  <SCORE.INTRA.norm>
-0.00688904

>  <SCORE.RESTR>
1.93271

>  <SCORE.RESTR.CAVITY>
1.93271

>  <SCORE.RESTR.norm>
0.074335

>  <SCORE.SYSTEM>
0

>  <SCORE.SYSTEM.CONST>
0

>  <SCORE.SYSTEM.DIHEDRAL>
0

>  <SCORE.SYSTEM.SOLV>
0

>  <SCORE.SYSTEM.norm>
0

>  <SCORE.heavy>
26

>  <SCORE.norm>
0.179197

>  <RMSD>
22.640

$$$$
ligand
 OpenBabel11021811433D
libRbt.so/2013.1/901 2013/11/27
 26 27  0  0  0  0  0  0  0  0999 V2000
   25.7819   31.4622   42.8781 C   0  0  0  0  0  0  0  0  0  0  0  0
   21.8769   36.0195   45.3959 C   0  0  0  0  0  0  0  0  0  0  0  0
   25.2361   35.1266   47.6218 P   0  0  1  0  0  0  0  0  0  0  0  0
   25.3384   32.5722   47.2332 P   0  0  1  0  0  0  0  0  0  0  0  0
   23.3528   36.6076   43.0839 C   0  0  0  0  0  0  0  0  0  0  0  0
   23.2769   34.1092   43.3367 C   0  0  0  0  0  0  0  0  0  0  0  0
   23.9971   35.2463   43.0291 C   0  0  0  0  0  0  0  0  0  0  0  0
   25.3372   35.1030   42.6656 C   0  0  0  0  0  0  0  0  0  0  0  0
   26.1040   36.2141   42.3479 N   0  0  0  0  0  0  0  0  0  0  0  0
   25.8700   33.8851   42.6341 N   0  0  0  0  0  0  0  0  0  0  0  0
   25.1447   32.8262   42.9308 C   0  0  0  0  0  0  0  0  0  0  0  0
   23.8766   32.9276   43.2781 N   0  0  0  0  0  0  0  0  0  0  0  0
   26.6503   35.3445   47.2418 O   0  5  0  0  0  0  0  0  0  0  0  0
   26.6309   32.8966   46.4519 O   0  0  0  0  0  0  0  0  0  0  0  0
   24.7423   38.6161   46.0200 S   0  0  0  0  0  0  0  0  0  0  0  0
   24.7109   38.1188   44.3559 C   0  0  0  0  0  0  0  0  0  0  0  0
   24.3161   35.1466   46.3023 O   0  0  0  0  0  0  0  0  0  0  0  0
   25.4837   31.1335   47.9398 O   0  5  0  0  0  0  0  0  0  0  0  0
   23.7112   37.2677   44.3412 N   0  0  0  0  0  0  0  0  0  0  0  0
   25.0918   33.7004   48.3557 O   0  0  0  0  0  0  0  0  0  0  0  0
   24.1404   32.5475   46.2574 O   0  0  0  0  0  0  0  0  0  0  0  0
   23.0234   36.9985   45.4294 C   0  0  2  0  0  0  0  0  0  0  0  0
   23.3739   37.6165   46.5859 C   0  0  2  0  0  0  0  0  0  0  0  0
   22.7738   37.4963   47.9622 C   0  0  0  0  0  0  0  0  0  0  0  0
   23.3349   36.2547   48.6591 C   0  0  0  0  0  0  0  0  0  0  0  0
   24.7629   36.2944   48.6246 O   0  0  0  0  0  0  0  0  0  0  0  0
  1 11  1  0  0  0  0
  3 13  1  6  0  0  0
  3 17  2  0  0  0  0
  3 20  1  0  0  0  0
  3 26  1  0  0  0  0
  4 14  1  6  0  0  0
  4 18  1  0  0  0  0
  4 21  2  0  0  0  0
  4 20  1  0  0  0  0
  5 19  1  0  0  0  0
  5  7  1  0  0  0  0
  6  7  2  0  0  0  0
  6 12  1  0  0  0  0
  7  8  1  0  0  0  0
  8  9  1  0  0  0  0
  8 10  2  0  0  0  0
 10 11  1  0  0  0  0
 11 12  2  0  0  0  0
 15 23  1  0  0  0  0
 15 16  1  0  0  0  0
 16 19  1  0  0  0  0
 19 22  1  0  0  0  0
 22  2  1  1  0  0  0
 22 23  1  0  0  0  0
 23 24  1  6  0  0  0
 24 25  1  0  0  0  0
 25 26  1  0  0  0  0
M  CHG  2  13  -1  18  -1
M  END
>  <CHROM.1>
-69.35554302,96.81017783,99.70714846,49.35604825,-98.19872262,53.07134659
-110.51617755,164.22764050,24.64144475,35.04632536,45.71294670,0.25027511
1.28167017,-1.65586103

>  <Name>
ligand

>  <RI>
0

>  <Rbt.Current_Directory>
/home/itssahil/PROJECTS/Mol_Feturizer/New_Systems/rnas/2HOJ

>  <Rbt.Executable>
rbdock ($Id: //depot/dev/client3/rdock/2013.1/src/exe/rbdock.cxx#4 $)

>  <Rbt.Library>
libRbt.so (2013.1, Build901 2013/11/27)

>  <Rbt.Parameter_File>
/export/apps/rDock/src/rDock_2013.1_src/data/scripts/dock_solv.prm

>  <Rbt.Receptor>
prm/blind_docking_80.prm

>  <SCORE>
3.40592

>  <SCORE.INTER>
-0.369382

>  <SCORE.INTER.CONST>
1

>  <SCORE.INTER.POLAR>
0

>  <SCORE.INTER.ROT>
8

>  <SCORE.INTER.SOLV>
21.7976

>  <SCORE.INTER.VDW>
-16.4455

>  <SCORE.INTER.norm>
-0.014207

>  <SCORE.INTRA>
1.38573

>  <SCORE.INTRA.DIHEDRAL>
0.766156

>  <SCORE.INTRA.DIHEDRAL.0>
11.6398

>  <SCORE.INTRA.POLAR>
0

>  <SCORE.INTRA.POLAR.0>
0

>  <SCORE.INTRA.REPUL>
0

>  <SCORE.INTRA.REPUL.0>
0

>  <SCORE.INTRA.SOLV>
8.011

>  <SCORE.INTRA.SOLV.lig_0>
-81.722

>  <SCORE.INTRA.VDW>
-3.00284

>  <SCORE.INTRA.VDW.0>
1.12598

>  <SCORE.INTRA.norm>
0.0532974

>  <SCORE.RESTR>
2.38957

>  <SCORE.RESTR.CAVITY>
2.38957

>  <SCORE.RESTR.norm>
0.0919064

>  <SCORE.SYSTEM>
0

>  <SCORE.SYSTEM.CONST>
0

>  <SCORE.SYSTEM.DIHEDRAL>
0

>  <SCORE.SYSTEM.SOLV>
0

>  <SCORE.SYSTEM.norm>
0

>  <SCORE.heavy>
26

>  <SCORE.norm>
0.130997

>  <RMSD>
22.725

$$$$
ligand
 OpenBabel11021811433D
libRbt.so/2013.1/901 2013/11/27
 26 27  0  0  0  0  0  0  0  0999 V2000
   20.7098   34.6490   43.6352 C   0  0  0  0  0  0  0  0  0  0  0  0
   24.8291   34.0162   47.6199 C   0  0  0  0  0  0  0  0  0  0  0  0
   25.6542   36.7840   44.6474 P   0  0  1  0  0  0  0  0  0  0  0  0
   23.2342   37.6019   45.0493 P   0  0  1  0  0  0  0  0  0  0  0  0
   24.4103   31.4551   46.5547 C   0  0  0  0  0  0  0  0  0  0  0  0
   22.1268   32.4437   46.2083 C   0  0  0  0  0  0  0  0  0  0  0  0
   23.4318   32.3007   45.7809 C   0  0  0  0  0  0  0  0  0  0  0  0
   23.8222   32.9597   44.6138 C   0  0  0  0  0  0  0  0  0  0  0  0
   25.1216   32.8478   44.1422 N   0  0  0  0  0  0  0  0  0  0  0  0
   22.9275   33.6923   43.9572 N   0  0  0  0  0  0  0  0  0  0  0  0
   21.6934   33.8053   44.4034 C   0  0  0  0  0  0  0  0  0  0  0  0
   21.2931   33.1956   45.5020 N   0  0  0  0  0  0  0  0  0  0  0  0
   26.5592   36.2091   43.6267 O   0  5  0  0  0  0  0  0  0  0  0  0
   23.4670   39.0402   44.5361 O   0  0  0  0  0  0  0  0  0  0  0  0
   28.0567   32.4640   46.0338 S   0  0  0  0  0  0  0  0  0  0  0  0
   26.7126   31.3727   45.8925 C   0  0  0  0  0  0  0  0  0  0  0  0
   25.9546   38.3562   44.8075 O   0  0  0  0  0  0  0  0  0  0  0  0
   21.6776   37.2222   44.8978 O   0  5  0  0  0  0  0  0  0  0  0  0
   25.7458   32.0497   46.4677 N   0  0  0  0  0  0  0  0  0  0  0  0
   24.1251   36.5734   44.1878 O   0  0  0  0  0  0  0  0  0  0  0  0
   23.6428   37.5145   46.5370 O   0  0  0  0  0  0  0  0  0  0  0  0
   25.9502   33.2507   46.9634 C   0  0  2  0  0  0  0  0  0  0  0  0
   27.1959   33.7828   46.8776 C   0  0  2  0  0  0  0  0  0  0  0  0
   27.7089   35.1156   47.3566 C   0  0  0  0  0  0  0  0  0  0  0  0
   27.2774   36.2118   46.3798 C   0  0  0  0  0  0  0  0  0  0  0  0
   25.8954   36.0445   46.0575 O   0  0  0  0  0  0  0  0  0  0  0  0
  1 11  1  0  0  0  0
  3 13  1  6  0  0  0
  3 17  2  0  0  0  0
  3 20  1  0  0  0  0
  3 26  1  0  0  0  0
  4 14  1  6  0  0  0
  4 18  1  0  0  0  0
  4 21  2  0  0  0  0
  4 20  1  0  0  0  0
  5 19  1  0  0  0  0
  5  7  1  0  0  0  0
  6  7  2  0  0  0  0
  6 12  1  0  0  0  0
  7  8  1  0  0  0  0
  8  9  1  0  0  0  0
  8 10  2  0  0  0  0
 10 11  1  0  0  0  0
 11 12  2  0  0  0  0
 15 23  1  0  0  0  0
 15 16  1  0  0  0  0
 16 19  1  0  0  0  0
 19 22  1  0  0  0  0
 22  2  1  1  0  0  0
 22 23  1  0  0  0  0
 23 24  1  6  0  0  0
 24 25  1  0  0  0  0
 25 26  1  0  0  0  0
M  CHG  2  13  -1  18  -1
M  END
>  <CHROM.1>
-162.05890577,-117.47525333,-145.52740879,72.82843463,101.87691768,46.10179020
-157.47603504,57.37002137,24.71706277,34.91033511,45.43310410,2.14255876
-0.23826162,-0.16160620

>  <Name>
ligand

>  <RI>
0

>  <Rbt.Current_Directory>
/home/itssahil/PROJECTS/Mol_Feturizer/New_Systems/rnas/2HOJ

>  <Rbt.Executable>
rbdock ($Id: //depot/dev/client3/rdock/2013.1/src/exe/rbdock.cxx#4 $)

>  <Rbt.Library>
libRbt.so (2013.1, Build901 2013/11/27)

>  <Rbt.Parameter_File>
/export/apps/rDock/src/rDock_2013.1_src/data/scripts/dock_solv.prm

>  <Rbt.Receptor>
prm/blind_docking_80.prm

>  <SCORE>
0.67309

>  <SCORE.INTER>
-2.4803

>  <SCORE.INTER.CONST>
1

>  <SCORE.INTER.POLAR>
0

>  <SCORE.INTER.ROT>
8

>  <SCORE.INTER.SOLV>
11.4911

>  <SCORE.INTER.VDW>
-14.4172

>  <SCORE.INTER.norm>
-0.0953962

>  <SCORE.INTRA>
0.451868

>  <SCORE.INTRA.DIHEDRAL>
-3.27122

>  <SCORE.INTRA.DIHEDRAL.0>
11.6398

>  <SCORE.INTRA.POLAR>
0

>  <SCORE.INTRA.POLAR.0>
0

>  <SCORE.INTRA.REPUL>
0

>  <SCORE.INTRA.REPUL.0>
0

>  <SCORE.INTRA.SOLV>
10.2532

>  <SCORE.INTRA.SOLV.lig_0>
-81.722

>  <SCORE.INTRA.VDW>
-3.03914

>  <SCORE.INTRA.VDW.0>
1.12598

>  <SCORE.INTRA.norm>
0.0173795

>  <SCORE.RESTR>
2.70152

>  <SCORE.RESTR.CAVITY>
2.70152

>  <SCORE.RESTR.norm>
0.103905

>  <SCORE.SYSTEM>
0

>  <SCORE.SYSTEM.CONST>
0

>  <SCORE.SYSTEM.DIHEDRAL>
0

>  <SCORE.SYSTEM.SOLV>
0

>  <SCORE.SYSTEM.norm>
0

>  <SCORE.heavy>
26

>  <SCORE.norm>
0.0258881

>  <RMSD>
22.840

$$$$
ligand
 OpenBabel11021811433D
libRbt.so/2013.1/901 2013/11/27
 26 27  0  0  0  0  0  0  0  0999 V2000
   26.7388   32.7703   48.4942 C   0  0  0  0  0  0  0  0  0  0  0  0
   22.6542   33.5756   44.4306 C   0  0  0  0  0  0  0  0  0  0  0  0
   21.9455   37.1742   47.6455 P   0  0  1  0  0  0  0  0  0  0  0  0
   24.3353   36.1947   47.7724 P   0  0  1  0  0  0  0  0  0  0  0  0
   25.0979   33.3440   43.0724 C   0  0  0  0  0  0  0  0  0  0  0  0
   26.2377   34.1918   45.1445 C   0  0  0  0  0  0  0  0  0  0  0  0
   25.5316   33.1908   44.5075 C   0  0  0  0  0  0  0  0  0  0  0  0
   25.2294   32.0332   45.2267 C   0  0  0  0  0  0  0  0  0  0  0  0
   24.5228   30.9984   44.6322 N   0  0  0  0  0  0  0  0  0  0  0  0
   25.6344   31.9346   46.4894 N   0  0  0  0  0  0  0  0  0  0  0  0
   26.3020   32.9164   47.0599 C   0  0  0  0  0  0  0  0  0  0  0  0
   26.6035   34.0224   46.4081 N   0  0  0  0  0  0  0  0  0  0  0  0
   21.5704   36.4521   48.8822 O   0  5  0  0  0  0  0  0  0  0  0  0
   25.8387   36.5067   47.9423 O   0  0  0  0  0  0  0  0  0  0  0  0
   23.5406   36.7465   42.3089 S   0  0  0  0  0  0  0  0  0  0  0  0
   24.7806   35.5389   42.1626 C   0  0  0  0  0  0  0  0  0  0  0  0
   21.0558   38.5077   47.5112 O   0  0  0  0  0  0  0  0  0  0  0  0
   23.8241   35.3152   49.0195 O   0  5  0  0  0  0  0  0  0  0  0  0
   24.3190   34.5756   42.9260 N   0  0  0  0  0  0  0  0  0  0  0  0
   23.5045   37.5729   47.7095 O   0  0  0  0  0  0  0  0  0  0  0  0
   24.1192   35.4042   46.4623 O   0  0  0  0  0  0  0  0  0  0  0  0
   23.1716   34.6916   43.5584 C   0  0  2  0  0  0  0  0  0  0  0  0
   22.4667   35.8426   43.4142 C   0  0  2  0  0  0  0  0  0  0  0  0
   21.1453   36.2443   44.0152 C   0  0  0  0  0  0  0  0  0  0  0  0
   21.3879   37.0866   45.2696 C   0  0  0  0  0  0  0  0  0  0  0  0
   21.6880   36.2257   46.3700 O   0  0  0  0  0  0  0  0  0  0  0  0
  1 11  1  0  0  0  0
  3 13  1  1  0  0  0
  3 17  2  0  0  0  0
  3 20  1  0  0  0  0
  3 26  1  0  0  0  0
  4 14  1  1  0  0  0
  4 18  1  0  0  0  0
  4 21  2  0  0  0  0
  4 20  1  0  0  0  0
  5 19  1  0  0  0  0
  5  7  1  0  0  0  0
  6  7  2  0  0  0  0
  6 12  1  0  0  0  0
  7  8  1  0  0  0  0
  8  9  1  0  0  0  0
  8 10  2  0  0  0  0
 10 11  1  0  0  0  0
 11 12  2  0  0  0  0
 15 23  1  0  0  0  0
 15 16  1  0  0  0  0
 16 19  1  0  0  0  0
 19 22  1  0  0  0  0
 22  2  1  1  0  0  0
 22 23  1  0  0  0  0
 23 24  1  6  0  0  0
 24 25  1  0  0  0  0
 25 26  1  0  0  0  0
M  CHG  2  13  -1  18  -1
M  END
>  <CHROM.1>
62.58915835,116.27302800,-55.12034906,-175.79599887,-83.60356406,-80.34176712
179.42981227,150.76769948,23.83060385,35.25537093,45.83684274,-0.63574378
-0.82729485,1.36484700

>  <Name>
ligand

>  <RI>
0

>  <Rbt.Current_Directory>
/home/itssahil/PROJECTS/Mol_Feturizer/New_Systems/rnas/2HOJ

>  <Rbt.Executable>
rbdock ($Id: //depot/dev/client3/rdock/2013.1/src/exe/rbdock.cxx#4 $)

>  <Rbt.Library>
libRbt.so (2013.1, Build901 2013/11/27)

>  <Rbt.Parameter_File>
/export/apps/rDock/src/rDock_2013.1_src/data/scripts/dock_solv.prm

>  <Rbt.Receptor>
prm/blind_docking_80.prm

>  <SCORE>
3.48089

>  <SCORE.INTER>
3.22057

>  <SCORE.INTER.CONST>
1

>  <SCORE.INTER.POLAR>
0

>  <SCORE.INTER.ROT>
8

>  <SCORE.INTER.SOLV>
19.0336

>  <SCORE.INTER.VDW>
-13.1308

>  <SCORE.INTER.norm>
0.123868

>  <SCORE.INTRA>
-2.21954

>  <SCORE.INTRA.DIHEDRAL>
-4.04815

>  <SCORE.INTRA.DIHEDRAL.0>
11.6398

>  <SCORE.INTRA.POLAR>
0

>  <SCORE.INTRA.POLAR.0>
0

>  <SCORE.INTRA.REPUL>
0

>  <SCORE.INTRA.REPUL.0>
0

>  <SCORE.INTRA.SOLV>
8.24278

>  <SCORE.INTRA.SOLV.lig_0>
-81.722

>  <SCORE.INTRA.VDW>
-4.31685

>  <SCORE.INTRA.VDW.0>
1.12598

>  <SCORE.INTRA.norm>
-0.0853668

>  <SCORE.RESTR>
2.47985

>  <SCORE.RESTR.CAVITY>
2.47985

>  <SCORE.RESTR.norm>
0.095379

>  <SCORE.SYSTEM>
0

>  <SCORE.SYSTEM.CONST>
0

>  <SCORE.SYSTEM.DIHEDRAL>
0

>  <SCORE.SYSTEM.SOLV>
0

>  <SCORE.SYSTEM.norm>
0

>  <SCORE.heavy>
26

>  <SCORE.norm>
0.13388

>  <RMSD>
22.858

$$$$
