@<TRIPOS>MOLECULE
2HOJ_rdock.pdb
 1697 1884 0 0 0
SMALL
GASTEIGER

@<TRIPOS>ATOM
      1  C5'       35.9640   37.4020   40.4930 C.3     9  G9          0.0000
      2  O5'       35.4630   36.1000   40.1490 O.3     9  G9          0.0000
      3  C4'       35.2150   38.5040   39.7820 C.3     9  G9          0.0000
      4  O4'       35.2500   38.2570   38.3470 O.3     9  G9          0.0000
      5  C3'       33.7270   38.6040   40.0930 C.3     9  G9          0.0000
      6  O3'       33.4750   39.3510   41.2780 O.3     9  G9          0.0000
      7  C2'       33.2080   39.3410   38.8690 C.3     9  G9          0.0000
      8  O2'       33.5370   40.7110   38.9090 O.3     9  G9          0.0000
      9  C1'       34.0310   38.6850   37.7660 C.3     9  G9          0.0000
     10  N1        30.4890   37.0990   34.5340 N.ar    9  G9          0.0000
     11  C2        30.7860   38.3770   34.9470 C.ar    9  G9          0.0000
     12  N2        30.0570   39.3550   34.4070 N.pl3   9  G9          0.0000
     13  N3        31.7270   38.6660   35.8300 N.ar    9  G9          0.0000
     14  C4        32.3460   37.5540   36.2850 C.ar    9  G9          0.0000
     15  C5        32.1170   36.2350   35.9470 C.ar    9  G9          0.0000
     16  C6        31.1210   35.9410   34.9900 C.ar    9  G9          0.0000
     17  O6        30.7830   34.8410   34.5500 O.2     9  G9          0.0000
     18  N7        32.9600   35.3910   36.6530 N.ar    9  G9          0.0000
     19  C8        33.6820   36.1990   37.3830 C.ar    9  G9          0.0000
     20  N9        33.3740   37.5240   37.1850 N.ar    9  G9          0.0000
     21  P         32.1780   39.0150   42.1630 P.3    10  C10         0.0000
     22  C5'       30.8100   40.9670   41.0460 C.3    10  C10         0.0000
     23  O5'       30.9620   39.5650   41.2880 O.3    10  C10         0.0000
     24  C4'       29.6930   41.2230   40.0530 C.3    10  C10         0.0000
     25  O4'       30.0430   40.6300   38.7720 O.3    10  C10         0.0000
     26  C3'       28.3420   40.6050   40.3680 C.3    10  C10         0.0000
     27  O3'       27.5890   41.3790   41.2920 O.3    10  C10         0.0000
     28  C2'       27.6890   40.5800   38.9940 C.3    10  C10         0.0000
     29  O2'       27.2360   41.8460   38.5810 O.3    10  C10         0.0000
     30  C1'       28.8680   40.1810   38.1140 C.3    10  C10         0.0000
     31  N1        28.9540   38.7250   37.9460 N.ar   10  C10         0.0000
     32  C2        28.1630   38.1150   36.9730 C.ar   10  C10         0.0000
     33  O2        27.4260   38.8260   36.2610 O.2    10  C10         0.0000
     34  N3        28.2150   36.7750   36.8300 N.ar   10  C10         0.0000
     35  C4        29.0180   36.0490   37.6140 C.ar   10  C10         0.0000
     36  N4        29.0320   34.7270   37.4400 N.pl3  10  C10         0.0000
     37  C5        29.8410   36.6450   38.6090 C.ar   10  C10         0.0000
     38  C6        29.7820   37.9740   38.7380 C.ar   10  C10         0.0000
     39  OP1       32.2420   39.8110   43.4130 O.3    10  C10        -0.5000
     40  OP2       32.0920   37.5300   42.2310 O.co2  10  C10        -0.5000
     41  P         26.4790   40.6530   42.2050 P.3    11  G11         0.0000
     42  C5'       24.6180   41.2100   40.4420 C.3    11  G11         0.0000
     43  O5'       25.3410   40.2220   41.1740 O.3    11  G11         0.0000
     44  C4'       23.6210   40.5560   39.5060 C.3    11  G11         0.0000
     45  O4'       24.3240   39.8180   38.4700 O.3    11  G11         0.0000
     46  C3'       22.6910   39.5310   40.1320 C.3    11  G11         0.0000
     47  O3'       21.5710   40.1590   40.7350 O.3    11  G11         0.0000
     48  C2'       22.2730   38.7050   38.9280 C.3    11  G11         0.0000
     49  O2'       21.2380   39.3190   38.1940 O.3    11  G11         0.0000
     50  C1'       23.5670   38.6770   38.1070 C.3    11  G11         0.0000
     51  N1        24.2690   33.7480   37.0710 N.ar   11  G11         0.0000
     52  C2        23.3430   34.6280   36.5560 C.ar   11  G11         0.0000
     53  N2        22.4800   34.1280   35.6540 N.pl3  11  G11         0.0000
     54  N3        23.2660   35.9070   36.8990 N.ar   11  G11         0.0000
     55  C4        24.2020   36.2450   37.8110 C.ar   11  G11         0.0000
     56  C5        25.1680   35.4500   38.3860 C.ar   11  G11         0.0000
     57  C6        25.2400   34.0720   38.0120 C.ar   11  G11         0.0000
     58  O6        26.0240   33.1970   38.4170 O.2    11  G11         0.0000
     59  N7        25.9380   36.1820   39.2750 N.ar   11  G11         0.0000
     60  C8        25.4360   37.3830   39.2280 C.ar   11  G11         0.0000
     61  N9        24.3740   37.4880   38.3670 N.ar   11  G11         0.0000
     62  OP1       25.8970   41.6570   43.1310 O.3    11  G11        -0.5000
     63  OP2       27.1000   39.4130   42.7620 O.co2  11  G11        -0.5000
     64  P         20.6420   39.3340   41.7610 P.3    12  A12         0.0000
     65  C5'       18.9910   38.6690   39.8450 C.3    12  A12         0.0000
     66  O5'       19.9240   38.2580   40.8360 O.3    12  A12         0.0000
     67  C4'       18.5570   37.4890   39.0260 C.3    12  A12         0.0000
     68  O4'       19.7190   36.9470   38.3550 O.3    12  A12         0.0000
     69  C3'       18.0010   36.3140   39.8150 C.3    12  A12         0.0000
     70  O3'       16.6200   36.5130   40.0890 O.3    12  A12         0.0000
     71  C2'       18.2390   35.1560   38.8540 C.3    12  A12         0.0000
     72  O2'       17.2910   35.0700   37.8070 O.3    12  A12         0.0000
     73  C1'       19.6030   35.5370   38.2710 C.3    12  A12         0.0000
     74  N1        22.3560   31.2850   39.0960 N.ar   12  A12         0.0000
     75  C2        21.3270   31.5480   38.2760 C.ar   12  A12         0.0000
     76  N3        20.6510   32.6830   38.1120 N.ar   12  A12         0.0000
     77  C4        21.1390   33.6450   38.9170 C.ar   12  A12         0.0000
     78  C5        22.1870   33.5270   39.8090 C.ar   12  A12         0.0000
     79  C6        22.8150   32.2720   39.8930 C.ar   12  A12         0.0000
     80  N6        23.8290   32.0080   40.7140 N.pl3  12  A12         0.0000
     81  N7        22.4110   34.7290   40.4640 N.ar   12  A12         0.0000
     82  C8        21.5080   35.5340   39.9610 C.ar   12  A12         0.0000
     83  N9        20.7050   34.9430   39.0200 N.ar   12  A12         0.0000
     84  OP1       19.5990   40.2710   42.2800 O.2    12  A12        -0.5000
     85  OP2       21.5030   38.5960   42.7200 O.co2  12  A12        -0.5000
     86  P         15.9080   35.6980   41.2770 P.3    13  C13         0.0000
     87  C5'       15.0360   33.8050   39.6950 C.3    13  C13         0.0000
     88  O5'       15.8890   34.1980   40.7620 O.3    13  C13         0.0000
     89  C4'       15.2670   32.3530   39.3640 C.3    13  C13         0.0000
     90  O4'       16.6600   32.1830   38.9840 O.3    13  C13         0.0000
     91  C3'       15.0920   31.3750   40.5170 C.3    13  C13         0.0000
     92  O3'       13.7180   31.0320   40.6930 O.3    13  C13         0.0000
     93  C2'       15.9270   30.1920   40.0390 C.3    13  C13         0.0000
     94  O2'       15.2820   29.4520   39.0200 O.3    13  C13         0.0000
     95  C1'       17.1210   30.9110   39.4150 C.3    13  C13         0.0000
     96  N1        18.2560   31.1070   40.3320 N.ar   13  C13         0.0000
     97  C2        19.1530   30.0520   40.5270 C.ar   13  C13         0.0000
     98  O2        18.9480   28.9780   39.9470 O.2    13  C13         0.0000
     99  N3        20.2140   30.2280   41.3400 N.ar   13  C13         0.0000
    100  C4        20.3960   31.3980   41.9560 C.ar   13  C13         0.0000
    101  N4        21.4640   31.5270   42.7500 N.pl3  13  C13         0.0000
    102  C5        19.4930   32.4860   41.7870 C.ar   13  C13         0.0000
    103  C6        18.4450   32.2980   40.9740 C.ar   13  C13         0.0000
    104  OP1       14.5070   36.1790   41.3070 O.2    13  C13        -0.5000
    105  OP2       16.7290   35.7520   42.5150 O.co2  13  C13        -0.5000
    106  P         13.1500   30.7000   42.1690 P.3    14  U14         0.0000
    107  C5'       13.2930   28.1260   41.6970 C.3    14  U14         0.0000
    108  O5'       13.7200   29.2410   42.4710 O.3    14  U14         0.0000
    109  C4'       14.2170   26.9500   41.9050 C.3    14  U14         0.0000
    110  O4'       15.5500   27.3020   41.4460 O.3    14  U14         0.0000
    111  C3'       14.4370   26.5100   43.3420 C.3    14  U14         0.0000
    112  O3'       13.3800   25.6880   43.8200 O.3    14  U14         0.0000
    113  C2'       15.7570   25.7600   43.2260 C.3    14  U14         0.0000
    114  O2'       15.6130   24.4910   42.6320 O.3    14  U14         0.0000
    115  C1'       16.5230   26.6680   42.2650 C.3    14  U14         0.0000
    116  N1        17.2880   27.7060   42.9760 N.ar   14  U14         0.0000
    117  C2        18.4460   27.3110   43.6180 C.ar   14  U14         0.0000
    118  O2        18.8480   26.1560   43.6080 O.2    14  U14         0.0000
    119  N3        19.1170   28.3130   44.2750 N.ar   14  U14         0.0000
    120  C4        18.7580   29.6410   44.3570 C.ar   14  U14         0.0000
    121  O4        19.4710   30.4220   44.9950 O.2    14  U14         0.0000
    122  C5        17.5460   29.9750   43.6660 C.ar   14  U14         0.0000
    123  C6        16.8700   29.0200   43.0140 C.ar   14  U14         0.0000
    124  OP1       11.6740   30.6120   42.0310 O.2    14  U14        -0.5000
    125  OP2       13.7390   31.6450   43.1640 O.co2  14  U14        -0.5000
    126  P         12.7950   25.9290   45.3030 P.3    15  C15         0.0000
    127  C5'       14.0560   23.7290   46.0120 C.3    15  C15         0.0000
    128  O5'       13.8020   25.1130   46.2450 O.3    15  C15         0.0000
    129  C4'       15.4710   23.3660   46.4020 C.3    15  C15         0.0000
    130  O4'       16.3970   24.2280   45.6870 O.3    15  C15         0.0000
    131  C3'       15.8600   23.5700   47.8580 C.3    15  C15         0.0000
    132  O3'       15.4460   22.4920   48.6940 O.3    15  C15         0.0000
    133  C2'       17.3800   23.6570   47.7630 C.3    15  C15         0.0000
    134  O2'       18.0170   22.4130   47.6000 O.3    15  C15         0.0000
    135  C1'       17.5440   24.4780   46.4890 C.3    15  C15         0.0000
    136  N1        17.5950   25.9110   46.8040 N.ar   15  C15         0.0000
    137  C2        18.7900   26.4430   47.2880 C.ar   15  C15         0.0000
    138  O2        19.7610   25.6900   47.4320 O.2    15  C15         0.0000
    139  N3        18.8580   27.7530   47.5920 N.ar   15  C15         0.0000
    140  C4        17.7840   28.5280   47.4370 C.ar   15  C15         0.0000
    141  N4        17.8950   29.8150   47.7610 N.pl3  15  C15         0.0000
    142  C5        16.5460   28.0150   46.9460 C.ar   15  C15         0.0000
    143  C6        16.4980   26.7120   46.6420 C.ar   15  C15         0.0000
    144  OP1       11.4310   25.3200   45.3620 O.2    15  C15        -0.5000
    145  OP2       12.9590   27.3770   45.6230 O.co2  15  C15        -0.5000
    146  P         14.9420   22.8010   50.1920 P.3    16  G16         0.0000
    147  C5'       17.3630   22.3420   51.1080 C.3    16  G16         0.0000
    148  O5'       16.2580   23.2300   50.9890 O.3    16  G16         0.0000
    149  C4'       18.5910   23.0880   51.5850 C.3    16  G16         0.0000
    150  O4'       18.9150   24.1460   50.6390 O.3    16  G16         0.0000
    151  C3'       18.4800   23.8440   52.9040 C.3    16  G16         0.0000
    152  O3'       18.6340   23.0010   54.0410 O.3    16  G16         0.0000
    153  C2'       19.6590   24.7980   52.7960 C.3    16  G16         0.0000
    154  O2'       20.8760   24.1240   53.0160 O.3    16  G16         0.0000
    155  C1'       19.5870   25.1910   51.3220 C.3    16  G16         0.0000
    156  N1        19.8750   30.2080   51.8590 N.ar   16  G16         0.0000
    157  C2        20.7430   29.2220   52.2640 C.ar   16  G16         0.0000
    158  N2        21.8630   29.6240   52.8940 N.pl3  16  G16         0.0000
    159  N3        20.5370   27.9340   52.0740 N.ar   16  G16         0.0000
    160  C4        19.3730   27.6960   51.4460 C.ar   16  G16         0.0000
    161  C5        18.4290   28.5950   51.0100 C.ar   16  G16         0.0000
    162  C6        18.6690   29.9900   51.2130 C.ar   16  G16         0.0000
    163  O6        17.9590   30.9590   50.8910 O.2    16  G16         0.0000
    164  N7        17.3590   27.9360   50.4170 N.ar   16  G16         0.0000
    165  C8        17.6750   26.6690   50.4940 C.ar   16  G16         0.0000
    166  N9        18.8920   26.4570   51.0960 N.ar   16  G16         0.0000
    167  OP1       14.4300   21.5230   50.7540 O.3    16  G16        -0.5000
    168  OP2       14.0610   24.0040   50.1520 O.co2  16  G16        -0.5000
    169  P         18.3180   23.5840   55.5070 P.3    17  G17         0.0000
    170  C5'       20.8210   24.2280   55.9520 C.3    17  G17         0.0000
    171  O5'       19.4790   24.6510   55.7410 O.3    17  G17         0.0000
    172  C4'       21.6420   25.3610   56.5120 C.3    17  G17         0.0000
    173  O4'       21.7910   26.4080   55.5140 O.3    17  G17         0.0000
    174  C3'       21.0100   26.0710   57.6920 C.3    17  G17         0.0000
    175  O3'       21.2430   25.3460   58.8870 O.3    17  G17         0.0000
    176  C2'       21.6950   27.4310   57.6380 C.3    17  G17         0.0000
    177  O2'       23.0410   27.4360   58.0750 O.3    17  G17         0.0000
    178  C1'       21.7020   27.6830   56.1360 C.3    17  G17         0.0000
    179  N1        19.2000   32.0720   55.6500 N.ar   17  G17         0.0000
    180  C2        20.3980   31.8190   56.2600 C.ar   17  G17         0.0000
    181  N2        21.0080   32.8780   56.8020 N.pl3  17  G17         0.0000
    182  N3        20.9530   30.6180   56.3360 N.ar   17  G17         0.0000
    183  C4        20.1900   29.6770   55.7510 C.ar   17  G17         0.0000
    184  C5        18.9710   29.8250   55.1210 C.ar   17  G17         0.0000
    185  C6        18.3960   31.1170   55.0380 C.ar   17  G17         0.0000
    186  O6        17.3330   31.4580   54.5090 O.2    17  G17         0.0000
    187  N7        18.5080   28.6040   54.6480 N.ar   17  G17         0.0000
    188  C8        19.4370   27.7520   54.9930 C.ar   17  G17         0.0000
    189  N9        20.4910   28.3410   55.6540 N.ar   17  G17         0.0000
    190  OP1       18.5020   22.4900   56.4980 O.3    17  G17        -0.5000
    191  OP2       17.0190   24.3130   55.4600 O.co2  17  G17        -0.5000
    192  P         20.4920   25.7790   60.2310 P.3    18  G18         0.0000
    193  C5'       20.5230   28.0370   61.4780 C.3    18  G18         0.0000
    194  O5'       21.0420   27.2470   60.4530 O.3    18  G18         0.0000
    195  C4'       21.1720   29.3860   61.4710 C.3    18  G18         0.0000
    196  O4'       21.1800   29.9570   60.1370 O.3    18  G18         0.0000
    197  C3'       20.3790   30.3320   62.3440 C.3    18  G18         0.0000
    198  O3'       20.9140   30.2230   63.6550 O.3    18  G18         0.0000
    199  C2'       20.5740   31.6830   61.6670 C.3    18  G18         0.0000
    200  O2'       21.7400   32.3560   62.0990 O.3    18  G18         0.0000
    201  C1'       20.6860   31.2770   60.1880 C.3    18  G18         0.0000
    202  N1        16.9920   34.0950   58.1580 N.ar   18  G18         0.0000
    203  C2        18.1000   34.4950   58.8590 C.ar   18  G18         0.0000
    204  N2        18.2500   35.8180   59.0160 N.pl3  18  G18         0.0000
    205  N3        18.9930   33.6630   59.3630 N.ar   18  G18         0.0000
    206  C4        18.6850   32.3780   59.0960 C.ar   18  G18         0.0000
    207  C5        17.6020   31.8760   58.4040 C.ar   18  G18         0.0000
    208  C6        16.6520   32.7790   57.8780 C.ar   18  G18         0.0000
    209  O6        15.6240   32.5330   57.2430 O.2    18  G18         0.0000
    210  N7        17.6510   30.4880   58.3480 N.ar   18  G18         0.0000
    211  C8        18.7440   30.1790   58.9910 C.ar   18  G18         0.0000
    212  N9        19.4230   31.2790   59.4620 N.ar   18  G18         0.0000
    213  OP1       20.9820   24.9520   61.3690 O.3    18  G18        -0.5000
    214  OP2       19.0360   25.8650   59.9530 O.co2  18  G18        -0.5000
    215  P         19.9310   29.9340   64.8860 P.3    19  G19         0.0000
    216  C5'       20.7840   32.2430   65.7480 C.3    19  G19         0.0000
    217  O5'       19.6780   31.3960   65.4500 O.3    19  G19         0.0000
    218  C4'       20.3620   33.6800   65.6600 C.3    19  G19         0.0000
    219  O4'       20.0660   34.0230   64.2790 O.3    19  G19         0.0000
    220  C3'       19.0710   33.9680   66.3950 C.3    19  G19         0.0000
    221  O3'       19.3240   34.1630   67.7750 O.3    19  G19         0.0000
    222  C2'       18.5710   35.2180   65.6850 C.3    19  G19         0.0000
    223  O2'       19.2030   36.3900   66.1450 O.3    19  G19         0.0000
    224  C1'       18.9870   34.9370   64.2390 C.3    19  G19         0.0000
    225  N1        15.4770   35.7080   60.6470 N.ar   19  G19         0.0000
    226  C2        16.3210   36.6090   61.2350 C.ar   19  G19         0.0000
    227  N2        16.2080   37.8790   60.8130 N.pl3  19  G19         0.0000
    228  N3        17.2030   36.2950   62.1710 N.ar   19  G19         0.0000
    229  C4        17.1540   34.9840   62.4880 C.ar   19  G19         0.0000
    230  C5        16.3380   34.0040   61.9630 C.ar   19  G19         0.0000
    231  C6        15.4130   34.3520   60.9530 C.ar   19  G19         0.0000
    232  O6        14.6110   33.6200   60.3570 O.2    19  G19         0.0000
    233  N7        16.5920   32.7800   62.5610 N.ar   19  G19         0.0000
    234  C8        17.5420   33.0320   63.4220 C.ar   19  G19         0.0000
    235  N9        17.9350   34.3450   63.4240 N.ar   19  G19         0.0000
    236  OP1       20.6920   29.1910   65.9250 O.3    19  G19        -0.5000
    237  OP2       18.6560   29.3740   64.3620 O.co2  19  G19        -0.5000
    238  P         18.2440   33.6660   68.8540 P.3    20  U20         0.0000
    239  C5'       17.5010   36.1490   68.5880 C.3    20  U20         0.0000
    240  O5'       17.1210   34.7970   68.7860 O.3    20  U20         0.0000
    241  C4'       16.2990   37.0480   68.4490 C.3    20  U20         0.0000
    242  O4'       15.8010   36.9980   67.0720 O.3    20  U20         0.0000
    243  C3'       15.1450   36.5410   69.2950 C.3    20  U20         0.0000
    244  O3'       14.6850   37.1710   70.4570 O.3    20  U20         0.0000
    245  C2'       14.1520   35.8510   68.3900 C.3    20  U20         0.0000
    246  O2'       12.8510   36.3050   68.6750 O.3    20  U20         0.0000
    247  C1'       14.4990   36.4350   67.0320 C.3    20  U20         0.0000
    248  N1        14.3830   35.4100   65.9920 N.ar   20  U20         0.0000
    249  C2        13.6780   35.7390   64.8670 C.ar   20  U20         0.0000
    250  O2        13.2450   36.8530   64.6740 O.2    20  U20         0.0000
    251  N3        13.4930   34.7170   63.9770 N.ar   20  U20         0.0000
    252  C4        13.9470   33.4250   64.1000 C.ar   20  U20         0.0000
    253  O4        13.7060   32.6120   63.2130 O.2    20  U20         0.0000
    254  C5        14.6990   33.1710   65.2830 C.ar   20  U20         0.0000
    255  C6        14.8960   34.1530   66.1640 C.ar   20  U20         0.0000
    256  OP1       18.8710   33.7020   70.2020 O.3    20  U20        -0.5000
    257  OP2       17.6480   32.3980   68.3500 O.co2  20  U20        -0.5000
    258  P         14.0200   36.2680   71.5940 P.3    21  G21         0.0000
    259  C5'       15.2980   37.1730   73.6660 C.3    21  G21         0.0000
    260  O5'       15.1710   36.1710   72.6860 O.3    21  G21         0.0000
    261  C4'       16.6140   37.8890   73.5380 C.3    21  G21         0.0000
    262  O4'       16.8090   38.4210   72.2000 O.3    21  G21         0.0000
    263  C3'       16.6070   39.1030   74.4310 C.3    21  G21         0.0000
    264  O3'       16.9650   38.6830   75.7260 O.3    21  G21         0.0000
    265  C2'       17.5870   40.0420   73.7470 C.3    21  G21         0.0000
    266  O2'       18.9410   39.7450   74.0110 O.3    21  G21         0.0000
    267  C1'       17.2760   39.7620   72.2770 C.3    21  G21         0.0000
    268  N1        15.6510   44.5270   71.5140 N.ar   21  G21         0.0000
    269  C2        16.7940   44.0950   72.1360 C.ar   21  G21         0.0000
    270  N2        17.5990   45.0520   72.6110 N.pl3  21  G21         0.0000
    271  N3        17.1200   42.8180   72.2820 N.ar   21  G21         0.0000
    272  C4        16.1930   42.0010   71.7480 C.ar   21  G21         0.0000
    273  C5        15.0220   42.3380   71.1070 C.ar   21  G21         0.0000
    274  C6        14.6880   43.7010   70.9570 C.ar   21  G21         0.0000
    275  O6        13.6930   44.1910   70.4190 O.2    21  G21         0.0000
    276  N7        14.3420   41.2050   70.6970 N.ar   21  G21         0.0000
    277  C8        15.0920   40.2170   71.0910 C.ar   21  G21         0.0000
    278  N9        16.2330   40.6280   71.7320 N.ar   21  G21         0.0000
    279  OP1       13.8340   34.9040   71.0370 O.2    21  G21        -0.5000
    280  OP2       12.8400   37.0170   72.1140 O.co2  21  G21        -0.5000
    281  P         15.9390   38.9110   76.9260 P.3    22  C22         0.0000
    282  C5'       17.3820   40.9600   77.6270 C.3    22  C22         0.0000
    283  O5'       16.1120   40.4630   77.2260 O.3    22  C22         0.0000
    284  C4'       17.4120   42.4540   77.5310 C.3    22  C22         0.0000
    285  O4'       17.2450   42.8410   76.1430 O.3    22  C22         0.0000
    286  C3'       16.2740   43.1570   78.2340 C.3    22  C22         0.0000
    287  O3'       16.5450   43.2710   79.6240 O.3    22  C22         0.0000
    288  C2'       16.2580   44.4990   77.5140 C.3    22  C22         0.0000
    289  O2'       17.2990   45.3550   77.9350 O.3    22  C22         0.0000
    290  C1'       16.5410   44.0660   76.0770 C.3    22  C22         0.0000
    291  N1        15.3270   43.8740   75.2670 N.ar   22  C22         0.0000
    292  C2        14.6580   45.0100   74.8120 C.ar   22  C22         0.0000
    293  O2        15.1240   46.1200   75.0960 O.2    22  C22         0.0000
    294  N3        13.5300   44.8700   74.0750 N.ar   22  C22         0.0000
    295  C4        13.0730   43.6490   73.7790 C.ar   22  C22         0.0000
    296  N4        11.9510   43.5560   73.0440 N.pl3  22  C22         0.0000
    297  C5        13.7440   42.4660   74.2240 C.ar   22  C22         0.0000
    298  C6        14.8550   42.6240   74.9600 C.ar   22  C22         0.0000
    299  OP1       16.4430   38.1390   78.0880 O.3    22  C22        -0.5000
    300  OP2       14.5720   38.6630   76.4150 O.co2  22  C22        -0.5000
    301  P         15.3310   43.1920   80.6810 P.3    23  C23         0.0000
    302  C5'       15.0990   45.7840   80.7090 C.3    23  C23         0.0000
    303  O5'       14.5060   44.5260   80.4200 O.3    23  C23         0.0000
    304  C4'       14.2000   46.9060   80.2720 C.3    23  C23         0.0000
    305  O4'       14.0370   46.8850   78.8270 O.3    23  C23         0.0000
    306  C3'       12.7750   46.8300   80.7740 C.3    23  C23         0.0000
    307  O3'       12.6870   47.2910   82.1080 O.3    23  C23         0.0000
    308  C2'       12.0740   47.7740   79.8130 C.3    23  C23         0.0000
    309  O2'       12.3500   49.1200   80.1200 O.3    23  C23         0.0000
    310  C1'       12.7630   47.4160   78.4970 C.3    23  C23         0.0000
    311  N1        12.0100   46.4080   77.7410 N.ar   23  C23         0.0000
    312  C2        10.9240   46.8380   76.9750 C.ar   23  C23         0.0000
    313  O2        10.6310   48.0440   76.9840 O.2    23  C23         0.0000
    314  N3        10.2230   45.9360   76.2510 N.ar   23  C23         0.0000
    315  C4        10.5690   44.6440   76.2810 C.ar   23  C23         0.0000
    316  N4         9.8540   43.7880   75.5390 N.pl3  23  C23         0.0000
    317  C5        11.6660   44.1750   77.0690 C.ar   23  C23         0.0000
    318  C6        12.3530   45.0840   77.7760 C.ar   23  C23         0.0000
    319  OP1       15.9040   43.2850   82.0540 O.3    23  C23        -0.5000
    320  OP2       14.4950   42.0240   80.3040 O.co2  23  C23        -0.5000
    321  P         11.5200   46.7340   83.0580 P.3    24  C24         0.0000
    322  C5'        9.9610   48.7050   82.3060 C.3    24  C24         0.0000
    323  O5'       10.1900   47.3090   82.4050 O.3    24  C24         0.0000
    324  C4'        8.7050   48.9490   81.5160 C.3    24  C24         0.0000
    325  O4'        8.8920   48.4530   80.1640 O.3    24  C24         0.0000
    326  C3'        7.5010   48.1900   82.0290 C.3    24  C24         0.0000
    327  O3'        6.9500   48.8280   83.1860 O.3    24  C24         0.0000
    328  C2'        6.6400   48.0190   80.7750 C.3    24  C24         0.0000
    329  O2'        5.8270   49.1100   80.3970 O.3    24  C24         0.0000
    330  C1'        7.7130   47.8180   79.7030 C.3    24  C24         0.0000
    331  N1         8.0270   46.4030   79.4350 N.ar   24  C24         0.0000
    332  C2         7.2980   45.7260   78.4520 C.ar   24  C24         0.0000
    333  O2         6.4430   46.3430   77.8280 O.2    24  C24         0.0000
    334  N3         7.5470   44.4190   78.2130 N.ar   24  C24         0.0000
    335  C4         8.4890   43.7850   78.9160 C.ar   24  C24         0.0000
    336  N4         8.6950   42.4880   78.6630 N.pl3  24  C24         0.0000
    337  C5         9.2620   44.4540   79.9160 C.ar   24  C24         0.0000
    338  C6         9.0010   45.7520   80.1380 C.ar   24  C24         0.0000
    339  OP1       11.6650   47.3320   84.4160 O.3    24  C24        -0.5000
    340  OP2       11.4940   45.2480   82.8970 O.co2  24  C24        -0.5000
    341  P          6.2560   50.2760   83.0630 P.3    25  U25         0.0000
    342  C5'        8.3380   51.6610   83.8460 C.3    25  U25         0.0000
    343  O5'        7.0280   51.1710   84.1370 O.3    25  U25         0.0000
    344  C4'        8.3110   53.1540   83.5640 C.3    25  U25         0.0000
    345  O4'        9.3400   53.4210   82.5660 O.3    25  U25         0.0000
    346  C3'        7.0350   53.7000   82.9330 C.3    25  U25         0.0000
    347  O3'        6.0930   54.0810   83.9340 O.3    25  U25         0.0000
    348  C2'        7.5390   54.9100   82.1540 C.3    25  U25         0.0000
    349  O2'        7.7440   56.0510   82.9590 O.3    25  U25         0.0000
    350  C1'        8.8870   54.4010   81.6450 C.3    25  U25         0.0000
    351  N1         8.7960   53.7790   80.3160 N.ar   25  U25         0.0000
    352  C2         9.2350   54.5120   79.2300 C.ar   25  U25         0.0000
    353  O2         9.6890   55.6440   79.3300 O.2    25  U25         0.0000
    354  N3         9.1230   53.8740   78.0200 N.ar   25  U25         0.0000
    355  C4         8.6210   52.6080   77.7880 C.ar   25  U25         0.0000
    356  O4         8.5600   52.1750   76.6250 O.2    25  U25         0.0000
    357  C5         8.1860   51.9210   78.9640 C.ar   25  U25         0.0000
    358  C6         8.2890   52.5150   80.1550 C.ar   25  U25         0.0000
    359  OP1        4.8120   50.1880   83.4410 O.3    25  U25        -0.5000
    360  OP2        6.6300   50.8260   81.7350 O.co2  25  U25        -0.5000
    361  P          5.7690   49.8860   90.7890 P.3    30  C30         0.0000
    362  C5'        5.9690   47.9120   92.5060 C.3    30  C30         0.0000
    363  O5'        5.3760   48.4350   91.3210 O.3    30  C30         0.0000
    364  C4'        5.6530   46.4390   92.6570 C.3    30  C30         0.0000
    365  O4'        4.2250   46.2550   92.8300 O.3    30  C30         0.0000
    366  C3'        5.9830   45.5460   91.4730 C.3    30  C30         0.0000
    367  O3'        7.3600   45.1890   91.4510 O.3    30  C30         0.0000
    368  C2'        5.1020   44.3310   91.7370 C.3    30  C30         0.0000
    369  O2'        5.6710   43.4270   92.6640 O.3    30  C30         0.0000
    370  C1'        3.8500   44.9800   92.3340 C.3    30  C30         0.0000
    371  N1         2.7780   45.1560   91.3450 N.ar   30  C30         0.0000
    372  C2         1.9610   44.0640   91.0470 C.ar   30  C30         0.0000
    373  O2         2.1690   42.9880   91.6250 O.2    30  C30         0.0000
    374  N3         0.9690   44.2070   90.1380 N.ar   30  C30         0.0000
    375  C4         0.7840   45.3820   89.5340 C.ar   30  C30         0.0000
    376  N4        -0.2020   45.4770   88.6430 N.pl3  30  C30         0.0000
    377  C5         1.6040   46.5120   89.8180 C.ar   30  C30         0.0000
    378  C6         2.5800   46.3560   90.7230 C.ar   30  C30         0.0000
    379  OP1        6.4410   49.7380   89.4710 O.3    30  C30         0.0000
    380  OP2        6.4540   50.6240   91.8860 O.co2  30  C30        -1.0000
    381  P          7.9920   44.5540   90.1160 P.3    31  G31         0.0000
    382  C5'        7.7930   42.0900   89.2270 C.3    31  G31         0.0000
    383  O5'        7.8710   42.9790   90.3390 O.3    31  G31         0.0000
    384  C4'        6.6080   41.1690   89.3840 C.3    31  G31         0.0000
    385  O4'        5.4610   41.9590   89.7910 O.3    31  G31         0.0000
    386  C3'        6.1340   40.4770   88.1130 C.3    31  G31         0.0000
    387  O3'        6.8740   39.3030   87.8010 O.3    31  G31         0.0000
    388  C2'        4.6880   40.1530   88.4520 C.3    31  G31         0.0000
    389  O2'        4.5650   39.0270   89.2930 O.3    31  G31         0.0000
    390  C1'        4.2840   41.4070   89.2250 C.3    31  G31         0.0000
    391  N1         0.7190   42.2520   85.7300 N.ar   31  G31         0.0000
    392  C2         1.1350   41.0670   86.2890 C.ar   31  G31         0.0000
    393  N2         0.4950   39.9550   85.8810 N.pl3  31  G31         0.0000
    394  N3         2.1050   40.9740   87.1820 N.ar   31  G31         0.0000
    395  C4         2.6390   42.1790   87.4760 C.ar   31  G31         0.0000
    396  C5         2.3030   43.4180   86.9710 C.ar   31  G31         0.0000
    397  C6         1.2540   43.5040   86.0150 C.ar   31  G31         0.0000
    398  O6         0.7990   44.5130   85.4520 O.2    31  G31         0.0000
    399  N7         3.1040   44.4090   87.5250 N.ar   31  G31         0.0000
    400  C8         3.8900   43.7670   88.3480 C.ar   31  G31         0.0000
    401  N9         3.6460   42.4130   88.3810 N.ar   31  G31         0.0000
    402  OP1        9.4320   44.9240   90.0520 O.3    31  G31        -0.5000
    403  OP2        7.0870   44.9260   88.9950 O.co2  31  G31        -0.5000
    404  P          7.3360   39.0370   86.2810 P.3    32  U32         0.0000
    405  C5'        6.0290   38.8660   84.0220 C.3    32  U32         0.0000
    406  O5'        5.9820   38.9800   85.4410 O.3    32  U32         0.0000
    407  C4'        4.6650   38.5360   83.4620 C.3    32  U32         0.0000
    408  O4'        3.6840   39.4210   84.0570 O.3    32  U32         0.0000
    409  C3'        4.5530   38.7620   81.9570 C.3    32  U32         0.0000
    410  O3'        4.9410   37.6030   81.2160 O.3    32  U32         0.0000
    411  C2'        3.0770   39.1070   81.7680 C.3    32  U32         0.0000
    412  O2'        2.2210   37.9880   81.6440 O.3    32  U32         0.0000
    413  C1'        2.7660   39.8520   83.0680 C.3    32  U32         0.0000
    414  N1         2.8280   41.3200   82.9890 N.ar   32  U32         0.0000
    415  C2         1.9720   41.9540   82.1100 C.ar   32  U32         0.0000
    416  O2         1.2290   41.3480   81.3580 O.2    32  U32         0.0000
    417  N3         2.0200   43.3260   82.1430 N.ar   32  U32         0.0000
    418  C4         2.8290   44.1130   82.9420 C.ar   32  U32         0.0000
    419  O4         2.7330   45.3430   82.8770 O.2    32  U32         0.0000
    420  C5         3.7140   43.3810   83.8040 C.ar   32  U32         0.0000
    421  C6         3.6870   42.0450   83.7940 C.ar   32  U32         0.0000
    422  OP1        7.9690   37.6920   86.2190 O.3    32  U32        -0.5000
    423  OP2        8.1050   40.2310   85.8410 O.co2  32  U32        -0.5000
    424  P          6.2560   37.6460   80.2820 P.3    33  G33         0.0000
    425  C5'        5.7420   38.8830   78.0080 C.3    33  G33         0.0000
    426  O5'        6.0640   38.9560   79.3980 O.3    33  G33         0.0000
    427  C4'        4.4740   39.6530   77.7500 C.3    33  G33         0.0000
    428  O4'        4.2500   40.5210   78.8780 O.3    33  G33         0.0000
    429  C3'        4.4480   40.5790   76.5380 C.3    33  G33         0.0000
    430  O3'        4.0310   39.8650   75.3700 O.3    33  G33         0.0000
    431  C2'        3.4070   41.6310   76.9290 C.3    33  G33         0.0000
    432  O2'        2.0910   41.2590   76.5680 O.3    33  G33         0.0000
    433  C1'        3.5050   41.6430   78.4590 C.3    33  G33         0.0000
    434  N1         6.6790   43.4290   81.9740 N.ar   33  G33         0.0000
    435  C2         6.5570   42.1530   81.4910 C.ar   33  G33         0.0000
    436  N2         7.3590   41.2270   82.0570 N.pl3  33  G33         0.0000
    437  N3         5.7170   41.8100   80.5280 N.ar   33  G33         0.0000
    438  C4         5.0100   42.8690   80.0760 C.ar   33  G33         0.0000
    439  C5         5.0720   44.1830   80.4870 C.ar   33  G33         0.0000
    440  C6         5.9600   44.5290   81.5240 C.ar   33  G33         0.0000
    441  O6         6.1420   45.6320   82.0370 O.2    33  G33         0.0000
    442  N7         4.1880   44.9700   79.7620 N.ar   33  G33         0.0000
    443  C8         3.6100   44.1330   78.9460 C.ar   33  G33         0.0000
    444  N9         4.0380   42.8360   79.1090 N.ar   33  G33         0.0000
    445  OP1        6.1950   36.4740   79.3730 O.2    33  G33        -0.5000
    446  OP2        7.4470   37.8370   81.1650 O.co2  33  G33        -0.5000
    447  P          3.8890   40.6330   73.9580 P.3    34  A34         0.0000
    448  C5'        1.2650   40.6360   73.6040 C.3    34  A34         0.0000
    449  O5'        2.4500   41.3340   74.0130 O.3    34  A34         0.0000
    450  C4'        0.0670   41.5760   73.5510 C.3    34  A34         0.0000
    451  O4'       -0.2660   42.0470   74.8880 O.3    34  A34         0.0000
    452  C3'        0.2300   42.8540   72.7390 C.3    34  A34         0.0000
    453  O3'        0.0100   42.6230   71.3480 O.3    34  A34         0.0000
    454  C2'       -0.8440   43.7680   73.3360 C.3    34  A34         0.0000
    455  O2'       -2.1330   43.5340   72.7970 O.3    34  A34         0.0000
    456  C1'       -0.8300   43.3530   74.8110 C.3    34  A34         0.0000
    457  N1        -0.4480   48.0530   76.9950 N.ar   34  A34         0.0000
    458  C2        -1.2800   47.5660   76.0620 C.ar   34  A34         0.0000
    459  N3        -1.3240   46.3440   75.5170 N.ar   34  A34         0.0000
    460  C4        -0.3640   45.5570   76.0330 C.ar   34  A34         0.0000
    461  C5         0.5660   45.9170   76.9970 C.ar   34  A34         0.0000
    462  C6         0.5050   47.2380   77.4950 C.ar   34  A34         0.0000
    463  N6         1.3330   47.7200   78.4270 N.pl3  34  A34         0.0000
    464  N7         1.4070   44.8540   77.2840 N.ar   34  A34         0.0000
    465  C8         0.9750   43.8890   76.5080 C.ar   34  A34         0.0000
    466  N9        -0.1020   44.2360   75.7330 N.ar   34  A34         0.0000
    467  OP1        3.8750   39.6060   72.8850 O.2    34  A34        -0.5000
    468  OP2        4.9300   41.6930   73.9410 O.co2  34  A34        -0.5000
    469  P          0.9840   43.3090   70.2620 P.3    35  A35         0.0000
    470  C5'       -0.2700   45.6130   70.0590 C.3    35  A35         0.0000
    471  O5'        0.8490   44.8740   70.5510 O.3    35  A35         0.0000
    472  C4'       -0.2830   47.0110   70.6400 C.3    35  A35         0.0000
    473  O4'       -0.4090   46.9310   72.0880 O.3    35  A35         0.0000
    474  C3'        0.9740   47.8470   70.4420 C.3    35  A35         0.0000
    475  O3'        1.0270   48.4720   69.1680 O.3    35  A35         0.0000
    476  C2'        0.8390   48.8780   71.5520 C.3    35  A35         0.0000
    477  O2'       -0.0740   49.9090   71.2190 O.3    35  A35         0.0000
    478  C1'        0.2890   48.0130   72.6890 C.3    35  A35         0.0000
    479  N1         3.6070   48.9320   76.5030 N.ar   35  A35         0.0000
    480  C2         2.6750   49.6910   75.9220 C.ar   35  A35         0.0000
    481  N3         1.8400   49.3890   74.9300 N.ar   35  A35         0.0000
    482  C4         2.0290   48.1240   74.5170 C.ar   35  A35         0.0000
    483  C5         2.9490   47.2210   75.0170 C.ar   35  A35         0.0000
    484  C6         3.7700   47.6670   76.0630 C.ar   35  A35         0.0000
    485  N6         4.6920   46.9100   76.6370 N.pl3  35  A35         0.0000
    486  N7         2.8630   46.0060   74.3480 N.ar   35  A35         0.0000
    487  C8         1.9060   46.1990   73.4700 C.ar   35  A35         0.0000
    488  N9         1.3580   47.4610   73.5180 N.ar   35  A35         0.0000
    489  OP1        0.4440   43.0450   68.8960 O.2    35  A35        -0.5000
    490  OP2        2.3710   42.8770   70.5990 O.co2  35  A35        -0.5000
    491  P          2.4320   48.5630   68.3960 P.3    36  G36         0.0000
    492  C5'        3.0190   50.7810   69.6550 C.3    36  G36         0.0000
    493  O5'        3.3510   49.4280   69.3730 O.3    36  G36         0.0000
    494  C4'        3.7550   51.2800   70.8790 C.3    36  G36         0.0000
    495  O4'        3.5160   50.3800   71.9980 O.3    36  G36         0.0000
    496  C3'        5.2720   51.3640   70.8180 C.3    36  G36         0.0000
    497  O3'        5.7130   52.5230   70.1020 O.3    36  G36         0.0000
    498  C2'        5.6160   51.4360   72.3040 C.3    36  G36         0.0000
    499  O2'        5.3700   52.7050   72.8800 O.3    36  G36         0.0000
    500  C1'        4.6220   50.4310   72.8900 C.3    36  G36         0.0000
    501  N1         8.0400   47.4780   75.1980 N.ar   36  G36         0.0000
    502  C2         7.7320   48.7960   75.4260 C.ar   36  G36         0.0000
    503  N2         8.4360   49.4130   76.3820 N.pl3  36  G36         0.0000
    504  N3         6.8040   49.4600   74.7630 N.ar   36  G36         0.0000
    505  C4         6.1990   48.6930   73.8390 C.ar   36  G36         0.0000
    506  C5         6.4310   47.3700   73.5340 C.ar   36  G36         0.0000
    507  C6         7.4240   46.6690   74.2500 C.ar   36  G36         0.0000
    508  O6         7.7730   45.4930   74.1230 O.2    36  G36         0.0000
    509  N7         5.5950   46.9450   72.5130 N.pl3  36  G36         0.0000
    510  C8         4.8830   47.9990   72.2200 C.3    36  G36         0.0000
    511  N9         5.2040   49.0960   72.9820 N.pl3  36  G36         0.0000
    512  OP1        2.1920   49.3370   67.1540 O.2    36  G36        -0.5000
    513  OP2        2.9960   47.1940   68.3080 O.co2  36  G36        -0.5000
    514  P          7.1510   52.5210   69.3560 P.3    37  G37         0.0000
    515  C5'        8.2540   53.8720   71.3170 C.3    37  G37         0.0000
    516  O5'        8.2070   52.6840   70.5390 O.3    37  G37         0.0000
    517  C4'        9.3830   53.7940   72.3250 C.3    37  G37         0.0000
    518  O4'        9.0730   52.8140   73.3530 O.3    37  G37         0.0000
    519  C3'       10.7320   53.3380   71.7850 C.3    37  G37         0.0000
    520  O3'       11.4470   54.3930   71.1680 O.3    37  G37         0.0000
    521  C2'       11.4150   52.8430   73.0470 C.3    37  G37         0.0000
    522  O2'       11.8620   53.8970   73.8780 O.3    37  G37         0.0000
    523  C1'       10.2530   52.1250   73.7290 C.3    37  G37         0.0000
    524  N1        12.2130   47.4530   73.8540 N.ar   37  G37         0.0000
    525  C2        12.6700   48.6080   74.4400 C.ar   37  G37         0.0000
    526  N2        13.7940   48.5050   75.1570 N.pl3  37  G37         0.0000
    527  N3        12.0680   49.7820   74.3300 N.ar   37  G37         0.0000
    528  C4        10.9600   49.7100   73.5660 C.ar   37  G37         0.0000
    529  C5        10.4220   48.6110   72.9280 C.ar   37  G37         0.0000
    530  C6        11.0690   47.3560   73.0620 C.ar   37  G37         0.0000
    531  O6        10.7390   46.2630   72.5790 O.2    37  G37         0.0000
    532  N7         9.2750   48.9600   72.2310 N.ar   37  G37         0.0000
    533  C8         9.1370   50.2380   72.4580 C.ar   37  G37         0.0000
    534  N9        10.1230   50.7500   73.2680 N.ar   37  G37         0.0000
    535  OP1        7.2220   53.7490   68.5200 O.3    37  G37         0.0000
    536  OP2        7.3820   51.1930   68.7270 O.co2  37  G37        -1.0000
    537  P         12.4570   54.0590   69.9750 P.3    38  C38         0.0000
    538  C5'       14.5260   53.9700   71.5740 C.3    38  C38         0.0000
    539  O5'       13.6400   53.2820   70.7010 O.3    38  C38         0.0000
    540  C4'       15.7070   53.1000   71.8950 C.3    38  C38         0.0000
    541  O4'       15.2390   51.9200   72.5960 O.3    38  C38         0.0000
    542  C3'       16.4190   52.5270   70.6830 C.3    38  C38         0.0000
    543  O3'       17.3370   53.4360   70.0930 O.3    38  C38         0.0000
    544  C2'       17.1090   51.3040   71.2670 C.3    38  C38         0.0000
    545  O2'       18.2910   51.6050   71.9770 O.3    38  C38         0.0000
    546  C1'       16.0310   50.7960   72.2250 C.3    38  C38         0.0000
    547  N1        15.1560   49.8020   71.5790 N.ar   38  C38         0.0000
    548  C2        15.5700   48.4620   71.5260 C.ar   38  C38         0.0000
    549  O2        16.6710   48.1510   72.0090 O.2    38  C38         0.0000
    550  N3        14.7650   47.5470   70.9450 N.ar   38  C38         0.0000
    551  C4        13.5980   47.9250   70.4250 C.ar   38  C38         0.0000
    552  N4        12.8330   46.9900   69.8640 N.pl3  38  C38         0.0000
    553  C5        13.1590   49.2800   70.4560 C.ar   38  C38         0.0000
    554  C6        13.9590   50.1750   71.0370 C.ar   38  C38         0.0000
    555  OP1       12.9660   55.3510   69.4620 O.2    38  C38         0.0000
    556  OP2       11.8010   53.1050   69.0420 O.co2  38  C38        -1.0000
    557  P         17.5800   53.3800   68.5080 P.3    39  U39         0.0000
    558  C5'       19.8420   52.1380   68.9490 C.3    39  U39         0.0000
    559  O5'       18.5760   52.1560   68.3160 O.3    39  U39         0.0000
    560  C4'       20.5430   50.8430   68.6460 C.3    39  U39         0.0000
    561  O4'       19.9310   49.7720   69.4060 O.3    39  U39         0.0000
    562  C3'       20.4380   50.3740   67.2060 C.3    39  U39         0.0000
    563  O3'       21.4230   51.0070   66.4010 O.3    39  U39         0.0000
    564  C2'       20.7130   48.8840   67.3490 C.3    39  U39         0.0000
    565  O2'       22.0920   48.6120   67.4630 O.3    39  U39         0.0000
    566  C1'       20.0090   48.5640   68.6720 C.3    39  U39         0.0000
    567  N1        18.6430   48.0740   68.4590 N.ar   39  U39         0.0000
    568  C2        18.4450   46.7000   68.4010 C.ar   39  U39         0.0000
    569  O2        19.3580   45.8840   68.5400 O.2    39  U39         0.0000
    570  N3        17.1420   46.3140   68.1700 N.ar   39  U39         0.0000
    571  C4        16.0500   47.1430   67.9920 C.ar   39  U39         0.0000
    572  O4        14.9390   46.6500   67.7900 O.2    39  U39         0.0000
    573  C5        16.3450   48.5410   68.0730 C.ar   39  U39         0.0000
    574  C6        17.5960   48.9470   68.3050 C.ar   39  U39         0.0000
    575  OP1       18.2690   54.6270   68.0960 O.3    39  U39        -0.5000
    576  OP2       16.2750   52.9990   67.8840 O.co2  39  U39        -0.5000
    577  P         21.0880   51.3890   64.8750 P.3    40  G40         0.0000
    578  C5'       22.0570   49.1440   63.9880 C.3    40  G40         0.0000
    579  O5'       20.9350   49.9920   64.1410 O.3    40  G40         0.0000
    580  C4'       21.6090   47.7810   63.5560 C.3    40  G40         0.0000
    581  O4'       20.6810   47.2600   64.5490 O.3    40  G40         0.0000
    582  C3'       20.7940   47.7590   62.2800 C.3    40  G40         0.0000
    583  O3'       21.6400   47.8700   61.1310 O.3    40  G40         0.0000
    584  C2'       20.0630   46.4240   62.4220 C.3    40  G40         0.0000
    585  O2'       20.8300   45.2780   62.1230 O.3    40  G40         0.0000
    586  C1'       19.7370   46.4190   63.9150 C.3    40  G40         0.0000
    587  N1        14.8550   45.2720   64.4820 N.ar   40  G40         0.0000
    588  C2        15.9530   44.4430   64.4280 C.ar   40  G40         0.0000
    589  N2        15.7120   43.1280   64.4900 N.pl3  40  G40         0.0000
    590  N3        17.1940   44.8750   64.3240 N.ar   40  G40         0.0000
    591  C4        17.2610   46.2180   64.2830 C.ar   40  G40         0.0000
    592  C5        16.2350   47.1360   64.3380 C.ar   40  G40         0.0000
    593  C6        14.9010   46.6630   64.4370 C.ar   40  G40         0.0000
    594  O6        13.8550   47.3130   64.4740 O.2    40  G40         0.0000
    595  N7        16.7300   48.4310   64.2700 N.pl3  40  G40         0.0000
    596  C8        18.0220   48.2760   64.1620 C.3    40  G40         0.0000
    597  N9        18.4020   46.9550   64.1350 N.pl3  40  G40         0.0000
    598  OP1       22.3140   52.0360   64.3330 O.2    40  G40        -0.5000
    599  OP2       19.7840   52.0930   64.7950 O.co2  40  G40        -0.5000
    600  P         21.0920   48.5820   59.7790 P.3    41  A41         0.0000
    601  C5'       19.4850   47.7570   57.8970 C.3    41  A41         0.0000
    602  O5'       20.1260   47.4990   59.1290 O.3    41  A41         0.0000
    603  C4'       18.7520   46.5340   57.4530 C.3    41  A41         0.0000
    604  O4'       19.7180   45.5190   57.1030 O.3    41  A41         0.0000
    605  C3'       17.9070   45.8840   58.5340 C.3    41  A41         0.0000
    606  O3'       16.6400   46.5330   58.6300 O.3    41  A41         0.0000
    607  C2'       17.8130   44.4400   58.0480 C.3    41  A41         0.0000
    608  O2'       16.8380   44.2340   57.0460 O.3    41  A41         0.0000
    609  C1'       19.1900   44.2450   57.4120 C.3    41  A41         0.0000
    610  N1        20.5660   39.7060   59.3670 N.ar   41  A41         0.0000
    611  C2        19.4630   40.1080   58.7350 C.ar   41  A41         0.0000
    612  N3        19.1460   41.3160   58.2880 N.ar   41  A41         0.0000
    613  C4        20.1270   42.1970   58.5610 C.ar   41  A41         0.0000
    614  C5        21.3150   41.9370   59.2120 C.ar   41  A41         0.0000
    615  C6        21.5370   40.6150   59.6200 C.ar   41  A41         0.0000
    616  N6        22.6510   40.2080   60.2300 N.pl3  41  A41         0.0000
    617  N7        22.0790   43.0920   59.3190 N.pl3  41  A41         0.0000
    618  C8        21.3510   44.0060   58.7300 C.3    41  A41         0.0000
    619  N9        20.1730   43.5280   58.2190 N.pl3  41  A41         0.0000
    620  OP1       22.2260   48.7120   58.8250 O.2    41  A41        -0.5000
    621  OP2       20.2850   49.7820   60.1200 O.co2  41  A41        -0.5000
    622  P         15.9110   46.6620   60.0600 P.3    42  G42         0.0000
    623  C5'       14.4910   44.5530   59.4640 C.3    42  G42         0.0000
    624  O5'       15.4260   45.1760   60.3340 O.3    42  G42         0.0000
    625  C4'       14.4050   43.0880   59.7810 C.3    42  G42         0.0000
    626  O4'       15.6770   42.4670   59.4610 O.3    42  G42         0.0000
    627  C3'       14.1610   42.7640   61.2470 C.3    42  G42         0.0000
    628  O3'       12.7570   42.7270   61.4820 O.3    42  G42         0.0000
    629  C2'       14.7960   41.3830   61.3860 C.3    42  G42         0.0000
    630  O2'       13.9620   40.3610   60.8790 O.3    42  G42         0.0000
    631  C1'       15.9990   41.5040   60.4460 C.3    42  G42         0.0000
    632  N1        20.2910   39.9900   62.6900 N.ar   42  G42         0.0000
    633  C2        19.2490   39.2360   62.2020 C.ar   42  G42         0.0000
    634  N2        19.3710   37.9000   62.3190 N.pl3  42  G42         0.0000
    635  N3        18.1640   39.7530   61.6400 N.ar   42  G42         0.0000
    636  C4        18.2030   41.1030   61.6140 C.ar   42  G42         0.0000
    637  C5        19.1900   41.9470   62.0760 C.ar   42  G42         0.0000
    638  C6        20.3540   41.3810   62.6650 C.ar   42  G42         0.0000
    639  O6        21.3470   41.9610   63.1200 O.2    42  G42         0.0000
    640  N7        18.8430   43.2750   61.8630 N.ar   42  G42         0.0000
    641  C8        17.6770   43.2160   61.2800 C.ar   42  G42         0.0000
    642  N9        17.2360   41.9270   61.0910 N.ar   42  G42         0.0000
    643  OP1       14.6850   47.4890   59.8730 O.2    42  G42        -0.5000
    644  OP2       16.9050   47.0510   61.0940 O.co2  42  G42        -0.5000
    645  P         12.1730   43.0810   62.9350 P.3    43  A43         0.0000
    646  C5'       12.5460   40.8060   64.2230 C.3    43  A43         0.0000
    647  O5'       12.9650   42.1390   63.9460 O.3    43  A43         0.0000
    648  C4'       12.8030   40.4890   65.6790 C.3    43  A43         0.0000
    649  O4'       14.1450   40.8700   66.0470 O.3    43  A43         0.0000
    650  C3'       11.9060   41.2260   66.6710 C.3    43  A43         0.0000
    651  O3'       10.9050   40.2900   67.0630 O.3    43  A43         0.0000
    652  C2'       12.7780   41.4700   67.9110 C.3    43  A43         0.0000
    653  O2'       12.3890   40.6760   69.0170 O.3    43  A43         0.0000
    654  C1'       14.1720   41.0480   67.4340 C.3    43  A43         0.0000
    655  N1        18.8760   40.9020   69.3170 N.ar   43  A43         0.0000
    656  C2        17.9840   39.9480   69.0250 C.ar   43  A43         0.0000
    657  N3        16.7620   40.0720   68.5250 N.ar   43  A43         0.0000
    658  C4        16.4680   41.3680   68.3170 C.ar   43  A43         0.0000
    659  C5        17.2770   42.4580   68.5700 C.ar   43  A43         0.0000
    660  C6        18.5440   42.1960   69.0930 C.ar   43  A43         0.0000
    661  N6        19.4350   43.1490   69.3780 N.pl3  43  A43         0.0000
    662  N7        16.6310   43.6370   68.2340 N.ar   43  A43         0.0000
    663  C8        15.4640   43.2370   67.7850 C.ar   43  A43         0.0000
    664  N9        15.3020   41.8780   67.8130 N.ar   43  A43         0.0000
    665  OP1       10.7600   42.6500   62.9050 O.2    43  A43        -0.5000
    666  OP2       12.5100   44.4850   63.2970 O.co2  43  A43        -0.5000
    667  P          9.3710   40.7110   67.0920 P.3    44  A44         0.0000
    668  C5'        9.1880   39.2920   64.9000 C.3    44  A44         0.0000
    669  O5'        8.9150   40.5100   65.5810 O.3    44  A44         0.0000
    670  C4'        8.1430   39.0510   63.8500 C.3    44  A44         0.0000
    671  O4'        8.4840   37.8360   63.1300 O.3    44  A44         0.0000
    672  C3'        6.7720   38.7940   64.4610 C.3    44  A44         0.0000
    673  O3'        5.7300   39.7510   64.2280 O.3    44  A44         0.0000
    674  C2'        6.5700   37.2780   64.4960 C.3    44  A44         0.0000
    675  O2'        5.2790   36.8750   64.0830 O.3    44  A44         0.0000
    676  C1'        7.5570   36.8080   63.4290 C.3    44  A44         0.0000
    677  N1        10.9710   34.2160   66.3250 N.ar   44  A44         0.0000
    678  C2        10.5070   35.4690   66.4080 C.ar   44  A44         0.0000
    679  N3         9.6200   36.0930   65.6340 N.ar   44  A44         0.0000
    680  C4         9.1850   35.2740   64.6660 C.ar   44  A44         0.0000
    681  C5         9.5710   33.9610   64.4540 C.ar   44  A44         0.0000
    682  C6        10.5110   33.4200   65.3330 C.ar   44  A44         0.0000
    683  N6        10.9740   32.1680   65.2410 N.pl3  44  A44         0.0000
    684  N7         8.9170   33.4270   63.3590 N.ar   44  A44         0.0000
    685  C8         8.1630   34.4090   62.9370 C.ar   44  A44         0.0000
    686  N9         8.2770   35.5580   63.6790 N.ar   44  A44         0.0000
    687  OP1        9.2740   42.1530   67.4280 O.2    44  A44        -0.5000
    688  OP2        8.7000   39.7110   67.9550 O.co2  44  A44        -0.5000
    689  P          4.7330   39.5710   62.9740 P.3    45  A45         0.0000
    690  C5'        5.1800   38.7320   60.5120 C.3    45  A45         0.0000
    691  O5'        5.6690   38.9740   61.8310 O.3    45  A45         0.0000
    692  C4'        6.1670   39.2560   59.4910 C.3    45  A45         0.0000
    693  O4'        7.5160   39.0770   59.9880 O.3    45  A45         0.0000
    694  C3'        6.1440   38.5590   58.1390 C.3    45  A45         0.0000
    695  O3'        5.2020   39.1730   57.2700 O.3    45  A45         0.0000
    696  C2'        7.5620   38.7850   57.6300 C.3    45  A45         0.0000
    697  O2'        7.7040   40.0700   57.0610 O.3    45  A45         0.0000
    698  C1'        8.3750   38.7010   58.9250 C.3    45  A45         0.0000
    699  N1        11.6530   36.1570   61.9260 N.ar   45  A45         0.0000
    700  C2        11.3530   37.4550   61.8040 C.ar   45  A45         0.0000
    701  N3        10.4920   38.0480   60.9810 N.ar   45  A45         0.0000
    702  C4         9.8840   37.1420   60.1970 C.ar   45  A45         0.0000
    703  C5        10.0870   35.7750   60.1980 C.ar   45  A45         0.0000
    704  C6        11.0260   35.2710   61.1220 C.ar   45  A45         0.0000
    705  N6        11.3270   33.9780   61.2470 N.pl3  45  A45         0.0000
    706  N7         9.2820   35.1590   59.2470 N.ar   45  A45         0.0000
    707  C8         8.6180   36.1520   58.7050 C.ar   45  A45         0.0000
    708  N9         8.9260   37.3800   59.2420 N.ar   45  A45         0.0000
    709  OP1        4.3060   40.9250   62.5330 O.2    45  A45        -0.5000
    710  OP2        3.7050   38.5630   63.3470 O.co2  45  A45        -0.5000
    711  P          4.0950   38.2740   56.5310 P.3    46  U46         0.0000
    712  C5'        5.6730   37.7210   54.4830 C.3    46  U46         0.0000
    713  O5'        4.9280   37.2640   55.6150 O.3    46  U46         0.0000
    714  C4'        5.0700   37.1810   53.1990 C.3    46  U46         0.0000
    715  O4'        3.7530   37.7810   53.0250 O.3    46  U46         0.0000
    716  C3'        5.8360   37.5290   51.9240 C.3    46  U46         0.0000
    717  O3'        6.8030   36.5250   51.5730 O.3    46  U46         0.0000
    718  C2'        4.7250   37.5480   50.8710 C.3    46  U46         0.0000
    719  O2'        4.3750   36.2630   50.3890 O.3    46  U46         0.0000
    720  C1'        3.5510   38.1220   51.6650 C.3    46  U46         0.0000
    721  OP1        3.2960   39.1720   55.6550 O.2    46  U46        -0.5000
    722  OP2        3.4120   37.4750   57.5830 O.co2  46  U46        -0.5000
    723  P          8.1260   36.2980   52.4760 P.3    47  A47         0.0000
    724  C5'        8.5710   38.9060   52.4570 C.3    47  A47         0.0000
    725  O5'        9.0530   37.5790   52.2410 O.3    47  A47         0.0000
    726  C4'        9.4090   39.6160   53.5040 C.3    47  A47         0.0000
    727  O4'        9.2030   38.9740   54.7920 O.3    47  A47         0.0000
    728  C3'       10.9210   39.5940   53.3320 C.3    47  A47         0.0000
    729  O3'       11.3840   40.5860   52.4200 O.3    47  A47         0.0000
    730  C2'       11.3930   39.8880   54.7500 C.3    47  A47         0.0000
    731  O2'       11.2990   41.2590   55.0740 O.3    47  A47         0.0000
    732  C1'       10.3750   39.1020   55.5780 C.3    47  A47         0.0000
    733  N1        13.1930   36.3860   58.8880 N.ar   47  A47         0.0000
    734  C2        12.9650   37.6960   58.7610 C.ar   47  A47         0.0000
    735  N3        12.2200   38.3400   57.8650 N.ar   47  A47         0.0000
    736  C4        11.6570   37.4720   57.0100 C.ar   47  A47         0.0000
    737  C5        11.7980   36.0970   57.0110 C.ar   47  A47         0.0000
    738  C6        12.6120   35.5420   58.0110 C.ar   47  A47         0.0000
    739  N6        12.8410   34.2420   58.1410 N.pl3  47  A47         0.0000
    740  N7        11.0770   35.5310   55.9710 N.ar   47  A47         0.0000
    741  C8        10.5220   36.5600   55.3770 C.ar   47  A47         0.0000
    742  N9        10.8260   37.7640   55.9590 N.ar   47  A47         0.0000
    743  OP1        8.8530   35.1460   51.8740 O.2    47  A47        -0.5000
    744  OP2        7.7340   36.2420   53.9080 O.co2  47  A47        -0.5000
    745  P         12.8410   40.4310   51.7410 P.3    48  C48         0.0000
    746  C5'       13.9070   41.7910   53.7150 C.3    48  C48         0.0000
    747  O5'       13.8370   40.5830   52.9690 O.3    48  C48         0.0000
    748  C4'       14.8960   41.6290   54.8340 C.3    48  C48         0.0000
    749  O4'       14.3760   40.6930   55.8190 O.3    48  C48         0.0000
    750  C3'       16.1930   40.9840   54.3950 C.3    48  C48         0.0000
    751  O3'       17.0560   41.9240   53.7910 O.3    48  C48         0.0000
    752  C2'       16.7320   40.4270   55.7040 C.3    48  C48         0.0000
    753  O2'       17.3490   41.4120   56.5150 O.3    48  C48         0.0000
    754  C1'       15.4420   39.9190   56.3500 C.3    48  C48         0.0000
    755  N1        15.1870   38.5100   56.0290 N.ar   48  C48         0.0000
    756  C2        15.7930   37.5240   56.8120 C.ar   48  C48         0.0000
    757  O2        16.5160   37.8700   57.7510 O.2    48  C48         0.0000
    758  N3        15.5780   36.2230   56.5240 N.ar   48  C48         0.0000
    759  C4        14.7940   35.8880   55.5010 C.ar   48  C48         0.0000
    760  N4        14.6120   34.5960   55.2620 N.pl3  48  C48         0.0000
    761  C5        14.1610   36.8690   54.6820 C.ar   48  C48         0.0000
    762  C6        14.3810   38.1600   54.9810 C.ar   48  C48         0.0000
    763  OP1       13.0800   41.5790   50.8290 O.2    48  C48        -0.5000
    764  OP2       13.0040   39.0450   51.2290 O.co2  48  C48        -0.5000
    765  P         18.1650   41.4150   52.7540 P.3    49  C49         0.0000
    766  C5'       20.0630   41.2890   54.5420 C.3    49  C49         0.0000
    767  O5'       19.1970   40.6110   53.6540 O.3    49  C49         0.0000
    768  C4'       20.8910   40.2930   55.3000 C.3    49  C49         0.0000
    769  O4'       20.0020   39.4550   56.0860 O.3    49  C49         0.0000
    770  C3'       21.6660   39.3090   54.4370 C.3    49  C49         0.0000
    771  O3'       22.9010   39.8770   53.9990 O.3    49  C49         0.0000
    772  C2'       21.8600   38.1560   55.4130 C.3    49  C49         0.0000
    773  O2'       22.8510   38.4100   56.3890 O.3    49  C49         0.0000
    774  C1'       20.4990   38.1320   56.1080 C.3    49  C49         0.0000
    775  N1        19.5430   37.2690   55.4080 N.ar   49  C49         0.0000
    776  C2        19.6350   35.8970   55.6000 C.ar   49  C49         0.0000
    777  O2        20.5230   35.4640   56.3530 O.2    49  C49         0.0000
    778  N3        18.7610   35.0770   54.9670 N.ar   49  C49         0.0000
    779  C4        17.8220   35.5940   54.1670 C.ar   49  C49         0.0000
    780  N4        16.9770   34.7500   53.5640 N.pl3  49  C49         0.0000
    781  C5        17.7080   36.9970   53.9510 C.ar   49  C49         0.0000
    782  C6        18.5830   37.7910   54.5840 C.ar   49  C49         0.0000
    783  OP1       18.8580   42.6110   52.1940 O.3    49  C49        -0.5000
    784  OP2       17.5190   40.4220   51.8390 O.co2  49  C49        -0.5000
    785  P         23.5570   39.4070   52.6050 P.3    50  C50         0.0000
    786  C5'       25.1010   37.7250   53.9010 C.3    50  C50         0.0000
    787  O5'       24.1390   37.9510   52.8860 O.3    50  C50         0.0000
    788  C4'       25.1620   36.2500   54.2460 C.3    50  C50         0.0000
    789  O4'       23.8740   35.8120   54.7700 O.3    50  C50         0.0000
    790  C3'       25.4190   35.2940   53.0940 C.3    50  C50         0.0000
    791  O3'       26.8080   35.2340   52.7710 O.3    50  C50         0.0000
    792  C2'       24.9050   33.9840   53.6800 C.3    50  C50         0.0000
    793  O2'       25.7830   33.4050   54.6180 O.3    50  C50         0.0000
    794  C1'       23.6530   34.4590   54.4150 C.3    50  C50         0.0000
    795  N1        22.4740   34.3850   53.5410 N.ar   50  C50         0.0000
    796  C2        21.9330   33.1320   53.2740 C.ar   50  C50         0.0000
    797  O2        22.4480   32.1440   53.8060 O.2    50  C50         0.0000
    798  N3        20.8700   33.0290   52.4420 N.ar   50  C50         0.0000
    799  C4        20.3490   34.1240   51.8840 C.ar   50  C50         0.0000
    800  N4        19.3110   33.9710   51.0510 N.pl3  50  C50         0.0000
    801  C5        20.8710   35.4230   52.1500 C.ar   50  C50         0.0000
    802  C6        21.9250   35.5080   52.9820 C.ar   50  C50         0.0000
    803  OP1       24.6960   40.3300   52.3550 O.3    50  C50        -0.5000
    804  OP2       22.4940   39.2450   51.5830 O.co2  50  C50        -0.5000
    805  P         27.2760   34.7130   51.3120 P.3    51  G51         0.0000
    806  C5'       27.8640   32.2940   52.1630 C.3    51  G51         0.0000
    807  O5'       27.0380   33.1410   51.3700 O.3    51  G51         0.0000
    808  C4'       27.5620   30.8550   51.8380 C.3    51  G51         0.0000
    809  O4'       26.1600   30.5930   52.1280 O.3    51  G51         0.0000
    810  C3'       27.7070   30.5210   50.3620 C.3    51  G51         0.0000
    811  O3'       29.0540   30.1680   50.0670 O.3    51  G51         0.0000
    812  C2'       26.7540   29.3430   50.1880 C.3    51  G51         0.0000
    813  O2'       27.2930   28.0880   50.5530 O.3    51  G51         0.0000
    814  C1'       25.6300   29.7120   51.1550 C.3    51  G51         0.0000
    815  N1        21.3320   28.9590   48.6190 N.ar   51  G51         0.0000
    816  C2        22.2400   28.0490   49.0860 C.ar   51  G51         0.0000
    817  N2        21.9570   26.7640   48.8700 N.pl3  51  G51         0.0000
    818  N3        23.3400   28.3740   49.7210 N.ar   51  G51         0.0000
    819  C4        23.4690   29.7100   49.8600 C.ar   51  G51         0.0000
    820  C5        22.6270   30.7020   49.4270 C.ar   51  G51         0.0000
    821  C6        21.4420   30.3350   48.7440 C.ar   51  G51         0.0000
    822  O6        20.5550   31.0640   48.2820 O.2    51  G51         0.0000
    823  N7        23.1250   31.9540   49.7680 N.ar   51  G51         0.0000
    824  C8        24.2400   31.6980   50.3980 C.ar   51  G51         0.0000
    825  N9        24.5000   30.3570   50.4980 N.ar   51  G51         0.0000
    826  OP1       28.7480   34.9230   51.2060 O.3    51  G51        -0.5000
    827  OP2       26.3710   35.2620   50.2590 O.co2  51  G51        -0.5000
    828  P         29.7150   30.6200   48.6710 P.3    52  U52         0.0000
    829  C5'       32.0710   31.2000   49.7220 C.3    52  U52         0.0000
    830  O5'       31.2720   30.3650   48.8840 O.3    52  U52         0.0000
    831  C4'       33.1780   30.3780   50.3500 C.3    52  U52         0.0000
    832  O4'       32.6470   29.6230   51.4600 O.3    52  U52         0.0000
    833  C3'       33.8270   29.3660   49.4150 C.3    52  U52         0.0000
    834  O3'       34.8910   29.9630   48.6430 O.3    52  U52         0.0000
    835  C2'       34.1560   28.1470   50.2900 C.3    52  U52         0.0000
    836  O2'       35.4980   27.9750   50.7010 O.3    52  U52         0.0000
    837  C1'       33.2520   28.3520   51.5110 C.3    52  U52         0.0000
    838  N1        32.2070   27.3610   51.7970 N.ar   52  U52         0.0000
    839  C2        32.5950   26.0760   52.1030 C.ar   52  U52         0.0000
    840  O2        33.7570   25.7100   52.0720 O.2    52  U52         0.0000
    841  N3        31.5690   25.2330   52.4530 N.ar   52  U52         0.0000
    842  C4        30.2230   25.5400   52.5130 C.ar   52  U52         0.0000
    843  O4        29.4160   24.6770   52.8640 O.2    52  U52         0.0000
    844  C5        29.9050   26.8820   52.1490 C.ar   52  U52         0.0000
    845  C6        30.8830   27.7220   51.8050 C.ar   52  U52         0.0000
    846  OP1       29.4960   32.0810   48.4960 O.3    52  U52        -0.5000
    847  OP2       29.2350   29.6660   47.6260 O.co2  52  U52        -0.5000
    848  P         36.2120   30.5740   49.3670 P.3    53  A53         0.0000
    849  C5'       36.2100   31.8900   51.6470 C.3    53  A53         0.0000
    850  O5'       35.6590   31.7110   50.3410 O.3    53  A53         0.0000
    851  C4'       35.2560   32.6840   52.5170 C.3    53  A53         0.0000
    852  O4'       33.9520   32.0540   52.5300 O.3    53  A53         0.0000
    853  C3'       35.6420   32.7980   53.9860 C.3    53  A53         0.0000
    854  O3'       36.4980   33.9290   54.1430 O.3    53  A53         0.0000
    855  C2'       34.2990   33.0500   54.6840 C.3    53  A53         0.0000
    856  O2'       33.9700   34.4240   54.7670 O.3    53  A53         0.0000
    857  C1'       33.2980   32.3700   53.7430 C.3    53  A53         0.0000
    858  N1        33.5440   27.4660   55.4040 N.ar   53  A53         0.0000
    859  C2        34.5000   28.3280   55.0250 C.ar   53  A53         0.0000
    860  N3        34.3870   29.5910   54.6110 N.ar   53  A53         0.0000
    861  C4        33.0980   29.9690   54.6050 C.ar   53  A53         0.0000
    862  C5        32.0060   29.1950   54.9660 C.ar   53  A53         0.0000
    863  C6        32.2590   27.8800   55.3860 C.ar   53  A53         0.0000
    864  N6        31.3050   27.0240   55.7670 N.pl3  53  A53         0.0000
    865  N7        30.8310   29.9140   54.8310 N.ar   53  A53         0.0000
    866  C8        31.2280   31.0840   54.3970 C.ar   53  A53         0.0000
    867  N9        32.5860   31.1870   54.2320 N.ar   53  A53         0.0000
    868  OP1       36.9990   31.2580   48.3130 O.2    53  A53        -0.5000
    869  OP2       36.8760   29.5480   50.2130 O.co2  53  A53        -0.5000
    870  P         37.8220   33.8290   55.0490 P.3    54  U54         0.0000
    871  C5'       38.7460   36.0100   56.1870 C.3    54  U54         0.0000
    872  O5'       37.6850   35.0660   56.0470 O.3    54  U54         0.0000
    873  C4'       38.2490   37.2870   56.8350 C.3    54  U54         0.0000
    874  O4'       39.4050   38.1180   57.1360 O.3    54  U54         0.0000
    875  C3'       37.3440   38.1880   55.9970 C.3    54  U54         0.0000
    876  O3'       35.9650   37.8060   56.0730 O.3    54  U54         0.0000
    877  C2'       37.5740   39.5520   56.6420 C.3    54  U54         0.0000
    878  O2'       36.8220   39.7340   57.8300 O.3    54  U54         0.0000
    879  C1'       39.0690   39.4860   56.9690 C.3    54  U54         0.0000
    880  OP1       38.9930   34.0810   54.1650 O.2    54  U54        -0.5000
    881  OP2       37.7500   32.5670   55.8320 O.co2  54  U54        -0.5000
    882  P         34.8880   38.4300   55.0330 P.3    55  C55         0.0000
    883  C5'       33.3470   38.6000   57.1610 C.3    55  C55         0.0000
    884  O5'       33.4910   38.2410   55.7830 O.3    55  C55         0.0000
    885  C4'       32.1010   39.4350   57.3570 C.3    55  C55         0.0000
    886  O4'       32.1690   40.5810   56.4640 O.3    55  C55         0.0000
    887  C3'       30.7790   38.7560   57.0170 C.3    55  C55         0.0000
    888  O3'       30.2560   38.0430   58.1400 O.3    55  C55         0.0000
    889  C2'       29.8850   39.9380   56.6590 C.3    55  C55         0.0000
    890  O2'       29.3530   40.5860   57.7980 O.3    55  C55         0.0000
    891  C1'       30.8770   40.8630   55.9480 C.3    55  C55         0.0000
    892  OP1       34.8710   37.5950   53.7980 O.2    55  C55        -0.5000
    893  OP2       35.1330   39.8970   54.9190 O.co2  55  C55        -0.5000
    894  P         29.4290   36.6840   57.9020 P.3    56  A56         0.0000
    895  C5'       27.0540   37.7640   58.2090 C.3    56  A56         0.0000
    896  O5'       28.0630   36.8910   58.7010 O.3    56  A56         0.0000
    897  C4'       25.7120   37.0640   58.1810 C.3    56  A56         0.0000
    898  O4'       25.7670   35.9050   57.3050 O.3    56  A56         0.0000
    899  C3'       25.2030   36.4830   59.4840 C.3    56  A56         0.0000
    900  O3'       24.5990   37.4870   60.2800 O.3    56  A56         0.0000
    901  C2'       24.1480   35.5180   58.9750 C.3    56  A56         0.0000
    902  O2'       23.0140   36.2240   58.5270 O.3    56  A56         0.0000
    903  C1'       24.8550   34.9230   57.7610 C.3    56  A56         0.0000
    904  N1        24.6650   29.8300   58.5220 N.ar   56  A56         0.0000
    905  C2        23.7200   30.7250   58.2110 C.ar   56  A56         0.0000
    906  N3        23.8320   32.0450   58.0270 N.ar   56  A56         0.0000
    907  C4        25.1060   32.4400   58.2000 C.ar   56  A56         0.0000
    908  C5        26.1840   31.6380   58.5250 C.ar   56  A56         0.0000
    909  C6        25.9340   30.2650   58.6910 C.ar   56  A56         0.0000
    910  N6        26.8770   29.3780   59.0040 N.pl3  56  A56         0.0000
    911  N7        27.3420   32.3920   58.6260 N.ar   56  A56         0.0000
    912  C8        26.9480   33.6120   58.3620 C.ar   56  A56         0.0000
    913  N9        25.6070   33.7150   58.0930 N.ar   56  A56         0.0000
    914  OP1       30.1770   35.5720   58.5490 O.3    56  A56        -0.5000
    915  OP2       29.1140   36.6140   56.4510 O.co2  56  A56        -0.5000
    916  P         25.1060   37.7140   61.7850 P.3    57  C57         0.0000
    917  C5'       23.6320   35.6520   62.4730 C.3    57  C57         0.0000
    918  O5'       24.8910   36.3050   62.4940 O.3    57  C57         0.0000
    919  C4'       23.8060   34.1790   62.7730 C.3    57  C57         0.0000
    920  O4'       24.5540   33.5380   61.7010 O.3    57  C57         0.0000
    921  C3'       24.6050   33.8270   64.0190 C.3    57  C57         0.0000
    922  O3'       23.8180   33.8900   65.1930 O.3    57  C57         0.0000
    923  C2'       25.0170   32.3930   63.7310 C.3    57  C57         0.0000
    924  O2'       23.9650   31.4790   63.9850 O.3    57  C57         0.0000
    925  C1'       25.3200   32.4650   62.2320 C.3    57  C57         0.0000
    926  N1        26.7400   32.7390   61.9680 N.ar   57  C57         0.0000
    927  C2        27.6270   31.6590   61.8490 C.ar   57  C57         0.0000
    928  O2        27.1850   30.5060   61.9560 O.2    57  C57         0.0000
    929  N3        28.9380   31.9020   61.6180 N.ar   57  C57         0.0000
    930  C4        29.3710   33.1600   61.5010 C.ar   57  C57         0.0000
    931  N4        30.6690   33.3550   61.2580 N.pl3  57  C57         0.0000
    932  C5        28.4920   34.2740   61.6190 C.ar   57  C57         0.0000
    933  C6        27.1980   34.0210   61.8480 C.ar   57  C57         0.0000
    934  OP1       24.1910   38.6950   62.4060 O.3    57  C57        -0.5000
    935  OP2       26.5660   37.9860   61.7470 O.co2  57  C57        -0.5000
    936  P         24.5420   34.0810   66.6080 P.3    58  C58         0.0000
    937  C5'       24.3370   31.5200   67.0960 C.3    58  C58         0.0000
    938  O5'       25.1740   32.6480   66.9080 O.3    58  C58         0.0000
    939  C4'       25.1560   30.2610   67.1620 C.3    58  C58         0.0000
    940  O4'       25.9610   30.1660   65.9600 O.3    58  C58         0.0000
    941  C3'       26.1660   30.1680   68.2960 C.3    58  C58         0.0000
    942  O3'       25.5580   29.7200   69.5080 O.3    58  C58         0.0000
    943  C2'       27.1760   29.1620   67.7540 C.3    58  C58         0.0000
    944  O2'       26.7790   27.8170   67.9070 O.3    58  C58         0.0000
    945  C1'       27.1780   29.5100   66.2650 C.3    58  C58         0.0000
    946  N1        28.2880   30.3800   65.8630 N.ar   58  C58         0.0000
    947  C2        29.5780   29.8640   65.9110 C.ar   58  C58         0.0000
    948  O2        29.7350   28.7060   66.3390 O.2    58  C58         0.0000
    949  N3        30.6150   30.6310   65.4940 N.ar   58  C58         0.0000
    950  C4        30.3900   31.8710   65.0450 C.ar   58  C58         0.0000
    951  N4        31.4400   32.5920   64.6160 N.pl3  58  C58         0.0000
    952  C5        29.0790   32.4320   65.0100 C.ar   58  C58         0.0000
    953  C6        28.0670   31.6600   65.4300 C.ar   58  C58         0.0000
    954  OP1       23.4870   34.3410   67.6340 O.3    58  C58        -0.5000
    955  OP2       25.6490   35.0560   66.4270 O.co2  58  C58        -0.5000
    956  P         26.1730   30.1890   70.9160 P.3    59  U59         0.0000
    957  C5'       27.4800   27.9090   71.1120 C.3    59  U59         0.0000
    958  O5'       27.5120   29.3320   71.0380 O.3    59  U59         0.0000
    959  C4'       28.8880   27.3670   71.1110 C.3    59  U59         0.0000
    960  O4'       29.5160   27.6830   69.8450 O.3    59  U59         0.0000
    961  C3'       29.8000   27.9900   72.1540 C.3    59  U59         0.0000
    962  O3'       29.6690   27.2790   73.3740 O.3    59  U59         0.0000
    963  C2'       31.1800   27.8230   71.5320 C.3    59  U59         0.0000
    964  O2'       31.6890   26.5150   71.7100 O.3    59  U59         0.0000
    965  C1'       30.8710   28.0330   70.0500 C.3    59  U59         0.0000
    966  N1        31.0590   29.3910   69.5140 N.ar   59  U59         0.0000
    967  C2        32.3540   29.8000   69.1970 C.ar   59  U59         0.0000
    968  O2        33.3470   29.1240   69.4350 O.2    59  U59         0.0000
    969  N3        32.4390   31.0330   68.5900 N.ar   59  U59         0.0000
    970  C4        31.3910   31.8900   68.2920 C.ar   59  U59         0.0000
    971  O4        31.6280   32.9640   67.7280 O.2    59  U59         0.0000
    972  C5        30.0930   31.4130   68.6950 C.ar   59  U59         0.0000
    973  C6        29.9770   30.2160   69.2830 C.ar   59  U59         0.0000
    974  OP1       25.2690   29.7860   72.0250 O.3    59  U59        -0.5000
    975  OP2       26.5460   31.6200   70.7590 O.co2  59  U59        -0.5000
    976  P         29.5710   28.0860   74.7550 P.3    60  G60         0.0000
    977  C5'       32.1200   27.7060   75.3100 C.3    60  G60         0.0000
    978  O5'       31.0600   28.6060   74.9850 O.3    60  G60         0.0000
    979  C4'       33.4440   28.4300   75.2260 C.3    60  G60         0.0000
    980  O4'       33.6670   28.8540   73.8520 O.3    60  G60         0.0000
    981  C3'       33.5240   29.7130   76.0440 C.3    60  G60         0.0000
    982  O3'       34.0200   29.4510   77.3530 O.3    60  G60         0.0000
    983  C2'       34.5930   30.4900   75.2980 C.3    60  G60         0.0000
    984  O2'       35.8600   29.9900   75.6530 O.3    60  G60         0.0000
    985  C1'       34.3000   30.1210   73.8420 C.3    60  G60         0.0000
    986  N1        34.0390   33.8680   70.4140 N.ar   60  G60         0.0000
    987  C2        35.1450   33.2500   70.9380 C.ar   60  G60         0.0000
    988  N2        36.3350   33.6640   70.4740 N.pl3  60  G60         0.0000
    989  N3        35.0940   32.3010   71.8530 N.ar   60  G60         0.0000
    990  C4        33.8260   32.0150   72.2120 C.ar   60  G60         0.0000
    991  C5        32.6560   32.5820   71.7530 C.ar   60  G60         0.0000
    992  C6        32.7260   33.5950   70.7720 C.ar   60  G60         0.0000
    993  O6        31.8000   34.2180   70.2410 O.3    60  G60         0.0000
    994  N7        31.5570   32.0150   72.3780 N.ar   60  G60         0.0000
    995  C8        32.0640   31.1250   73.1860 C.ar   60  G60         0.0000
    996  N9        33.4350   31.0560   73.1220 N.ar   60  G60         0.0000
    997  OP1       29.2320   27.1120   75.8340 O.3    60  G60        -0.5000
    998  OP2       28.6970   29.2760   74.5410 O.co2  60  G60        -0.5000
    999  P         33.0090   29.3070   78.5980 P.3    61  A61         0.0000
   1000  C5'       30.8320   30.6130   79.3830 C.3    61  A61         0.0000
   1001  O5'       31.8270   30.3680   78.3620 O.3    61  A61         0.0000
   1002  C4'       29.7170   31.5220   78.8640 C.3    61  A61         0.0000
   1003  O4'       30.2790   32.7870   78.4290 O.3    61  A61         0.0000
   1004  C3'       29.0340   30.9210   77.6420 C.3    61  A61         0.0000
   1005  O3'       27.6020   31.0110   77.5950 O.3    61  A61         0.0000
   1006  C2'       29.7050   31.5740   76.4380 C.3    61  A61         0.0000
   1007  O2'       28.8080   31.8690   75.3900 O.3    61  A61         0.0000
   1008  C1'       30.1870   32.8980   77.0290 C.3    61  A61         0.0000
   1009  N1        32.2290   35.6300   73.2280 N.ar   61  A61         0.0000
   1010  C2        30.9730   35.3000   73.5320 C.ar   61  A61         0.0000
   1011  N3        30.5160   34.5900   74.5580 N.ar   61  A61         0.0000
   1012  C4        31.5270   34.1870   75.3490 C.ar   61  A61         0.0000
   1013  C5        32.8670   34.4510   75.1770 C.ar   61  A61         0.0000
   1014  C6        33.2230   35.2160   74.0490 C.ar   61  A61         0.0000
   1015  N6        34.4790   35.5540   73.7470 N.pl3  61  A61         0.0000
   1016  N7        33.6140   33.8760   76.2000 N.ar   61  A61         0.0000
   1017  C8        32.7190   33.2790   76.9500 C.ar   61  A61         0.0000
   1018  N9        31.4370   33.4230   76.4890 N.ar   61  A61         0.0000
   1019  OP1       33.7570   29.7320   79.8040 O.3    61  A61        -0.5000
   1020  OP2       32.4670   27.9240   78.5170 O.co2  61  A61        -0.5000
   1021  P         26.7100   30.8390   78.9220 P.3    62  U62         0.0000
   1022  C5'       26.4050   33.3130   79.7420 C.3    62  U62         0.0000
   1023  O5'       27.0940   32.0710   79.8570 O.3    62  U62         0.0000
   1024  C4'       26.5200   34.1160   81.0220 C.3    62  U62         0.0000
   1025  O4'       25.7630   33.4880   82.0930 O.3    62  U62         0.0000
   1026  C3'       27.9630   34.1770   81.5140 C.3    62  U62         0.0000
   1027  O3'       28.2830   35.4910   81.9610 O.3    62  U62         0.0000
   1028  C2'       28.0840   33.0910   82.5870 C.3    62  U62         0.0000
   1029  O2'       28.9020   33.4800   83.6710 O.3    62  U62         0.0000
   1030  C1'       26.6420   33.0200   83.0870 C.3    62  U62         0.0000
   1031  N1        26.1060   31.8030   83.6940 N.ar   62  U62         0.0000
   1032  C2        26.0250   31.8000   85.0680 C.ar   62  U62         0.0000
   1033  O2        26.4180   32.7340   85.7490 O.2    62  U62         0.0000
   1034  N3        25.4630   30.6720   85.6130 N.ar   62  U62         0.0000
   1035  C4        24.9900   29.5710   84.9290 C.ar   62  U62         0.0000
   1036  O4        24.5000   28.6360   85.5570 O.2    62  U62         0.0000
   1037  C5        25.1260   29.6450   83.5070 C.ar   62  U62         0.0000
   1038  C6        25.6730   30.7320   82.9520 C.ar   62  U62         0.0000
   1039  OP1       27.0820   29.5740   79.6000 O.3    62  U62        -0.5000
   1040  OP2       25.3050   31.0500   78.4950 O.co2  62  U62        -0.5000
   1041  P         29.5700   36.2320   81.3990 P.3    63  C63         0.0000
   1042  C5'       31.4870   34.7290   80.4770 C.3    63  C63         0.0000
   1043  O5'       30.7270   35.1540   81.5790 O.3    63  C63         0.0000
   1044  C4'       32.9420   35.0760   80.6740 C.3    63  C63         0.0000
   1045  O4'       33.5640   34.8200   79.3950 O.3    63  C63         0.0000
   1046  C3'       33.2580   36.5390   81.0220 C.3    63  C63         0.0000
   1047  O3'       33.4980   36.6840   82.4290 O.3    63  C63         0.0000
   1048  C2'       34.5380   36.7960   80.2420 C.3    63  C63         0.0000
   1049  O2'       35.6880   36.3400   80.9280 O.3    63  C63         0.0000
   1050  C1'       34.3010   35.9480   78.9890 C.3    63  C63         0.0000
   1051  N1        33.5200   36.6210   77.9390 N.ar   63  C63         0.0000
   1052  C2        34.1970   37.3750   76.9800 C.ar   63  C63         0.0000
   1053  O2        35.4340   37.4580   77.0460 O.2    63  C63         0.0000
   1054  N3        33.4890   37.9930   76.0070 N.ar   63  C63         0.0000
   1055  C4        32.1580   37.8780   75.9740 C.ar   63  C63         0.0000
   1056  N4        31.5050   38.5060   74.9940 N.pl3  63  C63         0.0000
   1057  C5        31.4430   37.1140   76.9420 C.ar   63  C63         0.0000
   1058  C6        32.1560   36.5090   77.8960 C.ar   63  C63         0.0000
   1059  OP1       29.8990   37.3640   82.3010 O.3    63  C63         0.0000
   1060  OP2       29.3010   36.4800   79.9730 O.co2  63  C63        -1.0000
   1061  P         33.6160   38.1530   83.1040 P.3    64  U64         0.0000
   1062  C5'       36.0830   38.7870   82.4280 C.3    64  U64         0.0000
   1063  O5'       34.6860   38.9150   82.2020 O.3    64  U64         0.0000
   1064  C4'       36.8390   39.7440   81.5380 C.3    64  U64         0.0000
   1065  O4'       36.5620   39.4160   80.1520 O.3    64  U64         0.0000
   1066  C3'       36.4490   41.2090   81.6510 C.3    64  U64         0.0000
   1067  O3'       37.1460   41.8360   82.7190 O.3    64  U64         0.0000
   1068  C2'       36.9170   41.7570   80.3100 C.3    64  U64         0.0000
   1069  O2'       38.3110   41.9800   80.2770 O.3    64  U64         0.0000
   1070  C1'       36.5730   40.5990   79.3700 C.3    64  U64         0.0000
   1071  N1        35.2570   40.7470   78.7300 N.ar   64  U64         0.0000
   1072  C2        35.1950   41.4610   77.5440 C.ar   64  U64         0.0000
   1073  O2        36.1730   41.9750   77.0270 O.2    64  U64         0.0000
   1074  N3        33.9410   41.5470   76.9890 N.ar   64  U64         0.0000
   1075  C4        32.7700   41.0110   77.4930 C.ar   64  U64         0.0000
   1076  O4        31.7180   41.1580   76.8690 O.2    64  U64         0.0000
   1077  C5        32.9190   40.3030   78.7250 C.ar   64  U64         0.0000
   1078  C6        34.1250   40.1960   79.2850 C.ar   64  U64         0.0000
   1079  OP1       34.1800   37.9690   84.4650 O.2    64  U64         0.0000
   1080  OP2       32.3200   38.8770   82.9550 O.co2  64  U64        -1.0000
   1081  P         36.4200   42.9670   83.6030 P.3    65  G65         0.0000
   1082  C5'       37.6230   44.9260   82.3740 C.3    65  G65         0.0000
   1083  O5'       36.4080   44.2550   82.6690 O.3    65  G65         0.0000
   1084  C4'       37.4760   45.8190   81.1630 C.3    65  G65         0.0000
   1085  O4'       37.0660   45.0430   80.0030 O.3    65  G65         0.0000
   1086  C3'       36.4440   46.9350   81.2020 C.3    65  G65         0.0000
   1087  O3'       36.8730   48.0470   81.9850 O.3    65  G65         0.0000
   1088  C2'       36.3730   47.2880   79.7220 C.3    65  G65         0.0000
   1089  O2'       37.5240   47.9900   79.3080 O.3    65  G65         0.0000
   1090  C1'       36.3930   45.8960   79.0870 C.3    65  G65         0.0000
   1091  N1        32.2350   46.0300   76.1840 N.ar   65  G65         0.0000
   1092  C2        33.4250   46.6960   76.0330 C.ar   65  G65         0.0000
   1093  N2        33.5110   47.5090   74.9720 N.pl3  65  G65         0.0000
   1094  N3        34.4520   46.5740   76.8610 N.ar   65  G65         0.0000
   1095  C4        34.1850   45.7230   77.8710 C.ar   65  G65         0.0000
   1096  C5        33.0290   45.0130   78.1160 C.ar   65  G65         0.0000
   1097  C6        31.9380   45.1490   77.2170 C.ar   65  G65         0.0000
   1098  O6        30.8310   44.6000   77.2590 O.2    65  G65         0.0000
   1099  N7        33.1540   44.2500   79.2710 N.ar   65  G65         0.0000
   1100  C8        34.3630   44.5010   79.6930 C.ar   65  G65         0.0000
   1101  N9        35.0410   45.3890   78.8920 N.ar   65  G65         0.0000
   1102  OP1       37.3280   43.2430   84.7450 O.3    65  G65        -0.5000
   1103  OP2       35.0240   42.5490   83.8600 O.co2  65  G65        -0.5000
   1104  P         35.7860   49.0850   82.5600 P.3    66  G66         0.0000
   1105  C5'       35.8980   50.4000   80.2990 C.3    66  G66         0.0000
   1106  O5'       35.1110   49.7020   81.2530 O.3    66  G66         0.0000
   1107  C4'       35.0320   50.9310   79.1890 C.3    66  G66         0.0000
   1108  O4'       34.5410   49.8490   78.3540 O.3    66  G66         0.0000
   1109  C3'       33.7690   51.6460   79.6180 C.3    66  G66         0.0000
   1110  O3'       34.0590   52.9770   80.0030 O.3    66  G66         0.0000
   1111  C2'       32.9610   51.6190   78.3320 C.3    66  G66         0.0000
   1112  O2'       33.4370   52.5970   77.4270 O.3    66  G66         0.0000
   1113  C1'       33.2840   50.2170   77.8040 C.3    66  G66         0.0000
   1114  N1        28.8310   48.0350   76.6990 N.ar   66  G66         0.0000
   1115  C2        29.5070   49.0110   76.0220 C.ar   66  G66         0.0000
   1116  N2        28.9130   49.4710   74.9090 N.pl3  66  G66         0.0000
   1117  N3        30.6790   49.5030   76.4040 N.ar   66  G66         0.0000
   1118  C4        31.1210   48.9230   77.5400 C.ar   66  G66         0.0000
   1119  C5        30.5190   47.9370   78.2910 C.ar   66  G66         0.0000
   1120  C6        29.2610   47.4270   77.8690 C.ar   66  G66         0.0000
   1121  O6        28.5600   46.5640   78.4030 O.2    66  G66         0.0000
   1122  N7        31.3020   47.6040   79.3870 N.ar   66  G66         0.0000
   1123  C8        32.3420   48.3830   79.2880 C.ar   66  G66         0.0000
   1124  N9        32.2950   49.2130   78.1940 N.ar   66  G66         0.0000
   1125  OP1       36.5420   50.1780   83.2400 O.2    66  G66        -0.5000
   1126  OP2       34.7310   48.3530   83.3050 O.co2  66  G66        -0.5000
   1127  P         32.9530   53.8270   80.7940 P.3    67  A67         0.0000
   1128  C5'       30.4430   54.1830   80.0830 C.3    67  A67         0.0000
   1129  O5'       31.8010   53.9970   79.7060 O.3    67  A67         0.0000
   1130  C4'       29.5720   54.1830   78.8510 C.3    67  A67         0.0000
   1131  O4'       29.7520   52.9280   78.1350 O.3    67  A67         0.0000
   1132  C3'       28.0790   54.2640   79.1100 C.3    67  A67         0.0000
   1133  O3'       27.6650   55.6140   79.2180 O.3    67  A67         0.0000
   1134  C2'       27.5110   53.6110   77.8610 C.3    67  A67         0.0000
   1135  O2'       27.5570   54.4710   76.7480 O.3    67  A67         0.0000
   1136  C1'       28.5000   52.4630   77.6650 C.3    67  A67         0.0000
   1137  N1        25.2490   48.5250   78.2900 N.ar   67  A67         0.0000
   1138  C2        25.2980   49.5080   77.3880 C.ar   67  A67         0.0000
   1139  N3        26.1650   50.5060   77.2790 N.ar   67  A67         0.0000
   1140  C4        27.0820   50.4430   78.2570 C.ar   67  A67         0.0000
   1141  C5        27.1580   49.4970   79.2600 C.ar   67  A67         0.0000
   1142  C6        26.1860   48.4900   79.2590 C.ar   67  A67         0.0000
   1143  N6        26.1420   47.5050   80.1580 N.pl3  67  A67         0.0000
   1144  N7        28.2330   49.7540   80.0980 N.ar   67  A67         0.0000
   1145  C8        28.7810   50.8290   79.5870 C.ar   67  A67         0.0000
   1146  N9        28.1380   51.2970   78.4690 N.ar   67  A67         0.0000
   1147  OP1       33.5530   55.1700   81.0440 O.2    67  A67        -0.5000
   1148  OP2       32.4370   53.0200   81.9410 O.co2  67  A67        -0.5000
   1149  P         26.6050   56.0250   80.3450 P.3    68  U68         0.0000
   1150  C5'       24.6390   55.5980   78.6380 C.3    68  U68         0.0000
   1151  O5'       25.2460   55.3190   79.8960 O.3    68  U68         0.0000
   1152  C4'       23.5010   54.6300   78.3810 C.3    68  U68         0.0000
   1153  O4'       24.0210   53.2770   78.2960 O.3    68  U68         0.0000
   1154  C3'       22.4460   54.5380   79.4730 C.3    68  U68         0.0000
   1155  O3'       21.4830   55.5730   79.3280 O.3    68  U68         0.0000
   1156  C2'       21.8260   53.1700   79.2130 C.3    68  U68         0.0000
   1157  O2'       20.8430   53.1660   78.2030 O.3    68  U68         0.0000
   1158  C1'       23.0380   52.3620   78.7480 C.3    68  U68         0.0000
   1159  N1        23.5940   51.5500   79.8380 N.ar   68  U68         0.0000
   1160  C2        23.1120   50.2670   79.9600 C.ar   68  U68         0.0000
   1161  O2        22.2960   49.8020   79.1870 O.2    68  U68         0.0000
   1162  N3        23.6180   49.5530   81.0170 N.ar   68  U68         0.0000
   1163  C4        24.5460   49.9870   81.9400 C.ar   68  U68         0.0000
   1164  O4        24.9070   49.2240   82.8380 O.2    68  U68         0.0000
   1165  C5        25.0090   51.3290   81.7380 C.ar   68  U68         0.0000
   1166  C6        24.5310   52.0450   80.7160 C.ar   68  U68         0.0000
   1167  OP1       26.4380   57.5000   80.2620 O.2    68  U68        -0.5000
   1168  OP2       27.0360   55.3920   81.6300 O.co2  68  U68        -0.5000
   1169  P         20.8060   56.2180   80.6290 P.3    69  A69         0.0000
   1170  C5'       19.3540   55.1010   82.5210 C.3    69  A69         0.0000
   1171  O5'       19.8910   55.0430   81.1990 O.3    69  A69         0.0000
   1172  C4'       18.3210   54.0130   82.7120 C.3    69  A69         0.0000
   1173  O4'       17.1630   54.2810   81.8740 O.3    69  A69         0.0000
   1174  C3'       18.7930   52.6280   82.3070 C.3    69  A69         0.0000
   1175  O3'       19.4370   51.9970   83.4100 O.3    69  A69         0.0000
   1176  C2'       17.4940   51.9200   81.9290 C.3    69  A69         0.0000
   1177  O2'       16.8120   51.3750   83.0360 O.3    69  A69         0.0000
   1178  C1'       16.6640   53.0670   81.3440 C.3    69  A69         0.0000
   1179  N1        15.3520   50.8960   76.8460 N.ar   69  A69         0.0000
   1180  C2        15.2610   50.4610   78.1080 C.ar   69  A69         0.0000
   1181  N3        15.6460   51.0570   79.2360 N.ar   69  A69         0.0000
   1182  C4        16.1920   52.2550   78.9780 C.ar   69  A69         0.0000
   1183  C5        16.3590   52.8350   77.7350 C.ar   69  A69         0.0000
   1184  C6        15.9040   52.1070   76.6210 C.ar   69  A69         0.0000
   1185  N6        15.9860   52.5520   75.3630 N.pl3  69  A69         0.0000
   1186  N7        16.9660   54.0750   77.8500 N.ar   69  A69         0.0000
   1187  C8        17.1430   54.2210   79.1380 C.ar   69  A69         0.0000
   1188  N9        16.6780   53.1680   79.8840 N.ar   69  A69         0.0000
   1189  OP1       19.9380   57.3160   80.1430 O.3    69  A69         0.0000
   1190  OP2       21.8790   56.5200   81.6060 O.co2  69  A69        -1.0000
   1191  P         20.7180   51.0600   83.1580 P.3    70  A70         0.0000
   1192  C5'       19.5270   48.7320   83.0370 C.3    70  A70         0.0000
   1193  O5'       20.1370   49.8180   82.3520 O.3    70  A70         0.0000
   1194  C4'       19.0390   47.6990   82.0500 C.3    70  A70         0.0000
   1195  O4'       18.1210   48.3590   81.1330 O.3    70  A70         0.0000
   1196  C3'       20.0900   47.0970   81.1270 C.3    70  A70         0.0000
   1197  O3'       20.8120   46.0170   81.7310 O.3    70  A70         0.0000
   1198  C2'       19.2360   46.6350   79.9560 C.3    70  A70         0.0000
   1199  O2'       18.5200   45.4530   80.2680 O.3    70  A70         0.0000
   1200  C1'       18.2370   47.7870   79.8480 C.3    70  A70         0.0000
   1201  N1        17.8340   49.4580   75.0020 N.ar   70  A70         0.0000
   1202  C2        17.4660   48.3180   75.5920 C.ar   70  A70         0.0000
   1203  N3        17.6300   47.9300   76.8560 N.ar   70  A70         0.0000
   1204  C4        18.2660   48.8790   77.5650 C.ar   70  A70         0.0000
   1205  C5        18.7110   50.1030   77.0970 C.ar   70  A70         0.0000
   1206  C6        18.4680   50.3940   75.7420 C.ar   70  A70         0.0000
   1207  N6        18.8200   51.5390   75.1560 N.pl3  70  A70         0.0000
   1208  N7        19.3230   50.8250   78.1140 N.ar   70  A70         0.0000
   1209  C8        19.2260   50.0370   79.1610 C.ar   70  A70         0.0000
   1210  N9        18.5800   48.8510   78.9050 N.ar   70  A70         0.0000
   1211  OP1       21.1570   50.5600   84.4870 O.3    70  A70        -0.5000
   1212  OP2       21.6780   51.7900   82.2930 O.co2  70  A70        -0.5000
   1213  P         22.3530   45.7570   81.3150 P.3    71  U71         0.0000
   1214  C5'       21.5640   43.6510   79.9940 C.3    71  U71         0.0000
   1215  O5'       22.2540   44.8900   79.9840 O.3    71  U71         0.0000
   1216  C4'       21.1300   43.2700   78.6020 C.3    71  U71         0.0000
   1217  O4'       20.2080   44.2580   78.0770 O.3    71  U71         0.0000
   1218  C3'       22.2050   43.1810   77.5370 C.3    71  U71         0.0000
   1219  O3'       22.8900   41.9350   77.6520 O.3    71  U71         0.0000
   1220  C2'       21.3620   43.2540   76.2670 C.3    71  U71         0.0000
   1221  O2'       20.7040   42.0280   75.9960 O.3    71  U71         0.0000
   1222  C1'       20.3050   44.2880   76.6660 C.3    71  U71         0.0000
   1223  N1        20.6310   45.6590   76.2510 N.ar   71  U71         0.0000
   1224  C2        20.1880   46.0650   75.0100 C.ar   71  U71         0.0000
   1225  O2        19.5240   45.3480   74.2870 O.2    71  U71         0.0000
   1226  N3        20.5500   47.3430   74.6490 N.ar   71  U71         0.0000
   1227  C4        21.2970   48.2370   75.3960 C.ar   71  U71         0.0000
   1228  O4        21.5730   49.3470   74.9240 O.2    71  U71         0.0000
   1229  C5        21.7060   47.7430   76.6800 C.ar   71  U71         0.0000
   1230  C6        21.3630   46.5030   77.0550 C.ar   71  U71         0.0000
   1231  OP1       22.9640   44.9320   82.3840 O.3    71  U71        -0.5000
   1232  OP2       22.9890   47.0510   80.9440 O.co2  71  U71        -0.5000
   1233  P         24.4210   41.8210   77.1910 P.3    72  G72         0.0000
   1234  C5'       25.4510   41.8090   74.7680 C.3    72  G72         0.0000
   1235  O5'       24.3010   41.8230   75.6020 O.3    72  G72         0.0000
   1236  C4'       25.1690   41.0280   73.5020 C.3    72  G72         0.0000
   1237  O4'       24.9450   39.6170   73.8150 O.3    72  G72         0.0000
   1238  C3'       23.8960   41.3770   72.7490 C.3    72  G72         0.0000
   1239  O3'       23.9740   42.6120   72.0280 O.3    72  G72         0.0000
   1240  C2'       23.7520   40.1570   71.8410 C.3    72  G72         0.0000
   1241  O2'       24.6630   40.1700   70.7590 O.3    72  G72         0.0000
   1242  C1'       24.1500   39.0240   72.7910 C.3    72  G72         0.0000
   1243  N1        21.4840   37.8570   77.0270 N.ar   72  G72         0.0000
   1244  C2        22.6560   38.5660   76.9140 C.ar   72  G72         0.0000
   1245  N2        23.1750   39.0220   78.0630 N.pl3  72  G72         0.0000
   1246  N3        23.2740   38.8100   75.7610 N.ar   72  G72         0.0000
   1247  C4        22.6070   38.2810   74.7070 C.ar   72  G72         0.0000
   1248  C5        21.4260   37.5550   74.7140 C.ar   72  G72         0.0000
   1249  C6        20.7810   37.3000   75.9690 C.ar   72  G72         0.0000
   1250  O6        19.7350   36.6780   76.1900 O.2    72  G72         0.0000
   1251  N7        21.0600   37.1920   73.4210 N.ar   72  G72         0.0000
   1252  C8        22.0020   37.6920   72.6620 C.ar   72  G72         0.0000
   1253  N9        22.9750   38.3670   73.3710 N.ar   72  G72         0.0000
   1254  OP1       24.9030   40.4970   77.6350 O.3    72  G72        -0.5000
   1255  OP2       25.1440   43.0450   77.6260 O.co2  72  G72        -0.5000
   1256  P         22.6140   43.3910   71.6480 P.3    73  C73         0.0000
   1257  C5'       22.2720   45.9070   71.0060 C.3    73  C73         0.0000
   1258  O5'       22.9470   44.9380   71.8090 O.3    73  C73         0.0000
   1259  C4'       23.0330   47.2050   71.0040 C.3    73  C73         0.0000
   1260  O4'       22.9840   47.7840   72.3350 O.3    73  C73         0.0000
   1261  C3'       24.5120   47.0690   70.6830 C.3    73  C73         0.0000
   1262  O3'       24.7170   47.1100   69.2740 O.3    73  C73         0.0000
   1263  C2'       25.1130   48.2730   71.3990 C.3    73  C73         0.0000
   1264  O2'       24.9930   49.4620   70.6530 O.3    73  C73         0.0000
   1265  C1'       24.2420   48.3520   72.6580 C.3    73  C73         0.0000
   1266  N1        24.7870   47.5920   73.7900 N.ar   73  C73         0.0000
   1267  C2        25.8590   48.1170   74.4990 C.ar   73  C73         0.0000
   1268  O2        26.3120   49.2210   74.1630 O.2    73  C73         0.0000
   1269  N3        26.3790   47.4120   75.5320 N.ar   73  C73         0.0000
   1270  C4        25.8650   46.2250   75.8570 C.ar   73  C73         0.0000
   1271  N4        26.4230   45.5560   76.8670 N.pl3  73  C73         0.0000
   1272  C5        24.7600   45.6690   75.1540 C.ar   73  C73         0.0000
   1273  C6        24.2560   46.3800   74.1390 C.ar   73  C73         0.0000
   1274  OP1       21.6260   43.0270   72.6840 O.3    73  C73         0.0000
   1275  OP2       22.3050   43.1470   70.2200 O.co2  73  C73        -1.0000
   1276  P         26.0540   46.4730   68.6400 P.3    74  C74         0.0000
   1277  C5'       27.3940   48.7250   68.6750 C.3    74  C74         0.0000
   1278  O5'       27.2100   47.4150   69.1950 O.3    74  C74         0.0000
   1279  C4'       28.6470   49.3360   69.2470 C.3    74  C74         0.0000
   1280  O4'       28.4660   49.5070   70.6760 O.3    74  C74         0.0000
   1281  C3'       29.9120   48.4940   69.1260 C.3    74  C74         0.0000
   1282  O3'       30.5570   48.6870   67.8670 O.3    74  C74         0.0000
   1283  C2'       30.7530   49.0440   70.2650 C.3    74  C74         0.0000
   1284  O2'       31.3200   50.2950   69.9280 O.3    74  C74         0.0000
   1285  C1'       29.6880   49.2550   71.3440 C.3    74  C74         0.0000
   1286  N1        29.4910   48.0990   72.2350 N.ar   74  C74         0.0000
   1287  C2        30.4600   47.8180   73.2090 C.ar   74  C74         0.0000
   1288  O2        31.4750   48.5200   73.2660 O.2    74  C74         0.0000
   1289  N3        30.2620   46.7850   74.0630 N.ar   74  C74         0.0000
   1290  C4        29.1590   46.0400   73.9620 C.ar   74  C74         0.0000
   1291  N4        28.9950   45.0440   74.8380 N.pl3  74  C74         0.0000
   1292  C5        28.1700   46.2870   72.9620 C.ar   74  C74         0.0000
   1293  C6        28.3730   47.3190   72.1310 C.ar   74  C74         0.0000
   1294  OP1       26.0270   46.6530   67.1630 O.2    74  C74        -0.5000
   1295  OP2       26.2340   45.1130   69.2040 O.co2  74  C74        -0.5000
   1296  P         31.4270   47.4960   67.2230 P.3    75  A75         0.0000
   1297  C5'       33.7150   48.3460   68.2220 C.3    75  A75         0.0000
   1298  O5'       32.6820   47.3630   68.1960 O.3    75  A75         0.0000
   1299  C4'       34.7500   47.9780   69.2630 C.3    75  A75         0.0000
   1300  O4'       34.1380   48.0160   70.5840 O.3    75  A75         0.0000
   1301  C3'       35.3170   46.5670   69.1710 C.3    75  A75         0.0000
   1302  O3'       36.3760   46.4760   68.2330 O.3    75  A75         0.0000
   1303  C2'       35.8170   46.3300   70.5900 C.3    75  A75         0.0000
   1304  O2'       37.0730   46.9230   70.8590 O.3    75  A75         0.0000
   1305  C1'       34.7190   47.0110   71.4080 C.3    75  A75         0.0000
   1306  N1        33.4000   43.2260   74.6090 N.ar   75  A75         0.0000
   1307  C2        34.4940   43.9880   74.5210 C.ar   75  A75         0.0000
   1308  N3        34.7710   44.9660   73.6630 N.ar   75  A75         0.0000
   1309  C4        33.7540   45.1430   72.8010 C.ar   75  A75         0.0000
   1310  C5        32.5680   44.4380   72.7660 C.ar   75  A75         0.0000
   1311  C6        32.3970   43.4300   73.7280 C.ar   75  A75         0.0000
   1312  N6        31.3050   42.6690   73.8170 N.pl3  75  A75         0.0000
   1313  N7        31.7550   44.9000   71.7420 N.ar   75  A75         0.0000
   1314  C8        32.4580   45.8560   71.1890 C.ar   75  A75         0.0000
   1315  N9        33.6800   46.0540   71.7770 N.ar   75  A75         0.0000
   1316  OP1       31.8950   47.9770   65.9020 O.2    75  A75        -0.5000
   1317  OP2       30.6630   46.2260   67.3100 O.co2  75  A75        -0.5000
   1318  P         36.7450   45.0520   67.5900 P.3    76  G76         0.0000
   1319  C5'       38.6830   44.9520   69.3420 C.3    76  G76         0.0000
   1320  O5'       37.5800   44.3140   68.7220 O.3    76  G76         0.0000
   1321  C4'       39.0840   44.2000   70.5810 C.3    76  G76         0.0000
   1322  O4'       38.0070   44.2500   71.5480 O.3    76  G76         0.0000
   1323  C3'       39.3420   42.7140   70.3990 C.3    76  G76         0.0000
   1324  O3'       40.6690   42.4920   69.9400 O.3    76  G76         0.0000
   1325  C2'       39.1930   42.2100   71.8240 C.3    76  G76         0.0000
   1326  O2'       40.3410   42.5070   72.5880 O.3    76  G76         0.0000
   1327  C1'       38.0210   43.0600   72.3240 C.3    76  G76         0.0000
   1328  N1        34.8350   39.6150   74.2690 N.ar   76  G76         0.0000
   1329  C2        36.0740   39.9990   74.7070 C.ar   76  G76         0.0000
   1330  N2        36.5270   39.3910   75.8090 N.pl3  76  G76         0.0000
   1331  N3        36.8170   40.9120   74.1100 N.ar   76  G76         0.0000
   1332  C4        36.2140   41.4220   73.0180 C.ar   76  G76         0.0000
   1333  C5        34.9810   41.1070   72.4940 C.ar   76  G76         0.0000
   1334  C6        34.1910   40.1250   73.1450 C.ar   76  G76         0.0000
   1335  O6        33.0680   39.7080   72.8350 O.2    76  G76         0.0000
   1336  N7        34.7250   41.8530   71.3550 N.ar   76  G76         0.0000
   1337  C8        35.7870   42.5980   71.2100 C.ar   76  G76         0.0000
   1338  N9        36.7290   42.3900   72.1870 N.ar   76  G76         0.0000
   1339  OP1       37.6320   45.3250   66.4300 O.2    76  G76        -0.5000
   1340  OP2       35.5030   44.2660   67.3980 O.co2  76  G76        -0.5000
   1341  P         40.9690   41.3040   68.9040 P.3    77  C77         0.0000
   1342  C5'       41.1910   39.5010   70.8000 C.3    77  C77         0.0000
   1343  O5'       40.4910   39.9900   69.6610 O.3    77  C77         0.0000
   1344  C4'       40.4580   38.3180   71.3840 C.3    77  C77         0.0000
   1345  O4'       39.1680   38.7560   71.8850 O.3    77  C77         0.0000
   1346  C3'       40.1290   37.2150   70.3930 C.3    77  C77         0.0000
   1347  O3'       41.2310   36.3230   70.2980 O.3    77  C77         0.0000
   1348  C2'       38.9090   36.5570   71.0310 C.3    77  C77         0.0000
   1349  O2'       39.2440   35.6670   72.0720 O.3    77  C77         0.0000
   1350  C1'       38.1930   37.7590   71.6450 C.3    77  C77         0.0000
   1351  N1        37.1490   38.3400   70.7900 N.ar   77  C77         0.0000
   1352  C2        35.8440   37.8460   70.8890 C.ar   77  C77         0.0000
   1353  O2        35.6120   36.9250   71.6830 O.2    77  C77         0.0000
   1354  N3        34.8720   38.3850   70.1200 N.ar   77  C77         0.0000
   1355  C4        35.1680   39.3750   69.2760 C.ar   77  C77         0.0000
   1356  N4        34.1830   39.8850   68.5410 N.pl3  77  C77         0.0000
   1357  C5        36.4920   39.8900   69.1490 C.ar   77  C77         0.0000
   1358  C6        37.4410   39.3480   69.9170 C.ar   77  C77         0.0000
   1359  OP1       42.4440   41.2240   68.7490 O.3    77  C77        -0.5000
   1360  OP2       40.1170   41.4830   67.7050 O.co2  77  C77        -0.5000
   1361  P         41.3480   35.3190   69.0500 P.3    78  G78         0.0000
   1362  C5'       41.4180   35.7580   66.4720 C.3    78  G78         0.0000
   1363  O5'       41.0780   36.2310   67.7710 O.3    78  G78         0.0000
   1364  C4'       40.8270   36.6440   65.3950 C.3    78  G78         0.0000
   1365  O4'       39.4260   36.3150   65.1850 O.3    78  G78         0.0000
   1366  C3'       40.8430   38.1180   65.7510 C.3    78  G78         0.0000
   1367  O3'       41.6920   38.9830   65.0010 O.3    78  G78         0.0000
   1368  C2'       39.4430   38.4770   66.2490 C.3    78  G78         0.0000
   1369  O2'       38.9660   39.7080   65.7580 O.3    78  G78         0.0000
   1370  C1'       38.5880   37.3650   65.6390 C.3    78  G78         0.0000
   1371  N1        33.6240   37.0650   66.6840 N.ar   78  G78         0.0000
   1372  C2        34.2600   37.7260   65.6640 C.ar   78  G78         0.0000
   1373  N2        33.4710   38.4040   64.8150 N.pl3  78  G78         0.0000
   1374  N3        35.5720   37.7230   65.4880 N.ar   78  G78         0.0000
   1375  C4        36.2080   36.9930   66.4290 C.ar   78  G78         0.0000
   1376  C5        35.6640   36.2920   67.4870 C.ar   78  G78         0.0000
   1377  C6        34.2530   36.3090   67.6650 C.ar   78  G78         0.0000
   1378  O6        33.5800   35.7600   68.5450 O.3    78  G78         0.0000
   1379  N7        36.6590   35.6670   68.2300 N.ar   78  G78         0.0000
   1380  C8        37.7710   35.9960   67.6230 C.ar   78  G78         0.0000
   1381  N9        37.5700   36.8050   66.5260 N.ar   78  G78         0.0000
   1382  OP1       40.2400   34.3370   69.1600 O.3    78  G78        -0.5000
   1383  OP2       42.7480   34.8280   68.9600 O.co2  78  G78        -0.5000
   1384  P         41.2590   39.4360   63.5240 P.3    79  U79         0.0000
   1385  C5'       40.7070   37.8870   61.4630 C.3    79  U79         0.0000
   1386  O5'       41.4750   38.1170   62.6490 O.3    79  U79         0.0000
   1387  C4'       41.3560   36.8230   60.5930 C.3    79  U79         0.0000
   1388  O4'       42.6890   37.2580   60.1920 O.3    79  U79         0.0000
   1389  C3'       41.5730   35.4460   61.2130 C.3    79  U79         0.0000
   1390  O3'       40.3800   34.6590   61.1330 O.3    79  U79         0.0000
   1391  C2'       42.7040   34.8920   60.3520 C.3    79  U79         0.0000
   1392  O2'       42.2620   34.4210   59.0900 O.3    79  U79         0.0000
   1393  C1'       43.5630   36.1430   60.1480 C.3    79  U79         0.0000
   1394  OP1       42.1890   40.4930   63.0620 O.2    79  U79        -0.5000
   1395  OP2       39.8050   39.7140   63.5600 O.co2  79  U79        -0.5000
   1396  P         40.4390   33.0640   61.3800 P.3    80  A80         0.0000
   1397  C5'       41.5210   33.3260   63.7480 C.3    80  A80         0.0000
   1398  O5'       41.6310   32.8450   62.4170 O.3    80  A80         0.0000
   1399  C4'       41.6910   32.2000   64.7400 C.3    80  A80         0.0000
   1400  O4'       41.1880   32.6790   66.0190 O.3    80  A80         0.0000
   1401  C3'       40.8910   30.9380   64.4220 C.3    80  A80         0.0000
   1402  O3'       41.7310   29.9910   63.7530 O.3    80  A80         0.0000
   1403  C2'       40.4740   30.4500   65.8060 C.3    80  A80         0.0000
   1404  O2'       41.5020   29.7420   66.4690 O.3    80  A80         0.0000
   1405  C1'       40.2200   31.7790   66.5230 C.3    80  A80         0.0000
   1406  N1        35.1870   31.8070   67.6990 N.ar   80  A80         0.0000
   1407  C2        36.2140   31.0850   68.1720 C.ar   80  A80         0.0000
   1408  N3        37.5010   31.1220   67.8290 N.ar   80  A80         0.0000
   1409  C4        37.7060   32.0390   66.8690 C.ar   80  A80         0.0000
   1410  C5        36.7510   32.8570   66.2840 C.ar   80  A80         0.0000
   1411  C6        35.4310   32.7220   66.7350 C.ar   80  A80         0.0000
   1412  N6        34.4130   33.4450   66.2650 N.pl3  80  A80         0.0000
   1413  N7        37.3260   33.6810   65.3290 N.ar   80  A80         0.0000
   1414  C8        38.5940   33.3520   65.3550 C.ar   80  A80         0.0000
   1415  N9        38.8970   32.3620   66.2630 N.ar   80  A80         0.0000
   1416  OP1       40.7950   32.4160   60.0880 O.2    80  A80        -0.5000
   1417  OP2       39.1860   32.6680   62.0760 O.co2  80  A80        -0.5000
   1418  P         41.0880   28.8430   62.8170 P.3    81  G81         0.0000
   1419  C5'       40.5970   27.0610   64.6680 C.3    81  G81         0.0000
   1420  O5'       40.1040   28.0510   63.7850 O.3    81  G81         0.0000
   1421  C4'       39.4530   26.2830   65.2580 C.3    81  G81         0.0000
   1422  O4'       38.6960   27.1370   66.1590 O.3    81  G81         0.0000
   1423  C3'       38.4240   25.8110   64.2500 C.3    81  G81         0.0000
   1424  O3'       38.8370   24.6180   63.6030 O.3    81  G81         0.0000
   1425  C2'       37.1960   25.6250   65.1310 C.3    81  G81         0.0000
   1426  O2'       37.2340   24.4440   65.9100 O.3    81  G81         0.0000
   1427  C1'       37.3080   26.8560   66.0340 C.3    81  G81         0.0000
   1428  N1        32.9740   29.4500   65.3850 N.ar   81  G81         0.0000
   1429  C2        33.2020   28.3100   66.1180 C.ar   81  G81         0.0000
   1430  N2        32.1370   27.7880   66.7410 N.pl3  81  G81         0.0000
   1431  N3        34.3870   27.7260   66.2300 N.ar   81  G81         0.0000
   1432  C4        35.3400   28.3850   65.5350 C.ar   81  G81         0.0000
   1433  C5        35.2150   29.5300   64.7720 C.ar   81  G81         0.0000
   1434  C6        33.9420   30.1440   64.6610 C.ar   81  G81         0.0000
   1435  O6        33.6300   31.1600   64.0270 O.2    81  G81         0.0000
   1436  N7        36.4350   29.8910   64.2180 N.ar   81  G81         0.0000
   1437  C8        37.2650   28.9780   64.6410 C.ar   81  G81         0.0000
   1438  N9        36.6660   28.0260   65.4350 N.ar   81  G81         0.0000
   1439  OP1       42.1950   27.9230   62.4440 O.3    81  G81        -0.5000
   1440  OP2       40.2740   29.4840   61.7460 O.co2  81  G81        -0.5000
   1441  P         38.0760   24.1360   62.2730 P.3    82  G82         0.0000
   1442  C5'       35.5250   23.7270   61.9310 C.3    82  G82         0.0000
   1443  O5'       36.6330   23.7330   62.8060 O.3    82  G82         0.0000
   1444  C4'       34.2480   23.6420   62.7220 C.3    82  G82         0.0000
   1445  O4'       34.2090   24.7170   63.6980 O.3    82  G82         0.0000
   1446  C3'       32.9990   23.8250   61.8830 C.3    82  G82         0.0000
   1447  O3'       32.6140   22.5870   61.2910 O.3    82  G82         0.0000
   1448  C2'       32.0100   24.3680   62.9080 C.3    82  G82         0.0000
   1449  O2'       31.4560   23.3790   63.7450 O.3    82  G82         0.0000
   1450  C1'       32.9150   25.2890   63.7270 C.3    82  G82         0.0000
   1451  N1        30.3730   29.4270   62.2690 N.ar   82  G82         0.0000
   1452  C2        29.9130   28.3040   62.9070 C.ar   82  G82         0.0000
   1453  N2        28.5970   28.2780   63.1740 N.pl3  82  G82         0.0000
   1454  N3        30.6850   27.2830   63.2580 N.ar   82  G82         0.0000
   1455  C4        31.9740   27.4850   62.9140 C.ar   82  G82         0.0000
   1456  C5        32.5350   28.5730   62.2780 C.ar   82  G82         0.0000
   1457  C6        31.6930   29.6550   61.9030 C.ar   82  G82         0.0000
   1458  O6        31.9950   30.7000   61.3220 O.2    82  G82         0.0000
   1459  N7        33.9030   28.3940   62.1110 N.ar   82  G82         0.0000
   1460  C8        34.1390   27.2210   62.6300 C.ar   82  G82         0.0000
   1461  N9        33.0090   26.6120   63.1250 N.ar   82  G82         0.0000
   1462  OP1       38.7330   22.8900   61.7880 O.3    82  G82        -0.5000
   1463  OP2       37.9270   25.2960   61.3560 O.co2  82  G82        -0.5000
   1464  P         32.3490   22.5090   59.7060 P.3    83  G83         0.0000
   1465  C5'       29.8950   23.3190   60.1750 C.3    83  G83         0.0000
   1466  O5'       31.1320   23.5100   59.4890 O.3    83  G83         0.0000
   1467  C4'       28.9790   24.4740   59.8840 C.3    83  G83         0.0000
   1468  O4'       29.5520   25.6810   60.4440 O.3    83  G83         0.0000
   1469  C3'       28.8230   24.7640   58.4010 C.3    83  G83         0.0000
   1470  O3'       27.7490   23.9920   57.8700 O.3    83  G83         0.0000
   1471  C2'       28.5040   26.2520   58.3890 C.3    83  G83         0.0000
   1472  O2'       27.1320   26.5160   58.6120 O.3    83  G83         0.0000
   1473  C1'       29.3460   26.7630   59.5620 C.3    83  G83         0.0000
   1474  N1        32.1070   30.7380   57.9770 N.ar   83  G83         0.0000
   1475  C2        30.7680   30.6820   58.2720 C.ar   83  G83         0.0000
   1476  N2        30.0820   31.8260   58.1230 N.pl3  83  G83         0.0000
   1477  N3        30.1480   29.5830   58.6840 N.ar   83  G83         0.0000
   1478  C4        30.9910   28.5300   58.7740 C.ar   83  G83         0.0000
   1479  C5        32.3410   28.4870   58.5040 C.ar   83  G83         0.0000
   1480  C6        32.9920   29.6650   58.0680 C.ar   83  G83         0.0000
   1481  O6        34.1840   29.8180   57.7800 O.2    83  G83         0.0000
   1482  N7        32.8480   27.2150   58.7240 N.ar   83  G83         0.0000
   1483  C8        31.8170   26.5190   59.1170 C.ar   83  G83         0.0000
   1484  N9        30.6600   27.2520   59.1680 N.ar   83  G83         0.0000
   1485  OP1       31.8490   21.1340   59.4260 O.3    83  G83        -0.5000
   1486  OP2       33.5120   23.0380   58.9390 O.co2  83  G83        -0.5000
   1487  P         28.0290   22.9360   56.6950 P.3    84  A84         0.0000
   1488  C5'       25.6670   22.8540   55.5320 C.3    84  A84         0.0000
   1489  O5'       26.9980   23.3660   55.5630 O.3    84  A84         0.0000
   1490  C4'       24.8280   23.6880   54.5950 C.3    84  A84         0.0000
   1491  O4'       24.6430   24.9960   55.1880 O.3    84  A84         0.0000
   1492  C3'       25.4710   23.9720   53.2430 C.3    84  A84         0.0000
   1493  O3'       25.1940   22.9260   52.3150 O.3    84  A84         0.0000
   1494  C2'       24.8120   25.2850   52.8310 C.3    84  A84         0.0000
   1495  O2'       23.5260   25.1290   52.2610 O.3    84  A84         0.0000
   1496  C1'       24.6650   25.9890   54.1790 C.3    84  A84         0.0000
   1497  N1        25.7940   30.8930   55.1230 N.ar   84  A84         0.0000
   1498  C2        24.6510   30.2750   54.8150 C.ar   84  A84         0.0000
   1499  N3        24.4320   28.9930   54.5680 N.ar   84  A84         0.0000
   1500  C4        25.5720   28.2910   54.6630 C.ar   84  A84         0.0000
   1501  C5        26.8230   28.7840   54.9670 C.ar   84  A84         0.0000
   1502  C6        26.9210   30.1620   55.2080 C.ar   84  A84         0.0000
   1503  N6        28.0590   30.7850   55.5160 N.pl3  84  A84         0.0000
   1504  N7        27.7650   27.7650   54.9670 N.ar   84  A84         0.0000
   1505  C8        27.0680   26.6920   54.6760 C.ar   84  A84         0.0000
   1506  N9        25.7330   26.9380   54.4880 N.ar   84  A84         0.0000
   1507  OP1       27.6590   21.5740   57.1570 O.3    84  A84        -0.5000
   1508  OP2       29.4090   23.1950   56.2000 O.co2  84  A84        -0.5000
   1509  P         26.2990   22.5100   51.2210 P.3    85  A85         0.0000
   1510  C5'       27.4720   23.8310   49.2790 C.3    85  A85         0.0000
   1511  O5'       26.5720   23.8400   50.3850 O.3    85  A85         0.0000
   1512  C4'       26.7760   23.2620   48.0710 C.3    85  A85         0.0000
   1513  O4'       25.6850   24.1410   47.6920 O.3    85  A85         0.0000
   1514  C3'       27.6900   23.1780   46.8500 C.3    85  A85         0.0000
   1515  O3'       27.5890   21.8790   46.2590 O.3    85  A85         0.0000
   1516  C2'       27.3890   24.4230   46.0100 C.3    85  A85         0.0000
   1517  O2'       27.3420   24.1870   44.6240 O.3    85  A85         0.0000
   1518  C1'       25.9600   24.7330   46.4440 C.3    85  A85         0.0000
   1519  N1        21.8150   27.4480   45.3840 N.ar   85  A85         0.0000
   1520  C2        22.0720   26.1280   45.4090 C.ar   85  A85         0.0000
   1521  N3        23.2010   25.5000   45.7250 N.ar   85  A85         0.0000
   1522  C4        24.1630   26.3860   46.0480 C.ar   85  A85         0.0000
   1523  C5        24.0590   27.7610   46.0780 C.ar   85  A85         0.0000
   1524  C6        22.8060   28.3110   45.7220 C.ar   85  A85         0.0000
   1525  N6        22.5450   29.6220   45.7000 N.pl3  85  A85         0.0000
   1526  N7        25.2620   28.3310   46.4690 N.ar   85  A85         0.0000
   1527  C8        26.0530   27.3020   46.6590 C.ar   85  A85         0.0000
   1528  N9        25.4530   26.0980   46.4090 N.ar   85  A85         0.0000
   1529  OP1       25.6660   21.5190   50.3060 O.2    85  A85        -0.5000
   1530  OP2       27.5540   22.1570   51.9420 O.co2  85  A85        -0.5000
   1531  P         28.5230   21.4580   45.0280 P.3    86  G86         0.0000
   1532  C5'       27.4330   22.0570   42.7070 C.3    86  G86         0.0000
   1533  O5'       27.4650   21.2190   43.8570 O.3    86  G86         0.0000
   1534  C4'       26.0480   22.0640   42.1000 C.3    86  G86         0.0000
   1535  O4'       25.1270   22.8000   42.9530 O.3    86  G86         0.0000
   1536  C3'       25.9500   22.8000   40.7800 C.3    86  G86         0.0000
   1537  O3'       26.3860   21.9750   39.7160 O.3    86  G86         0.0000
   1538  C2'       24.4660   23.1250   40.7000 C.3    86  G86         0.0000
   1539  O2'       23.6580   22.0310   40.3160 O.3    86  G86         0.0000
   1540  C1'       24.1770   23.4980   42.1520 C.3    86  G86         0.0000
   1541  N1        22.0290   28.0980   41.7900 N.ar   86  G86         0.0000
   1542  C2        21.5470   26.8790   41.3870 C.ar   86  G86         0.0000
   1543  N2        20.3340   26.8900   40.8200 N.pl3  86  G86         0.0000
   1544  N3        22.2060   25.7370   41.5280 N.ar   86  G86         0.0000
   1545  C4        23.4100   25.9170   42.1110 C.ar   86  G86         0.0000
   1546  C5        23.9870   27.0920   42.5440 C.ar   86  G86         0.0000
   1547  C6        23.2680   28.3120   42.3880 C.ar   86  G86         0.0000
   1548  O6        23.6120   29.4670   42.7080 O.2    86  G86         0.0000
   1549  N7        25.2400   26.8530   43.0850 N.ar   86  G86         0.0000
   1550  C8        25.4010   25.5620   42.9730 C.ar   86  G86         0.0000
   1551  N9        24.3260   24.9320   42.3990 N.ar   86  G86         0.0000
   1552  OP1       29.0930   20.1330   45.3850 O.3    86  G86        -0.5000
   1553  OP2       29.4440   22.5840   44.6870 O.co2  86  G86        -0.5000
   1554  P         26.9370   22.6570   38.3810 P.3    87  U87         0.0000
   1555  C5'       24.5780   22.4640   37.2520 C.3    87  U87         0.0000
   1556  O5'       25.6200   23.2990   37.7560 O.3    87  U87         0.0000
   1557  C4'       23.4710   23.3000   36.6510 C.3    87  U87         0.0000
   1558  O4'       22.7620   24.0030   37.7070 O.3    87  U87         0.0000
   1559  C3'       23.8890   24.4140   35.7000 C.3    87  U87         0.0000
   1560  O3'       24.1440   23.9600   34.3810 O.3    87  U87         0.0000
   1561  C2'       22.6660   25.3090   35.7350 C.3    87  U87         0.0000
   1562  O2'       21.6120   24.7680   34.9680 O.3    87  U87         0.0000
   1563  C1'       22.3260   25.2680   37.2260 C.3    87  U87         0.0000
   1564  N1        23.0590   26.3150   37.9520 N.ar   87  U87         0.0000
   1565  C2        22.4530   27.5530   38.0780 C.ar   87  U87         0.0000
   1566  O2        21.3400   27.7950   37.6390 O.2    87  U87         0.0000
   1567  N3        23.1990   28.5000   38.7330 N.ar   87  U87         0.0000
   1568  C4        24.4590   28.3430   39.2590 C.ar   87  U87         0.0000
   1569  O4        25.0070   29.3000   39.8020 O.2    87  U87         0.0000
   1570  C5        25.0160   27.0310   39.0980 C.ar   87  U87         0.0000
   1571  C6        24.3120   26.0850   38.4700 C.ar   87  U87         0.0000
   1572  OP1       27.4330   21.5880   37.4730 O.2    87  U87        -0.5000
   1573  OP2       27.8550   23.7470   38.8010 O.co2  87  U87        -0.5000
   1574  P         25.0990   24.8240   33.4220 P.3    88  C88         0.0000
   1575  C5'       22.9210   25.9450   32.4440 C.3    88  C88         0.0000
   1576  O5'       24.2090   26.0990   33.0450 O.3    88  C88         0.0000
   1577  C4'       22.1300   27.2410   32.5190 C.3    88  C88         0.0000
   1578  O4'       21.9310   27.6130   33.9110 O.3    88  C88         0.0000
   1579  C3'       22.7720   28.4750   31.8970 C.3    88  C88         0.0000
   1580  O3'       22.5210   28.5460   30.5000 O.3    88  C88         0.0000
   1581  C2'       22.0580   29.6030   32.6260 C.3    88  C88         0.0000
   1582  O2'       20.7590   29.8240   32.1210 O.3    88  C88         0.0000
   1583  C1'       21.9580   29.0270   34.0380 C.3    88  C88         0.0000
   1584  N1        23.1220   29.4000   34.8530 N.ar   88  C88         0.0000
   1585  C2        23.1700   30.6830   35.4020 C.ar   88  C88         0.0000
   1586  O2        22.2230   31.4570   35.1990 O.2    88  C88         0.0000
   1587  N3        24.2450   31.0490   36.1380 N.ar   88  C88         0.0000
   1588  C4        25.2390   30.1850   36.3350 C.ar   88  C88         0.0000
   1589  N4        26.2780   30.5860   37.0630 N.pl3  88  C88         0.0000
   1590  C5        25.2120   28.8690   35.7910 C.ar   88  C88         0.0000
   1591  C6        24.1440   28.5210   35.0630 C.ar   88  C88         0.0000
   1592  OP1       25.3550   24.0210   32.1960 O.2    88  C88        -0.5000
   1593  OP2       26.2520   25.2830   34.2450 O.co2  88  C88        -0.5000
   1594  P         23.5180   29.3780   29.5520 P.3    89  G89         0.0000
   1595  C5'       21.9930   31.5230   29.4500 C.3    89  G89         0.0000
   1596  O5'       23.2070   30.9080   29.8810 O.3    89  G89         0.0000
   1597  C4'       21.8770   32.9180   30.0280 C.3    89  G89         0.0000
   1598  O4'       22.0300   32.8420   31.4740 O.3    89  G89         0.0000
   1599  C3'       22.9120   33.9560   29.5960 C.3    89  G89         0.0000
   1600  O3'       22.4870   34.5840   28.3860 O.3    89  G89         0.0000
   1601  C2'       22.8430   34.9440   30.7530 C.3    89  G89         0.0000
   1602  O2'       21.6520   35.6880   30.6940 O.3    89  G89         0.0000
   1603  C1'       22.6820   34.0070   31.9460 C.3    89  G89         0.0000
   1604  N1        26.4680   35.4610   35.0060 N.ar   89  G89         0.0000
   1605  C2        25.4120   36.1880   34.5140 C.ar   89  G89         0.0000
   1606  N2        25.3490   37.4620   34.9050 N.pl3  89  G89         0.0000
   1607  N3        24.4910   35.7030   33.7000 N.ar   89  G89         0.0000
   1608  C4        24.7140   34.4040   33.4030 C.ar   89  G89         0.0000
   1609  C5        25.7400   33.5820   33.8350 C.ar   89  G89         0.0000
   1610  C6        26.7230   34.1240   34.7200 C.ar   89  G89         0.0000
   1611  O6        27.7060   33.5650   35.2230 O.2    89  G89         0.0000
   1612  N7        25.6100   32.3050   33.2960 N.ar   89  G89         0.0000
   1613  C8        24.5280   32.3680   32.5660 C.ar   89  G89         0.0000
   1614  N9        23.9260   33.6100   32.5980 N.ar   89  G89         0.0000
   1615  OP1       23.1200   29.1050   28.1440 O.2    89  G89        -0.5000
   1616  OP2       24.9120   29.1010   29.9940 O.co2  89  G89        -0.5000
   1617  P         23.5600   35.3170   27.4310 P.3    90  C90         0.0000
   1618  C5'       23.2240   37.6610   28.5720 C.3    90  C90         0.0000
   1619  O5'       24.0800   36.5660   28.2730 O.3    90  C90         0.0000
   1620  C4'       23.9430   38.6520   29.4550 C.3    90  C90         0.0000
   1621  O4'       24.3030   38.0230   30.7080 O.3    90  C90         0.0000
   1622  C3'       25.2590   39.1670   28.9040 C.3    90  C90         0.0000
   1623  O3'       24.9970   40.2840   28.0730 O.3    90  C90         0.0000
   1624  C2'       25.9840   39.6110   30.1650 C.3    90  C90         0.0000
   1625  O2'       25.5190   40.8660   30.6250 O.3    90  C90         0.0000
   1626  C1'       25.5400   38.5420   31.1600 C.3    90  C90         0.0000
   1627  N1        26.4720   37.4200   31.3590 N.ar   90  C90         0.0000
   1628  C2        27.5640   37.6090   32.1940 C.ar   90  C90         0.0000
   1629  O2        27.7680   38.7330   32.6470 O.2    90  C90         0.0000
   1630  N3        28.3680   36.5590   32.4870 N.ar   90  C90         0.0000
   1631  C4        28.1140   35.3610   31.9580 C.ar   90  C90         0.0000
   1632  N4        28.9080   34.3390   32.3020 N.pl3  90  C90         0.0000
   1633  C5        27.0320   35.1520   31.0570 C.ar   90  C90         0.0000
   1634  C6        26.2470   36.2010   30.7810 C.ar   90  C90         0.0000
   1635  OP1       22.8490   35.8440   26.2370 O.2    90  C90        -0.5000
   1636  OP2       24.7270   34.4130   27.2500 O.co2  90  C90        -0.5000
   1637  P         25.6360   40.3460   26.6100 P.3    91  A2391       0.0000
   1638  PC        25.4460   40.3560   20.2580 P.3    91  A2391       0.0000
   1639  C5'       25.5780   38.4230   24.8290 C.3    91  A2391       0.0000
   1640  O5'       24.8810   39.1980   25.8010 O.3    91  A2391       0.0000
   1641  C4'       25.1580   38.8330   23.4420 C.3    91  A2391       0.0000
   1642  O4'       23.8330   38.3240   23.1690 O.3    91  A2391       0.0000
   1643  C3'       25.3310   40.1100   22.7470 C.3    91  A2391       0.0000
   1644  O3'       25.9490   39.5860   21.5520 O.3    91  A2391       0.0000
   1645  C2'       23.9340   40.4930   22.2470 C.3    91  A2391       0.0000
   1646  O2'       24.0990   40.9620   20.8900 O.3    91  A2391       0.0000
   1647  C1'       23.0930   39.2920   22.4390 C.3    91  A2391       0.0000
   1648  N1        18.1100   40.6500   22.5460 N.ar   91  A2391       0.0000
   1649  O1C       26.4380   41.4010   19.9630 O.co2  91  A2391      -0.5000
   1650  C2        18.9540   40.4240   21.5290 C.ar   91  A2391       0.0000
   1651  O2C       25.1080   39.3910   19.1900 O.3    91  A2391      -0.5000
   1652  N3        20.2450   40.0930   21.5610 N.ar   91  A2391       0.0000
   1653  C4        20.6770   39.9960   22.8320 C.ar   91  A2391       0.0000
   1654  C5        19.9260   40.2010   23.9810 C.ar   91  A2391       0.0000
   1655  C6        18.5740   40.5460   23.8090 C.ar   91  A2391       0.0000
   1656  N6        17.7300   40.7760   24.8200 N.pl3  91  A2391       0.0000
   1657  N7        20.7010   40.0150   25.1150 N.ar   91  A2391       0.0000
   1658  C8        21.8820   39.7010   24.6390 C.ar   91  A2391       0.0000
   1659  N9        21.9380   39.6590   23.2640 N.ar   91  A2391       0.0000
   1660  OP1       27.0650   39.9730   26.7520 O.co2  91  A2391      -1.0000
   1661  OP2       25.2760   41.6630   26.0320 O.3    91  A2391       0.0000
   1662 MN         30.4660   41.7390   69.1650 Mn    115  MN115       0.0000
   1663 MN         31.3020   36.1770   69.3650 Mn    116  MN116       0.0000
   1664 MN         30.1970   38.8710   83.4090 Mn    117  MN117       0.0000
   1665 MN         24.1510   43.5530   60.2490 Mn    118  MN118       0.0000
   1666 MN         15.9700   50.6870   63.8620 Mn    119  MN119       0.0000
   1667 MN         36.6800   31.3220   61.0290 Mn    120  MN120       0.0000
   1668 MN          5.6980   45.3550   70.8060 Mn    121  MN121       0.0000
   1669 MN         18.3490   58.6690   80.7260 Mn    122  MN122       0.0000
   1670 MN         29.4770   45.9340   82.1890 Mn    123  MN123       0.0000
   1671 MN         24.8680   43.8490   25.6200 Mn    124  MN124       0.0000
   1672 MN         24.8460   27.1080   75.7570 Mn    125  MN125       0.0000
   1673 MN         29.3430   52.9050   85.0030 Mn    126  MN126       0.0000
   1674 MG         10.3180   51.3270   68.8800 Mg    127  MG127       0.0000
   1675 MG         19.2640   42.2600   73.3190 Mg    128  MG128       0.0000
   1676  O         23.8550   50.4170   68.0890 O.3    92  HOH92       0.0000
   1677  O         17.3990   51.7910   65.9440 O.3    93  HOH93       0.0000
   1678  O         17.5580   49.7110   61.1530 O.3    94  HOH94       0.0000
   1679  O         15.2030   29.0820   56.9660 O.3    95  HOH95       0.0000
   1680  O         23.7520   41.9160   62.1490 O.3    96  HOH96       0.0000
   1681  O          6.7000   43.1260   73.2110 O.3    97  HOH97       0.0000
   1682  O         22.4690   37.1510   33.1060 O.3    98  HOH98       0.0000
   1683  O         21.7010   34.0070   48.1300 O.3    99  HOH99       0.0000
   1684  O         29.2060   36.8870   42.8660 O.3   100  HOH100      0.0000
   1685  O         32.2130   37.5200   70.8780 O.3   101  HOH101      0.0000
   1686  O         20.1050   34.6360   61.5380 O.3   102  HOH102      0.0000
   1687  O         30.5860   34.9890   67.9830 O.3   103  HOH103      0.0000
   1688  O         32.8860   42.2790   69.5940 O.3   104  HOH104      0.0000
   1689  O         29.5830   36.2150   70.6250 O.3   105  HOH105      0.0000
   1690  O         30.5920   39.7450   63.6450 O.3   106  HOH106      0.0000
   1691  O         30.8140   40.7870   83.8380 O.3   107  HOH107      0.0000
   1692  O         28.1160   28.5430   37.5240 O.3   108  HOH108      0.0000
   1693  O         31.1250   40.3210   71.0450 O.3   109  HOH109      0.0000
   1694  O         23.4720   54.8100   83.2930 O.3   110  HOH110      0.0000
   1695  O         14.6080   50.6650   65.0830 O.3   111  HOH111      0.0000
   1696  O         30.0720   42.6010   71.1340 O.3   112  HOH112      0.0000
   1697  O         29.8880   43.0460   67.9270 O.3   113  HOH113      0.0000
@<TRIPOS>BOND
     1   266  1675    1
     2   271  1675    1
     3   509  1668    1
     4   516  1674    1
     5   536  1674    1
     6   556  1674    1
     7   595  1666    1
     8   617  1665    1
     9   993  1663    1
    10  1059  1664    1
    11  1080  1664    1
    12  1189  1669    1
    13  1221  1675    1
    14  1274  1675    1
    15  1378  1663    1
    16  1623  1637    1
    17  1637  1640    1
    18  1637  1660    2
    19  1637  1661    1
    20  1638  1644    1
    21  1638  1646    1
    22  1638  1649    2
    23  1638  1651    1
    24  1639  1641    1
    25  1639  1640    1
    26  1641  1642    1
    27  1641  1643    1
    28  1642  1647    1
    29  1643  1644    1
    30  1643  1645    1
    31  1645  1646    1
    32  1645  1647    1
    33  1647  1659    1
    34  1648  1650   ar
    35  1648  1655   ar
    36  1650  1652   ar
    37  1652  1653   ar
    38  1653  1654   ar
    39  1653  1659   ar
    40  1654  1655   ar
    41  1654  1657   ar
    42  1655  1656    1
    43  1657  1658   ar
    44  1658  1659   ar
    45  1661  1671    1
    46  1662  1688    1
    47  1662  1693    1
    48  1662  1696    1
    49  1662  1697    1
    50  1663  1685    1
    51  1663  1687    1
    52  1663  1689    1
    53  1664  1691    1
    54  1665  1680    1
    55  1666  1677    1
    56  1666  1695    1
    57  1635  1617    2
    58  1636  1617    1
    59  1617  1619    1
    60  1617  1600    1
    61  1623  1622    1
    62  1615  1594    2
    63  1619  1618    1
    64  1600  1599    1
    65  1618  1620    1
    66  1622  1620    1
    67  1622  1624    1
    68  1595  1596    1
    69  1595  1597    1
    70  1620  1621    1
    71  1594  1596    1
    72  1594  1616    1
    73  1594  1580    1
    74  1599  1597    1
    75  1599  1601    1
    76  1597  1598    1
    77  1624  1625    1
    78  1624  1626    1
    79  1580  1579    1
    80  1602  1601    1
    81  1621  1626    1
    82  1601  1603    1
    83  1634  1633   ar
    84  1634  1627   ar
    85  1633  1631   ar
    86  1626  1627    1
    87  1627  1628   ar
    88  1598  1603    1
    89  1579  1577    1
    90  1579  1581    1
    91  1603  1614    1
    92  1631  1632    1
    93  1631  1630   ar
    94  1582  1581    1
    95  1628  1630   ar
    96  1628  1629    2
    97  1592  1574    2
    98  1575  1577    1
    99  1575  1576    1
   100  1577  1578    1
   101  1613  1614   ar
   102  1613  1612   ar
   103  1614  1608   ar
   104  1581  1583    1
   105  1576  1574    1
   106  1612  1609   ar
   107  1608  1607   ar
   108  1608  1609   ar
   109  1574  1593    1
   110  1574  1560    1
   111  1607  1605   ar
   112  1609  1610   ar
   113  1578  1583    1
   114  1583  1584    1
   115  1560  1559    1
   116    12    11    1
   117  1605  1606    1
   118  1605  1604   ar
   119    10    11   ar
   120    10    16   ar
   121    17    16    2
   122  1610  1604   ar
   123  1610  1611    2
   124  1584  1591   ar
   125  1584  1585   ar
   126    11    13   ar
   127  1562  1561    1
   128    16    15   ar
   129  1591  1590   ar
   130  1586  1585    2
   131  1585  1587   ar
   132    53    52    1
   133  1559  1561    1
   134  1559  1557    1
   135  1561  1563    1
   136  1590  1588   ar
   137    13    14   ar
   138    15    14   ar
   139    15    18   ar
   140  1587  1588   ar
   141    33    32    2
   142    14    20   ar
   143  1588  1589    1
   144    52    54   ar
   145    52    51   ar
   146  1557  1555    1
   147  1557  1558    1
   148    18    19   ar
   149    34    32   ar
   150    34    35   ar
   151    54    55   ar
   152    32    31   ar
   153    51    57   ar
   154    20    19   ar
   155    20     9    1
   156  1563  1558    1
   157  1563  1564    1
   158  1555  1556    1
   159    36    35    1
   160  1572  1554    2
   161    35    37   ar
   162  1566  1565    2
   163  1556  1554    1
   164     9     4    1
   165     9     7    1
   166    72    71    1
   167    55    61   ar
   168    55    56   ar
   169    31    30    1
   170    31    38   ar
   171  1564  1565   ar
   172  1564  1571   ar
   173    57    56   ar
   174    57    58    2
   175  1565  1567   ar
   176    50    61    1
   177    50    45    1
   178    50    48    1
   179    76    75   ar
   180    76    77   ar
   181    30    25    1
   182    30    28    1
   183    49    48    1
   184    73    68    1
   185    73    71    1
   186    73    83    1
   187    75    74   ar
   188     4     3    1
   189    68    67    1
   190    61    60   ar
   191  1554  1573    1
   192  1554  1537    1
   193    56    59   ar
   194  1571  1570   ar
   195    45    44    1
   196    29    28    1
   197    37    38   ar
   198  1567  1568   ar
   199    25    24    1
   200    71    69    1
   201     7     8    1
   202     7     5    1
   203    77    83   ar
   204    77    78   ar
   205    48    46    1
   206    90    89    1
   207    90    95    1
   208    28    26    1
   209    83    82   ar
   210    94    93    1
   211    67    69    1
   212    67    65    1
   213    74    79   ar
   214  1570  1568   ar
   215    60    59   ar
   216  1568  1569    2
   217    89    87    1
   218    89    91    1
   219    95    93    1
   220    95    96    1
   221    44    46    1
   222    44    42    1
   223    87    88    1
   224  1537  1536    1
   225     3     5    1
   226     3     1    1
   227    78    79   ar
   228    78    81   ar
   229    69    70    1
   230    65    66    1
   231    79    80    1
   232    98    97    2
   233    82    81   ar
   234    93    91    1
   235    24    26    1
   236    24    22    1
   237    70    86    1
   238     5     6    1
   239    46    47    1
   240     2     1    1
   241  1539  1538    1
   242    96    97   ar
   243    96   103   ar
   244    26    27    1
   245    42    43    1
   246    91    92    1
   247    97    99   ar
   248    92   106    1
   249  1538  1536    1
   250  1538  1540    1
   251    47    64    1
   252    88    86    1
   253  1536  1534    1
   254  1543  1542    1
   255    66    64    1
   256   103   102   ar
   257    22    23    1
   258    43    41    1
   259    86   104    2
   260    86   105    1
   261     6    21    1
   262    23    21    1
   263    27    41    1
   264    99   100   ar
   265  1542  1544   ar
   266  1542  1541   ar
   267   110   109    1
   268   110   115    1
   269  1544  1545   ar
   270   107   109    1
   271   107   108    1
   272    64    84    2
   273    64    85    1
   274   102   100   ar
   275  1541  1547   ar
   276   109   111    1
   277   100   101    1
   278   124   106    2
   279  1534  1532    1
   280  1534  1535    1
   281  1545  1551   ar
   282  1545  1546   ar
   283  1540  1551    1
   284  1540  1535    1
   285    21    40    2
   286    21    39    1
   287   106   108    1
   288   106   125    1
   289    41    63    2
   290    41    62    1
   291   115   116    1
   292   115   113    1
   293  1547  1546   ar
   294  1547  1548    2
   295  1551  1550   ar
   296  1546  1549   ar
   297   114   113    1
   298  1532  1533    1
   299  1550  1549   ar
   300   116   123   ar
   301   116   117   ar
   302   123   122   ar
   303   113   111    1
   304   111   112    1
   305   118   117    2
   306   117   119   ar
   307   122   120   ar
   308   112   126    1
   309  1533  1531    1
   310   119   120   ar
   311   120   121    2
   312  1517  1516    1
   313  1553  1531    2
   314  1531  1552    1
   315  1531  1515    1
   316   126   144    2
   317   126   145    1
   318   126   128    1
   319  1519  1520   ar
   320  1519  1524   ar
   321  1520  1521   ar
   322   130   129    1
   323   130   135    1
   324  1525  1524    1
   325  1524  1523   ar
   326  1521  1522   ar
   327  1516  1518    1
   328  1516  1514    1
   329   127   128    1
   330   127   129    1
   331  1522  1523   ar
   332  1522  1528   ar
   333  1523  1526   ar
   334  1515  1514    1
   335   129   131    1
   336  1528  1518    1
   337  1528  1527   ar
   338  1518  1513    1
   339  1526  1527   ar
   340   135   136    1
   341   135   133    1
   342   143   136   ar
   343   143   142   ar
   344   136   137   ar
   345  1514  1512    1
   346   142   140   ar
   347   137   138    2
   348   137   139   ar
   349   140   139   ar
   350   140   141    1
   351   134   133    1
   352   847   828    2
   353  1513  1512    1
   354   133   131    1
   355   131   132    1
   356  1512  1510    1
   357   822   821    2
   358   868   848    2
   359   846   828    1
   360   815   821   ar
   361   815   816   ar
   362   834   848    1
   363   834   833    1
   364   828   830    1
   365   828   811    1
   366   132   146    1
   367   821   820   ar
   368   817   816    1
   369   830   829    1
   370   816   818   ar
   371  1510  1511    1
   372   848   869    1
   373   848   850    1
   374   833   835    1
   375   833   831    1
   376   820   823   ar
   377   820   819   ar
   378   818   819   ar
   379   829   831    1
   380   823   824   ar
   381   819   825   ar
   382   811   810    1
   383   168   146    2
   384   812   810    1
   385   812   813    1
   386   812   814    1
   387   146   167    1
   388   146   148    1
   389   827   805    2
   390   835   836    1
   391   835   837    1
   392  1529  1509    2
   393   850   849    1
   394   831   832    1
   395   810   808    1
   396  1511  1509    1
   397   719   718    1
   398   824   825   ar
   399   164   165   ar
   400   164   161   ar
   401   165   166   ar
   402   825   814    1
   403   150   155    1
   404   150   149    1
   405   763   745    2
   406   718   720    1
   407   718   716    1
   408   163   162    2
   409   148   147    1
   410   161   162   ar
   411   161   160   ar
   412   800   799    1
   413   166   155    1
   414   166   160   ar
   415   147   149    1
   416   814   809    1
   417   826   805    1
   418   162   156   ar
   419  1509  1530    1
   420  1509  1493    1
   421   764   745    1
   422   805   807    1
   423   805   791    1
   424   155   153    1
   425   807   806    1
   426   160   159   ar
   427   832   837    1
   428   837   838    1
   429   717   716    1
   430   717   723    1
   431   804   785    2
   432   149   151    1
   433   849   851    1
   434   720   715    1
   435   745   729    1
   436   745   747    1
   437   838   845   ar
   438   838   839   ar
   439   845   844   ar
   440   808   809    1
   441   808   806    1
   442   784   765    2
   443   156   157   ar
   444   743   723    2
   445   799   801   ar
   446   799   798   ar
   447   716   714    1
   448   840   839    2
   449   159   157   ar
   450   839   841   ar
   451   844   842   ar
   452   801   802   ar
   453   783   765    1
   454   725   724    1
   455   725   723    1
   456  1495  1494    1
   457   157   158    1
   458  1493  1492    1
   459   803   785    1
   460   729   728    1
   461   798   796   ar
   462   841   842   ar
   463   724   726    1
   464   723   744    1
   465   842   843    2
   466   851   852    1
   467   851   853    1
   468   852   857    1
   469   785   787    1
   470   785   771    1
   471   765   767    1
   472   765   751    1
   473   791   790    1
   474   153   151    1
   475   153   154    1
   476  1494  1492    1
   477  1494  1496    1
   478   787   786    1
   479   151   152    1
   480   747   746    1
   481   802   795   ar
   482   715   714    1
   483   790   792    1
   484   790   788    1
   485   714   712    1
   486  1492  1490    1
   487   796   795   ar
   488   796   797    2
   489   728   726    1
   490   728   730    1
   491   726   727    1
   492   795   794    1
   493   780   779    1
   494   767   766    1
   495   792   794    1
   496   792   793    1
   497   746   748    1
   498   857   867    1
   499   857   855    1
   500   751   750    1
   501   892   882    2
   502   786   788    1
   503   781   779   ar
   504   781   782   ar
   505   853   854    1
   506   853   855    1
   507   771   770    1
   508   152   169    1
   509   854   870    1
   510   880   870    2
   511   779   778   ar
   512  1496  1506    1
   513  1496  1491    1
   514   867   866   ar
   515   867   861   ar
   516   788   789    1
   517   750   748    1
   518   750   752    1
   519   866   865   ar
   520   794   789    1
   521   770   768    1
   522   770   772    1
   523   712   713    1
   524  1506  1500   ar
   525  1506  1505   ar
   526   186   185    2
   527   766   768    1
   528  1499  1500   ar
   529  1499  1498   ar
   530   782   775   ar
   531  1490  1491    1
   532  1490  1488    1
   533   861   860   ar
   534   861   862   ar
   535   860   859   ar
   536   187   188   ar
   537   187   184   ar
   538  1500  1501   ar
   539  1505  1504   ar
   540   761   762   ar
   541   761   759   ar
   542   855   856    1
   543   730   731    1
   544   730   732    1
   545   727   732    1
   546  1498  1497   ar
   547   865   862   ar
   548   748   749    1
   549   893   882    1
   550   862   863   ar
   551  1501  1504   ar
   552  1501  1502   ar
   553   778   776   ar
   554   762   755   ar
   555   188   189   ar
   556   859   858   ar
   557   882   884    1
   558   882   876    1
   559   185   184   ar
   560   185   179   ar
   561   870   881    1
   562   870   872    1
   563   184   183   ar
   564  1497  1502   ar
   565  1502  1503    1
   566   760   759    1
   567   768   769    1
   568   741   742   ar
   569   741   740   ar
   570   863   858   ar
   571   863   864    1
   572   775   776   ar
   573   775   774    1
   574   772   774    1
   575   772   773    1
   576   191   169    2
   577   759   758   ar
   578   169   171    1
   579   169   190    1
   580   173   178    1
   581   173   172    1
   582  1488  1489    1
   583  1489  1487    1
   584   732   742    1
   585   776   777    2
   586   713   711    1
   587   179   180   ar
   588   189   183   ar
   589   189   178    1
   590   721   711    2
   591   752   754    1
   592   752   753    1
   593   171   170    1
   594   183   182   ar
   595   884   883    1
   596   749   754    1
   597   891   886    1
   598   891   889    1
   599   170   172    1
   600   742   736   ar
   601   740   737   ar
   602   875   876    1
   603   875   877    1
   604   875   873    1
   605   755   754    1
   606   755   756   ar
   607   872   871    1
   608   769   774    1
   609   178   176    1
   610   871   873    1
   611  1508  1487    2
   612   180   182   ar
   613   180   181    1
   614   915   894    2
   615   886   885    1
   616   172   174    1
   617   758   756   ar
   618   711   695    1
   619   711   722    1
   620   877   879    1
   621   877   878    1
   622   889   887    1
   623   889   890    1
   624  1487  1507    1
   625  1487  1470    1
   626   756   757    2
   627   873   874    1
   628   879   874    1
   629   736   737   ar
   630   736   735   ar
   631   737   738   ar
   632   887   885    1
   633   887   888    1
   634   608   607    1
   635   697   696    1
   636   604   609    1
   637   604   603    1
   638   883   885    1
   639   209   208    2
   640   695   694    1
   641   898   903    1
   642   898   897    1
   643   609   607    1
   644   609   619    1
   645   603   601    1
   646   603   605    1
   647   696   694    1
   648   696   698    1
   649   176   174    1
   650   176   177    1
   651   174   175    1
   652   903   913    1
   653   903   901    1
   654  1481  1480    2
   655   735   734   ar
   656  1470  1469    1
   657   208   202   ar
   658   208   207   ar
   659   601   602    1
   660   894   888    1
   661   894   914    1
   662   894   896    1
   663  1474  1480   ar
   664  1474  1475   ar
   665   738   739    1
   666   738   733   ar
   667   906   907   ar
   668   906   905   ar
   669   607   605    1
   670  1480  1479   ar
   671   913   907   ar
   672   913   912   ar
   673  1476  1475    1
   674   694   692    1
   675   202   203   ar
   676   897   895    1
   677   897   899    1
   678   907   908   ar
   679   895   896    1
   680   905   904   ar
   681   619   613    1
   682   619   618    1
   683  1475  1477   ar
   684   612   613   ar
   685   612   611   ar
   686   210   207   ar
   687   210   211   ar
   688   912   911   ar
   689  1471  1469    1
   690  1471  1472    1
   691  1471  1473    1
   692  1469  1467    1
   693   207   206   ar
   694  1479  1482   ar
   695  1479  1478   ar
   696   904   909   ar
   697   908   911   ar
   698   908   909   ar
   699   902   901    1
   700   605   606    1
   701   613   614   ar
   702   606   622    1
   703  1477  1478   ar
   704   909   910    1
   705   707   708   ar
   706   707   706   ar
   707  1482  1483   ar
   708   618   617    1
   709   611   610   ar
   710   734   733   ar
   711  1478  1484   ar
   712   620   600    2
   713   203   204    1
   714   203   205   ar
   715   175   192    1
   716   698   708    1
   717   698   693    1
   718  1486  1464    2
   719   901   899    1
   720   211   212   ar
   721  1392  1391    1
   722   206   205   ar
   723   206   212   ar
   724  1483  1484   ar
   725   602   600    1
   726  1484  1473    1
   727   614   617    1
   728   614   615   ar
   729   708   702   ar
   730   706   703   ar
   731   610   615   ar
   732  1485  1464    1
   733   626   625    1
   734   626   631    1
   735   212   201    1
   736   623   625    1
   737   623   624    1
   738   899   900    1
   739  1466  1464    1
   740  1466  1465    1
   741   692   693    1
   742   692   690    1
   743  1473  1468    1
   744   615   616    1
   745  1464  1447    1
   746   600   621    1
   747   600   583    1
   748   625   627    1
   749   643   622    2
   750  1467  1465    1
   751  1467  1468    1
   752   214   192    2
   753   622   624    1
   754   622   644    1
   755  1416  1396    2
   756   196   201    1
   757   196   195    1
   758  1393  1388    1
   759  1393  1391    1
   760   201   199    1
   761  1388  1387    1
   762   702   703   ar
   763   702   701   ar
   764   703   704   ar
   765   192   194    1
   766   192   213    1
   767   900   916    1
   768  1391  1389    1
   769   232   231    2
   770   631   642    1
   771   631   629    1
   772   194   193    1
   773   690   691    1
   774  1387  1389    1
   775  1387  1385    1
   776   225   231   ar
   777   225   226   ar
   778   227   226    1
   779   630   629    1
   780   231   230   ar
   781   701   700   ar
   782   642   641   ar
   783   642   636   ar
   784   704   705    1
   785   704   699   ar
   786   583   582    1
   787  1390  1389    1
   788  1390  1396    1
   789   226   228   ar
   790   627   629    1
   791   627   628    1
   792   931   930    1
   793   641   640   ar
   794  1447  1446    1
   795  1458  1457    2
   796  1463  1441    2
   797  1396  1417    1
   798  1396  1398    1
   799  1385  1386    1
   800   195   193    1
   801   195   197    1
   802   628   645    1
   803   930   929   ar
   804   930   932   ar
   805   636   635   ar
   806   636   637   ar
   807   929   927   ar
   808   932   933   ar
   809   635   633   ar
   810   199   200    1
   811   199   197    1
   812   920   925    1
   813   920   919    1
   814  1440  1418    2
   815   935   916    2
   816   916   934    1
   817   916   918    1
   818  1462  1441    1
   819   700   699   ar
   820   691   689    1
   821   933   926   ar
   822   927   928    2
   823   927   926   ar
   824   640   637   ar
   825  1446  1444    1
   826  1446  1448    1
   827  1457  1451   ar
   828  1457  1456   ar
   829  1442  1444    1
   830  1442  1443    1
   831   230   229   ar
   832   230   233   ar
   833   926   925    1
   834   637   638   ar
   835  1459  1456   ar
   836  1459  1460   ar
   837   585   584    1
   838   228   229   ar
   839   633   634    1
   840   633   632   ar
   841   925   923    1
   842  1451  1452   ar
   843  1441  1443    1
   844  1441  1424    1
   845  1456  1455   ar
   846   582   584    1
   847   582   580    1
   848   197   198    1
   849  1398  1397    1
   850   584   586    1
   851  1439  1418    1
   852   917   918    1
   853   917   919    1
   854   229   235   ar
   855   709   689    2
   856   233   234   ar
   857  1460  1461   ar
   858  1386  1384    1
   859   638   632   ar
   860   638   639    2
   861  1444  1445    1
   862   919   921    1
   863  1418  1402    1
   864  1418  1420    1
   865   665   645    2
   866  1452  1453    1
   867  1452  1454   ar
   868  1448  1450    1
   869  1448  1449    1
   870  1455  1461   ar
   871  1455  1454   ar
   872   645   666    1
   873   645   647    1
   874   685   684   ar
   875   685   686   ar
   876   689   710    1
   877   689   673    1
   878  1394  1384    2
   879  1461  1450    1
   880   671   676    1
   881   671   670    1
   882   253   252    2
   883   684   681   ar
   884   234   235   ar
   885   235   224    1
   886   676   686    1
   887   676   674    1
   888  1384  1395    1
   889  1384  1367    1
   890   580   578    1
   891   580   581    1
   892  1424  1423    1
   893   198   215    1
   894   686   680   ar
   895  1445  1450    1
   896   923   924    1
   897   923   921    1
   898  1397  1399    1
   899  1402  1401    1
   900  1420  1419    1
   901   670   672    1
   902   670   668    1
   903   586   597    1
   904   586   581    1
   905   647   646    1
   906   251   252   ar
   907   251   249   ar
   908   578   579    1
   909   921   922    1
   910  1435  1434    2
   911   675   674    1
   912   252   254   ar
   913   597   596    1
   914   597   591    1
   915   579   577    1
   916   596   595    1
   917  1436  1437   ar
   918  1436  1433   ar
   919   646   648    1
   920   673   672    1
   921   224   219    1
   922   224   222    1
   923  1423  1425    1
   924  1423  1421    1
   925   595   592    1
   926   219   218    1
   927   591   590   ar
   928   591   592   ar
   929   590   588   ar
   930   598   577    2
   931   592   593   ar
   932   237   215    2
   933  1401  1399    1
   934  1401  1403    1
   935   588   587   ar
   936   588   589    1
   937   593   594    2
   938   593   587   ar
   939   681   680   ar
   940   681   682   ar
   941   672   674    1
   942   951   950    1
   943  1437  1438   ar
   944  1434  1433   ar
   945  1434  1428   ar
   946   680   679   ar
   947  1419  1421    1
   948   250   249    2
   949  1399  1400    1
   950  1433  1432   ar
   951   599   577    1
   952  1373  1372    1
   953   249   248   ar
   954   577   563    1
   955   215   217    1
   956   215   236    1
   957   668   669    1
   958  1367  1366    1
   959   952   950   ar
   960   952   953   ar
   961   950   949   ar
   962  1425  1426    1
   963  1425  1427    1
   964  1365  1364    1
   965  1365  1370    1
   966   922   936    1
   967   683   682    1
   968  1421  1422    1
   969   254   255   ar
   970  1413  1414   ar
   971  1413  1410   ar
   972   682   677   ar
   973  1414  1415   ar
   974  1428  1429   ar
   975  1364  1366    1
   976  1364  1362    1
   977   953   946   ar
   978  1438  1432   ar
   979  1438  1427    1
   980   217   216    1
   981  1374  1372   ar
   982  1374  1375   ar
   983   949   947   ar
   984  1432  1431   ar
   985   669   667    1
   986   679   678   ar
   987  1370  1368    1
   988  1370  1381    1
   989   218   216    1
   990   218   220    1
   991  1372  1371   ar
   992   648   649    1
   993   648   650    1
   994   222   223    1
   995   222   220    1
   996  1366  1368    1
   997  1369  1368    1
   998  1403  1404    1
   999  1403  1405    1
  1000   946   947   ar
  1001   946   945    1
  1002  1316  1296    2
  1003   947   948    2
  1004   940   945    1
  1005   940   939    1
  1006   248   255   ar
  1007   248   247    1
  1008  1400  1405    1
  1009  1427  1422    1
  1010   649   654    1
  1011  1429  1431   ar
  1012  1429  1430    1
  1013  1415  1405    1
  1014  1415  1409   ar
  1015  1412  1411    1
  1016   945   943    1
  1017  1410  1411   ar
  1018  1410  1409   ar
  1019   677   678   ar
  1020   220   221    1
  1021   563   562    1
  1022   955   936    2
  1023  1375  1381   ar
  1024  1375  1376   ar
  1025  1339  1318    2
  1026  1362  1363    1
  1027  1381  1380   ar
  1028   936   938    1
  1029   936   954    1
  1030   650   651    1
  1031   650   652    1
  1032  1371  1377   ar
  1033  1411  1406   ar
  1034  1409  1408   ar
  1035   938   937    1
  1036   247   242    1
  1037   247   245    1
  1038   651   667    1
  1039   242   241    1
  1040   667   687    2
  1041   667   688    1
  1042   937   939    1
  1043   512   491    2
  1044   939   941    1
  1045  1294  1276    2
  1046   562   564    1
  1047   562   560    1
  1048  1296  1317    1
  1049  1296  1282    1
  1050  1296  1298    1
  1051   564   565    1
  1052   564   566    1
  1053  1340  1318    1
  1054   654   664    1
  1055   654   652    1
  1056  1376  1377   ar
  1057  1376  1379   ar
  1058  1318  1302    1
  1059  1318  1320    1
  1060  1380  1379   ar
  1061  1377  1378    1
  1062  1406  1407   ar
  1063  1360  1341    2
  1064   971   970    2
  1065   943   944    1
  1066   943   941    1
  1067  1363  1361    1
  1068   221   238    1
  1069   663   664   ar
  1070   663   662   ar
  1071   572   571    2
  1072   664   658   ar
  1073  1408  1407   ar
  1074  1282  1281    1
  1075   576   557    2
  1076   652   653    1
  1077   571   573   ar
  1078   571   570   ar
  1079   573   574   ar
  1080   575   557    1
  1081   570   568   ar
  1082  1298  1297    1
  1083  1297  1299    1
  1084  1302  1301    1
  1085   662   659   ar
  1086   970   969   ar
  1087   970   972   ar
  1088   941   942    1
  1089   574   567   ar
  1090   513   491    1
  1091   559   557    1
  1092   559   558    1
  1093   658   657   ar
  1094   658   659   ar
  1095   257   238    2
  1096   245   246    1
  1097   245   243    1
  1098   491   475    1
  1099   491   493    1
  1100   568   567   ar
  1101   568   569    2
  1102   241   239    1
  1103   241   243    1
  1104   567   566    1
  1105   557   543    1
  1106   535   514    1
  1107   657   656   ar
  1108  1356  1355    1
  1109   659   660   ar
  1110   239   240    1
  1111   969   967   ar
  1112  1276  1278    1
  1113  1276  1295    1
  1114  1276  1262    1
  1115   560   558    1
  1116   560   561    1
  1117   566   561    1
  1118  1277  1278    1
  1119  1277  1279    1
  1120   972   973   ar
  1121  1320  1319    1
  1122   536   514    1
  1123  1359  1341    1
  1124   240   238    1
  1125   238   256    1
  1126   489   469    2
  1127  1341  1343    1
  1128  1341  1324    1
  1129  1383  1361    2
  1130   656   655   ar
  1131   556   537    1
  1132  1361  1382    1
  1133  1361  1347    1
  1134   660   655   ar
  1135   660   661    1
  1136  1281  1279    1
  1137  1281  1283    1
  1138  1357  1355   ar
  1139  1357  1358   ar
  1140   475   474    1
  1141  1301  1299    1
  1142  1301  1303    1
  1143   967   968    2
  1144   967   966   ar
  1145  1279  1280    1
  1146  1299  1300    1
  1147  1262  1261    1
  1148  1355  1354   ar
  1149   973   966   ar
  1150   243   244    1
  1151  1319  1321    1
  1152   514   497    1
  1153   493   492    1
  1154   555   537    2
  1155   942   956    1
  1156   966   965    1
  1157   492   494    1
  1158  1343  1342    1
  1159   960   965    1
  1160   960   959    1
  1161   552   551    1
  1162  1358  1351   ar
  1163  1284  1283    1
  1164  1324  1323    1
  1165   537   539    1
  1166   537   520    1
  1167   965   963    1
  1168   470   471    1
  1169   470   472    1
  1170   543   542    1
  1171   497   496    1
  1172  1354  1352   ar
  1173  1275  1256    2
  1174   993   992    1
  1175   469   471    1
  1176   469   490    1
  1177   469   453    1
  1178  1283  1285    1
  1179  1347  1346    1
  1180  1346  1348    1
  1181  1346  1344    1
  1182  1323  1321    1
  1183  1323  1325    1
  1184   986   992   ar
  1185   986   987   ar
  1186   275   274    2
  1187   551   553   ar
  1188   551   550   ar
  1189   474   472    1
  1190   474   476    1
  1191   553   554   ar
  1192   244   258    1
  1193   988   987    1
  1194   516   515    1
  1195  1321  1322    1
  1196  1300  1305    1
  1197  1303  1304    1
  1198  1303  1305    1
  1199   472   473    1
  1200  1264  1263    1
  1201  1280  1285    1
  1202  1261  1259    1
  1203  1261  1263    1
  1204   542   544    1
  1205   542   540    1
  1206   276   277   ar
  1207   276   273   ar
  1208   539   538    1
  1209  1241  1240    1
  1210   975   956    2
  1211   992   991   ar
  1212  1351  1352   ar
  1213  1351  1350    1
  1214  1342  1344    1
  1215   496   494    1
  1216   496   498    1
  1217   494   495    1
  1218  1352  1353    2
  1219   956   958    1
  1220   956   974    1
  1221   987   989   ar
  1222   550   548   ar
  1223   274   273   ar
  1224   274   268   ar
  1225  1259  1257    1
  1226  1259  1260    1
  1227  1257  1258    1
  1228  1348  1350    1
  1229  1348  1349    1
  1230   554   547   ar
  1231   279   258    2
  1232   958   957    1
  1233   277   278   ar
  1234   273   272   ar
  1235   959   957    1
  1236   959   961    1
  1237   520   519    1
  1238  1314  1313   ar
  1239  1314  1315   ar
  1240  1337  1336   ar
  1241  1337  1338   ar
  1242   477   476    1
  1243   544   545    1
  1244   544   546    1
  1245   515   517    1
  1246  1285  1286    1
  1247   453   452    1
  1248  1336  1333   ar
  1249  1344  1345    1
  1250  1263  1265    1
  1251  1305  1315    1
  1252   268   269   ar
  1253   548   547   ar
  1254   548   549    2
  1255   963   964    1
  1256   963   961    1
  1257  1322  1327    1
  1258   476   478    1
  1259   538   540    1
  1260   547   546    1
  1261   258   280    1
  1262   258   260    1
  1263  1350  1345    1
  1264  1256  1258    1
  1265  1256  1239    1
  1266  1256  1274    1
  1267   278   272   ar
  1268   278   267    1
  1269  1313  1310   ar
  1270   272   271   ar
  1271   991   990   ar
  1272   991   994   ar
  1273  1315  1309   ar
  1274   519   517    1
  1275   519   521    1
  1276  1325  1327    1
  1277  1325  1326    1
  1278  1240  1238    1
  1279  1240  1242    1
  1280   989   990   ar
  1281   540   541    1
  1282   495   500    1
  1283  1239  1238    1
  1284   473   478    1
  1285  1293  1286   ar
  1286  1293  1292   ar
  1287   269   271   ar
  1288   269   270    1
  1289   961   962    1
  1290  1338  1327    1
  1291  1338  1332   ar
  1292   262   267    1
  1293   262   261    1
  1294   990   996   ar
  1295   510   509    1
  1296   510   511    1
  1297   546   541    1
  1298   532   533   ar
  1299   532   529   ar
  1300  1286  1287   ar
  1301   267   265    1
  1302   498   499    1
  1303   498   500    1
  1304   517   518    1
  1305  1260  1265    1
  1306   994   995   ar
  1307   533   534   ar
  1308  1333  1332   ar
  1309  1333  1334   ar
  1310   509   506    1
  1311   531   530    2
  1312  1265  1266    1
  1313  1252  1253   ar
  1314  1252  1251   ar
  1315   260   259    1
  1316   478   488    1
  1317   452   454    1
  1318   452   450    1
  1319  1238  1236    1
  1320  1310  1309   ar
  1321  1310  1311   ar
  1322  1242  1253    1
  1323  1242  1237    1
  1324   455   454    1
  1325  1309  1308   ar
  1326  1335  1334    2
  1327   467   447    2
  1328   500   511    1
  1329   529   530   ar
  1330   529   528   ar
  1331  1292  1290   ar
  1332   511   505    1
  1333  1332  1331   ar
  1334   296   295    1
  1335   521   523    1
  1336   521   522    1
  1337   530   524   ar
  1338   996   995   ar
  1339   996   985    1
  1340  1334  1328   ar
  1341  1287  1288    2
  1342  1287  1289   ar
  1343  1009  1010   ar
  1344  1009  1014   ar
  1345   534   528   ar
  1346   534   523    1
  1347   454   456    1
  1348   518   523    1
  1349  1253  1247   ar
  1350   962   976    1
  1351  1251  1248   ar
  1352   487   488   ar
  1353   487   486   ar
  1354  1236  1237    1
  1355  1236  1234    1
  1356   488   482   ar
  1357  1010  1011   ar
  1358   506   505   ar
  1359   506   507   ar
  1360   261   259    1
  1361   261   263    1
  1362   450   448    1
  1363   450   451    1
  1364   528   527   ar
  1365   448   449    1
  1366  1308  1307   ar
  1367  1311  1312    1
  1368  1311  1306   ar
  1369   265   266    1
  1370   265   263    1
  1371  1015  1014    1
  1372   295   294   ar
  1373   295   297   ar
  1374  1266  1273   ar
  1375  1266  1267   ar
  1376   505   504   ar
  1377   985   980    1
  1378   985   983    1
  1379   980   979    1
  1380   524   525   ar
  1381   468   447    1
  1382   447   449    1
  1383   447   430    1
  1384  1290  1289   ar
  1385  1290  1291    1
  1386  1014  1013   ar
  1387   294   292   ar
  1388  1331  1329   ar
  1389   508   507    2
  1390  1273  1272   ar
  1391  1268  1267    2
  1392   297   298   ar
  1393   507   501   ar
  1394  1328  1329   ar
  1395  1225  1224    2
  1396   527   525   ar
  1397   486   483   ar
  1398   263   264    1
  1399   525   526    1
  1400  1267  1269   ar
  1401   482   481   ar
  1402   482   483   ar
  1403  1307  1306   ar
  1404   998   976    2
  1405  1011  1012   ar
  1406  1226  1224   ar
  1407  1226  1227   ar
  1408  1247  1248   ar
  1409  1247  1246   ar
  1410  1329  1330    1
  1411  1248  1249   ar
  1412   976   978    1
  1413   976   997    1
  1414   504   502   ar
  1415  1234  1235    1
  1416   456   451    1
  1417   456   466    1
  1418   292   293    2
  1419   292   291   ar
  1420  1116  1115    1
  1421  1228  1227    2
  1422   481   480   ar
  1423   298   291   ar
  1424  1093  1092    1
  1425   978   977    1
  1426  1056  1055    1
  1427  1201  1202   ar
  1428  1201  1206   ar
  1429  1224  1223   ar
  1430   483   484   ar
  1431  1272  1270   ar
  1432  1207  1206    1
  1433  1013  1012   ar
  1434  1013  1016   ar
  1435   501   502   ar
  1436   979   977    1
  1437   979   981    1
  1438   291   290    1
  1439   983   984    1
  1440   983   981    1
  1441  1012  1018   ar
  1442  1185  1184    1
  1443   430   429    1
  1444  1007  1006    1
  1445  1227  1229   ar
  1446   502   503    1
  1447   459   460   ar
  1448   459   458   ar
  1449  1269  1270   ar
  1450   316   315    1
  1451  1202  1203   ar
  1452  1235  1233    1
  1453   264   281    1
  1454   466   460   ar
  1455   466   465   ar
  1456  1206  1205   ar
  1457  1246  1244   ar
  1458  1270  1271    1
  1459   480   479   ar
  1460  1249  1250    2
  1461  1249  1243   ar
  1462  1055  1054   ar
  1463  1055  1057   ar
  1464  1221  1220    1
  1465  1054  1052   ar
  1466  1115  1117   ar
  1467  1115  1114   ar
  1468  1092  1091   ar
  1469  1092  1094   ar
  1470   460   461   ar
  1471   981   982    1
  1472   458   457   ar
  1473   484   479   ar
  1474   484   485    1
  1475   290   285    1
  1476   290   288    1
  1477   285   284    1
  1478  1091  1097   ar
  1479  1016  1017   ar
  1480   314   315   ar
  1481   314   312   ar
  1482  1223  1222    1
  1483  1223  1230   ar
  1484  1220  1222    1
  1485  1220  1218    1
  1486   315   317   ar
  1487  1117  1118   ar
  1488   300   281    2
  1489  1006  1008    1
  1490  1006  1004    1
  1491  1018  1017   ar
  1492  1018  1008    1
  1493   465   464   ar
  1494   429   431    1
  1495   429   427    1
  1496   432   431    1
  1497  1184  1179   ar
  1498  1184  1183   ar
  1499   356   355    2
  1500  1222  1217    1
  1501  1229  1230   ar
  1502  1114  1120   ar
  1503  1135  1134    1
  1504  1179  1180   ar
  1505  1203  1204   ar
  1506  1094  1095   ar
  1507  1076  1075    2
  1508  1244  1243   ar
  1509  1244  1245    1
  1510   281   283    1
  1511   281   299    1
  1512   431   433    1
  1513  1057  1058   ar
  1514   312   313    2
  1515   312   311   ar
  1516  1052  1053    2
  1517  1052  1051   ar
  1518  1074  1075   ar
  1519  1074  1072   ar
  1520   457   462   ar
  1521   461   464   ar
  1522   461   462   ar
  1523  1073  1072    2
  1524  1008  1003    1
  1525   317   318   ar
  1526  1205  1204   ar
  1527  1205  1208   ar
  1528  1233  1255    2
  1529  1233  1254    1
  1530  1233  1219    1
  1531  1097  1098    2
  1532  1097  1096   ar
  1533   283   282    1
  1534  1139  1138   ar
  1535  1139  1140   ar
  1536   982   999    1
  1537  1138  1137   ar
  1538  1112  1111    1
  1539  1075  1077   ar
  1540   462   463    1
  1541   288   289    1
  1542   288   286    1
  1543   284   282    1
  1544   284   286    1
  1545  1218  1219    1
  1546  1218  1216    1
  1547  1118  1124   ar
  1548  1118  1119   ar
  1549  1072  1071   ar
  1550  1204  1210   ar
  1551  1005  1004    1
  1552  1005  1021    1
  1553  1004  1002    1
  1554  1136  1134    1
  1555  1136  1131    1
  1556  1136  1146    1
  1557  1183  1186   ar
  1558  1183  1182   ar
  1559   311   318   ar
  1560   311   310    1
  1561   427   425    1
  1562   427   428    1
  1563   355   354   ar
  1564   355   357   ar
  1565  1113  1124    1
  1566  1113  1111    1
  1567  1113  1108    1
  1568   333   332    2
  1569  1186  1187   ar
  1570  1134  1132    1
  1571  1120  1119   ar
  1572  1120  1121    2
  1573  1095  1096   ar
  1574  1095  1101   ar
  1575  1058  1051   ar
  1576  1051  1050    1
  1577   425   426    1
  1578   354   352   ar
  1579  1217  1216    1
  1580  1180  1181   ar
  1581  1208  1209   ar
  1582  1096  1099   ar
  1583  1131  1130    1
  1584  1124  1123   ar
  1585  1157  1156    1
  1586   334   332   ar
  1587   334   335   ar
  1588   286   287    1
  1589  1140  1146   ar
  1590  1140  1141   ar
  1591  1137  1142   ar
  1592  1119  1122   ar
  1593  1153  1152    1
  1594  1153  1158    1
  1595  1111  1109    1
  1596  1108  1107    1
  1597  1001   999    1
  1598  1001  1000    1
  1599  1152  1150    1
  1600  1152  1154    1
  1601  1003  1002    1
  1602   332   331   ar
  1603   433   428    1
  1604   433   444    1
  1605  1146  1145   ar
  1606  1040  1021    2
  1607   310   305    1
  1608   310   308    1
  1609  1020   999    2
  1610   999  1019    1
  1611  1216  1214    1
  1612  1150  1151    1
  1613   336   335    1
  1614  1077  1078   ar
  1615  1071  1078   ar
  1616  1071  1070    1
  1617  1158  1156    1
  1618  1158  1159    1
  1619   305   304    1
  1620  1130  1132    1
  1621  1130  1128    1
  1622  1002  1000    1
  1623  1101  1090    1
  1624  1101  1100   ar
  1625  1210  1209   ar
  1626  1210  1200    1
  1627   335   337   ar
  1628  1021  1039    1
  1629  1021  1023    1
  1630   443   444   ar
  1631   443   442   ar
  1632   357   358   ar
  1633  1182  1181   ar
  1634  1182  1188   ar
  1635  1050  1045    1
  1636  1050  1048    1
  1637  1090  1088    1
  1638  1090  1085    1
  1639   444   438   ar
  1640  1132  1133    1
  1641  1187  1188   ar
  1642  1161  1160    2
  1643  1107  1109    1
  1644  1107  1105    1
  1645  1156  1154    1
  1646  1133  1149    1
  1647   352   353    2
  1648   352   351   ar
  1649  1142  1141   ar
  1650  1142  1143    1
  1651  1141  1144   ar
  1652  1099  1100   ar
  1653  1123  1122   ar
  1654  1089  1088    1
  1655  1155  1154    1
  1656  1155  1169    1
  1657  1070  1065    1
  1658  1070  1068    1
  1659   445   424    2
  1660  1045  1044    1
  1661   426   424    1
  1662   331   330    1
  1663   331   338   ar
  1664  1145  1144   ar
  1665  1109  1110    1
  1666   287   301    1
  1667   330   325    1
  1668   330   328    1
  1669  1129  1128    1
  1670  1129  1127    1
  1671  1088  1086    1
  1672  1022  1023    1
  1673  1022  1024    1
  1674   442   439   ar
  1675   308   309    1
  1676   308   306    1
  1677  1159  1160   ar
  1678  1159  1166   ar
  1679  1200  1198    1
  1680  1200  1195    1
  1681  1188  1178    1
  1682  1151  1149    1
  1683   337   338   ar
  1684  1198  1199    1
  1685  1198  1196    1
  1686  1160  1162   ar
  1687  1060  1041    2
  1688  1215  1214    1
  1689  1215  1213    1
  1690  1110  1127    1
  1691  1085  1084    1
  1692   438   439   ar
  1693   438   437   ar
  1694  1189  1169    1
  1695  1065  1064    1
  1696   358   351   ar
  1697   325   324    1
  1698  1048  1049    1
  1699  1048  1046    1
  1700  1167  1149    2
  1701   304   302    1
  1702   304   306    1
  1703  1069  1068    1
  1704   424   446    1
  1705   424   410    1
  1706  1105  1106    1
  1707   320   301    2
  1708  1068  1066    1
  1709   351   350    1
  1710  1149  1168    1
  1711   329   328    1
  1712   303   301    1
  1713   303   302    1
  1714  1042  1044    1
  1715  1042  1043    1
  1716   439   440   ar
  1717   437   435   ar
  1718  1169  1171    1
  1719  1169  1190    2
  1720  1044  1046    1
  1721   301   319    1
  1722  1166  1165   ar
  1723   306   307    1
  1724   328   326    1
  1725  1127  1147    2
  1726  1127  1148    1
  1727  1232  1213    2
  1728  1162  1163   ar
  1729  1024  1026    1
  1730  1024  1025    1
  1731  1046  1047    1
  1732  1196  1197    1
  1733  1196  1194    1
  1734  1195  1194    1
  1735  1084  1086    1
  1736  1084  1082    1
  1737  1171  1170    1
  1738  1086  1087    1
  1739   410   409    1
  1740  1106  1104    1
  1741  1213  1197    1
  1742  1213  1231    1
  1743  1178  1173    1
  1744  1178  1176    1
  1745   416   415    2
  1746  1041  1043    1
  1747  1041  1027    1
  1748  1041  1059    1
  1749   435   434   ar
  1750   435   436    1
  1751  1026  1027    1
  1752  1026  1028    1
  1753   324   326    1
  1754   324   322    1
  1755   440   434   ar
  1756   440   441    2
  1757  1064  1066    1
  1758  1064  1062    1
  1759   412   411    1
  1760   350   348    1
  1761   350   345    1
  1762  1066  1067    1
  1763   360   341    2
  1764  1165  1163   ar
  1765   411   409    1
  1766   411   413    1
  1767  1173  1172    1
  1768  1176  1174    1
  1769  1176  1177    1
  1770  1163  1164    2
  1771   409   407    1
  1772  1087  1104    1
  1773   326   327    1
  1774  1194  1192    1
  1775  1025  1030    1
  1776   307   321    1
  1777   415   417   ar
  1778   415   414   ar
  1779   417   418   ar
  1780   348   346    1
  1781   348   349    1
  1782  1063  1062    1
  1783  1063  1061    1
  1784  1212  1191    2
  1785   322   323    1
  1786  1174  1172    1
  1787  1174  1175    1
  1788  1193  1192    1
  1789  1193  1191    1
  1790  1082  1083    1
  1791   323   321    1
  1792  1047  1061    1
  1793  1170  1172    1
  1794  1104  1125    2
  1795  1104  1126    1
  1796   345   344    1
  1797  1028  1030    1
  1798  1028  1029    1
  1799  1083  1081    1
  1800  1067  1081    1
  1801   419   418    2
  1802   340   321    2
  1803   346   344    1
  1804   346   347    1
  1805   418   420   ar
  1806  1038  1037   ar
  1807  1038  1031   ar
  1808  1080  1061    1
  1809   414   413    1
  1810   414   421   ar
  1811   321   339    1
  1812   341   327    1
  1813   341   359    1
  1814   341   343    1
  1815   413   408    1
  1816  1030  1031    1
  1817  1061  1079    2
  1818  1191  1175    1
  1819  1191  1211    1
  1820   407   405    1
  1821   407   408    1
  1822  1037  1035   ar
  1823   344   342    1
  1824  1081  1103    2
  1825  1081  1102    1
  1826  1031  1032   ar
  1827   421   420   ar
  1828   342   343    1
  1829   405   406    1
  1830  1035  1036    2
  1831  1035  1034   ar
  1832  1032  1034   ar
  1833  1032  1033    2
  1834   406   404    1
  1835   398   397    2
  1836   391   397   ar
  1837   391   392   ar
  1838   423   404    2
  1839   393   392    1
  1840   397   396   ar
  1841   422   404    1
  1842   404   387    1
  1843   392   394   ar
  1844   396   395   ar
  1845   396   399   ar
  1846   394   395   ar
  1847   395   401   ar
  1848   399   400   ar
  1849   387   386    1
  1850   386   388    1
  1851   386   384    1
  1852   400   401   ar
  1853   401   390    1
  1854   388   390    1
  1855   388   389    1
  1856   376   375    1
  1857   403   381    2
  1858   390   385    1
  1859   382   384    1
  1860   382   383    1
  1861   384   385    1
  1862   379   361    1
  1863   375   377   ar
  1864   375   374   ar
  1865   377   378   ar
  1866   402   381    1
  1867   381   383    1
  1868   381   367    1
  1869   374   372   ar
  1870   378   371   ar
  1871   361   363    1
  1872   361   380    1
  1873   372   371   ar
  1874   372   373    2
  1875   363   362    1
  1876   371   370    1
  1877   367   366    1
  1878   366   368    1
  1879   366   364    1
  1880   368   370    1
  1881   368   369    1
  1882   370   365    1
  1883   362   364    1
  1884   364   365    1
