1u8d_lig
 OpenBabel11021811413D
libRbt.so/2013.1/901 2013/11/27
 10 11  0  0  0  0  0  0  0  0999 V2000
   11.7143   10.4696    9.2654 N   0  0  0  0  0  0  0  0  0  0  0  0
   11.2985   11.7960    9.4722 C   0  0  0  0  0  0  0  0  0  0  0  0
   10.9314   12.6309    8.4668 N   0  0  0  0  0  0  0  0  0  0  0  0
   11.0064   12.0496    7.2499 C   0  0  0  0  0  0  0  0  0  0  0  0
   11.4537   10.6179    6.9605 C   0  0  0  0  0  0  0  0  0  0  0  0
   11.8250    9.7950    8.0351 C   0  0  0  0  0  0  0  0  0  0  0  0
   12.2047    8.6320    8.0353 O   0  0  0  0  0  0  0  0  0  0  0  0
   11.3824   10.4498    5.6048 N   0  0  0  0  0  0  0  0  0  0  0  0
   10.9299   11.6303    5.0679 C   0  0  0  0  0  0  0  0  0  0  0  0
   10.6951   12.6127    6.0262 N   0  0  0  0  0  0  0  0  0  0  0  0
  1  2  1  0  0  0  0
  1  6  1  0  0  0  0
  2  3  2  0  0  0  0
  3  4  1  0  0  0  0
  4  5  2  0  0  0  0
  4 10  1  0  0  0  0
  5  6  1  0  0  0  0
  5  8  1  0  0  0  0
  6  7  2  0  0  0  0
  8  9  1  0  0  0  0
  9 10  2  0  0  0  0
M  END
>  <CHROM.1>
11.35657715,11.03373947,7.42992219,0.69571568,-1.23955803,1.29035389

>  <Name>
1u8d_lig

>  <RI>
0

>  <Rbt.Current_Directory>
/home/itssahil/PROJECTS/Mol_Feturizer/New_Systems/rnas/1u8d

>  <Rbt.Executable>
rbdock ($Id: //depot/dev/client3/rdock/2013.1/src/exe/rbdock.cxx#4 $)

>  <Rbt.Library>
libRbt.so (2013.1, Build901 2013/11/27)

>  <Rbt.Parameter_File>
/export/apps/rDock/src/rDock_2013.1_src/data/scripts/dock_solv.prm

>  <Rbt.Receptor>
prm/blind_docking_20.prm

>  <SCORE>
-25.5361

>  <SCORE.INTER>
-25.5416

>  <SCORE.INTER.CONST>
1

>  <SCORE.INTER.POLAR>
-1.93632

>  <SCORE.INTER.ROT>
0

>  <SCORE.INTER.SOLV>
11.5052

>  <SCORE.INTER.VDW>
-18.0084

>  <SCORE.INTER.norm>
-2.55416

>  <SCORE.INTRA>
0

>  <SCORE.INTRA.DIHEDRAL>
0

>  <SCORE.INTRA.DIHEDRAL.0>
0

>  <SCORE.INTRA.POLAR>
0

>  <SCORE.INTRA.POLAR.0>
0

>  <SCORE.INTRA.REPUL>
0

>  <SCORE.INTRA.REPUL.0>
0

>  <SCORE.INTRA.SOLV>
0

>  <SCORE.INTRA.SOLV.lig_0>
-13.7928

>  <SCORE.INTRA.VDW>
0

>  <SCORE.INTRA.VDW.0>
0

>  <SCORE.INTRA.norm>
0

>  <SCORE.RESTR>
0.00548154

>  <SCORE.RESTR.CAVITY>
0.00548154

>  <SCORE.RESTR.norm>
0.000548154

>  <SCORE.SYSTEM>
0

>  <SCORE.SYSTEM.CONST>
0

>  <SCORE.SYSTEM.DIHEDRAL>
0

>  <SCORE.SYSTEM.SOLV>
0

>  <SCORE.SYSTEM.norm>
0

>  <SCORE.heavy>
10

>  <SCORE.norm>
-2.55361

>  <RMSD>
0.165

$$$$
1u8d_lig
 OpenBabel11021811413D
libRbt.so/2013.1/901 2013/11/27
 10 11  0  0  0  0  0  0  0  0999 V2000
   11.7131   10.4895    9.2808 N   0  0  0  0  0  0  0  0  0  0  0  0
   11.3698   11.8326    9.5118 C   0  0  0  0  0  0  0  0  0  0  0  0
   11.0413   12.7021    8.5225 N   0  0  0  0  0  0  0  0  0  0  0  0
   11.0774   12.1376    7.2959 C   0  0  0  0  0  0  0  0  0  0  0  0
   11.4459   10.6890    6.9805 C   0  0  0  0  0  0  0  0  0  0  0  0
   11.7798    9.8302    8.0391 C   0  0  0  0  0  0  0  0  0  0  0  0
   12.0969    8.6487    8.0180 O   0  0  0  0  0  0  0  0  0  0  0  0
   11.3570   10.5471    5.6229 N   0  0  0  0  0  0  0  0  0  0  0  0
   10.9646   11.7586    5.1082 C   0  0  0  0  0  0  0  0  0  0  0  0
   10.7886   12.7363    6.0838 N   0  0  0  0  0  0  0  0  0  0  0  0
  1  2  1  0  0  0  0
  1  6  1  0  0  0  0
  2  3  2  0  0  0  0
  3  4  1  0  0  0  0
  4  5  2  0  0  0  0
  4 10  1  0  0  0  0
  5  6  1  0  0  0  0
  5  8  1  0  0  0  0
  6  7  2  0  0  0  0
  8  9  1  0  0  0  0
  9 10  2  0  0  0  0
M  END
>  <CHROM.1>
11.37406320,11.10172922,7.45721281,0.62060777,-1.28824105,1.23488359

>  <Name>
1u8d_lig

>  <RI>
0

>  <Rbt.Current_Directory>
/home/itssahil/PROJECTS/Mol_Feturizer/New_Systems/rnas/1u8d

>  <Rbt.Executable>
rbdock ($Id: //depot/dev/client3/rdock/2013.1/src/exe/rbdock.cxx#4 $)

>  <Rbt.Library>
libRbt.so (2013.1, Build901 2013/11/27)

>  <Rbt.Parameter_File>
/export/apps/rDock/src/rDock_2013.1_src/data/scripts/dock_solv.prm

>  <Rbt.Receptor>
prm/pocket_docking_6.prm

>  <SCORE>
-25.9018

>  <SCORE.INTER>
-25.9018

>  <SCORE.INTER.CONST>
1

>  <SCORE.INTER.POLAR>
-1.93632

>  <SCORE.INTER.ROT>
0

>  <SCORE.INTER.SOLV>
11.5528

>  <SCORE.INTER.VDW>
-18.2644

>  <SCORE.INTER.norm>
-2.59018

>  <SCORE.INTRA>
0

>  <SCORE.INTRA.DIHEDRAL>
0

>  <SCORE.INTRA.DIHEDRAL.0>
0

>  <SCORE.INTRA.POLAR>
0

>  <SCORE.INTRA.POLAR.0>
0

>  <SCORE.INTRA.REPUL>
0

>  <SCORE.INTRA.REPUL.0>
0

>  <SCORE.INTRA.SOLV>
0

>  <SCORE.INTRA.SOLV.lig_0>
-13.7928

>  <SCORE.INTRA.VDW>
0

>  <SCORE.INTRA.VDW.0>
0

>  <SCORE.INTRA.norm>
0

>  <SCORE.RESTR>
0

>  <SCORE.RESTR.CAVITY>
0

>  <SCORE.RESTR.norm>
0

>  <SCORE.SYSTEM>
0

>  <SCORE.SYSTEM.CONST>
0

>  <SCORE.SYSTEM.DIHEDRAL>
0

>  <SCORE.SYSTEM.SOLV>
0

>  <SCORE.SYSTEM.norm>
0

>  <SCORE.heavy>
10

>  <SCORE.norm>
-2.59018

>  <RMSD>
0.177

$$$$
1u8d_lig
 OpenBabel11021811413D
libRbt.so/2013.1/901 2013/11/27
 10 11  0  0  0  0  0  0  0  0999 V2000
   11.7017   10.5054    9.2482 N   0  0  0  0  0  0  0  0  0  0  0  0
   11.3692   11.8515    9.4770 C   0  0  0  0  0  0  0  0  0  0  0  0
   11.0505   12.7229    8.4861 N   0  0  0  0  0  0  0  0  0  0  0  0
   11.0850   12.1569    7.2602 C   0  0  0  0  0  0  0  0  0  0  0  0
   11.4421   10.7050    6.9470 C   0  0  0  0  0  0  0  0  0  0  0  0
   11.7660    9.8443    8.0072 C   0  0  0  0  0  0  0  0  0  0  0  0
   12.0732    8.6603    7.9880 O   0  0  0  0  0  0  0  0  0  0  0  0
   11.3554   10.5626    5.5892 N   0  0  0  0  0  0  0  0  0  0  0  0
   10.9746   11.7769    5.0725 C   0  0  0  0  0  0  0  0  0  0  0  0
   10.8044   12.7569    6.0467 N   0  0  0  0  0  0  0  0  0  0  0  0
  1  2  1  0  0  0  0
  1  6  1  0  0  0  0
  2  3  2  0  0  0  0
  3  4  1  0  0  0  0
  4  5  2  0  0  0  0
  4 10  1  0  0  0  0
  5  6  1  0  0  0  0
  5  8  1  0  0  0  0
  6  7  2  0  0  0  0
  8  9  1  0  0  0  0
  9 10  2  0  0  0  0
M  END
>  <CHROM.1>
11.37251405,11.11874410,7.42312667,0.61918653,-1.29704015,1.23261798

>  <Name>
1u8d_lig

>  <RI>
0

>  <Rbt.Current_Directory>
/home/itssahil/PROJECTS/Mol_Feturizer/New_Systems/rnas/1u8d

>  <Rbt.Executable>
rbdock ($Id: //depot/dev/client3/rdock/2013.1/src/exe/rbdock.cxx#4 $)

>  <Rbt.Library>
libRbt.so (2013.1, Build901 2013/11/27)

>  <Rbt.Parameter_File>
/export/apps/rDock/src/rDock_2013.1_src/data/scripts/dock_solv.prm

>  <Rbt.Receptor>
prm/pocket_docking_3.prm

>  <SCORE>
-25.8923

>  <SCORE.INTER>
-25.8923

>  <SCORE.INTER.CONST>
1

>  <SCORE.INTER.POLAR>
-1.93632

>  <SCORE.INTER.ROT>
0

>  <SCORE.INTER.SOLV>
11.585

>  <SCORE.INTER.VDW>
-18.2688

>  <SCORE.INTER.norm>
-2.58923

>  <SCORE.INTRA>
0

>  <SCORE.INTRA.DIHEDRAL>
0

>  <SCORE.INTRA.DIHEDRAL.0>
0

>  <SCORE.INTRA.POLAR>
0

>  <SCORE.INTRA.POLAR.0>
0

>  <SCORE.INTRA.REPUL>
0

>  <SCORE.INTRA.REPUL.0>
0

>  <SCORE.INTRA.SOLV>
0

>  <SCORE.INTRA.SOLV.lig_0>
-13.7928

>  <SCORE.INTRA.VDW>
0

>  <SCORE.INTRA.VDW.0>
0

>  <SCORE.INTRA.norm>
0

>  <SCORE.RESTR>
0

>  <SCORE.RESTR.CAVITY>
0

>  <SCORE.RESTR.norm>
0

>  <SCORE.SYSTEM>
0

>  <SCORE.SYSTEM.CONST>
0

>  <SCORE.SYSTEM.DIHEDRAL>
0

>  <SCORE.SYSTEM.SOLV>
0

>  <SCORE.SYSTEM.norm>
0

>  <SCORE.heavy>
10

>  <SCORE.norm>
-2.58923

>  <RMSD>
0.179

$$$$
1u8d_lig
 OpenBabel11021811413D
libRbt.so/2013.1/901 2013/11/27
 10 11  0  0  0  0  0  0  0  0999 V2000
   11.7365   10.4863    9.2852 N   0  0  0  0  0  0  0  0  0  0  0  0
   11.4211   11.8374    9.5088 C   0  0  0  0  0  0  0  0  0  0  0  0
   11.1004   12.7057    8.5159 N   0  0  0  0  0  0  0  0  0  0  0  0
   11.1147   12.1314    7.2934 C   0  0  0  0  0  0  0  0  0  0  0  0
   11.4526   10.6737    6.9858 C   0  0  0  0  0  0  0  0  0  0  0  0
   11.7794    9.8165    8.0480 C   0  0  0  0  0  0  0  0  0  0  0  0
   12.0737    8.6291    8.0331 O   0  0  0  0  0  0  0  0  0  0  0  0
   11.3489   10.5234    5.6301 N   0  0  0  0  0  0  0  0  0  0  0  0
   10.9752   11.7383    5.1097 C   0  0  0  0  0  0  0  0  0  0  0  0
   10.8267   12.7265    6.0793 N   0  0  0  0  0  0  0  0  0  0  0  0
  1  2  1  0  0  0  0
  1  6  1  0  0  0  0
  2  3  2  0  0  0  0
  3  4  1  0  0  0  0
  4  5  2  0  0  0  0
  4 10  1  0  0  0  0
  5  6  1  0  0  0  0
  5  8  1  0  0  0  0
  6  7  2  0  0  0  0
  8  9  1  0  0  0  0
  9 10  2  0  0  0  0
M  END
>  <CHROM.1>
11.39295252,11.09126115,7.45996082,0.56482636,-1.30296719,1.17363279

>  <Name>
1u8d_lig

>  <RI>
0

>  <Rbt.Current_Directory>
/home/itssahil/PROJECTS/Mol_Feturizer/New_Systems/rnas/1u8d

>  <Rbt.Executable>
rbdock ($Id: //depot/dev/client3/rdock/2013.1/src/exe/rbdock.cxx#4 $)

>  <Rbt.Library>
libRbt.so (2013.1, Build901 2013/11/27)

>  <Rbt.Parameter_File>
/export/apps/rDock/src/rDock_2013.1_src/data/scripts/dock_solv.prm

>  <Rbt.Receptor>
prm/blind_docking_100.prm

>  <SCORE>
-26.0064

>  <SCORE.INTER>
-26.0064

>  <SCORE.INTER.CONST>
1

>  <SCORE.INTER.POLAR>
-1.93632

>  <SCORE.INTER.ROT>
0

>  <SCORE.INTER.SOLV>
11.5618

>  <SCORE.INTER.VDW>
-18.3372

>  <SCORE.INTER.norm>
-2.60064

>  <SCORE.INTRA>
0

>  <SCORE.INTRA.DIHEDRAL>
0

>  <SCORE.INTRA.DIHEDRAL.0>
0

>  <SCORE.INTRA.POLAR>
0

>  <SCORE.INTRA.POLAR.0>
0

>  <SCORE.INTRA.REPUL>
0

>  <SCORE.INTRA.REPUL.0>
0

>  <SCORE.INTRA.SOLV>
0

>  <SCORE.INTRA.SOLV.lig_0>
-13.7928

>  <SCORE.INTRA.VDW>
0

>  <SCORE.INTRA.VDW.0>
0

>  <SCORE.INTRA.norm>
0

>  <SCORE.RESTR>
0

>  <SCORE.RESTR.CAVITY>
0

>  <SCORE.RESTR.norm>
0

>  <SCORE.SYSTEM>
0

>  <SCORE.SYSTEM.CONST>
0

>  <SCORE.SYSTEM.DIHEDRAL>
0

>  <SCORE.SYSTEM.SOLV>
0

>  <SCORE.SYSTEM.norm>
0

>  <SCORE.heavy>
10

>  <SCORE.norm>
-2.60064

>  <RMSD>
0.180

$$$$
1u8d_lig
 OpenBabel11021811413D
libRbt.so/2013.1/901 2013/11/27
 10 11  0  0  0  0  0  0  0  0999 V2000
   11.8308   10.5150    9.1976 N   0  0  0  0  0  0  0  0  0  0  0  0
   11.5598   11.8779    9.4072 C   0  0  0  0  0  0  0  0  0  0  0  0
   11.2181   12.7350    8.4115 N   0  0  0  0  0  0  0  0  0  0  0  0
   11.1643   12.1371    7.2015 C   0  0  0  0  0  0  0  0  0  0  0  0
   11.4514   10.6654    6.9094 C   0  0  0  0  0  0  0  0  0  0  0  0
   11.8026    9.8206    7.9736 C   0  0  0  0  0  0  0  0  0  0  0  0
   12.0657    8.6258    7.9703 O   0  0  0  0  0  0  0  0  0  0  0  0
   11.2846   10.4918    5.5628 N   0  0  0  0  0  0  0  0  0  0  0  0
   10.9193   11.7059    5.0344 C   0  0  0  0  0  0  0  0  0  0  0  0
   10.8385   12.7160    5.9891 N   0  0  0  0  0  0  0  0  0  0  0  0
  1  2  1  0  0  0  0
  1  6  1  0  0  0  0
  2  3  2  0  0  0  0
  3  4  1  0  0  0  0
  4  5  2  0  0  0  0
  4 10  1  0  0  0  0
  5  6  1  0  0  0  0
  5  8  1  0  0  0  0
  6  7  2  0  0  0  0
  8  9  1  0  0  0  0
  9 10  2  0  0  0  0
M  END
>  <CHROM.1>
11.42311945,11.09344889,7.37706424,0.37278097,-1.30472131,0.96852662

>  <Name>
1u8d_lig

>  <RI>
0

>  <Rbt.Current_Directory>
/home/itssahil/PROJECTS/Mol_Feturizer/New_Systems/rnas/1u8d

>  <Rbt.Executable>
rbdock ($Id: //depot/dev/client3/rdock/2013.1/src/exe/rbdock.cxx#4 $)

>  <Rbt.Library>
libRbt.so (2013.1, Build901 2013/11/27)

>  <Rbt.Parameter_File>
/export/apps/rDock/src/rDock_2013.1_src/data/scripts/dock_solv.prm

>  <Rbt.Receptor>
prm/pocket_docking_3.prm

>  <SCORE>
-26.0503

>  <SCORE.INTER>
-26.0503

>  <SCORE.INTER.CONST>
1

>  <SCORE.INTER.POLAR>
-1.93632

>  <SCORE.INTER.ROT>
0

>  <SCORE.INTER.SOLV>
11.5073

>  <SCORE.INTER.VDW>
-18.3482

>  <SCORE.INTER.norm>
-2.60503

>  <SCORE.INTRA>
0

>  <SCORE.INTRA.DIHEDRAL>
0

>  <SCORE.INTRA.DIHEDRAL.0>
0

>  <SCORE.INTRA.POLAR>
0

>  <SCORE.INTRA.POLAR.0>
0

>  <SCORE.INTRA.REPUL>
0

>  <SCORE.INTRA.REPUL.0>
0

>  <SCORE.INTRA.SOLV>
0

>  <SCORE.INTRA.SOLV.lig_0>
-13.7928

>  <SCORE.INTRA.VDW>
0

>  <SCORE.INTRA.VDW.0>
0

>  <SCORE.INTRA.norm>
0

>  <SCORE.RESTR>
0

>  <SCORE.RESTR.CAVITY>
0

>  <SCORE.RESTR.norm>
0

>  <SCORE.SYSTEM>
0

>  <SCORE.SYSTEM.CONST>
0

>  <SCORE.SYSTEM.DIHEDRAL>
0

>  <SCORE.SYSTEM.SOLV>
0

>  <SCORE.SYSTEM.norm>
0

>  <SCORE.heavy>
10

>  <SCORE.norm>
-2.60503

>  <RMSD>
0.180

$$$$
1u8d_lig
 OpenBabel11021811413D
libRbt.so/2013.1/901 2013/11/27
 10 11  0  0  0  0  0  0  0  0999 V2000
   11.7917   10.5686    9.1851 N   0  0  0  0  0  0  0  0  0  0  0  0
   11.5260   11.9345    9.3822 C   0  0  0  0  0  0  0  0  0  0  0  0
   11.2008   12.7867    8.3769 N   0  0  0  0  0  0  0  0  0  0  0  0
   11.1578   12.1809    7.1704 C   0  0  0  0  0  0  0  0  0  0  0  0
   11.4399   10.7056    6.8916 C   0  0  0  0  0  0  0  0  0  0  0  0
   11.7739    9.8661    7.9655 C   0  0  0  0  0  0  0  0  0  0  0  0
   12.0303    8.6699    7.9733 O   0  0  0  0  0  0  0  0  0  0  0  0
   11.2879   10.5239    5.5443 N   0  0  0  0  0  0  0  0  0  0  0  0
   10.9358   11.7363    5.0035 C   0  0  0  0  0  0  0  0  0  0  0  0
   10.8495   12.7534    5.9504 N   0  0  0  0  0  0  0  0  0  0  0  0
  1  2  1  0  0  0  0
  1  6  1  0  0  0  0
  2  3  2  0  0  0  0
  3  4  1  0  0  0  0
  4  5  2  0  0  0  0
  4 10  1  0  0  0  0
  5  6  1  0  0  0  0
  5  8  1  0  0  0  0
  6  7  2  0  0  0  0
  8  9  1  0  0  0  0
  9 10  2  0  0  0  0
M  END
>  <CHROM.1>
11.40863879,11.13702602,7.35598897,0.39832072,-1.31594093,0.98645110

>  <Name>
1u8d_lig

>  <RI>
0

>  <Rbt.Current_Directory>
/home/itssahil/PROJECTS/Mol_Feturizer/New_Systems/rnas/1u8d

>  <Rbt.Executable>
rbdock ($Id: //depot/dev/client3/rdock/2013.1/src/exe/rbdock.cxx#4 $)

>  <Rbt.Library>
libRbt.so (2013.1, Build901 2013/11/27)

>  <Rbt.Parameter_File>
/export/apps/rDock/src/rDock_2013.1_src/data/scripts/dock_solv.prm

>  <Rbt.Receptor>
prm/pocket_docking_6.prm

>  <SCORE>
-26.0638

>  <SCORE.INTER>
-26.0638

>  <SCORE.INTER.CONST>
1

>  <SCORE.INTER.POLAR>
-1.93632

>  <SCORE.INTER.ROT>
0

>  <SCORE.INTER.SOLV>
11.5658

>  <SCORE.INTER.VDW>
-18.3767

>  <SCORE.INTER.norm>
-2.60638

>  <SCORE.INTRA>
0

>  <SCORE.INTRA.DIHEDRAL>
0

>  <SCORE.INTRA.DIHEDRAL.0>
0

>  <SCORE.INTRA.POLAR>
0

>  <SCORE.INTRA.POLAR.0>
0

>  <SCORE.INTRA.REPUL>
0

>  <SCORE.INTRA.REPUL.0>
0

>  <SCORE.INTRA.SOLV>
0

>  <SCORE.INTRA.SOLV.lig_0>
-13.7928

>  <SCORE.INTRA.VDW>
0

>  <SCORE.INTRA.VDW.0>
0

>  <SCORE.INTRA.norm>
0

>  <SCORE.RESTR>
0

>  <SCORE.RESTR.CAVITY>
0

>  <SCORE.RESTR.norm>
0

>  <SCORE.SYSTEM>
0

>  <SCORE.SYSTEM.CONST>
0

>  <SCORE.SYSTEM.DIHEDRAL>
0

>  <SCORE.SYSTEM.SOLV>
0

>  <SCORE.SYSTEM.norm>
0

>  <SCORE.heavy>
10

>  <SCORE.norm>
-2.60638

>  <RMSD>
0.181

$$$$
1u8d_lig
 OpenBabel11021811413D
libRbt.so/2013.1/901 2013/11/27
 10 11  0  0  0  0  0  0  0  0999 V2000
   11.7860   10.5250    9.1753 N   0  0  0  0  0  0  0  0  0  0  0  0
   11.4971   11.8840    9.3866 C   0  0  0  0  0  0  0  0  0  0  0  0
   11.1644   12.7426    8.3892 N   0  0  0  0  0  0  0  0  0  0  0  0
   11.1386   12.1504    7.1755 C   0  0  0  0  0  0  0  0  0  0  0  0
   11.4463   10.6833    6.8814 C   0  0  0  0  0  0  0  0  0  0  0  0
   11.7870    9.8367    7.9476 C   0  0  0  0  0  0  0  0  0  0  0  0
   12.0626    8.6447    7.9430 O   0  0  0  0  0  0  0  0  0  0  0  0
   11.3056   10.5149    5.5311 N   0  0  0  0  0  0  0  0  0  0  0  0
   10.9373   11.7278    5.0022 C   0  0  0  0  0  0  0  0  0  0  0  0
   10.8287   12.7322    5.9603 N   0  0  0  0  0  0  0  0  0  0  0  0
  1  2  1  0  0  0  0
  1  6  1  0  0  0  0
  2  3  2  0  0  0  0
  3  4  1  0  0  0  0
  4  5  2  0  0  0  0
  4 10  1  0  0  0  0
  5  6  1  0  0  0  0
  5  8  1  0  0  0  0
  6  7  2  0  0  0  0
  8  9  1  0  0  0  0
  9 10  2  0  0  0  0
M  END
>  <CHROM.1>
11.40513184,11.10859889,7.35054396,0.45204748,-1.30554032,1.05006164

>  <Name>
1u8d_lig

>  <RI>
0

>  <Rbt.Current_Directory>
/home/itssahil/PROJECTS/Mol_Feturizer/New_Systems/rnas/1u8d

>  <Rbt.Executable>
rbdock ($Id: //depot/dev/client3/rdock/2013.1/src/exe/rbdock.cxx#4 $)

>  <Rbt.Library>
libRbt.so (2013.1, Build901 2013/11/27)

>  <Rbt.Parameter_File>
/export/apps/rDock/src/rDock_2013.1_src/data/scripts/dock_solv.prm

>  <Rbt.Receptor>
prm/blind_docking_40.prm

>  <SCORE>
-25.9914

>  <SCORE.INTER>
-25.9914

>  <SCORE.INTER.CONST>
1

>  <SCORE.INTER.POLAR>
-1.93632

>  <SCORE.INTER.ROT>
0

>  <SCORE.INTER.SOLV>
11.5499

>  <SCORE.INTER.VDW>
-18.3232

>  <SCORE.INTER.norm>
-2.59914

>  <SCORE.INTRA>
0

>  <SCORE.INTRA.DIHEDRAL>
0

>  <SCORE.INTRA.DIHEDRAL.0>
0

>  <SCORE.INTRA.POLAR>
0

>  <SCORE.INTRA.POLAR.0>
0

>  <SCORE.INTRA.REPUL>
0

>  <SCORE.INTRA.REPUL.0>
0

>  <SCORE.INTRA.SOLV>
0

>  <SCORE.INTRA.SOLV.lig_0>
-13.7928

>  <SCORE.INTRA.VDW>
0

>  <SCORE.INTRA.VDW.0>
0

>  <SCORE.INTRA.norm>
0

>  <SCORE.RESTR>
0

>  <SCORE.RESTR.CAVITY>
0

>  <SCORE.RESTR.norm>
0

>  <SCORE.SYSTEM>
0

>  <SCORE.SYSTEM.CONST>
0

>  <SCORE.SYSTEM.DIHEDRAL>
0

>  <SCORE.SYSTEM.SOLV>
0

>  <SCORE.SYSTEM.norm>
0

>  <SCORE.heavy>
10

>  <SCORE.norm>
-2.59914

>  <RMSD>
0.182

$$$$
1u8d_lig
 OpenBabel11021811413D
libRbt.so/2013.1/901 2013/11/27
 10 11  0  0  0  0  0  0  0  0999 V2000
   11.8015   10.5664    9.1801 N   0  0  0  0  0  0  0  0  0  0  0  0
   11.5364   11.9319    9.3805 C   0  0  0  0  0  0  0  0  0  0  0  0
   11.2060   12.7855    8.3780 N   0  0  0  0  0  0  0  0  0  0  0  0
   11.1572   12.1813    7.1709 C   0  0  0  0  0  0  0  0  0  0  0  0
   11.4383   10.7065    6.8886 C   0  0  0  0  0  0  0  0  0  0  0  0
   11.7778    9.8656    7.9597 C   0  0  0  0  0  0  0  0  0  0  0  0
   12.0345    8.6695    7.9646 O   0  0  0  0  0  0  0  0  0  0  0  0
   11.2797   10.5265    5.5419 N   0  0  0  0  0  0  0  0  0  0  0  0
   10.9245   11.7397    5.0045 C   0  0  0  0  0  0  0  0  0  0  0  0
   10.8427   12.7554    5.9532 N   0  0  0  0  0  0  0  0  0  0  0  0
  1  2  1  0  0  0  0
  1  6  1  0  0  0  0
  2  3  2  0  0  0  0
  3  4  1  0  0  0  0
  4  5  2  0  0  0  0
  4 10  1  0  0  0  0
  5  6  1  0  0  0  0
  5  8  1  0  0  0  0
  6  7  2  0  0  0  0
  8  9  1  0  0  0  0
  9 10  2  0  0  0  0
M  END
>  <CHROM.1>
11.40919830,11.13725416,7.35377443,0.38265900,-1.31294977,0.97267975

>  <Name>
1u8d_lig

>  <RI>
0

>  <Rbt.Current_Directory>
/home/itssahil/PROJECTS/Mol_Feturizer/New_Systems/rnas/1u8d

>  <Rbt.Executable>
rbdock ($Id: //depot/dev/client3/rdock/2013.1/src/exe/rbdock.cxx#4 $)

>  <Rbt.Library>
libRbt.so (2013.1, Build901 2013/11/27)

>  <Rbt.Parameter_File>
/export/apps/rDock/src/rDock_2013.1_src/data/scripts/dock_solv.prm

>  <Rbt.Receptor>
prm/pocket_docking_8.prm

>  <SCORE>
-26.0732

>  <SCORE.INTER>
-26.0732

>  <SCORE.INTER.CONST>
1

>  <SCORE.INTER.POLAR>
-1.93632

>  <SCORE.INTER.ROT>
0

>  <SCORE.INTER.SOLV>
11.5508

>  <SCORE.INTER.VDW>
-18.378

>  <SCORE.INTER.norm>
-2.60732

>  <SCORE.INTRA>
0

>  <SCORE.INTRA.DIHEDRAL>
0

>  <SCORE.INTRA.DIHEDRAL.0>
0

>  <SCORE.INTRA.POLAR>
0

>  <SCORE.INTRA.POLAR.0>
0

>  <SCORE.INTRA.REPUL>
0

>  <SCORE.INTRA.REPUL.0>
0

>  <SCORE.INTRA.SOLV>
0

>  <SCORE.INTRA.SOLV.lig_0>
-13.7928

>  <SCORE.INTRA.VDW>
0

>  <SCORE.INTRA.VDW.0>
0

>  <SCORE.INTRA.norm>
0

>  <SCORE.RESTR>
0

>  <SCORE.RESTR.CAVITY>
0

>  <SCORE.RESTR.norm>
0

>  <SCORE.SYSTEM>
0

>  <SCORE.SYSTEM.CONST>
0

>  <SCORE.SYSTEM.DIHEDRAL>
0

>  <SCORE.SYSTEM.SOLV>
0

>  <SCORE.SYSTEM.norm>
0

>  <SCORE.heavy>
10

>  <SCORE.norm>
-2.60732

>  <RMSD>
0.182

$$$$
1u8d_lig
 OpenBabel11021811413D
libRbt.so/2013.1/901 2013/11/27
 10 11  0  0  0  0  0  0  0  0999 V2000
   11.7631   10.4876    9.2791 N   0  0  0  0  0  0  0  0  0  0  0  0
   11.4660   11.8423    9.5061 C   0  0  0  0  0  0  0  0  0  0  0  0
   11.1412   12.7134    8.5170 N   0  0  0  0  0  0  0  0  0  0  0  0
   11.1319   12.1382    7.2949 C   0  0  0  0  0  0  0  0  0  0  0  0
   11.4490   10.6765    6.9838 C   0  0  0  0  0  0  0  0  0  0  0  0
   11.7811    9.8165    8.0420 C   0  0  0  0  0  0  0  0  0  0  0  0
   12.0618    8.6258    8.0240 O   0  0  0  0  0  0  0  0  0  0  0  0
   11.3245   10.5265    5.6298 N   0  0  0  0  0  0  0  0  0  0  0  0
   10.9572   11.7453    5.1137 C   0  0  0  0  0  0  0  0  0  0  0  0
   10.8335   12.7357    6.0844 N   0  0  0  0  0  0  0  0  0  0  0  0
  1  2  1  0  0  0  0
  1  6  1  0  0  0  0
  2  3  2  0  0  0  0
  3  4  1  0  0  0  0
  4  5  2  0  0  0  0
  4 10  1  0  0  0  0
  5  6  1  0  0  0  0
  5  8  1  0  0  0  0
  6  7  2  0  0  0  0
  8  9  1  0  0  0  0
  9 10  2  0  0  0  0
M  END
>  <CHROM.1>
11.40072872,11.09511086,7.45839567,0.49828009,-1.30732698,1.10867445

>  <Name>
1u8d_lig

>  <RI>
0

>  <Rbt.Current_Directory>
/home/itssahil/PROJECTS/Mol_Feturizer/New_Systems/rnas/1u8d

>  <Rbt.Executable>
rbdock ($Id: //depot/dev/client3/rdock/2013.1/src/exe/rbdock.cxx#4 $)

>  <Rbt.Library>
libRbt.so (2013.1, Build901 2013/11/27)

>  <Rbt.Parameter_File>
/export/apps/rDock/src/rDock_2013.1_src/data/scripts/dock_solv.prm

>  <Rbt.Receptor>
prm/blind_docking_40.prm

>  <SCORE>
-26.05

>  <SCORE.INTER>
-26.05

>  <SCORE.INTER.CONST>
1

>  <SCORE.INTER.POLAR>
-1.93632

>  <SCORE.INTER.ROT>
0

>  <SCORE.INTER.SOLV>
11.5431

>  <SCORE.INTER.VDW>
-18.36

>  <SCORE.INTER.norm>
-2.605

>  <SCORE.INTRA>
0

>  <SCORE.INTRA.DIHEDRAL>
0

>  <SCORE.INTRA.DIHEDRAL.0>
0

>  <SCORE.INTRA.POLAR>
0

>  <SCORE.INTRA.POLAR.0>
0

>  <SCORE.INTRA.REPUL>
0

>  <SCORE.INTRA.REPUL.0>
0

>  <SCORE.INTRA.SOLV>
0

>  <SCORE.INTRA.SOLV.lig_0>
-13.7928

>  <SCORE.INTRA.VDW>
0

>  <SCORE.INTRA.VDW.0>
0

>  <SCORE.INTRA.norm>
0

>  <SCORE.RESTR>
0

>  <SCORE.RESTR.CAVITY>
0

>  <SCORE.RESTR.norm>
0

>  <SCORE.SYSTEM>
0

>  <SCORE.SYSTEM.CONST>
0

>  <SCORE.SYSTEM.DIHEDRAL>
0

>  <SCORE.SYSTEM.SOLV>
0

>  <SCORE.SYSTEM.norm>
0

>  <SCORE.heavy>
10

>  <SCORE.norm>
-2.605

>  <RMSD>
0.183

$$$$
1u8d_lig
 OpenBabel11021811413D
libRbt.so/2013.1/901 2013/11/27
 10 11  0  0  0  0  0  0  0  0999 V2000
   11.7309   10.4847    9.2801 N   0  0  0  0  0  0  0  0  0  0  0  0
   11.4144   11.8350    9.5067 C   0  0  0  0  0  0  0  0  0  0  0  0
   11.0967   12.7061    8.5152 N   0  0  0  0  0  0  0  0  0  0  0  0
   11.1150   12.1353    7.2911 C   0  0  0  0  0  0  0  0  0  0  0  0
   11.4543   10.6786    6.9805 C   0  0  0  0  0  0  0  0  0  0  0  0
   11.7780    9.8185    8.0412 C   0  0  0  0  0  0  0  0  0  0  0  0
   12.0727    8.6312    8.0238 O   0  0  0  0  0  0  0  0  0  0  0  0
   11.3550   10.5321    5.6240 N   0  0  0  0  0  0  0  0  0  0  0  0
   10.9826   11.7485    5.1059 C   0  0  0  0  0  0  0  0  0  0  0  0
   10.8307   12.7338    6.0778 N   0  0  0  0  0  0  0  0  0  0  0  0
  1  2  1  0  0  0  0
  1  6  1  0  0  0  0
  2  3  2  0  0  0  0
  3  4  1  0  0  0  0
  4  5  2  0  0  0  0
  4 10  1  0  0  0  0
  5  6  1  0  0  0  0
  5  8  1  0  0  0  0
  6  7  2  0  0  0  0
  8  9  1  0  0  0  0
  9 10  2  0  0  0  0
M  END
>  <CHROM.1>
11.39304654,11.09477450,7.45559162,0.57637597,-1.30391468,1.18764987

>  <Name>
1u8d_lig

>  <RI>
0

>  <Rbt.Current_Directory>
/home/itssahil/PROJECTS/Mol_Feturizer/New_Systems/rnas/1u8d

>  <Rbt.Executable>
rbdock ($Id: //depot/dev/client3/rdock/2013.1/src/exe/rbdock.cxx#4 $)

>  <Rbt.Library>
libRbt.so (2013.1, Build901 2013/11/27)

>  <Rbt.Parameter_File>
/export/apps/rDock/src/rDock_2013.1_src/data/scripts/dock_solv.prm

>  <Rbt.Receptor>
prm/blind_docking_80.prm

>  <SCORE>
-25.9988

>  <SCORE.INTER>
-25.9988

>  <SCORE.INTER.CONST>
1

>  <SCORE.INTER.POLAR>
-1.93632

>  <SCORE.INTER.ROT>
0

>  <SCORE.INTER.SOLV>
11.5656

>  <SCORE.INTER.VDW>
-18.3334

>  <SCORE.INTER.norm>
-2.59988

>  <SCORE.INTRA>
0

>  <SCORE.INTRA.DIHEDRAL>
0

>  <SCORE.INTRA.DIHEDRAL.0>
0

>  <SCORE.INTRA.POLAR>
0

>  <SCORE.INTRA.POLAR.0>
0

>  <SCORE.INTRA.REPUL>
0

>  <SCORE.INTRA.REPUL.0>
0

>  <SCORE.INTRA.SOLV>
0

>  <SCORE.INTRA.SOLV.lig_0>
-13.7928

>  <SCORE.INTRA.VDW>
0

>  <SCORE.INTRA.VDW.0>
0

>  <SCORE.INTRA.norm>
0

>  <SCORE.RESTR>
0

>  <SCORE.RESTR.CAVITY>
0

>  <SCORE.RESTR.norm>
0

>  <SCORE.SYSTEM>
0

>  <SCORE.SYSTEM.CONST>
0

>  <SCORE.SYSTEM.DIHEDRAL>
0

>  <SCORE.SYSTEM.SOLV>
0

>  <SCORE.SYSTEM.norm>
0

>  <SCORE.heavy>
10

>  <SCORE.norm>
-2.59988

>  <RMSD>
0.183

$$$$
1u8d_lig
 OpenBabel11021811413D
libRbt.so/2013.1/901 2013/11/27
 10 11  0  0  0  0  0  0  0  0999 V2000
   11.6648   10.5351    9.2436 N   0  0  0  0  0  0  0  0  0  0  0  0
   11.3553   11.8903    9.4502 C   0  0  0  0  0  0  0  0  0  0  0  0
   11.0599   12.7526    8.4442 N   0  0  0  0  0  0  0  0  0  0  0  0
   11.0929   12.1680    7.2270 C   0  0  0  0  0  0  0  0  0  0  0  0
   11.4257   10.7053    6.9379 C   0  0  0  0  0  0  0  0  0  0  0  0
   11.7260    9.8547    8.0130 C   0  0  0  0  0  0  0  0  0  0  0  0
   12.0117    8.6651    8.0135 O   0  0  0  0  0  0  0  0  0  0  0  0
   11.3464   10.5444    5.5817 N   0  0  0  0  0  0  0  0  0  0  0  0
   10.9916   11.7576    5.0443 C   0  0  0  0  0  0  0  0  0  0  0  0
   10.8322   12.7549    6.0028 N   0  0  0  0  0  0  0  0  0  0  0  0
  1  2  1  0  0  0  0
  1  6  1  0  0  0  0
  2  3  2  0  0  0  0
  3  4  1  0  0  0  0
  4  5  2  0  0  0  0
  4 10  1  0  0  0  0
  5  6  1  0  0  0  0
  5  8  1  0  0  0  0
  6  7  2  0  0  0  0
  8  9  1  0  0  0  0
  9 10  2  0  0  0  0
M  END
>  <CHROM.1>
11.36021691,11.12725260,7.40733507,0.62246910,-1.31672557,1.22101992

>  <Name>
1u8d_lig

>  <RI>
0

>  <Rbt.Current_Directory>
/home/itssahil/PROJECTS/Mol_Feturizer/New_Systems/rnas/1u8d

>  <Rbt.Executable>
rbdock ($Id: //depot/dev/client3/rdock/2013.1/src/exe/rbdock.cxx#4 $)

>  <Rbt.Library>
libRbt.so (2013.1, Build901 2013/11/27)

>  <Rbt.Parameter_File>
/export/apps/rDock/src/rDock_2013.1_src/data/scripts/dock_solv.prm

>  <Rbt.Receptor>
prm/pocket_docking_6.prm

>  <SCORE>
-25.8803

>  <SCORE.INTER>
-25.8803

>  <SCORE.INTER.CONST>
1

>  <SCORE.INTER.POLAR>
-1.93632

>  <SCORE.INTER.ROT>
0

>  <SCORE.INTER.SOLV>
11.6689

>  <SCORE.INTER.VDW>
-18.2888

>  <SCORE.INTER.norm>
-2.58803

>  <SCORE.INTRA>
0

>  <SCORE.INTRA.DIHEDRAL>
0

>  <SCORE.INTRA.DIHEDRAL.0>
0

>  <SCORE.INTRA.POLAR>
0

>  <SCORE.INTRA.POLAR.0>
0

>  <SCORE.INTRA.REPUL>
0

>  <SCORE.INTRA.REPUL.0>
0

>  <SCORE.INTRA.SOLV>
0

>  <SCORE.INTRA.SOLV.lig_0>
-13.7928

>  <SCORE.INTRA.VDW>
0

>  <SCORE.INTRA.VDW.0>
0

>  <SCORE.INTRA.norm>
0

>  <SCORE.RESTR>
0

>  <SCORE.RESTR.CAVITY>
0

>  <SCORE.RESTR.norm>
0

>  <SCORE.SYSTEM>
0

>  <SCORE.SYSTEM.CONST>
0

>  <SCORE.SYSTEM.DIHEDRAL>
0

>  <SCORE.SYSTEM.SOLV>
0

>  <SCORE.SYSTEM.norm>
0

>  <SCORE.heavy>
10

>  <SCORE.norm>
-2.58803

>  <RMSD>
0.183

$$$$
1u8d_lig
 OpenBabel11021811413D
libRbt.so/2013.1/901 2013/11/27
 10 11  0  0  0  0  0  0  0  0999 V2000
   11.7262   10.4870    9.2779 N   0  0  0  0  0  0  0  0  0  0  0  0
   11.4080   11.8370    9.5044 C   0  0  0  0  0  0  0  0  0  0  0  0
   11.0928   12.7085    8.5124 N   0  0  0  0  0  0  0  0  0  0  0  0
   11.1154   12.1385    7.2881 C   0  0  0  0  0  0  0  0  0  0  0  0
   11.4567   10.6822    6.9775 C   0  0  0  0  0  0  0  0  0  0  0  0
   11.7777    9.8217    8.0387 C   0  0  0  0  0  0  0  0  0  0  0  0
   12.0732    8.6346    8.0215 O   0  0  0  0  0  0  0  0  0  0  0  0
   11.3617   10.5366    5.6207 N   0  0  0  0  0  0  0  0  0  0  0  0
   10.9901   11.7530    5.1022 C   0  0  0  0  0  0  0  0  0  0  0  0
   10.8344   12.7376    6.0742 N   0  0  0  0  0  0  0  0  0  0  0  0
  1  2  1  0  0  0  0
  1  6  1  0  0  0  0
  2  3  2  0  0  0  0
  3  4  1  0  0  0  0
  4  5  2  0  0  0  0
  4 10  1  0  0  0  0
  5  6  1  0  0  0  0
  5  8  1  0  0  0  0
  6  7  2  0  0  0  0
  8  9  1  0  0  0  0
  9 10  2  0  0  0  0
M  END
>  <CHROM.1>
11.39363818,11.09809425,7.45273937,0.58851522,-1.30440883,1.20001060

>  <Name>
1u8d_lig

>  <RI>
0

>  <Rbt.Current_Directory>
/home/itssahil/PROJECTS/Mol_Feturizer/New_Systems/rnas/1u8d

>  <Rbt.Executable>
rbdock ($Id: //depot/dev/client3/rdock/2013.1/src/exe/rbdock.cxx#4 $)

>  <Rbt.Library>
libRbt.so (2013.1, Build901 2013/11/27)

>  <Rbt.Parameter_File>
/export/apps/rDock/src/rDock_2013.1_src/data/scripts/dock_solv.prm

>  <Rbt.Receptor>
prm/blind_docking_60.prm

>  <SCORE>
-25.9844

>  <SCORE.INTER>
-25.9844

>  <SCORE.INTER.CONST>
1

>  <SCORE.INTER.POLAR>
-1.93632

>  <SCORE.INTER.ROT>
0

>  <SCORE.INTER.SOLV>
11.5707

>  <SCORE.INTER.VDW>
-18.3254

>  <SCORE.INTER.norm>
-2.59844

>  <SCORE.INTRA>
0

>  <SCORE.INTRA.DIHEDRAL>
0

>  <SCORE.INTRA.DIHEDRAL.0>
0

>  <SCORE.INTRA.POLAR>
0

>  <SCORE.INTRA.POLAR.0>
0

>  <SCORE.INTRA.REPUL>
0

>  <SCORE.INTRA.REPUL.0>
0

>  <SCORE.INTRA.SOLV>
0

>  <SCORE.INTRA.SOLV.lig_0>
-13.7928

>  <SCORE.INTRA.VDW>
0

>  <SCORE.INTRA.VDW.0>
0

>  <SCORE.INTRA.norm>
0

>  <SCORE.RESTR>
0

>  <SCORE.RESTR.CAVITY>
0

>  <SCORE.RESTR.norm>
0

>  <SCORE.SYSTEM>
0

>  <SCORE.SYSTEM.CONST>
0

>  <SCORE.SYSTEM.DIHEDRAL>
0

>  <SCORE.SYSTEM.SOLV>
0

>  <SCORE.SYSTEM.norm>
0

>  <SCORE.heavy>
10

>  <SCORE.norm>
-2.59844

>  <RMSD>
0.184

$$$$
1u8d_lig
 OpenBabel11021811413D
libRbt.so/2013.1/901 2013/11/27
 10 11  0  0  0  0  0  0  0  0999 V2000
   11.6661   10.5304    9.2472 N   0  0  0  0  0  0  0  0  0  0  0  0
   11.3513   11.8841    9.4560 C   0  0  0  0  0  0  0  0  0  0  0  0
   11.0581   12.7482    8.4511 N   0  0  0  0  0  0  0  0  0  0  0  0
   11.0990   12.1672    7.2324 C   0  0  0  0  0  0  0  0  0  0  0  0
   11.4377   10.7064    6.9408 C   0  0  0  0  0  0  0  0  0  0  0  0
   11.7355    9.8537    8.0150 C   0  0  0  0  0  0  0  0  0  0  0  0
   12.0249    8.6650    8.0136 O   0  0  0  0  0  0  0  0  0  0  0  0
   11.3656   10.5491    5.5839 N   0  0  0  0  0  0  0  0  0  0  0  0
   11.0096   11.7627    5.0482 C   0  0  0  0  0  0  0  0  0  0  0  0
   10.8424   12.7568    6.0086 N   0  0  0  0  0  0  0  0  0  0  0  0
  1  2  1  0  0  0  0
  1  6  1  0  0  0  0
  2  3  2  0  0  0  0
  3  4  1  0  0  0  0
  4  5  2  0  0  0  0
  4 10  1  0  0  0  0
  5  6  1  0  0  0  0
  5  8  1  0  0  0  0
  6  7  2  0  0  0  0
  8  9  1  0  0  0  0
  9 10  2  0  0  0  0
M  END
>  <CHROM.1>
11.36864039,11.12680913,7.41113306,0.64492944,-1.31537690,1.24557885

>  <Name>
1u8d_lig

>  <RI>
0

>  <Rbt.Current_Directory>
/home/itssahil/PROJECTS/Mol_Feturizer/New_Systems/rnas/1u8d

>  <Rbt.Executable>
rbdock ($Id: //depot/dev/client3/rdock/2013.1/src/exe/rbdock.cxx#4 $)

>  <Rbt.Library>
libRbt.so (2013.1, Build901 2013/11/27)

>  <Rbt.Parameter_File>
/export/apps/rDock/src/rDock_2013.1_src/data/scripts/dock_solv.prm

>  <Rbt.Receptor>
prm/pocket_docking_5.prm

>  <SCORE>
-25.8845

>  <SCORE.INTER>
-25.8845

>  <SCORE.INTER.CONST>
1

>  <SCORE.INTER.POLAR>
-1.93632

>  <SCORE.INTER.ROT>
0

>  <SCORE.INTER.SOLV>
11.6615

>  <SCORE.INTER.VDW>
-18.2891

>  <SCORE.INTER.norm>
-2.58845

>  <SCORE.INTRA>
0

>  <SCORE.INTRA.DIHEDRAL>
0

>  <SCORE.INTRA.DIHEDRAL.0>
0

>  <SCORE.INTRA.POLAR>
0

>  <SCORE.INTRA.POLAR.0>
0

>  <SCORE.INTRA.REPUL>
0

>  <SCORE.INTRA.REPUL.0>
0

>  <SCORE.INTRA.SOLV>
0

>  <SCORE.INTRA.SOLV.lig_0>
-13.7928

>  <SCORE.INTRA.VDW>
0

>  <SCORE.INTRA.VDW.0>
0

>  <SCORE.INTRA.norm>
0

>  <SCORE.RESTR>
0

>  <SCORE.RESTR.CAVITY>
0

>  <SCORE.RESTR.norm>
0

>  <SCORE.SYSTEM>
0

>  <SCORE.SYSTEM.CONST>
0

>  <SCORE.SYSTEM.DIHEDRAL>
0

>  <SCORE.SYSTEM.SOLV>
0

>  <SCORE.SYSTEM.norm>
0

>  <SCORE.heavy>
10

>  <SCORE.norm>
-2.58845

>  <RMSD>
0.185

$$$$
1u8d_lig
 OpenBabel11021811413D
libRbt.so/2013.1/901 2013/11/27
 10 11  0  0  0  0  0  0  0  0999 V2000
   11.6915   10.5107    9.2187 N   0  0  0  0  0  0  0  0  0  0  0  0
   11.3663   11.8594    9.4427 C   0  0  0  0  0  0  0  0  0  0  0  0
   11.0561   12.7299    8.4484 N   0  0  0  0  0  0  0  0  0  0  0  0
   11.0913   12.1603    7.2241 C   0  0  0  0  0  0  0  0  0  0  0  0
   11.4408   10.7054    6.9162 C   0  0  0  0  0  0  0  0  0  0  0  0
   11.7560    9.8458    7.9798 C   0  0  0  0  0  0  0  0  0  0  0  0
   12.0563    8.6599    7.9649 O   0  0  0  0  0  0  0  0  0  0  0  0
   11.3578   10.5598    5.5585 N   0  0  0  0  0  0  0  0  0  0  0  0
   10.9859   11.7749    5.0371 C   0  0  0  0  0  0  0  0  0  0  0  0
   10.8183   12.7586    6.0081 N   0  0  0  0  0  0  0  0  0  0  0  0
  1  2  1  0  0  0  0
  1  6  1  0  0  0  0
  2  3  2  0  0  0  0
  3  4  1  0  0  0  0
  4  5  2  0  0  0  0
  4 10  1  0  0  0  0
  5  6  1  0  0  0  0
  5  8  1  0  0  0  0
  6  7  2  0  0  0  0
  8  9  1  0  0  0  0
  9 10  2  0  0  0  0
M  END
>  <CHROM.1>
11.37208156,11.12092293,7.39090277,0.62367828,-1.30374885,1.23415143

>  <Name>
1u8d_lig

>  <RI>
0

>  <Rbt.Current_Directory>
/home/itssahil/PROJECTS/Mol_Feturizer/New_Systems/rnas/1u8d

>  <Rbt.Executable>
rbdock ($Id: //depot/dev/client3/rdock/2013.1/src/exe/rbdock.cxx#4 $)

>  <Rbt.Library>
libRbt.so (2013.1, Build901 2013/11/27)

>  <Rbt.Parameter_File>
/export/apps/rDock/src/rDock_2013.1_src/data/scripts/dock_solv.prm

>  <Rbt.Receptor>
prm/blind_docking_40.prm

>  <SCORE>
-25.8852

>  <SCORE.INTER>
-25.8852

>  <SCORE.INTER.CONST>
1

>  <SCORE.INTER.POLAR>
-1.93632

>  <SCORE.INTER.ROT>
0

>  <SCORE.INTER.SOLV>
11.6152

>  <SCORE.INTER.VDW>
-18.2741

>  <SCORE.INTER.norm>
-2.58852

>  <SCORE.INTRA>
0

>  <SCORE.INTRA.DIHEDRAL>
0

>  <SCORE.INTRA.DIHEDRAL.0>
0

>  <SCORE.INTRA.POLAR>
0

>  <SCORE.INTRA.POLAR.0>
0

>  <SCORE.INTRA.REPUL>
0

>  <SCORE.INTRA.REPUL.0>
0

>  <SCORE.INTRA.SOLV>
0

>  <SCORE.INTRA.SOLV.lig_0>
-13.7928

>  <SCORE.INTRA.VDW>
0

>  <SCORE.INTRA.VDW.0>
0

>  <SCORE.INTRA.norm>
0

>  <SCORE.RESTR>
0

>  <SCORE.RESTR.CAVITY>
0

>  <SCORE.RESTR.norm>
0

>  <SCORE.SYSTEM>
0

>  <SCORE.SYSTEM.CONST>
0

>  <SCORE.SYSTEM.DIHEDRAL>
0

>  <SCORE.SYSTEM.SOLV>
0

>  <SCORE.SYSTEM.norm>
0

>  <SCORE.heavy>
10

>  <SCORE.norm>
-2.58852

>  <RMSD>
0.186

$$$$
1u8d_lig
 OpenBabel11021811413D
libRbt.so/2013.1/901 2013/11/27
 10 11  0  0  0  0  0  0  0  0999 V2000
   11.7318   10.4950    9.2835 N   0  0  0  0  0  0  0  0  0  0  0  0
   11.4097   11.8432    9.5153 C   0  0  0  0  0  0  0  0  0  0  0  0
   11.0922   12.7178    8.5269 N   0  0  0  0  0  0  0  0  0  0  0  0
   11.1168   12.1529    7.3002 C   0  0  0  0  0  0  0  0  0  0  0  0
   11.4624   10.6988    6.9838 C   0  0  0  0  0  0  0  0  0  0  0  0
   11.7855    9.8349    8.0416 C   0  0  0  0  0  0  0  0  0  0  0  0
   12.0845    8.6487    8.0197 O   0  0  0  0  0  0  0  0  0  0  0  0
   11.3682   10.5585    5.6264 N   0  0  0  0  0  0  0  0  0  0  0  0
   10.9932   11.7759    5.1127 C   0  0  0  0  0  0  0  0  0  0  0  0
   10.8345   12.7561    6.0887 N   0  0  0  0  0  0  0  0  0  0  0  0
  1  2  1  0  0  0  0
  1  6  1  0  0  0  0
  2  3  2  0  0  0  0
  3  4  1  0  0  0  0
  4  5  2  0  0  0  0
  4 10  1  0  0  0  0
  5  6  1  0  0  0  0
  5  8  1  0  0  0  0
  6  7  2  0  0  0  0
  8  9  1  0  0  0  0
  9 10  2  0  0  0  0
M  END
>  <CHROM.1>
11.39798120,11.11256658,7.46070332,0.59337235,-1.30184276,1.20876337

>  <Name>
1u8d_lig

>  <RI>
0

>  <Rbt.Current_Directory>
/home/itssahil/PROJECTS/Mol_Feturizer/New_Systems/rnas/1u8d

>  <Rbt.Executable>
rbdock ($Id: //depot/dev/client3/rdock/2013.1/src/exe/rbdock.cxx#4 $)

>  <Rbt.Library>
libRbt.so (2013.1, Build901 2013/11/27)

>  <Rbt.Parameter_File>
/export/apps/rDock/src/rDock_2013.1_src/data/scripts/dock_solv.prm

>  <Rbt.Receptor>
prm/blind_docking_40.prm

>  <SCORE>
-25.9942

>  <SCORE.INTER>
-25.9942

>  <SCORE.INTER.CONST>
1

>  <SCORE.INTER.POLAR>
-1.93632

>  <SCORE.INTER.ROT>
0

>  <SCORE.INTER.SOLV>
11.5526

>  <SCORE.INTER.VDW>
-18.3259

>  <SCORE.INTER.norm>
-2.59942

>  <SCORE.INTRA>
0

>  <SCORE.INTRA.DIHEDRAL>
0

>  <SCORE.INTRA.DIHEDRAL.0>
0

>  <SCORE.INTRA.POLAR>
0

>  <SCORE.INTRA.POLAR.0>
0

>  <SCORE.INTRA.REPUL>
0

>  <SCORE.INTRA.REPUL.0>
0

>  <SCORE.INTRA.SOLV>
0

>  <SCORE.INTRA.SOLV.lig_0>
-13.7928

>  <SCORE.INTRA.VDW>
0

>  <SCORE.INTRA.VDW.0>
0

>  <SCORE.INTRA.norm>
0

>  <SCORE.RESTR>
0

>  <SCORE.RESTR.CAVITY>
0

>  <SCORE.RESTR.norm>
0

>  <SCORE.SYSTEM>
0

>  <SCORE.SYSTEM.CONST>
0

>  <SCORE.SYSTEM.DIHEDRAL>
0

>  <SCORE.SYSTEM.SOLV>
0

>  <SCORE.SYSTEM.norm>
0

>  <SCORE.heavy>
10

>  <SCORE.norm>
-2.59942

>  <RMSD>
0.186

$$$$
1u8d_lig
 OpenBabel11021811413D
libRbt.so/2013.1/901 2013/11/27
 10 11  0  0  0  0  0  0  0  0999 V2000
   11.8322   10.5629    9.1661 N   0  0  0  0  0  0  0  0  0  0  0  0
   11.5618   11.9262    9.3742 C   0  0  0  0  0  0  0  0  0  0  0  0
   11.2185   12.7819    8.3779 N   0  0  0  0  0  0  0  0  0  0  0  0
   11.1626   12.1823    7.1688 C   0  0  0  0  0  0  0  0  0  0  0  0
   11.4490   10.7101    6.8784 C   0  0  0  0  0  0  0  0  0  0  0  0
   11.8019    9.8668    7.9432 C   0  0  0  0  0  0  0  0  0  0  0  0
   12.0649    8.6720    7.9411 O   0  0  0  0  0  0  0  0  0  0  0  0
   11.2800   10.5347    5.5323 N   0  0  0  0  0  0  0  0  0  0  0  0
   10.9140   11.7480    5.0027 C   0  0  0  0  0  0  0  0  0  0  0  0
   10.8349   12.7596    5.9562 N   0  0  0  0  0  0  0  0  0  0  0  0
  1  2  1  0  0  0  0
  1  6  1  0  0  0  0
  2  3  2  0  0  0  0
  3  4  1  0  0  0  0
  4  5  2  0  0  0  0
  4 10  1  0  0  0  0
  5  6  1  0  0  0  0
  5  8  1  0  0  0  0
  6  7  2  0  0  0  0
  8  9  1  0  0  0  0
  9 10  2  0  0  0  0
M  END
>  <CHROM.1>
11.42158353,11.13886651,7.34543422,0.36735867,-1.30388814,0.96187519

>  <Name>
1u8d_lig

>  <RI>
0

>  <Rbt.Current_Directory>
/home/itssahil/PROJECTS/Mol_Feturizer/New_Systems/rnas/1u8d

>  <Rbt.Executable>
rbdock ($Id: //depot/dev/client3/rdock/2013.1/src/exe/rbdock.cxx#4 $)

>  <Rbt.Library>
libRbt.so (2013.1, Build901 2013/11/27)

>  <Rbt.Parameter_File>
/export/apps/rDock/src/rDock_2013.1_src/data/scripts/dock_solv.prm

>  <Rbt.Receptor>
prm/blind_docking_60.prm

>  <SCORE>
-26.1085

>  <SCORE.INTER>
-26.1085

>  <SCORE.INTER.CONST>
1

>  <SCORE.INTER.POLAR>
-1.93632

>  <SCORE.INTER.ROT>
0

>  <SCORE.INTER.SOLV>
11.5082

>  <SCORE.INTER.VDW>
-18.3873

>  <SCORE.INTER.norm>
-2.61085

>  <SCORE.INTRA>
0

>  <SCORE.INTRA.DIHEDRAL>
0

>  <SCORE.INTRA.DIHEDRAL.0>
0

>  <SCORE.INTRA.POLAR>
0

>  <SCORE.INTRA.POLAR.0>
0

>  <SCORE.INTRA.REPUL>
0

>  <SCORE.INTRA.REPUL.0>
0

>  <SCORE.INTRA.SOLV>
0

>  <SCORE.INTRA.SOLV.lig_0>
-13.7928

>  <SCORE.INTRA.VDW>
0

>  <SCORE.INTRA.VDW.0>
0

>  <SCORE.INTRA.norm>
0

>  <SCORE.RESTR>
0

>  <SCORE.RESTR.CAVITY>
0

>  <SCORE.RESTR.norm>
0

>  <SCORE.SYSTEM>
0

>  <SCORE.SYSTEM.CONST>
0

>  <SCORE.SYSTEM.DIHEDRAL>
0

>  <SCORE.SYSTEM.SOLV>
0

>  <SCORE.SYSTEM.norm>
0

>  <SCORE.heavy>
10

>  <SCORE.norm>
-2.61085

>  <RMSD>
0.186

$$$$
1u8d_lig
 OpenBabel11021811413D
libRbt.so/2013.1/901 2013/11/27
 10 11  0  0  0  0  0  0  0  0999 V2000
   11.7364   10.4731    9.2877 N   0  0  0  0  0  0  0  0  0  0  0  0
   11.4342   11.8276    9.5091 C   0  0  0  0  0  0  0  0  0  0  0  0
   11.1145   12.6954    8.5154 N   0  0  0  0  0  0  0  0  0  0  0  0
   11.1157   12.1172    7.2947 C   0  0  0  0  0  0  0  0  0  0  0  0
   11.4389   10.6556    6.9897 C   0  0  0  0  0  0  0  0  0  0  0  0
   11.7653    9.7990    8.0524 C   0  0  0  0  0  0  0  0  0  0  0  0
   12.0491    8.6090    8.0395 O   0  0  0  0  0  0  0  0  0  0  0  0
   11.3249   10.5019    5.6352 N   0  0  0  0  0  0  0  0  0  0  0  0
   10.9583   11.7184    5.1133 C   0  0  0  0  0  0  0  0  0  0  0  0
   10.8248   12.7108    6.0806 N   0  0  0  0  0  0  0  0  0  0  0  0
  1  2  1  0  0  0  0
  1  6  1  0  0  0  0
  2  3  2  0  0  0  0
  3  4  1  0  0  0  0
  4  5  2  0  0  0  0
  4 10  1  0  0  0  0
  5  6  1  0  0  0  0
  5  8  1  0  0  0  0
  6  7  2  0  0  0  0
  8  9  1  0  0  0  0
  9 10  2  0  0  0  0
M  END
>  <CHROM.1>
11.38603595,11.07516294,7.46283941,0.52831302,-1.30824679,1.13518516

>  <Name>
1u8d_lig

>  <RI>
0

>  <Rbt.Current_Directory>
/home/itssahil/PROJECTS/Mol_Feturizer/New_Systems/rnas/1u8d

>  <Rbt.Executable>
rbdock ($Id: //depot/dev/client3/rdock/2013.1/src/exe/rbdock.cxx#4 $)

>  <Rbt.Library>
libRbt.so (2013.1, Build901 2013/11/27)

>  <Rbt.Parameter_File>
/export/apps/rDock/src/rDock_2013.1_src/data/scripts/dock_solv.prm

>  <Rbt.Receptor>
prm/pocket_docking_5.prm

>  <SCORE>
-26.0056

>  <SCORE.INTER>
-26.0056

>  <SCORE.INTER.CONST>
1

>  <SCORE.INTER.POLAR>
-1.93632

>  <SCORE.INTER.ROT>
0

>  <SCORE.INTER.SOLV>
11.5747

>  <SCORE.INTER.VDW>
-18.3409

>  <SCORE.INTER.norm>
-2.60056

>  <SCORE.INTRA>
0

>  <SCORE.INTRA.DIHEDRAL>
0

>  <SCORE.INTRA.DIHEDRAL.0>
0

>  <SCORE.INTRA.POLAR>
0

>  <SCORE.INTRA.POLAR.0>
0

>  <SCORE.INTRA.REPUL>
0

>  <SCORE.INTRA.REPUL.0>
0

>  <SCORE.INTRA.SOLV>
0

>  <SCORE.INTRA.SOLV.lig_0>
-13.7928

>  <SCORE.INTRA.VDW>
0

>  <SCORE.INTRA.VDW.0>
0

>  <SCORE.INTRA.norm>
0

>  <SCORE.RESTR>
0

>  <SCORE.RESTR.CAVITY>
0

>  <SCORE.RESTR.norm>
0

>  <SCORE.SYSTEM>
0

>  <SCORE.SYSTEM.CONST>
0

>  <SCORE.SYSTEM.DIHEDRAL>
0

>  <SCORE.SYSTEM.SOLV>
0

>  <SCORE.SYSTEM.norm>
0

>  <SCORE.heavy>
10

>  <SCORE.norm>
-2.60056

>  <RMSD>
0.186

$$$$
1u8d_lig
 OpenBabel11021811413D
libRbt.so/2013.1/901 2013/11/27
 10 11  0  0  0  0  0  0  0  0999 V2000
   11.8175   10.5600    9.1798 N   0  0  0  0  0  0  0  0  0  0  0  0
   11.5589   11.9261    9.3847 C   0  0  0  0  0  0  0  0  0  0  0  0
   11.2235   12.7826    8.3863 N   0  0  0  0  0  0  0  0  0  0  0  0
   11.1629   12.1808    7.1786 C   0  0  0  0  0  0  0  0  0  0  0  0
   11.4365   10.7054    6.8915 C   0  0  0  0  0  0  0  0  0  0  0  0
   11.7815    9.8615    7.9584 C   0  0  0  0  0  0  0  0  0  0  0  0
   12.0341    8.6644    7.9591 O   0  0  0  0  0  0  0  0  0  0  0  0
   11.2666   10.5284    5.5458 N   0  0  0  0  0  0  0  0  0  0  0  0
   10.9115   11.7438    5.0133 C   0  0  0  0  0  0  0  0  0  0  0  0
   10.8408   12.7581    5.9645 N   0  0  0  0  0  0  0  0  0  0  0  0
  1  2  1  0  0  0  0
  1  6  1  0  0  0  0
  2  3  2  0  0  0  0
  3  4  1  0  0  0  0
  4  5  2  0  0  0  0
  4 10  1  0  0  0  0
  5  6  1  0  0  0  0
  5  8  1  0  0  0  0
  6  7  2  0  0  0  0
  8  9  1  0  0  0  0
  9 10  2  0  0  0  0
M  END
>  <CHROM.1>
11.41268656,11.13545862,7.35762606,0.34921434,-1.31128266,0.94210140

>  <Name>
1u8d_lig

>  <RI>
0

>  <Rbt.Current_Directory>
/home/itssahil/PROJECTS/Mol_Feturizer/New_Systems/rnas/1u8d

>  <Rbt.Executable>
rbdock ($Id: //depot/dev/client3/rdock/2013.1/src/exe/rbdock.cxx#4 $)

>  <Rbt.Library>
libRbt.so (2013.1, Build901 2013/11/27)

>  <Rbt.Parameter_File>
/export/apps/rDock/src/rDock_2013.1_src/data/scripts/dock_solv.prm

>  <Rbt.Receptor>
prm/pocket_docking_6.prm

>  <SCORE>
-26.1171

>  <SCORE.INTER>
-26.1171

>  <SCORE.INTER.CONST>
1

>  <SCORE.INTER.POLAR>
-1.93632

>  <SCORE.INTER.ROT>
0

>  <SCORE.INTER.SOLV>
11.5347

>  <SCORE.INTER.VDW>
-18.4019

>  <SCORE.INTER.norm>
-2.61171

>  <SCORE.INTRA>
0

>  <SCORE.INTRA.DIHEDRAL>
0

>  <SCORE.INTRA.DIHEDRAL.0>
0

>  <SCORE.INTRA.POLAR>
0

>  <SCORE.INTRA.POLAR.0>
0

>  <SCORE.INTRA.REPUL>
0

>  <SCORE.INTRA.REPUL.0>
0

>  <SCORE.INTRA.SOLV>
0

>  <SCORE.INTRA.SOLV.lig_0>
-13.7928

>  <SCORE.INTRA.VDW>
0

>  <SCORE.INTRA.VDW.0>
0

>  <SCORE.INTRA.norm>
0

>  <SCORE.RESTR>
0

>  <SCORE.RESTR.CAVITY>
0

>  <SCORE.RESTR.norm>
0

>  <SCORE.SYSTEM>
0

>  <SCORE.SYSTEM.CONST>
0

>  <SCORE.SYSTEM.DIHEDRAL>
0

>  <SCORE.SYSTEM.SOLV>
0

>  <SCORE.SYSTEM.norm>
0

>  <SCORE.heavy>
10

>  <SCORE.norm>
-2.61171

>  <RMSD>
0.186

$$$$
1u8d_lig
 OpenBabel11021811413D
libRbt.so/2013.1/901 2013/11/27
 10 11  0  0  0  0  0  0  0  0999 V2000
   11.7588   10.5092    9.2019 N   0  0  0  0  0  0  0  0  0  0  0  0
   11.4850   11.8709    9.4156 C   0  0  0  0  0  0  0  0  0  0  0  0
   11.1637   12.7353    8.4194 N   0  0  0  0  0  0  0  0  0  0  0  0
   11.1331   12.1460    7.2045 C   0  0  0  0  0  0  0  0  0  0  0  0
   11.4245   10.6760    6.9077 C   0  0  0  0  0  0  0  0  0  0  0  0
   11.7539    9.8234    7.9727 C   0  0  0  0  0  0  0  0  0  0  0  0
   12.0160    8.6284    7.9661 O   0  0  0  0  0  0  0  0  0  0  0  0
   11.2840   10.5120    5.5569 N   0  0  0  0  0  0  0  0  0  0  0  0
   10.9303   11.7301    5.0300 C   0  0  0  0  0  0  0  0  0  0  0  0
   10.8317   12.7337    5.9900 N   0  0  0  0  0  0  0  0  0  0  0  0
  1  2  1  0  0  0  0
  1  6  1  0  0  0  0
  2  3  2  0  0  0  0
  3  4  1  0  0  0  0
  4  5  2  0  0  0  0
  4 10  1  0  0  0  0
  5  6  1  0  0  0  0
  5  8  1  0  0  0  0
  6  7  2  0  0  0  0
  8  9  1  0  0  0  0
  9 10  2  0  0  0  0
M  END
>  <CHROM.1>
11.38744518,11.10081490,7.37772828,0.43502074,-1.31615053,1.03566655

>  <Name>
1u8d_lig

>  <RI>
0

>  <Rbt.Current_Directory>
/home/itssahil/PROJECTS/Mol_Feturizer/New_Systems/rnas/1u8d

>  <Rbt.Executable>
rbdock ($Id: //depot/dev/client3/rdock/2013.1/src/exe/rbdock.cxx#4 $)

>  <Rbt.Library>
libRbt.so (2013.1, Build901 2013/11/27)

>  <Rbt.Parameter_File>
/export/apps/rDock/src/rDock_2013.1_src/data/scripts/dock_solv.prm

>  <Rbt.Receptor>
prm/pocket_docking_7.prm

>  <SCORE>
-26.0943

>  <SCORE.INTER>
-26.0943

>  <SCORE.INTER.CONST>
1

>  <SCORE.INTER.POLAR>
-1.93628

>  <SCORE.INTER.ROT>
0

>  <SCORE.INTER.SOLV>
11.5875

>  <SCORE.INTER.VDW>
-18.4044

>  <SCORE.INTER.norm>
-2.60943

>  <SCORE.INTRA>
0

>  <SCORE.INTRA.DIHEDRAL>
0

>  <SCORE.INTRA.DIHEDRAL.0>
0

>  <SCORE.INTRA.POLAR>
0

>  <SCORE.INTRA.POLAR.0>
0

>  <SCORE.INTRA.REPUL>
0

>  <SCORE.INTRA.REPUL.0>
0

>  <SCORE.INTRA.SOLV>
0

>  <SCORE.INTRA.SOLV.lig_0>
-13.7928

>  <SCORE.INTRA.VDW>
0

>  <SCORE.INTRA.VDW.0>
0

>  <SCORE.INTRA.norm>
0

>  <SCORE.RESTR>
0

>  <SCORE.RESTR.CAVITY>
0

>  <SCORE.RESTR.norm>
0

>  <SCORE.SYSTEM>
0

>  <SCORE.SYSTEM.CONST>
0

>  <SCORE.SYSTEM.DIHEDRAL>
0

>  <SCORE.SYSTEM.SOLV>
0

>  <SCORE.SYSTEM.norm>
0

>  <SCORE.heavy>
10

>  <SCORE.norm>
-2.60943

>  <RMSD>
0.186

$$$$
1u8d_lig
 OpenBabel11021811413D
libRbt.so/2013.1/901 2013/11/27
 10 11  0  0  0  0  0  0  0  0999 V2000
   11.7304   10.4954    9.2813 N   0  0  0  0  0  0  0  0  0  0  0  0
   11.4066   11.8432    9.5130 C   0  0  0  0  0  0  0  0  0  0  0  0
   11.0897   12.7177    8.5243 N   0  0  0  0  0  0  0  0  0  0  0  0
   11.1166   12.1531    7.2975 C   0  0  0  0  0  0  0  0  0  0  0  0
   11.4641   10.6994    6.9813 C   0  0  0  0  0  0  0  0  0  0  0  0
   11.7865    9.8356    8.0393 C   0  0  0  0  0  0  0  0  0  0  0  0
   12.0867    8.6497    8.0176 O   0  0  0  0  0  0  0  0  0  0  0  0
   11.3720   10.5593    5.6237 N   0  0  0  0  0  0  0  0  0  0  0  0
   10.9966   11.7765    5.1098 C   0  0  0  0  0  0  0  0  0  0  0  0
   10.8355   12.7563    6.0858 N   0  0  0  0  0  0  0  0  0  0  0  0
  1  2  1  0  0  0  0
  1  6  1  0  0  0  0
  2  3  2  0  0  0  0
  3  4  1  0  0  0  0
  4  5  2  0  0  0  0
  4 10  1  0  0  0  0
  5  6  1  0  0  0  0
  5  8  1  0  0  0  0
  6  7  2  0  0  0  0
  8  9  1  0  0  0  0
  9 10  2  0  0  0  0
M  END
>  <CHROM.1>
11.39858433,11.11301410,7.45819297,0.59976193,-1.30142925,1.21515187

>  <Name>
1u8d_lig

>  <RI>
0

>  <Rbt.Current_Directory>
/home/itssahil/PROJECTS/Mol_Feturizer/New_Systems/rnas/1u8d

>  <Rbt.Executable>
rbdock ($Id: //depot/dev/client3/rdock/2013.1/src/exe/rbdock.cxx#4 $)

>  <Rbt.Library>
libRbt.so (2013.1, Build901 2013/11/27)

>  <Rbt.Parameter_File>
/export/apps/rDock/src/rDock_2013.1_src/data/scripts/dock_solv.prm

>  <Rbt.Receptor>
prm/pocket_docking_8.prm

>  <SCORE>
-25.9872

>  <SCORE.INTER>
-25.9872

>  <SCORE.INTER.CONST>
1

>  <SCORE.INTER.POLAR>
-1.93632

>  <SCORE.INTER.ROT>
0

>  <SCORE.INTER.SOLV>
11.5541

>  <SCORE.INTER.VDW>
-18.3217

>  <SCORE.INTER.norm>
-2.59872

>  <SCORE.INTRA>
0

>  <SCORE.INTRA.DIHEDRAL>
0

>  <SCORE.INTRA.DIHEDRAL.0>
0

>  <SCORE.INTRA.POLAR>
0

>  <SCORE.INTRA.POLAR.0>
0

>  <SCORE.INTRA.REPUL>
0

>  <SCORE.INTRA.REPUL.0>
0

>  <SCORE.INTRA.SOLV>
0

>  <SCORE.INTRA.SOLV.lig_0>
-13.7928

>  <SCORE.INTRA.VDW>
0

>  <SCORE.INTRA.VDW.0>
0

>  <SCORE.INTRA.norm>
0

>  <SCORE.RESTR>
0

>  <SCORE.RESTR.CAVITY>
0

>  <SCORE.RESTR.norm>
0

>  <SCORE.SYSTEM>
0

>  <SCORE.SYSTEM.CONST>
0

>  <SCORE.SYSTEM.DIHEDRAL>
0

>  <SCORE.SYSTEM.SOLV>
0

>  <SCORE.SYSTEM.norm>
0

>  <SCORE.heavy>
10

>  <SCORE.norm>
-2.59872

>  <RMSD>
0.186

$$$$
1u8d_lig
 OpenBabel11021811413D
libRbt.so/2013.1/901 2013/11/27
 10 11  0  0  0  0  0  0  0  0999 V2000
   11.7672   10.5058    9.2097 N   0  0  0  0  0  0  0  0  0  0  0  0
   11.5002   11.8688    9.4235 C   0  0  0  0  0  0  0  0  0  0  0  0
   11.1762   12.7334    8.4283 N   0  0  0  0  0  0  0  0  0  0  0  0
   11.1358   12.1427    7.2142 C   0  0  0  0  0  0  0  0  0  0  0  0
   11.4194   10.6713    6.9175 C   0  0  0  0  0  0  0  0  0  0  0  0
   11.7520    9.8186    7.9814 C   0  0  0  0  0  0  0  0  0  0  0  0
   12.0092    8.6225    7.9746 O   0  0  0  0  0  0  0  0  0  0  0  0
   11.2700   10.5063    5.5677 N   0  0  0  0  0  0  0  0  0  0  0  0
   10.9180   11.7252    5.0415 C   0  0  0  0  0  0  0  0  0  0  0  0
   10.8293   12.7303    6.0010 N   0  0  0  0  0  0  0  0  0  0  0  0
  1  2  1  0  0  0  0
  1  6  1  0  0  0  0
  2  3  2  0  0  0  0
  3  4  1  0  0  0  0
  4  5  2  0  0  0  0
  4 10  1  0  0  0  0
  5  6  1  0  0  0  0
  5  8  1  0  0  0  0
  6  7  2  0  0  0  0
  8  9  1  0  0  0  0
  9 10  2  0  0  0  0
M  END
>  <CHROM.1>
11.38702488,11.09677230,7.38716074,0.40576644,-1.31636225,1.00618788

>  <Name>
1u8d_lig

>  <RI>
0

>  <Rbt.Current_Directory>
/home/itssahil/PROJECTS/Mol_Feturizer/New_Systems/rnas/1u8d

>  <Rbt.Executable>
rbdock ($Id: //depot/dev/client3/rdock/2013.1/src/exe/rbdock.cxx#4 $)

>  <Rbt.Library>
libRbt.so (2013.1, Build901 2013/11/27)

>  <Rbt.Parameter_File>
/export/apps/rDock/src/rDock_2013.1_src/data/scripts/dock_solv.prm

>  <Rbt.Receptor>
prm/pocket_docking_8.prm

>  <SCORE>
-26.0953

>  <SCORE.INTER>
-26.0953

>  <SCORE.INTER.CONST>
1

>  <SCORE.INTER.POLAR>
-1.93632

>  <SCORE.INTER.ROT>
0

>  <SCORE.INTER.SOLV>
11.5813

>  <SCORE.INTER.VDW>
-18.4029

>  <SCORE.INTER.norm>
-2.60953

>  <SCORE.INTRA>
0

>  <SCORE.INTRA.DIHEDRAL>
0

>  <SCORE.INTRA.DIHEDRAL.0>
0

>  <SCORE.INTRA.POLAR>
0

>  <SCORE.INTRA.POLAR.0>
0

>  <SCORE.INTRA.REPUL>
0

>  <SCORE.INTRA.REPUL.0>
0

>  <SCORE.INTRA.SOLV>
0

>  <SCORE.INTRA.SOLV.lig_0>
-13.7928

>  <SCORE.INTRA.VDW>
0

>  <SCORE.INTRA.VDW.0>
0

>  <SCORE.INTRA.norm>
0

>  <SCORE.RESTR>
0

>  <SCORE.RESTR.CAVITY>
0

>  <SCORE.RESTR.norm>
0

>  <SCORE.SYSTEM>
0

>  <SCORE.SYSTEM.CONST>
0

>  <SCORE.SYSTEM.DIHEDRAL>
0

>  <SCORE.SYSTEM.SOLV>
0

>  <SCORE.SYSTEM.norm>
0

>  <SCORE.heavy>
10

>  <SCORE.norm>
-2.60953

>  <RMSD>
0.186

$$$$
1u8d_lig
 OpenBabel11021811413D
libRbt.so/2013.1/901 2013/11/27
 10 11  0  0  0  0  0  0  0  0999 V2000
   11.6911   10.5011    9.2499 N   0  0  0  0  0  0  0  0  0  0  0  0
   11.3629   11.8482    9.4795 C   0  0  0  0  0  0  0  0  0  0  0  0
   11.0518   12.7223    8.4886 N   0  0  0  0  0  0  0  0  0  0  0  0
   11.0892   12.1582    7.2619 C   0  0  0  0  0  0  0  0  0  0  0  0
   11.4420   10.7053    6.9480 C   0  0  0  0  0  0  0  0  0  0  0  0
   11.7580    9.8417    8.0082 C   0  0  0  0  0  0  0  0  0  0  0  0
   12.0607    8.6565    7.9884 O   0  0  0  0  0  0  0  0  0  0  0  0
   11.3605   10.5654    5.5897 N   0  0  0  0  0  0  0  0  0  0  0  0
   10.9866   11.7820    5.0732 C   0  0  0  0  0  0  0  0  0  0  0  0
   10.8161   12.7612    6.0483 N   0  0  0  0  0  0  0  0  0  0  0  0
  1  2  1  0  0  0  0
  1  6  1  0  0  0  0
  2  3  2  0  0  0  0
  3  4  1  0  0  0  0
  4  5  2  0  0  0  0
  4 10  1  0  0  0  0
  5  6  1  0  0  0  0
  5  8  1  0  0  0  0
  6  7  2  0  0  0  0
  8  9  1  0  0  0  0
  9 10  2  0  0  0  0
M  END
>  <CHROM.1>
11.37199428,11.11860407,7.42446948,0.62933889,-1.30211802,1.24396625

>  <Name>
1u8d_lig

>  <RI>
0

>  <Rbt.Current_Directory>
/home/itssahil/PROJECTS/Mol_Feturizer/New_Systems/rnas/1u8d

>  <Rbt.Executable>
rbdock ($Id: //depot/dev/client3/rdock/2013.1/src/exe/rbdock.cxx#4 $)

>  <Rbt.Library>
libRbt.so (2013.1, Build901 2013/11/27)

>  <Rbt.Parameter_File>
/export/apps/rDock/src/rDock_2013.1_src/data/scripts/dock_solv.prm

>  <Rbt.Receptor>
prm/blind_docking_100.prm

>  <SCORE>
-25.9149

>  <SCORE.INTER>
-25.9149

>  <SCORE.INTER.CONST>
1

>  <SCORE.INTER.POLAR>
-1.93632

>  <SCORE.INTER.ROT>
0

>  <SCORE.INTER.SOLV>
11.5998

>  <SCORE.INTER.VDW>
-18.2888

>  <SCORE.INTER.norm>
-2.59149

>  <SCORE.INTRA>
0

>  <SCORE.INTRA.DIHEDRAL>
0

>  <SCORE.INTRA.DIHEDRAL.0>
0

>  <SCORE.INTRA.POLAR>
0

>  <SCORE.INTRA.POLAR.0>
0

>  <SCORE.INTRA.REPUL>
0

>  <SCORE.INTRA.REPUL.0>
0

>  <SCORE.INTRA.SOLV>
0

>  <SCORE.INTRA.SOLV.lig_0>
-13.7928

>  <SCORE.INTRA.VDW>
0

>  <SCORE.INTRA.VDW.0>
0

>  <SCORE.INTRA.norm>
0

>  <SCORE.RESTR>
0

>  <SCORE.RESTR.CAVITY>
0

>  <SCORE.RESTR.norm>
0

>  <SCORE.SYSTEM>
0

>  <SCORE.SYSTEM.CONST>
0

>  <SCORE.SYSTEM.DIHEDRAL>
0

>  <SCORE.SYSTEM.SOLV>
0

>  <SCORE.SYSTEM.norm>
0

>  <SCORE.heavy>
10

>  <SCORE.norm>
-2.59149

>  <RMSD>
0.187

$$$$
1u8d_lig
 OpenBabel11021811413D
libRbt.so/2013.1/901 2013/11/27
 10 11  0  0  0  0  0  0  0  0999 V2000
   11.8305   10.5639    9.1671 N   0  0  0  0  0  0  0  0  0  0  0  0
   11.5604   11.9272    9.3754 C   0  0  0  0  0  0  0  0  0  0  0  0
   11.2188   12.7835    8.3790 N   0  0  0  0  0  0  0  0  0  0  0  0
   11.1643   12.1845    7.1696 C   0  0  0  0  0  0  0  0  0  0  0  0
   11.4504   10.7123    6.8788 C   0  0  0  0  0  0  0  0  0  0  0  0
   11.8014    9.8683    7.9438 C   0  0  0  0  0  0  0  0  0  0  0  0
   12.0638    8.6734    7.9415 O   0  0  0  0  0  0  0  0  0  0  0  0
   11.2831   10.5375    5.5325 N   0  0  0  0  0  0  0  0  0  0  0  0
   10.9184   11.7512    5.0030 C   0  0  0  0  0  0  0  0  0  0  0  0
   10.8385   12.7624    5.9567 N   0  0  0  0  0  0  0  0  0  0  0  0
  1  2  1  0  0  0  0
  1  6  1  0  0  0  0
  2  3  2  0  0  0  0
  3  4  1  0  0  0  0
  4  5  2  0  0  0  0
  4 10  1  0  0  0  0
  5  6  1  0  0  0  0
  5  8  1  0  0  0  0
  6  7  2  0  0  0  0
  8  9  1  0  0  0  0
  9 10  2  0  0  0  0
M  END
>  <CHROM.1>
11.42253705,11.14082376,7.34606948,0.37049057,-1.30504328,0.96533091

>  <Name>
1u8d_lig

>  <RI>
0

>  <Rbt.Current_Directory>
/home/itssahil/PROJECTS/Mol_Feturizer/New_Systems/rnas/1u8d

>  <Rbt.Executable>
rbdock ($Id: //depot/dev/client3/rdock/2013.1/src/exe/rbdock.cxx#4 $)

>  <Rbt.Library>
libRbt.so (2013.1, Build901 2013/11/27)

>  <Rbt.Parameter_File>
/export/apps/rDock/src/rDock_2013.1_src/data/scripts/dock_solv.prm

>  <Rbt.Receptor>
prm/blind_docking_40.prm

>  <SCORE>
-26.1054

>  <SCORE.INTER>
-26.1054

>  <SCORE.INTER.CONST>
1

>  <SCORE.INTER.POLAR>
-1.93632

>  <SCORE.INTER.ROT>
0

>  <SCORE.INTER.SOLV>
11.5113

>  <SCORE.INTER.VDW>
-18.3863

>  <SCORE.INTER.norm>
-2.61054

>  <SCORE.INTRA>
0

>  <SCORE.INTRA.DIHEDRAL>
0

>  <SCORE.INTRA.DIHEDRAL.0>
0

>  <SCORE.INTRA.POLAR>
0

>  <SCORE.INTRA.POLAR.0>
0

>  <SCORE.INTRA.REPUL>
0

>  <SCORE.INTRA.REPUL.0>
0

>  <SCORE.INTRA.SOLV>
0

>  <SCORE.INTRA.SOLV.lig_0>
-13.7928

>  <SCORE.INTRA.VDW>
0

>  <SCORE.INTRA.VDW.0>
0

>  <SCORE.INTRA.norm>
0

>  <SCORE.RESTR>
0

>  <SCORE.RESTR.CAVITY>
0

>  <SCORE.RESTR.norm>
0

>  <SCORE.SYSTEM>
0

>  <SCORE.SYSTEM.CONST>
0

>  <SCORE.SYSTEM.DIHEDRAL>
0

>  <SCORE.SYSTEM.SOLV>
0

>  <SCORE.SYSTEM.norm>
0

>  <SCORE.heavy>
10

>  <SCORE.norm>
-2.61054

>  <RMSD>
0.187

$$$$
1u8d_lig
 OpenBabel11021811413D
libRbt.so/2013.1/901 2013/11/27
 10 11  0  0  0  0  0  0  0  0999 V2000
   11.8154   10.5605    9.1822 N   0  0  0  0  0  0  0  0  0  0  0  0
   11.5586   11.9268    9.3882 C   0  0  0  0  0  0  0  0  0  0  0  0
   11.2241   12.7845    8.3906 N   0  0  0  0  0  0  0  0  0  0  0  0
   11.1624   12.1837    7.1824 C   0  0  0  0  0  0  0  0  0  0  0  0
   11.4341   10.7083    6.8941 C   0  0  0  0  0  0  0  0  0  0  0  0
   11.7783    9.8630    7.9602 C   0  0  0  0  0  0  0  0  0  0  0  0
   12.0293    8.6656    7.9599 O   0  0  0  0  0  0  0  0  0  0  0  0
   11.2636   10.5326    5.5482 N   0  0  0  0  0  0  0  0  0  0  0  0
   10.9099   11.7488    5.0169 C   0  0  0  0  0  0  0  0  0  0  0  0
   10.8408   12.7625    5.9689 N   0  0  0  0  0  0  0  0  0  0  0  0
  1  2  1  0  0  0  0
  1  6  1  0  0  0  0
  2  3  2  0  0  0  0
  3  4  1  0  0  0  0
  4  5  2  0  0  0  0
  4 10  1  0  0  0  0
  5  6  1  0  0  0  0
  5  8  1  0  0  0  0
  6  7  2  0  0  0  0
  8  9  1  0  0  0  0
  9 10  2  0  0  0  0
M  END
>  <CHROM.1>
11.41091652,11.13798535,7.36057052,0.34556358,-1.31217025,0.93939603

>  <Name>
1u8d_lig

>  <RI>
0

>  <Rbt.Current_Directory>
/home/itssahil/PROJECTS/Mol_Feturizer/New_Systems/rnas/1u8d

>  <Rbt.Executable>
rbdock ($Id: //depot/dev/client3/rdock/2013.1/src/exe/rbdock.cxx#4 $)

>  <Rbt.Library>
libRbt.so (2013.1, Build901 2013/11/27)

>  <Rbt.Parameter_File>
/export/apps/rDock/src/rDock_2013.1_src/data/scripts/dock_solv.prm

>  <Rbt.Receptor>
prm/pocket_docking_6.prm

>  <SCORE>
-26.1149

>  <SCORE.INTER>
-26.1149

>  <SCORE.INTER.CONST>
1

>  <SCORE.INTER.POLAR>
-1.93632

>  <SCORE.INTER.ROT>
0

>  <SCORE.INTER.SOLV>
11.5375

>  <SCORE.INTER.VDW>
-18.4014

>  <SCORE.INTER.norm>
-2.61149

>  <SCORE.INTRA>
0

>  <SCORE.INTRA.DIHEDRAL>
0

>  <SCORE.INTRA.DIHEDRAL.0>
0

>  <SCORE.INTRA.POLAR>
0

>  <SCORE.INTRA.POLAR.0>
0

>  <SCORE.INTRA.REPUL>
0

>  <SCORE.INTRA.REPUL.0>
0

>  <SCORE.INTRA.SOLV>
0

>  <SCORE.INTRA.SOLV.lig_0>
-13.7928

>  <SCORE.INTRA.VDW>
0

>  <SCORE.INTRA.VDW.0>
0

>  <SCORE.INTRA.norm>
0

>  <SCORE.RESTR>
0

>  <SCORE.RESTR.CAVITY>
0

>  <SCORE.RESTR.norm>
0

>  <SCORE.SYSTEM>
0

>  <SCORE.SYSTEM.CONST>
0

>  <SCORE.SYSTEM.DIHEDRAL>
0

>  <SCORE.SYSTEM.SOLV>
0

>  <SCORE.SYSTEM.norm>
0

>  <SCORE.heavy>
10

>  <SCORE.norm>
-2.61149

>  <RMSD>
0.187

$$$$
1u8d_lig
 OpenBabel11021811413D
libRbt.so/2013.1/901 2013/11/27
 10 11  0  0  0  0  0  0  0  0999 V2000
   11.7078   10.4971    9.3098 N   0  0  0  0  0  0  0  0  0  0  0  0
   11.3972   11.8505    9.5266 C   0  0  0  0  0  0  0  0  0  0  0  0
   11.0909   12.7176    8.5282 N   0  0  0  0  0  0  0  0  0  0  0  0
   11.1143   12.1399    7.3075 C   0  0  0  0  0  0  0  0  0  0  0  0
   11.4477   10.6795    7.0073 C   0  0  0  0  0  0  0  0  0  0  0  0
   11.7595    9.8237    8.0749 C   0  0  0  0  0  0  0  0  0  0  0  0
   12.0477    8.6347    8.0663 O   0  0  0  0  0  0  0  0  0  0  0  0
   11.3565   10.5260    5.6510 N   0  0  0  0  0  0  0  0  0  0  0  0
   10.9943   11.7414    5.1236 C   0  0  0  0  0  0  0  0  0  0  0  0
   10.8414   12.7330    6.0889 N   0  0  0  0  0  0  0  0  0  0  0  0
  1  2  1  0  0  0  0
  1  6  1  0  0  0  0
  2  3  2  0  0  0  0
  3  4  1  0  0  0  0
  4  5  2  0  0  0  0
  4 10  1  0  0  0  0
  5  6  1  0  0  0  0
  5  8  1  0  0  0  0
  6  7  2  0  0  0  0
  8  9  1  0  0  0  0
  9 10  2  0  0  0  0
M  END
>  <CHROM.1>
11.38548858,11.09875793,7.47964675,0.59251837,-1.31149550,1.19760973

>  <Name>
1u8d_lig

>  <RI>
0

>  <Rbt.Current_Directory>
/home/itssahil/PROJECTS/Mol_Feturizer/New_Systems/rnas/1u8d

>  <Rbt.Executable>
rbdock ($Id: //depot/dev/client3/rdock/2013.1/src/exe/rbdock.cxx#4 $)

>  <Rbt.Library>
libRbt.so (2013.1, Build901 2013/11/27)

>  <Rbt.Parameter_File>
/export/apps/rDock/src/rDock_2013.1_src/data/scripts/dock_solv.prm

>  <Rbt.Receptor>
prm/blind_docking_100.prm

>  <SCORE>
-25.9381

>  <SCORE.INTER>
-25.9381

>  <SCORE.INTER.CONST>
1

>  <SCORE.INTER.POLAR>
-1.93632

>  <SCORE.INTER.ROT>
0

>  <SCORE.INTER.SOLV>
11.6042

>  <SCORE.INTER.VDW>
-18.3057

>  <SCORE.INTER.norm>
-2.59381

>  <SCORE.INTRA>
0

>  <SCORE.INTRA.DIHEDRAL>
0

>  <SCORE.INTRA.DIHEDRAL.0>
0

>  <SCORE.INTRA.POLAR>
0

>  <SCORE.INTRA.POLAR.0>
0

>  <SCORE.INTRA.REPUL>
0

>  <SCORE.INTRA.REPUL.0>
0

>  <SCORE.INTRA.SOLV>
0

>  <SCORE.INTRA.SOLV.lig_0>
-13.7928

>  <SCORE.INTRA.VDW>
0

>  <SCORE.INTRA.VDW.0>
0

>  <SCORE.INTRA.norm>
0

>  <SCORE.RESTR>
0

>  <SCORE.RESTR.CAVITY>
0

>  <SCORE.RESTR.norm>
0

>  <SCORE.SYSTEM>
0

>  <SCORE.SYSTEM.CONST>
0

>  <SCORE.SYSTEM.DIHEDRAL>
0

>  <SCORE.SYSTEM.SOLV>
0

>  <SCORE.SYSTEM.norm>
0

>  <SCORE.heavy>
10

>  <SCORE.norm>
-2.59381

>  <RMSD>
0.188

$$$$
1u8d_lig
 OpenBabel11021811413D
libRbt.so/2013.1/901 2013/11/27
 10 11  0  0  0  0  0  0  0  0999 V2000
   11.8164   10.5614    9.1818 N   0  0  0  0  0  0  0  0  0  0  0  0
   11.5552   11.9258    9.3941 C   0  0  0  0  0  0  0  0  0  0  0  0
   11.2196   12.7874    8.4002 N   0  0  0  0  0  0  0  0  0  0  0  0
   11.1614   12.1924    7.1890 C   0  0  0  0  0  0  0  0  0  0  0  0
   11.4379   10.7192    6.8939 C   0  0  0  0  0  0  0  0  0  0  0  0
   11.7831    9.8697    7.9564 C   0  0  0  0  0  0  0  0  0  0  0  0
   12.0376    8.6731    7.9506 O   0  0  0  0  0  0  0  0  0  0  0  0
   11.2698   10.5496    5.5469 N   0  0  0  0  0  0  0  0  0  0  0  0
   10.9133   11.7673    5.0210 C   0  0  0  0  0  0  0  0  0  0  0  0
   10.8398   12.7761    5.9778 N   0  0  0  0  0  0  0  0  0  0  0  0
  1  2  1  0  0  0  0
  1  6  1  0  0  0  0
  2  3  2  0  0  0  0
  3  4  1  0  0  0  0
  4  5  2  0  0  0  0
  4 10  1  0  0  0  0
  5  6  1  0  0  0  0
  5  8  1  0  0  0  0
  6  7  2  0  0  0  0
  8  9  1  0  0  0  0
  9 10  2  0  0  0  0
M  END
>  <CHROM.1>
11.41276467,11.14651356,7.36239712,0.35686877,-1.31059738,0.95519896

>  <Name>
1u8d_lig

>  <RI>
0

>  <Rbt.Current_Directory>
/home/itssahil/PROJECTS/Mol_Feturizer/New_Systems/rnas/1u8d

>  <Rbt.Executable>
rbdock ($Id: //depot/dev/client3/rdock/2013.1/src/exe/rbdock.cxx#4 $)

>  <Rbt.Library>
libRbt.so (2013.1, Build901 2013/11/27)

>  <Rbt.Parameter_File>
/export/apps/rDock/src/rDock_2013.1_src/data/scripts/dock_solv.prm

>  <Rbt.Receptor>
prm/blind_docking_80.prm

>  <SCORE>
-26.1039

>  <SCORE.INTER>
-26.1039

>  <SCORE.INTER.CONST>
1

>  <SCORE.INTER.POLAR>
-1.93632

>  <SCORE.INTER.ROT>
0

>  <SCORE.INTER.SOLV>
11.5292

>  <SCORE.INTER.VDW>
-18.3913

>  <SCORE.INTER.norm>
-2.61039

>  <SCORE.INTRA>
0

>  <SCORE.INTRA.DIHEDRAL>
0

>  <SCORE.INTRA.DIHEDRAL.0>
0

>  <SCORE.INTRA.POLAR>
0

>  <SCORE.INTRA.POLAR.0>
0

>  <SCORE.INTRA.REPUL>
0

>  <SCORE.INTRA.REPUL.0>
0

>  <SCORE.INTRA.SOLV>
0

>  <SCORE.INTRA.SOLV.lig_0>
-13.7928

>  <SCORE.INTRA.VDW>
0

>  <SCORE.INTRA.VDW.0>
0

>  <SCORE.INTRA.norm>
0

>  <SCORE.RESTR>
0

>  <SCORE.RESTR.CAVITY>
0

>  <SCORE.RESTR.norm>
0

>  <SCORE.SYSTEM>
0

>  <SCORE.SYSTEM.CONST>
0

>  <SCORE.SYSTEM.DIHEDRAL>
0

>  <SCORE.SYSTEM.SOLV>
0

>  <SCORE.SYSTEM.norm>
0

>  <SCORE.heavy>
10

>  <SCORE.norm>
-2.61039

>  <RMSD>
0.188

$$$$
1u8d_lig
 OpenBabel11021811413D
libRbt.so/2013.1/901 2013/11/27
 10 11  0  0  0  0  0  0  0  0999 V2000
   11.8283   10.5621    9.1676 N   0  0  0  0  0  0  0  0  0  0  0  0
   11.5614   11.9262    9.3752 C   0  0  0  0  0  0  0  0  0  0  0  0
   11.2216   12.7827    8.3784 N   0  0  0  0  0  0  0  0  0  0  0  0
   11.1654   12.1831    7.1694 C   0  0  0  0  0  0  0  0  0  0  0  0
   11.4479   10.7100    6.8794 C   0  0  0  0  0  0  0  0  0  0  0  0
   11.7973    9.8659    7.9448 C   0  0  0  0  0  0  0  0  0  0  0  0
   12.0570    8.6703    7.9431 O   0  0  0  0  0  0  0  0  0  0  0  0
   11.2799   10.5348    5.5332 N   0  0  0  0  0  0  0  0  0  0  0  0
   10.9179   11.7491    5.0031 C   0  0  0  0  0  0  0  0  0  0  0  0
   10.8406   12.7610    5.9563 N   0  0  0  0  0  0  0  0  0  0  0  0
  1  2  1  0  0  0  0
  1  6  1  0  0  0  0
  2  3  2  0  0  0  0
  3  4  1  0  0  0  0
  4  5  2  0  0  0  0
  4 10  1  0  0  0  0
  5  6  1  0  0  0  0
  5  8  1  0  0  0  0
  6  7  2  0  0  0  0
  8  9  1  0  0  0  0
  9 10  2  0  0  0  0
M  END
>  <CHROM.1>
11.42123215,11.13892340,7.34639499,0.36460107,-1.30679558,0.95905945

>  <Name>
1u8d_lig

>  <RI>
0

>  <Rbt.Current_Directory>
/home/itssahil/PROJECTS/Mol_Feturizer/New_Systems/rnas/1u8d

>  <Rbt.Executable>
rbdock ($Id: //depot/dev/client3/rdock/2013.1/src/exe/rbdock.cxx#4 $)

>  <Rbt.Library>
libRbt.so (2013.1, Build901 2013/11/27)

>  <Rbt.Parameter_File>
/export/apps/rDock/src/rDock_2013.1_src/data/scripts/dock_solv.prm

>  <Rbt.Receptor>
prm/pocket_docking_5.prm

>  <SCORE>
-26.1107

>  <SCORE.INTER>
-26.1107

>  <SCORE.INTER.CONST>
1

>  <SCORE.INTER.POLAR>
-1.93632

>  <SCORE.INTER.ROT>
0

>  <SCORE.INTER.SOLV>
11.5163

>  <SCORE.INTER.VDW>
-18.3915

>  <SCORE.INTER.norm>
-2.61107

>  <SCORE.INTRA>
0

>  <SCORE.INTRA.DIHEDRAL>
0

>  <SCORE.INTRA.DIHEDRAL.0>
0

>  <SCORE.INTRA.POLAR>
0

>  <SCORE.INTRA.POLAR.0>
0

>  <SCORE.INTRA.REPUL>
0

>  <SCORE.INTRA.REPUL.0>
0

>  <SCORE.INTRA.SOLV>
0

>  <SCORE.INTRA.SOLV.lig_0>
-13.7928

>  <SCORE.INTRA.VDW>
0

>  <SCORE.INTRA.VDW.0>
0

>  <SCORE.INTRA.norm>
0

>  <SCORE.RESTR>
0

>  <SCORE.RESTR.CAVITY>
0

>  <SCORE.RESTR.norm>
0

>  <SCORE.SYSTEM>
0

>  <SCORE.SYSTEM.CONST>
0

>  <SCORE.SYSTEM.DIHEDRAL>
0

>  <SCORE.SYSTEM.SOLV>
0

>  <SCORE.SYSTEM.norm>
0

>  <SCORE.heavy>
10

>  <SCORE.norm>
-2.61107

>  <RMSD>
0.188

$$$$
1u8d_lig
 OpenBabel11021811413D
libRbt.so/2013.1/901 2013/11/27
 10 11  0  0  0  0  0  0  0  0999 V2000
   11.8242   10.5608    9.1750 N   0  0  0  0  0  0  0  0  0  0  0  0
   11.5606   11.9260    9.3792 C   0  0  0  0  0  0  0  0  0  0  0  0
   11.2262   12.7816    8.3799 N   0  0  0  0  0  0  0  0  0  0  0  0
   11.1718   12.1799    7.1718 C   0  0  0  0  0  0  0  0  0  0  0  0
   11.4510   10.7056    6.8854 C   0  0  0  0  0  0  0  0  0  0  0  0
   11.7947    9.8624    7.9533 C   0  0  0  0  0  0  0  0  0  0  0  0
   12.0509    8.6661    7.9546 O   0  0  0  0  0  0  0  0  0  0  0  0
   11.2864   10.5283    5.5390 N   0  0  0  0  0  0  0  0  0  0  0  0
   10.9294   11.7427    5.0056 C   0  0  0  0  0  0  0  0  0  0  0  0
   10.8522   12.7566    5.9567 N   0  0  0  0  0  0  0  0  0  0  0  0
  1  2  1  0  0  0  0
  1  6  1  0  0  0  0
  2  3  2  0  0  0  0
  3  4  1  0  0  0  0
  4  5  2  0  0  0  0
  4 10  1  0  0  0  0
  5  6  1  0  0  0  0
  5  8  1  0  0  0  0
  6  7  2  0  0  0  0
  8  9  1  0  0  0  0
  9 10  2  0  0  0  0
M  END
>  <CHROM.1>
11.42412636,11.13538459,7.35149356,0.36749612,-1.31085892,0.96000809

>  <Name>
1u8d_lig

>  <RI>
0

>  <Rbt.Current_Directory>
/home/itssahil/PROJECTS/Mol_Feturizer/New_Systems/rnas/1u8d

>  <Rbt.Executable>
rbdock ($Id: //depot/dev/client3/rdock/2013.1/src/exe/rbdock.cxx#4 $)

>  <Rbt.Library>
libRbt.so (2013.1, Build901 2013/11/27)

>  <Rbt.Parameter_File>
/export/apps/rDock/src/rDock_2013.1_src/data/scripts/dock_solv.prm

>  <Rbt.Receptor>
prm/pocket_docking_6.prm

>  <SCORE>
-26.1077

>  <SCORE.INTER>
-26.1077

>  <SCORE.INTER.CONST>
1

>  <SCORE.INTER.POLAR>
-1.93632

>  <SCORE.INTER.ROT>
0

>  <SCORE.INTER.SOLV>
11.528

>  <SCORE.INTER.VDW>
-18.3934

>  <SCORE.INTER.norm>
-2.61077

>  <SCORE.INTRA>
0

>  <SCORE.INTRA.DIHEDRAL>
0

>  <SCORE.INTRA.DIHEDRAL.0>
0

>  <SCORE.INTRA.POLAR>
0

>  <SCORE.INTRA.POLAR.0>
0

>  <SCORE.INTRA.REPUL>
0

>  <SCORE.INTRA.REPUL.0>
0

>  <SCORE.INTRA.SOLV>
0

>  <SCORE.INTRA.SOLV.lig_0>
-13.7928

>  <SCORE.INTRA.VDW>
0

>  <SCORE.INTRA.VDW.0>
0

>  <SCORE.INTRA.norm>
0

>  <SCORE.RESTR>
0

>  <SCORE.RESTR.CAVITY>
0

>  <SCORE.RESTR.norm>
0

>  <SCORE.SYSTEM>
0

>  <SCORE.SYSTEM.CONST>
0

>  <SCORE.SYSTEM.DIHEDRAL>
0

>  <SCORE.SYSTEM.SOLV>
0

>  <SCORE.SYSTEM.norm>
0

>  <SCORE.heavy>
10

>  <SCORE.norm>
-2.61077

>  <RMSD>
0.188

$$$$
1u8d_lig
 OpenBabel11021811413D
libRbt.so/2013.1/901 2013/11/27
 10 11  0  0  0  0  0  0  0  0999 V2000
   11.8304   10.5611    9.1675 N   0  0  0  0  0  0  0  0  0  0  0  0
   11.5648   11.9252    9.3761 C   0  0  0  0  0  0  0  0  0  0  0  0
   11.2241   12.7825    8.3802 N   0  0  0  0  0  0  0  0  0  0  0  0
   11.1657   12.1835    7.1710 C   0  0  0  0  0  0  0  0  0  0  0  0
   11.4469   10.7104    6.8799 C   0  0  0  0  0  0  0  0  0  0  0  0
   11.7972    9.8655    7.9443 C   0  0  0  0  0  0  0  0  0  0  0  0
   12.0561    8.6698    7.9417 O   0  0  0  0  0  0  0  0  0  0  0  0
   11.2768   10.5360    5.5338 N   0  0  0  0  0  0  0  0  0  0  0  0
   10.9149   11.7508    5.0048 C   0  0  0  0  0  0  0  0  0  0  0  0
   10.8396   12.7623    5.9586 N   0  0  0  0  0  0  0  0  0  0  0  0
  1  2  1  0  0  0  0
  1  6  1  0  0  0  0
  2  3  2  0  0  0  0
  3  4  1  0  0  0  0
  4  5  2  0  0  0  0
  4 10  1  0  0  0  0
  5  6  1  0  0  0  0
  5  8  1  0  0  0  0
  6  7  2  0  0  0  0
  8  9  1  0  0  0  0
  9 10  2  0  0  0  0
M  END
>  <CHROM.1>
11.42116230,11.13908700,7.34711621,0.35870529,-1.30651443,0.95387234

>  <Name>
1u8d_lig

>  <RI>
0

>  <Rbt.Current_Directory>
/home/itssahil/PROJECTS/Mol_Feturizer/New_Systems/rnas/1u8d

>  <Rbt.Executable>
rbdock ($Id: //depot/dev/client3/rdock/2013.1/src/exe/rbdock.cxx#4 $)

>  <Rbt.Library>
libRbt.so (2013.1, Build901 2013/11/27)

>  <Rbt.Parameter_File>
/export/apps/rDock/src/rDock_2013.1_src/data/scripts/dock_solv.prm

>  <Rbt.Receptor>
prm/blind_docking_40.prm

>  <SCORE>
-26.1119

>  <SCORE.INTER>
-26.1119

>  <SCORE.INTER.CONST>
1

>  <SCORE.INTER.POLAR>
-1.93632

>  <SCORE.INTER.ROT>
0

>  <SCORE.INTER.SOLV>
11.5137

>  <SCORE.INTER.VDW>
-18.3915

>  <SCORE.INTER.norm>
-2.61119

>  <SCORE.INTRA>
0

>  <SCORE.INTRA.DIHEDRAL>
0

>  <SCORE.INTRA.DIHEDRAL.0>
0

>  <SCORE.INTRA.POLAR>
0

>  <SCORE.INTRA.POLAR.0>
0

>  <SCORE.INTRA.REPUL>
0

>  <SCORE.INTRA.REPUL.0>
0

>  <SCORE.INTRA.SOLV>
0

>  <SCORE.INTRA.SOLV.lig_0>
-13.7928

>  <SCORE.INTRA.VDW>
0

>  <SCORE.INTRA.VDW.0>
0

>  <SCORE.INTRA.norm>
0

>  <SCORE.RESTR>
0

>  <SCORE.RESTR.CAVITY>
0

>  <SCORE.RESTR.norm>
0

>  <SCORE.SYSTEM>
0

>  <SCORE.SYSTEM.CONST>
0

>  <SCORE.SYSTEM.DIHEDRAL>
0

>  <SCORE.SYSTEM.SOLV>
0

>  <SCORE.SYSTEM.norm>
0

>  <SCORE.heavy>
10

>  <SCORE.norm>
-2.61119

>  <RMSD>
0.189

$$$$
1u8d_lig
 OpenBabel11021811413D
libRbt.so/2013.1/901 2013/11/27
 10 11  0  0  0  0  0  0  0  0999 V2000
   11.8527   10.5618    9.1579 N   0  0  0  0  0  0  0  0  0  0  0  0
   11.5758   11.9232    9.3701 C   0  0  0  0  0  0  0  0  0  0  0  0
   11.2256   12.7796    8.3769 N   0  0  0  0  0  0  0  0  0  0  0  0
   11.1696   12.1828    7.1665 C   0  0  0  0  0  0  0  0  0  0  0  0
   11.4628   10.7128    6.8715 C   0  0  0  0  0  0  0  0  0  0  0  0
   11.8227    9.8686    7.9333 C   0  0  0  0  0  0  0  0  0  0  0  0
   12.0918    8.6752    7.9275 O   0  0  0  0  0  0  0  0  0  0  0  0
   11.2911   10.5399    5.5254 N   0  0  0  0  0  0  0  0  0  0  0  0
   10.9176   11.7527    4.9999 C   0  0  0  0  0  0  0  0  0  0  0  0
   10.8358   12.7614    5.9561 N   0  0  0  0  0  0  0  0  0  0  0  0
  1  2  1  0  0  0  0
  1  6  1  0  0  0  0
  2  3  2  0  0  0  0
  3  4  1  0  0  0  0
  4  5  2  0  0  0  0
  4 10  1  0  0  0  0
  5  6  1  0  0  0  0
  5  8  1  0  0  0  0
  6  7  2  0  0  0  0
  8  9  1  0  0  0  0
  9 10  2  0  0  0  0
M  END
>  <CHROM.1>
11.43438001,11.14024939,7.33973490,0.37020699,-1.29821191,0.96714795

>  <Name>
1u8d_lig

>  <RI>
0

>  <Rbt.Current_Directory>
/home/itssahil/PROJECTS/Mol_Feturizer/New_Systems/rnas/1u8d

>  <Rbt.Executable>
rbdock ($Id: //depot/dev/client3/rdock/2013.1/src/exe/rbdock.cxx#4 $)

>  <Rbt.Library>
libRbt.so (2013.1, Build901 2013/11/27)

>  <Rbt.Parameter_File>
/export/apps/rDock/src/rDock_2013.1_src/data/scripts/dock_solv.prm

>  <Rbt.Receptor>
prm/blind_docking_80.prm

>  <SCORE>
-26.0947

>  <SCORE.INTER>
-26.0947

>  <SCORE.INTER.CONST>
1

>  <SCORE.INTER.POLAR>
-1.93632

>  <SCORE.INTER.ROT>
0

>  <SCORE.INTER.SOLV>
11.4794

>  <SCORE.INTER.VDW>
-18.3685

>  <SCORE.INTER.norm>
-2.60947

>  <SCORE.INTRA>
0

>  <SCORE.INTRA.DIHEDRAL>
0

>  <SCORE.INTRA.DIHEDRAL.0>
0

>  <SCORE.INTRA.POLAR>
0

>  <SCORE.INTRA.POLAR.0>
0

>  <SCORE.INTRA.REPUL>
0

>  <SCORE.INTRA.REPUL.0>
0

>  <SCORE.INTRA.SOLV>
0

>  <SCORE.INTRA.SOLV.lig_0>
-13.7928

>  <SCORE.INTRA.VDW>
0

>  <SCORE.INTRA.VDW.0>
0

>  <SCORE.INTRA.norm>
0

>  <SCORE.RESTR>
0

>  <SCORE.RESTR.CAVITY>
0

>  <SCORE.RESTR.norm>
0

>  <SCORE.SYSTEM>
0

>  <SCORE.SYSTEM.CONST>
0

>  <SCORE.SYSTEM.DIHEDRAL>
0

>  <SCORE.SYSTEM.SOLV>
0

>  <SCORE.SYSTEM.norm>
0

>  <SCORE.heavy>
10

>  <SCORE.norm>
-2.60947

>  <RMSD>
0.189

$$$$
1u8d_lig
 OpenBabel11021811413D
libRbt.so/2013.1/901 2013/11/27
 10 11  0  0  0  0  0  0  0  0999 V2000
   11.8247   10.5593    9.1716 N   0  0  0  0  0  0  0  0  0  0  0  0
   11.5658   11.9253    9.3768 C   0  0  0  0  0  0  0  0  0  0  0  0
   11.2277   12.7814    8.3790 N   0  0  0  0  0  0  0  0  0  0  0  0
   11.1648   12.1794    7.1715 C   0  0  0  0  0  0  0  0  0  0  0  0
   11.4386   10.7042    6.8841 C   0  0  0  0  0  0  0  0  0  0  0  0
   11.7865    9.8605    7.9504 C   0  0  0  0  0  0  0  0  0  0  0  0
   12.0397    8.6636    7.9507 O   0  0  0  0  0  0  0  0  0  0  0  0
   11.2658   10.5269    5.5387 N   0  0  0  0  0  0  0  0  0  0  0  0
   10.9088   11.7419    5.0069 C   0  0  0  0  0  0  0  0  0  0  0  0
   10.8397   12.7563    5.9580 N   0  0  0  0  0  0  0  0  0  0  0  0
  1  2  1  0  0  0  0
  1  6  1  0  0  0  0
  2  3  2  0  0  0  0
  3  4  1  0  0  0  0
  4  5  2  0  0  0  0
  4 10  1  0  0  0  0
  5  6  1  0  0  0  0
  5  8  1  0  0  0  0
  6  7  2  0  0  0  0
  8  9  1  0  0  0  0
  9 10  2  0  0  0  0
M  END
>  <CHROM.1>
11.41556461,11.13424757,7.35019130,0.34360882,-1.30950854,0.93653371

>  <Name>
1u8d_lig

>  <RI>
0

>  <Rbt.Current_Directory>
/home/itssahil/PROJECTS/Mol_Feturizer/New_Systems/rnas/1u8d

>  <Rbt.Executable>
rbdock ($Id: //depot/dev/client3/rdock/2013.1/src/exe/rbdock.cxx#4 $)

>  <Rbt.Library>
libRbt.so (2013.1, Build901 2013/11/27)

>  <Rbt.Parameter_File>
/export/apps/rDock/src/rDock_2013.1_src/data/scripts/dock_solv.prm

>  <Rbt.Receptor>
prm/pocket_docking_6.prm

>  <SCORE>
-26.1204

>  <SCORE.INTER>
-26.1204

>  <SCORE.INTER.CONST>
1

>  <SCORE.INTER.POLAR>
-1.93632

>  <SCORE.INTER.ROT>
0

>  <SCORE.INTER.SOLV>
11.5258

>  <SCORE.INTER.VDW>
-18.4011

>  <SCORE.INTER.norm>
-2.61204

>  <SCORE.INTRA>
0

>  <SCORE.INTRA.DIHEDRAL>
0

>  <SCORE.INTRA.DIHEDRAL.0>
0

>  <SCORE.INTRA.POLAR>
0

>  <SCORE.INTRA.POLAR.0>
0

>  <SCORE.INTRA.REPUL>
0

>  <SCORE.INTRA.REPUL.0>
0

>  <SCORE.INTRA.SOLV>
0

>  <SCORE.INTRA.SOLV.lig_0>
-13.7928

>  <SCORE.INTRA.VDW>
0

>  <SCORE.INTRA.VDW.0>
0

>  <SCORE.INTRA.norm>
0

>  <SCORE.RESTR>
0

>  <SCORE.RESTR.CAVITY>
0

>  <SCORE.RESTR.norm>
0

>  <SCORE.SYSTEM>
0

>  <SCORE.SYSTEM.CONST>
0

>  <SCORE.SYSTEM.DIHEDRAL>
0

>  <SCORE.SYSTEM.SOLV>
0

>  <SCORE.SYSTEM.norm>
0

>  <SCORE.heavy>
10

>  <SCORE.norm>
-2.61204

>  <RMSD>
0.189

$$$$
1u8d_lig
 OpenBabel11021811413D
libRbt.so/2013.1/901 2013/11/27
 10 11  0  0  0  0  0  0  0  0999 V2000
   11.6895   10.4566    9.3137 N   0  0  0  0  0  0  0  0  0  0  0  0
   11.3009   11.7891    9.5338 C   0  0  0  0  0  0  0  0  0  0  0  0
   10.9675   12.6463    8.5355 N   0  0  0  0  0  0  0  0  0  0  0  0
   11.0468   12.0808    7.3115 C   0  0  0  0  0  0  0  0  0  0  0  0
   11.4656   10.6434    7.0077 C   0  0  0  0  0  0  0  0  0  0  0  0
   11.8026    9.7971    8.0754 C   0  0  0  0  0  0  0  0  0  0  0  0
   12.1557    8.6258    8.0641 O   0  0  0  0  0  0  0  0  0  0  0  0
   11.4101   10.4963    5.6489 N   0  0  0  0  0  0  0  0  0  0  0  0
   10.9923   11.6944    5.1228 C   0  0  0  0  0  0  0  0  0  0  0  0
   10.7660   12.6682    6.0919 N   0  0  0  0  0  0  0  0  0  0  0  0
  1  2  1  0  0  0  0
  1  6  1  0  0  0  0
  2  3  2  0  0  0  0
  3  4  1  0  0  0  0
  4  5  2  0  0  0  0
  4 10  1  0  0  0  0
  5  6  1  0  0  0  0
  5  8  1  0  0  0  0
  6  7  2  0  0  0  0
  8  9  1  0  0  0  0
  9 10  2  0  0  0  0
M  END
>  <CHROM.1>
11.37117451,11.05470462,7.48170881,0.72097501,-1.26526899,1.32870974

>  <Name>
1u8d_lig

>  <RI>
0

>  <Rbt.Current_Directory>
/home/itssahil/PROJECTS/Mol_Feturizer/New_Systems/rnas/1u8d

>  <Rbt.Executable>
rbdock ($Id: //depot/dev/client3/rdock/2013.1/src/exe/rbdock.cxx#4 $)

>  <Rbt.Library>
libRbt.so (2013.1, Build901 2013/11/27)

>  <Rbt.Parameter_File>
/export/apps/rDock/src/rDock_2013.1_src/data/scripts/dock_solv.prm

>  <Rbt.Receptor>
prm/blind_docking_20.prm

>  <SCORE>
-25.5505

>  <SCORE.INTER>
-25.5896

>  <SCORE.INTER.CONST>
1

>  <SCORE.INTER.POLAR>
-1.93632

>  <SCORE.INTER.ROT>
0

>  <SCORE.INTER.SOLV>
11.5447

>  <SCORE.INTER.VDW>
-18.0536

>  <SCORE.INTER.norm>
-2.55896

>  <SCORE.INTRA>
0

>  <SCORE.INTRA.DIHEDRAL>
0

>  <SCORE.INTRA.DIHEDRAL.0>
0

>  <SCORE.INTRA.POLAR>
0

>  <SCORE.INTRA.POLAR.0>
0

>  <SCORE.INTRA.REPUL>
0

>  <SCORE.INTRA.REPUL.0>
0

>  <SCORE.INTRA.SOLV>
0

>  <SCORE.INTRA.SOLV.lig_0>
-13.7928

>  <SCORE.INTRA.VDW>
0

>  <SCORE.INTRA.VDW.0>
0

>  <SCORE.INTRA.norm>
0

>  <SCORE.RESTR>
0.0391301

>  <SCORE.RESTR.CAVITY>
0.0391301

>  <SCORE.RESTR.norm>
0.00391301

>  <SCORE.SYSTEM>
0

>  <SCORE.SYSTEM.CONST>
0

>  <SCORE.SYSTEM.DIHEDRAL>
0

>  <SCORE.SYSTEM.SOLV>
0

>  <SCORE.SYSTEM.norm>
0

>  <SCORE.heavy>
10

>  <SCORE.norm>
-2.55505

>  <RMSD>
0.190

$$$$
1u8d_lig
 OpenBabel11021811413D
libRbt.so/2013.1/901 2013/11/27
 10 11  0  0  0  0  0  0  0  0999 V2000
   11.8263   10.5613    9.1663 N   0  0  0  0  0  0  0  0  0  0  0  0
   11.5623   11.9264    9.3706 C   0  0  0  0  0  0  0  0  0  0  0  0
   11.2254   12.7815    8.3715 N   0  0  0  0  0  0  0  0  0  0  0  0
   11.1689   12.1793    7.1638 C   0  0  0  0  0  0  0  0  0  0  0  0
   11.4484   10.7050    6.8774 C   0  0  0  0  0  0  0  0  0  0  0  0
   11.7948    9.8624    7.9450 C   0  0  0  0  0  0  0  0  0  0  0  0
   12.0517    8.6663    7.9462 O   0  0  0  0  0  0  0  0  0  0  0  0
   11.2812   10.5271    5.5314 N   0  0  0  0  0  0  0  0  0  0  0  0
   10.9225   11.7411    4.9982 C   0  0  0  0  0  0  0  0  0  0  0  0
   10.8466   12.7553    5.9491 N   0  0  0  0  0  0  0  0  0  0  0  0
  1  2  1  0  0  0  0
  1  6  1  0  0  0  0
  2  3  2  0  0  0  0
  3  4  1  0  0  0  0
  4  5  2  0  0  0  0
  4 10  1  0  0  0  0
  5  6  1  0  0  0  0
  5  8  1  0  0  0  0
  6  7  2  0  0  0  0
  8  9  1  0  0  0  0
  9 10  2  0  0  0  0
M  END
>  <CHROM.1>
11.42221941,11.13496442,7.34339915,0.36243781,-1.30922044,0.95473519

>  <Name>
1u8d_lig

>  <RI>
0

>  <Rbt.Current_Directory>
/home/itssahil/PROJECTS/Mol_Feturizer/New_Systems/rnas/1u8d

>  <Rbt.Executable>
rbdock ($Id: //depot/dev/client3/rdock/2013.1/src/exe/rbdock.cxx#4 $)

>  <Rbt.Library>
libRbt.so (2013.1, Build901 2013/11/27)

>  <Rbt.Parameter_File>
/export/apps/rDock/src/rDock_2013.1_src/data/scripts/dock_solv.prm

>  <Rbt.Receptor>
prm/blind_docking_60.prm

>  <SCORE>
-26.1141

>  <SCORE.INTER>
-26.1141

>  <SCORE.INTER.CONST>
1

>  <SCORE.INTER.POLAR>
-1.93632

>  <SCORE.INTER.ROT>
0

>  <SCORE.INTER.SOLV>
11.5236

>  <SCORE.INTER.VDW>
-18.3962

>  <SCORE.INTER.norm>
-2.61141

>  <SCORE.INTRA>
0

>  <SCORE.INTRA.DIHEDRAL>
0

>  <SCORE.INTRA.DIHEDRAL.0>
0

>  <SCORE.INTRA.POLAR>
0

>  <SCORE.INTRA.POLAR.0>
0

>  <SCORE.INTRA.REPUL>
0

>  <SCORE.INTRA.REPUL.0>
0

>  <SCORE.INTRA.SOLV>
0

>  <SCORE.INTRA.SOLV.lig_0>
-13.7928

>  <SCORE.INTRA.VDW>
0

>  <SCORE.INTRA.VDW.0>
0

>  <SCORE.INTRA.norm>
0

>  <SCORE.RESTR>
0

>  <SCORE.RESTR.CAVITY>
0

>  <SCORE.RESTR.norm>
0

>  <SCORE.SYSTEM>
0

>  <SCORE.SYSTEM.CONST>
0

>  <SCORE.SYSTEM.DIHEDRAL>
0

>  <SCORE.SYSTEM.SOLV>
0

>  <SCORE.SYSTEM.norm>
0

>  <SCORE.heavy>
10

>  <SCORE.norm>
-2.61141

>  <RMSD>
0.190

$$$$
1u8d_lig
 OpenBabel11021811413D
libRbt.so/2013.1/901 2013/11/27
 10 11  0  0  0  0  0  0  0  0999 V2000
   11.8227   10.5608    9.1701 N   0  0  0  0  0  0  0  0  0  0  0  0
   11.5612   11.9262    9.3759 C   0  0  0  0  0  0  0  0  0  0  0  0
   11.2249   12.7828    8.3780 N   0  0  0  0  0  0  0  0  0  0  0  0
   11.1666   12.1819    7.1697 C   0  0  0  0  0  0  0  0  0  0  0  0
   11.4434   10.7074    6.8816 C   0  0  0  0  0  0  0  0  0  0  0  0
   11.7892    9.8632    7.9481 C   0  0  0  0  0  0  0  0  0  0  0  0
   12.0442    8.6667    7.9480 O   0  0  0  0  0  0  0  0  0  0  0  0
   11.2750   10.5312    5.5356 N   0  0  0  0  0  0  0  0  0  0  0  0
   10.9179   11.7463    5.0039 C   0  0  0  0  0  0  0  0  0  0  0  0
   10.8444   12.7596    5.9558 N   0  0  0  0  0  0  0  0  0  0  0  0
  1  2  1  0  0  0  0
  1  6  1  0  0  0  0
  2  3  2  0  0  0  0
  3  4  1  0  0  0  0
  4  5  2  0  0  0  0
  4 10  1  0  0  0  0
  5  6  1  0  0  0  0
  5  8  1  0  0  0  0
  6  7  2  0  0  0  0
  8  9  1  0  0  0  0
  9 10  2  0  0  0  0
M  END
>  <CHROM.1>
11.41831497,11.13699056,7.34807952,0.35653111,-1.31014632,0.95001873

>  <Name>
1u8d_lig

>  <RI>
0

>  <Rbt.Current_Directory>
/home/itssahil/PROJECTS/Mol_Feturizer/New_Systems/rnas/1u8d

>  <Rbt.Executable>
rbdock ($Id: //depot/dev/client3/rdock/2013.1/src/exe/rbdock.cxx#4 $)

>  <Rbt.Library>
libRbt.so (2013.1, Build901 2013/11/27)

>  <Rbt.Parameter_File>
/export/apps/rDock/src/rDock_2013.1_src/data/scripts/dock_solv.prm

>  <Rbt.Receptor>
prm/blind_docking_60.prm

>  <SCORE>
-26.1165

>  <SCORE.INTER>
-26.1165

>  <SCORE.INTER.CONST>
1

>  <SCORE.INTER.POLAR>
-1.93632

>  <SCORE.INTER.ROT>
0

>  <SCORE.INTER.SOLV>
11.5273

>  <SCORE.INTER.VDW>
-18.399

>  <SCORE.INTER.norm>
-2.61165

>  <SCORE.INTRA>
0

>  <SCORE.INTRA.DIHEDRAL>
0

>  <SCORE.INTRA.DIHEDRAL.0>
0

>  <SCORE.INTRA.POLAR>
0

>  <SCORE.INTRA.POLAR.0>
0

>  <SCORE.INTRA.REPUL>
0

>  <SCORE.INTRA.REPUL.0>
0

>  <SCORE.INTRA.SOLV>
0

>  <SCORE.INTRA.SOLV.lig_0>
-13.7928

>  <SCORE.INTRA.VDW>
0

>  <SCORE.INTRA.VDW.0>
0

>  <SCORE.INTRA.norm>
0

>  <SCORE.RESTR>
0

>  <SCORE.RESTR.CAVITY>
0

>  <SCORE.RESTR.norm>
0

>  <SCORE.SYSTEM>
0

>  <SCORE.SYSTEM.CONST>
0

>  <SCORE.SYSTEM.DIHEDRAL>
0

>  <SCORE.SYSTEM.SOLV>
0

>  <SCORE.SYSTEM.norm>
0

>  <SCORE.heavy>
10

>  <SCORE.norm>
-2.61165

>  <RMSD>
0.190

$$$$
1u8d_lig
 OpenBabel11021811413D
libRbt.so/2013.1/901 2013/11/27
 10 11  0  0  0  0  0  0  0  0999 V2000
   11.8121   10.5601    9.1858 N   0  0  0  0  0  0  0  0  0  0  0  0
   11.5568   11.9264    9.3928 C   0  0  0  0  0  0  0  0  0  0  0  0
   11.2280   12.7862    8.3951 N   0  0  0  0  0  0  0  0  0  0  0  0
   11.1703   12.1874    7.1858 C   0  0  0  0  0  0  0  0  0  0  0  0
   11.4406   10.7120    6.8964 C   0  0  0  0  0  0  0  0  0  0  0  0
   11.7788    9.8644    7.9626 C   0  0  0  0  0  0  0  0  0  0  0  0
   12.0277    8.6666    7.9615 O   0  0  0  0  0  0  0  0  0  0  0  0
   11.2754   10.5386    5.5495 N   0  0  0  0  0  0  0  0  0  0  0  0
   10.9260   11.7562    5.0185 C   0  0  0  0  0  0  0  0  0  0  0  0
   10.8547   12.7685    5.9718 N   0  0  0  0  0  0  0  0  0  0  0  0
  1  2  1  0  0  0  0
  1  6  1  0  0  0  0
  2  3  2  0  0  0  0
  3  4  1  0  0  0  0
  4  5  2  0  0  0  0
  4 10  1  0  0  0  0
  5  6  1  0  0  0  0
  5  8  1  0  0  0  0
  6  7  2  0  0  0  0
  8  9  1  0  0  0  0
  9 10  2  0  0  0  0
M  END
>  <CHROM.1>
11.41619146,11.14095070,7.36336177,0.35479798,-1.31602640,0.94982975

>  <Name>
1u8d_lig

>  <RI>
0

>  <Rbt.Current_Directory>
/home/itssahil/PROJECTS/Mol_Feturizer/New_Systems/rnas/1u8d

>  <Rbt.Executable>
rbdock ($Id: //depot/dev/client3/rdock/2013.1/src/exe/rbdock.cxx#4 $)

>  <Rbt.Library>
libRbt.so (2013.1, Build901 2013/11/27)

>  <Rbt.Parameter_File>
/export/apps/rDock/src/rDock_2013.1_src/data/scripts/dock_solv.prm

>  <Rbt.Receptor>
prm/pocket_docking_3.prm

>  <SCORE>
-26.1085

>  <SCORE.INTER>
-26.1085

>  <SCORE.INTER.CONST>
1

>  <SCORE.INTER.POLAR>
-1.93632

>  <SCORE.INTER.ROT>
0

>  <SCORE.INTER.SOLV>
11.5452

>  <SCORE.INTER.VDW>
-18.3997

>  <SCORE.INTER.norm>
-2.61085

>  <SCORE.INTRA>
0

>  <SCORE.INTRA.DIHEDRAL>
0

>  <SCORE.INTRA.DIHEDRAL.0>
0

>  <SCORE.INTRA.POLAR>
0

>  <SCORE.INTRA.POLAR.0>
0

>  <SCORE.INTRA.REPUL>
0

>  <SCORE.INTRA.REPUL.0>
0

>  <SCORE.INTRA.SOLV>
0

>  <SCORE.INTRA.SOLV.lig_0>
-13.7928

>  <SCORE.INTRA.VDW>
0

>  <SCORE.INTRA.VDW.0>
0

>  <SCORE.INTRA.norm>
0

>  <SCORE.RESTR>
0

>  <SCORE.RESTR.CAVITY>
0

>  <SCORE.RESTR.norm>
0

>  <SCORE.SYSTEM>
0

>  <SCORE.SYSTEM.CONST>
0

>  <SCORE.SYSTEM.DIHEDRAL>
0

>  <SCORE.SYSTEM.SOLV>
0

>  <SCORE.SYSTEM.norm>
0

>  <SCORE.heavy>
10

>  <SCORE.norm>
-2.61085

>  <RMSD>
0.190

$$$$
1u8d_lig
 OpenBabel11021811413D
libRbt.so/2013.1/901 2013/11/27
 10 11  0  0  0  0  0  0  0  0999 V2000
   11.8214   10.5599    9.1714 N   0  0  0  0  0  0  0  0  0  0  0  0
   11.5621   11.9259    9.3762 C   0  0  0  0  0  0  0  0  0  0  0  0
   11.2268   12.7822    8.3777 N   0  0  0  0  0  0  0  0  0  0  0  0
   11.1669   12.1804    7.1699 C   0  0  0  0  0  0  0  0  0  0  0  0
   11.4413   10.7052    6.8830 C   0  0  0  0  0  0  0  0  0  0  0  0
   11.7862    9.8613    7.9500 C   0  0  0  0  0  0  0  0  0  0  0  0
   12.0393    8.6644    7.9508 O   0  0  0  0  0  0  0  0  0  0  0  0
   11.2718   10.5281    5.5371 N   0  0  0  0  0  0  0  0  0  0  0  0
   10.9164   11.7432    5.0046 C   0  0  0  0  0  0  0  0  0  0  0  0
   10.8450   12.7576    5.9557 N   0  0  0  0  0  0  0  0  0  0  0  0
  1  2  1  0  0  0  0
  1  6  1  0  0  0  0
  2  3  2  0  0  0  0
  3  4  1  0  0  0  0
  4  5  2  0  0  0  0
  4 10  1  0  0  0  0
  5  6  1  0  0  0  0
  5  8  1  0  0  0  0
  6  7  2  0  0  0  0
  8  9  1  0  0  0  0
  9 10  2  0  0  0  0
M  END
>  <CHROM.1>
11.41703933,11.13518242,7.34905984,0.35135407,-1.31114896,0.94416369

>  <Name>
1u8d_lig

>  <RI>
0

>  <Rbt.Current_Directory>
/home/itssahil/PROJECTS/Mol_Feturizer/New_Systems/rnas/1u8d

>  <Rbt.Executable>
rbdock ($Id: //depot/dev/client3/rdock/2013.1/src/exe/rbdock.cxx#4 $)

>  <Rbt.Library>
libRbt.so (2013.1, Build901 2013/11/27)

>  <Rbt.Parameter_File>
/export/apps/rDock/src/rDock_2013.1_src/data/scripts/dock_solv.prm

>  <Rbt.Receptor>
prm/pocket_docking_5.prm

>  <SCORE>
-26.1192

>  <SCORE.INTER>
-26.1192

>  <SCORE.INTER.CONST>
1

>  <SCORE.INTER.POLAR>
-1.93632

>  <SCORE.INTER.ROT>
0

>  <SCORE.INTER.SOLV>
11.5308

>  <SCORE.INTER.VDW>
-18.402

>  <SCORE.INTER.norm>
-2.61192

>  <SCORE.INTRA>
0

>  <SCORE.INTRA.DIHEDRAL>
0

>  <SCORE.INTRA.DIHEDRAL.0>
0

>  <SCORE.INTRA.POLAR>
0

>  <SCORE.INTRA.POLAR.0>
0

>  <SCORE.INTRA.REPUL>
0

>  <SCORE.INTRA.REPUL.0>
0

>  <SCORE.INTRA.SOLV>
0

>  <SCORE.INTRA.SOLV.lig_0>
-13.7928

>  <SCORE.INTRA.VDW>
0

>  <SCORE.INTRA.VDW.0>
0

>  <SCORE.INTRA.norm>
0

>  <SCORE.RESTR>
0

>  <SCORE.RESTR.CAVITY>
0

>  <SCORE.RESTR.norm>
0

>  <SCORE.SYSTEM>
0

>  <SCORE.SYSTEM.CONST>
0

>  <SCORE.SYSTEM.DIHEDRAL>
0

>  <SCORE.SYSTEM.SOLV>
0

>  <SCORE.SYSTEM.norm>
0

>  <SCORE.heavy>
10

>  <SCORE.norm>
-2.61192

>  <RMSD>
0.190

$$$$
1u8d_lig
 OpenBabel11021811413D
libRbt.so/2013.1/901 2013/11/27
 10 11  0  0  0  0  0  0  0  0999 V2000
   11.8384   10.5596    9.1652 N   0  0  0  0  0  0  0  0  0  0  0  0
   11.5724   11.9244    9.3693 C   0  0  0  0  0  0  0  0  0  0  0  0
   11.2331   12.7786    8.3703 N   0  0  0  0  0  0  0  0  0  0  0  0
   11.1766   12.1759    7.1628 C   0  0  0  0  0  0  0  0  0  0  0  0
   11.4582   10.7019    6.8766 C   0  0  0  0  0  0  0  0  0  0  0  0
   11.8070    9.8603    7.9441 C   0  0  0  0  0  0  0  0  0  0  0  0
   12.0659    8.6646    7.9456 O   0  0  0  0  0  0  0  0  0  0  0  0
   11.2901   10.5234    5.5308 N   0  0  0  0  0  0  0  0  0  0  0  0
   10.9289   11.7365    4.9976 C   0  0  0  0  0  0  0  0  0  0  0  0
   10.8522   12.7509    5.9482 N   0  0  0  0  0  0  0  0  0  0  0  0
  1  2  1  0  0  0  0
  1  6  1  0  0  0  0
  2  3  2  0  0  0  0
  3  4  1  0  0  0  0
  4  5  2  0  0  0  0
  4 10  1  0  0  0  0
  5  6  1  0  0  0  0
  5  8  1  0  0  0  0
  6  7  2  0  0  0  0
  8  9  1  0  0  0  0
  9 10  2  0  0  0  0
M  END
>  <CHROM.1>
11.43177443,11.13201770,7.34249122,0.36336196,-1.30733277,0.95530459

>  <Name>
1u8d_lig

>  <RI>
0

>  <Rbt.Current_Directory>
/home/itssahil/PROJECTS/Mol_Feturizer/New_Systems/rnas/1u8d

>  <Rbt.Executable>
rbdock ($Id: //depot/dev/client3/rdock/2013.1/src/exe/rbdock.cxx#4 $)

>  <Rbt.Library>
libRbt.so (2013.1, Build901 2013/11/27)

>  <Rbt.Parameter_File>
/export/apps/rDock/src/rDock_2013.1_src/data/scripts/dock_solv.prm

>  <Rbt.Receptor>
prm/pocket_docking_6.prm

>  <SCORE>
-26.104

>  <SCORE.INTER>
-26.104

>  <SCORE.INTER.CONST>
1

>  <SCORE.INTER.POLAR>
-1.93632

>  <SCORE.INTER.ROT>
0

>  <SCORE.INTER.SOLV>
11.5111

>  <SCORE.INTER.VDW>
-18.3853

>  <SCORE.INTER.norm>
-2.6104

>  <SCORE.INTRA>
0

>  <SCORE.INTRA.DIHEDRAL>
0

>  <SCORE.INTRA.DIHEDRAL.0>
0

>  <SCORE.INTRA.POLAR>
0

>  <SCORE.INTRA.POLAR.0>
0

>  <SCORE.INTRA.REPUL>
0

>  <SCORE.INTRA.REPUL.0>
0

>  <SCORE.INTRA.SOLV>
0

>  <SCORE.INTRA.SOLV.lig_0>
-13.7928

>  <SCORE.INTRA.VDW>
0

>  <SCORE.INTRA.VDW.0>
0

>  <SCORE.INTRA.norm>
0

>  <SCORE.RESTR>
0

>  <SCORE.RESTR.CAVITY>
0

>  <SCORE.RESTR.norm>
0

>  <SCORE.SYSTEM>
0

>  <SCORE.SYSTEM.CONST>
0

>  <SCORE.SYSTEM.DIHEDRAL>
0

>  <SCORE.SYSTEM.SOLV>
0

>  <SCORE.SYSTEM.norm>
0

>  <SCORE.heavy>
10

>  <SCORE.norm>
-2.6104

>  <RMSD>
0.190

$$$$
1u8d_lig
 OpenBabel11021811413D
libRbt.so/2013.1/901 2013/11/27
 10 11  0  0  0  0  0  0  0  0999 V2000
   11.8071   10.5537    9.1953 N   0  0  0  0  0  0  0  0  0  0  0  0
   11.5664   11.9249    9.3875 C   0  0  0  0  0  0  0  0  0  0  0  0
   11.2422   12.7764    8.3812 N   0  0  0  0  0  0  0  0  0  0  0  0
   11.1738   12.1642    7.1790 C   0  0  0  0  0  0  0  0  0  0  0  0
   11.4281   10.6829    6.9057 C   0  0  0  0  0  0  0  0  0  0  0  0
   11.7621    9.8444    7.9804 C   0  0  0  0  0  0  0  0  0  0  0  0
   11.9989    8.6442    7.9922 O   0  0  0  0  0  0  0  0  0  0  0  0
   11.2559   10.4957    5.5616 N   0  0  0  0  0  0  0  0  0  0  0  0
   10.9167   11.7105    5.0179 C   0  0  0  0  0  0  0  0  0  0  0  0
   10.8592   12.7345    5.9596 N   0  0  0  0  0  0  0  0  0  0  0  0
  1  2  1  0  0  0  0
  1  6  1  0  0  0  0
  2  3  2  0  0  0  0
  3  4  1  0  0  0  0
  4  5  2  0  0  0  0
  4 10  1  0  0  0  0
  5  6  1  0  0  0  0
  5  8  1  0  0  0  0
  6  7  2  0  0  0  0
  8  9  1  0  0  0  0
  9 10  2  0  0  0  0
M  END
>  <CHROM.1>
11.40987874,11.11747471,7.36780242,0.31808377,-1.32172962,0.90271484

>  <Name>
1u8d_lig

>  <RI>
0

>  <Rbt.Current_Directory>
/home/itssahil/PROJECTS/Mol_Feturizer/New_Systems/rnas/1u8d

>  <Rbt.Executable>
rbdock ($Id: //depot/dev/client3/rdock/2013.1/src/exe/rbdock.cxx#4 $)

>  <Rbt.Library>
libRbt.so (2013.1, Build901 2013/11/27)

>  <Rbt.Parameter_File>
/export/apps/rDock/src/rDock_2013.1_src/data/scripts/dock_solv.prm

>  <Rbt.Receptor>
prm/pocket_docking_7.prm

>  <SCORE>
-26.0753

>  <SCORE.INTER>
-26.0753

>  <SCORE.INTER.CONST>
1

>  <SCORE.INTER.POLAR>
-1.93632

>  <SCORE.INTER.ROT>
0

>  <SCORE.INTER.SOLV>
11.5746

>  <SCORE.INTER.VDW>
-18.3873

>  <SCORE.INTER.norm>
-2.60753

>  <SCORE.INTRA>
0

>  <SCORE.INTRA.DIHEDRAL>
0

>  <SCORE.INTRA.DIHEDRAL.0>
0

>  <SCORE.INTRA.POLAR>
0

>  <SCORE.INTRA.POLAR.0>
0

>  <SCORE.INTRA.REPUL>
0

>  <SCORE.INTRA.REPUL.0>
0

>  <SCORE.INTRA.SOLV>
0

>  <SCORE.INTRA.SOLV.lig_0>
-13.7928

>  <SCORE.INTRA.VDW>
0

>  <SCORE.INTRA.VDW.0>
0

>  <SCORE.INTRA.norm>
0

>  <SCORE.RESTR>
0

>  <SCORE.RESTR.CAVITY>
0

>  <SCORE.RESTR.norm>
0

>  <SCORE.SYSTEM>
0

>  <SCORE.SYSTEM.CONST>
0

>  <SCORE.SYSTEM.DIHEDRAL>
0

>  <SCORE.SYSTEM.SOLV>
0

>  <SCORE.SYSTEM.norm>
0

>  <SCORE.heavy>
10

>  <SCORE.norm>
-2.60753

>  <RMSD>
0.190

$$$$
1u8d_lig
 OpenBabel11021811413D
libRbt.so/2013.1/901 2013/11/27
 10 11  0  0  0  0  0  0  0  0999 V2000
   11.7225   10.4663    9.2796 N   0  0  0  0  0  0  0  0  0  0  0  0
   11.4292   11.8234    9.4973 C   0  0  0  0  0  0  0  0  0  0  0  0
   11.1114   12.6897    8.5017 N   0  0  0  0  0  0  0  0  0  0  0  0
   11.1050   12.1072    7.2830 C   0  0  0  0  0  0  0  0  0  0  0  0
   11.4184   10.6426    6.9820 C   0  0  0  0  0  0  0  0  0  0  0  0
   11.7433    9.7878    8.0466 C   0  0  0  0  0  0  0  0  0  0  0  0
   12.0199    8.5961    8.0369 O   0  0  0  0  0  0  0  0  0  0  0  0
   11.2989   10.4849    5.6285 N   0  0  0  0  0  0  0  0  0  0  0  0
   10.9378   11.7017    5.1036 C   0  0  0  0  0  0  0  0  0  0  0  0
   10.8135   12.6983    6.0678 N   0  0  0  0  0  0  0  0  0  0  0  0
  1  2  1  0  0  0  0
  1  6  1  0  0  0  0
  2  3  2  0  0  0  0
  3  4  1  0  0  0  0
  4  5  2  0  0  0  0
  4 10  1  0  0  0  0
  5  6  1  0  0  0  0
  5  8  1  0  0  0  0
  6  7  2  0  0  0  0
  8  9  1  0  0  0  0
  9 10  2  0  0  0  0
M  END
>  <CHROM.1>
11.36962149,11.06414362,7.45388531,0.50644494,-1.31217536,1.11056451

>  <Name>
1u8d_lig

>  <RI>
0

>  <Rbt.Current_Directory>
/home/itssahil/PROJECTS/Mol_Feturizer/New_Systems/rnas/1u8d

>  <Rbt.Executable>
rbdock ($Id: //depot/dev/client3/rdock/2013.1/src/exe/rbdock.cxx#4 $)

>  <Rbt.Library>
libRbt.so (2013.1, Build901 2013/11/27)

>  <Rbt.Parameter_File>
/export/apps/rDock/src/rDock_2013.1_src/data/scripts/dock_solv.prm

>  <Rbt.Receptor>
prm/pocket_docking_8.prm

>  <SCORE>
-26.0261

>  <SCORE.INTER>
-26.0261

>  <SCORE.INTER.CONST>
1

>  <SCORE.INTER.POLAR>
-1.93632

>  <SCORE.INTER.ROT>
0

>  <SCORE.INTER.SOLV>
11.6012

>  <SCORE.INTER.VDW>
-18.3634

>  <SCORE.INTER.norm>
-2.60261

>  <SCORE.INTRA>
0

>  <SCORE.INTRA.DIHEDRAL>
0

>  <SCORE.INTRA.DIHEDRAL.0>
0

>  <SCORE.INTRA.POLAR>
0

>  <SCORE.INTRA.POLAR.0>
0

>  <SCORE.INTRA.REPUL>
0

>  <SCORE.INTRA.REPUL.0>
0

>  <SCORE.INTRA.SOLV>
0

>  <SCORE.INTRA.SOLV.lig_0>
-13.7928

>  <SCORE.INTRA.VDW>
0

>  <SCORE.INTRA.VDW.0>
0

>  <SCORE.INTRA.norm>
0

>  <SCORE.RESTR>
0

>  <SCORE.RESTR.CAVITY>
0

>  <SCORE.RESTR.norm>
0

>  <SCORE.SYSTEM>
0

>  <SCORE.SYSTEM.CONST>
0

>  <SCORE.SYSTEM.DIHEDRAL>
0

>  <SCORE.SYSTEM.SOLV>
0

>  <SCORE.SYSTEM.norm>
0

>  <SCORE.heavy>
10

>  <SCORE.norm>
-2.60261

>  <RMSD>
0.190

$$$$
1u8d_lig
 OpenBabel11021811413D
libRbt.so/2013.1/901 2013/11/27
 10 11  0  0  0  0  0  0  0  0999 V2000
   11.7605   10.4884    9.2784 N   0  0  0  0  0  0  0  0  0  0  0  0
   11.4719   11.8452    9.5039 C   0  0  0  0  0  0  0  0  0  0  0  0
   11.1582   12.7186    8.5132 N   0  0  0  0  0  0  0  0  0  0  0  0
   11.1510   12.1434    7.2911 C   0  0  0  0  0  0  0  0  0  0  0  0
   11.4594   10.6796    6.9816 C   0  0  0  0  0  0  0  0  0  0  0  0
   11.7801    9.8172    8.0414 C   0  0  0  0  0  0  0  0  0  0  0  0
   12.0524    8.6246    8.0248 O   0  0  0  0  0  0  0  0  0  0  0  0
   11.3408   10.5304    5.6270 N   0  0  0  0  0  0  0  0  0  0  0  0
   10.9847   11.7517    5.1090 C   0  0  0  0  0  0  0  0  0  0  0  0
   10.8630   12.7429    6.0791 N   0  0  0  0  0  0  0  0  0  0  0  0
  1  2  1  0  0  0  0
  1  6  1  0  0  0  0
  2  3  2  0  0  0  0
  3  4  1  0  0  0  0
  4  5  2  0  0  0  0
  4 10  1  0  0  0  0
  5  6  1  0  0  0  0
  5  8  1  0  0  0  0
  6  7  2  0  0  0  0
  8  9  1  0  0  0  0
  9 10  2  0  0  0  0
M  END
>  <CHROM.1>
11.41167840,11.09847377,7.45591516,0.50384432,-1.31589090,1.11405220

>  <Name>
1u8d_lig

>  <RI>
0

>  <Rbt.Current_Directory>
/home/itssahil/PROJECTS/Mol_Feturizer/New_Systems/rnas/1u8d

>  <Rbt.Executable>
rbdock ($Id: //depot/dev/client3/rdock/2013.1/src/exe/rbdock.cxx#4 $)

>  <Rbt.Library>
libRbt.so (2013.1, Build901 2013/11/27)

>  <Rbt.Parameter_File>
/export/apps/rDock/src/rDock_2013.1_src/data/scripts/dock_solv.prm

>  <Rbt.Receptor>
prm/blind_docking_100.prm

>  <SCORE>
-26.0489

>  <SCORE.INTER>
-26.0489

>  <SCORE.INTER.CONST>
1

>  <SCORE.INTER.POLAR>
-1.93632

>  <SCORE.INTER.ROT>
0

>  <SCORE.INTER.SOLV>
11.5584

>  <SCORE.INTER.VDW>
-18.3644

>  <SCORE.INTER.norm>
-2.60489

>  <SCORE.INTRA>
0

>  <SCORE.INTRA.DIHEDRAL>
0

>  <SCORE.INTRA.DIHEDRAL.0>
0

>  <SCORE.INTRA.POLAR>
0

>  <SCORE.INTRA.POLAR.0>
0

>  <SCORE.INTRA.REPUL>
0

>  <SCORE.INTRA.REPUL.0>
0

>  <SCORE.INTRA.SOLV>
0

>  <SCORE.INTRA.SOLV.lig_0>
-13.7928

>  <SCORE.INTRA.VDW>
0

>  <SCORE.INTRA.VDW.0>
0

>  <SCORE.INTRA.norm>
0

>  <SCORE.RESTR>
0

>  <SCORE.RESTR.CAVITY>
0

>  <SCORE.RESTR.norm>
0

>  <SCORE.SYSTEM>
0

>  <SCORE.SYSTEM.CONST>
0

>  <SCORE.SYSTEM.DIHEDRAL>
0

>  <SCORE.SYSTEM.SOLV>
0

>  <SCORE.SYSTEM.norm>
0

>  <SCORE.heavy>
10

>  <SCORE.norm>
-2.60489

>  <RMSD>
0.191

$$$$
1u8d_lig
 OpenBabel11021811413D
libRbt.so/2013.1/901 2013/11/27
 10 11  0  0  0  0  0  0  0  0999 V2000
   11.8234   10.5619    9.1690 N   0  0  0  0  0  0  0  0  0  0  0  0
   11.5593   11.9266    9.3762 C   0  0  0  0  0  0  0  0  0  0  0  0
   11.2241   12.7842    8.3788 N   0  0  0  0  0  0  0  0  0  0  0  0
   11.1695   12.1850    7.1695 C   0  0  0  0  0  0  0  0  0  0  0  0
   11.4492   10.7113    6.8799 C   0  0  0  0  0  0  0  0  0  0  0  0
   11.7938    9.8661    7.9459 C   0  0  0  0  0  0  0  0  0  0  0  0
   12.0505    8.6699    7.9447 O   0  0  0  0  0  0  0  0  0  0  0  0
   11.2841   10.5368    5.5332 N   0  0  0  0  0  0  0  0  0  0  0  0
   10.9264   11.7521    5.0024 C   0  0  0  0  0  0  0  0  0  0  0  0
   10.8491   12.7640    5.9557 N   0  0  0  0  0  0  0  0  0  0  0  0
  1  2  1  0  0  0  0
  1  6  1  0  0  0  0
  2  3  2  0  0  0  0
  3  4  1  0  0  0  0
  4  5  2  0  0  0  0
  4 10  1  0  0  0  0
  5  6  1  0  0  0  0
  5  8  1  0  0  0  0
  6  7  2  0  0  0  0
  8  9  1  0  0  0  0
  9 10  2  0  0  0  0
M  END
>  <CHROM.1>
11.42234187,11.14015788,7.34690461,0.36715518,-1.31024695,0.96175245

>  <Name>
1u8d_lig

>  <RI>
0

>  <Rbt.Current_Directory>
/home/itssahil/PROJECTS/Mol_Feturizer/New_Systems/rnas/1u8d

>  <Rbt.Executable>
rbdock ($Id: //depot/dev/client3/rdock/2013.1/src/exe/rbdock.cxx#4 $)

>  <Rbt.Library>
libRbt.so (2013.1, Build901 2013/11/27)

>  <Rbt.Parameter_File>
/export/apps/rDock/src/rDock_2013.1_src/data/scripts/dock_solv.prm

>  <Rbt.Receptor>
prm/blind_docking_100.prm

>  <SCORE>
-26.109

>  <SCORE.INTER>
-26.109

>  <SCORE.INTER.CONST>
1

>  <SCORE.INTER.POLAR>
-1.93632

>  <SCORE.INTER.ROT>
0

>  <SCORE.INTER.SOLV>
11.5259

>  <SCORE.INTER.VDW>
-18.3936

>  <SCORE.INTER.norm>
-2.6109

>  <SCORE.INTRA>
0

>  <SCORE.INTRA.DIHEDRAL>
0

>  <SCORE.INTRA.DIHEDRAL.0>
0

>  <SCORE.INTRA.POLAR>
0

>  <SCORE.INTRA.POLAR.0>
0

>  <SCORE.INTRA.REPUL>
0

>  <SCORE.INTRA.REPUL.0>
0

>  <SCORE.INTRA.SOLV>
0

>  <SCORE.INTRA.SOLV.lig_0>
-13.7928

>  <SCORE.INTRA.VDW>
0

>  <SCORE.INTRA.VDW.0>
0

>  <SCORE.INTRA.norm>
0

>  <SCORE.RESTR>
0

>  <SCORE.RESTR.CAVITY>
0

>  <SCORE.RESTR.norm>
0

>  <SCORE.SYSTEM>
0

>  <SCORE.SYSTEM.CONST>
0

>  <SCORE.SYSTEM.DIHEDRAL>
0

>  <SCORE.SYSTEM.SOLV>
0

>  <SCORE.SYSTEM.norm>
0

>  <SCORE.heavy>
10

>  <SCORE.norm>
-2.6109

>  <RMSD>
0.191

$$$$
1u8d_lig
 OpenBabel11021811413D
libRbt.so/2013.1/901 2013/11/27
 10 11  0  0  0  0  0  0  0  0999 V2000
   11.8164   10.5397    9.1670 N   0  0  0  0  0  0  0  0  0  0  0  0
   11.5446   11.9017    9.3818 C   0  0  0  0  0  0  0  0  0  0  0  0
   11.2075   12.7635    8.3887 N   0  0  0  0  0  0  0  0  0  0  0  0
   11.1591   12.1714    7.1756 C   0  0  0  0  0  0  0  0  0  0  0  0
   11.4474   10.7011    6.8778 C   0  0  0  0  0  0  0  0  0  0  0  0
   11.7937    9.8512    7.9396 C   0  0  0  0  0  0  0  0  0  0  0  0
   12.0568    8.6564    7.9317 O   0  0  0  0  0  0  0  0  0  0  0  0
   11.2867   10.5340    5.5296 N   0  0  0  0  0  0  0  0  0  0  0  0
   10.9240   11.7506    5.0054 C   0  0  0  0  0  0  0  0  0  0  0  0
   10.8389   12.7562    5.9646 N   0  0  0  0  0  0  0  0  0  0  0  0
  1  2  1  0  0  0  0
  1  6  1  0  0  0  0
  2  3  2  0  0  0  0
  3  4  1  0  0  0  0
  4  5  2  0  0  0  0
  4 10  1  0  0  0  0
  5  6  1  0  0  0  0
  5  8  1  0  0  0  0
  6  7  2  0  0  0  0
  8  9  1  0  0  0  0
  9 10  2  0  0  0  0
M  END
>  <CHROM.1>
11.41706912,11.12691259,7.34735252,0.38702616,-1.30733883,0.98705718

>  <Name>
1u8d_lig

>  <RI>
0

>  <Rbt.Current_Directory>
/home/itssahil/PROJECTS/Mol_Feturizer/New_Systems/rnas/1u8d

>  <Rbt.Executable>
rbdock ($Id: //depot/dev/client3/rdock/2013.1/src/exe/rbdock.cxx#4 $)

>  <Rbt.Library>
libRbt.so (2013.1, Build901 2013/11/27)

>  <Rbt.Parameter_File>
/export/apps/rDock/src/rDock_2013.1_src/data/scripts/dock_solv.prm

>  <Rbt.Receptor>
prm/blind_docking_40.prm

>  <SCORE>
-26.089

>  <SCORE.INTER>
-26.089

>  <SCORE.INTER.CONST>
1

>  <SCORE.INTER.POLAR>
-1.93632

>  <SCORE.INTER.ROT>
0

>  <SCORE.INTER.SOLV>
11.521

>  <SCORE.INTER.VDW>
-18.3786

>  <SCORE.INTER.norm>
-2.6089

>  <SCORE.INTRA>
0

>  <SCORE.INTRA.DIHEDRAL>
0

>  <SCORE.INTRA.DIHEDRAL.0>
0

>  <SCORE.INTRA.POLAR>
0

>  <SCORE.INTRA.POLAR.0>
0

>  <SCORE.INTRA.REPUL>
0

>  <SCORE.INTRA.REPUL.0>
0

>  <SCORE.INTRA.SOLV>
0

>  <SCORE.INTRA.SOLV.lig_0>
-13.7928

>  <SCORE.INTRA.VDW>
0

>  <SCORE.INTRA.VDW.0>
0

>  <SCORE.INTRA.norm>
0

>  <SCORE.RESTR>
0

>  <SCORE.RESTR.CAVITY>
0

>  <SCORE.RESTR.norm>
0

>  <SCORE.SYSTEM>
0

>  <SCORE.SYSTEM.CONST>
0

>  <SCORE.SYSTEM.DIHEDRAL>
0

>  <SCORE.SYSTEM.SOLV>
0

>  <SCORE.SYSTEM.norm>
0

>  <SCORE.heavy>
10

>  <SCORE.norm>
-2.6089

>  <RMSD>
0.191

$$$$
1u8d_lig
 OpenBabel11021811413D
libRbt.so/2013.1/901 2013/11/27
 10 11  0  0  0  0  0  0  0  0999 V2000
   11.8217   10.5598    9.1714 N   0  0  0  0  0  0  0  0  0  0  0  0
   11.5625   11.9259    9.3749 C   0  0  0  0  0  0  0  0  0  0  0  0
   11.2289   12.7817    8.3753 N   0  0  0  0  0  0  0  0  0  0  0  0
   11.1707   12.1791    7.1679 C   0  0  0  0  0  0  0  0  0  0  0  0
   11.4450   10.7037    6.8823 C   0  0  0  0  0  0  0  0  0  0  0  0
   11.7881    9.8604    7.9504 C   0  0  0  0  0  0  0  0  0  0  0  0
   12.0408    8.6634    7.9523 O   0  0  0  0  0  0  0  0  0  0  0  0
   11.2776   10.5258    5.5363 N   0  0  0  0  0  0  0  0  0  0  0  0
   10.9234   11.7407    5.0024 C   0  0  0  0  0  0  0  0  0  0  0  0
   10.8508   12.7557    5.9528 N   0  0  0  0  0  0  0  0  0  0  0  0
  1  2  1  0  0  0  0
  1  6  1  0  0  0  0
  2  3  2  0  0  0  0
  3  4  1  0  0  0  0
  4  5  2  0  0  0  0
  4 10  1  0  0  0  0
  5  6  1  0  0  0  0
  5  8  1  0  0  0  0
  6  7  2  0  0  0  0
  8  9  1  0  0  0  0
  9 10  2  0  0  0  0
M  END
>  <CHROM.1>
11.42023376,11.13397917,7.34807069,0.35547029,-1.31228073,0.94751826

>  <Name>
1u8d_lig

>  <RI>
0

>  <Rbt.Current_Directory>
/home/itssahil/PROJECTS/Mol_Feturizer/New_Systems/rnas/1u8d

>  <Rbt.Executable>
rbdock ($Id: //depot/dev/client3/rdock/2013.1/src/exe/rbdock.cxx#4 $)

>  <Rbt.Library>
libRbt.so (2013.1, Build901 2013/11/27)

>  <Rbt.Parameter_File>
/export/apps/rDock/src/rDock_2013.1_src/data/scripts/dock_solv.prm

>  <Rbt.Receptor>
prm/blind_docking_40.prm

>  <SCORE>
-26.1169

>  <SCORE.INTER>
-26.1169

>  <SCORE.INTER.CONST>
1

>  <SCORE.INTER.POLAR>
-1.93632

>  <SCORE.INTER.ROT>
0

>  <SCORE.INTER.SOLV>
11.5329

>  <SCORE.INTER.VDW>
-18.4011

>  <SCORE.INTER.norm>
-2.61169

>  <SCORE.INTRA>
0

>  <SCORE.INTRA.DIHEDRAL>
0

>  <SCORE.INTRA.DIHEDRAL.0>
0

>  <SCORE.INTRA.POLAR>
0

>  <SCORE.INTRA.POLAR.0>
0

>  <SCORE.INTRA.REPUL>
0

>  <SCORE.INTRA.REPUL.0>
0

>  <SCORE.INTRA.SOLV>
0

>  <SCORE.INTRA.SOLV.lig_0>
-13.7928

>  <SCORE.INTRA.VDW>
0

>  <SCORE.INTRA.VDW.0>
0

>  <SCORE.INTRA.norm>
0

>  <SCORE.RESTR>
0

>  <SCORE.RESTR.CAVITY>
0

>  <SCORE.RESTR.norm>
0

>  <SCORE.SYSTEM>
0

>  <SCORE.SYSTEM.CONST>
0

>  <SCORE.SYSTEM.DIHEDRAL>
0

>  <SCORE.SYSTEM.SOLV>
0

>  <SCORE.SYSTEM.norm>
0

>  <SCORE.heavy>
10

>  <SCORE.norm>
-2.61169

>  <RMSD>
0.191

$$$$
1u8d_lig
 OpenBabel11021811413D
libRbt.so/2013.1/901 2013/11/27
 10 11  0  0  0  0  0  0  0  0999 V2000
   11.8226   10.5586    9.1751 N   0  0  0  0  0  0  0  0  0  0  0  0
   11.5671   11.9250    9.3816 C   0  0  0  0  0  0  0  0  0  0  0  0
   11.2319   12.7830    8.3845 N   0  0  0  0  0  0  0  0  0  0  0  0
   11.1680   12.1824    7.1764 C   0  0  0  0  0  0  0  0  0  0  0  0
   11.4381   10.7068    6.8876 C   0  0  0  0  0  0  0  0  0  0  0  0
   11.7831    9.8611    7.9532 C   0  0  0  0  0  0  0  0  0  0  0  0
   12.0331    8.6635    7.9524 O   0  0  0  0  0  0  0  0  0  0  0  0
   11.2655   10.5313    5.5420 N   0  0  0  0  0  0  0  0  0  0  0  0
   10.9120   11.7478    5.0112 C   0  0  0  0  0  0  0  0  0  0  0  0
   10.8450   12.7615    5.9633 N   0  0  0  0  0  0  0  0  0  0  0  0
  1  2  1  0  0  0  0
  1  6  1  0  0  0  0
  2  3  2  0  0  0  0
  3  4  1  0  0  0  0
  4  5  2  0  0  0  0
  4 10  1  0  0  0  0
  5  6  1  0  0  0  0
  5  8  1  0  0  0  0
  6  7  2  0  0  0  0
  8  9  1  0  0  0  0
  9 10  2  0  0  0  0
M  END
>  <CHROM.1>
11.41589770,11.13642585,7.35409482,0.33911543,-1.31195865,0.93321034

>  <Name>
1u8d_lig

>  <RI>
0

>  <Rbt.Current_Directory>
/home/itssahil/PROJECTS/Mol_Feturizer/New_Systems/rnas/1u8d

>  <Rbt.Executable>
rbdock ($Id: //depot/dev/client3/rdock/2013.1/src/exe/rbdock.cxx#4 $)

>  <Rbt.Library>
libRbt.so (2013.1, Build901 2013/11/27)

>  <Rbt.Parameter_File>
/export/apps/rDock/src/rDock_2013.1_src/data/scripts/dock_solv.prm

>  <Rbt.Receptor>
prm/blind_docking_60.prm

>  <SCORE>
-26.1187

>  <SCORE.INTER>
-26.1187

>  <SCORE.INTER.CONST>
1

>  <SCORE.INTER.POLAR>
-1.93632

>  <SCORE.INTER.ROT>
0

>  <SCORE.INTER.SOLV>
11.5309

>  <SCORE.INTER.VDW>
-18.4017

>  <SCORE.INTER.norm>
-2.61187

>  <SCORE.INTRA>
0

>  <SCORE.INTRA.DIHEDRAL>
0

>  <SCORE.INTRA.DIHEDRAL.0>
0

>  <SCORE.INTRA.POLAR>
0

>  <SCORE.INTRA.POLAR.0>
0

>  <SCORE.INTRA.REPUL>
0

>  <SCORE.INTRA.REPUL.0>
0

>  <SCORE.INTRA.SOLV>
0

>  <SCORE.INTRA.SOLV.lig_0>
-13.7928

>  <SCORE.INTRA.VDW>
0

>  <SCORE.INTRA.VDW.0>
0

>  <SCORE.INTRA.norm>
0

>  <SCORE.RESTR>
0

>  <SCORE.RESTR.CAVITY>
0

>  <SCORE.RESTR.norm>
0

>  <SCORE.SYSTEM>
0

>  <SCORE.SYSTEM.CONST>
0

>  <SCORE.SYSTEM.DIHEDRAL>
0

>  <SCORE.SYSTEM.SOLV>
0

>  <SCORE.SYSTEM.norm>
0

>  <SCORE.heavy>
10

>  <SCORE.norm>
-2.61187

>  <RMSD>
0.191

$$$$
1u8d_lig
 OpenBabel11021811413D
libRbt.so/2013.1/901 2013/11/27
 10 11  0  0  0  0  0  0  0  0999 V2000
   11.8195   10.5318    9.1767 N   0  0  0  0  0  0  0  0  0  0  0  0
   11.5609   11.8971    9.3864 C   0  0  0  0  0  0  0  0  0  0  0  0
   11.2240   12.7568    8.3914 N   0  0  0  0  0  0  0  0  0  0  0  0
   11.1619   12.1590    7.1817 C   0  0  0  0  0  0  0  0  0  0  0  0
   11.4354   10.6847    6.8894 C   0  0  0  0  0  0  0  0  0  0  0  0
   11.7820    9.8372    7.9530 C   0  0  0  0  0  0  0  0  0  0  0  0
   12.0348    8.6402    7.9494 O   0  0  0  0  0  0  0  0  0  0  0  0
   11.2636   10.5121    5.5433 N   0  0  0  0  0  0  0  0  0  0  0  0
   10.9075   11.7291    5.0154 C   0  0  0  0  0  0  0  0  0  0  0  0
   10.8380   12.7403    5.9700 N   0  0  0  0  0  0  0  0  0  0  0  0
  1  2  1  0  0  0  0
  1  6  1  0  0  0  0
  2  3  2  0  0  0  0
  3  4  1  0  0  0  0
  4  5  2  0  0  0  0
  4 10  1  0  0  0  0
  5  6  1  0  0  0  0
  5  8  1  0  0  0  0
  6  7  2  0  0  0  0
  8  9  1  0  0  0  0
  9 10  2  0  0  0  0
M  END
>  <CHROM.1>
11.41206735,11.11316053,7.35696279,0.34533062,-1.31031230,0.94166602

>  <Name>
1u8d_lig

>  <RI>
0

>  <Rbt.Current_Directory>
/home/itssahil/PROJECTS/Mol_Feturizer/New_Systems/rnas/1u8d

>  <Rbt.Executable>
rbdock ($Id: //depot/dev/client3/rdock/2013.1/src/exe/rbdock.cxx#4 $)

>  <Rbt.Library>
libRbt.so (2013.1, Build901 2013/11/27)

>  <Rbt.Parameter_File>
/export/apps/rDock/src/rDock_2013.1_src/data/scripts/dock_solv.prm

>  <Rbt.Receptor>
prm/pocket_docking_3.prm

>  <SCORE>
-26.0605

>  <SCORE.INTER>
-26.0605

>  <SCORE.INTER.CONST>
1

>  <SCORE.INTER.POLAR>
-1.93632

>  <SCORE.INTER.ROT>
0

>  <SCORE.INTER.SOLV>
11.5269

>  <SCORE.INTER.VDW>
-18.3616

>  <SCORE.INTER.norm>
-2.60605

>  <SCORE.INTRA>
0

>  <SCORE.INTRA.DIHEDRAL>
0

>  <SCORE.INTRA.DIHEDRAL.0>
0

>  <SCORE.INTRA.POLAR>
0

>  <SCORE.INTRA.POLAR.0>
0

>  <SCORE.INTRA.REPUL>
0

>  <SCORE.INTRA.REPUL.0>
0

>  <SCORE.INTRA.SOLV>
0

>  <SCORE.INTRA.SOLV.lig_0>
-13.7928

>  <SCORE.INTRA.VDW>
0

>  <SCORE.INTRA.VDW.0>
0

>  <SCORE.INTRA.norm>
0

>  <SCORE.RESTR>
0

>  <SCORE.RESTR.CAVITY>
0

>  <SCORE.RESTR.norm>
0

>  <SCORE.SYSTEM>
0

>  <SCORE.SYSTEM.CONST>
0

>  <SCORE.SYSTEM.DIHEDRAL>
0

>  <SCORE.SYSTEM.SOLV>
0

>  <SCORE.SYSTEM.norm>
0

>  <SCORE.heavy>
10

>  <SCORE.norm>
-2.60605

>  <RMSD>
0.191

$$$$
1u8d_lig
 OpenBabel11021811413D
libRbt.so/2013.1/901 2013/11/27
 10 11  0  0  0  0  0  0  0  0999 V2000
   11.6757   10.5374    9.2535 N   0  0  0  0  0  0  0  0  0  0  0  0
   11.3810   11.8955    9.4625 C   0  0  0  0  0  0  0  0  0  0  0  0
   11.0929   12.7623    8.4583 N   0  0  0  0  0  0  0  0  0  0  0  0
   11.1174   12.1791    7.2402 C   0  0  0  0  0  0  0  0  0  0  0  0
   11.4340   10.7133    6.9484 C   0  0  0  0  0  0  0  0  0  0  0  0
   11.7273    9.8581    8.0218 C   0  0  0  0  0  0  0  0  0  0  0  0
   12.0002    8.6655    8.0201 O   0  0  0  0  0  0  0  0  0  0  0  0
   11.3504   10.5552    5.5922 N   0  0  0  0  0  0  0  0  0  0  0  0
   11.0075   11.7729    5.0572 C   0  0  0  0  0  0  0  0  0  0  0  0
   10.8606   12.7705    6.0173 N   0  0  0  0  0  0  0  0  0  0  0  0
  1  2  1  0  0  0  0
  1  6  1  0  0  0  0
  2  3  2  0  0  0  0
  3  4  1  0  0  0  0
  4  5  2  0  0  0  0
  4 10  1  0  0  0  0
  5  6  1  0  0  0  0
  5  8  1  0  0  0  0
  6  7  2  0  0  0  0
  8  9  1  0  0  0  0
  9 10  2  0  0  0  0
M  END
>  <CHROM.1>
11.37389012,11.13532143,7.41860382,0.60001471,-1.32601152,1.20066712

>  <Name>
1u8d_lig

>  <RI>
0

>  <Rbt.Current_Directory>
/home/itssahil/PROJECTS/Mol_Feturizer/New_Systems/rnas/1u8d

>  <Rbt.Executable>
rbdock ($Id: //depot/dev/client3/rdock/2013.1/src/exe/rbdock.cxx#4 $)

>  <Rbt.Library>
libRbt.so (2013.1, Build901 2013/11/27)

>  <Rbt.Parameter_File>
/export/apps/rDock/src/rDock_2013.1_src/data/scripts/dock_solv.prm

>  <Rbt.Receptor>
prm/pocket_docking_3.prm

>  <SCORE>
-25.9071

>  <SCORE.INTER>
-25.9071

>  <SCORE.INTER.CONST>
1

>  <SCORE.INTER.POLAR>
-1.93632

>  <SCORE.INTER.ROT>
0

>  <SCORE.INTER.SOLV>
11.668

>  <SCORE.INTER.VDW>
-18.3063

>  <SCORE.INTER.norm>
-2.59071

>  <SCORE.INTRA>
0

>  <SCORE.INTRA.DIHEDRAL>
0

>  <SCORE.INTRA.DIHEDRAL.0>
0

>  <SCORE.INTRA.POLAR>
0

>  <SCORE.INTRA.POLAR.0>
0

>  <SCORE.INTRA.REPUL>
0

>  <SCORE.INTRA.REPUL.0>
0

>  <SCORE.INTRA.SOLV>
0

>  <SCORE.INTRA.SOLV.lig_0>
-13.7928

>  <SCORE.INTRA.VDW>
0

>  <SCORE.INTRA.VDW.0>
0

>  <SCORE.INTRA.norm>
0

>  <SCORE.RESTR>
0

>  <SCORE.RESTR.CAVITY>
0

>  <SCORE.RESTR.norm>
0

>  <SCORE.SYSTEM>
0

>  <SCORE.SYSTEM.CONST>
0

>  <SCORE.SYSTEM.DIHEDRAL>
0

>  <SCORE.SYSTEM.SOLV>
0

>  <SCORE.SYSTEM.norm>
0

>  <SCORE.heavy>
10

>  <SCORE.norm>
-2.59071

>  <RMSD>
0.191

$$$$
1u8d_lig
 OpenBabel11021811413D
libRbt.so/2013.1/901 2013/11/27
 10 11  0  0  0  0  0  0  0  0999 V2000
   11.7259   10.4951    9.2779 N   0  0  0  0  0  0  0  0  0  0  0  0
   11.4274   11.8496    9.5037 C   0  0  0  0  0  0  0  0  0  0  0  0
   11.1201   12.7240    8.5119 N   0  0  0  0  0  0  0  0  0  0  0  0
   11.1297   12.1522    7.2882 C   0  0  0  0  0  0  0  0  0  0  0  0
   11.4495   10.6909    6.9783 C   0  0  0  0  0  0  0  0  0  0  0  0
   11.7629    9.8274    8.0394 C   0  0  0  0  0  0  0  0  0  0  0  0
   12.0419    8.6363    8.0226 O   0  0  0  0  0  0  0  0  0  0  0  0
   11.3469   10.5448    5.6221 N   0  0  0  0  0  0  0  0  0  0  0  0
   10.9900   11.7655    5.1034 C   0  0  0  0  0  0  0  0  0  0  0  0
   10.8520   12.7534    6.0748 N   0  0  0  0  0  0  0  0  0  0  0  0
  1  2  1  0  0  0  0
  1  6  1  0  0  0  0
  2  3  2  0  0  0  0
  3  4  1  0  0  0  0
  4  5  2  0  0  0  0
  4 10  1  0  0  0  0
  5  6  1  0  0  0  0
  5  8  1  0  0  0  0
  6  7  2  0  0  0  0
  8  9  1  0  0  0  0
  9 10  2  0  0  0  0
M  END
>  <CHROM.1>
11.39418012,11.10820471,7.45321188,0.55319283,-1.31567391,1.16450479

>  <Name>
1u8d_lig

>  <RI>
0

>  <Rbt.Current_Directory>
/home/itssahil/PROJECTS/Mol_Feturizer/New_Systems/rnas/1u8d

>  <Rbt.Executable>
rbdock ($Id: //depot/dev/client3/rdock/2013.1/src/exe/rbdock.cxx#4 $)

>  <Rbt.Library>
libRbt.so (2013.1, Build901 2013/11/27)

>  <Rbt.Parameter_File>
/export/apps/rDock/src/rDock_2013.1_src/data/scripts/dock_solv.prm

>  <Rbt.Receptor>
prm/pocket_docking_3.prm

>  <SCORE>
-25.9962

>  <SCORE.INTER>
-25.9962

>  <SCORE.INTER.CONST>
1

>  <SCORE.INTER.POLAR>
-1.93632

>  <SCORE.INTER.ROT>
0

>  <SCORE.INTER.SOLV>
11.5891

>  <SCORE.INTER.VDW>
-18.3394

>  <SCORE.INTER.norm>
-2.59962

>  <SCORE.INTRA>
0

>  <SCORE.INTRA.DIHEDRAL>
0

>  <SCORE.INTRA.DIHEDRAL.0>
0

>  <SCORE.INTRA.POLAR>
0

>  <SCORE.INTRA.POLAR.0>
0

>  <SCORE.INTRA.REPUL>
0

>  <SCORE.INTRA.REPUL.0>
0

>  <SCORE.INTRA.SOLV>
0

>  <SCORE.INTRA.SOLV.lig_0>
-13.7928

>  <SCORE.INTRA.VDW>
0

>  <SCORE.INTRA.VDW.0>
0

>  <SCORE.INTRA.norm>
0

>  <SCORE.RESTR>
0

>  <SCORE.RESTR.CAVITY>
0

>  <SCORE.RESTR.norm>
0

>  <SCORE.SYSTEM>
0

>  <SCORE.SYSTEM.CONST>
0

>  <SCORE.SYSTEM.DIHEDRAL>
0

>  <SCORE.SYSTEM.SOLV>
0

>  <SCORE.SYSTEM.norm>
0

>  <SCORE.heavy>
10

>  <SCORE.norm>
-2.59962

>  <RMSD>
0.191

$$$$
1u8d_lig
 OpenBabel11021811413D
libRbt.so/2013.1/901 2013/11/27
 10 11  0  0  0  0  0  0  0  0999 V2000
   11.8367   10.5622    9.1597 N   0  0  0  0  0  0  0  0  0  0  0  0
   11.5679   11.9257    9.3684 C   0  0  0  0  0  0  0  0  0  0  0  0
   11.2248   12.7822    8.3727 N   0  0  0  0  0  0  0  0  0  0  0  0
   11.1674   12.1831    7.1635 C   0  0  0  0  0  0  0  0  0  0  0  0
   11.4520   10.7108    6.8722 C   0  0  0  0  0  0  0  0  0  0  0  0
   11.8048    9.8666    7.9365 C   0  0  0  0  0  0  0  0  0  0  0  0
   12.0665    8.6715    7.9337 O   0  0  0  0  0  0  0  0  0  0  0  0
   11.2819   10.5360    5.5262 N   0  0  0  0  0  0  0  0  0  0  0  0
   10.9168   11.7499    4.9974 C   0  0  0  0  0  0  0  0  0  0  0  0
   10.8395   12.7612    5.9512 N   0  0  0  0  0  0  0  0  0  0  0  0
  1  2  1  0  0  0  0
  1  6  1  0  0  0  0
  2  3  2  0  0  0  0
  3  4  1  0  0  0  0
  4  5  2  0  0  0  0
  4 10  1  0  0  0  0
  5  6  1  0  0  0  0
  5  8  1  0  0  0  0
  6  7  2  0  0  0  0
  8  9  1  0  0  0  0
  9 10  2  0  0  0  0
M  END
>  <CHROM.1>
11.42542635,11.13933700,7.33945683,0.36277287,-1.30435833,0.95783779

>  <Name>
1u8d_lig

>  <RI>
0

>  <Rbt.Current_Directory>
/home/itssahil/PROJECTS/Mol_Feturizer/New_Systems/rnas/1u8d

>  <Rbt.Executable>
rbdock ($Id: //depot/dev/client3/rdock/2013.1/src/exe/rbdock.cxx#4 $)

>  <Rbt.Library>
libRbt.so (2013.1, Build901 2013/11/27)

>  <Rbt.Parameter_File>
/export/apps/rDock/src/rDock_2013.1_src/data/scripts/dock_solv.prm

>  <Rbt.Receptor>
prm/pocket_docking_4.prm

>  <SCORE>
-26.1089

>  <SCORE.INTER>
-26.1089

>  <SCORE.INTER.CONST>
1

>  <SCORE.INTER.POLAR>
-1.93632

>  <SCORE.INTER.ROT>
0

>  <SCORE.INTER.SOLV>
11.5048

>  <SCORE.INTER.VDW>
-18.3865

>  <SCORE.INTER.norm>
-2.61089

>  <SCORE.INTRA>
0

>  <SCORE.INTRA.DIHEDRAL>
0

>  <SCORE.INTRA.DIHEDRAL.0>
0

>  <SCORE.INTRA.POLAR>
0

>  <SCORE.INTRA.POLAR.0>
0

>  <SCORE.INTRA.REPUL>
0

>  <SCORE.INTRA.REPUL.0>
0

>  <SCORE.INTRA.SOLV>
0

>  <SCORE.INTRA.SOLV.lig_0>
-13.7928

>  <SCORE.INTRA.VDW>
0

>  <SCORE.INTRA.VDW.0>
0

>  <SCORE.INTRA.norm>
0

>  <SCORE.RESTR>
0

>  <SCORE.RESTR.CAVITY>
0

>  <SCORE.RESTR.norm>
0

>  <SCORE.SYSTEM>
0

>  <SCORE.SYSTEM.CONST>
0

>  <SCORE.SYSTEM.DIHEDRAL>
0

>  <SCORE.SYSTEM.SOLV>
0

>  <SCORE.SYSTEM.norm>
0

>  <SCORE.heavy>
10

>  <SCORE.norm>
-2.61089

>  <RMSD>
0.191

$$$$
1u8d_lig
 OpenBabel11021811413D
libRbt.so/2013.1/901 2013/11/27
 10 11  0  0  0  0  0  0  0  0999 V2000
   11.8252   10.5595    9.1725 N   0  0  0  0  0  0  0  0  0  0  0  0
   11.5699   11.9262    9.3772 C   0  0  0  0  0  0  0  0  0  0  0  0
   11.2338   12.7828    8.3792 N   0  0  0  0  0  0  0  0  0  0  0  0
   11.1689   12.1804    7.1720 C   0  0  0  0  0  0  0  0  0  0  0  0
   11.4388   10.7044    6.8851 C   0  0  0  0  0  0  0  0  0  0  0  0
   11.7847    9.8603    7.9516 C   0  0  0  0  0  0  0  0  0  0  0  0
   12.0348    8.6627    7.9523 O   0  0  0  0  0  0  0  0  0  0  0  0
   11.2650   10.5270    5.5398 N   0  0  0  0  0  0  0  0  0  0  0  0
   10.9111   11.7428    5.0076 C   0  0  0  0  0  0  0  0  0  0  0  0
   10.8450   12.7578    5.9583 N   0  0  0  0  0  0  0  0  0  0  0  0
  1  2  1  0  0  0  0
  1  6  1  0  0  0  0
  2  3  2  0  0  0  0
  3  4  1  0  0  0  0
  4  5  2  0  0  0  0
  4 10  1  0  0  0  0
  5  6  1  0  0  0  0
  5  8  1  0  0  0  0
  6  7  2  0  0  0  0
  8  9  1  0  0  0  0
  9 10  2  0  0  0  0
M  END
>  <CHROM.1>
11.41699225,11.13472782,7.35097782,0.33651653,-1.31145428,0.92927185

>  <Name>
1u8d_lig

>  <RI>
0

>  <Rbt.Current_Directory>
/home/itssahil/PROJECTS/Mol_Feturizer/New_Systems/rnas/1u8d

>  <Rbt.Executable>
rbdock ($Id: //depot/dev/client3/rdock/2013.1/src/exe/rbdock.cxx#4 $)

>  <Rbt.Library>
libRbt.so (2013.1, Build901 2013/11/27)

>  <Rbt.Parameter_File>
/export/apps/rDock/src/rDock_2013.1_src/data/scripts/dock_solv.prm

>  <Rbt.Receptor>
prm/pocket_docking_6.prm

>  <SCORE>
-26.1194

>  <SCORE.INTER>
-26.1194

>  <SCORE.INTER.CONST>
1

>  <SCORE.INTER.POLAR>
-1.93632

>  <SCORE.INTER.ROT>
0

>  <SCORE.INTER.SOLV>
11.5292

>  <SCORE.INTER.VDW>
-18.4016

>  <SCORE.INTER.norm>
-2.61194

>  <SCORE.INTRA>
0

>  <SCORE.INTRA.DIHEDRAL>
0

>  <SCORE.INTRA.DIHEDRAL.0>
0

>  <SCORE.INTRA.POLAR>
0

>  <SCORE.INTRA.POLAR.0>
0

>  <SCORE.INTRA.REPUL>
0

>  <SCORE.INTRA.REPUL.0>
0

>  <SCORE.INTRA.SOLV>
0

>  <SCORE.INTRA.SOLV.lig_0>
-13.7928

>  <SCORE.INTRA.VDW>
0

>  <SCORE.INTRA.VDW.0>
0

>  <SCORE.INTRA.norm>
0

>  <SCORE.RESTR>
0

>  <SCORE.RESTR.CAVITY>
0

>  <SCORE.RESTR.norm>
0

>  <SCORE.SYSTEM>
0

>  <SCORE.SYSTEM.CONST>
0

>  <SCORE.SYSTEM.DIHEDRAL>
0

>  <SCORE.SYSTEM.SOLV>
0

>  <SCORE.SYSTEM.norm>
0

>  <SCORE.heavy>
10

>  <SCORE.norm>
-2.61194

>  <RMSD>
0.191

$$$$
1u8d_lig
 OpenBabel11021811413D
libRbt.so/2013.1/901 2013/11/27
 10 11  0  0  0  0  0  0  0  0999 V2000
   11.8292   10.5610    9.1625 N   0  0  0  0  0  0  0  0  0  0  0  0
   11.5657   11.9260    9.3686 C   0  0  0  0  0  0  0  0  0  0  0  0
   11.2272   12.7821    8.3709 N   0  0  0  0  0  0  0  0  0  0  0  0
   11.1688   12.1811    7.1627 C   0  0  0  0  0  0  0  0  0  0  0  0
   11.4477   10.7071    6.8743 C   0  0  0  0  0  0  0  0  0  0  0  0
   11.7957    9.8634    7.9405 C   0  0  0  0  0  0  0  0  0  0  0  0
   12.0526    8.6672    7.9401 O   0  0  0  0  0  0  0  0  0  0  0  0
   11.2783   10.5306    5.5284 N   0  0  0  0  0  0  0  0  0  0  0  0
   10.9188   11.7451    4.9971 C   0  0  0  0  0  0  0  0  0  0  0  0
   10.8445   12.7584    5.9491 N   0  0  0  0  0  0  0  0  0  0  0  0
  1  2  1  0  0  0  0
  1  6  1  0  0  0  0
  2  3  2  0  0  0  0
  3  4  1  0  0  0  0
  4  5  2  0  0  0  0
  4 10  1  0  0  0  0
  5  6  1  0  0  0  0
  5  8  1  0  0  0  0
  6  7  2  0  0  0  0
  8  9  1  0  0  0  0
  9 10  2  0  0  0  0
M  END
>  <CHROM.1>
11.42228035,11.13657943,7.34081201,0.35726258,-1.30834777,0.95076207

>  <Name>
1u8d_lig

>  <RI>
0

>  <Rbt.Current_Directory>
/home/itssahil/PROJECTS/Mol_Feturizer/New_Systems/rnas/1u8d

>  <Rbt.Executable>
rbdock ($Id: //depot/dev/client3/rdock/2013.1/src/exe/rbdock.cxx#4 $)

>  <Rbt.Library>
libRbt.so (2013.1, Build901 2013/11/27)

>  <Rbt.Parameter_File>
/export/apps/rDock/src/rDock_2013.1_src/data/scripts/dock_solv.prm

>  <Rbt.Receptor>
prm/blind_docking_60.prm

>  <SCORE>
-26.1156

>  <SCORE.INTER>
-26.1156

>  <SCORE.INTER.CONST>
1

>  <SCORE.INTER.POLAR>
-1.93632

>  <SCORE.INTER.ROT>
0

>  <SCORE.INTER.SOLV>
11.519

>  <SCORE.INTER.VDW>
-18.3957

>  <SCORE.INTER.norm>
-2.61156

>  <SCORE.INTRA>
0

>  <SCORE.INTRA.DIHEDRAL>
0

>  <SCORE.INTRA.DIHEDRAL.0>
0

>  <SCORE.INTRA.POLAR>
0

>  <SCORE.INTRA.POLAR.0>
0

>  <SCORE.INTRA.REPUL>
0

>  <SCORE.INTRA.REPUL.0>
0

>  <SCORE.INTRA.SOLV>
0

>  <SCORE.INTRA.SOLV.lig_0>
-13.7928

>  <SCORE.INTRA.VDW>
0

>  <SCORE.INTRA.VDW.0>
0

>  <SCORE.INTRA.norm>
0

>  <SCORE.RESTR>
0

>  <SCORE.RESTR.CAVITY>
0

>  <SCORE.RESTR.norm>
0

>  <SCORE.SYSTEM>
0

>  <SCORE.SYSTEM.CONST>
0

>  <SCORE.SYSTEM.DIHEDRAL>
0

>  <SCORE.SYSTEM.SOLV>
0

>  <SCORE.SYSTEM.norm>
0

>  <SCORE.heavy>
10

>  <SCORE.norm>
-2.61156

>  <RMSD>
0.192

$$$$
1u8d_lig
 OpenBabel11021811413D
libRbt.so/2013.1/901 2013/11/27
 10 11  0  0  0  0  0  0  0  0999 V2000
   11.8322   10.5556    9.1725 N   0  0  0  0  0  0  0  0  0  0  0  0
   11.5772   11.9218    9.3809 C   0  0  0  0  0  0  0  0  0  0  0  0
   11.2376   12.7804    8.3858 N   0  0  0  0  0  0  0  0  0  0  0  0
   11.1689   12.1805    7.1775 C   0  0  0  0  0  0  0  0  0  0  0  0
   11.4382   10.7051    6.8867 C   0  0  0  0  0  0  0  0  0  0  0  0
   11.7879    9.8589    7.9503 C   0  0  0  0  0  0  0  0  0  0  0  0
   12.0382    8.6614    7.9478 O   0  0  0  0  0  0  0  0  0  0  0  0
   11.2601   10.5304    5.5417 N   0  0  0  0  0  0  0  0  0  0  0  0
   10.9041   11.7472    5.0132 C   0  0  0  0  0  0  0  0  0  0  0  0
   10.8408   12.7602    5.9662 N   0  0  0  0  0  0  0  0  0  0  0  0
  1  2  1  0  0  0  0
  1  6  1  0  0  0  0
  2  3  2  0  0  0  0
  3  4  1  0  0  0  0
  4  5  2  0  0  0  0
  4 10  1  0  0  0  0
  5  6  1  0  0  0  0
  5  8  1  0  0  0  0
  6  7  2  0  0  0  0
  8  9  1  0  0  0  0
  9 10  2  0  0  0  0
M  END
>  <CHROM.1>
11.41782863,11.13448635,7.35359332,0.32688956,-1.30925420,0.92201674

>  <Name>
1u8d_lig

>  <RI>
0

>  <Rbt.Current_Directory>
/home/itssahil/PROJECTS/Mol_Feturizer/New_Systems/rnas/1u8d

>  <Rbt.Executable>
rbdock ($Id: //depot/dev/client3/rdock/2013.1/src/exe/rbdock.cxx#4 $)

>  <Rbt.Library>
libRbt.so (2013.1, Build901 2013/11/27)

>  <Rbt.Parameter_File>
/export/apps/rDock/src/rDock_2013.1_src/data/scripts/dock_solv.prm

>  <Rbt.Receptor>
prm/pocket_docking_3.prm

>  <SCORE>
-26.1189

>  <SCORE.INTER>
-26.1189

>  <SCORE.INTER.CONST>
1

>  <SCORE.INTER.POLAR>
-1.93632

>  <SCORE.INTER.ROT>
0

>  <SCORE.INTER.SOLV>
11.5184

>  <SCORE.INTER.VDW>
-18.3977

>  <SCORE.INTER.norm>
-2.61189

>  <SCORE.INTRA>
0

>  <SCORE.INTRA.DIHEDRAL>
0

>  <SCORE.INTRA.DIHEDRAL.0>
0

>  <SCORE.INTRA.POLAR>
0

>  <SCORE.INTRA.POLAR.0>
0

>  <SCORE.INTRA.REPUL>
0

>  <SCORE.INTRA.REPUL.0>
0

>  <SCORE.INTRA.SOLV>
0

>  <SCORE.INTRA.SOLV.lig_0>
-13.7928

>  <SCORE.INTRA.VDW>
0

>  <SCORE.INTRA.VDW.0>
0

>  <SCORE.INTRA.norm>
0

>  <SCORE.RESTR>
0

>  <SCORE.RESTR.CAVITY>
0

>  <SCORE.RESTR.norm>
0

>  <SCORE.SYSTEM>
0

>  <SCORE.SYSTEM.CONST>
0

>  <SCORE.SYSTEM.DIHEDRAL>
0

>  <SCORE.SYSTEM.SOLV>
0

>  <SCORE.SYSTEM.norm>
0

>  <SCORE.heavy>
10

>  <SCORE.norm>
-2.61189

>  <RMSD>
0.192

$$$$
1u8d_lig
 OpenBabel11021811413D
libRbt.so/2013.1/901 2013/11/27
 10 11  0  0  0  0  0  0  0  0999 V2000
   11.8273   10.5575    9.1730 N   0  0  0  0  0  0  0  0  0  0  0  0
   11.5719   11.9238    9.3800 C   0  0  0  0  0  0  0  0  0  0  0  0
   11.2350   12.7819    8.3836 N   0  0  0  0  0  0  0  0  0  0  0  0
   11.1693   12.1814    7.1755 C   0  0  0  0  0  0  0  0  0  0  0  0
   11.4391   10.7059    6.8861 C   0  0  0  0  0  0  0  0  0  0  0  0
   11.7860    9.8602    7.9510 C   0  0  0  0  0  0  0  0  0  0  0  0
   12.0362    8.6626    7.9497 O   0  0  0  0  0  0  0  0  0  0  0  0
   11.2644   10.5305    5.5407 N   0  0  0  0  0  0  0  0  0  0  0  0
   10.9099   11.7471    5.0107 C   0  0  0  0  0  0  0  0  0  0  0  0
   10.8443   12.7606    5.9630 N   0  0  0  0  0  0  0  0  0  0  0  0
  1  2  1  0  0  0  0
  1  6  1  0  0  0  0
  2  3  2  0  0  0  0
  3  4  1  0  0  0  0
  4  5  2  0  0  0  0
  4 10  1  0  0  0  0
  5  6  1  0  0  0  0
  5  8  1  0  0  0  0
  6  7  2  0  0  0  0
  8  9  1  0  0  0  0
  9 10  2  0  0  0  0
M  END
>  <CHROM.1>
11.41761039,11.13547358,7.35269348,0.33455968,-1.31086919,0.92893611

>  <Name>
1u8d_lig

>  <RI>
0

>  <Rbt.Current_Directory>
/home/itssahil/PROJECTS/Mol_Feturizer/New_Systems/rnas/1u8d

>  <Rbt.Executable>
rbdock ($Id: //depot/dev/client3/rdock/2013.1/src/exe/rbdock.cxx#4 $)

>  <Rbt.Library>
libRbt.so (2013.1, Build901 2013/11/27)

>  <Rbt.Parameter_File>
/export/apps/rDock/src/rDock_2013.1_src/data/scripts/dock_solv.prm

>  <Rbt.Receptor>
prm/pocket_docking_3.prm

>  <SCORE>
-26.1191

>  <SCORE.INTER>
-26.1191

>  <SCORE.INTER.CONST>
1

>  <SCORE.INTER.POLAR>
-1.93632

>  <SCORE.INTER.ROT>
0

>  <SCORE.INTER.SOLV>
11.5253

>  <SCORE.INTER.VDW>
-18.4001

>  <SCORE.INTER.norm>
-2.61191

>  <SCORE.INTRA>
0

>  <SCORE.INTRA.DIHEDRAL>
0

>  <SCORE.INTRA.DIHEDRAL.0>
0

>  <SCORE.INTRA.POLAR>
0

>  <SCORE.INTRA.POLAR.0>
0

>  <SCORE.INTRA.REPUL>
0

>  <SCORE.INTRA.REPUL.0>
0

>  <SCORE.INTRA.SOLV>
0

>  <SCORE.INTRA.SOLV.lig_0>
-13.7928

>  <SCORE.INTRA.VDW>
0

>  <SCORE.INTRA.VDW.0>
0

>  <SCORE.INTRA.norm>
0

>  <SCORE.RESTR>
0

>  <SCORE.RESTR.CAVITY>
0

>  <SCORE.RESTR.norm>
0

>  <SCORE.SYSTEM>
0

>  <SCORE.SYSTEM.CONST>
0

>  <SCORE.SYSTEM.DIHEDRAL>
0

>  <SCORE.SYSTEM.SOLV>
0

>  <SCORE.SYSTEM.norm>
0

>  <SCORE.heavy>
10

>  <SCORE.norm>
-2.61191

>  <RMSD>
0.192

$$$$
1u8d_lig
 OpenBabel11021811413D
libRbt.so/2013.1/901 2013/11/27
 10 11  0  0  0  0  0  0  0  0999 V2000
   11.8110   10.5575    9.1843 N   0  0  0  0  0  0  0  0  0  0  0  0
   11.5606   11.9251    9.3887 C   0  0  0  0  0  0  0  0  0  0  0  0
   11.2328   12.7837    8.3897 N   0  0  0  0  0  0  0  0  0  0  0  0
   11.1709   12.1824    7.1818 C   0  0  0  0  0  0  0  0  0  0  0  0
   11.4357   10.7054    6.8952 C   0  0  0  0  0  0  0  0  0  0  0  0
   11.7732    9.8592    7.9628 C   0  0  0  0  0  0  0  0  0  0  0  0
   12.0181    8.6605    7.9639 O   0  0  0  0  0  0  0  0  0  0  0  0
   11.2674   10.5295    5.5491 N   0  0  0  0  0  0  0  0  0  0  0  0
   10.9211   11.7471    5.0160 C   0  0  0  0  0  0  0  0  0  0  0  0
   10.8549   12.7618    5.9671 N   0  0  0  0  0  0  0  0  0  0  0  0
  1  2  1  0  0  0  0
  1  6  1  0  0  0  0
  2  3  2  0  0  0  0
  3  4  1  0  0  0  0
  4  5  2  0  0  0  0
  4 10  1  0  0  0  0
  5  6  1  0  0  0  0
  5  8  1  0  0  0  0
  6  7  2  0  0  0  0
  8  9  1  0  0  0  0
  9 10  2  0  0  0  0
M  END
>  <CHROM.1>
11.41361983,11.13552212,7.36131500,0.34100612,-1.31761089,0.93421812

>  <Name>
1u8d_lig

>  <RI>
0

>  <Rbt.Current_Directory>
/home/itssahil/PROJECTS/Mol_Feturizer/New_Systems/rnas/1u8d

>  <Rbt.Executable>
rbdock ($Id: //depot/dev/client3/rdock/2013.1/src/exe/rbdock.cxx#4 $)

>  <Rbt.Library>
libRbt.so (2013.1, Build901 2013/11/27)

>  <Rbt.Parameter_File>
/export/apps/rDock/src/rDock_2013.1_src/data/scripts/dock_solv.prm

>  <Rbt.Receptor>
prm/pocket_docking_3.prm

>  <SCORE>
-26.1171

>  <SCORE.INTER>
-26.1171

>  <SCORE.INTER.CONST>
1

>  <SCORE.INTER.POLAR>
-1.93632

>  <SCORE.INTER.ROT>
0

>  <SCORE.INTER.SOLV>
11.5521

>  <SCORE.INTER.VDW>
-18.4077

>  <SCORE.INTER.norm>
-2.61171

>  <SCORE.INTRA>
0

>  <SCORE.INTRA.DIHEDRAL>
0

>  <SCORE.INTRA.DIHEDRAL.0>
0

>  <SCORE.INTRA.POLAR>
0

>  <SCORE.INTRA.POLAR.0>
0

>  <SCORE.INTRA.REPUL>
0

>  <SCORE.INTRA.REPUL.0>
0

>  <SCORE.INTRA.SOLV>
0

>  <SCORE.INTRA.SOLV.lig_0>
-13.7928

>  <SCORE.INTRA.VDW>
0

>  <SCORE.INTRA.VDW.0>
0

>  <SCORE.INTRA.norm>
0

>  <SCORE.RESTR>
0

>  <SCORE.RESTR.CAVITY>
0

>  <SCORE.RESTR.norm>
0

>  <SCORE.SYSTEM>
0

>  <SCORE.SYSTEM.CONST>
0

>  <SCORE.SYSTEM.DIHEDRAL>
0

>  <SCORE.SYSTEM.SOLV>
0

>  <SCORE.SYSTEM.norm>
0

>  <SCORE.heavy>
10

>  <SCORE.norm>
-2.61171

>  <RMSD>
0.192

$$$$
1u8d_lig
 OpenBabel11021811413D
libRbt.so/2013.1/901 2013/11/27
 10 11  0  0  0  0  0  0  0  0999 V2000
   11.7371   10.4915    9.2863 N   0  0  0  0  0  0  0  0  0  0  0  0
   11.4409   11.8469    9.5107 C   0  0  0  0  0  0  0  0  0  0  0  0
   11.1325   12.7201    8.5183 N   0  0  0  0  0  0  0  0  0  0  0  0
   11.1385   12.1463    7.2955 C   0  0  0  0  0  0  0  0  0  0  0  0
   11.4556   10.6841    6.9871 C   0  0  0  0  0  0  0  0  0  0  0  0
   11.7703    9.8218    8.0488 C   0  0  0  0  0  0  0  0  0  0  0  0
   12.0477    8.6304    8.0333 O   0  0  0  0  0  0  0  0  0  0  0  0
   11.3496   10.5360    5.6314 N   0  0  0  0  0  0  0  0  0  0  0  0
   10.9931   11.7564    5.1116 C   0  0  0  0  0  0  0  0  0  0  0  0
   10.8588   12.7460    6.0817 N   0  0  0  0  0  0  0  0  0  0  0  0
  1  2  1  0  0  0  0
  1  6  1  0  0  0  0
  2  3  2  0  0  0  0
  3  4  1  0  0  0  0
  4  5  2  0  0  0  0
  4 10  1  0  0  0  0
  5  6  1  0  0  0  0
  5  8  1  0  0  0  0
  6  7  2  0  0  0  0
  8  9  1  0  0  0  0
  9 10  2  0  0  0  0
M  END
>  <CHROM.1>
11.40194328,11.10223549,7.46148334,0.54258680,-1.31596636,1.15267011

>  <Name>
1u8d_lig

>  <RI>
0

>  <Rbt.Current_Directory>
/home/itssahil/PROJECTS/Mol_Feturizer/New_Systems/rnas/1u8d

>  <Rbt.Executable>
rbdock ($Id: //depot/dev/client3/rdock/2013.1/src/exe/rbdock.cxx#4 $)

>  <Rbt.Library>
libRbt.so (2013.1, Build901 2013/11/27)

>  <Rbt.Parameter_File>
/export/apps/rDock/src/rDock_2013.1_src/data/scripts/dock_solv.prm

>  <Rbt.Receptor>
prm/pocket_docking_3.prm

>  <SCORE>
-25.9992

>  <SCORE.INTER>
-25.9992

>  <SCORE.INTER.CONST>
1

>  <SCORE.INTER.POLAR>
-1.93632

>  <SCORE.INTER.ROT>
0

>  <SCORE.INTER.SOLV>
11.579

>  <SCORE.INTER.VDW>
-18.3381

>  <SCORE.INTER.norm>
-2.59992

>  <SCORE.INTRA>
0

>  <SCORE.INTRA.DIHEDRAL>
0

>  <SCORE.INTRA.DIHEDRAL.0>
0

>  <SCORE.INTRA.POLAR>
0

>  <SCORE.INTRA.POLAR.0>
0

>  <SCORE.INTRA.REPUL>
0

>  <SCORE.INTRA.REPUL.0>
0

>  <SCORE.INTRA.SOLV>
0

>  <SCORE.INTRA.SOLV.lig_0>
-13.7928

>  <SCORE.INTRA.VDW>
0

>  <SCORE.INTRA.VDW.0>
0

>  <SCORE.INTRA.norm>
0

>  <SCORE.RESTR>
0

>  <SCORE.RESTR.CAVITY>
0

>  <SCORE.RESTR.norm>
0

>  <SCORE.SYSTEM>
0

>  <SCORE.SYSTEM.CONST>
0

>  <SCORE.SYSTEM.DIHEDRAL>
0

>  <SCORE.SYSTEM.SOLV>
0

>  <SCORE.SYSTEM.norm>
0

>  <SCORE.heavy>
10

>  <SCORE.norm>
-2.59992

>  <RMSD>
0.192

$$$$
1u8d_lig
 OpenBabel11021811413D
libRbt.so/2013.1/901 2013/11/27
 10 11  0  0  0  0  0  0  0  0999 V2000
   11.8216   10.5610    9.1670 N   0  0  0  0  0  0  0  0  0  0  0  0
   11.5609   11.9269    9.3703 C   0  0  0  0  0  0  0  0  0  0  0  0
   11.2271   12.7823    8.3705 N   0  0  0  0  0  0  0  0  0  0  0  0
   11.1702   12.1797    7.1630 C   0  0  0  0  0  0  0  0  0  0  0  0
   11.4463   10.7045    6.8776 C   0  0  0  0  0  0  0  0  0  0  0  0
   11.7896    9.8616    7.9460 C   0  0  0  0  0  0  0  0  0  0  0  0
   12.0435    8.6648    7.9481 O   0  0  0  0  0  0  0  0  0  0  0  0
   11.2800   10.5264    5.5316 N   0  0  0  0  0  0  0  0  0  0  0  0
   10.9248   11.7409    4.9974 C   0  0  0  0  0  0  0  0  0  0  0  0
   10.8505   12.7558    5.9477 N   0  0  0  0  0  0  0  0  0  0  0  0
  1  2  1  0  0  0  0
  1  6  1  0  0  0  0
  2  3  2  0  0  0  0
  3  4  1  0  0  0  0
  4  5  2  0  0  0  0
  4 10  1  0  0  0  0
  5  6  1  0  0  0  0
  5  8  1  0  0  0  0
  6  7  2  0  0  0  0
  8  9  1  0  0  0  0
  9 10  2  0  0  0  0
M  END
>  <CHROM.1>
11.42077150,11.13477188,7.34340540,0.35991312,-1.31181119,0.95178632

>  <Name>
1u8d_lig

>  <RI>
0

>  <Rbt.Current_Directory>
/home/itssahil/PROJECTS/Mol_Feturizer/New_Systems/rnas/1u8d

>  <Rbt.Executable>
rbdock ($Id: //depot/dev/client3/rdock/2013.1/src/exe/rbdock.cxx#4 $)

>  <Rbt.Library>
libRbt.so (2013.1, Build901 2013/11/27)

>  <Rbt.Parameter_File>
/export/apps/rDock/src/rDock_2013.1_src/data/scripts/dock_solv.prm

>  <Rbt.Receptor>
prm/pocket_docking_5.prm

>  <SCORE>
-26.1164

>  <SCORE.INTER>
-26.1164

>  <SCORE.INTER.CONST>
1

>  <SCORE.INTER.POLAR>
-1.93632

>  <SCORE.INTER.ROT>
0

>  <SCORE.INTER.SOLV>
11.5318

>  <SCORE.INTER.VDW>
-18.4005

>  <SCORE.INTER.norm>
-2.61164

>  <SCORE.INTRA>
0

>  <SCORE.INTRA.DIHEDRAL>
0

>  <SCORE.INTRA.DIHEDRAL.0>
0

>  <SCORE.INTRA.POLAR>
0

>  <SCORE.INTRA.POLAR.0>
0

>  <SCORE.INTRA.REPUL>
0

>  <SCORE.INTRA.REPUL.0>
0

>  <SCORE.INTRA.SOLV>
0

>  <SCORE.INTRA.SOLV.lig_0>
-13.7928

>  <SCORE.INTRA.VDW>
0

>  <SCORE.INTRA.VDW.0>
0

>  <SCORE.INTRA.norm>
0

>  <SCORE.RESTR>
0

>  <SCORE.RESTR.CAVITY>
0

>  <SCORE.RESTR.norm>
0

>  <SCORE.SYSTEM>
0

>  <SCORE.SYSTEM.CONST>
0

>  <SCORE.SYSTEM.DIHEDRAL>
0

>  <SCORE.SYSTEM.SOLV>
0

>  <SCORE.SYSTEM.norm>
0

>  <SCORE.heavy>
10

>  <SCORE.norm>
-2.61164

>  <RMSD>
0.192

$$$$
1u8d_lig
 OpenBabel11021811413D
libRbt.so/2013.1/901 2013/11/27
 10 11  0  0  0  0  0  0  0  0999 V2000
   11.8246   10.5623    9.1652 N   0  0  0  0  0  0  0  0  0  0  0  0
   11.5611   11.9274    9.3701 C   0  0  0  0  0  0  0  0  0  0  0  0
   11.2263   12.7835    8.3713 N   0  0  0  0  0  0  0  0  0  0  0  0
   11.1713   12.1823    7.1630 C   0  0  0  0  0  0  0  0  0  0  0  0
   11.4504   10.7080    6.8758 C   0  0  0  0  0  0  0  0  0  0  0  0
   11.7947    9.8644    7.9433 C   0  0  0  0  0  0  0  0  0  0  0  0
   12.0509    8.6681    7.9440 O   0  0  0  0  0  0  0  0  0  0  0  0
   11.2852   10.5313    5.5294 N   0  0  0  0  0  0  0  0  0  0  0  0
   10.9280   11.7459    4.9967 C   0  0  0  0  0  0  0  0  0  0  0  0
   10.8512   12.7594    5.9482 N   0  0  0  0  0  0  0  0  0  0  0  0
  1  2  1  0  0  0  0
  1  6  1  0  0  0  0
  2  3  2  0  0  0  0
  3  4  1  0  0  0  0
  4  5  2  0  0  0  0
  4 10  1  0  0  0  0
  5  6  1  0  0  0  0
  5  8  1  0  0  0  0
  6  7  2  0  0  0  0
  8  9  1  0  0  0  0
  9 10  2  0  0  0  0
M  END
>  <CHROM.1>
11.42376891,11.13762938,7.34214274,0.36619391,-1.31057087,0.95915355

>  <Name>
1u8d_lig

>  <RI>
0

>  <Rbt.Current_Directory>
/home/itssahil/PROJECTS/Mol_Feturizer/New_Systems/rnas/1u8d

>  <Rbt.Executable>
rbdock ($Id: //depot/dev/client3/rdock/2013.1/src/exe/rbdock.cxx#4 $)

>  <Rbt.Library>
libRbt.so (2013.1, Build901 2013/11/27)

>  <Rbt.Parameter_File>
/export/apps/rDock/src/rDock_2013.1_src/data/scripts/dock_solv.prm

>  <Rbt.Receptor>
prm/pocket_docking_6.prm

>  <SCORE>
-26.1103

>  <SCORE.INTER>
-26.1103

>  <SCORE.INTER.CONST>
1

>  <SCORE.INTER.POLAR>
-1.93632

>  <SCORE.INTER.ROT>
0

>  <SCORE.INTER.SOLV>
11.5267

>  <SCORE.INTER.VDW>
-18.3947

>  <SCORE.INTER.norm>
-2.61103

>  <SCORE.INTRA>
0

>  <SCORE.INTRA.DIHEDRAL>
0

>  <SCORE.INTRA.DIHEDRAL.0>
0

>  <SCORE.INTRA.POLAR>
0

>  <SCORE.INTRA.POLAR.0>
0

>  <SCORE.INTRA.REPUL>
0

>  <SCORE.INTRA.REPUL.0>
0

>  <SCORE.INTRA.SOLV>
0

>  <SCORE.INTRA.SOLV.lig_0>
-13.7928

>  <SCORE.INTRA.VDW>
0

>  <SCORE.INTRA.VDW.0>
0

>  <SCORE.INTRA.norm>
0

>  <SCORE.RESTR>
0

>  <SCORE.RESTR.CAVITY>
0

>  <SCORE.RESTR.norm>
0

>  <SCORE.SYSTEM>
0

>  <SCORE.SYSTEM.CONST>
0

>  <SCORE.SYSTEM.DIHEDRAL>
0

>  <SCORE.SYSTEM.SOLV>
0

>  <SCORE.SYSTEM.norm>
0

>  <SCORE.heavy>
10

>  <SCORE.norm>
-2.61103

>  <RMSD>
0.192

$$$$
1u8d_lig
 OpenBabel11021811413D
libRbt.so/2013.1/901 2013/11/27
 10 11  0  0  0  0  0  0  0  0999 V2000
   11.8282   10.5599    9.1663 N   0  0  0  0  0  0  0  0  0  0  0  0
   11.5691   11.9259    9.3708 C   0  0  0  0  0  0  0  0  0  0  0  0
   11.2317   12.7816    8.3724 N   0  0  0  0  0  0  0  0  0  0  0  0
   11.1695   12.1790    7.1651 C   0  0  0  0  0  0  0  0  0  0  0  0
   11.4436   10.7037    6.8785 C   0  0  0  0  0  0  0  0  0  0  0  0
   11.7907    9.8606    7.9454 C   0  0  0  0  0  0  0  0  0  0  0  0
   12.0440    8.6636    7.9464 O   0  0  0  0  0  0  0  0  0  0  0  0
   11.2716   10.5258    5.5331 N   0  0  0  0  0  0  0  0  0  0  0  0
   10.9149   11.7406    5.0006 C   0  0  0  0  0  0  0  0  0  0  0  0
   10.8452   12.7555    5.9512 N   0  0  0  0  0  0  0  0  0  0  0  0
  1  2  1  0  0  0  0
  1  6  1  0  0  0  0
  2  3  2  0  0  0  0
  3  4  1  0  0  0  0
  4  5  2  0  0  0  0
  4 10  1  0  0  0  0
  5  6  1  0  0  0  0
  5  8  1  0  0  0  0
  6  7  2  0  0  0  0
  8  9  1  0  0  0  0
  9 10  2  0  0  0  0
M  END
>  <CHROM.1>
11.42019454,11.13400422,7.34441644,0.34564397,-1.30987995,0.93807055

>  <Name>
1u8d_lig

>  <RI>
0

>  <Rbt.Current_Directory>
/home/itssahil/PROJECTS/Mol_Feturizer/New_Systems/rnas/1u8d

>  <Rbt.Executable>
rbdock ($Id: //depot/dev/client3/rdock/2013.1/src/exe/rbdock.cxx#4 $)

>  <Rbt.Library>
libRbt.so (2013.1, Build901 2013/11/27)

>  <Rbt.Parameter_File>
/export/apps/rDock/src/rDock_2013.1_src/data/scripts/dock_solv.prm

>  <Rbt.Receptor>
prm/pocket_docking_6.prm

>  <SCORE>
-26.1192

>  <SCORE.INTER>
-26.1192

>  <SCORE.INTER.CONST>
1

>  <SCORE.INTER.POLAR>
-1.93632

>  <SCORE.INTER.ROT>
0

>  <SCORE.INTER.SOLV>
11.5237

>  <SCORE.INTER.VDW>
-18.3996

>  <SCORE.INTER.norm>
-2.61192

>  <SCORE.INTRA>
0

>  <SCORE.INTRA.DIHEDRAL>
0

>  <SCORE.INTRA.DIHEDRAL.0>
0

>  <SCORE.INTRA.POLAR>
0

>  <SCORE.INTRA.POLAR.0>
0

>  <SCORE.INTRA.REPUL>
0

>  <SCORE.INTRA.REPUL.0>
0

>  <SCORE.INTRA.SOLV>
0

>  <SCORE.INTRA.SOLV.lig_0>
-13.7928

>  <SCORE.INTRA.VDW>
0

>  <SCORE.INTRA.VDW.0>
0

>  <SCORE.INTRA.norm>
0

>  <SCORE.RESTR>
0

>  <SCORE.RESTR.CAVITY>
0

>  <SCORE.RESTR.norm>
0

>  <SCORE.SYSTEM>
0

>  <SCORE.SYSTEM.CONST>
0

>  <SCORE.SYSTEM.DIHEDRAL>
0

>  <SCORE.SYSTEM.SOLV>
0

>  <SCORE.SYSTEM.norm>
0

>  <SCORE.heavy>
10

>  <SCORE.norm>
-2.61192

>  <RMSD>
0.192

$$$$
1u8d_lig
 OpenBabel11021811413D
libRbt.so/2013.1/901 2013/11/27
 10 11  0  0  0  0  0  0  0  0999 V2000
   11.8140   10.5388    9.1701 N   0  0  0  0  0  0  0  0  0  0  0  0
   11.5455   11.9014    9.3851 C   0  0  0  0  0  0  0  0  0  0  0  0
   11.2111   12.7644    8.3920 N   0  0  0  0  0  0  0  0  0  0  0  0
   11.1619   12.1727    7.1788 C   0  0  0  0  0  0  0  0  0  0  0  0
   11.4466   10.7017    6.8808 C   0  0  0  0  0  0  0  0  0  0  0  0
   11.7901    9.8506    7.9425 C   0  0  0  0  0  0  0  0  0  0  0  0
   12.0502    8.6552    7.9345 O   0  0  0  0  0  0  0  0  0  0  0  0
   11.2862   10.5352    5.5325 N   0  0  0  0  0  0  0  0  0  0  0  0
   10.9269   11.7529    5.0083 C   0  0  0  0  0  0  0  0  0  0  0  0
   10.8438   12.7585    5.9676 N   0  0  0  0  0  0  0  0  0  0  0  0
  1  2  1  0  0  0  0
  1  6  1  0  0  0  0
  2  3  2  0  0  0  0
  3  4  1  0  0  0  0
  4  5  2  0  0  0  0
  4 10  1  0  0  0  0
  5  6  1  0  0  0  0
  5  8  1  0  0  0  0
  6  7  2  0  0  0  0
  8  9  1  0  0  0  0
  9 10  2  0  0  0  0
M  END
>  <CHROM.1>
11.41709917,11.12746228,7.35038924,0.38330489,-1.30976953,0.98368473

>  <Name>
1u8d_lig

>  <RI>
0

>  <Rbt.Current_Directory>
/home/itssahil/PROJECTS/Mol_Feturizer/New_Systems/rnas/1u8d

>  <Rbt.Executable>
rbdock ($Id: //depot/dev/client3/rdock/2013.1/src/exe/rbdock.cxx#4 $)

>  <Rbt.Library>
libRbt.so (2013.1, Build901 2013/11/27)

>  <Rbt.Parameter_File>
/export/apps/rDock/src/rDock_2013.1_src/data/scripts/dock_solv.prm

>  <Rbt.Receptor>
prm/pocket_docking_7.prm

>  <SCORE>
-26.0895

>  <SCORE.INTER>
-26.0895

>  <SCORE.INTER.CONST>
1

>  <SCORE.INTER.POLAR>
-1.93632

>  <SCORE.INTER.ROT>
0

>  <SCORE.INTER.SOLV>
11.5262

>  <SCORE.INTER.VDW>
-18.3807

>  <SCORE.INTER.norm>
-2.60895

>  <SCORE.INTRA>
0

>  <SCORE.INTRA.DIHEDRAL>
0

>  <SCORE.INTRA.DIHEDRAL.0>
0

>  <SCORE.INTRA.POLAR>
0

>  <SCORE.INTRA.POLAR.0>
0

>  <SCORE.INTRA.REPUL>
0

>  <SCORE.INTRA.REPUL.0>
0

>  <SCORE.INTRA.SOLV>
0

>  <SCORE.INTRA.SOLV.lig_0>
-13.7928

>  <SCORE.INTRA.VDW>
0

>  <SCORE.INTRA.VDW.0>
0

>  <SCORE.INTRA.norm>
0

>  <SCORE.RESTR>
0

>  <SCORE.RESTR.CAVITY>
0

>  <SCORE.RESTR.norm>
0

>  <SCORE.SYSTEM>
0

>  <SCORE.SYSTEM.CONST>
0

>  <SCORE.SYSTEM.DIHEDRAL>
0

>  <SCORE.SYSTEM.SOLV>
0

>  <SCORE.SYSTEM.norm>
0

>  <SCORE.heavy>
10

>  <SCORE.norm>
-2.60895

>  <RMSD>
0.192

$$$$
1u8d_lig
 OpenBabel11021811413D
libRbt.so/2013.1/901 2013/11/27
 10 11  0  0  0  0  0  0  0  0999 V2000
   11.8307   10.5583    9.1661 N   0  0  0  0  0  0  0  0  0  0  0  0
   11.5714   11.9241    9.3723 C   0  0  0  0  0  0  0  0  0  0  0  0
   11.2320   12.7806    8.3754 N   0  0  0  0  0  0  0  0  0  0  0  0
   11.1681   12.1793    7.1676 C   0  0  0  0  0  0  0  0  0  0  0  0
   11.4421   10.7043    6.8791 C   0  0  0  0  0  0  0  0  0  0  0  0
   11.7914    9.8602    7.9445 C   0  0  0  0  0  0  0  0  0  0  0  0
   12.0450    8.6634    7.9439 O   0  0  0  0  0  0  0  0  0  0  0  0
   11.2679   10.5277    5.5338 N   0  0  0  0  0  0  0  0  0  0  0  0
   10.9100   11.7429    5.0030 C   0  0  0  0  0  0  0  0  0  0  0  0
   10.8414   12.7568    5.9548 N   0  0  0  0  0  0  0  0  0  0  0  0
  1  2  1  0  0  0  0
  1  6  1  0  0  0  0
  2  3  2  0  0  0  0
  3  4  1  0  0  0  0
  4  5  2  0  0  0  0
  4 10  1  0  0  0  0
  5  6  1  0  0  0  0
  5  8  1  0  0  0  0
  6  7  2  0  0  0  0
  8  9  1  0  0  0  0
  9 10  2  0  0  0  0
M  END
>  <CHROM.1>
11.41938860,11.13412292,7.34544488,0.34115659,-1.30859792,0.93472259

>  <Name>
1u8d_lig

>  <RI>
0

>  <Rbt.Current_Directory>
/home/itssahil/PROJECTS/Mol_Feturizer/New_Systems/rnas/1u8d

>  <Rbt.Executable>
rbdock ($Id: //depot/dev/client3/rdock/2013.1/src/exe/rbdock.cxx#4 $)

>  <Rbt.Library>
libRbt.so (2013.1, Build901 2013/11/27)

>  <Rbt.Parameter_File>
/export/apps/rDock/src/rDock_2013.1_src/data/scripts/dock_solv.prm

>  <Rbt.Receptor>
prm/pocket_docking_8.prm

>  <SCORE>
-26.1206

>  <SCORE.INTER>
-26.1206

>  <SCORE.INTER.CONST>
1

>  <SCORE.INTER.POLAR>
-1.93632

>  <SCORE.INTER.ROT>
0

>  <SCORE.INTER.SOLV>
11.5188

>  <SCORE.INTER.VDW>
-18.3989

>  <SCORE.INTER.norm>
-2.61206

>  <SCORE.INTRA>
0

>  <SCORE.INTRA.DIHEDRAL>
0

>  <SCORE.INTRA.DIHEDRAL.0>
0

>  <SCORE.INTRA.POLAR>
0

>  <SCORE.INTRA.POLAR.0>
0

>  <SCORE.INTRA.REPUL>
0

>  <SCORE.INTRA.REPUL.0>
0

>  <SCORE.INTRA.SOLV>
0

>  <SCORE.INTRA.SOLV.lig_0>
-13.7928

>  <SCORE.INTRA.VDW>
0

>  <SCORE.INTRA.VDW.0>
0

>  <SCORE.INTRA.norm>
0

>  <SCORE.RESTR>
0

>  <SCORE.RESTR.CAVITY>
0

>  <SCORE.RESTR.norm>
0

>  <SCORE.SYSTEM>
0

>  <SCORE.SYSTEM.CONST>
0

>  <SCORE.SYSTEM.DIHEDRAL>
0

>  <SCORE.SYSTEM.SOLV>
0

>  <SCORE.SYSTEM.norm>
0

>  <SCORE.heavy>
10

>  <SCORE.norm>
-2.61206

>  <RMSD>
0.192

$$$$
1u8d_lig
 OpenBabel11021811413D
libRbt.so/2013.1/901 2013/11/27
 10 11  0  0  0  0  0  0  0  0999 V2000
   11.8193   10.5577    9.1763 N   0  0  0  0  0  0  0  0  0  0  0  0
   11.5653   11.9246    9.3814 C   0  0  0  0  0  0  0  0  0  0  0  0
   11.2326   12.7823    8.3832 N   0  0  0  0  0  0  0  0  0  0  0  0
   11.1698   12.1809    7.1754 C   0  0  0  0  0  0  0  0  0  0  0  0
   11.4386   10.7048    6.8880 C   0  0  0  0  0  0  0  0  0  0  0  0
   11.7810    9.8595    7.9547 C   0  0  0  0  0  0  0  0  0  0  0  0
   12.0295    8.6616    7.9552 O   0  0  0  0  0  0  0  0  0  0  0  0
   11.2678   10.5285    5.5423 N   0  0  0  0  0  0  0  0  0  0  0  0
   10.9166   11.7451    5.0101 C   0  0  0  0  0  0  0  0  0  0  0  0
   10.8494   12.7595    5.9614 N   0  0  0  0  0  0  0  0  0  0  0  0
  1  2  1  0  0  0  0
  1  6  1  0  0  0  0
  2  3  2  0  0  0  0
  3  4  1  0  0  0  0
  4  5  2  0  0  0  0
  4 10  1  0  0  0  0
  5  6  1  0  0  0  0
  5  8  1  0  0  0  0
  6  7  2  0  0  0  0
  8  9  1  0  0  0  0
  9 10  2  0  0  0  0
M  END
>  <CHROM.1>
11.41618999,11.13477392,7.35421379,0.34117867,-1.31384210,0.93449834

>  <Name>
1u8d_lig

>  <RI>
0

>  <Rbt.Current_Directory>
/home/itssahil/PROJECTS/Mol_Feturizer/New_Systems/rnas/1u8d

>  <Rbt.Executable>
rbdock ($Id: //depot/dev/client3/rdock/2013.1/src/exe/rbdock.cxx#4 $)

>  <Rbt.Library>
libRbt.so (2013.1, Build901 2013/11/27)

>  <Rbt.Parameter_File>
/export/apps/rDock/src/rDock_2013.1_src/data/scripts/dock_solv.prm

>  <Rbt.Receptor>
prm/pocket_docking_8.prm

>  <SCORE>
-26.1202

>  <SCORE.INTER>
-26.1202

>  <SCORE.INTER.CONST>
1

>  <SCORE.INTER.POLAR>
-1.93632

>  <SCORE.INTER.ROT>
0

>  <SCORE.INTER.SOLV>
11.537

>  <SCORE.INTER.VDW>
-18.4047

>  <SCORE.INTER.norm>
-2.61202

>  <SCORE.INTRA>
0

>  <SCORE.INTRA.DIHEDRAL>
0

>  <SCORE.INTRA.DIHEDRAL.0>
0

>  <SCORE.INTRA.POLAR>
0

>  <SCORE.INTRA.POLAR.0>
0

>  <SCORE.INTRA.REPUL>
0

>  <SCORE.INTRA.REPUL.0>
0

>  <SCORE.INTRA.SOLV>
0

>  <SCORE.INTRA.SOLV.lig_0>
-13.7928

>  <SCORE.INTRA.VDW>
0

>  <SCORE.INTRA.VDW.0>
0

>  <SCORE.INTRA.norm>
0

>  <SCORE.RESTR>
0

>  <SCORE.RESTR.CAVITY>
0

>  <SCORE.RESTR.norm>
0

>  <SCORE.SYSTEM>
0

>  <SCORE.SYSTEM.CONST>
0

>  <SCORE.SYSTEM.DIHEDRAL>
0

>  <SCORE.SYSTEM.SOLV>
0

>  <SCORE.SYSTEM.norm>
0

>  <SCORE.heavy>
10

>  <SCORE.norm>
-2.61202

>  <RMSD>
0.192

$$$$
1u8d_lig
 OpenBabel11021811413D
libRbt.so/2013.1/901 2013/11/27
 10 11  0  0  0  0  0  0  0  0999 V2000
   11.6857   10.4547    9.3116 N   0  0  0  0  0  0  0  0  0  0  0  0
   11.2940   11.7863    9.5317 C   0  0  0  0  0  0  0  0  0  0  0  0
   10.9629   12.6441    8.5331 N   0  0  0  0  0  0  0  0  0  0  0  0
   11.0479   12.0801    7.3088 C   0  0  0  0  0  0  0  0  0  0  0  0
   11.4704   10.6438    7.0050 C   0  0  0  0  0  0  0  0  0  0  0  0
   11.8047    9.7969    8.0730 C   0  0  0  0  0  0  0  0  0  0  0  0
   12.1599    8.6262    8.0617 O   0  0  0  0  0  0  0  0  0  0  0  0
   11.4204   10.4981    5.6457 N   0  0  0  0  0  0  0  0  0  0  0  0
   11.0026   11.6961    5.1195 C   0  0  0  0  0  0  0  0  0  0  0  0
   10.7709   12.6684    6.0888 N   0  0  0  0  0  0  0  0  0  0  0  0
  1  2  1  0  0  0  0
  1  6  1  0  0  0  0
  2  3  2  0  0  0  0
  3  4  1  0  0  0  0
  4  5  2  0  0  0  0
  4 10  1  0  0  0  0
  5  6  1  0  0  0  0
  5  8  1  0  0  0  0
  6  7  2  0  0  0  0
  8  9  1  0  0  0  0
  9 10  2  0  0  0  0
M  END
>  <CHROM.1>
11.37341386,11.05437360,7.47906204,0.73482979,-1.26450235,1.34305928

>  <Name>
1u8d_lig

>  <RI>
0

>  <Rbt.Current_Directory>
/home/itssahil/PROJECTS/Mol_Feturizer/New_Systems/rnas/1u8d

>  <Rbt.Executable>
rbdock ($Id: //depot/dev/client3/rdock/2013.1/src/exe/rbdock.cxx#4 $)

>  <Rbt.Library>
libRbt.so (2013.1, Build901 2013/11/27)

>  <Rbt.Parameter_File>
/export/apps/rDock/src/rDock_2013.1_src/data/scripts/dock_solv.prm

>  <Rbt.Receptor>
prm/blind_docking_20.prm

>  <SCORE>
-25.5182

>  <SCORE.INTER>
-25.554

>  <SCORE.INTER.CONST>
1

>  <SCORE.INTER.POLAR>
-1.93578

>  <SCORE.INTER.ROT>
0

>  <SCORE.INTER.SOLV>
11.5486

>  <SCORE.INTER.VDW>
-18.033

>  <SCORE.INTER.norm>
-2.5554

>  <SCORE.INTRA>
0

>  <SCORE.INTRA.DIHEDRAL>
0

>  <SCORE.INTRA.DIHEDRAL.0>
0

>  <SCORE.INTRA.POLAR>
0

>  <SCORE.INTRA.POLAR.0>
0

>  <SCORE.INTRA.REPUL>
0

>  <SCORE.INTRA.REPUL.0>
0

>  <SCORE.INTRA.SOLV>
0

>  <SCORE.INTRA.SOLV.lig_0>
-13.7928

>  <SCORE.INTRA.VDW>
0

>  <SCORE.INTRA.VDW.0>
0

>  <SCORE.INTRA.norm>
0

>  <SCORE.RESTR>
0.035872

>  <SCORE.RESTR.CAVITY>
0.035872

>  <SCORE.RESTR.norm>
0.0035872

>  <SCORE.SYSTEM>
0

>  <SCORE.SYSTEM.CONST>
0

>  <SCORE.SYSTEM.DIHEDRAL>
0

>  <SCORE.SYSTEM.SOLV>
0

>  <SCORE.SYSTEM.norm>
0

>  <SCORE.heavy>
10

>  <SCORE.norm>
-2.55182

>  <RMSD>
0.193

$$$$
1u8d_lig
 OpenBabel11021811413D
libRbt.so/2013.1/901 2013/11/27
 10 11  0  0  0  0  0  0  0  0999 V2000
   11.8195   10.5584    9.1776 N   0  0  0  0  0  0  0  0  0  0  0  0
   11.5670   11.9255    9.3832 C   0  0  0  0  0  0  0  0  0  0  0  0
   11.2351   12.7839    8.3854 N   0  0  0  0  0  0  0  0  0  0  0  0
   11.1715   12.1830    7.1773 C   0  0  0  0  0  0  0  0  0  0  0  0
   11.4385   10.7066    6.8895 C   0  0  0  0  0  0  0  0  0  0  0  0
   11.7801    9.8606    7.9558 C   0  0  0  0  0  0  0  0  0  0  0  0
   12.0273    8.6624    7.9558 O   0  0  0  0  0  0  0  0  0  0  0  0
   11.2673   10.5311    5.5437 N   0  0  0  0  0  0  0  0  0  0  0  0
   10.9174   11.7482    5.0120 C   0  0  0  0  0  0  0  0  0  0  0  0
   10.8515   12.7624    5.9636 N   0  0  0  0  0  0  0  0  0  0  0  0
  1  2  1  0  0  0  0
  1  6  1  0  0  0  0
  2  3  2  0  0  0  0
  3  4  1  0  0  0  0
  4  5  2  0  0  0  0
  4 10  1  0  0  0  0
  5  6  1  0  0  0  0
  5  8  1  0  0  0  0
  6  7  2  0  0  0  0
  8  9  1  0  0  0  0
  9 10  2  0  0  0  0
M  END
>  <CHROM.1>
11.41669712,11.13652122,7.35578952,0.33794166,-1.31464886,0.93171282

>  <Name>
1u8d_lig

>  <RI>
0

>  <Rbt.Current_Directory>
/home/itssahil/PROJECTS/Mol_Feturizer/New_Systems/rnas/1u8d

>  <Rbt.Executable>
rbdock ($Id: //depot/dev/client3/rdock/2013.1/src/exe/rbdock.cxx#4 $)

>  <Rbt.Library>
libRbt.so (2013.1, Build901 2013/11/27)

>  <Rbt.Parameter_File>
/export/apps/rDock/src/rDock_2013.1_src/data/scripts/dock_solv.prm

>  <Rbt.Receptor>
prm/blind_docking_60.prm

>  <SCORE>
-26.1179

>  <SCORE.INTER>
-26.1179

>  <SCORE.INTER.CONST>
1

>  <SCORE.INTER.POLAR>
-1.93632

>  <SCORE.INTER.ROT>
0

>  <SCORE.INTER.SOLV>
11.538

>  <SCORE.INTER.VDW>
-18.4035

>  <SCORE.INTER.norm>
-2.61179

>  <SCORE.INTRA>
0

>  <SCORE.INTRA.DIHEDRAL>
0

>  <SCORE.INTRA.DIHEDRAL.0>
0

>  <SCORE.INTRA.POLAR>
0

>  <SCORE.INTRA.POLAR.0>
0

>  <SCORE.INTRA.REPUL>
0

>  <SCORE.INTRA.REPUL.0>
0

>  <SCORE.INTRA.SOLV>
0

>  <SCORE.INTRA.SOLV.lig_0>
-13.7928

>  <SCORE.INTRA.VDW>
0

>  <SCORE.INTRA.VDW.0>
0

>  <SCORE.INTRA.norm>
0

>  <SCORE.RESTR>
0

>  <SCORE.RESTR.CAVITY>
0

>  <SCORE.RESTR.norm>
0

>  <SCORE.SYSTEM>
0

>  <SCORE.SYSTEM.CONST>
0

>  <SCORE.SYSTEM.DIHEDRAL>
0

>  <SCORE.SYSTEM.SOLV>
0

>  <SCORE.SYSTEM.norm>
0

>  <SCORE.heavy>
10

>  <SCORE.norm>
-2.61179

>  <RMSD>
0.193

$$$$
1u8d_lig
 OpenBabel11021811413D
libRbt.so/2013.1/901 2013/11/27
 10 11  0  0  0  0  0  0  0  0999 V2000
   11.8239   10.5620    9.1668 N   0  0  0  0  0  0  0  0  0  0  0  0
   11.5606   11.9271    9.3723 C   0  0  0  0  0  0  0  0  0  0  0  0
   11.2281   12.7840    8.3734 N   0  0  0  0  0  0  0  0  0  0  0  0
   11.1752   12.1838    7.1645 C   0  0  0  0  0  0  0  0  0  0  0  0
   11.4542   10.7096    6.8768 C   0  0  0  0  0  0  0  0  0  0  0  0
   11.7960    9.8650    7.9443 C   0  0  0  0  0  0  0  0  0  0  0  0
   12.0517    8.6686    7.9446 O   0  0  0  0  0  0  0  0  0  0  0  0
   11.2916   10.5340    5.5300 N   0  0  0  0  0  0  0  0  0  0  0  0
   10.9360   11.7491    4.9974 C   0  0  0  0  0  0  0  0  0  0  0  0
   10.8578   12.7620    5.9496 N   0  0  0  0  0  0  0  0  0  0  0  0
  1  2  1  0  0  0  0
  1  6  1  0  0  0  0
  2  3  2  0  0  0  0
  3  4  1  0  0  0  0
  4  5  2  0  0  0  0
  4 10  1  0  0  0  0
  5  6  1  0  0  0  0
  5  8  1  0  0  0  0
  6  7  2  0  0  0  0
  8  9  1  0  0  0  0
  9 10  2  0  0  0  0
M  END
>  <CHROM.1>
11.42684824,11.13888730,7.34340304,0.37137780,-1.31208446,0.96491381

>  <Name>
1u8d_lig

>  <RI>
0

>  <Rbt.Current_Directory>
/home/itssahil/PROJECTS/Mol_Feturizer/New_Systems/rnas/1u8d

>  <Rbt.Executable>
rbdock ($Id: //depot/dev/client3/rdock/2013.1/src/exe/rbdock.cxx#4 $)

>  <Rbt.Library>
libRbt.so (2013.1, Build901 2013/11/27)

>  <Rbt.Parameter_File>
/export/apps/rDock/src/rDock_2013.1_src/data/scripts/dock_solv.prm

>  <Rbt.Receptor>
prm/pocket_docking_3.prm

>  <SCORE>
-26.1041

>  <SCORE.INTER>
-26.1041

>  <SCORE.INTER.CONST>
1

>  <SCORE.INTER.POLAR>
-1.93632

>  <SCORE.INTER.ROT>
0

>  <SCORE.INTER.SOLV>
11.5293

>  <SCORE.INTER.VDW>
-18.3914

>  <SCORE.INTER.norm>
-2.61041

>  <SCORE.INTRA>
0

>  <SCORE.INTRA.DIHEDRAL>
0

>  <SCORE.INTRA.DIHEDRAL.0>
0

>  <SCORE.INTRA.POLAR>
0

>  <SCORE.INTRA.POLAR.0>
0

>  <SCORE.INTRA.REPUL>
0

>  <SCORE.INTRA.REPUL.0>
0

>  <SCORE.INTRA.SOLV>
0

>  <SCORE.INTRA.SOLV.lig_0>
-13.7928

>  <SCORE.INTRA.VDW>
0

>  <SCORE.INTRA.VDW.0>
0

>  <SCORE.INTRA.norm>
0

>  <SCORE.RESTR>
0

>  <SCORE.RESTR.CAVITY>
0

>  <SCORE.RESTR.norm>
0

>  <SCORE.SYSTEM>
0

>  <SCORE.SYSTEM.CONST>
0

>  <SCORE.SYSTEM.DIHEDRAL>
0

>  <SCORE.SYSTEM.SOLV>
0

>  <SCORE.SYSTEM.norm>
0

>  <SCORE.heavy>
10

>  <SCORE.norm>
-2.61041

>  <RMSD>
0.193

$$$$
1u8d_lig
 OpenBabel11021811413D
libRbt.so/2013.1/901 2013/11/27
 10 11  0  0  0  0  0  0  0  0999 V2000
   11.8258   10.5417    9.1611 N   0  0  0  0  0  0  0  0  0  0  0  0
   11.5560   11.9042    9.3752 C   0  0  0  0  0  0  0  0  0  0  0  0
   11.2160   12.7651    8.3823 N   0  0  0  0  0  0  0  0  0  0  0  0
   11.1626   12.1715    7.1701 C   0  0  0  0  0  0  0  0  0  0  0  0
   11.4485   10.7005    6.8731 C   0  0  0  0  0  0  0  0  0  0  0  0
   11.7979    9.8516    7.9347 C   0  0  0  0  0  0  0  0  0  0  0  0
   12.0598    8.6566    7.9273 O   0  0  0  0  0  0  0  0  0  0  0  0
   11.2827   10.5318    5.5258 N   0  0  0  0  0  0  0  0  0  0  0  0
   10.9191   11.7481    5.0013 C   0  0  0  0  0  0  0  0  0  0  0  0
   10.8385   12.7550    5.9595 N   0  0  0  0  0  0  0  0  0  0  0  0
  1  2  1  0  0  0  0
  1  6  1  0  0  0  0
  2  3  2  0  0  0  0
  3  4  1  0  0  0  0
  4  5  2  0  0  0  0
  4 10  1  0  0  0  0
  5  6  1  0  0  0  0
  5  8  1  0  0  0  0
  6  7  2  0  0  0  0
  8  9  1  0  0  0  0
  9 10  2  0  0  0  0
M  END
>  <CHROM.1>
11.42024011,11.12697839,7.34223164,0.37331045,-1.30605348,0.97255303

>  <Name>
1u8d_lig

>  <RI>
0

>  <Rbt.Current_Directory>
/home/itssahil/PROJECTS/Mol_Feturizer/New_Systems/rnas/1u8d

>  <Rbt.Executable>
rbdock ($Id: //depot/dev/client3/rdock/2013.1/src/exe/rbdock.cxx#4 $)

>  <Rbt.Library>
libRbt.so (2013.1, Build901 2013/11/27)

>  <Rbt.Parameter_File>
/export/apps/rDock/src/rDock_2013.1_src/data/scripts/dock_solv.prm

>  <Rbt.Receptor>
prm/pocket_docking_4.prm

>  <SCORE>
-26.0916

>  <SCORE.INTER>
-26.0916

>  <SCORE.INTER.CONST>
1

>  <SCORE.INTER.POLAR>
-1.93632

>  <SCORE.INTER.ROT>
0

>  <SCORE.INTER.SOLV>
11.5113

>  <SCORE.INTER.VDW>
-18.3771

>  <SCORE.INTER.norm>
-2.60916

>  <SCORE.INTRA>
0

>  <SCORE.INTRA.DIHEDRAL>
0

>  <SCORE.INTRA.DIHEDRAL.0>
0

>  <SCORE.INTRA.POLAR>
0

>  <SCORE.INTRA.POLAR.0>
0

>  <SCORE.INTRA.REPUL>
0

>  <SCORE.INTRA.REPUL.0>
0

>  <SCORE.INTRA.SOLV>
0

>  <SCORE.INTRA.SOLV.lig_0>
-13.7928

>  <SCORE.INTRA.VDW>
0

>  <SCORE.INTRA.VDW.0>
0

>  <SCORE.INTRA.norm>
0

>  <SCORE.RESTR>
0

>  <SCORE.RESTR.CAVITY>
0

>  <SCORE.RESTR.norm>
0

>  <SCORE.SYSTEM>
0

>  <SCORE.SYSTEM.CONST>
0

>  <SCORE.SYSTEM.DIHEDRAL>
0

>  <SCORE.SYSTEM.SOLV>
0

>  <SCORE.SYSTEM.norm>
0

>  <SCORE.heavy>
10

>  <SCORE.norm>
-2.60916

>  <RMSD>
0.193

$$$$
1u8d_lig
 OpenBabel11021811413D
libRbt.so/2013.1/901 2013/11/27
 10 11  0  0  0  0  0  0  0  0999 V2000
   11.8342   10.5576    9.1638 N   0  0  0  0  0  0  0  0  0  0  0  0
   11.5761   11.9235    9.3705 C   0  0  0  0  0  0  0  0  0  0  0  0
   11.2358   12.7803    8.3741 N   0  0  0  0  0  0  0  0  0  0  0  0
   11.1698   12.1790    7.1664 C   0  0  0  0  0  0  0  0  0  0  0  0
   11.4426   10.7039    6.8774 C   0  0  0  0  0  0  0  0  0  0  0  0
   11.7928    9.8596    7.9423 C   0  0  0  0  0  0  0  0  0  0  0  0
   12.0457    8.6626    7.9413 O   0  0  0  0  0  0  0  0  0  0  0  0
   11.2664   10.5275    5.5324 N   0  0  0  0  0  0  0  0  0  0  0  0
   10.9084   11.7429    5.0022 C   0  0  0  0  0  0  0  0  0  0  0  0
   10.8418   12.7568    5.9541 N   0  0  0  0  0  0  0  0  0  0  0  0
  1  2  1  0  0  0  0
  1  6  1  0  0  0  0
  2  3  2  0  0  0  0
  3  4  1  0  0  0  0
  4  5  2  0  0  0  0
  4 10  1  0  0  0  0
  5  6  1  0  0  0  0
  5  8  1  0  0  0  0
  6  7  2  0  0  0  0
  8  9  1  0  0  0  0
  9 10  2  0  0  0  0
M  END
>  <CHROM.1>
11.42072046,11.13372556,7.34381796,0.33544707,-1.30825813,0.92925594

>  <Name>
1u8d_lig

>  <RI>
0

>  <Rbt.Current_Directory>
/home/itssahil/PROJECTS/Mol_Feturizer/New_Systems/rnas/1u8d

>  <Rbt.Executable>
rbdock ($Id: //depot/dev/client3/rdock/2013.1/src/exe/rbdock.cxx#4 $)

>  <Rbt.Library>
libRbt.so (2013.1, Build901 2013/11/27)

>  <Rbt.Parameter_File>
/export/apps/rDock/src/rDock_2013.1_src/data/scripts/dock_solv.prm

>  <Rbt.Receptor>
prm/pocket_docking_5.prm

>  <SCORE>
-26.1207

>  <SCORE.INTER>
-26.1207

>  <SCORE.INTER.CONST>
1

>  <SCORE.INTER.POLAR>
-1.93632

>  <SCORE.INTER.ROT>
0

>  <SCORE.INTER.SOLV>
11.5153

>  <SCORE.INTER.VDW>
-18.3979

>  <SCORE.INTER.norm>
-2.61207

>  <SCORE.INTRA>
0

>  <SCORE.INTRA.DIHEDRAL>
0

>  <SCORE.INTRA.DIHEDRAL.0>
0

>  <SCORE.INTRA.POLAR>
0

>  <SCORE.INTRA.POLAR.0>
0

>  <SCORE.INTRA.REPUL>
0

>  <SCORE.INTRA.REPUL.0>
0

>  <SCORE.INTRA.SOLV>
0

>  <SCORE.INTRA.SOLV.lig_0>
-13.7928

>  <SCORE.INTRA.VDW>
0

>  <SCORE.INTRA.VDW.0>
0

>  <SCORE.INTRA.norm>
0

>  <SCORE.RESTR>
0

>  <SCORE.RESTR.CAVITY>
0

>  <SCORE.RESTR.norm>
0

>  <SCORE.SYSTEM>
0

>  <SCORE.SYSTEM.CONST>
0

>  <SCORE.SYSTEM.DIHEDRAL>
0

>  <SCORE.SYSTEM.SOLV>
0

>  <SCORE.SYSTEM.norm>
0

>  <SCORE.heavy>
10

>  <SCORE.norm>
-2.61207

>  <RMSD>
0.193

$$$$
1u8d_lig
 OpenBabel11021811413D
libRbt.so/2013.1/901 2013/11/27
 10 11  0  0  0  0  0  0  0  0999 V2000
   11.8253   10.5617    9.1675 N   0  0  0  0  0  0  0  0  0  0  0  0
   11.5614   11.9261    9.3768 C   0  0  0  0  0  0  0  0  0  0  0  0
   11.2267   12.7853    8.3805 N   0  0  0  0  0  0  0  0  0  0  0  0
   11.1724   12.1880    7.1703 C   0  0  0  0  0  0  0  0  0  0  0  0
   11.4521   10.7148    6.8785 C   0  0  0  0  0  0  0  0  0  0  0  0
   11.7961    9.8678    7.9433 C   0  0  0  0  0  0  0  0  0  0  0  0
   12.0526    8.6716    7.9402 O   0  0  0  0  0  0  0  0  0  0  0  0
   11.2874   10.5424    5.5314 N   0  0  0  0  0  0  0  0  0  0  0  0
   10.9302   11.7586    5.0025 C   0  0  0  0  0  0  0  0  0  0  0  0
   10.8527   12.7690    5.9573 N   0  0  0  0  0  0  0  0  0  0  0  0
  1  2  1  0  0  0  0
  1  6  1  0  0  0  0
  2  3  2  0  0  0  0
  3  4  1  0  0  0  0
  4  5  2  0  0  0  0
  4 10  1  0  0  0  0
  5  6  1  0  0  0  0
  5  8  1  0  0  0  0
  6  7  2  0  0  0  0
  8  9  1  0  0  0  0
  9 10  2  0  0  0  0
M  END
>  <CHROM.1>
11.42508914,11.14288807,7.34613880,0.36807136,-1.31060191,0.96421970

>  <Name>
1u8d_lig

>  <RI>
0

>  <Rbt.Current_Directory>
/home/itssahil/PROJECTS/Mol_Feturizer/New_Systems/rnas/1u8d

>  <Rbt.Executable>
rbdock ($Id: //depot/dev/client3/rdock/2013.1/src/exe/rbdock.cxx#4 $)

>  <Rbt.Library>
libRbt.so (2013.1, Build901 2013/11/27)

>  <Rbt.Parameter_File>
/export/apps/rDock/src/rDock_2013.1_src/data/scripts/dock_solv.prm

>  <Rbt.Receptor>
prm/pocket_docking_6.prm

>  <SCORE>
-26.1046

>  <SCORE.INTER>
-26.1046

>  <SCORE.INTER.CONST>
1

>  <SCORE.INTER.POLAR>
-1.93632

>  <SCORE.INTER.ROT>
0

>  <SCORE.INTER.SOLV>
11.5237

>  <SCORE.INTER.VDW>
-18.3899

>  <SCORE.INTER.norm>
-2.61046

>  <SCORE.INTRA>
0

>  <SCORE.INTRA.DIHEDRAL>
0

>  <SCORE.INTRA.DIHEDRAL.0>
0

>  <SCORE.INTRA.POLAR>
0

>  <SCORE.INTRA.POLAR.0>
0

>  <SCORE.INTRA.REPUL>
0

>  <SCORE.INTRA.REPUL.0>
0

>  <SCORE.INTRA.SOLV>
0

>  <SCORE.INTRA.SOLV.lig_0>
-13.7928

>  <SCORE.INTRA.VDW>
0

>  <SCORE.INTRA.VDW.0>
0

>  <SCORE.INTRA.norm>
0

>  <SCORE.RESTR>
0

>  <SCORE.RESTR.CAVITY>
0

>  <SCORE.RESTR.norm>
0

>  <SCORE.SYSTEM>
0

>  <SCORE.SYSTEM.CONST>
0

>  <SCORE.SYSTEM.DIHEDRAL>
0

>  <SCORE.SYSTEM.SOLV>
0

>  <SCORE.SYSTEM.norm>
0

>  <SCORE.heavy>
10

>  <SCORE.norm>
-2.61046

>  <RMSD>
0.193

$$$$
1u8d_lig
 OpenBabel11021811413D
libRbt.so/2013.1/901 2013/11/27
 10 11  0  0  0  0  0  0  0  0999 V2000
   11.8374   10.5629    9.1563 N   0  0  0  0  0  0  0  0  0  0  0  0
   11.5663   11.9260    9.3648 C   0  0  0  0  0  0  0  0  0  0  0  0
   11.2246   12.7824    8.3686 N   0  0  0  0  0  0  0  0  0  0  0  0
   11.1708   12.1836    7.1590 C   0  0  0  0  0  0  0  0  0  0  0  0
   11.4579   10.7116    6.8680 C   0  0  0  0  0  0  0  0  0  0  0  0
   11.8092    9.8676    7.9329 C   0  0  0  0  0  0  0  0  0  0  0  0
   12.0724    8.6729    7.9304 O   0  0  0  0  0  0  0  0  0  0  0  0
   11.2912   10.5370    5.5215 N   0  0  0  0  0  0  0  0  0  0  0  0
   10.9259   11.7507    4.9922 C   0  0  0  0  0  0  0  0  0  0  0  0
   10.8450   12.7616    5.9462 N   0  0  0  0  0  0  0  0  0  0  0  0
  1  2  1  0  0  0  0
  1  6  1  0  0  0  0
  2  3  2  0  0  0  0
  3  4  1  0  0  0  0
  4  5  2  0  0  0  0
  4 10  1  0  0  0  0
  5  6  1  0  0  0  0
  5  8  1  0  0  0  0
  6  7  2  0  0  0  0
  8  9  1  0  0  0  0
  9 10  2  0  0  0  0
M  END
>  <CHROM.1>
11.42967016,11.14003346,7.33532818,0.37290487,-1.30469308,0.96789682

>  <Name>
1u8d_lig

>  <RI>
0

>  <Rbt.Current_Directory>
/home/itssahil/PROJECTS/Mol_Feturizer/New_Systems/rnas/1u8d

>  <Rbt.Executable>
rbdock ($Id: //depot/dev/client3/rdock/2013.1/src/exe/rbdock.cxx#4 $)

>  <Rbt.Library>
libRbt.so (2013.1, Build901 2013/11/27)

>  <Rbt.Parameter_File>
/export/apps/rDock/src/rDock_2013.1_src/data/scripts/dock_solv.prm

>  <Rbt.Receptor>
prm/pocket_docking_6.prm

>  <SCORE>
-26.1026

>  <SCORE.INTER>
-26.1026

>  <SCORE.INTER.CONST>
1

>  <SCORE.INTER.POLAR>
-1.93632

>  <SCORE.INTER.ROT>
0

>  <SCORE.INTER.SOLV>
11.5044

>  <SCORE.INTER.VDW>
-18.3822

>  <SCORE.INTER.norm>
-2.61026

>  <SCORE.INTRA>
0

>  <SCORE.INTRA.DIHEDRAL>
0

>  <SCORE.INTRA.DIHEDRAL.0>
0

>  <SCORE.INTRA.POLAR>
0

>  <SCORE.INTRA.POLAR.0>
0

>  <SCORE.INTRA.REPUL>
0

>  <SCORE.INTRA.REPUL.0>
0

>  <SCORE.INTRA.SOLV>
0

>  <SCORE.INTRA.SOLV.lig_0>
-13.7928

>  <SCORE.INTRA.VDW>
0

>  <SCORE.INTRA.VDW.0>
0

>  <SCORE.INTRA.norm>
0

>  <SCORE.RESTR>
0

>  <SCORE.RESTR.CAVITY>
0

>  <SCORE.RESTR.norm>
0

>  <SCORE.SYSTEM>
0

>  <SCORE.SYSTEM.CONST>
0

>  <SCORE.SYSTEM.DIHEDRAL>
0

>  <SCORE.SYSTEM.SOLV>
0

>  <SCORE.SYSTEM.norm>
0

>  <SCORE.heavy>
10

>  <SCORE.norm>
-2.61026

>  <RMSD>
0.193

$$$$
1u8d_lig
 OpenBabel11021811413D
libRbt.so/2013.1/901 2013/11/27
 10 11  0  0  0  0  0  0  0  0999 V2000
   11.8345   10.5579    9.1649 N   0  0  0  0  0  0  0  0  0  0  0  0
   11.5765   11.9237    9.3722 C   0  0  0  0  0  0  0  0  0  0  0  0
   11.2352   12.7807    8.3764 N   0  0  0  0  0  0  0  0  0  0  0  0
   11.1680   12.1798    7.1685 C   0  0  0  0  0  0  0  0  0  0  0  0
   11.4406   10.7048    6.8789 C   0  0  0  0  0  0  0  0  0  0  0  0
   11.7919    9.8602    7.9432 C   0  0  0  0  0  0  0  0  0  0  0  0
   12.0449    8.6632    7.9416 O   0  0  0  0  0  0  0  0  0  0  0  0
   11.2630   10.5287    5.5340 N   0  0  0  0  0  0  0  0  0  0  0  0
   10.9045   11.7443    5.0044 C   0  0  0  0  0  0  0  0  0  0  0  0
   10.8388   12.7579    5.9567 N   0  0  0  0  0  0  0  0  0  0  0  0
  1  2  1  0  0  0  0
  1  6  1  0  0  0  0
  2  3  2  0  0  0  0
  3  4  1  0  0  0  0
  4  5  2  0  0  0  0
  4 10  1  0  0  0  0
  5  6  1  0  0  0  0
  5  8  1  0  0  0  0
  6  7  2  0  0  0  0
  8  9  1  0  0  0  0
  9 10  2  0  0  0  0
M  END
>  <CHROM.1>
11.41916227,11.13447886,7.34541996,0.33253414,-1.30760375,0.92672055

>  <Name>
1u8d_lig

>  <RI>
0

>  <Rbt.Current_Directory>
/home/itssahil/PROJECTS/Mol_Feturizer/New_Systems/rnas/1u8d

>  <Rbt.Executable>
rbdock ($Id: //depot/dev/client3/rdock/2013.1/src/exe/rbdock.cxx#4 $)

>  <Rbt.Library>
libRbt.so (2013.1, Build901 2013/11/27)

>  <Rbt.Parameter_File>
/export/apps/rDock/src/rDock_2013.1_src/data/scripts/dock_solv.prm

>  <Rbt.Receptor>
prm/pocket_docking_7.prm

>  <SCORE>
-26.1203

>  <SCORE.INTER>
-26.1203

>  <SCORE.INTER.CONST>
1

>  <SCORE.INTER.POLAR>
-1.93632

>  <SCORE.INTER.ROT>
0

>  <SCORE.INTER.SOLV>
11.5139

>  <SCORE.INTER.VDW>
-18.3971

>  <SCORE.INTER.norm>
-2.61203

>  <SCORE.INTRA>
0

>  <SCORE.INTRA.DIHEDRAL>
0

>  <SCORE.INTRA.DIHEDRAL.0>
0

>  <SCORE.INTRA.POLAR>
0

>  <SCORE.INTRA.POLAR.0>
0

>  <SCORE.INTRA.REPUL>
0

>  <SCORE.INTRA.REPUL.0>
0

>  <SCORE.INTRA.SOLV>
0

>  <SCORE.INTRA.SOLV.lig_0>
-13.7928

>  <SCORE.INTRA.VDW>
0

>  <SCORE.INTRA.VDW.0>
0

>  <SCORE.INTRA.norm>
0

>  <SCORE.RESTR>
0

>  <SCORE.RESTR.CAVITY>
0

>  <SCORE.RESTR.norm>
0

>  <SCORE.SYSTEM>
0

>  <SCORE.SYSTEM.CONST>
0

>  <SCORE.SYSTEM.DIHEDRAL>
0

>  <SCORE.SYSTEM.SOLV>
0

>  <SCORE.SYSTEM.norm>
0

>  <SCORE.heavy>
10

>  <SCORE.norm>
-2.61203

>  <RMSD>
0.193

$$$$
1u8d_lig
 OpenBabel11021811413D
libRbt.so/2013.1/901 2013/11/27
 10 11  0  0  0  0  0  0  0  0999 V2000
   11.8391   10.5563    9.1657 N   0  0  0  0  0  0  0  0  0  0  0  0
   11.5840   11.9224    9.3743 C   0  0  0  0  0  0  0  0  0  0  0  0
   11.2406   12.7803    8.3799 N   0  0  0  0  0  0  0  0  0  0  0  0
   11.1682   12.1798    7.1722 C   0  0  0  0  0  0  0  0  0  0  0  0
   11.4375   10.7045    6.8811 C   0  0  0  0  0  0  0  0  0  0  0  0
   11.7912    9.8590    7.9439 C   0  0  0  0  0  0  0  0  0  0  0  0
   12.0423    8.6616    7.9411 O   0  0  0  0  0  0  0  0  0  0  0  0
   11.2550   10.5291    5.5368 N   0  0  0  0  0  0  0  0  0  0  0  0
   10.8965   11.7454    5.0089 C   0  0  0  0  0  0  0  0  0  0  0  0
   10.8357   12.7588    5.9617 N   0  0  0  0  0  0  0  0  0  0  0  0
  1  2  1  0  0  0  0
  1  6  1  0  0  0  0
  2  3  2  0  0  0  0
  3  4  1  0  0  0  0
  4  5  2  0  0  0  0
  4 10  1  0  0  0  0
  5  6  1  0  0  0  0
  5  8  1  0  0  0  0
  6  7  2  0  0  0  0
  8  9  1  0  0  0  0
  9 10  2  0  0  0  0
M  END
>  <CHROM.1>
11.41837943,11.13407023,7.34787169,0.31819221,-1.30673693,0.91317872

>  <Name>
1u8d_lig

>  <RI>
0

>  <Rbt.Current_Directory>
/home/itssahil/PROJECTS/Mol_Feturizer/New_Systems/rnas/1u8d

>  <Rbt.Executable>
rbdock ($Id: //depot/dev/client3/rdock/2013.1/src/exe/rbdock.cxx#4 $)

>  <Rbt.Library>
libRbt.so (2013.1, Build901 2013/11/27)

>  <Rbt.Parameter_File>
/export/apps/rDock/src/rDock_2013.1_src/data/scripts/dock_solv.prm

>  <Rbt.Receptor>
prm/blind_docking_100.prm

>  <SCORE>
-26.1186

>  <SCORE.INTER>
-26.1186

>  <SCORE.INTER.CONST>
1

>  <SCORE.INTER.POLAR>
-1.93632

>  <SCORE.INTER.ROT>
0

>  <SCORE.INTER.SOLV>
11.5089

>  <SCORE.INTER.VDW>
-18.3943

>  <SCORE.INTER.norm>
-2.61186

>  <SCORE.INTRA>
0

>  <SCORE.INTRA.DIHEDRAL>
0

>  <SCORE.INTRA.DIHEDRAL.0>
0

>  <SCORE.INTRA.POLAR>
0

>  <SCORE.INTRA.POLAR.0>
0

>  <SCORE.INTRA.REPUL>
0

>  <SCORE.INTRA.REPUL.0>
0

>  <SCORE.INTRA.SOLV>
0

>  <SCORE.INTRA.SOLV.lig_0>
-13.7928

>  <SCORE.INTRA.VDW>
0

>  <SCORE.INTRA.VDW.0>
0

>  <SCORE.INTRA.norm>
0

>  <SCORE.RESTR>
0

>  <SCORE.RESTR.CAVITY>
0

>  <SCORE.RESTR.norm>
0

>  <SCORE.SYSTEM>
0

>  <SCORE.SYSTEM.CONST>
0

>  <SCORE.SYSTEM.DIHEDRAL>
0

>  <SCORE.SYSTEM.SOLV>
0

>  <SCORE.SYSTEM.norm>
0

>  <SCORE.heavy>
10

>  <SCORE.norm>
-2.61186

>  <RMSD>
0.194

$$$$
1u8d_lig
 OpenBabel11021811413D
libRbt.so/2013.1/901 2013/11/27
 10 11  0  0  0  0  0  0  0  0999 V2000
   11.6804   10.4476    9.2368 N   0  0  0  0  0  0  0  0  0  0  0  0
   11.3178   11.7914    9.4308 C   0  0  0  0  0  0  0  0  0  0  0  0
   10.9719   12.6272    8.4186 N   0  0  0  0  0  0  0  0  0  0  0  0
   11.0113   12.0283    7.2086 C   0  0  0  0  0  0  0  0  0  0  0  0
   11.4004   10.5770    6.9330 C   0  0  0  0  0  0  0  0  0  0  0  0
   11.7518    9.7540    8.0141 C   0  0  0  0  0  0  0  0  0  0  0  0
   12.0867    8.5773    8.0253 O   0  0  0  0  0  0  0  0  0  0  0  0
   11.3079   10.3949    5.5804 N   0  0  0  0  0  0  0  0  0  0  0  0
   10.8950   11.5851    5.0331 C   0  0  0  0  0  0  0  0  0  0  0  0
   10.7084   12.5876    5.9811 N   0  0  0  0  0  0  0  0  0  0  0  0
  1  2  1  0  0  0  0
  1  6  1  0  0  0  0
  2  3  2  0  0  0  0
  3  4  1  0  0  0  0
  4  5  2  0  0  0  0
  4 10  1  0  0  0  0
  5  6  1  0  0  0  0
  5  8  1  0  0  0  0
  6  7  2  0  0  0  0
  8  9  1  0  0  0  0
  9 10  2  0  0  0  0
M  END
>  <CHROM.1>
11.32436987,11.00208753,7.39800080,0.62386979,-1.27251570,1.20936163

>  <Name>
1u8d_lig

>  <RI>
0

>  <Rbt.Current_Directory>
/home/itssahil/PROJECTS/Mol_Feturizer/New_Systems/rnas/1u8d

>  <Rbt.Executable>
rbdock ($Id: //depot/dev/client3/rdock/2013.1/src/exe/rbdock.cxx#4 $)

>  <Rbt.Library>
libRbt.so (2013.1, Build901 2013/11/27)

>  <Rbt.Parameter_File>
/export/apps/rDock/src/rDock_2013.1_src/data/scripts/dock_solv.prm

>  <Rbt.Receptor>
prm/blind_docking_20.prm

>  <SCORE>
-25.7303

>  <SCORE.INTER>
-25.7308

>  <SCORE.INTER.CONST>
1

>  <SCORE.INTER.POLAR>
-1.93632

>  <SCORE.INTER.ROT>
0

>  <SCORE.INTER.SOLV>
11.6037

>  <SCORE.INTER.VDW>
-18.1674

>  <SCORE.INTER.norm>
-2.57308

>  <SCORE.INTRA>
0

>  <SCORE.INTRA.DIHEDRAL>
0

>  <SCORE.INTRA.DIHEDRAL.0>
0

>  <SCORE.INTRA.POLAR>
0

>  <SCORE.INTRA.POLAR.0>
0

>  <SCORE.INTRA.REPUL>
0

>  <SCORE.INTRA.REPUL.0>
0

>  <SCORE.INTRA.SOLV>
0

>  <SCORE.INTRA.SOLV.lig_0>
-13.7928

>  <SCORE.INTRA.VDW>
0

>  <SCORE.INTRA.VDW.0>
0

>  <SCORE.INTRA.norm>
0

>  <SCORE.RESTR>
0.000518266

>  <SCORE.RESTR.CAVITY>
0.000518266

>  <SCORE.RESTR.norm>
5.18266e-05

>  <SCORE.SYSTEM>
0

>  <SCORE.SYSTEM.CONST>
0

>  <SCORE.SYSTEM.DIHEDRAL>
0

>  <SCORE.SYSTEM.SOLV>
0

>  <SCORE.SYSTEM.norm>
0

>  <SCORE.heavy>
10

>  <SCORE.norm>
-2.57303

>  <RMSD>
0.194

$$$$
1u8d_lig
 OpenBabel11021811413D
libRbt.so/2013.1/901 2013/11/27
 10 11  0  0  0  0  0  0  0  0999 V2000
   11.6929   10.4947    9.2956 N   0  0  0  0  0  0  0  0  0  0  0  0
   11.3773   11.8456    9.5200 C   0  0  0  0  0  0  0  0  0  0  0  0
   11.0751   12.7189    8.5256 N   0  0  0  0  0  0  0  0  0  0  0  0
   11.1080   12.1499    7.3011 C   0  0  0  0  0  0  0  0  0  0  0  0
   11.4473   10.6926    6.9928 C   0  0  0  0  0  0  0  0  0  0  0  0
   11.7545    9.8301    8.0564 C   0  0  0  0  0  0  0  0  0  0  0  0
   12.0460    8.6420    8.0413 O   0  0  0  0  0  0  0  0  0  0  0  0
   11.3654   10.5484    5.6349 N   0  0  0  0  0  0  0  0  0  0  0  0
   11.0033   11.7666    5.1137 C   0  0  0  0  0  0  0  0  0  0  0  0
   10.8414   12.7509    6.0850 N   0  0  0  0  0  0  0  0  0  0  0  0
  1  2  1  0  0  0  0
  1  6  1  0  0  0  0
  2  3  2  0  0  0  0
  3  4  1  0  0  0  0
  4  5  2  0  0  0  0
  4 10  1  0  0  0  0
  5  6  1  0  0  0  0
  5  8  1  0  0  0  0
  6  7  2  0  0  0  0
  8  9  1  0  0  0  0
  9 10  2  0  0  0  0
M  END
>  <CHROM.1>
11.38089142,11.10832536,7.46768967,0.62002170,-1.31124723,1.23124225

>  <Name>
1u8d_lig

>  <RI>
0

>  <Rbt.Current_Directory>
/home/itssahil/PROJECTS/Mol_Feturizer/New_Systems/rnas/1u8d

>  <Rbt.Executable>
rbdock ($Id: //depot/dev/client3/rdock/2013.1/src/exe/rbdock.cxx#4 $)

>  <Rbt.Library>
libRbt.so (2013.1, Build901 2013/11/27)

>  <Rbt.Parameter_File>
/export/apps/rDock/src/rDock_2013.1_src/data/scripts/dock_solv.prm

>  <Rbt.Receptor>
prm/blind_docking_40.prm

>  <SCORE>
-25.9089

>  <SCORE.INTER>
-25.9089

>  <SCORE.INTER.CONST>
1

>  <SCORE.INTER.POLAR>
-1.93632

>  <SCORE.INTER.ROT>
0

>  <SCORE.INTER.SOLV>
11.609

>  <SCORE.INTER.VDW>
-18.2879

>  <SCORE.INTER.norm>
-2.59089

>  <SCORE.INTRA>
0

>  <SCORE.INTRA.DIHEDRAL>
0

>  <SCORE.INTRA.DIHEDRAL.0>
0

>  <SCORE.INTRA.POLAR>
0

>  <SCORE.INTRA.POLAR.0>
0

>  <SCORE.INTRA.REPUL>
0

>  <SCORE.INTRA.REPUL.0>
0

>  <SCORE.INTRA.SOLV>
0

>  <SCORE.INTRA.SOLV.lig_0>
-13.7928

>  <SCORE.INTRA.VDW>
0

>  <SCORE.INTRA.VDW.0>
0

>  <SCORE.INTRA.norm>
0

>  <SCORE.RESTR>
0

>  <SCORE.RESTR.CAVITY>
0

>  <SCORE.RESTR.norm>
0

>  <SCORE.SYSTEM>
0

>  <SCORE.SYSTEM.CONST>
0

>  <SCORE.SYSTEM.DIHEDRAL>
0

>  <SCORE.SYSTEM.SOLV>
0

>  <SCORE.SYSTEM.norm>
0

>  <SCORE.heavy>
10

>  <SCORE.norm>
-2.59089

>  <RMSD>
0.194

$$$$
1u8d_lig
 OpenBabel11021811413D
libRbt.so/2013.1/901 2013/11/27
 10 11  0  0  0  0  0  0  0  0999 V2000
   11.8298   10.5559    9.1735 N   0  0  0  0  0  0  0  0  0  0  0  0
   11.5782   11.9229    9.3812 C   0  0  0  0  0  0  0  0  0  0  0  0
   11.2408   12.7817    8.3856 N   0  0  0  0  0  0  0  0  0  0  0  0
   11.1707   12.1814    7.1776 C   0  0  0  0  0  0  0  0  0  0  0  0
   11.4365   10.7052    6.8876 C   0  0  0  0  0  0  0  0  0  0  0  0
   11.7840    9.8587    7.9517 C   0  0  0  0  0  0  0  0  0  0  0  0
   12.0314    8.6606    7.9497 O   0  0  0  0  0  0  0  0  0  0  0  0
   11.2580   10.5303    5.5426 N   0  0  0  0  0  0  0  0  0  0  0  0
   10.9050   11.7477    5.0134 C   0  0  0  0  0  0  0  0  0  0  0  0
   10.8441   12.7613    5.9659 N   0  0  0  0  0  0  0  0  0  0  0  0
  1  2  1  0  0  0  0
  1  6  1  0  0  0  0
  2  3  2  0  0  0  0
  3  4  1  0  0  0  0
  4  5  2  0  0  0  0
  4 10  1  0  0  0  0
  5  6  1  0  0  0  0
  5  8  1  0  0  0  0
  6  7  2  0  0  0  0
  8  9  1  0  0  0  0
  9 10  2  0  0  0  0
M  END
>  <CHROM.1>
11.41708433,11.13489100,7.35422670,0.32145017,-1.31125106,0.91625824

>  <Name>
1u8d_lig

>  <RI>
0

>  <Rbt.Current_Directory>
/home/itssahil/PROJECTS/Mol_Feturizer/New_Systems/rnas/1u8d

>  <Rbt.Executable>
rbdock ($Id: //depot/dev/client3/rdock/2013.1/src/exe/rbdock.cxx#4 $)

>  <Rbt.Library>
libRbt.so (2013.1, Build901 2013/11/27)

>  <Rbt.Parameter_File>
/export/apps/rDock/src/rDock_2013.1_src/data/scripts/dock_solv.prm

>  <Rbt.Receptor>
prm/blind_docking_40.prm

>  <SCORE>
-26.1191

>  <SCORE.INTER>
-26.1191

>  <SCORE.INTER.CONST>
1

>  <SCORE.INTER.POLAR>
-1.93632

>  <SCORE.INTER.ROT>
0

>  <SCORE.INTER.SOLV>
11.524

>  <SCORE.INTER.VDW>
-18.3997

>  <SCORE.INTER.norm>
-2.61191

>  <SCORE.INTRA>
0

>  <SCORE.INTRA.DIHEDRAL>
0

>  <SCORE.INTRA.DIHEDRAL.0>
0

>  <SCORE.INTRA.POLAR>
0

>  <SCORE.INTRA.POLAR.0>
0

>  <SCORE.INTRA.REPUL>
0

>  <SCORE.INTRA.REPUL.0>
0

>  <SCORE.INTRA.SOLV>
0

>  <SCORE.INTRA.SOLV.lig_0>
-13.7928

>  <SCORE.INTRA.VDW>
0

>  <SCORE.INTRA.VDW.0>
0

>  <SCORE.INTRA.norm>
0

>  <SCORE.RESTR>
0

>  <SCORE.RESTR.CAVITY>
0

>  <SCORE.RESTR.norm>
0

>  <SCORE.SYSTEM>
0

>  <SCORE.SYSTEM.CONST>
0

>  <SCORE.SYSTEM.DIHEDRAL>
0

>  <SCORE.SYSTEM.SOLV>
0

>  <SCORE.SYSTEM.norm>
0

>  <SCORE.heavy>
10

>  <SCORE.norm>
-2.61191

>  <RMSD>
0.194

$$$$
1u8d_lig
 OpenBabel11021811413D
libRbt.so/2013.1/901 2013/11/27
 10 11  0  0  0  0  0  0  0  0999 V2000
   11.8208   10.5590    9.1700 N   0  0  0  0  0  0  0  0  0  0  0  0
   11.5642   11.9258    9.3730 C   0  0  0  0  0  0  0  0  0  0  0  0
   11.2332   12.7820    8.3730 N   0  0  0  0  0  0  0  0  0  0  0  0
   11.1748   12.1793    7.1656 C   0  0  0  0  0  0  0  0  0  0  0  0
   11.4465   10.7032    6.8806 C   0  0  0  0  0  0  0  0  0  0  0  0
   11.7869    9.8595    7.9491 C   0  0  0  0  0  0  0  0  0  0  0  0
   12.0372    8.6619    7.9516 O   0  0  0  0  0  0  0  0  0  0  0  0
   11.2799   10.5253    5.5345 N   0  0  0  0  0  0  0  0  0  0  0  0
   10.9286   11.7409    5.0000 C   0  0  0  0  0  0  0  0  0  0  0  0
   10.8572   12.7562    5.9501 N   0  0  0  0  0  0  0  0  0  0  0  0
  1  2  1  0  0  0  0
  1  6  1  0  0  0  0
  2  3  2  0  0  0  0
  3  4  1  0  0  0  0
  4  5  2  0  0  0  0
  4 10  1  0  0  0  0
  5  6  1  0  0  0  0
  5  8  1  0  0  0  0
  6  7  2  0  0  0  0
  8  9  1  0  0  0  0
  9 10  2  0  0  0  0
M  END
>  <CHROM.1>
11.42212145,11.13365208,7.34624302,0.35370931,-1.31443013,0.94559665

>  <Name>
1u8d_lig

>  <RI>
0

>  <Rbt.Current_Directory>
/home/itssahil/PROJECTS/Mol_Feturizer/New_Systems/rnas/1u8d

>  <Rbt.Executable>
rbdock ($Id: //depot/dev/client3/rdock/2013.1/src/exe/rbdock.cxx#4 $)

>  <Rbt.Library>
libRbt.so (2013.1, Build901 2013/11/27)

>  <Rbt.Parameter_File>
/export/apps/rDock/src/rDock_2013.1_src/data/scripts/dock_solv.prm

>  <Rbt.Receptor>
prm/pocket_docking_4.prm

>  <SCORE>
-26.1163

>  <SCORE.INTER>
-26.1163

>  <SCORE.INTER.CONST>
1

>  <SCORE.INTER.POLAR>
-1.93632

>  <SCORE.INTER.ROT>
0

>  <SCORE.INTER.SOLV>
11.5371

>  <SCORE.INTER.VDW>
-18.4021

>  <SCORE.INTER.norm>
-2.61163

>  <SCORE.INTRA>
0

>  <SCORE.INTRA.DIHEDRAL>
0

>  <SCORE.INTRA.DIHEDRAL.0>
0

>  <SCORE.INTRA.POLAR>
0

>  <SCORE.INTRA.POLAR.0>
0

>  <SCORE.INTRA.REPUL>
0

>  <SCORE.INTRA.REPUL.0>
0

>  <SCORE.INTRA.SOLV>
0

>  <SCORE.INTRA.SOLV.lig_0>
-13.7928

>  <SCORE.INTRA.VDW>
0

>  <SCORE.INTRA.VDW.0>
0

>  <SCORE.INTRA.norm>
0

>  <SCORE.RESTR>
0

>  <SCORE.RESTR.CAVITY>
0

>  <SCORE.RESTR.norm>
0

>  <SCORE.SYSTEM>
0

>  <SCORE.SYSTEM.CONST>
0

>  <SCORE.SYSTEM.DIHEDRAL>
0

>  <SCORE.SYSTEM.SOLV>
0

>  <SCORE.SYSTEM.norm>
0

>  <SCORE.heavy>
10

>  <SCORE.norm>
-2.61163

>  <RMSD>
0.194

$$$$
1u8d_lig
 OpenBabel11021811413D
libRbt.so/2013.1/901 2013/11/27
 10 11  0  0  0  0  0  0  0  0999 V2000
   11.8305   10.5580    9.1641 N   0  0  0  0  0  0  0  0  0  0  0  0
   11.5723   11.9243    9.3677 C   0  0  0  0  0  0  0  0  0  0  0  0
   11.2361   12.7797    8.3688 N   0  0  0  0  0  0  0  0  0  0  0  0
   11.1741   12.1766    7.1618 C   0  0  0  0  0  0  0  0  0  0  0  0
   11.4472   10.7009    6.8761 C   0  0  0  0  0  0  0  0  0  0  0  0
   11.7932    9.8581    7.9435 C   0  0  0  0  0  0  0  0  0  0  0  0
   12.0455    8.6610    7.9453 O   0  0  0  0  0  0  0  0  0  0  0  0
   11.2758   10.5225    5.5307 N   0  0  0  0  0  0  0  0  0  0  0  0
   10.9203   11.7373    4.9973 C   0  0  0  0  0  0  0  0  0  0  0  0
   10.8508   12.7527    5.9473 N   0  0  0  0  0  0  0  0  0  0  0  0
  1  2  1  0  0  0  0
  1  6  1  0  0  0  0
  2  3  2  0  0  0  0
  3  4  1  0  0  0  0
  4  5  2  0  0  0  0
  4 10  1  0  0  0  0
  5  6  1  0  0  0  0
  5  8  1  0  0  0  0
  6  7  2  0  0  0  0
  8  9  1  0  0  0  0
  9 10  2  0  0  0  0
M  END
>  <CHROM.1>
11.42389873,11.13147749,7.34171068,0.34551969,-1.31080031,0.93742262

>  <Name>
1u8d_lig

>  <RI>
0

>  <Rbt.Current_Directory>
/home/itssahil/PROJECTS/Mol_Feturizer/New_Systems/rnas/1u8d

>  <Rbt.Executable>
rbdock ($Id: //depot/dev/client3/rdock/2013.1/src/exe/rbdock.cxx#4 $)

>  <Rbt.Library>
libRbt.so (2013.1, Build901 2013/11/27)

>  <Rbt.Parameter_File>
/export/apps/rDock/src/rDock_2013.1_src/data/scripts/dock_solv.prm

>  <Rbt.Receptor>
prm/pocket_docking_5.prm

>  <SCORE>
-26.1186

>  <SCORE.INTER>
-26.1186

>  <SCORE.INTER.CONST>
1

>  <SCORE.INTER.POLAR>
-1.93632

>  <SCORE.INTER.ROT>
0

>  <SCORE.INTER.SOLV>
11.5235

>  <SCORE.INTER.VDW>
-18.3992

>  <SCORE.INTER.norm>
-2.61186

>  <SCORE.INTRA>
0

>  <SCORE.INTRA.DIHEDRAL>
0

>  <SCORE.INTRA.DIHEDRAL.0>
0

>  <SCORE.INTRA.POLAR>
0

>  <SCORE.INTRA.POLAR.0>
0

>  <SCORE.INTRA.REPUL>
0

>  <SCORE.INTRA.REPUL.0>
0

>  <SCORE.INTRA.SOLV>
0

>  <SCORE.INTRA.SOLV.lig_0>
-13.7928

>  <SCORE.INTRA.VDW>
0

>  <SCORE.INTRA.VDW.0>
0

>  <SCORE.INTRA.norm>
0

>  <SCORE.RESTR>
0

>  <SCORE.RESTR.CAVITY>
0

>  <SCORE.RESTR.norm>
0

>  <SCORE.SYSTEM>
0

>  <SCORE.SYSTEM.CONST>
0

>  <SCORE.SYSTEM.DIHEDRAL>
0

>  <SCORE.SYSTEM.SOLV>
0

>  <SCORE.SYSTEM.norm>
0

>  <SCORE.heavy>
10

>  <SCORE.norm>
-2.61186

>  <RMSD>
0.194

$$$$
1u8d_lig
 OpenBabel11021811413D
libRbt.so/2013.1/901 2013/11/27
 10 11  0  0  0  0  0  0  0  0999 V2000
   11.8240   10.5582    9.1705 N   0  0  0  0  0  0  0  0  0  0  0  0
   11.5695   11.9253    9.3741 C   0  0  0  0  0  0  0  0  0  0  0  0
   11.2365   12.7818    8.3750 N   0  0  0  0  0  0  0  0  0  0  0  0
   11.1738   12.1790    7.1679 C   0  0  0  0  0  0  0  0  0  0  0  0
   11.4429   10.7026    6.8822 C   0  0  0  0  0  0  0  0  0  0  0  0
   11.7856    9.8586    7.9498 C   0  0  0  0  0  0  0  0  0  0  0  0
   12.0346    8.6608    7.9516 O   0  0  0  0  0  0  0  0  0  0  0  0
   11.2721   10.5248    5.5366 N   0  0  0  0  0  0  0  0  0  0  0  0
   10.9205   11.7406    5.0031 C   0  0  0  0  0  0  0  0  0  0  0  0
   10.8531   12.7561    5.9533 N   0  0  0  0  0  0  0  0  0  0  0  0
  1  2  1  0  0  0  0
  1  6  1  0  0  0  0
  2  3  2  0  0  0  0
  3  4  1  0  0  0  0
  4  5  2  0  0  0  0
  4 10  1  0  0  0  0
  5  6  1  0  0  0  0
  5  8  1  0  0  0  0
  6  7  2  0  0  0  0
  8  9  1  0  0  0  0
  9 10  2  0  0  0  0
M  END
>  <CHROM.1>
11.42046079,11.13310915,7.34787970,0.34150738,-1.31354963,0.93367732

>  <Name>
1u8d_lig

>  <RI>
0

>  <Rbt.Current_Directory>
/home/itssahil/PROJECTS/Mol_Feturizer/New_Systems/rnas/1u8d

>  <Rbt.Executable>
rbdock ($Id: //depot/dev/client3/rdock/2013.1/src/exe/rbdock.cxx#4 $)

>  <Rbt.Library>
libRbt.so (2013.1, Build901 2013/11/27)

>  <Rbt.Parameter_File>
/export/apps/rDock/src/rDock_2013.1_src/data/scripts/dock_solv.prm

>  <Rbt.Receptor>
prm/pocket_docking_5.prm

>  <SCORE>
-26.1195

>  <SCORE.INTER>
-26.1195

>  <SCORE.INTER.CONST>
1

>  <SCORE.INTER.POLAR>
-1.93632

>  <SCORE.INTER.ROT>
0

>  <SCORE.INTER.SOLV>
11.5335

>  <SCORE.INTER.VDW>
-18.4031

>  <SCORE.INTER.norm>
-2.61195

>  <SCORE.INTRA>
0

>  <SCORE.INTRA.DIHEDRAL>
0

>  <SCORE.INTRA.DIHEDRAL.0>
0

>  <SCORE.INTRA.POLAR>
0

>  <SCORE.INTRA.POLAR.0>
0

>  <SCORE.INTRA.REPUL>
0

>  <SCORE.INTRA.REPUL.0>
0

>  <SCORE.INTRA.SOLV>
0

>  <SCORE.INTRA.SOLV.lig_0>
-13.7928

>  <SCORE.INTRA.VDW>
0

>  <SCORE.INTRA.VDW.0>
0

>  <SCORE.INTRA.norm>
0

>  <SCORE.RESTR>
0

>  <SCORE.RESTR.CAVITY>
0

>  <SCORE.RESTR.norm>
0

>  <SCORE.SYSTEM>
0

>  <SCORE.SYSTEM.CONST>
0

>  <SCORE.SYSTEM.DIHEDRAL>
0

>  <SCORE.SYSTEM.SOLV>
0

>  <SCORE.SYSTEM.norm>
0

>  <SCORE.heavy>
10

>  <SCORE.norm>
-2.61195

>  <RMSD>
0.194

$$$$
1u8d_lig
 OpenBabel11021811413D
libRbt.so/2013.1/901 2013/11/27
 10 11  0  0  0  0  0  0  0  0999 V2000
   11.8269   10.5556    9.1748 N   0  0  0  0  0  0  0  0  0  0  0  0
   11.5762   11.9228    9.3820 C   0  0  0  0  0  0  0  0  0  0  0  0
   11.2412   12.7819    8.3858 N   0  0  0  0  0  0  0  0  0  0  0  0
   11.1726   12.1816    7.1777 C   0  0  0  0  0  0  0  0  0  0  0  0
   11.4375   10.7051    6.8882 C   0  0  0  0  0  0  0  0  0  0  0  0
   11.7824    9.8584    7.9529 C   0  0  0  0  0  0  0  0  0  0  0  0
   12.0288    8.6600    7.9514 O   0  0  0  0  0  0  0  0  0  0  0  0
   11.2611   10.5303    5.5430 N   0  0  0  0  0  0  0  0  0  0  0  0
   10.9101   11.7479    5.0131 C   0  0  0  0  0  0  0  0  0  0  0  0
   10.8486   12.7617    5.9655 N   0  0  0  0  0  0  0  0  0  0  0  0
  1  2  1  0  0  0  0
  1  6  1  0  0  0  0
  2  3  2  0  0  0  0
  3  4  1  0  0  0  0
  4  5  2  0  0  0  0
  4 10  1  0  0  0  0
  5  6  1  0  0  0  0
  5  8  1  0  0  0  0
  6  7  2  0  0  0  0
  8  9  1  0  0  0  0
  9 10  2  0  0  0  0
M  END
>  <CHROM.1>
11.41772614,11.13482475,7.35479075,0.32445275,-1.31298465,0.91911484

>  <Name>
1u8d_lig

>  <RI>
0

>  <Rbt.Current_Directory>
/home/itssahil/PROJECTS/Mol_Feturizer/New_Systems/rnas/1u8d

>  <Rbt.Executable>
rbdock ($Id: //depot/dev/client3/rdock/2013.1/src/exe/rbdock.cxx#4 $)

>  <Rbt.Library>
libRbt.so (2013.1, Build901 2013/11/27)

>  <Rbt.Parameter_File>
/export/apps/rDock/src/rDock_2013.1_src/data/scripts/dock_solv.prm

>  <Rbt.Receptor>
prm/pocket_docking_5.prm

>  <SCORE>
-26.1196

>  <SCORE.INTER>
-26.1196

>  <SCORE.INTER.CONST>
1

>  <SCORE.INTER.POLAR>
-1.93632

>  <SCORE.INTER.ROT>
0

>  <SCORE.INTER.SOLV>
11.5291

>  <SCORE.INTER.VDW>
-18.4017

>  <SCORE.INTER.norm>
-2.61196

>  <SCORE.INTRA>
0

>  <SCORE.INTRA.DIHEDRAL>
0

>  <SCORE.INTRA.DIHEDRAL.0>
0

>  <SCORE.INTRA.POLAR>
0

>  <SCORE.INTRA.POLAR.0>
0

>  <SCORE.INTRA.REPUL>
0

>  <SCORE.INTRA.REPUL.0>
0

>  <SCORE.INTRA.SOLV>
0

>  <SCORE.INTRA.SOLV.lig_0>
-13.7928

>  <SCORE.INTRA.VDW>
0

>  <SCORE.INTRA.VDW.0>
0

>  <SCORE.INTRA.norm>
0

>  <SCORE.RESTR>
0

>  <SCORE.RESTR.CAVITY>
0

>  <SCORE.RESTR.norm>
0

>  <SCORE.SYSTEM>
0

>  <SCORE.SYSTEM.CONST>
0

>  <SCORE.SYSTEM.DIHEDRAL>
0

>  <SCORE.SYSTEM.SOLV>
0

>  <SCORE.SYSTEM.norm>
0

>  <SCORE.heavy>
10

>  <SCORE.norm>
-2.61196

>  <RMSD>
0.194

$$$$
1u8d_lig
 OpenBabel11021811413D
libRbt.so/2013.1/901 2013/11/27
 10 11  0  0  0  0  0  0  0  0999 V2000
   11.8286   10.5564    9.1694 N   0  0  0  0  0  0  0  0  0  0  0  0
   11.5740   11.9232    9.3743 C   0  0  0  0  0  0  0  0  0  0  0  0
   11.2393   12.7803    8.3763 N   0  0  0  0  0  0  0  0  0  0  0  0
   11.1752   12.1784    7.1688 C   0  0  0  0  0  0  0  0  0  0  0  0
   11.4444   10.7023    6.8817 C   0  0  0  0  0  0  0  0  0  0  0  0
   11.7889    9.8576    7.9483 C   0  0  0  0  0  0  0  0  0  0  0  0
   12.0382    8.6599    7.9489 O   0  0  0  0  0  0  0  0  0  0  0  0
   11.2718   10.5253    5.5363 N   0  0  0  0  0  0  0  0  0  0  0  0
   10.9191   11.7415    5.0041 C   0  0  0  0  0  0  0  0  0  0  0  0
   10.8526   12.7562    5.9551 N   0  0  0  0  0  0  0  0  0  0  0  0
  1  2  1  0  0  0  0
  1  6  1  0  0  0  0
  2  3  2  0  0  0  0
  3  4  1  0  0  0  0
  4  5  2  0  0  0  0
  4 10  1  0  0  0  0
  5  6  1  0  0  0  0
  5  8  1  0  0  0  0
  6  7  2  0  0  0  0
  8  9  1  0  0  0  0
  9 10  2  0  0  0  0
M  END
>  <CHROM.1>
11.42243713,11.13244785,7.34773834,0.33803756,-1.31247655,0.93103588

>  <Name>
1u8d_lig

>  <RI>
0

>  <Rbt.Current_Directory>
/home/itssahil/PROJECTS/Mol_Feturizer/New_Systems/rnas/1u8d

>  <Rbt.Executable>
rbdock ($Id: //depot/dev/client3/rdock/2013.1/src/exe/rbdock.cxx#4 $)

>  <Rbt.Library>
libRbt.so (2013.1, Build901 2013/11/27)

>  <Rbt.Parameter_File>
/export/apps/rDock/src/rDock_2013.1_src/data/scripts/dock_solv.prm

>  <Rbt.Receptor>
prm/pocket_docking_5.prm

>  <SCORE>
-26.1193

>  <SCORE.INTER>
-26.1193

>  <SCORE.INTER.CONST>
1

>  <SCORE.INTER.POLAR>
-1.93632

>  <SCORE.INTER.ROT>
0

>  <SCORE.INTER.SOLV>
11.5275

>  <SCORE.INTER.VDW>
-18.401

>  <SCORE.INTER.norm>
-2.61193

>  <SCORE.INTRA>
0

>  <SCORE.INTRA.DIHEDRAL>
0

>  <SCORE.INTRA.DIHEDRAL.0>
0

>  <SCORE.INTRA.POLAR>
0

>  <SCORE.INTRA.POLAR.0>
0

>  <SCORE.INTRA.REPUL>
0

>  <SCORE.INTRA.REPUL.0>
0

>  <SCORE.INTRA.SOLV>
0

>  <SCORE.INTRA.SOLV.lig_0>
-13.7928

>  <SCORE.INTRA.VDW>
0

>  <SCORE.INTRA.VDW.0>
0

>  <SCORE.INTRA.norm>
0

>  <SCORE.RESTR>
0

>  <SCORE.RESTR.CAVITY>
0

>  <SCORE.RESTR.norm>
0

>  <SCORE.SYSTEM>
0

>  <SCORE.SYSTEM.CONST>
0

>  <SCORE.SYSTEM.DIHEDRAL>
0

>  <SCORE.SYSTEM.SOLV>
0

>  <SCORE.SYSTEM.norm>
0

>  <SCORE.heavy>
10

>  <SCORE.norm>
-2.61193

>  <RMSD>
0.194

$$$$
1u8d_lig
 OpenBabel11021811413D
libRbt.so/2013.1/901 2013/11/27
 10 11  0  0  0  0  0  0  0  0999 V2000
   11.7782   10.5051    9.1965 N   0  0  0  0  0  0  0  0  0  0  0  0
   11.5215   11.8711    9.4043 C   0  0  0  0  0  0  0  0  0  0  0  0
   11.1997   12.7328    8.4059 N   0  0  0  0  0  0  0  0  0  0  0  0
   11.1505   12.1363    7.1951 C   0  0  0  0  0  0  0  0  0  0  0  0
   11.4228   10.6613    6.9048 C   0  0  0  0  0  0  0  0  0  0  0  0
   11.7535    9.8118    7.9718 C   0  0  0  0  0  0  0  0  0  0  0  0
   12.0024    8.6140    7.9702 O   0  0  0  0  0  0  0  0  0  0  0  0
   11.2671   10.4905    5.5565 N   0  0  0  0  0  0  0  0  0  0  0  0
   10.9215   11.7092    5.0254 C   0  0  0  0  0  0  0  0  0  0  0  0
   10.8435   12.7197    5.9800 N   0  0  0  0  0  0  0  0  0  0  0  0
  1  2  1  0  0  0  0
  1  6  1  0  0  0  0
  2  3  2  0  0  0  0
  3  4  1  0  0  0  0
  4  5  2  0  0  0  0
  4 10  1  0  0  0  0
  5  6  1  0  0  0  0
  5  8  1  0  0  0  0
  6  7  2  0  0  0  0
  8  9  1  0  0  0  0
  9 10  2  0  0  0  0
M  END
>  <CHROM.1>
11.39514367,11.08946571,7.37242154,0.37777551,-1.32006763,0.97396951

>  <Name>
1u8d_lig

>  <RI>
0

>  <Rbt.Current_Directory>
/home/itssahil/PROJECTS/Mol_Feturizer/New_Systems/rnas/1u8d

>  <Rbt.Executable>
rbdock ($Id: //depot/dev/client3/rdock/2013.1/src/exe/rbdock.cxx#4 $)

>  <Rbt.Library>
libRbt.so (2013.1, Build901 2013/11/27)

>  <Rbt.Parameter_File>
/export/apps/rDock/src/rDock_2013.1_src/data/scripts/dock_solv.prm

>  <Rbt.Receptor>
prm/pocket_docking_5.prm

>  <SCORE>
-26.1218

>  <SCORE.INTER>
-26.1218

>  <SCORE.INTER.CONST>
1

>  <SCORE.INTER.POLAR>
-1.93632

>  <SCORE.INTER.ROT>
0

>  <SCORE.INTER.SOLV>
11.5822

>  <SCORE.INTER.VDW>
-18.4209

>  <SCORE.INTER.norm>
-2.61218

>  <SCORE.INTRA>
0

>  <SCORE.INTRA.DIHEDRAL>
0

>  <SCORE.INTRA.DIHEDRAL.0>
0

>  <SCORE.INTRA.POLAR>
0

>  <SCORE.INTRA.POLAR.0>
0

>  <SCORE.INTRA.REPUL>
0

>  <SCORE.INTRA.REPUL.0>
0

>  <SCORE.INTRA.SOLV>
0

>  <SCORE.INTRA.SOLV.lig_0>
-13.7928

>  <SCORE.INTRA.VDW>
0

>  <SCORE.INTRA.VDW.0>
0

>  <SCORE.INTRA.norm>
0

>  <SCORE.RESTR>
0

>  <SCORE.RESTR.CAVITY>
0

>  <SCORE.RESTR.norm>
0

>  <SCORE.SYSTEM>
0

>  <SCORE.SYSTEM.CONST>
0

>  <SCORE.SYSTEM.DIHEDRAL>
0

>  <SCORE.SYSTEM.SOLV>
0

>  <SCORE.SYSTEM.norm>
0

>  <SCORE.heavy>
10

>  <SCORE.norm>
-2.61218

>  <RMSD>
0.194

$$$$
1u8d_lig
 OpenBabel11021811413D
libRbt.so/2013.1/901 2013/11/27
 10 11  0  0  0  0  0  0  0  0999 V2000
   11.8184   10.5576    9.1755 N   0  0  0  0  0  0  0  0  0  0  0  0
   11.5658   11.9249    9.3796 C   0  0  0  0  0  0  0  0  0  0  0  0
   11.2356   12.7826    8.3805 N   0  0  0  0  0  0  0  0  0  0  0  0
   11.1739   12.1807    7.1729 C   0  0  0  0  0  0  0  0  0  0  0  0
   11.4412   10.7041    6.8866 C   0  0  0  0  0  0  0  0  0  0  0  0
   11.7810    9.8588    7.9542 C   0  0  0  0  0  0  0  0  0  0  0  0
   12.0280    8.6606    7.9556 O   0  0  0  0  0  0  0  0  0  0  0  0
   11.2722   10.5274    5.5407 N   0  0  0  0  0  0  0  0  0  0  0  0
   10.9233   11.7442    5.0074 C   0  0  0  0  0  0  0  0  0  0  0  0
   10.8560   12.7591    5.9582 N   0  0  0  0  0  0  0  0  0  0  0  0
  1  2  1  0  0  0  0
  1  6  1  0  0  0  0
  2  3  2  0  0  0  0
  3  4  1  0  0  0  0
  4  5  2  0  0  0  0
  4 10  1  0  0  0  0
  5  6  1  0  0  0  0
  5  8  1  0  0  0  0
  6  7  2  0  0  0  0
  8  9  1  0  0  0  0
  9 10  2  0  0  0  0
M  END
>  <CHROM.1>
11.41865862,11.13432225,7.35256031,0.34284800,-1.31570854,0.93563805

>  <Name>
1u8d_lig

>  <RI>
0

>  <Rbt.Current_Directory>
/home/itssahil/PROJECTS/Mol_Feturizer/New_Systems/rnas/1u8d

>  <Rbt.Executable>
rbdock ($Id: //depot/dev/client3/rdock/2013.1/src/exe/rbdock.cxx#4 $)

>  <Rbt.Library>
libRbt.so (2013.1, Build901 2013/11/27)

>  <Rbt.Parameter_File>
/export/apps/rDock/src/rDock_2013.1_src/data/scripts/dock_solv.prm

>  <Rbt.Receptor>
prm/pocket_docking_6.prm

>  <SCORE>
-26.1191

>  <SCORE.INTER>
-26.1191

>  <SCORE.INTER.CONST>
1

>  <SCORE.INTER.POLAR>
-1.93632

>  <SCORE.INTER.ROT>
0

>  <SCORE.INTER.SOLV>
11.541

>  <SCORE.INTER.VDW>
-18.4053

>  <SCORE.INTER.norm>
-2.61191

>  <SCORE.INTRA>
0

>  <SCORE.INTRA.DIHEDRAL>
0

>  <SCORE.INTRA.DIHEDRAL.0>
0

>  <SCORE.INTRA.POLAR>
0

>  <SCORE.INTRA.POLAR.0>
0

>  <SCORE.INTRA.REPUL>
0

>  <SCORE.INTRA.REPUL.0>
0

>  <SCORE.INTRA.SOLV>
0

>  <SCORE.INTRA.SOLV.lig_0>
-13.7928

>  <SCORE.INTRA.VDW>
0

>  <SCORE.INTRA.VDW.0>
0

>  <SCORE.INTRA.norm>
0

>  <SCORE.RESTR>
0

>  <SCORE.RESTR.CAVITY>
0

>  <SCORE.RESTR.norm>
0

>  <SCORE.SYSTEM>
0

>  <SCORE.SYSTEM.CONST>
0

>  <SCORE.SYSTEM.DIHEDRAL>
0

>  <SCORE.SYSTEM.SOLV>
0

>  <SCORE.SYSTEM.norm>
0

>  <SCORE.heavy>
10

>  <SCORE.norm>
-2.61191

>  <RMSD>
0.194

$$$$
1u8d_lig
 OpenBabel11021811413D
libRbt.so/2013.1/901 2013/11/27
 10 11  0  0  0  0  0  0  0  0999 V2000
   11.8241   10.5584    9.1697 N   0  0  0  0  0  0  0  0  0  0  0  0
   11.5689   11.9254    9.3729 C   0  0  0  0  0  0  0  0  0  0  0  0
   11.2361   12.7816    8.3735 N   0  0  0  0  0  0  0  0  0  0  0  0
   11.1745   12.1786    7.1664 C   0  0  0  0  0  0  0  0  0  0  0  0
   11.4445   10.7023    6.8811 C   0  0  0  0  0  0  0  0  0  0  0  0
   11.7868    9.8586    7.9490 C   0  0  0  0  0  0  0  0  0  0  0  0
   12.0363    8.6609    7.9511 O   0  0  0  0  0  0  0  0  0  0  0  0
   11.2746   10.5242    5.5354 N   0  0  0  0  0  0  0  0  0  0  0  0
   10.9228   11.7399    5.0015 C   0  0  0  0  0  0  0  0  0  0  0  0
   10.8544   12.7555    5.9515 N   0  0  0  0  0  0  0  0  0  0  0  0
  1  2  1  0  0  0  0
  1  6  1  0  0  0  0
  2  3  2  0  0  0  0
  3  4  1  0  0  0  0
  4  5  2  0  0  0  0
  4 10  1  0  0  0  0
  5  6  1  0  0  0  0
  5  8  1  0  0  0  0
  6  7  2  0  0  0  0
  8  9  1  0  0  0  0
  9 10  2  0  0  0  0
M  END
>  <CHROM.1>
11.42150924,11.13288580,7.34668666,0.34461893,-1.31359594,0.93656759

>  <Name>
1u8d_lig

>  <RI>
0

>  <Rbt.Current_Directory>
/home/itssahil/PROJECTS/Mol_Feturizer/New_Systems/rnas/1u8d

>  <Rbt.Executable>
rbdock ($Id: //depot/dev/client3/rdock/2013.1/src/exe/rbdock.cxx#4 $)

>  <Rbt.Library>
libRbt.so (2013.1, Build901 2013/11/27)

>  <Rbt.Parameter_File>
/export/apps/rDock/src/rDock_2013.1_src/data/scripts/dock_solv.prm

>  <Rbt.Receptor>
prm/pocket_docking_7.prm

>  <SCORE>
-26.1186

>  <SCORE.INTER>
-26.1186

>  <SCORE.INTER.CONST>
1

>  <SCORE.INTER.POLAR>
-1.93632

>  <SCORE.INTER.ROT>
0

>  <SCORE.INTER.SOLV>
11.5335

>  <SCORE.INTER.VDW>
-18.4025

>  <SCORE.INTER.norm>
-2.61186

>  <SCORE.INTRA>
0

>  <SCORE.INTRA.DIHEDRAL>
0

>  <SCORE.INTRA.DIHEDRAL.0>
0

>  <SCORE.INTRA.POLAR>
0

>  <SCORE.INTRA.POLAR.0>
0

>  <SCORE.INTRA.REPUL>
0

>  <SCORE.INTRA.REPUL.0>
0

>  <SCORE.INTRA.SOLV>
0

>  <SCORE.INTRA.SOLV.lig_0>
-13.7928

>  <SCORE.INTRA.VDW>
0

>  <SCORE.INTRA.VDW.0>
0

>  <SCORE.INTRA.norm>
0

>  <SCORE.RESTR>
0

>  <SCORE.RESTR.CAVITY>
0

>  <SCORE.RESTR.norm>
0

>  <SCORE.SYSTEM>
0

>  <SCORE.SYSTEM.CONST>
0

>  <SCORE.SYSTEM.DIHEDRAL>
0

>  <SCORE.SYSTEM.SOLV>
0

>  <SCORE.SYSTEM.norm>
0

>  <SCORE.heavy>
10

>  <SCORE.norm>
-2.61186

>  <RMSD>
0.194

$$$$
1u8d_lig
 OpenBabel11021811413D
libRbt.so/2013.1/901 2013/11/27
 10 11  0  0  0  0  0  0  0  0999 V2000
   11.8274   10.5606    9.1631 N   0  0  0  0  0  0  0  0  0  0  0  0
   11.5653   11.9260    9.3686 C   0  0  0  0  0  0  0  0  0  0  0  0
   11.2302   12.7825    8.3702 N   0  0  0  0  0  0  0  0  0  0  0  0
   11.1735   12.1816    7.1618 C   0  0  0  0  0  0  0  0  0  0  0  0
   11.4510   10.7071    6.8741 C   0  0  0  0  0  0  0  0  0  0  0  0
   11.7956    9.8630    7.9411 C   0  0  0  0  0  0  0  0  0  0  0  0
   12.0508    8.6665    7.9413 O   0  0  0  0  0  0  0  0  0  0  0  0
   11.2843   10.5308    5.5279 N   0  0  0  0  0  0  0  0  0  0  0  0
   10.9276   11.7458    4.9957 C   0  0  0  0  0  0  0  0  0  0  0  0
   10.8526   12.7592    5.9475 N   0  0  0  0  0  0  0  0  0  0  0  0
  1  2  1  0  0  0  0
  1  6  1  0  0  0  0
  2  3  2  0  0  0  0
  3  4  1  0  0  0  0
  4  5  2  0  0  0  0
  4 10  1  0  0  0  0
  5  6  1  0  0  0  0
  5  8  1  0  0  0  0
  6  7  2  0  0  0  0
  8  9  1  0  0  0  0
  9 10  2  0  0  0  0
M  END
>  <CHROM.1>
11.42519425,11.13668878,7.34054259,0.36098924,-1.31070377,0.95431753

>  <Name>
1u8d_lig

>  <RI>
0

>  <Rbt.Current_Directory>
/home/itssahil/PROJECTS/Mol_Feturizer/New_Systems/rnas/1u8d

>  <Rbt.Executable>
rbdock ($Id: //depot/dev/client3/rdock/2013.1/src/exe/rbdock.cxx#4 $)

>  <Rbt.Library>
libRbt.so (2013.1, Build901 2013/11/27)

>  <Rbt.Parameter_File>
/export/apps/rDock/src/rDock_2013.1_src/data/scripts/dock_solv.prm

>  <Rbt.Receptor>
prm/pocket_docking_7.prm

>  <SCORE>
-26.112

>  <SCORE.INTER>
-26.112

>  <SCORE.INTER.CONST>
1

>  <SCORE.INTER.POLAR>
-1.93632

>  <SCORE.INTER.ROT>
0

>  <SCORE.INTER.SOLV>
11.5244

>  <SCORE.INTER.VDW>
-18.3951

>  <SCORE.INTER.norm>
-2.6112

>  <SCORE.INTRA>
0

>  <SCORE.INTRA.DIHEDRAL>
0

>  <SCORE.INTRA.DIHEDRAL.0>
0

>  <SCORE.INTRA.POLAR>
0

>  <SCORE.INTRA.POLAR.0>
0

>  <SCORE.INTRA.REPUL>
0

>  <SCORE.INTRA.REPUL.0>
0

>  <SCORE.INTRA.SOLV>
0

>  <SCORE.INTRA.SOLV.lig_0>
-13.7928

>  <SCORE.INTRA.VDW>
0

>  <SCORE.INTRA.VDW.0>
0

>  <SCORE.INTRA.norm>
0

>  <SCORE.RESTR>
0

>  <SCORE.RESTR.CAVITY>
0

>  <SCORE.RESTR.norm>
0

>  <SCORE.SYSTEM>
0

>  <SCORE.SYSTEM.CONST>
0

>  <SCORE.SYSTEM.DIHEDRAL>
0

>  <SCORE.SYSTEM.SOLV>
0

>  <SCORE.SYSTEM.norm>
0

>  <SCORE.heavy>
10

>  <SCORE.norm>
-2.6112

>  <RMSD>
0.194

$$$$
1u8d_lig
 OpenBabel11021811413D
libRbt.so/2013.1/901 2013/11/27
 10 11  0  0  0  0  0  0  0  0999 V2000
   11.8282   10.5576    9.1674 N   0  0  0  0  0  0  0  0  0  0  0  0
   11.5713   11.9240    9.3720 C   0  0  0  0  0  0  0  0  0  0  0  0
   11.2364   12.7805    8.3734 N   0  0  0  0  0  0  0  0  0  0  0  0
   11.1746   12.1784    7.1659 C   0  0  0  0  0  0  0  0  0  0  0  0
   11.4464   10.7027    6.8793 C   0  0  0  0  0  0  0  0  0  0  0  0
   11.7910    9.8587    7.9463 C   0  0  0  0  0  0  0  0  0  0  0  0
   12.0421    8.6613    7.9473 O   0  0  0  0  0  0  0  0  0  0  0  0
   11.2756   10.5254    5.5336 N   0  0  0  0  0  0  0  0  0  0  0  0
   10.9217   11.7410    5.0010 C   0  0  0  0  0  0  0  0  0  0  0  0
   10.8526   12.7557    5.9518 N   0  0  0  0  0  0  0  0  0  0  0  0
  1  2  1  0  0  0  0
  1  6  1  0  0  0  0
  2  3  2  0  0  0  0
  3  4  1  0  0  0  0
  4  5  2  0  0  0  0
  4 10  1  0  0  0  0
  5  6  1  0  0  0  0
  5  8  1  0  0  0  0
  6  7  2  0  0  0  0
  8  9  1  0  0  0  0
  9 10  2  0  0  0  0
M  END
>  <CHROM.1>
11.42327242,11.13287770,7.34523709,0.34519126,-1.31192513,0.93787986

>  <Name>
1u8d_lig

>  <RI>
0

>  <Rbt.Current_Directory>
/home/itssahil/PROJECTS/Mol_Feturizer/New_Systems/rnas/1u8d

>  <Rbt.Executable>
rbdock ($Id: //depot/dev/client3/rdock/2013.1/src/exe/rbdock.cxx#4 $)

>  <Rbt.Library>
libRbt.so (2013.1, Build901 2013/11/27)

>  <Rbt.Parameter_File>
/export/apps/rDock/src/rDock_2013.1_src/data/scripts/dock_solv.prm

>  <Rbt.Receptor>
prm/pocket_docking_7.prm

>  <SCORE>
-26.1181

>  <SCORE.INTER>
-26.1181

>  <SCORE.INTER.CONST>
1

>  <SCORE.INTER.POLAR>
-1.93632

>  <SCORE.INTER.ROT>
0

>  <SCORE.INTER.SOLV>
11.5267

>  <SCORE.INTER.VDW>
-18.3999

>  <SCORE.INTER.norm>
-2.61181

>  <SCORE.INTRA>
0

>  <SCORE.INTRA.DIHEDRAL>
0

>  <SCORE.INTRA.DIHEDRAL.0>
0

>  <SCORE.INTRA.POLAR>
0

>  <SCORE.INTRA.POLAR.0>
0

>  <SCORE.INTRA.REPUL>
0

>  <SCORE.INTRA.REPUL.0>
0

>  <SCORE.INTRA.SOLV>
0

>  <SCORE.INTRA.SOLV.lig_0>
-13.7928

>  <SCORE.INTRA.VDW>
0

>  <SCORE.INTRA.VDW.0>
0

>  <SCORE.INTRA.norm>
0

>  <SCORE.RESTR>
0

>  <SCORE.RESTR.CAVITY>
0

>  <SCORE.RESTR.norm>
0

>  <SCORE.SYSTEM>
0

>  <SCORE.SYSTEM.CONST>
0

>  <SCORE.SYSTEM.DIHEDRAL>
0

>  <SCORE.SYSTEM.SOLV>
0

>  <SCORE.SYSTEM.norm>
0

>  <SCORE.heavy>
10

>  <SCORE.norm>
-2.61181

>  <RMSD>
0.194

$$$$
1u8d_lig
 OpenBabel11021811413D
libRbt.so/2013.1/901 2013/11/27
 10 11  0  0  0  0  0  0  0  0999 V2000
   11.8514   10.5328    9.1489 N   0  0  0  0  0  0  0  0  0  0  0  0
   11.5852   11.8976    9.3528 C   0  0  0  0  0  0  0  0  0  0  0  0
   11.2308   12.7483    8.3562 N   0  0  0  0  0  0  0  0  0  0  0  0
   11.1593   12.1422    7.1512 C   0  0  0  0  0  0  0  0  0  0  0  0
   11.4402   10.6680    6.8653 C   0  0  0  0  0  0  0  0  0  0  0  0
   11.8050    9.8301    7.9303 C   0  0  0  0  0  0  0  0  0  0  0  0
   12.0665    8.6349    7.9315 O   0  0  0  0  0  0  0  0  0  0  0  0
   11.2543   10.4854    5.5223 N   0  0  0  0  0  0  0  0  0  0  0  0
   10.8834   11.6964    4.9907 C   0  0  0  0  0  0  0  0  0  0  0  0
   10.8174   12.7132    5.9395 N   0  0  0  0  0  0  0  0  0  0  0  0
  1  2  1  0  0  0  0
  1  6  1  0  0  0  0
  2  3  2  0  0  0  0
  3  4  1  0  0  0  0
  4  5  2  0  0  0  0
  4 10  1  0  0  0  0
  5  6  1  0  0  0  0
  5  8  1  0  0  0  0
  6  7  2  0  0  0  0
  8  9  1  0  0  0  0
  9 10  2  0  0  0  0
M  END
>  <CHROM.1>
11.41906443,11.09936079,7.33028118,0.32717732,-1.29767877,0.91767866

>  <Name>
1u8d_lig

>  <RI>
0

>  <Rbt.Current_Directory>
/home/itssahil/PROJECTS/Mol_Feturizer/New_Systems/rnas/1u8d

>  <Rbt.Executable>
rbdock ($Id: //depot/dev/client3/rdock/2013.1/src/exe/rbdock.cxx#4 $)

>  <Rbt.Library>
libRbt.so (2013.1, Build901 2013/11/27)

>  <Rbt.Parameter_File>
/export/apps/rDock/src/rDock_2013.1_src/data/scripts/dock_solv.prm

>  <Rbt.Receptor>
prm/pocket_docking_8.prm

>  <SCORE>
-26.0179

>  <SCORE.INTER>
-26.0179

>  <SCORE.INTER.CONST>
1

>  <SCORE.INTER.POLAR>
-1.93632

>  <SCORE.INTER.ROT>
0

>  <SCORE.INTER.SOLV>
11.4868

>  <SCORE.INTER.VDW>
-18.3198

>  <SCORE.INTER.norm>
-2.60179

>  <SCORE.INTRA>
0

>  <SCORE.INTRA.DIHEDRAL>
0

>  <SCORE.INTRA.DIHEDRAL.0>
0

>  <SCORE.INTRA.POLAR>
0

>  <SCORE.INTRA.POLAR.0>
0

>  <SCORE.INTRA.REPUL>
0

>  <SCORE.INTRA.REPUL.0>
0

>  <SCORE.INTRA.SOLV>
0

>  <SCORE.INTRA.SOLV.lig_0>
-13.7928

>  <SCORE.INTRA.VDW>
0

>  <SCORE.INTRA.VDW.0>
0

>  <SCORE.INTRA.norm>
0

>  <SCORE.RESTR>
0

>  <SCORE.RESTR.CAVITY>
0

>  <SCORE.RESTR.norm>
0

>  <SCORE.SYSTEM>
0

>  <SCORE.SYSTEM.CONST>
0

>  <SCORE.SYSTEM.DIHEDRAL>
0

>  <SCORE.SYSTEM.SOLV>
0

>  <SCORE.SYSTEM.norm>
0

>  <SCORE.heavy>
10

>  <SCORE.norm>
-2.60179

>  <RMSD>
0.194

$$$$
1u8d_lig
 OpenBabel11021811413D
libRbt.so/2013.1/901 2013/11/27
 10 11  0  0  0  0  0  0  0  0999 V2000
   11.8211   10.5551    9.1838 N   0  0  0  0  0  0  0  0  0  0  0  0
   11.5753   11.9233    9.3905 C   0  0  0  0  0  0  0  0  0  0  0  0
   11.2446   12.7835    8.3937 N   0  0  0  0  0  0  0  0  0  0  0  0
   11.1751   12.1832    7.1857 C   0  0  0  0  0  0  0  0  0  0  0  0
   11.4347   10.7057    6.8967 C   0  0  0  0  0  0  0  0  0  0  0  0
   11.7753    9.8579    7.9620 C   0  0  0  0  0  0  0  0  0  0  0  0
   12.0172    8.6586    7.9610 O   0  0  0  0  0  0  0  0  0  0  0  0
   11.2591   10.5313    5.5514 N   0  0  0  0  0  0  0  0  0  0  0  0
   10.9133   11.7502    5.0209 C   0  0  0  0  0  0  0  0  0  0  0  0
   10.8545   12.7643    5.9730 N   0  0  0  0  0  0  0  0  0  0  0  0
  1  2  1  0  0  0  0
  1  6  1  0  0  0  0
  2  3  2  0  0  0  0
  3  4  1  0  0  0  0
  4  5  2  0  0  0  0
  4 10  1  0  0  0  0
  5  6  1  0  0  0  0
  5  8  1  0  0  0  0
  6  7  2  0  0  0  0
  8  9  1  0  0  0  0
  9 10  2  0  0  0  0
M  END
>  <CHROM.1>
11.41604583,11.13558139,7.36324971,0.31881136,-1.31661663,0.91347751

>  <Name>
1u8d_lig

>  <RI>
0

>  <Rbt.Current_Directory>
/home/itssahil/PROJECTS/Mol_Feturizer/New_Systems/rnas/1u8d

>  <Rbt.Executable>
rbdock ($Id: //depot/dev/client3/rdock/2013.1/src/exe/rbdock.cxx#4 $)

>  <Rbt.Library>
libRbt.so (2013.1, Build901 2013/11/27)

>  <Rbt.Parameter_File>
/export/apps/rDock/src/rDock_2013.1_src/data/scripts/dock_solv.prm

>  <Rbt.Receptor>
prm/blind_docking_100.prm

>  <SCORE>
-26.115

>  <SCORE.INTER>
-26.115

>  <SCORE.INTER.CONST>
1

>  <SCORE.INTER.POLAR>
-1.93632

>  <SCORE.INTER.ROT>
0

>  <SCORE.INTER.SOLV>
11.5421

>  <SCORE.INTER.VDW>
-18.403

>  <SCORE.INTER.norm>
-2.6115

>  <SCORE.INTRA>
0

>  <SCORE.INTRA.DIHEDRAL>
0

>  <SCORE.INTRA.DIHEDRAL.0>
0

>  <SCORE.INTRA.POLAR>
0

>  <SCORE.INTRA.POLAR.0>
0

>  <SCORE.INTRA.REPUL>
0

>  <SCORE.INTRA.REPUL.0>
0

>  <SCORE.INTRA.SOLV>
0

>  <SCORE.INTRA.SOLV.lig_0>
-13.7928

>  <SCORE.INTRA.VDW>
0

>  <SCORE.INTRA.VDW.0>
0

>  <SCORE.INTRA.norm>
0

>  <SCORE.RESTR>
0

>  <SCORE.RESTR.CAVITY>
0

>  <SCORE.RESTR.norm>
0

>  <SCORE.SYSTEM>
0

>  <SCORE.SYSTEM.CONST>
0

>  <SCORE.SYSTEM.DIHEDRAL>
0

>  <SCORE.SYSTEM.SOLV>
0

>  <SCORE.SYSTEM.norm>
0

>  <SCORE.heavy>
10

>  <SCORE.norm>
-2.6115

>  <RMSD>
0.195

$$$$
1u8d_lig
 OpenBabel11021811413D
libRbt.so/2013.1/901 2013/11/27
 10 11  0  0  0  0  0  0  0  0999 V2000
   11.6548   10.4635    9.2143 N   0  0  0  0  0  0  0  0  0  0  0  0
   11.2881   11.8057    9.4121 C   0  0  0  0  0  0  0  0  0  0  0  0
   10.9560   12.6479    8.4006 N   0  0  0  0  0  0  0  0  0  0  0  0
   11.0135   12.0572    7.1872 C   0  0  0  0  0  0  0  0  0  0  0  0
   11.4079   10.6081    6.9076 C   0  0  0  0  0  0  0  0  0  0  0  0
   11.7444    9.7781    7.9881 C   0  0  0  0  0  0  0  0  0  0  0  0
   12.0803    8.6018    7.9963 O   0  0  0  0  0  0  0  0  0  0  0  0
   11.3351   10.4350    5.5526 N   0  0  0  0  0  0  0  0  0  0  0  0
   10.9289   11.6285    5.0074 C   0  0  0  0  0  0  0  0  0  0  0  0
   10.7277   12.6245    5.9593 N   0  0  0  0  0  0  0  0  0  0  0  0
  1  2  1  0  0  0  0
  1  6  1  0  0  0  0
  2  3  2  0  0  0  0
  3  4  1  0  0  0  0
  4  5  2  0  0  0  0
  4 10  1  0  0  0  0
  5  6  1  0  0  0  0
  5  8  1  0  0  0  0
  6  7  2  0  0  0  0
  8  9  1  0  0  0  0
  9 10  2  0  0  0  0
M  END
>  <CHROM.1>
11.32474251,11.03000620,7.37430126,0.67157821,-1.27639031,1.26170070

>  <Name>
1u8d_lig

>  <RI>
0

>  <Rbt.Current_Directory>
/home/itssahil/PROJECTS/Mol_Feturizer/New_Systems/rnas/1u8d

>  <Rbt.Executable>
rbdock ($Id: //depot/dev/client3/rdock/2013.1/src/exe/rbdock.cxx#4 $)

>  <Rbt.Library>
libRbt.so (2013.1, Build901 2013/11/27)

>  <Rbt.Parameter_File>
/export/apps/rDock/src/rDock_2013.1_src/data/scripts/dock_solv.prm

>  <Rbt.Receptor>
prm/blind_docking_20.prm

>  <SCORE>
-25.633

>  <SCORE.INTER>
-25.6411

>  <SCORE.INTER.CONST>
1

>  <SCORE.INTER.POLAR>
-1.93632

>  <SCORE.INTER.ROT>
0

>  <SCORE.INTER.SOLV>
11.6335

>  <SCORE.INTER.VDW>
-18.1175

>  <SCORE.INTER.norm>
-2.56411

>  <SCORE.INTRA>
0

>  <SCORE.INTRA.DIHEDRAL>
0

>  <SCORE.INTRA.DIHEDRAL.0>
0

>  <SCORE.INTRA.POLAR>
0

>  <SCORE.INTRA.POLAR.0>
0

>  <SCORE.INTRA.REPUL>
0

>  <SCORE.INTRA.REPUL.0>
0

>  <SCORE.INTRA.SOLV>
0

>  <SCORE.INTRA.SOLV.lig_0>
-13.7928

>  <SCORE.INTRA.VDW>
0

>  <SCORE.INTRA.VDW.0>
0

>  <SCORE.INTRA.norm>
0

>  <SCORE.RESTR>
0.00808964

>  <SCORE.RESTR.CAVITY>
0.00808964

>  <SCORE.RESTR.norm>
0.000808964

>  <SCORE.SYSTEM>
0

>  <SCORE.SYSTEM.CONST>
0

>  <SCORE.SYSTEM.DIHEDRAL>
0

>  <SCORE.SYSTEM.SOLV>
0

>  <SCORE.SYSTEM.norm>
0

>  <SCORE.heavy>
10

>  <SCORE.norm>
-2.5633

>  <RMSD>
0.195

$$$$
1u8d_lig
 OpenBabel11021811413D
libRbt.so/2013.1/901 2013/11/27
 10 11  0  0  0  0  0  0  0  0999 V2000
   11.7121   10.4824    9.1654 N   0  0  0  0  0  0  0  0  0  0  0  0
   11.3488   11.8272    9.3514 C   0  0  0  0  0  0  0  0  0  0  0  0
   10.9870   12.6523    8.3360 N   0  0  0  0  0  0  0  0  0  0  0  0
   11.0113   12.0418    7.1313 C   0  0  0  0  0  0  0  0  0  0  0  0
   11.4002   10.5888    6.8645 C   0  0  0  0  0  0  0  0  0  0  0  0
   11.7684    9.7771    7.9486 C   0  0  0  0  0  0  0  0  0  0  0  0
   12.1064    8.6015    7.9667 O   0  0  0  0  0  0  0  0  0  0  0  0
   11.2896   10.3934    5.5151 N   0  0  0  0  0  0  0  0  0  0  0  0
   10.8663   11.5772    4.9621 C   0  0  0  0  0  0  0  0  0  0  0  0
   10.6902   12.5884    5.9028 N   0  0  0  0  0  0  0  0  0  0  0  0
  1  2  1  0  0  0  0
  1  6  1  0  0  0  0
  2  3  2  0  0  0  0
  3  4  1  0  0  0  0
  4  5  2  0  0  0  0
  4 10  1  0  0  0  0
  5  6  1  0  0  0  0
  5  8  1  0  0  0  0
  6  7  2  0  0  0  0
  8  9  1  0  0  0  0
  9 10  2  0  0  0  0
M  END
>  <CHROM.1>
11.32950387,11.01821241,7.32640277,0.58424567,-1.26510068,1.16183729

>  <Name>
1u8d_lig

>  <RI>
0

>  <Rbt.Current_Directory>
/home/itssahil/PROJECTS/Mol_Feturizer/New_Systems/rnas/1u8d

>  <Rbt.Executable>
rbdock ($Id: //depot/dev/client3/rdock/2013.1/src/exe/rbdock.cxx#4 $)

>  <Rbt.Library>
libRbt.so (2013.1, Build901 2013/11/27)

>  <Rbt.Parameter_File>
/export/apps/rDock/src/rDock_2013.1_src/data/scripts/dock_solv.prm

>  <Rbt.Receptor>
prm/blind_docking_20.prm

>  <SCORE>
-25.7544

>  <SCORE.INTER>
-25.7544

>  <SCORE.INTER.CONST>
1

>  <SCORE.INTER.POLAR>
-1.93632

>  <SCORE.INTER.ROT>
0

>  <SCORE.INTER.SOLV>
11.5741

>  <SCORE.INTER.VDW>
-18.1732

>  <SCORE.INTER.norm>
-2.57544

>  <SCORE.INTRA>
0

>  <SCORE.INTRA.DIHEDRAL>
0

>  <SCORE.INTRA.DIHEDRAL.0>
0

>  <SCORE.INTRA.POLAR>
0

>  <SCORE.INTRA.POLAR.0>
0

>  <SCORE.INTRA.REPUL>
0

>  <SCORE.INTRA.REPUL.0>
0

>  <SCORE.INTRA.SOLV>
0

>  <SCORE.INTRA.SOLV.lig_0>
-13.7928

>  <SCORE.INTRA.VDW>
0

>  <SCORE.INTRA.VDW.0>
0

>  <SCORE.INTRA.norm>
0

>  <SCORE.RESTR>
0

>  <SCORE.RESTR.CAVITY>
0

>  <SCORE.RESTR.norm>
0

>  <SCORE.SYSTEM>
0

>  <SCORE.SYSTEM.CONST>
0

>  <SCORE.SYSTEM.DIHEDRAL>
0

>  <SCORE.SYSTEM.SOLV>
0

>  <SCORE.SYSTEM.norm>
0

>  <SCORE.heavy>
10

>  <SCORE.norm>
-2.57544

>  <RMSD>
0.195

$$$$
1u8d_lig
 OpenBabel11021811413D
libRbt.so/2013.1/901 2013/11/27
 10 11  0  0  0  0  0  0  0  0999 V2000
   11.7163   10.4806    9.1678 N   0  0  0  0  0  0  0  0  0  0  0  0
   11.3550   11.8257    9.3553 C   0  0  0  0  0  0  0  0  0  0  0  0
   10.9858   12.6500    8.3419 N   0  0  0  0  0  0  0  0  0  0  0  0
   11.0008   12.0384    7.1376 C   0  0  0  0  0  0  0  0  0  0  0  0
   11.3872   10.5850    6.8692 C   0  0  0  0  0  0  0  0  0  0  0  0
   11.7632    9.7742    7.9513 C   0  0  0  0  0  0  0  0  0  0  0  0
   12.1009    8.5984    7.9678 O   0  0  0  0  0  0  0  0  0  0  0  0
   11.2663   10.3884    5.5209 N   0  0  0  0  0  0  0  0  0  0  0  0
   10.8393   11.5719    4.9700 C   0  0  0  0  0  0  0  0  0  0  0  0
   10.6706   12.5840    5.9111 N   0  0  0  0  0  0  0  0  0  0  0  0
  1  2  1  0  0  0  0
  1  6  1  0  0  0  0
  2  3  2  0  0  0  0
  3  4  1  0  0  0  0
  4  5  2  0  0  0  0
  4 10  1  0  0  0  0
  5  6  1  0  0  0  0
  5  8  1  0  0  0  0
  6  7  2  0  0  0  0
  8  9  1  0  0  0  0
  9 10  2  0  0  0  0
M  END
>  <CHROM.1>
11.32007212,11.01486809,7.33123305,0.56097463,-1.26237645,1.13873762

>  <Name>
1u8d_lig

>  <RI>
0

>  <Rbt.Current_Directory>
/home/itssahil/PROJECTS/Mol_Feturizer/New_Systems/rnas/1u8d

>  <Rbt.Executable>
rbdock ($Id: //depot/dev/client3/rdock/2013.1/src/exe/rbdock.cxx#4 $)

>  <Rbt.Library>
libRbt.so (2013.1, Build901 2013/11/27)

>  <Rbt.Parameter_File>
/export/apps/rDock/src/rDock_2013.1_src/data/scripts/dock_solv.prm

>  <Rbt.Receptor>
prm/blind_docking_20.prm

>  <SCORE>
-25.756

>  <SCORE.INTER>
-25.756

>  <SCORE.INTER.CONST>
1

>  <SCORE.INTER.POLAR>
-1.93632

>  <SCORE.INTER.ROT>
0

>  <SCORE.INTER.SOLV>
11.5654

>  <SCORE.INTER.VDW>
-18.1714

>  <SCORE.INTER.norm>
-2.5756

>  <SCORE.INTRA>
0

>  <SCORE.INTRA.DIHEDRAL>
0

>  <SCORE.INTRA.DIHEDRAL.0>
0

>  <SCORE.INTRA.POLAR>
0

>  <SCORE.INTRA.POLAR.0>
0

>  <SCORE.INTRA.REPUL>
0

>  <SCORE.INTRA.REPUL.0>
0

>  <SCORE.INTRA.SOLV>
0

>  <SCORE.INTRA.SOLV.lig_0>
-13.7928

>  <SCORE.INTRA.VDW>
0

>  <SCORE.INTRA.VDW.0>
0

>  <SCORE.INTRA.norm>
0

>  <SCORE.RESTR>
0

>  <SCORE.RESTR.CAVITY>
0

>  <SCORE.RESTR.norm>
0

>  <SCORE.SYSTEM>
0

>  <SCORE.SYSTEM.CONST>
0

>  <SCORE.SYSTEM.DIHEDRAL>
0

>  <SCORE.SYSTEM.SOLV>
0

>  <SCORE.SYSTEM.norm>
0

>  <SCORE.heavy>
10

>  <SCORE.norm>
-2.5756

>  <RMSD>
0.195

$$$$
1u8d_lig
 OpenBabel11021811413D
libRbt.so/2013.1/901 2013/11/27
 10 11  0  0  0  0  0  0  0  0999 V2000
   11.8294   10.5548    9.1733 N   0  0  0  0  0  0  0  0  0  0  0  0
   11.5791   11.9221    9.3803 C   0  0  0  0  0  0  0  0  0  0  0  0
   11.2438   12.7811    8.3841 N   0  0  0  0  0  0  0  0  0  0  0  0
   11.1745   12.1806    7.1762 C   0  0  0  0  0  0  0  0  0  0  0  0
   11.4389   10.7040    6.8868 C   0  0  0  0  0  0  0  0  0  0  0  0
   11.7841    9.8574    7.9515 C   0  0  0  0  0  0  0  0  0  0  0  0
   12.0302    8.6590    7.9502 O   0  0  0  0  0  0  0  0  0  0  0  0
   11.2619   10.5290    5.5417 N   0  0  0  0  0  0  0  0  0  0  0  0
   10.9109   11.7466    5.0118 C   0  0  0  0  0  0  0  0  0  0  0  0
   10.8500   12.7606    5.9640 N   0  0  0  0  0  0  0  0  0  0  0  0
  1  2  1  0  0  0  0
  1  6  1  0  0  0  0
  2  3  2  0  0  0  0
  3  4  1  0  0  0  0
  4  5  2  0  0  0  0
  4 10  1  0  0  0  0
  5  6  1  0  0  0  0
  5  8  1  0  0  0  0
  6  7  2  0  0  0  0
  8  9  1  0  0  0  0
  9 10  2  0  0  0  0
M  END
>  <CHROM.1>
11.41945343,11.13381342,7.35336821,0.32244429,-1.31289995,0.91698701

>  <Name>
1u8d_lig

>  <RI>
0

>  <Rbt.Current_Directory>
/home/itssahil/PROJECTS/Mol_Feturizer/New_Systems/rnas/1u8d

>  <Rbt.Executable>
rbdock ($Id: //depot/dev/client3/rdock/2013.1/src/exe/rbdock.cxx#4 $)

>  <Rbt.Library>
libRbt.so (2013.1, Build901 2013/11/27)

>  <Rbt.Parameter_File>
/export/apps/rDock/src/rDock_2013.1_src/data/scripts/dock_solv.prm

>  <Rbt.Receptor>
prm/blind_docking_40.prm

>  <SCORE>
-26.1198

>  <SCORE.INTER>
-26.1198

>  <SCORE.INTER.CONST>
1

>  <SCORE.INTER.POLAR>
-1.93632

>  <SCORE.INTER.ROT>
0

>  <SCORE.INTER.SOLV>
11.5271

>  <SCORE.INTER.VDW>
-18.4012

>  <SCORE.INTER.norm>
-2.61198

>  <SCORE.INTRA>
0

>  <SCORE.INTRA.DIHEDRAL>
0

>  <SCORE.INTRA.DIHEDRAL.0>
0

>  <SCORE.INTRA.POLAR>
0

>  <SCORE.INTRA.POLAR.0>
0

>  <SCORE.INTRA.REPUL>
0

>  <SCORE.INTRA.REPUL.0>
0

>  <SCORE.INTRA.SOLV>
0

>  <SCORE.INTRA.SOLV.lig_0>
-13.7928

>  <SCORE.INTRA.VDW>
0

>  <SCORE.INTRA.VDW.0>
0

>  <SCORE.INTRA.norm>
0

>  <SCORE.RESTR>
0

>  <SCORE.RESTR.CAVITY>
0

>  <SCORE.RESTR.norm>
0

>  <SCORE.SYSTEM>
0

>  <SCORE.SYSTEM.CONST>
0

>  <SCORE.SYSTEM.DIHEDRAL>
0

>  <SCORE.SYSTEM.SOLV>
0

>  <SCORE.SYSTEM.norm>
0

>  <SCORE.heavy>
10

>  <SCORE.norm>
-2.61198

>  <RMSD>
0.195

$$$$
1u8d_lig
 OpenBabel11021811413D
libRbt.so/2013.1/901 2013/11/27
 10 11  0  0  0  0  0  0  0  0999 V2000
   11.8490   10.5580    9.1560 N   0  0  0  0  0  0  0  0  0  0  0  0
   11.5827   11.9217    9.3666 C   0  0  0  0  0  0  0  0  0  0  0  0
   11.2373   12.7793    8.3726 N   0  0  0  0  0  0  0  0  0  0  0  0
   11.1749   12.1811    7.1632 C   0  0  0  0  0  0  0  0  0  0  0  0
   11.4565   10.7085    6.8700 C   0  0  0  0  0  0  0  0  0  0  0  0
   11.8118    9.8632    7.9325 C   0  0  0  0  0  0  0  0  0  0  0  0
   12.0719    8.6678    7.9281 O   0  0  0  0  0  0  0  0  0  0  0  0
   11.2814   10.5348    5.5245 N   0  0  0  0  0  0  0  0  0  0  0  0
   10.9162   11.7496    4.9977 C   0  0  0  0  0  0  0  0  0  0  0  0
   10.8435   12.7604    5.9525 N   0  0  0  0  0  0  0  0  0  0  0  0
  1  2  1  0  0  0  0
  1  6  1  0  0  0  0
  2  3  2  0  0  0  0
  3  4  1  0  0  0  0
  4  5  2  0  0  0  0
  4 10  1  0  0  0  0
  5  6  1  0  0  0  0
  5  8  1  0  0  0  0
  6  7  2  0  0  0  0
  8  9  1  0  0  0  0
  9 10  2  0  0  0  0
M  END
>  <CHROM.1>
11.43213110,11.13683931,7.33762669,0.34909164,-1.30343001,0.94527728

>  <Name>
1u8d_lig

>  <RI>
0

>  <Rbt.Current_Directory>
/home/itssahil/PROJECTS/Mol_Feturizer/New_Systems/rnas/1u8d

>  <Rbt.Executable>
rbdock ($Id: //depot/dev/client3/rdock/2013.1/src/exe/rbdock.cxx#4 $)

>  <Rbt.Library>
libRbt.so (2013.1, Build901 2013/11/27)

>  <Rbt.Parameter_File>
/export/apps/rDock/src/rDock_2013.1_src/data/scripts/dock_solv.prm

>  <Rbt.Receptor>
prm/blind_docking_40.prm

>  <SCORE>
-26.1075

>  <SCORE.INTER>
-26.1075

>  <SCORE.INTER.CONST>
1

>  <SCORE.INTER.POLAR>
-1.93632

>  <SCORE.INTER.ROT>
0

>  <SCORE.INTER.SOLV>
11.4925

>  <SCORE.INTER.VDW>
-18.3815

>  <SCORE.INTER.norm>
-2.61075

>  <SCORE.INTRA>
0

>  <SCORE.INTRA.DIHEDRAL>
0

>  <SCORE.INTRA.DIHEDRAL.0>
0

>  <SCORE.INTRA.POLAR>
0

>  <SCORE.INTRA.POLAR.0>
0

>  <SCORE.INTRA.REPUL>
0

>  <SCORE.INTRA.REPUL.0>
0

>  <SCORE.INTRA.SOLV>
0

>  <SCORE.INTRA.SOLV.lig_0>
-13.7928

>  <SCORE.INTRA.VDW>
0

>  <SCORE.INTRA.VDW.0>
0

>  <SCORE.INTRA.norm>
0

>  <SCORE.RESTR>
0

>  <SCORE.RESTR.CAVITY>
0

>  <SCORE.RESTR.norm>
0

>  <SCORE.SYSTEM>
0

>  <SCORE.SYSTEM.CONST>
0

>  <SCORE.SYSTEM.DIHEDRAL>
0

>  <SCORE.SYSTEM.SOLV>
0

>  <SCORE.SYSTEM.norm>
0

>  <SCORE.heavy>
10

>  <SCORE.norm>
-2.61075

>  <RMSD>
0.195

$$$$
1u8d_lig
 OpenBabel11021811413D
libRbt.so/2013.1/901 2013/11/27
 10 11  0  0  0  0  0  0  0  0999 V2000
   11.8656   10.5604    9.1539 N   0  0  0  0  0  0  0  0  0  0  0  0
   11.5905   11.9223    9.3646 C   0  0  0  0  0  0  0  0  0  0  0  0
   11.2411   12.7781    8.3704 N   0  0  0  0  0  0  0  0  0  0  0  0
   11.1839   12.1799    7.1607 C   0  0  0  0  0  0  0  0  0  0  0  0
   11.4751   10.7092    6.8674 C   0  0  0  0  0  0  0  0  0  0  0  0
   11.8343    9.8658    7.9301 C   0  0  0  0  0  0  0  0  0  0  0  0
   12.1019    8.6720    7.9256 O   0  0  0  0  0  0  0  0  0  0  0  0
   11.3028   10.5349    5.5216 N   0  0  0  0  0  0  0  0  0  0  0  0
   10.9306   11.7475    4.9948 C   0  0  0  0  0  0  0  0  0  0  0  0
   10.8504   12.7575    5.9498 N   0  0  0  0  0  0  0  0  0  0  0  0
  1  2  1  0  0  0  0
  1  6  1  0  0  0  0
  2  3  2  0  0  0  0
  3  4  1  0  0  0  0
  4  5  2  0  0  0  0
  4 10  1  0  0  0  0
  5  6  1  0  0  0  0
  5  8  1  0  0  0  0
  6  7  2  0  0  0  0
  8  9  1  0  0  0  0
  9 10  2  0  0  0  0
M  END
>  <CHROM.1>
11.44741421,11.13719007,7.33515863,0.36650283,-1.29906938,0.96239306

>  <Name>
1u8d_lig

>  <RI>
0

>  <Rbt.Current_Directory>
/home/itssahil/PROJECTS/Mol_Feturizer/New_Systems/rnas/1u8d

>  <Rbt.Executable>
rbdock ($Id: //depot/dev/client3/rdock/2013.1/src/exe/rbdock.cxx#4 $)

>  <Rbt.Library>
libRbt.so (2013.1, Build901 2013/11/27)

>  <Rbt.Parameter_File>
/export/apps/rDock/src/rDock_2013.1_src/data/scripts/dock_solv.prm

>  <Rbt.Receptor>
prm/blind_docking_60.prm

>  <SCORE>
-26.12

>  <SCORE.INTER>
-26.12

>  <SCORE.INTER.CONST>
1

>  <SCORE.INTER.POLAR>
-1.93632

>  <SCORE.INTER.ROT>
0

>  <SCORE.INTER.SOLV>
11.4712

>  <SCORE.INTER.VDW>
-18.3826

>  <SCORE.INTER.norm>
-2.612

>  <SCORE.INTRA>
0

>  <SCORE.INTRA.DIHEDRAL>
0

>  <SCORE.INTRA.DIHEDRAL.0>
0

>  <SCORE.INTRA.POLAR>
0

>  <SCORE.INTRA.POLAR.0>
0

>  <SCORE.INTRA.REPUL>
0

>  <SCORE.INTRA.REPUL.0>
0

>  <SCORE.INTRA.SOLV>
0

>  <SCORE.INTRA.SOLV.lig_0>
-13.7928

>  <SCORE.INTRA.VDW>
0

>  <SCORE.INTRA.VDW.0>
0

>  <SCORE.INTRA.norm>
0

>  <SCORE.RESTR>
0

>  <SCORE.RESTR.CAVITY>
0

>  <SCORE.RESTR.norm>
0

>  <SCORE.SYSTEM>
0

>  <SCORE.SYSTEM.CONST>
0

>  <SCORE.SYSTEM.DIHEDRAL>
0

>  <SCORE.SYSTEM.SOLV>
0

>  <SCORE.SYSTEM.norm>
0

>  <SCORE.heavy>
10

>  <SCORE.norm>
-2.612

>  <RMSD>
0.195

$$$$
1u8d_lig
 OpenBabel11021811413D
libRbt.so/2013.1/901 2013/11/27
 10 11  0  0  0  0  0  0  0  0999 V2000
   11.8333   10.5570    9.1640 N   0  0  0  0  0  0  0  0  0  0  0  0
   11.5779   11.9237    9.3690 C   0  0  0  0  0  0  0  0  0  0  0  0
   11.2405   12.7801    8.3713 N   0  0  0  0  0  0  0  0  0  0  0  0
   11.1746   12.1778    7.1641 C   0  0  0  0  0  0  0  0  0  0  0  0
   11.4446   10.7018    6.8769 C   0  0  0  0  0  0  0  0  0  0  0  0
   11.7918    9.8578    7.9431 C   0  0  0  0  0  0  0  0  0  0  0  0
   12.0422    8.6603    7.9436 O   0  0  0  0  0  0  0  0  0  0  0  0
   11.2696   10.5244    5.5319 N   0  0  0  0  0  0  0  0  0  0  0  0
   10.9147   11.7400    5.0000 C   0  0  0  0  0  0  0  0  0  0  0  0
   10.8492   12.7550    5.9508 N   0  0  0  0  0  0  0  0  0  0  0  0
  1  2  1  0  0  0  0
  1  6  1  0  0  0  0
  2  3  2  0  0  0  0
  3  4  1  0  0  0  0
  4  5  2  0  0  0  0
  4 10  1  0  0  0  0
  5  6  1  0  0  0  0
  5  8  1  0  0  0  0
  6  7  2  0  0  0  0
  8  9  1  0  0  0  0
  9 10  2  0  0  0  0
M  END
>  <CHROM.1>
11.42314118,11.13213847,7.34289417,0.33406744,-1.31061889,0.92690582

>  <Name>
1u8d_lig

>  <RI>
0

>  <Rbt.Current_Directory>
/home/itssahil/PROJECTS/Mol_Feturizer/New_Systems/rnas/1u8d

>  <Rbt.Executable>
rbdock ($Id: //depot/dev/client3/rdock/2013.1/src/exe/rbdock.cxx#4 $)

>  <Rbt.Library>
libRbt.so (2013.1, Build901 2013/11/27)

>  <Rbt.Parameter_File>
/export/apps/rDock/src/rDock_2013.1_src/data/scripts/dock_solv.prm

>  <Rbt.Receptor>
prm/blind_docking_80.prm

>  <SCORE>
-26.1201

>  <SCORE.INTER>
-26.1201

>  <SCORE.INTER.CONST>
1

>  <SCORE.INTER.POLAR>
-1.93632

>  <SCORE.INTER.ROT>
0

>  <SCORE.INTER.SOLV>
11.5207

>  <SCORE.INTER.VDW>
-18.3992

>  <SCORE.INTER.norm>
-2.61201

>  <SCORE.INTRA>
0

>  <SCORE.INTRA.DIHEDRAL>
0

>  <SCORE.INTRA.DIHEDRAL.0>
0

>  <SCORE.INTRA.POLAR>
0

>  <SCORE.INTRA.POLAR.0>
0

>  <SCORE.INTRA.REPUL>
0

>  <SCORE.INTRA.REPUL.0>
0

>  <SCORE.INTRA.SOLV>
0

>  <SCORE.INTRA.SOLV.lig_0>
-13.7928

>  <SCORE.INTRA.VDW>
0

>  <SCORE.INTRA.VDW.0>
0

>  <SCORE.INTRA.norm>
0

>  <SCORE.RESTR>
0

>  <SCORE.RESTR.CAVITY>
0

>  <SCORE.RESTR.norm>
0

>  <SCORE.SYSTEM>
0

>  <SCORE.SYSTEM.CONST>
0

>  <SCORE.SYSTEM.DIHEDRAL>
0

>  <SCORE.SYSTEM.SOLV>
0

>  <SCORE.SYSTEM.norm>
0

>  <SCORE.heavy>
10

>  <SCORE.norm>
-2.61201

>  <RMSD>
0.195

$$$$
1u8d_lig
 OpenBabel11021811413D
libRbt.so/2013.1/901 2013/11/27
 10 11  0  0  0  0  0  0  0  0999 V2000
   11.8257   10.5498    9.1798 N   0  0  0  0  0  0  0  0  0  0  0  0
   11.5849   11.9198    9.3802 C   0  0  0  0  0  0  0  0  0  0  0  0
   11.2511   12.7753    8.3805 N   0  0  0  0  0  0  0  0  0  0  0  0
   11.1730   12.1684    7.1763 C   0  0  0  0  0  0  0  0  0  0  0  0
   11.4268   10.6886    6.8942 C   0  0  0  0  0  0  0  0  0  0  0  0
   11.7711    9.8458    7.9623 C   0  0  0  0  0  0  0  0  0  0  0  0
   12.0095    8.6459    7.9667 O   0  0  0  0  0  0  0  0  0  0  0  0
   11.2432   10.5071    5.5508 N   0  0  0  0  0  0  0  0  0  0  0  0
   10.8978   11.7240    5.0155 C   0  0  0  0  0  0  0  0  0  0  0  0
   10.8473   12.7437    5.9621 N   0  0  0  0  0  0  0  0  0  0  0  0
  1  2  1  0  0  0  0
  1  6  1  0  0  0  0
  2  3  2  0  0  0  0
  3  4  1  0  0  0  0
  4  5  2  0  0  0  0
  4 10  1  0  0  0  0
  5  6  1  0  0  0  0
  5  8  1  0  0  0  0
  6  7  2  0  0  0  0
  8  9  1  0  0  0  0
  9 10  2  0  0  0  0
M  END
>  <CHROM.1>
11.41203207,11.12115922,7.35836370,0.29434565,-1.31534554,0.88415849

>  <Name>
1u8d_lig

>  <RI>
0

>  <Rbt.Current_Directory>
/home/itssahil/PROJECTS/Mol_Feturizer/New_Systems/rnas/1u8d

>  <Rbt.Executable>
rbdock ($Id: //depot/dev/client3/rdock/2013.1/src/exe/rbdock.cxx#4 $)

>  <Rbt.Library>
libRbt.so (2013.1, Build901 2013/11/27)

>  <Rbt.Parameter_File>
/export/apps/rDock/src/rDock_2013.1_src/data/scripts/dock_solv.prm

>  <Rbt.Receptor>
prm/pocket_docking_3.prm

>  <SCORE>
-26.0802

>  <SCORE.INTER>
-26.0802

>  <SCORE.INTER.CONST>
1

>  <SCORE.INTER.POLAR>
-1.93632

>  <SCORE.INTER.ROT>
0

>  <SCORE.INTER.SOLV>
11.5423

>  <SCORE.INTER.VDW>
-18.3798

>  <SCORE.INTER.norm>
-2.60802

>  <SCORE.INTRA>
0

>  <SCORE.INTRA.DIHEDRAL>
0

>  <SCORE.INTRA.DIHEDRAL.0>
0

>  <SCORE.INTRA.POLAR>
0

>  <SCORE.INTRA.POLAR.0>
0

>  <SCORE.INTRA.REPUL>
0

>  <SCORE.INTRA.REPUL.0>
0

>  <SCORE.INTRA.SOLV>
0

>  <SCORE.INTRA.SOLV.lig_0>
-13.7928

>  <SCORE.INTRA.VDW>
0

>  <SCORE.INTRA.VDW.0>
0

>  <SCORE.INTRA.norm>
0

>  <SCORE.RESTR>
0

>  <SCORE.RESTR.CAVITY>
0

>  <SCORE.RESTR.norm>
0

>  <SCORE.SYSTEM>
0

>  <SCORE.SYSTEM.CONST>
0

>  <SCORE.SYSTEM.DIHEDRAL>
0

>  <SCORE.SYSTEM.SOLV>
0

>  <SCORE.SYSTEM.norm>
0

>  <SCORE.heavy>
10

>  <SCORE.norm>
-2.60802

>  <RMSD>
0.195

$$$$
1u8d_lig
 OpenBabel11021811413D
libRbt.so/2013.1/901 2013/11/27
 10 11  0  0  0  0  0  0  0  0999 V2000
   11.7581   10.4803    9.2659 N   0  0  0  0  0  0  0  0  0  0  0  0
   11.4937   11.8431    9.4844 C   0  0  0  0  0  0  0  0  0  0  0  0
   11.1791   12.7134    8.4913 N   0  0  0  0  0  0  0  0  0  0  0  0
   11.1453   12.1288    7.2741 C   0  0  0  0  0  0  0  0  0  0  0  0
   11.4266   10.6579    6.9722 C   0  0  0  0  0  0  0  0  0  0  0  0
   11.7493    9.7991    8.0342 C   0  0  0  0  0  0  0  0  0  0  0  0
   12.0030    8.6023    8.0234 O   0  0  0  0  0  0  0  0  0  0  0  0
   11.2860   10.4999    5.6207 N   0  0  0  0  0  0  0  0  0  0  0  0
   10.9412   11.7224    5.0979 C   0  0  0  0  0  0  0  0  0  0  0  0
   10.8489   12.7230    6.0616 N   0  0  0  0  0  0  0  0  0  0  0  0
  1  2  1  0  0  0  0
  1  6  1  0  0  0  0
  2  3  2  0  0  0  0
  3  4  1  0  0  0  0
  4  5  2  0  0  0  0
  4 10  1  0  0  0  0
  5  6  1  0  0  0  0
  5  8  1  0  0  0  0
  6  7  2  0  0  0  0
  8  9  1  0  0  0  0
  9 10  2  0  0  0  0
M  END
>  <CHROM.1>
11.39221726,11.08120917,7.44368738,0.42305150,-1.32251274,1.02777361

>  <Name>
1u8d_lig

>  <RI>
0

>  <Rbt.Current_Directory>
/home/itssahil/PROJECTS/Mol_Feturizer/New_Systems/rnas/1u8d

>  <Rbt.Executable>
rbdock ($Id: //depot/dev/client3/rdock/2013.1/src/exe/rbdock.cxx#4 $)

>  <Rbt.Library>
libRbt.so (2013.1, Build901 2013/11/27)

>  <Rbt.Parameter_File>
/export/apps/rDock/src/rDock_2013.1_src/data/scripts/dock_solv.prm

>  <Rbt.Receptor>
prm/pocket_docking_4.prm

>  <SCORE>
-26.0872

>  <SCORE.INTER>
-26.0872

>  <SCORE.INTER.CONST>
1

>  <SCORE.INTER.POLAR>
-1.93632

>  <SCORE.INTER.ROT>
0

>  <SCORE.INTER.SOLV>
11.5869

>  <SCORE.INTER.VDW>
-18.3994

>  <SCORE.INTER.norm>
-2.60872

>  <SCORE.INTRA>
0

>  <SCORE.INTRA.DIHEDRAL>
0

>  <SCORE.INTRA.DIHEDRAL.0>
0

>  <SCORE.INTRA.POLAR>
0

>  <SCORE.INTRA.POLAR.0>
0

>  <SCORE.INTRA.REPUL>
0

>  <SCORE.INTRA.REPUL.0>
0

>  <SCORE.INTRA.SOLV>
0

>  <SCORE.INTRA.SOLV.lig_0>
-13.7928

>  <SCORE.INTRA.VDW>
0

>  <SCORE.INTRA.VDW.0>
0

>  <SCORE.INTRA.norm>
0

>  <SCORE.RESTR>
0

>  <SCORE.RESTR.CAVITY>
0

>  <SCORE.RESTR.norm>
0

>  <SCORE.SYSTEM>
0

>  <SCORE.SYSTEM.CONST>
0

>  <SCORE.SYSTEM.DIHEDRAL>
0

>  <SCORE.SYSTEM.SOLV>
0

>  <SCORE.SYSTEM.norm>
0

>  <SCORE.heavy>
10

>  <SCORE.norm>
-2.60872

>  <RMSD>
0.195

$$$$
1u8d_lig
 OpenBabel11021811413D
libRbt.so/2013.1/901 2013/11/27
 10 11  0  0  0  0  0  0  0  0999 V2000
   11.8345   10.5549    9.1700 N   0  0  0  0  0  0  0  0  0  0  0  0
   11.5821   11.9216    9.3786 C   0  0  0  0  0  0  0  0  0  0  0  0
   11.2427   12.7806    8.3838 N   0  0  0  0  0  0  0  0  0  0  0  0
   11.1715   12.1807    7.1757 C   0  0  0  0  0  0  0  0  0  0  0  0
   11.4380   10.7048    6.8847 C   0  0  0  0  0  0  0  0  0  0  0  0
   11.7875    9.8582    7.9480 C   0  0  0  0  0  0  0  0  0  0  0  0
   12.0359    8.6602    7.9453 O   0  0  0  0  0  0  0  0  0  0  0  0
   11.2579   10.5303    5.5399 N   0  0  0  0  0  0  0  0  0  0  0  0
   10.9032   11.7476    5.0117 C   0  0  0  0  0  0  0  0  0  0  0  0
   10.8428   12.7608    5.9647 N   0  0  0  0  0  0  0  0  0  0  0  0
  1  2  1  0  0  0  0
  1  6  1  0  0  0  0
  2  3  2  0  0  0  0
  3  4  1  0  0  0  0
  4  5  2  0  0  0  0
  4 10  1  0  0  0  0
  5  6  1  0  0  0  0
  5  8  1  0  0  0  0
  6  7  2  0  0  0  0
  8  9  1  0  0  0  0
  9 10  2  0  0  0  0
M  END
>  <CHROM.1>
11.41888595,11.13426939,7.35153798,0.31913158,-1.30982549,0.91440861

>  <Name>
1u8d_lig

>  <RI>
0

>  <Rbt.Current_Directory>
/home/itssahil/PROJECTS/Mol_Feturizer/New_Systems/rnas/1u8d

>  <Rbt.Executable>
rbdock ($Id: //depot/dev/client3/rdock/2013.1/src/exe/rbdock.cxx#4 $)

>  <Rbt.Library>
libRbt.so (2013.1, Build901 2013/11/27)

>  <Rbt.Parameter_File>
/export/apps/rDock/src/rDock_2013.1_src/data/scripts/dock_solv.prm

>  <Rbt.Receptor>
prm/pocket_docking_4.prm

>  <SCORE>
-26.1193

>  <SCORE.INTER>
-26.1193

>  <SCORE.INTER.CONST>
1

>  <SCORE.INTER.POLAR>
-1.93632

>  <SCORE.INTER.ROT>
0

>  <SCORE.INTER.SOLV>
11.5175

>  <SCORE.INTER.VDW>
-18.3976

>  <SCORE.INTER.norm>
-2.61193

>  <SCORE.INTRA>
0

>  <SCORE.INTRA.DIHEDRAL>
0

>  <SCORE.INTRA.DIHEDRAL.0>
0

>  <SCORE.INTRA.POLAR>
0

>  <SCORE.INTRA.POLAR.0>
0

>  <SCORE.INTRA.REPUL>
0

>  <SCORE.INTRA.REPUL.0>
0

>  <SCORE.INTRA.SOLV>
0

>  <SCORE.INTRA.SOLV.lig_0>
-13.7928

>  <SCORE.INTRA.VDW>
0

>  <SCORE.INTRA.VDW.0>
0

>  <SCORE.INTRA.norm>
0

>  <SCORE.RESTR>
0

>  <SCORE.RESTR.CAVITY>
0

>  <SCORE.RESTR.norm>
0

>  <SCORE.SYSTEM>
0

>  <SCORE.SYSTEM.CONST>
0

>  <SCORE.SYSTEM.DIHEDRAL>
0

>  <SCORE.SYSTEM.SOLV>
0

>  <SCORE.SYSTEM.norm>
0

>  <SCORE.heavy>
10

>  <SCORE.norm>
-2.61193

>  <RMSD>
0.195

$$$$
1u8d_lig
 OpenBabel11021811413D
libRbt.so/2013.1/901 2013/11/27
 10 11  0  0  0  0  0  0  0  0999 V2000
   11.8214   10.5395    9.1655 N   0  0  0  0  0  0  0  0  0  0  0  0
   11.5547   11.9027    9.3794 C   0  0  0  0  0  0  0  0  0  0  0  0
   11.2199   12.7649    8.3858 N   0  0  0  0  0  0  0  0  0  0  0  0
   11.1684   12.1720    7.1733 C   0  0  0  0  0  0  0  0  0  0  0  0
   11.4511   10.7003    6.8765 C   0  0  0  0  0  0  0  0  0  0  0  0
   11.7952    9.8501    7.9387 C   0  0  0  0  0  0  0  0  0  0  0  0
   12.0539    8.6543    7.9316 O   0  0  0  0  0  0  0  0  0  0  0  0
   11.2887   10.5326    5.5286 N   0  0  0  0  0  0  0  0  0  0  0  0
   10.9300   11.7501    5.0036 C   0  0  0  0  0  0  0  0  0  0  0  0
   10.8493   12.7568    5.9620 N   0  0  0  0  0  0  0  0  0  0  0  0
  1  2  1  0  0  0  0
  1  6  1  0  0  0  0
  2  3  2  0  0  0  0
  3  4  1  0  0  0  0
  4  5  2  0  0  0  0
  4 10  1  0  0  0  0
  5  6  1  0  0  0  0
  5  8  1  0  0  0  0
  6  7  2  0  0  0  0
  8  9  1  0  0  0  0
  9 10  2  0  0  0  0
M  END
>  <CHROM.1>
11.42269624,11.12666932,7.34571481,0.37663797,-1.30991196,0.97616725

>  <Name>
1u8d_lig

>  <RI>
0

>  <Rbt.Current_Directory>
/home/itssahil/PROJECTS/Mol_Feturizer/New_Systems/rnas/1u8d

>  <Rbt.Executable>
rbdock ($Id: //depot/dev/client3/rdock/2013.1/src/exe/rbdock.cxx#4 $)

>  <Rbt.Library>
libRbt.so (2013.1, Build901 2013/11/27)

>  <Rbt.Parameter_File>
/export/apps/rDock/src/rDock_2013.1_src/data/scripts/dock_solv.prm

>  <Rbt.Receptor>
prm/pocket_docking_5.prm

>  <SCORE>
-26.0886

>  <SCORE.INTER>
-26.0886

>  <SCORE.INTER.CONST>
1

>  <SCORE.INTER.POLAR>
-1.93632

>  <SCORE.INTER.ROT>
0

>  <SCORE.INTER.SOLV>
11.521

>  <SCORE.INTER.VDW>
-18.3783

>  <SCORE.INTER.norm>
-2.60886

>  <SCORE.INTRA>
0

>  <SCORE.INTRA.DIHEDRAL>
0

>  <SCORE.INTRA.DIHEDRAL.0>
0

>  <SCORE.INTRA.POLAR>
0

>  <SCORE.INTRA.POLAR.0>
0

>  <SCORE.INTRA.REPUL>
0

>  <SCORE.INTRA.REPUL.0>
0

>  <SCORE.INTRA.SOLV>
0

>  <SCORE.INTRA.SOLV.lig_0>
-13.7928

>  <SCORE.INTRA.VDW>
0

>  <SCORE.INTRA.VDW.0>
0

>  <SCORE.INTRA.norm>
0

>  <SCORE.RESTR>
0

>  <SCORE.RESTR.CAVITY>
0

>  <SCORE.RESTR.norm>
0

>  <SCORE.SYSTEM>
0

>  <SCORE.SYSTEM.CONST>
0

>  <SCORE.SYSTEM.DIHEDRAL>
0

>  <SCORE.SYSTEM.SOLV>
0

>  <SCORE.SYSTEM.norm>
0

>  <SCORE.heavy>
10

>  <SCORE.norm>
-2.60886

>  <RMSD>
0.195

$$$$
1u8d_lig
 OpenBabel11021811413D
libRbt.so/2013.1/901 2013/11/27
 10 11  0  0  0  0  0  0  0  0999 V2000
   11.8305   10.5575    9.1677 N   0  0  0  0  0  0  0  0  0  0  0  0
   11.5761   11.9242    9.3736 C   0  0  0  0  0  0  0  0  0  0  0  0
   11.2394   12.7816    8.3766 N   0  0  0  0  0  0  0  0  0  0  0  0
   11.1730   12.1802    7.1690 C   0  0  0  0  0  0  0  0  0  0  0  0
   11.4420   10.7042    6.8807 C   0  0  0  0  0  0  0  0  0  0  0  0
   11.7886    9.8592    7.9463 C   0  0  0  0  0  0  0  0  0  0  0  0
   12.0381    8.6615    7.9460 O   0  0  0  0  0  0  0  0  0  0  0  0
   11.2668   10.5278    5.5356 N   0  0  0  0  0  0  0  0  0  0  0  0
   10.9129   11.7441    5.0046 C   0  0  0  0  0  0  0  0  0  0  0  0
   10.8481   12.7585    5.9561 N   0  0  0  0  0  0  0  0  0  0  0  0
  1  2  1  0  0  0  0
  1  6  1  0  0  0  0
  2  3  2  0  0  0  0
  3  4  1  0  0  0  0
  4  5  2  0  0  0  0
  4 10  1  0  0  0  0
  5  6  1  0  0  0  0
  5  8  1  0  0  0  0
  6  7  2  0  0  0  0
  8  9  1  0  0  0  0
  9 10  2  0  0  0  0
M  END
>  <CHROM.1>
11.42079992,11.13421168,7.34699761,0.33243621,-1.31120547,0.92603612

>  <Name>
1u8d_lig

>  <RI>
0

>  <Rbt.Current_Directory>
/home/itssahil/PROJECTS/Mol_Feturizer/New_Systems/rnas/1u8d

>  <Rbt.Executable>
rbdock ($Id: //depot/dev/client3/rdock/2013.1/src/exe/rbdock.cxx#4 $)

>  <Rbt.Library>
libRbt.so (2013.1, Build901 2013/11/27)

>  <Rbt.Parameter_File>
/export/apps/rDock/src/rDock_2013.1_src/data/scripts/dock_solv.prm

>  <Rbt.Receptor>
prm/pocket_docking_5.prm

>  <SCORE>
-26.1198

>  <SCORE.INTER>
-26.1198

>  <SCORE.INTER.CONST>
1

>  <SCORE.INTER.POLAR>
-1.93632

>  <SCORE.INTER.ROT>
0

>  <SCORE.INTER.SOLV>
11.5236

>  <SCORE.INTER.VDW>
-18.4

>  <SCORE.INTER.norm>
-2.61198

>  <SCORE.INTRA>
0

>  <SCORE.INTRA.DIHEDRAL>
0

>  <SCORE.INTRA.DIHEDRAL.0>
0

>  <SCORE.INTRA.POLAR>
0

>  <SCORE.INTRA.POLAR.0>
0

>  <SCORE.INTRA.REPUL>
0

>  <SCORE.INTRA.REPUL.0>
0

>  <SCORE.INTRA.SOLV>
0

>  <SCORE.INTRA.SOLV.lig_0>
-13.7928

>  <SCORE.INTRA.VDW>
0

>  <SCORE.INTRA.VDW.0>
0

>  <SCORE.INTRA.norm>
0

>  <SCORE.RESTR>
0

>  <SCORE.RESTR.CAVITY>
0

>  <SCORE.RESTR.norm>
0

>  <SCORE.SYSTEM>
0

>  <SCORE.SYSTEM.CONST>
0

>  <SCORE.SYSTEM.DIHEDRAL>
0

>  <SCORE.SYSTEM.SOLV>
0

>  <SCORE.SYSTEM.norm>
0

>  <SCORE.heavy>
10

>  <SCORE.norm>
-2.61198

>  <RMSD>
0.195

$$$$
1u8d_lig
 OpenBabel11021811413D
libRbt.so/2013.1/901 2013/11/27
 10 11  0  0  0  0  0  0  0  0999 V2000
   11.8281   10.5559    9.1743 N   0  0  0  0  0  0  0  0  0  0  0  0
   11.5783   11.9233    9.3811 C   0  0  0  0  0  0  0  0  0  0  0  0
   11.2437   12.7824    8.3848 N   0  0  0  0  0  0  0  0  0  0  0  0
   11.1746   12.1818    7.1769 C   0  0  0  0  0  0  0  0  0  0  0  0
   11.4385   10.7051    6.8877 C   0  0  0  0  0  0  0  0  0  0  0  0
   11.7831    9.8584    7.9526 C   0  0  0  0  0  0  0  0  0  0  0  0
   12.0287    8.6599    7.9514 O   0  0  0  0  0  0  0  0  0  0  0  0
   11.2619   10.5300    5.5425 N   0  0  0  0  0  0  0  0  0  0  0  0
   10.9116   11.7478    5.0124 C   0  0  0  0  0  0  0  0  0  0  0  0
   10.8508   12.7618    5.9645 N   0  0  0  0  0  0  0  0  0  0  0  0
  1  2  1  0  0  0  0
  1  6  1  0  0  0  0
  2  3  2  0  0  0  0
  3  4  1  0  0  0  0
  4  5  2  0  0  0  0
  4 10  1  0  0  0  0
  5  6  1  0  0  0  0
  5  8  1  0  0  0  0
  6  7  2  0  0  0  0
  8  9  1  0  0  0  0
  9 10  2  0  0  0  0
M  END
>  <CHROM.1>
11.41909146,11.13494458,7.35419682,0.32266578,-1.31340754,0.91712224

>  <Name>
1u8d_lig

>  <RI>
0

>  <Rbt.Current_Directory>
/home/itssahil/PROJECTS/Mol_Feturizer/New_Systems/rnas/1u8d

>  <Rbt.Executable>
rbdock ($Id: //depot/dev/client3/rdock/2013.1/src/exe/rbdock.cxx#4 $)

>  <Rbt.Library>
libRbt.so (2013.1, Build901 2013/11/27)

>  <Rbt.Parameter_File>
/export/apps/rDock/src/rDock_2013.1_src/data/scripts/dock_solv.prm

>  <Rbt.Receptor>
prm/pocket_docking_6.prm

>  <SCORE>
-26.1185

>  <SCORE.INTER>
-26.1185

>  <SCORE.INTER.CONST>
1

>  <SCORE.INTER.POLAR>
-1.93632

>  <SCORE.INTER.ROT>
0

>  <SCORE.INTER.SOLV>
11.5291

>  <SCORE.INTER.VDW>
-18.4009

>  <SCORE.INTER.norm>
-2.61185

>  <SCORE.INTRA>
0

>  <SCORE.INTRA.DIHEDRAL>
0

>  <SCORE.INTRA.DIHEDRAL.0>
0

>  <SCORE.INTRA.POLAR>
0

>  <SCORE.INTRA.POLAR.0>
0

>  <SCORE.INTRA.REPUL>
0

>  <SCORE.INTRA.REPUL.0>
0

>  <SCORE.INTRA.SOLV>
0

>  <SCORE.INTRA.SOLV.lig_0>
-13.7928

>  <SCORE.INTRA.VDW>
0

>  <SCORE.INTRA.VDW.0>
0

>  <SCORE.INTRA.norm>
0

>  <SCORE.RESTR>
0

>  <SCORE.RESTR.CAVITY>
0

>  <SCORE.RESTR.norm>
0

>  <SCORE.SYSTEM>
0

>  <SCORE.SYSTEM.CONST>
0

>  <SCORE.SYSTEM.DIHEDRAL>
0

>  <SCORE.SYSTEM.SOLV>
0

>  <SCORE.SYSTEM.norm>
0

>  <SCORE.heavy>
10

>  <SCORE.norm>
-2.61185

>  <RMSD>
0.195

$$$$
1u8d_lig
 OpenBabel11021811413D
libRbt.so/2013.1/901 2013/11/27
 10 11  0  0  0  0  0  0  0  0999 V2000
   11.8273   10.5571    9.1769 N   0  0  0  0  0  0  0  0  0  0  0  0
   11.5785   11.9247    9.3838 C   0  0  0  0  0  0  0  0  0  0  0  0
   11.2437   12.7839    8.3876 N   0  0  0  0  0  0  0  0  0  0  0  0
   11.1732   12.1832    7.1799 C   0  0  0  0  0  0  0  0  0  0  0  0
   11.4359   10.7064    6.8906 C   0  0  0  0  0  0  0  0  0  0  0  0
   11.7808    9.8595    7.9553 C   0  0  0  0  0  0  0  0  0  0  0  0
   12.0256    8.6608    7.9540 O   0  0  0  0  0  0  0  0  0  0  0  0
   11.2581   10.5313    5.5456 N   0  0  0  0  0  0  0  0  0  0  0  0
   10.9081   11.7492    5.0157 C   0  0  0  0  0  0  0  0  0  0  0  0
   10.8488   12.7634    5.9677 N   0  0  0  0  0  0  0  0  0  0  0  0
  1  2  1  0  0  0  0
  1  6  1  0  0  0  0
  2  3  2  0  0  0  0
  3  4  1  0  0  0  0
  4  5  2  0  0  0  0
  4 10  1  0  0  0  0
  5  6  1  0  0  0  0
  5  8  1  0  0  0  0
  6  7  2  0  0  0  0
  8  9  1  0  0  0  0
  9 10  2  0  0  0  0
M  END
>  <CHROM.1>
11.41712533,11.13625255,7.35707005,0.31848006,-1.31343682,0.91299767

>  <Name>
1u8d_lig

>  <RI>
0

>  <Rbt.Current_Directory>
/home/itssahil/PROJECTS/Mol_Feturizer/New_Systems/rnas/1u8d

>  <Rbt.Executable>
rbdock ($Id: //depot/dev/client3/rdock/2013.1/src/exe/rbdock.cxx#4 $)

>  <Rbt.Library>
libRbt.so (2013.1, Build901 2013/11/27)

>  <Rbt.Parameter_File>
/export/apps/rDock/src/rDock_2013.1_src/data/scripts/dock_solv.prm

>  <Rbt.Receptor>
prm/pocket_docking_6.prm

>  <SCORE>
-26.1164

>  <SCORE.INTER>
-26.1164

>  <SCORE.INTER.CONST>
1

>  <SCORE.INTER.POLAR>
-1.93632

>  <SCORE.INTER.ROT>
0

>  <SCORE.INTER.SOLV>
11.5302

>  <SCORE.INTER.VDW>
-18.3999

>  <SCORE.INTER.norm>
-2.61164

>  <SCORE.INTRA>
0

>  <SCORE.INTRA.DIHEDRAL>
0

>  <SCORE.INTRA.DIHEDRAL.0>
0

>  <SCORE.INTRA.POLAR>
0

>  <SCORE.INTRA.POLAR.0>
0

>  <SCORE.INTRA.REPUL>
0

>  <SCORE.INTRA.REPUL.0>
0

>  <SCORE.INTRA.SOLV>
0

>  <SCORE.INTRA.SOLV.lig_0>
-13.7928

>  <SCORE.INTRA.VDW>
0

>  <SCORE.INTRA.VDW.0>
0

>  <SCORE.INTRA.norm>
0

>  <SCORE.RESTR>
0

>  <SCORE.RESTR.CAVITY>
0

>  <SCORE.RESTR.norm>
0

>  <SCORE.SYSTEM>
0

>  <SCORE.SYSTEM.CONST>
0

>  <SCORE.SYSTEM.DIHEDRAL>
0

>  <SCORE.SYSTEM.SOLV>
0

>  <SCORE.SYSTEM.norm>
0

>  <SCORE.heavy>
10

>  <SCORE.norm>
-2.61164

>  <RMSD>
0.195

$$$$
1u8d_lig
 OpenBabel11021811413D
libRbt.so/2013.1/901 2013/11/27
 10 11  0  0  0  0  0  0  0  0999 V2000
   11.6723   10.5041    9.2842 N   0  0  0  0  0  0  0  0  0  0  0  0
   11.3453   11.8526    9.5068 C   0  0  0  0  0  0  0  0  0  0  0  0
   11.0493   12.7256    8.5103 N   0  0  0  0  0  0  0  0  0  0  0  0
   11.1005   12.1587    7.2854 C   0  0  0  0  0  0  0  0  0  0  0  0
   11.4528   10.7042    6.9789 C   0  0  0  0  0  0  0  0  0  0  0  0
   11.7529    9.8419    8.0447 C   0  0  0  0  0  0  0  0  0  0  0  0
   12.0522    8.6558    8.0312 O   0  0  0  0  0  0  0  0  0  0  0  0
   11.3880   10.5617    5.6199 N   0  0  0  0  0  0  0  0  0  0  0  0
   11.0243   11.7783    5.0963 C   0  0  0  0  0  0  0  0  0  0  0  0
   10.8444   12.7600    6.0671 N   0  0  0  0  0  0  0  0  0  0  0  0
  1  2  1  0  0  0  0
  1  6  1  0  0  0  0
  2  3  2  0  0  0  0
  3  4  1  0  0  0  0
  4  5  2  0  0  0  0
  4 10  1  0  0  0  0
  5  6  1  0  0  0  0
  5  8  1  0  0  0  0
  6  7  2  0  0  0  0
  8  9  1  0  0  0  0
  9 10  2  0  0  0  0
M  END
>  <CHROM.1>
11.37806647,11.11867470,7.45358778,0.67165676,-1.30875988,1.28272185

>  <Name>
1u8d_lig

>  <RI>
0

>  <Rbt.Current_Directory>
/home/itssahil/PROJECTS/Mol_Feturizer/New_Systems/rnas/1u8d

>  <Rbt.Executable>
rbdock ($Id: //depot/dev/client3/rdock/2013.1/src/exe/rbdock.cxx#4 $)

>  <Rbt.Library>
libRbt.so (2013.1, Build901 2013/11/27)

>  <Rbt.Parameter_File>
/export/apps/rDock/src/rDock_2013.1_src/data/scripts/dock_solv.prm

>  <Rbt.Receptor>
prm/pocket_docking_7.prm

>  <SCORE>
-25.8289

>  <SCORE.INTER>
-25.8289

>  <SCORE.INTER.CONST>
1

>  <SCORE.INTER.POLAR>
-1.93632

>  <SCORE.INTER.ROT>
0

>  <SCORE.INTER.SOLV>
11.6245

>  <SCORE.INTER.VDW>
-18.2397

>  <SCORE.INTER.norm>
-2.58289

>  <SCORE.INTRA>
0

>  <SCORE.INTRA.DIHEDRAL>
0

>  <SCORE.INTRA.DIHEDRAL.0>
0

>  <SCORE.INTRA.POLAR>
0

>  <SCORE.INTRA.POLAR.0>
0

>  <SCORE.INTRA.REPUL>
0

>  <SCORE.INTRA.REPUL.0>
0

>  <SCORE.INTRA.SOLV>
0

>  <SCORE.INTRA.SOLV.lig_0>
-13.7928

>  <SCORE.INTRA.VDW>
0

>  <SCORE.INTRA.VDW.0>
0

>  <SCORE.INTRA.norm>
0

>  <SCORE.RESTR>
0

>  <SCORE.RESTR.CAVITY>
0

>  <SCORE.RESTR.norm>
0

>  <SCORE.SYSTEM>
0

>  <SCORE.SYSTEM.CONST>
0

>  <SCORE.SYSTEM.DIHEDRAL>
0

>  <SCORE.SYSTEM.SOLV>
0

>  <SCORE.SYSTEM.norm>
0

>  <SCORE.heavy>
10

>  <SCORE.norm>
-2.58289

>  <RMSD>
0.195

$$$$
1u8d_lig
 OpenBabel11021811413D
libRbt.so/2013.1/901 2013/11/27
 10 11  0  0  0  0  0  0  0  0999 V2000
   11.8777   10.5556    9.1560 N   0  0  0  0  0  0  0  0  0  0  0  0
   11.6018   11.9176    9.3648 C   0  0  0  0  0  0  0  0  0  0  0  0
   11.2505   12.7715    8.3697 N   0  0  0  0  0  0  0  0  0  0  0  0
   11.1925   12.1713    7.1610 C   0  0  0  0  0  0  0  0  0  0  0  0
   11.4846   10.7003    6.8698 C   0  0  0  0  0  0  0  0  0  0  0  0
   11.8456    9.8590    7.9334 C   0  0  0  0  0  0  0  0  0  0  0  0
   12.1142    8.6654    7.9305 O   0  0  0  0  0  0  0  0  0  0  0  0
   11.3109   10.5237    5.5244 N   0  0  0  0  0  0  0  0  0  0  0  0
   10.9371   11.7352    4.9961 C   0  0  0  0  0  0  0  0  0  0  0  0
   10.8572   12.7466    5.9495 N   0  0  0  0  0  0  0  0  0  0  0  0
  1  2  1  0  0  0  0
  1  6  1  0  0  0  0
  2  3  2  0  0  0  0
  3  4  1  0  0  0  0
  4  5  2  0  0  0  0
  4 10  1  0  0  0  0
  5  6  1  0  0  0  0
  5  8  1  0  0  0  0
  6  7  2  0  0  0  0
  8  9  1  0  0  0  0
  9 10  2  0  0  0  0
M  END
>  <CHROM.1>
11.45705744,11.12907891,7.33684277,0.36481686,-1.29776525,0.95914615

>  <Name>
1u8d_lig

>  <RI>
0

>  <Rbt.Current_Directory>
/home/itssahil/PROJECTS/Mol_Feturizer/New_Systems/rnas/1u8d

>  <Rbt.Executable>
rbdock ($Id: //depot/dev/client3/rdock/2013.1/src/exe/rbdock.cxx#4 $)

>  <Rbt.Library>
libRbt.so (2013.1, Build901 2013/11/27)

>  <Rbt.Parameter_File>
/export/apps/rDock/src/rDock_2013.1_src/data/scripts/dock_solv.prm

>  <Rbt.Receptor>
prm/pocket_docking_7.prm

>  <SCORE>
-26.1038

>  <SCORE.INTER>
-26.1038

>  <SCORE.INTER.CONST>
1

>  <SCORE.INTER.POLAR>
-1.93632

>  <SCORE.INTER.ROT>
0

>  <SCORE.INTER.SOLV>
11.4603

>  <SCORE.INTER.VDW>
-18.3683

>  <SCORE.INTER.norm>
-2.61038

>  <SCORE.INTRA>
0

>  <SCORE.INTRA.DIHEDRAL>
0

>  <SCORE.INTRA.DIHEDRAL.0>
0

>  <SCORE.INTRA.POLAR>
0

>  <SCORE.INTRA.POLAR.0>
0

>  <SCORE.INTRA.REPUL>
0

>  <SCORE.INTRA.REPUL.0>
0

>  <SCORE.INTRA.SOLV>
0

>  <SCORE.INTRA.SOLV.lig_0>
-13.7928

>  <SCORE.INTRA.VDW>
0

>  <SCORE.INTRA.VDW.0>
0

>  <SCORE.INTRA.norm>
0

>  <SCORE.RESTR>
0

>  <SCORE.RESTR.CAVITY>
0

>  <SCORE.RESTR.norm>
0

>  <SCORE.SYSTEM>
0

>  <SCORE.SYSTEM.CONST>
0

>  <SCORE.SYSTEM.DIHEDRAL>
0

>  <SCORE.SYSTEM.SOLV>
0

>  <SCORE.SYSTEM.norm>
0

>  <SCORE.heavy>
10

>  <SCORE.norm>
-2.61038

>  <RMSD>
0.195

$$$$
1u8d_lig
 OpenBabel11021811413D
libRbt.so/2013.1/901 2013/11/27
 10 11  0  0  0  0  0  0  0  0999 V2000
   11.8238   10.5564    9.1727 N   0  0  0  0  0  0  0  0  0  0  0  0
   11.5712   11.9236    9.3775 C   0  0  0  0  0  0  0  0  0  0  0  0
   11.2391   12.7813    8.3791 N   0  0  0  0  0  0  0  0  0  0  0  0
   11.1754   12.1796    7.1715 C   0  0  0  0  0  0  0  0  0  0  0  0
   11.4424   10.7031    6.8846 C   0  0  0  0  0  0  0  0  0  0  0  0
   11.7842    9.8578    7.9514 C   0  0  0  0  0  0  0  0  0  0  0  0
   12.0315    8.6596    7.9522 O   0  0  0  0  0  0  0  0  0  0  0  0
   11.2710   10.5266    5.5389 N   0  0  0  0  0  0  0  0  0  0  0  0
   10.9210   11.7434    5.0064 C   0  0  0  0  0  0  0  0  0  0  0  0
   10.8552   12.7582    5.9575 N   0  0  0  0  0  0  0  0  0  0  0  0
  1  2  1  0  0  0  0
  1  6  1  0  0  0  0
  2  3  2  0  0  0  0
  3  4  1  0  0  0  0
  4  5  2  0  0  0  0
  4 10  1  0  0  0  0
  5  6  1  0  0  0  0
  5  8  1  0  0  0  0
  6  7  2  0  0  0  0
  8  9  1  0  0  0  0
  9 10  2  0  0  0  0
M  END
>  <CHROM.1>
11.42063572,11.13326213,7.35060304,0.33757840,-1.31451356,0.93069509

>  <Name>
1u8d_lig

>  <RI>
0

>  <Rbt.Current_Directory>
/home/itssahil/PROJECTS/Mol_Feturizer/New_Systems/rnas/1u8d

>  <Rbt.Executable>
rbdock ($Id: //depot/dev/client3/rdock/2013.1/src/exe/rbdock.cxx#4 $)

>  <Rbt.Library>
libRbt.so (2013.1, Build901 2013/11/27)

>  <Rbt.Parameter_File>
/export/apps/rDock/src/rDock_2013.1_src/data/scripts/dock_solv.prm

>  <Rbt.Receptor>
prm/pocket_docking_8.prm

>  <SCORE>
-26.1198

>  <SCORE.INTER>
-26.1198

>  <SCORE.INTER.CONST>
1

>  <SCORE.INTER.POLAR>
-1.93632

>  <SCORE.INTER.ROT>
0

>  <SCORE.INTER.SOLV>
11.5347

>  <SCORE.INTER.VDW>
-18.4037

>  <SCORE.INTER.norm>
-2.61198

>  <SCORE.INTRA>
0

>  <SCORE.INTRA.DIHEDRAL>
0

>  <SCORE.INTRA.DIHEDRAL.0>
0

>  <SCORE.INTRA.POLAR>
0

>  <SCORE.INTRA.POLAR.0>
0

>  <SCORE.INTRA.REPUL>
0

>  <SCORE.INTRA.REPUL.0>
0

>  <SCORE.INTRA.SOLV>
0

>  <SCORE.INTRA.SOLV.lig_0>
-13.7928

>  <SCORE.INTRA.VDW>
0

>  <SCORE.INTRA.VDW.0>
0

>  <SCORE.INTRA.norm>
0

>  <SCORE.RESTR>
0

>  <SCORE.RESTR.CAVITY>
0

>  <SCORE.RESTR.norm>
0

>  <SCORE.SYSTEM>
0

>  <SCORE.SYSTEM.CONST>
0

>  <SCORE.SYSTEM.DIHEDRAL>
0

>  <SCORE.SYSTEM.SOLV>
0

>  <SCORE.SYSTEM.norm>
0

>  <SCORE.heavy>
10

>  <SCORE.norm>
-2.61198

>  <RMSD>
0.195

$$$$
1u8d_lig
 OpenBabel11021811413D
libRbt.so/2013.1/901 2013/11/27
 10 11  0  0  0  0  0  0  0  0999 V2000
   11.8322   10.5542    9.1721 N   0  0  0  0  0  0  0  0  0  0  0  0
   11.5812   11.9211    9.3809 C   0  0  0  0  0  0  0  0  0  0  0  0
   11.2440   12.7810    8.3861 N   0  0  0  0  0  0  0  0  0  0  0  0
   11.1734   12.1817    7.1777 C   0  0  0  0  0  0  0  0  0  0  0  0
   11.4383   10.7056    6.8863 C   0  0  0  0  0  0  0  0  0  0  0  0
   11.7857    9.8581    7.9497 C   0  0  0  0  0  0  0  0  0  0  0  0
   12.0326    8.6598    7.9467 O   0  0  0  0  0  0  0  0  0  0  0  0
   11.2595   10.5319    5.5413 N   0  0  0  0  0  0  0  0  0  0  0  0
   10.9070   11.7498    5.0132 C   0  0  0  0  0  0  0  0  0  0  0  0
   10.8468   12.7627    5.9666 N   0  0  0  0  0  0  0  0  0  0  0  0
  1  2  1  0  0  0  0
  1  6  1  0  0  0  0
  2  3  2  0  0  0  0
  3  4  1  0  0  0  0
  4  5  2  0  0  0  0
  4 10  1  0  0  0  0
  5  6  1  0  0  0  0
  5  8  1  0  0  0  0
  6  7  2  0  0  0  0
  8  9  1  0  0  0  0
  9 10  2  0  0  0  0
M  END
>  <CHROM.1>
11.41927583,11.13489211,7.35336078,0.31970147,-1.31148092,0.91539731

>  <Name>
1u8d_lig

>  <RI>
0

>  <Rbt.Current_Directory>
/home/itssahil/PROJECTS/Mol_Feturizer/New_Systems/rnas/1u8d

>  <Rbt.Executable>
rbdock ($Id: //depot/dev/client3/rdock/2013.1/src/exe/rbdock.cxx#4 $)

>  <Rbt.Library>
libRbt.so (2013.1, Build901 2013/11/27)

>  <Rbt.Parameter_File>
/export/apps/rDock/src/rDock_2013.1_src/data/scripts/dock_solv.prm

>  <Rbt.Receptor>
prm/blind_docking_100.prm

>  <SCORE>
-26.1191

>  <SCORE.INTER>
-26.1191

>  <SCORE.INTER.CONST>
1

>  <SCORE.INTER.POLAR>
-1.93632

>  <SCORE.INTER.ROT>
0

>  <SCORE.INTER.SOLV>
11.5217

>  <SCORE.INTER.VDW>
-18.3989

>  <SCORE.INTER.norm>
-2.61191

>  <SCORE.INTRA>
0

>  <SCORE.INTRA.DIHEDRAL>
0

>  <SCORE.INTRA.DIHEDRAL.0>
0

>  <SCORE.INTRA.POLAR>
0

>  <SCORE.INTRA.POLAR.0>
0

>  <SCORE.INTRA.REPUL>
0

>  <SCORE.INTRA.REPUL.0>
0

>  <SCORE.INTRA.SOLV>
0

>  <SCORE.INTRA.SOLV.lig_0>
-13.7928

>  <SCORE.INTRA.VDW>
0

>  <SCORE.INTRA.VDW.0>
0

>  <SCORE.INTRA.norm>
0

>  <SCORE.RESTR>
0

>  <SCORE.RESTR.CAVITY>
0

>  <SCORE.RESTR.norm>
0

>  <SCORE.SYSTEM>
0

>  <SCORE.SYSTEM.CONST>
0

>  <SCORE.SYSTEM.DIHEDRAL>
0

>  <SCORE.SYSTEM.SOLV>
0

>  <SCORE.SYSTEM.norm>
0

>  <SCORE.heavy>
10

>  <SCORE.norm>
-2.61191

>  <RMSD>
0.196

$$$$
1u8d_lig
 OpenBabel11021811413D
libRbt.so/2013.1/901 2013/11/27
 10 11  0  0  0  0  0  0  0  0999 V2000
   11.8262   10.5542    9.1756 N   0  0  0  0  0  0  0  0  0  0  0  0
   11.5775   11.9218    9.3829 C   0  0  0  0  0  0  0  0  0  0  0  0
   11.2445   12.7816    8.3866 N   0  0  0  0  0  0  0  0  0  0  0  0
   11.1757   12.1816    7.1784 C   0  0  0  0  0  0  0  0  0  0  0  0
   11.4384   10.7049    6.8888 C   0  0  0  0  0  0  0  0  0  0  0  0
   11.7814    9.8573    7.9535 C   0  0  0  0  0  0  0  0  0  0  0  0
   12.0258    8.6586    7.9520 O   0  0  0  0  0  0  0  0  0  0  0  0
   11.2626   10.5306    5.5434 N   0  0  0  0  0  0  0  0  0  0  0  0
   10.9139   11.7489    5.0136 C   0  0  0  0  0  0  0  0  0  0  0  0
   10.8534   12.7626    5.9661 N   0  0  0  0  0  0  0  0  0  0  0  0
  1  2  1  0  0  0  0
  1  6  1  0  0  0  0
  2  3  2  0  0  0  0
  3  4  1  0  0  0  0
  4  5  2  0  0  0  0
  4 10  1  0  0  0  0
  5  6  1  0  0  0  0
  5  8  1  0  0  0  0
  6  7  2  0  0  0  0
  8  9  1  0  0  0  0
  9 10  2  0  0  0  0
M  END
>  <CHROM.1>
11.41905833,11.13447776,7.35544822,0.32260756,-1.31463076,0.91752874

>  <Name>
1u8d_lig

>  <RI>
0

>  <Rbt.Current_Directory>
/home/itssahil/PROJECTS/Mol_Feturizer/New_Systems/rnas/1u8d

>  <Rbt.Executable>
rbdock ($Id: //depot/dev/client3/rdock/2013.1/src/exe/rbdock.cxx#4 $)

>  <Rbt.Library>
libRbt.so (2013.1, Build901 2013/11/27)

>  <Rbt.Parameter_File>
/export/apps/rDock/src/rDock_2013.1_src/data/scripts/dock_solv.prm

>  <Rbt.Receptor>
prm/blind_docking_40.prm

>  <SCORE>
-26.1196

>  <SCORE.INTER>
-26.1196

>  <SCORE.INTER.CONST>
1

>  <SCORE.INTER.POLAR>
-1.93632

>  <SCORE.INTER.ROT>
0

>  <SCORE.INTER.SOLV>
11.5321

>  <SCORE.INTER.VDW>
-18.4027

>  <SCORE.INTER.norm>
-2.61196

>  <SCORE.INTRA>
0

>  <SCORE.INTRA.DIHEDRAL>
0

>  <SCORE.INTRA.DIHEDRAL.0>
0

>  <SCORE.INTRA.POLAR>
0

>  <SCORE.INTRA.POLAR.0>
0

>  <SCORE.INTRA.REPUL>
0

>  <SCORE.INTRA.REPUL.0>
0

>  <SCORE.INTRA.SOLV>
0

>  <SCORE.INTRA.SOLV.lig_0>
-13.7928

>  <SCORE.INTRA.VDW>
0

>  <SCORE.INTRA.VDW.0>
0

>  <SCORE.INTRA.norm>
0

>  <SCORE.RESTR>
0

>  <SCORE.RESTR.CAVITY>
0

>  <SCORE.RESTR.norm>
0

>  <SCORE.SYSTEM>
0

>  <SCORE.SYSTEM.CONST>
0

>  <SCORE.SYSTEM.DIHEDRAL>
0

>  <SCORE.SYSTEM.SOLV>
0

>  <SCORE.SYSTEM.norm>
0

>  <SCORE.heavy>
10

>  <SCORE.norm>
-2.61196

>  <RMSD>
0.196

$$$$
1u8d_lig
 OpenBabel11021811413D
libRbt.so/2013.1/901 2013/11/27
 10 11  0  0  0  0  0  0  0  0999 V2000
   11.8047   10.5126    9.1871 N   0  0  0  0  0  0  0  0  0  0  0  0
   11.5545   11.8799    9.3948 C   0  0  0  0  0  0  0  0  0  0  0  0
   11.2256   12.7406    8.3981 N   0  0  0  0  0  0  0  0  0  0  0  0
   11.1624   12.1420    7.1889 C   0  0  0  0  0  0  0  0  0  0  0  0
   11.4270   10.6656    6.8988 C   0  0  0  0  0  0  0  0  0  0  0  0
   11.7656    9.8171    7.9641 C   0  0  0  0  0  0  0  0  0  0  0  0
   12.0106    8.6184    7.9624 O   0  0  0  0  0  0  0  0  0  0  0  0
   11.2572   10.4927    5.5525 N   0  0  0  0  0  0  0  0  0  0  0  0
   10.9103   11.7114    5.0224 C   0  0  0  0  0  0  0  0  0  0  0  0
   10.8451   12.7240    5.9758 N   0  0  0  0  0  0  0  0  0  0  0  0
  1  2  1  0  0  0  0
  1  6  1  0  0  0  0
  2  3  2  0  0  0  0
  3  4  1  0  0  0  0
  4  5  2  0  0  0  0
  4 10  1  0  0  0  0
  5  6  1  0  0  0  0
  5  8  1  0  0  0  0
  6  7  2  0  0  0  0
  8  9  1  0  0  0  0
  9 10  2  0  0  0  0
M  END
>  <CHROM.1>
11.40535623,11.09470804,7.36585265,0.33761338,-1.31694080,0.93313358

>  <Name>
1u8d_lig

>  <RI>
0

>  <Rbt.Current_Directory>
/home/itssahil/PROJECTS/Mol_Feturizer/New_Systems/rnas/1u8d

>  <Rbt.Executable>
rbdock ($Id: //depot/dev/client3/rdock/2013.1/src/exe/rbdock.cxx#4 $)

>  <Rbt.Library>
libRbt.so (2013.1, Build901 2013/11/27)

>  <Rbt.Parameter_File>
/export/apps/rDock/src/rDock_2013.1_src/data/scripts/dock_solv.prm

>  <Rbt.Receptor>
prm/pocket_docking_3.prm

>  <SCORE>
-26.0974

>  <SCORE.INTER>
-26.0974

>  <SCORE.INTER.CONST>
1

>  <SCORE.INTER.POLAR>
-1.93632

>  <SCORE.INTER.ROT>
0

>  <SCORE.INTER.SOLV>
11.5526

>  <SCORE.INTER.VDW>
-18.3947

>  <SCORE.INTER.norm>
-2.60974

>  <SCORE.INTRA>
0

>  <SCORE.INTRA.DIHEDRAL>
0

>  <SCORE.INTRA.DIHEDRAL.0>
0

>  <SCORE.INTRA.POLAR>
0

>  <SCORE.INTRA.POLAR.0>
0

>  <SCORE.INTRA.REPUL>
0

>  <SCORE.INTRA.REPUL.0>
0

>  <SCORE.INTRA.SOLV>
0

>  <SCORE.INTRA.SOLV.lig_0>
-13.7928

>  <SCORE.INTRA.VDW>
0

>  <SCORE.INTRA.VDW.0>
0

>  <SCORE.INTRA.norm>
0

>  <SCORE.RESTR>
0

>  <SCORE.RESTR.CAVITY>
0

>  <SCORE.RESTR.norm>
0

>  <SCORE.SYSTEM>
0

>  <SCORE.SYSTEM.CONST>
0

>  <SCORE.SYSTEM.DIHEDRAL>
0

>  <SCORE.SYSTEM.SOLV>
0

>  <SCORE.SYSTEM.norm>
0

>  <SCORE.heavy>
10

>  <SCORE.norm>
-2.60974

>  <RMSD>
0.196

$$$$
1u8d_lig
 OpenBabel11021811413D
libRbt.so/2013.1/901 2013/11/27
 10 11  0  0  0  0  0  0  0  0999 V2000
   11.8250   10.5568    9.1691 N   0  0  0  0  0  0  0  0  0  0  0  0
   11.5714   11.9240    9.3731 C   0  0  0  0  0  0  0  0  0  0  0  0
   11.2398   12.7811    8.3740 N   0  0  0  0  0  0  0  0  0  0  0  0
   11.1775   12.1788    7.1666 C   0  0  0  0  0  0  0  0  0  0  0  0
   11.4458   10.7023    6.8806 C   0  0  0  0  0  0  0  0  0  0  0  0
   11.7871    9.8577    7.9481 C   0  0  0  0  0  0  0  0  0  0  0  0
   12.0351    8.6596    7.9496 O   0  0  0  0  0  0  0  0  0  0  0  0
   11.2759   10.5251    5.5348 N   0  0  0  0  0  0  0  0  0  0  0  0
   10.9256   11.7415    5.0015 C   0  0  0  0  0  0  0  0  0  0  0  0
   10.8582   12.7566    5.9520 N   0  0  0  0  0  0  0  0  0  0  0  0
  1  2  1  0  0  0  0
  1  6  1  0  0  0  0
  2  3  2  0  0  0  0
  3  4  1  0  0  0  0
  4  5  2  0  0  0  0
  4 10  1  0  0  0  0
  5  6  1  0  0  0  0
  5  8  1  0  0  0  0
  6  7  2  0  0  0  0
  8  9  1  0  0  0  0
  9 10  2  0  0  0  0
M  END
>  <CHROM.1>
11.42331163,11.13268443,7.34639575,0.34218837,-1.31459793,0.93472969

>  <Name>
1u8d_lig

>  <RI>
0

>  <Rbt.Current_Directory>
/home/itssahil/PROJECTS/Mol_Feturizer/New_Systems/rnas/1u8d

>  <Rbt.Executable>
rbdock ($Id: //depot/dev/client3/rdock/2013.1/src/exe/rbdock.cxx#4 $)

>  <Rbt.Library>
libRbt.so (2013.1, Build901 2013/11/27)

>  <Rbt.Parameter_File>
/export/apps/rDock/src/rDock_2013.1_src/data/scripts/dock_solv.prm

>  <Rbt.Receptor>
prm/pocket_docking_4.prm

>  <SCORE>
-26.1182

>  <SCORE.INTER>
-26.1182

>  <SCORE.INTER.CONST>
1

>  <SCORE.INTER.POLAR>
-1.93632

>  <SCORE.INTER.ROT>
0

>  <SCORE.INTER.SOLV>
11.5338

>  <SCORE.INTER.VDW>
-18.4023

>  <SCORE.INTER.norm>
-2.61182

>  <SCORE.INTRA>
0

>  <SCORE.INTRA.DIHEDRAL>
0

>  <SCORE.INTRA.DIHEDRAL.0>
0

>  <SCORE.INTRA.POLAR>
0

>  <SCORE.INTRA.POLAR.0>
0

>  <SCORE.INTRA.REPUL>
0

>  <SCORE.INTRA.REPUL.0>
0

>  <SCORE.INTRA.SOLV>
0

>  <SCORE.INTRA.SOLV.lig_0>
-13.7928

>  <SCORE.INTRA.VDW>
0

>  <SCORE.INTRA.VDW.0>
0

>  <SCORE.INTRA.norm>
0

>  <SCORE.RESTR>
0

>  <SCORE.RESTR.CAVITY>
0

>  <SCORE.RESTR.norm>
0

>  <SCORE.SYSTEM>
0

>  <SCORE.SYSTEM.CONST>
0

>  <SCORE.SYSTEM.DIHEDRAL>
0

>  <SCORE.SYSTEM.SOLV>
0

>  <SCORE.SYSTEM.norm>
0

>  <SCORE.heavy>
10

>  <SCORE.norm>
-2.61182

>  <RMSD>
0.196

$$$$
1u8d_lig
 OpenBabel11021811413D
libRbt.so/2013.1/901 2013/11/27
 10 11  0  0  0  0  0  0  0  0999 V2000
   11.8348   10.5546    9.1697 N   0  0  0  0  0  0  0  0  0  0  0  0
   11.5829   11.9216    9.3768 C   0  0  0  0  0  0  0  0  0  0  0  0
   11.2453   12.7800    8.3809 N   0  0  0  0  0  0  0  0  0  0  0  0
   11.1755   12.1792    7.1732 C   0  0  0  0  0  0  0  0  0  0  0  0
   11.4416   10.7030    6.8837 C   0  0  0  0  0  0  0  0  0  0  0  0
   11.7892    9.8570    7.9481 C   0  0  0  0  0  0  0  0  0  0  0  0
   12.0370    8.6589    7.9466 O   0  0  0  0  0  0  0  0  0  0  0  0
   11.2633   10.5275    5.5388 N   0  0  0  0  0  0  0  0  0  0  0  0
   10.9101   11.7446    5.0091 C   0  0  0  0  0  0  0  0  0  0  0  0
   10.8488   12.7586    5.9612 N   0  0  0  0  0  0  0  0  0  0  0  0
  1  2  1  0  0  0  0
  1  6  1  0  0  0  0
  2  3  2  0  0  0  0
  3  4  1  0  0  0  0
  4  5  2  0  0  0  0
  4 10  1  0  0  0  0
  5  6  1  0  0  0  0
  5  8  1  0  0  0  0
  6  7  2  0  0  0  0
  8  9  1  0  0  0  0
  9 10  2  0  0  0  0
M  END
>  <CHROM.1>
11.42208982,11.13282574,7.35015420,0.32227500,-1.31110791,0.91669778

>  <Name>
1u8d_lig

>  <RI>
0

>  <Rbt.Current_Directory>
/home/itssahil/PROJECTS/Mol_Feturizer/New_Systems/rnas/1u8d

>  <Rbt.Executable>
rbdock ($Id: //depot/dev/client3/rdock/2013.1/src/exe/rbdock.cxx#4 $)

>  <Rbt.Library>
libRbt.so (2013.1, Build901 2013/11/27)

>  <Rbt.Parameter_File>
/export/apps/rDock/src/rDock_2013.1_src/data/scripts/dock_solv.prm

>  <Rbt.Receptor>
prm/pocket_docking_6.prm

>  <SCORE>
-26.119

>  <SCORE.INTER>
-26.119

>  <SCORE.INTER.CONST>
1

>  <SCORE.INTER.POLAR>
-1.93632

>  <SCORE.INTER.ROT>
0

>  <SCORE.INTER.SOLV>
11.5198

>  <SCORE.INTER.VDW>
-18.3982

>  <SCORE.INTER.norm>
-2.6119

>  <SCORE.INTRA>
0

>  <SCORE.INTRA.DIHEDRAL>
0

>  <SCORE.INTRA.DIHEDRAL.0>
0

>  <SCORE.INTRA.POLAR>
0

>  <SCORE.INTRA.POLAR.0>
0

>  <SCORE.INTRA.REPUL>
0

>  <SCORE.INTRA.REPUL.0>
0

>  <SCORE.INTRA.SOLV>
0

>  <SCORE.INTRA.SOLV.lig_0>
-13.7928

>  <SCORE.INTRA.VDW>
0

>  <SCORE.INTRA.VDW.0>
0

>  <SCORE.INTRA.norm>
0

>  <SCORE.RESTR>
0

>  <SCORE.RESTR.CAVITY>
0

>  <SCORE.RESTR.norm>
0

>  <SCORE.SYSTEM>
0

>  <SCORE.SYSTEM.CONST>
0

>  <SCORE.SYSTEM.DIHEDRAL>
0

>  <SCORE.SYSTEM.SOLV>
0

>  <SCORE.SYSTEM.norm>
0

>  <SCORE.heavy>
10

>  <SCORE.norm>
-2.6119

>  <RMSD>
0.196

$$$$
1u8d_lig
 OpenBabel11021811413D
libRbt.so/2013.1/901 2013/11/27
 10 11  0  0  0  0  0  0  0  0999 V2000
   11.8334   10.5559    9.1655 N   0  0  0  0  0  0  0  0  0  0  0  0
   11.5783   11.9225    9.3713 C   0  0  0  0  0  0  0  0  0  0  0  0
   11.2413   12.7796    8.3741 N   0  0  0  0  0  0  0  0  0  0  0  0
   11.1754   12.1780    7.1666 C   0  0  0  0  0  0  0  0  0  0  0  0
   11.4450   10.7022    6.8785 C   0  0  0  0  0  0  0  0  0  0  0  0
   11.7919    9.8574    7.9442 C   0  0  0  0  0  0  0  0  0  0  0  0
   12.0420    8.6598    7.9439 O   0  0  0  0  0  0  0  0  0  0  0  0
   11.2701   10.5256    5.5333 N   0  0  0  0  0  0  0  0  0  0  0  0
   10.9157   11.7417    5.0022 C   0  0  0  0  0  0  0  0  0  0  0  0
   10.8503   12.7561    5.9536 N   0  0  0  0  0  0  0  0  0  0  0  0
  1  2  1  0  0  0  0
  1  6  1  0  0  0  0
  2  3  2  0  0  0  0
  3  4  1  0  0  0  0
  4  5  2  0  0  0  0
  4 10  1  0  0  0  0
  5  6  1  0  0  0  0
  5  8  1  0  0  0  0
  6  7  2  0  0  0  0
  8  9  1  0  0  0  0
  9 10  2  0  0  0  0
M  END
>  <CHROM.1>
11.42362977,11.13223278,7.34470350,0.33381168,-1.31090059,0.92727512

>  <Name>
1u8d_lig

>  <RI>
0

>  <Rbt.Current_Directory>
/home/itssahil/PROJECTS/Mol_Feturizer/New_Systems/rnas/1u8d

>  <Rbt.Executable>
rbdock ($Id: //depot/dev/client3/rdock/2013.1/src/exe/rbdock.cxx#4 $)

>  <Rbt.Library>
libRbt.so (2013.1, Build901 2013/11/27)

>  <Rbt.Parameter_File>
/export/apps/rDock/src/rDock_2013.1_src/data/scripts/dock_solv.prm

>  <Rbt.Receptor>
prm/pocket_docking_6.prm

>  <SCORE>
-26.1198

>  <SCORE.INTER>
-26.1198

>  <SCORE.INTER.CONST>
1

>  <SCORE.INTER.POLAR>
-1.93632

>  <SCORE.INTER.ROT>
0

>  <SCORE.INTER.SOLV>
11.5206

>  <SCORE.INTER.VDW>
-18.399

>  <SCORE.INTER.norm>
-2.61198

>  <SCORE.INTRA>
0

>  <SCORE.INTRA.DIHEDRAL>
0

>  <SCORE.INTRA.DIHEDRAL.0>
0

>  <SCORE.INTRA.POLAR>
0

>  <SCORE.INTRA.POLAR.0>
0

>  <SCORE.INTRA.REPUL>
0

>  <SCORE.INTRA.REPUL.0>
0

>  <SCORE.INTRA.SOLV>
0

>  <SCORE.INTRA.SOLV.lig_0>
-13.7928

>  <SCORE.INTRA.VDW>
0

>  <SCORE.INTRA.VDW.0>
0

>  <SCORE.INTRA.norm>
0

>  <SCORE.RESTR>
0

>  <SCORE.RESTR.CAVITY>
0

>  <SCORE.RESTR.norm>
0

>  <SCORE.SYSTEM>
0

>  <SCORE.SYSTEM.CONST>
0

>  <SCORE.SYSTEM.DIHEDRAL>
0

>  <SCORE.SYSTEM.SOLV>
0

>  <SCORE.SYSTEM.norm>
0

>  <SCORE.heavy>
10

>  <SCORE.norm>
-2.61198

>  <RMSD>
0.196

$$$$
1u8d_lig
 OpenBabel11021811413D
libRbt.so/2013.1/901 2013/11/27
 10 11  0  0  0  0  0  0  0  0999 V2000
   11.8405   10.5536    9.1661 N   0  0  0  0  0  0  0  0  0  0  0  0
   11.5876   11.9199    9.3766 C   0  0  0  0  0  0  0  0  0  0  0  0
   11.2452   12.7796    8.3835 N   0  0  0  0  0  0  0  0  0  0  0  0
   11.1715   12.1809    7.1750 C   0  0  0  0  0  0  0  0  0  0  0  0
   11.4382   10.7055    6.8819 C   0  0  0  0  0  0  0  0  0  0  0  0
   11.7910    9.8580    7.9434 C   0  0  0  0  0  0  0  0  0  0  0  0
   12.0402    8.6603    7.9389 O   0  0  0  0  0  0  0  0  0  0  0  0
   11.2550   10.5322    5.5374 N   0  0  0  0  0  0  0  0  0  0  0  0
   10.8983   11.7498    5.0112 C   0  0  0  0  0  0  0  0  0  0  0  0
   10.8395   12.7620    5.9654 N   0  0  0  0  0  0  0  0  0  0  0  0
  1  2  1  0  0  0  0
  1  6  1  0  0  0  0
  2  3  2  0  0  0  0
  3  4  1  0  0  0  0
  4  5  2  0  0  0  0
  4 10  1  0  0  0  0
  5  6  1  0  0  0  0
  5  8  1  0  0  0  0
  6  7  2  0  0  0  0
  8  9  1  0  0  0  0
  9 10  2  0  0  0  0
M  END
>  <CHROM.1>
11.42000678,11.13448857,7.34918815,0.31337186,-1.30779484,0.90985758

>  <Name>
1u8d_lig

>  <RI>
0

>  <Rbt.Current_Directory>
/home/itssahil/PROJECTS/Mol_Feturizer/New_Systems/rnas/1u8d

>  <Rbt.Executable>
rbdock ($Id: //depot/dev/client3/rdock/2013.1/src/exe/rbdock.cxx#4 $)

>  <Rbt.Library>
libRbt.so (2013.1, Build901 2013/11/27)

>  <Rbt.Parameter_File>
/export/apps/rDock/src/rDock_2013.1_src/data/scripts/dock_solv.prm

>  <Rbt.Receptor>
prm/pocket_docking_8.prm

>  <SCORE>
-26.1185

>  <SCORE.INTER>
-26.1185

>  <SCORE.INTER.CONST>
1

>  <SCORE.INTER.POLAR>
-1.93632

>  <SCORE.INTER.ROT>
0

>  <SCORE.INTER.SOLV>
11.5083

>  <SCORE.INTER.VDW>
-18.394

>  <SCORE.INTER.norm>
-2.61185

>  <SCORE.INTRA>
0

>  <SCORE.INTRA.DIHEDRAL>
0

>  <SCORE.INTRA.DIHEDRAL.0>
0

>  <SCORE.INTRA.POLAR>
0

>  <SCORE.INTRA.POLAR.0>
0

>  <SCORE.INTRA.REPUL>
0

>  <SCORE.INTRA.REPUL.0>
0

>  <SCORE.INTRA.SOLV>
0

>  <SCORE.INTRA.SOLV.lig_0>
-13.7928

>  <SCORE.INTRA.VDW>
0

>  <SCORE.INTRA.VDW.0>
0

>  <SCORE.INTRA.norm>
0

>  <SCORE.RESTR>
0

>  <SCORE.RESTR.CAVITY>
0

>  <SCORE.RESTR.norm>
0

>  <SCORE.SYSTEM>
0

>  <SCORE.SYSTEM.CONST>
0

>  <SCORE.SYSTEM.DIHEDRAL>
0

>  <SCORE.SYSTEM.SOLV>
0

>  <SCORE.SYSTEM.norm>
0

>  <SCORE.heavy>
10

>  <SCORE.norm>
-2.61185

>  <RMSD>
0.196

$$$$
1u8d_lig
 OpenBabel11021811413D
libRbt.so/2013.1/901 2013/11/27
 10 11  0  0  0  0  0  0  0  0999 V2000
   11.8344   10.5539    9.1698 N   0  0  0  0  0  0  0  0  0  0  0  0
   11.5846   11.9211    9.3781 C   0  0  0  0  0  0  0  0  0  0  0  0
   11.2474   12.7807    8.3830 N   0  0  0  0  0  0  0  0  0  0  0  0
   11.1757   12.1807    7.1749 C   0  0  0  0  0  0  0  0  0  0  0  0
   11.4394   10.7043    6.8843 C   0  0  0  0  0  0  0  0  0  0  0  0
   11.7867    9.8571    7.9478 C   0  0  0  0  0  0  0  0  0  0  0  0
   12.0327    8.6587    7.9454 O   0  0  0  0  0  0  0  0  0  0  0  0
   11.2597   10.5300    5.5394 N   0  0  0  0  0  0  0  0  0  0  0  0
   10.9078   11.7479    5.0108 C   0  0  0  0  0  0  0  0  0  0  0  0
   10.8488   12.7614    5.9637 N   0  0  0  0  0  0  0  0  0  0  0  0
  1  2  1  0  0  0  0
  1  6  1  0  0  0  0
  2  3  2  0  0  0  0
  3  4  1  0  0  0  0
  4  5  2  0  0  0  0
  4 10  1  0  0  0  0
  5  6  1  0  0  0  0
  5  8  1  0  0  0  0
  6  7  2  0  0  0  0
  8  9  1  0  0  0  0
  9 10  2  0  0  0  0
M  END
>  <CHROM.1>
11.42090425,11.13387818,7.35105335,0.31614977,-1.31171953,0.91141243

>  <Name>
1u8d_lig

>  <RI>
0

>  <Rbt.Current_Directory>
/home/itssahil/PROJECTS/Mol_Feturizer/New_Systems/rnas/1u8d

>  <Rbt.Executable>
rbdock ($Id: //depot/dev/client3/rdock/2013.1/src/exe/rbdock.cxx#4 $)

>  <Rbt.Library>
libRbt.so (2013.1, Build901 2013/11/27)

>  <Rbt.Parameter_File>
/export/apps/rDock/src/rDock_2013.1_src/data/scripts/dock_solv.prm

>  <Rbt.Receptor>
prm/blind_docking_100.prm

>  <SCORE>
-26.1193

>  <SCORE.INTER>
-26.1193

>  <SCORE.INTER.CONST>
1

>  <SCORE.INTER.POLAR>
-1.93632

>  <SCORE.INTER.ROT>
0

>  <SCORE.INTER.SOLV>
11.5206

>  <SCORE.INTER.VDW>
-18.3987

>  <SCORE.INTER.norm>
-2.61193

>  <SCORE.INTRA>
0

>  <SCORE.INTRA.DIHEDRAL>
0

>  <SCORE.INTRA.DIHEDRAL.0>
0

>  <SCORE.INTRA.POLAR>
0

>  <SCORE.INTRA.POLAR.0>
0

>  <SCORE.INTRA.REPUL>
0

>  <SCORE.INTRA.REPUL.0>
0

>  <SCORE.INTRA.SOLV>
0

>  <SCORE.INTRA.SOLV.lig_0>
-13.7928

>  <SCORE.INTRA.VDW>
0

>  <SCORE.INTRA.VDW.0>
0

>  <SCORE.INTRA.norm>
0

>  <SCORE.RESTR>
0

>  <SCORE.RESTR.CAVITY>
0

>  <SCORE.RESTR.norm>
0

>  <SCORE.SYSTEM>
0

>  <SCORE.SYSTEM.CONST>
0

>  <SCORE.SYSTEM.DIHEDRAL>
0

>  <SCORE.SYSTEM.SOLV>
0

>  <SCORE.SYSTEM.norm>
0

>  <SCORE.heavy>
10

>  <SCORE.norm>
-2.61193

>  <RMSD>
0.197

$$$$
1u8d_lig
 OpenBabel11021811413D
libRbt.so/2013.1/901 2013/11/27
 10 11  0  0  0  0  0  0  0  0999 V2000
   11.8454   10.5541    9.1598 N   0  0  0  0  0  0  0  0  0  0  0  0
   11.5899   11.9200    9.3699 C   0  0  0  0  0  0  0  0  0  0  0  0
   11.2451   12.7786    8.3766 N   0  0  0  0  0  0  0  0  0  0  0  0
   11.1717   12.1791    7.1684 C   0  0  0  0  0  0  0  0  0  0  0  0
   11.4413   10.7041    6.8758 C   0  0  0  0  0  0  0  0  0  0  0  0
   11.7965    9.8579    7.9376 C   0  0  0  0  0  0  0  0  0  0  0  0
   12.0481    8.6606    7.9334 O   0  0  0  0  0  0  0  0  0  0  0  0
   11.2575   10.5298    5.5315 N   0  0  0  0  0  0  0  0  0  0  0  0
   10.8979   11.7464    5.0050 C   0  0  0  0  0  0  0  0  0  0  0  0
   10.8377   12.7589    5.9587 N   0  0  0  0  0  0  0  0  0  0  0  0
  1  2  1  0  0  0  0
  1  6  1  0  0  0  0
  2  3  2  0  0  0  0
  3  4  1  0  0  0  0
  4  5  2  0  0  0  0
  4 10  1  0  0  0  0
  5  6  1  0  0  0  0
  5  8  1  0  0  0  0
  6  7  2  0  0  0  0
  8  9  1  0  0  0  0
  9 10  2  0  0  0  0
M  END
>  <CHROM.1>
11.42250812,11.13326604,7.34294690,0.31613125,-1.30577307,0.91203634

>  <Name>
1u8d_lig

>  <RI>
0

>  <Rbt.Current_Directory>
/home/itssahil/PROJECTS/Mol_Feturizer/New_Systems/rnas/1u8d

>  <Rbt.Executable>
rbdock ($Id: //depot/dev/client3/rdock/2013.1/src/exe/rbdock.cxx#4 $)

>  <Rbt.Library>
libRbt.so (2013.1, Build901 2013/11/27)

>  <Rbt.Parameter_File>
/export/apps/rDock/src/rDock_2013.1_src/data/scripts/dock_solv.prm

>  <Rbt.Receptor>
prm/blind_docking_100.prm

>  <SCORE>
-26.1191

>  <SCORE.INTER>
-26.1191

>  <SCORE.INTER.CONST>
1

>  <SCORE.INTER.POLAR>
-1.93632

>  <SCORE.INTER.ROT>
0

>  <SCORE.INTER.SOLV>
11.501

>  <SCORE.INTER.VDW>
-18.392

>  <SCORE.INTER.norm>
-2.61191

>  <SCORE.INTRA>
0

>  <SCORE.INTRA.DIHEDRAL>
0

>  <SCORE.INTRA.DIHEDRAL.0>
0

>  <SCORE.INTRA.POLAR>
0

>  <SCORE.INTRA.POLAR.0>
0

>  <SCORE.INTRA.REPUL>
0

>  <SCORE.INTRA.REPUL.0>
0

>  <SCORE.INTRA.SOLV>
0

>  <SCORE.INTRA.SOLV.lig_0>
-13.7928

>  <SCORE.INTRA.VDW>
0

>  <SCORE.INTRA.VDW.0>
0

>  <SCORE.INTRA.norm>
0

>  <SCORE.RESTR>
0

>  <SCORE.RESTR.CAVITY>
0

>  <SCORE.RESTR.norm>
0

>  <SCORE.SYSTEM>
0

>  <SCORE.SYSTEM.CONST>
0

>  <SCORE.SYSTEM.DIHEDRAL>
0

>  <SCORE.SYSTEM.SOLV>
0

>  <SCORE.SYSTEM.norm>
0

>  <SCORE.heavy>
10

>  <SCORE.norm>
-2.61191

>  <RMSD>
0.197

$$$$
1u8d_lig
 OpenBabel11021811413D
libRbt.so/2013.1/901 2013/11/27
 10 11  0  0  0  0  0  0  0  0999 V2000
   11.8506   10.5599    9.1518 N   0  0  0  0  0  0  0  0  0  0  0  0
   11.5806   11.9233    9.3597 C   0  0  0  0  0  0  0  0  0  0  0  0
   11.2374   12.7790    8.3634 N   0  0  0  0  0  0  0  0  0  0  0  0
   11.1812   12.1792    7.1544 C   0  0  0  0  0  0  0  0  0  0  0  0
   11.4670   10.7069    6.8641 C   0  0  0  0  0  0  0  0  0  0  0  0
   11.8197    9.8636    7.9290 C   0  0  0  0  0  0  0  0  0  0  0  0
   12.0823    8.6687    7.9270 O   0  0  0  0  0  0  0  0  0  0  0  0
   11.2977   10.5313    5.5181 N   0  0  0  0  0  0  0  0  0  0  0  0
   10.9320   11.7447    4.9884 C   0  0  0  0  0  0  0  0  0  0  0  0
   10.8534   12.7564    5.9417 N   0  0  0  0  0  0  0  0  0  0  0  0
  1  2  1  0  0  0  0
  1  6  1  0  0  0  0
  2  3  2  0  0  0  0
  3  4  1  0  0  0  0
  4  5  2  0  0  0  0
  4 10  1  0  0  0  0
  5  6  1  0  0  0  0
  5  8  1  0  0  0  0
  6  7  2  0  0  0  0
  8  9  1  0  0  0  0
  9 10  2  0  0  0  0
M  END
>  <CHROM.1>
11.43981068,11.13571356,7.33111915,0.36607386,-1.30407692,0.96049712

>  <Name>
1u8d_lig

>  <RI>
0

>  <Rbt.Current_Directory>
/home/itssahil/PROJECTS/Mol_Feturizer/New_Systems/rnas/1u8d

>  <Rbt.Executable>
rbdock ($Id: //depot/dev/client3/rdock/2013.1/src/exe/rbdock.cxx#4 $)

>  <Rbt.Library>
libRbt.so (2013.1, Build901 2013/11/27)

>  <Rbt.Parameter_File>
/export/apps/rDock/src/rDock_2013.1_src/data/scripts/dock_solv.prm

>  <Rbt.Receptor>
prm/blind_docking_40.prm

>  <SCORE>
-26.1354

>  <SCORE.INTER>
-26.1354

>  <SCORE.INTER.CONST>
1

>  <SCORE.INTER.POLAR>
-1.93632

>  <SCORE.INTER.ROT>
0

>  <SCORE.INTER.SOLV>
11.4929

>  <SCORE.INTER.VDW>
-18.4002

>  <SCORE.INTER.norm>
-2.61354

>  <SCORE.INTRA>
0

>  <SCORE.INTRA.DIHEDRAL>
0

>  <SCORE.INTRA.DIHEDRAL.0>
0

>  <SCORE.INTRA.POLAR>
0

>  <SCORE.INTRA.POLAR.0>
0

>  <SCORE.INTRA.REPUL>
0

>  <SCORE.INTRA.REPUL.0>
0

>  <SCORE.INTRA.SOLV>
0

>  <SCORE.INTRA.SOLV.lig_0>
-13.7928

>  <SCORE.INTRA.VDW>
0

>  <SCORE.INTRA.VDW.0>
0

>  <SCORE.INTRA.norm>
0

>  <SCORE.RESTR>
0

>  <SCORE.RESTR.CAVITY>
0

>  <SCORE.RESTR.norm>
0

>  <SCORE.SYSTEM>
0

>  <SCORE.SYSTEM.CONST>
0

>  <SCORE.SYSTEM.DIHEDRAL>
0

>  <SCORE.SYSTEM.SOLV>
0

>  <SCORE.SYSTEM.norm>
0

>  <SCORE.heavy>
10

>  <SCORE.norm>
-2.61354

>  <RMSD>
0.197

$$$$
1u8d_lig
 OpenBabel11021811413D
libRbt.so/2013.1/901 2013/11/27
 10 11  0  0  0  0  0  0  0  0999 V2000
   11.8439   10.5538    9.1613 N   0  0  0  0  0  0  0  0  0  0  0  0
   11.5890   11.9200    9.3701 C   0  0  0  0  0  0  0  0  0  0  0  0
   11.2459   12.7781    8.3758 N   0  0  0  0  0  0  0  0  0  0  0  0
   11.1736   12.1779    7.1679 C   0  0  0  0  0  0  0  0  0  0  0  0
   11.4426   10.7025    6.8767 C   0  0  0  0  0  0  0  0  0  0  0  0
   11.7960    9.8568    7.9394 C   0  0  0  0  0  0  0  0  0  0  0  0
   12.0469    8.6594    7.9364 O   0  0  0  0  0  0  0  0  0  0  0  0
   11.2603   10.5274    5.5323 N   0  0  0  0  0  0  0  0  0  0  0  0
   10.9021   11.7438    5.0045 C   0  0  0  0  0  0  0  0  0  0  0  0
   10.8413   12.7571    5.9574 N   0  0  0  0  0  0  0  0  0  0  0  0
  1  2  1  0  0  0  0
  1  6  1  0  0  0  0
  2  3  2  0  0  0  0
  3  4  1  0  0  0  0
  4  5  2  0  0  0  0
  4 10  1  0  0  0  0
  5  6  1  0  0  0  0
  5  8  1  0  0  0  0
  6  7  2  0  0  0  0
  8  9  1  0  0  0  0
  9 10  2  0  0  0  0
M  END
>  <CHROM.1>
11.42351765,11.13201277,7.34346698,0.31823632,-1.30697031,0.91337937

>  <Name>
1u8d_lig

>  <RI>
0

>  <Rbt.Current_Directory>
/home/itssahil/PROJECTS/Mol_Feturizer/New_Systems/rnas/1u8d

>  <Rbt.Executable>
rbdock ($Id: //depot/dev/client3/rdock/2013.1/src/exe/rbdock.cxx#4 $)

>  <Rbt.Library>
libRbt.so (2013.1, Build901 2013/11/27)

>  <Rbt.Parameter_File>
/export/apps/rDock/src/rDock_2013.1_src/data/scripts/dock_solv.prm

>  <Rbt.Receptor>
prm/blind_docking_40.prm

>  <SCORE>
-26.1196

>  <SCORE.INTER>
-26.1196

>  <SCORE.INTER.CONST>
1

>  <SCORE.INTER.POLAR>
-1.93632

>  <SCORE.INTER.ROT>
0

>  <SCORE.INTER.SOLV>
11.5047

>  <SCORE.INTER.VDW>
-18.3936

>  <SCORE.INTER.norm>
-2.61196

>  <SCORE.INTRA>
0

>  <SCORE.INTRA.DIHEDRAL>
0

>  <SCORE.INTRA.DIHEDRAL.0>
0

>  <SCORE.INTRA.POLAR>
0

>  <SCORE.INTRA.POLAR.0>
0

>  <SCORE.INTRA.REPUL>
0

>  <SCORE.INTRA.REPUL.0>
0

>  <SCORE.INTRA.SOLV>
0

>  <SCORE.INTRA.SOLV.lig_0>
-13.7928

>  <SCORE.INTRA.VDW>
0

>  <SCORE.INTRA.VDW.0>
0

>  <SCORE.INTRA.norm>
0

>  <SCORE.RESTR>
0

>  <SCORE.RESTR.CAVITY>
0

>  <SCORE.RESTR.norm>
0

>  <SCORE.SYSTEM>
0

>  <SCORE.SYSTEM.CONST>
0

>  <SCORE.SYSTEM.DIHEDRAL>
0

>  <SCORE.SYSTEM.SOLV>
0

>  <SCORE.SYSTEM.norm>
0

>  <SCORE.heavy>
10

>  <SCORE.norm>
-2.61196

>  <RMSD>
0.197

$$$$
1u8d_lig
 OpenBabel11021811413D
libRbt.so/2013.1/901 2013/11/27
 10 11  0  0  0  0  0  0  0  0999 V2000
   11.6637   10.5059    9.2589 N   0  0  0  0  0  0  0  0  0  0  0  0
   11.3347   11.8540    9.4811 C   0  0  0  0  0  0  0  0  0  0  0  0
   11.0420   12.7275    8.4840 N   0  0  0  0  0  0  0  0  0  0  0  0
   11.0984   12.1615    7.2589 C   0  0  0  0  0  0  0  0  0  0  0  0
   11.4530   10.7074    6.9529 C   0  0  0  0  0  0  0  0  0  0  0  0
   11.7496    9.8446    8.0193 C   0  0  0  0  0  0  0  0  0  0  0  0
   12.0499    8.6587    8.0062 O   0  0  0  0  0  0  0  0  0  0  0  0
   11.3937   10.5657    5.5936 N   0  0  0  0  0  0  0  0  0  0  0  0
   11.0310   11.7824    5.0694 C   0  0  0  0  0  0  0  0  0  0  0  0
   10.8467   12.7633    6.0401 N   0  0  0  0  0  0  0  0  0  0  0  0
  1  2  1  0  0  0  0
  1  6  1  0  0  0  0
  2  3  2  0  0  0  0
  3  4  1  0  0  0  0
  4  5  2  0  0  0  0
  4 10  1  0  0  0  0
  5  6  1  0  0  0  0
  5  8  1  0  0  0  0
  6  7  2  0  0  0  0
  8  9  1  0  0  0  0
  9 10  2  0  0  0  0
M  END
>  <CHROM.1>
11.37612726,11.12151004,7.42755395,0.68696835,-1.30910626,1.29816615

>  <Name>
1u8d_lig

>  <RI>
0

>  <Rbt.Current_Directory>
/home/itssahil/PROJECTS/Mol_Feturizer/New_Systems/rnas/1u8d

>  <Rbt.Executable>
rbdock ($Id: //depot/dev/client3/rdock/2013.1/src/exe/rbdock.cxx#4 $)

>  <Rbt.Library>
libRbt.so (2013.1, Build901 2013/11/27)

>  <Rbt.Parameter_File>
/export/apps/rDock/src/rDock_2013.1_src/data/scripts/dock_solv.prm

>  <Rbt.Receptor>
prm/blind_docking_60.prm

>  <SCORE>
-25.8248

>  <SCORE.INTER>
-25.8248

>  <SCORE.INTER.CONST>
1

>  <SCORE.INTER.POLAR>
-1.93632

>  <SCORE.INTER.ROT>
0

>  <SCORE.INTER.SOLV>
11.6379

>  <SCORE.INTER.VDW>
-18.2414

>  <SCORE.INTER.norm>
-2.58248

>  <SCORE.INTRA>
0

>  <SCORE.INTRA.DIHEDRAL>
0

>  <SCORE.INTRA.DIHEDRAL.0>
0

>  <SCORE.INTRA.POLAR>
0

>  <SCORE.INTRA.POLAR.0>
0

>  <SCORE.INTRA.REPUL>
0

>  <SCORE.INTRA.REPUL.0>
0

>  <SCORE.INTRA.SOLV>
0

>  <SCORE.INTRA.SOLV.lig_0>
-13.7928

>  <SCORE.INTRA.VDW>
0

>  <SCORE.INTRA.VDW.0>
0

>  <SCORE.INTRA.norm>
0

>  <SCORE.RESTR>
0

>  <SCORE.RESTR.CAVITY>
0

>  <SCORE.RESTR.norm>
0

>  <SCORE.SYSTEM>
0

>  <SCORE.SYSTEM.CONST>
0

>  <SCORE.SYSTEM.DIHEDRAL>
0

>  <SCORE.SYSTEM.SOLV>
0

>  <SCORE.SYSTEM.norm>
0

>  <SCORE.heavy>
10

>  <SCORE.norm>
-2.58248

>  <RMSD>
0.197

$$$$
1u8d_lig
 OpenBabel11021811413D
libRbt.so/2013.1/901 2013/11/27
 10 11  0  0  0  0  0  0  0  0999 V2000
   11.8359   10.5543    9.1692 N   0  0  0  0  0  0  0  0  0  0  0  0
   11.5853   11.9212    9.3784 C   0  0  0  0  0  0  0  0  0  0  0  0
   11.2471   12.7812    8.3840 N   0  0  0  0  0  0  0  0  0  0  0  0
   11.1751   12.1820    7.1756 C   0  0  0  0  0  0  0  0  0  0  0  0
   11.4397   10.7060    6.8839 C   0  0  0  0  0  0  0  0  0  0  0  0
   11.7881    9.8583    7.9467 C   0  0  0  0  0  0  0  0  0  0  0  0
   12.0349    8.6600    7.9434 O   0  0  0  0  0  0  0  0  0  0  0  0
   11.2594   10.5323    5.5390 N   0  0  0  0  0  0  0  0  0  0  0  0
   10.9064   11.7504    5.0114 C   0  0  0  0  0  0  0  0  0  0  0  0
   10.8472   12.7632    5.9649 N   0  0  0  0  0  0  0  0  0  0  0  0
  1  2  1  0  0  0  0
  1  6  1  0  0  0  0
  2  3  2  0  0  0  0
  3  4  1  0  0  0  0
  4  5  2  0  0  0  0
  4 10  1  0  0  0  0
  5  6  1  0  0  0  0
  5  8  1  0  0  0  0
  6  7  2  0  0  0  0
  8  9  1  0  0  0  0
  9 10  2  0  0  0  0
M  END
>  <CHROM.1>
11.42112342,11.13518327,7.35095273,0.31619133,-1.31088277,0.91209945

>  <Name>
1u8d_lig

>  <RI>
0

>  <Rbt.Current_Directory>
/home/itssahil/PROJECTS/Mol_Feturizer/New_Systems/rnas/1u8d

>  <Rbt.Executable>
rbdock ($Id: //depot/dev/client3/rdock/2013.1/src/exe/rbdock.cxx#4 $)

>  <Rbt.Library>
libRbt.so (2013.1, Build901 2013/11/27)

>  <Rbt.Parameter_File>
/export/apps/rDock/src/rDock_2013.1_src/data/scripts/dock_solv.prm

>  <Rbt.Receptor>
prm/blind_docking_80.prm

>  <SCORE>
-26.118

>  <SCORE.INTER>
-26.118

>  <SCORE.INTER.CONST>
1

>  <SCORE.INTER.POLAR>
-1.93632

>  <SCORE.INTER.ROT>
0

>  <SCORE.INTER.SOLV>
11.5175

>  <SCORE.INTER.VDW>
-18.3968

>  <SCORE.INTER.norm>
-2.6118

>  <SCORE.INTRA>
0

>  <SCORE.INTRA.DIHEDRAL>
0

>  <SCORE.INTRA.DIHEDRAL.0>
0

>  <SCORE.INTRA.POLAR>
0

>  <SCORE.INTRA.POLAR.0>
0

>  <SCORE.INTRA.REPUL>
0

>  <SCORE.INTRA.REPUL.0>
0

>  <SCORE.INTRA.SOLV>
0

>  <SCORE.INTRA.SOLV.lig_0>
-13.7928

>  <SCORE.INTRA.VDW>
0

>  <SCORE.INTRA.VDW.0>
0

>  <SCORE.INTRA.norm>
0

>  <SCORE.RESTR>
0

>  <SCORE.RESTR.CAVITY>
0

>  <SCORE.RESTR.norm>
0

>  <SCORE.SYSTEM>
0

>  <SCORE.SYSTEM.CONST>
0

>  <SCORE.SYSTEM.DIHEDRAL>
0

>  <SCORE.SYSTEM.SOLV>
0

>  <SCORE.SYSTEM.norm>
0

>  <SCORE.heavy>
10

>  <SCORE.norm>
-2.6118

>  <RMSD>
0.197

$$$$
1u8d_lig
 OpenBabel11021811413D
libRbt.so/2013.1/901 2013/11/27
 10 11  0  0  0  0  0  0  0  0999 V2000
   11.8508   10.5543    9.1599 N   0  0  0  0  0  0  0  0  0  0  0  0
   11.5968   11.9204    9.3702 C   0  0  0  0  0  0  0  0  0  0  0  0
   11.2495   12.7787    8.3775 N   0  0  0  0  0  0  0  0  0  0  0  0
   11.1723   12.1788    7.1698 C   0  0  0  0  0  0  0  0  0  0  0  0
   11.4401   10.7036    6.8771 C   0  0  0  0  0  0  0  0  0  0  0  0
   11.7979    9.8575    7.9381 C   0  0  0  0  0  0  0  0  0  0  0  0
   12.0488    8.6601    7.9337 O   0  0  0  0  0  0  0  0  0  0  0  0
   11.2523   10.5288    5.5334 N   0  0  0  0  0  0  0  0  0  0  0  0
   10.8919   11.7453    5.0074 C   0  0  0  0  0  0  0  0  0  0  0  0
   10.8350   12.7584    5.9609 N   0  0  0  0  0  0  0  0  0  0  0  0
  1  2  1  0  0  0  0
  1  6  1  0  0  0  0
  2  3  2  0  0  0  0
  3  4  1  0  0  0  0
  4  5  2  0  0  0  0
  4 10  1  0  0  0  0
  5  6  1  0  0  0  0
  5  8  1  0  0  0  0
  6  7  2  0  0  0  0
  8  9  1  0  0  0  0
  9 10  2  0  0  0  0
M  END
>  <CHROM.1>
11.42295658,11.13292277,7.34405471,0.30590456,-1.30441778,0.90174749

>  <Name>
1u8d_lig

>  <RI>
0

>  <Rbt.Current_Directory>
/home/itssahil/PROJECTS/Mol_Feturizer/New_Systems/rnas/1u8d

>  <Rbt.Executable>
rbdock ($Id: //depot/dev/client3/rdock/2013.1/src/exe/rbdock.cxx#4 $)

>  <Rbt.Library>
libRbt.so (2013.1, Build901 2013/11/27)

>  <Rbt.Parameter_File>
/export/apps/rDock/src/rDock_2013.1_src/data/scripts/dock_solv.prm

>  <Rbt.Receptor>
prm/pocket_docking_4.prm

>  <SCORE>
-26.1145

>  <SCORE.INTER>
-26.1145

>  <SCORE.INTER.CONST>
1

>  <SCORE.INTER.POLAR>
-1.93632

>  <SCORE.INTER.ROT>
0

>  <SCORE.INTER.SOLV>
11.495

>  <SCORE.INTER.VDW>
-18.3869

>  <SCORE.INTER.norm>
-2.61145

>  <SCORE.INTRA>
0

>  <SCORE.INTRA.DIHEDRAL>
0

>  <SCORE.INTRA.DIHEDRAL.0>
0

>  <SCORE.INTRA.POLAR>
0

>  <SCORE.INTRA.POLAR.0>
0

>  <SCORE.INTRA.REPUL>
0

>  <SCORE.INTRA.REPUL.0>
0

>  <SCORE.INTRA.SOLV>
0

>  <SCORE.INTRA.SOLV.lig_0>
-13.7928

>  <SCORE.INTRA.VDW>
0

>  <SCORE.INTRA.VDW.0>
0

>  <SCORE.INTRA.norm>
0

>  <SCORE.RESTR>
0

>  <SCORE.RESTR.CAVITY>
0

>  <SCORE.RESTR.norm>
0

>  <SCORE.SYSTEM>
0

>  <SCORE.SYSTEM.CONST>
0

>  <SCORE.SYSTEM.DIHEDRAL>
0

>  <SCORE.SYSTEM.SOLV>
0

>  <SCORE.SYSTEM.norm>
0

>  <SCORE.heavy>
10

>  <SCORE.norm>
-2.61145

>  <RMSD>
0.197

$$$$
1u8d_lig
 OpenBabel11021811413D
libRbt.so/2013.1/901 2013/11/27
 10 11  0  0  0  0  0  0  0  0999 V2000
   11.8029   10.5136    9.1859 N   0  0  0  0  0  0  0  0  0  0  0  0
   11.5549   11.8812    9.3935 C   0  0  0  0  0  0  0  0  0  0  0  0
   11.2258   12.7422    8.3969 N   0  0  0  0  0  0  0  0  0  0  0  0
   11.1602   12.1433    7.1880 C   0  0  0  0  0  0  0  0  0  0  0  0
   11.4223   10.6665    6.8980 C   0  0  0  0  0  0  0  0  0  0  0  0
   11.7612    9.8177    7.9631 C   0  0  0  0  0  0  0  0  0  0  0  0
   12.0045    8.6188    7.9614 O   0  0  0  0  0  0  0  0  0  0  0  0
   11.2505   10.4934    5.5520 N   0  0  0  0  0  0  0  0  0  0  0  0
   10.9046   11.7125    5.0220 C   0  0  0  0  0  0  0  0  0  0  0  0
   10.8421   12.7255    5.9752 N   0  0  0  0  0  0  0  0  0  0  0  0
  1  2  1  0  0  0  0
  1  6  1  0  0  0  0
  2  3  2  0  0  0  0
  3  4  1  0  0  0  0
  4  5  2  0  0  0  0
  4 10  1  0  0  0  0
  5  6  1  0  0  0  0
  5  8  1  0  0  0  0
  6  7  2  0  0  0  0
  8  9  1  0  0  0  0
  9 10  2  0  0  0  0
M  END
>  <CHROM.1>
11.40193753,11.09572981,7.36495186,0.33002973,-1.31726696,0.92550930

>  <Name>
1u8d_lig

>  <RI>
0

>  <Rbt.Current_Directory>
/home/itssahil/PROJECTS/Mol_Feturizer/New_Systems/rnas/1u8d

>  <Rbt.Executable>
rbdock ($Id: //depot/dev/client3/rdock/2013.1/src/exe/rbdock.cxx#4 $)

>  <Rbt.Library>
libRbt.so (2013.1, Build901 2013/11/27)

>  <Rbt.Parameter_File>
/export/apps/rDock/src/rDock_2013.1_src/data/scripts/dock_solv.prm

>  <Rbt.Receptor>
prm/pocket_docking_4.prm

>  <SCORE>
-26.0988

>  <SCORE.INTER>
-26.0988

>  <SCORE.INTER.CONST>
1

>  <SCORE.INTER.POLAR>
-1.93632

>  <SCORE.INTER.ROT>
0

>  <SCORE.INTER.SOLV>
11.5556

>  <SCORE.INTER.VDW>
-18.3967

>  <SCORE.INTER.norm>
-2.60988

>  <SCORE.INTRA>
0

>  <SCORE.INTRA.DIHEDRAL>
0

>  <SCORE.INTRA.DIHEDRAL.0>
0

>  <SCORE.INTRA.POLAR>
0

>  <SCORE.INTRA.POLAR.0>
0

>  <SCORE.INTRA.REPUL>
0

>  <SCORE.INTRA.REPUL.0>
0

>  <SCORE.INTRA.SOLV>
0

>  <SCORE.INTRA.SOLV.lig_0>
-13.7928

>  <SCORE.INTRA.VDW>
0

>  <SCORE.INTRA.VDW.0>
0

>  <SCORE.INTRA.norm>
0

>  <SCORE.RESTR>
0

>  <SCORE.RESTR.CAVITY>
0

>  <SCORE.RESTR.norm>
0

>  <SCORE.SYSTEM>
0

>  <SCORE.SYSTEM.CONST>
0

>  <SCORE.SYSTEM.DIHEDRAL>
0

>  <SCORE.SYSTEM.SOLV>
0

>  <SCORE.SYSTEM.norm>
0

>  <SCORE.heavy>
10

>  <SCORE.norm>
-2.60988

>  <RMSD>
0.197

$$$$
1u8d_lig
 OpenBabel11021811413D
libRbt.so/2013.1/901 2013/11/27
 10 11  0  0  0  0  0  0  0  0999 V2000
   11.8284   10.5542    9.1752 N   0  0  0  0  0  0  0  0  0  0  0  0
   11.5805   11.9219    9.3822 C   0  0  0  0  0  0  0  0  0  0  0  0
   11.2479   12.7817    8.3858 N   0  0  0  0  0  0  0  0  0  0  0  0
   11.1787   12.1815    7.1777 C   0  0  0  0  0  0  0  0  0  0  0  0
   11.4405   10.7045    6.8884 C   0  0  0  0  0  0  0  0  0  0  0  0
   11.7831    9.8570    7.9533 C   0  0  0  0  0  0  0  0  0  0  0  0
   12.0269    8.6581    7.9521 O   0  0  0  0  0  0  0  0  0  0  0  0
   11.2645   10.5299    5.5431 N   0  0  0  0  0  0  0  0  0  0  0  0
   10.9164   11.7483    5.0130 C   0  0  0  0  0  0  0  0  0  0  0  0
   10.8565   12.7622    5.9653 N   0  0  0  0  0  0  0  0  0  0  0  0
  1  2  1  0  0  0  0
  1  6  1  0  0  0  0
  2  3  2  0  0  0  0
  3  4  1  0  0  0  0
  4  5  2  0  0  0  0
  4 10  1  0  0  0  0
  5  6  1  0  0  0  0
  5  8  1  0  0  0  0
  6  7  2  0  0  0  0
  8  9  1  0  0  0  0
  9 10  2  0  0  0  0
M  END
>  <CHROM.1>
11.42142329,11.13422007,7.35497385,0.32099873,-1.31499628,0.91571635

>  <Name>
1u8d_lig

>  <RI>
0

>  <Rbt.Current_Directory>
/home/itssahil/PROJECTS/Mol_Feturizer/New_Systems/rnas/1u8d

>  <Rbt.Executable>
rbdock ($Id: //depot/dev/client3/rdock/2013.1/src/exe/rbdock.cxx#4 $)

>  <Rbt.Library>
libRbt.so (2013.1, Build901 2013/11/27)

>  <Rbt.Parameter_File>
/export/apps/rDock/src/rDock_2013.1_src/data/scripts/dock_solv.prm

>  <Rbt.Receptor>
prm/pocket_docking_6.prm

>  <SCORE>
-26.1176

>  <SCORE.INTER>
-26.1176

>  <SCORE.INTER.CONST>
1

>  <SCORE.INTER.POLAR>
-1.93632

>  <SCORE.INTER.ROT>
0

>  <SCORE.INTER.SOLV>
11.5311

>  <SCORE.INTER.VDW>
-18.401

>  <SCORE.INTER.norm>
-2.61176

>  <SCORE.INTRA>
0

>  <SCORE.INTRA.DIHEDRAL>
0

>  <SCORE.INTRA.DIHEDRAL.0>
0

>  <SCORE.INTRA.POLAR>
0

>  <SCORE.INTRA.POLAR.0>
0

>  <SCORE.INTRA.REPUL>
0

>  <SCORE.INTRA.REPUL.0>
0

>  <SCORE.INTRA.SOLV>
0

>  <SCORE.INTRA.SOLV.lig_0>
-13.7928

>  <SCORE.INTRA.VDW>
0

>  <SCORE.INTRA.VDW.0>
0

>  <SCORE.INTRA.norm>
0

>  <SCORE.RESTR>
0

>  <SCORE.RESTR.CAVITY>
0

>  <SCORE.RESTR.norm>
0

>  <SCORE.SYSTEM>
0

>  <SCORE.SYSTEM.CONST>
0

>  <SCORE.SYSTEM.DIHEDRAL>
0

>  <SCORE.SYSTEM.SOLV>
0

>  <SCORE.SYSTEM.norm>
0

>  <SCORE.heavy>
10

>  <SCORE.norm>
-2.61176

>  <RMSD>
0.197

$$$$
1u8d_lig
 OpenBabel11021811413D
libRbt.so/2013.1/901 2013/11/27
 10 11  0  0  0  0  0  0  0  0999 V2000
   11.8227   10.5537    9.1829 N   0  0  0  0  0  0  0  0  0  0  0  0
   11.5790   11.9220    9.3907 C   0  0  0  0  0  0  0  0  0  0  0  0
   11.2481   12.7833    8.3950 N   0  0  0  0  0  0  0  0  0  0  0  0
   11.1762   12.1838    7.1867 C   0  0  0  0  0  0  0  0  0  0  0  0
   11.4335   10.7062    6.8964 C   0  0  0  0  0  0  0  0  0  0  0  0
   11.7744    9.8572    7.9607 C   0  0  0  0  0  0  0  0  0  0  0  0
   12.0146    8.6576    7.9587 O   0  0  0  0  0  0  0  0  0  0  0  0
   11.2559   10.5329    5.5512 N   0  0  0  0  0  0  0  0  0  0  0  0
   10.9110   11.7525    5.0220 C   0  0  0  0  0  0  0  0  0  0  0  0
   10.8548   12.7662    5.9748 N   0  0  0  0  0  0  0  0  0  0  0  0
  1  2  1  0  0  0  0
  1  6  1  0  0  0  0
  2  3  2  0  0  0  0
  3  4  1  0  0  0  0
  4  5  2  0  0  0  0
  4 10  1  0  0  0  0
  5  6  1  0  0  0  0
  5  8  1  0  0  0  0
  6  7  2  0  0  0  0
  8  9  1  0  0  0  0
  9 10  2  0  0  0  0
M  END
>  <CHROM.1>
11.41600528,11.13579045,7.36324317,0.31141613,-1.31685775,0.90693953

>  <Name>
1u8d_lig

>  <RI>
0

>  <Rbt.Current_Directory>
/home/itssahil/PROJECTS/Mol_Feturizer/New_Systems/rnas/1u8d

>  <Rbt.Executable>
rbdock ($Id: //depot/dev/client3/rdock/2013.1/src/exe/rbdock.cxx#4 $)

>  <Rbt.Library>
libRbt.so (2013.1, Build901 2013/11/27)

>  <Rbt.Parameter_File>
/export/apps/rDock/src/rDock_2013.1_src/data/scripts/dock_solv.prm

>  <Rbt.Receptor>
prm/pocket_docking_6.prm

>  <SCORE>
-26.115

>  <SCORE.INTER>
-26.115

>  <SCORE.INTER.CONST>
1

>  <SCORE.INTER.POLAR>
-1.93632

>  <SCORE.INTER.ROT>
0

>  <SCORE.INTER.SOLV>
11.5407

>  <SCORE.INTER.VDW>
-18.4025

>  <SCORE.INTER.norm>
-2.6115

>  <SCORE.INTRA>
0

>  <SCORE.INTRA.DIHEDRAL>
0

>  <SCORE.INTRA.DIHEDRAL.0>
0

>  <SCORE.INTRA.POLAR>
0

>  <SCORE.INTRA.POLAR.0>
0

>  <SCORE.INTRA.REPUL>
0

>  <SCORE.INTRA.REPUL.0>
0

>  <SCORE.INTRA.SOLV>
0

>  <SCORE.INTRA.SOLV.lig_0>
-13.7928

>  <SCORE.INTRA.VDW>
0

>  <SCORE.INTRA.VDW.0>
0

>  <SCORE.INTRA.norm>
0

>  <SCORE.RESTR>
0

>  <SCORE.RESTR.CAVITY>
0

>  <SCORE.RESTR.norm>
0

>  <SCORE.SYSTEM>
0

>  <SCORE.SYSTEM.CONST>
0

>  <SCORE.SYSTEM.DIHEDRAL>
0

>  <SCORE.SYSTEM.SOLV>
0

>  <SCORE.SYSTEM.norm>
0

>  <SCORE.heavy>
10

>  <SCORE.norm>
-2.6115

>  <RMSD>
0.197

$$$$
1u8d_lig
 OpenBabel11021811413D
libRbt.so/2013.1/901 2013/11/27
 10 11  0  0  0  0  0  0  0  0999 V2000
   11.8221   10.5526    9.1854 N   0  0  0  0  0  0  0  0  0  0  0  0
   11.5792   11.9210    9.3937 C   0  0  0  0  0  0  0  0  0  0  0  0
   11.2494   12.7829    8.3981 N   0  0  0  0  0  0  0  0  0  0  0  0
   11.1777   12.1840    7.1896 C   0  0  0  0  0  0  0  0  0  0  0  0
   11.4341   10.7063    6.8988 C   0  0  0  0  0  0  0  0  0  0  0  0
   11.7740    9.8567    7.9629 C   0  0  0  0  0  0  0  0  0  0  0  0
   12.0134    8.6569    7.9604 O   0  0  0  0  0  0  0  0  0  0  0  0
   11.2571   10.5336    5.5534 N   0  0  0  0  0  0  0  0  0  0  0  0
   10.9132   11.7537    5.0245 C   0  0  0  0  0  0  0  0  0  0  0  0
   10.8572   12.7670    5.9778 N   0  0  0  0  0  0  0  0  0  0  0  0
  1  2  1  0  0  0  0
  1  6  1  0  0  0  0
  2  3  2  0  0  0  0
  3  4  1  0  0  0  0
  4  5  2  0  0  0  0
  4 10  1  0  0  0  0
  5  6  1  0  0  0  0
  5  8  1  0  0  0  0
  6  7  2  0  0  0  0
  8  9  1  0  0  0  0
  9 10  2  0  0  0  0
M  END
>  <CHROM.1>
11.41670631,11.13571455,7.36579220,0.31133844,-1.31766650,0.90728786

>  <Name>
1u8d_lig

>  <RI>
0

>  <Rbt.Current_Directory>
/home/itssahil/PROJECTS/Mol_Feturizer/New_Systems/rnas/1u8d

>  <Rbt.Executable>
rbdock ($Id: //depot/dev/client3/rdock/2013.1/src/exe/rbdock.cxx#4 $)

>  <Rbt.Library>
libRbt.so (2013.1, Build901 2013/11/27)

>  <Rbt.Parameter_File>
/export/apps/rDock/src/rDock_2013.1_src/data/scripts/dock_solv.prm

>  <Rbt.Receptor>
prm/pocket_docking_8.prm

>  <SCORE>
-26.1134

>  <SCORE.INTER>
-26.1134

>  <SCORE.INTER.CONST>
1

>  <SCORE.INTER.POLAR>
-1.93632

>  <SCORE.INTER.ROT>
0

>  <SCORE.INTER.SOLV>
11.5426

>  <SCORE.INTER.VDW>
-18.4021

>  <SCORE.INTER.norm>
-2.61134

>  <SCORE.INTRA>
0

>  <SCORE.INTRA.DIHEDRAL>
0

>  <SCORE.INTRA.DIHEDRAL.0>
0

>  <SCORE.INTRA.POLAR>
0

>  <SCORE.INTRA.POLAR.0>
0

>  <SCORE.INTRA.REPUL>
0

>  <SCORE.INTRA.REPUL.0>
0

>  <SCORE.INTRA.SOLV>
0

>  <SCORE.INTRA.SOLV.lig_0>
-13.7928

>  <SCORE.INTRA.VDW>
0

>  <SCORE.INTRA.VDW.0>
0

>  <SCORE.INTRA.norm>
0

>  <SCORE.RESTR>
0

>  <SCORE.RESTR.CAVITY>
0

>  <SCORE.RESTR.norm>
0

>  <SCORE.SYSTEM>
0

>  <SCORE.SYSTEM.CONST>
0

>  <SCORE.SYSTEM.DIHEDRAL>
0

>  <SCORE.SYSTEM.SOLV>
0

>  <SCORE.SYSTEM.norm>
0

>  <SCORE.heavy>
10

>  <SCORE.norm>
-2.61134

>  <RMSD>
0.197

$$$$
1u8d_lig
 OpenBabel11021811413D
libRbt.so/2013.1/901 2013/11/27
 10 11  0  0  0  0  0  0  0  0999 V2000
   11.8397   10.5624    9.1527 N   0  0  0  0  0  0  0  0  0  0  0  0
   11.5696   11.9258    9.3608 C   0  0  0  0  0  0  0  0  0  0  0  0
   11.2304   12.7824    8.3639 N   0  0  0  0  0  0  0  0  0  0  0  0
   11.1781   12.1836    7.1542 C   0  0  0  0  0  0  0  0  0  0  0  0
   11.4643   10.7114    6.8638 C   0  0  0  0  0  0  0  0  0  0  0  0
   11.8129    9.8671    7.9292 C   0  0  0  0  0  0  0  0  0  0  0  0
   12.0749    8.6720    7.9273 O   0  0  0  0  0  0  0  0  0  0  0  0
   11.2996   10.5369    5.5170 N   0  0  0  0  0  0  0  0  0  0  0  0
   10.9364   11.7509    4.9870 C   0  0  0  0  0  0  0  0  0  0  0  0
   10.8549   12.7619    5.9409 N   0  0  0  0  0  0  0  0  0  0  0  0
  1  2  1  0  0  0  0
  1  6  1  0  0  0  0
  2  3  2  0  0  0  0
  3  4  1  0  0  0  0
  4  5  2  0  0  0  0
  4 10  1  0  0  0  0
  5  6  1  0  0  0  0
  5  8  1  0  0  0  0
  6  7  2  0  0  0  0
  8  9  1  0  0  0  0
  9 10  2  0  0  0  0
M  END
>  <CHROM.1>
11.43563142,11.13983811,7.33103031,0.37611683,-1.30646227,0.97096701

>  <Name>
1u8d_lig

>  <RI>
0

>  <Rbt.Current_Directory>
/home/itssahil/PROJECTS/Mol_Feturizer/New_Systems/rnas/1u8d

>  <Rbt.Executable>
rbdock ($Id: //depot/dev/client3/rdock/2013.1/src/exe/rbdock.cxx#4 $)

>  <Rbt.Library>
libRbt.so (2013.1, Build901 2013/11/27)

>  <Rbt.Parameter_File>
/export/apps/rDock/src/rDock_2013.1_src/data/scripts/dock_solv.prm

>  <Rbt.Receptor>
prm/pocket_docking_8.prm

>  <SCORE>
-26.136

>  <SCORE.INTER>
-26.136

>  <SCORE.INTER.CONST>
1

>  <SCORE.INTER.POLAR>
-1.93632

>  <SCORE.INTER.ROT>
0

>  <SCORE.INTER.SOLV>
11.5053

>  <SCORE.INTER.VDW>
-18.4047

>  <SCORE.INTER.norm>
-2.6136

>  <SCORE.INTRA>
0

>  <SCORE.INTRA.DIHEDRAL>
0

>  <SCORE.INTRA.DIHEDRAL.0>
0

>  <SCORE.INTRA.POLAR>
0

>  <SCORE.INTRA.POLAR.0>
0

>  <SCORE.INTRA.REPUL>
0

>  <SCORE.INTRA.REPUL.0>
0

>  <SCORE.INTRA.SOLV>
0

>  <SCORE.INTRA.SOLV.lig_0>
-13.7928

>  <SCORE.INTRA.VDW>
0

>  <SCORE.INTRA.VDW.0>
0

>  <SCORE.INTRA.norm>
0

>  <SCORE.RESTR>
0

>  <SCORE.RESTR.CAVITY>
0

>  <SCORE.RESTR.norm>
0

>  <SCORE.SYSTEM>
0

>  <SCORE.SYSTEM.CONST>
0

>  <SCORE.SYSTEM.DIHEDRAL>
0

>  <SCORE.SYSTEM.SOLV>
0

>  <SCORE.SYSTEM.norm>
0

>  <SCORE.heavy>
10

>  <SCORE.norm>
-2.6136

>  <RMSD>
0.197

$$$$
1u8d_lig
 OpenBabel11021811413D
libRbt.so/2013.1/901 2013/11/27
 10 11  0  0  0  0  0  0  0  0999 V2000
   11.8581   10.5588    9.1512 N   0  0  0  0  0  0  0  0  0  0  0  0
   11.5886   11.9222    9.3595 C   0  0  0  0  0  0  0  0  0  0  0  0
   11.2431   12.7777    8.3638 N   0  0  0  0  0  0  0  0  0  0  0  0
   11.1842   12.1778    7.1551 C   0  0  0  0  0  0  0  0  0  0  0  0
   11.4695   10.7054    6.8643 C   0  0  0  0  0  0  0  0  0  0  0  0
   11.8246    9.8623    7.9285 C   0  0  0  0  0  0  0  0  0  0  0  0
   12.0873    8.6674    7.9261 O   0  0  0  0  0  0  0  0  0  0  0  0
   11.2971   10.5296    5.5187 N   0  0  0  0  0  0  0  0  0  0  0  0
   10.9302   11.7430    4.9897 C   0  0  0  0  0  0  0  0  0  0  0  0
   10.8537   12.7548    5.9430 N   0  0  0  0  0  0  0  0  0  0  0  0
  1  2  1  0  0  0  0
  1  6  1  0  0  0  0
  2  3  2  0  0  0  0
  3  4  1  0  0  0  0
  4  5  2  0  0  0  0
  4 10  1  0  0  0  0
  5  6  1  0  0  0  0
  5  8  1  0  0  0  0
  6  7  2  0  0  0  0
  8  9  1  0  0  0  0
  9 10  2  0  0  0  0
M  END
>  <CHROM.1>
11.44329230,11.13432484,7.33133105,0.35929576,-1.30273653,0.95381407

>  <Name>
1u8d_lig

>  <RI>
0

>  <Rbt.Current_Directory>
/home/itssahil/PROJECTS/Mol_Feturizer/New_Systems/rnas/1u8d

>  <Rbt.Executable>
rbdock ($Id: //depot/dev/client3/rdock/2013.1/src/exe/rbdock.cxx#4 $)

>  <Rbt.Library>
libRbt.so (2013.1, Build901 2013/11/27)

>  <Rbt.Parameter_File>
/export/apps/rDock/src/rDock_2013.1_src/data/scripts/dock_solv.prm

>  <Rbt.Receptor>
prm/blind_docking_100.prm

>  <SCORE>
-26.1317

>  <SCORE.INTER>
-26.1317

>  <SCORE.INTER.CONST>
1

>  <SCORE.INTER.POLAR>
-1.93632

>  <SCORE.INTER.ROT>
0

>  <SCORE.INTER.SOLV>
11.4844

>  <SCORE.INTER.VDW>
-18.3949

>  <SCORE.INTER.norm>
-2.61317

>  <SCORE.INTRA>
0

>  <SCORE.INTRA.DIHEDRAL>
0

>  <SCORE.INTRA.DIHEDRAL.0>
0

>  <SCORE.INTRA.POLAR>
0

>  <SCORE.INTRA.POLAR.0>
0

>  <SCORE.INTRA.REPUL>
0

>  <SCORE.INTRA.REPUL.0>
0

>  <SCORE.INTRA.SOLV>
0

>  <SCORE.INTRA.SOLV.lig_0>
-13.7928

>  <SCORE.INTRA.VDW>
0

>  <SCORE.INTRA.VDW.0>
0

>  <SCORE.INTRA.norm>
0

>  <SCORE.RESTR>
0

>  <SCORE.RESTR.CAVITY>
0

>  <SCORE.RESTR.norm>
0

>  <SCORE.SYSTEM>
0

>  <SCORE.SYSTEM.CONST>
0

>  <SCORE.SYSTEM.DIHEDRAL>
0

>  <SCORE.SYSTEM.SOLV>
0

>  <SCORE.SYSTEM.norm>
0

>  <SCORE.heavy>
10

>  <SCORE.norm>
-2.61317

>  <RMSD>
0.198

$$$$
1u8d_lig
 OpenBabel11021811413D
libRbt.so/2013.1/901 2013/11/27
 10 11  0  0  0  0  0  0  0  0999 V2000
   11.8428   10.5524    9.1649 N   0  0  0  0  0  0  0  0  0  0  0  0
   11.5913   11.9191    9.3748 C   0  0  0  0  0  0  0  0  0  0  0  0
   11.2493   12.7786    8.3814 N   0  0  0  0  0  0  0  0  0  0  0  0
   11.1746   12.1793    7.1732 C   0  0  0  0  0  0  0  0  0  0  0  0
   11.4399   10.7036    6.8807 C   0  0  0  0  0  0  0  0  0  0  0  0
   11.7923    9.8563    7.9426 C   0  0  0  0  0  0  0  0  0  0  0  0
   12.0404    8.6583    7.9386 O   0  0  0  0  0  0  0  0  0  0  0  0
   11.2561   10.5297    5.5364 N   0  0  0  0  0  0  0  0  0  0  0  0
   10.9003   11.7473    5.0097 C   0  0  0  0  0  0  0  0  0  0  0  0
   10.8427   12.7601    5.9634 N   0  0  0  0  0  0  0  0  0  0  0  0
  1  2  1  0  0  0  0
  1  6  1  0  0  0  0
  2  3  2  0  0  0  0
  3  4  1  0  0  0  0
  4  5  2  0  0  0  0
  4 10  1  0  0  0  0
  5  6  1  0  0  0  0
  5  8  1  0  0  0  0
  6  7  2  0  0  0  0
  8  9  1  0  0  0  0
  9 10  2  0  0  0  0
M  END
>  <CHROM.1>
11.42226922,11.13278364,7.34784418,0.31014036,-1.30830565,0.90621660

>  <Name>
1u8d_lig

>  <RI>
0

>  <Rbt.Current_Directory>
/home/itssahil/PROJECTS/Mol_Feturizer/New_Systems/rnas/1u8d

>  <Rbt.Executable>
rbdock ($Id: //depot/dev/client3/rdock/2013.1/src/exe/rbdock.cxx#4 $)

>  <Rbt.Library>
libRbt.so (2013.1, Build901 2013/11/27)

>  <Rbt.Parameter_File>
/export/apps/rDock/src/rDock_2013.1_src/data/scripts/dock_solv.prm

>  <Rbt.Receptor>
prm/blind_docking_80.prm

>  <SCORE>
-26.1186

>  <SCORE.INTER>
-26.1186

>  <SCORE.INTER.CONST>
1

>  <SCORE.INTER.POLAR>
-1.93632

>  <SCORE.INTER.ROT>
0

>  <SCORE.INTER.SOLV>
11.5076

>  <SCORE.INTER.VDW>
-18.3939

>  <SCORE.INTER.norm>
-2.61186

>  <SCORE.INTRA>
0

>  <SCORE.INTRA.DIHEDRAL>
0

>  <SCORE.INTRA.DIHEDRAL.0>
0

>  <SCORE.INTRA.POLAR>
0

>  <SCORE.INTRA.POLAR.0>
0

>  <SCORE.INTRA.REPUL>
0

>  <SCORE.INTRA.REPUL.0>
0

>  <SCORE.INTRA.SOLV>
0

>  <SCORE.INTRA.SOLV.lig_0>
-13.7928

>  <SCORE.INTRA.VDW>
0

>  <SCORE.INTRA.VDW.0>
0

>  <SCORE.INTRA.norm>
0

>  <SCORE.RESTR>
0

>  <SCORE.RESTR.CAVITY>
0

>  <SCORE.RESTR.norm>
0

>  <SCORE.SYSTEM>
0

>  <SCORE.SYSTEM.CONST>
0

>  <SCORE.SYSTEM.DIHEDRAL>
0

>  <SCORE.SYSTEM.SOLV>
0

>  <SCORE.SYSTEM.norm>
0

>  <SCORE.heavy>
10

>  <SCORE.norm>
-2.61186

>  <RMSD>
0.198

$$$$
1u8d_lig
 OpenBabel11021811413D
libRbt.so/2013.1/901 2013/11/27
 10 11  0  0  0  0  0  0  0  0999 V2000
   11.8349   10.5511    9.1792 N   0  0  0  0  0  0  0  0  0  0  0  0
   11.5902   11.9183    9.3928 C   0  0  0  0  0  0  0  0  0  0  0  0
   11.2519   12.7822    8.4018 N   0  0  0  0  0  0  0  0  0  0  0  0
   11.1737   12.1865    7.1921 C   0  0  0  0  0  0  0  0  0  0  0  0
   11.4316   10.7102    6.8956 C   0  0  0  0  0  0  0  0  0  0  0  0
   11.7803    9.8584    7.9551 C   0  0  0  0  0  0  0  0  0  0  0  0
   12.0225    8.6592    7.9478 O   0  0  0  0  0  0  0  0  0  0  0  0
   11.2463   10.5408    5.5509 N   0  0  0  0  0  0  0  0  0  0  0  0
   10.8962   11.7616    5.0276 C   0  0  0  0  0  0  0  0  0  0  0  0
   10.8441   12.7721    5.9840 N   0  0  0  0  0  0  0  0  0  0  0  0
  1  2  1  0  0  0  0
  1  6  1  0  0  0  0
  2  3  2  0  0  0  0
  3  4  1  0  0  0  0
  4  5  2  0  0  0  0
  4 10  1  0  0  0  0
  5  6  1  0  0  0  0
  5  8  1  0  0  0  0
  6  7  2  0  0  0  0
  8  9  1  0  0  0  0
  9 10  2  0  0  0  0
M  END
>  <CHROM.1>
11.41629201,11.13828283,7.36386986,0.29684871,-1.31184520,0.89602698

>  <Name>
1u8d_lig

>  <RI>
0

>  <Rbt.Current_Directory>
/home/itssahil/PROJECTS/Mol_Feturizer/New_Systems/rnas/1u8d

>  <Rbt.Executable>
rbdock ($Id: //depot/dev/client3/rdock/2013.1/src/exe/rbdock.cxx#4 $)

>  <Rbt.Library>
libRbt.so (2013.1, Build901 2013/11/27)

>  <Rbt.Parameter_File>
/export/apps/rDock/src/rDock_2013.1_src/data/scripts/dock_solv.prm

>  <Rbt.Receptor>
prm/blind_docking_80.prm

>  <SCORE>
-26.1091

>  <SCORE.INTER>
-26.1091

>  <SCORE.INTER.CONST>
1

>  <SCORE.INTER.POLAR>
-1.93632

>  <SCORE.INTER.ROT>
0

>  <SCORE.INTER.SOLV>
11.5186

>  <SCORE.INTER.VDW>
-18.3912

>  <SCORE.INTER.norm>
-2.61091

>  <SCORE.INTRA>
0

>  <SCORE.INTRA.DIHEDRAL>
0

>  <SCORE.INTRA.DIHEDRAL.0>
0

>  <SCORE.INTRA.POLAR>
0

>  <SCORE.INTRA.POLAR.0>
0

>  <SCORE.INTRA.REPUL>
0

>  <SCORE.INTRA.REPUL.0>
0

>  <SCORE.INTRA.SOLV>
0

>  <SCORE.INTRA.SOLV.lig_0>
-13.7928

>  <SCORE.INTRA.VDW>
0

>  <SCORE.INTRA.VDW.0>
0

>  <SCORE.INTRA.norm>
0

>  <SCORE.RESTR>
0

>  <SCORE.RESTR.CAVITY>
0

>  <SCORE.RESTR.norm>
0

>  <SCORE.SYSTEM>
0

>  <SCORE.SYSTEM.CONST>
0

>  <SCORE.SYSTEM.DIHEDRAL>
0

>  <SCORE.SYSTEM.SOLV>
0

>  <SCORE.SYSTEM.norm>
0

>  <SCORE.heavy>
10

>  <SCORE.norm>
-2.61091

>  <RMSD>
0.198

$$$$
1u8d_lig
 OpenBabel11021811413D
libRbt.so/2013.1/901 2013/11/27
 10 11  0  0  0  0  0  0  0  0999 V2000
   11.8403   10.5538    9.1746 N   0  0  0  0  0  0  0  0  0  0  0  0
   11.5962   11.9216    9.3857 C   0  0  0  0  0  0  0  0  0  0  0  0
   11.2557   12.7831    8.3935 N   0  0  0  0  0  0  0  0  0  0  0  0
   11.1746   12.1846    7.1853 C   0  0  0  0  0  0  0  0  0  0  0  0
   11.4316   10.7076    6.8917 C   0  0  0  0  0  0  0  0  0  0  0  0
   11.7827    9.8583    7.9523 C   0  0  0  0  0  0  0  0  0  0  0  0
   12.0248    8.6590    7.9472 O   0  0  0  0  0  0  0  0  0  0  0  0
   11.2431   10.5351    5.5478 N   0  0  0  0  0  0  0  0  0  0  0  0
   10.8919   11.7547    5.0225 C   0  0  0  0  0  0  0  0  0  0  0  0
   10.8421   12.7675    5.9766 N   0  0  0  0  0  0  0  0  0  0  0  0
  1  2  1  0  0  0  0
  1  6  1  0  0  0  0
  2  3  2  0  0  0  0
  3  4  1  0  0  0  0
  4  5  2  0  0  0  0
  4 10  1  0  0  0  0
  5  6  1  0  0  0  0
  5  8  1  0  0  0  0
  6  7  2  0  0  0  0
  8  9  1  0  0  0  0
  9 10  2  0  0  0  0
M  END
>  <CHROM.1>
11.41744220,11.13677856,7.35895013,0.28941485,-1.31044167,0.88650127

>  <Name>
1u8d_lig

>  <RI>
0

>  <Rbt.Current_Directory>
/home/itssahil/PROJECTS/Mol_Feturizer/New_Systems/rnas/1u8d

>  <Rbt.Executable>
rbdock ($Id: //depot/dev/client3/rdock/2013.1/src/exe/rbdock.cxx#4 $)

>  <Rbt.Library>
libRbt.so (2013.1, Build901 2013/11/27)

>  <Rbt.Parameter_File>
/export/apps/rDock/src/rDock_2013.1_src/data/scripts/dock_solv.prm

>  <Rbt.Receptor>
prm/pocket_docking_3.prm

>  <SCORE>
-26.1076

>  <SCORE.INTER>
-26.1076

>  <SCORE.INTER.CONST>
1

>  <SCORE.INTER.POLAR>
-1.93632

>  <SCORE.INTER.ROT>
0

>  <SCORE.INTER.SOLV>
11.5144

>  <SCORE.INTER.VDW>
-18.3888

>  <SCORE.INTER.norm>
-2.61076

>  <SCORE.INTRA>
0

>  <SCORE.INTRA.DIHEDRAL>
0

>  <SCORE.INTRA.DIHEDRAL.0>
0

>  <SCORE.INTRA.POLAR>
0

>  <SCORE.INTRA.POLAR.0>
0

>  <SCORE.INTRA.REPUL>
0

>  <SCORE.INTRA.REPUL.0>
0

>  <SCORE.INTRA.SOLV>
0

>  <SCORE.INTRA.SOLV.lig_0>
-13.7928

>  <SCORE.INTRA.VDW>
0

>  <SCORE.INTRA.VDW.0>
0

>  <SCORE.INTRA.norm>
0

>  <SCORE.RESTR>
0

>  <SCORE.RESTR.CAVITY>
0

>  <SCORE.RESTR.norm>
0

>  <SCORE.SYSTEM>
0

>  <SCORE.SYSTEM.CONST>
0

>  <SCORE.SYSTEM.DIHEDRAL>
0

>  <SCORE.SYSTEM.SOLV>
0

>  <SCORE.SYSTEM.norm>
0

>  <SCORE.heavy>
10

>  <SCORE.norm>
-2.61076

>  <RMSD>
0.198

$$$$
1u8d_lig
 OpenBabel11021811413D
libRbt.so/2013.1/901 2013/11/27
 10 11  0  0  0  0  0  0  0  0999 V2000
   11.7912   10.5069    9.1917 N   0  0  0  0  0  0  0  0  0  0  0  0
   11.5413   11.8745    9.3972 C   0  0  0  0  0  0  0  0  0  0  0  0
   11.2191   12.7351    8.3981 N   0  0  0  0  0  0  0  0  0  0  0  0
   11.1622   12.1358    7.1890 C   0  0  0  0  0  0  0  0  0  0  0  0
   11.4268   10.6590    6.9012 C   0  0  0  0  0  0  0  0  0  0  0  0
   11.7584    9.8107    7.9689 C   0  0  0  0  0  0  0  0  0  0  0  0
   12.0020    8.6118    7.9692 O   0  0  0  0  0  0  0  0  0  0  0  0
   11.2647   10.4856    5.5540 N   0  0  0  0  0  0  0  0  0  0  0  0
   10.9221   11.7044    5.0213 C   0  0  0  0  0  0  0  0  0  0  0  0
   10.8525   12.7176    5.9737 N   0  0  0  0  0  0  0  0  0  0  0  0
  1  2  1  0  0  0  0
  1  6  1  0  0  0  0
  2  3  2  0  0  0  0
  3  4  1  0  0  0  0
  4  5  2  0  0  0  0
  4 10  1  0  0  0  0
  5  6  1  0  0  0  0
  5  8  1  0  0  0  0
  6  7  2  0  0  0  0
  8  9  1  0  0  0  0
  9 10  2  0  0  0  0
M  END
>  <CHROM.1>
11.40300241,11.08839649,7.36787216,0.35377339,-1.32122268,0.94825008

>  <Name>
1u8d_lig

>  <RI>
0

>  <Rbt.Current_Directory>
/home/itssahil/PROJECTS/Mol_Feturizer/New_Systems/rnas/1u8d

>  <Rbt.Executable>
rbdock ($Id: //depot/dev/client3/rdock/2013.1/src/exe/rbdock.cxx#4 $)

>  <Rbt.Library>
libRbt.so (2013.1, Build901 2013/11/27)

>  <Rbt.Parameter_File>
/export/apps/rDock/src/rDock_2013.1_src/data/scripts/dock_solv.prm

>  <Rbt.Receptor>
prm/pocket_docking_4.prm

>  <SCORE>
-26.0927

>  <SCORE.INTER>
-26.0927

>  <SCORE.INTER.CONST>
1

>  <SCORE.INTER.POLAR>
-1.93632

>  <SCORE.INTER.ROT>
0

>  <SCORE.INTER.SOLV>
11.5734

>  <SCORE.INTER.VDW>
-18.3985

>  <SCORE.INTER.norm>
-2.60927

>  <SCORE.INTRA>
0

>  <SCORE.INTRA.DIHEDRAL>
0

>  <SCORE.INTRA.DIHEDRAL.0>
0

>  <SCORE.INTRA.POLAR>
0

>  <SCORE.INTRA.POLAR.0>
0

>  <SCORE.INTRA.REPUL>
0

>  <SCORE.INTRA.REPUL.0>
0

>  <SCORE.INTRA.SOLV>
0

>  <SCORE.INTRA.SOLV.lig_0>
-13.7928

>  <SCORE.INTRA.VDW>
0

>  <SCORE.INTRA.VDW.0>
0

>  <SCORE.INTRA.norm>
0

>  <SCORE.RESTR>
0

>  <SCORE.RESTR.CAVITY>
0

>  <SCORE.RESTR.norm>
0

>  <SCORE.SYSTEM>
0

>  <SCORE.SYSTEM.CONST>
0

>  <SCORE.SYSTEM.DIHEDRAL>
0

>  <SCORE.SYSTEM.SOLV>
0

>  <SCORE.SYSTEM.norm>
0

>  <SCORE.heavy>
10

>  <SCORE.norm>
-2.60927

>  <RMSD>
0.198

$$$$
1u8d_lig
 OpenBabel11021811413D
libRbt.so/2013.1/901 2013/11/27
 10 11  0  0  0  0  0  0  0  0999 V2000
   11.8274   10.5516    9.1812 N   0  0  0  0  0  0  0  0  0  0  0  0
   11.5829   11.9198    9.3895 C   0  0  0  0  0  0  0  0  0  0  0  0
   11.2515   12.7812    8.3941 N   0  0  0  0  0  0  0  0  0  0  0  0
   11.1797   12.1820    7.1856 C   0  0  0  0  0  0  0  0  0  0  0  0
   11.4377   10.7046    6.8949 C   0  0  0  0  0  0  0  0  0  0  0  0
   11.7793    9.8555    7.9589 C   0  0  0  0  0  0  0  0  0  0  0  0
   12.0202    8.6560    7.9565 O   0  0  0  0  0  0  0  0  0  0  0  0
   11.2601   10.5315    5.5496 N   0  0  0  0  0  0  0  0  0  0  0  0
   10.9145   11.7512    5.0208 C   0  0  0  0  0  0  0  0  0  0  0  0
   10.8578   12.7645    5.9739 N   0  0  0  0  0  0  0  0  0  0  0  0
  1  2  1  0  0  0  0
  1  6  1  0  0  0  0
  2  3  2  0  0  0  0
  3  4  1  0  0  0  0
  4  5  2  0  0  0  0
  4 10  1  0  0  0  0
  5  6  1  0  0  0  0
  5  8  1  0  0  0  0
  6  7  2  0  0  0  0
  8  9  1  0  0  0  0
  9 10  2  0  0  0  0
M  END
>  <CHROM.1>
11.42012270,11.13405375,7.36182640,0.31232154,-1.31635991,0.90809829

>  <Name>
1u8d_lig

>  <RI>
0

>  <Rbt.Current_Directory>
/home/itssahil/PROJECTS/Mol_Feturizer/New_Systems/rnas/1u8d

>  <Rbt.Executable>
rbdock ($Id: //depot/dev/client3/rdock/2013.1/src/exe/rbdock.cxx#4 $)

>  <Rbt.Library>
libRbt.so (2013.1, Build901 2013/11/27)

>  <Rbt.Parameter_File>
/export/apps/rDock/src/rDock_2013.1_src/data/scripts/dock_solv.prm

>  <Rbt.Receptor>
prm/pocket_docking_5.prm

>  <SCORE>
-26.1153

>  <SCORE.INTER>
-26.1153

>  <SCORE.INTER.CONST>
1

>  <SCORE.INTER.POLAR>
-1.93632

>  <SCORE.INTER.ROT>
0

>  <SCORE.INTER.SOLV>
11.5348

>  <SCORE.INTER.VDW>
-18.4007

>  <SCORE.INTER.norm>
-2.61153

>  <SCORE.INTRA>
0

>  <SCORE.INTRA.DIHEDRAL>
0

>  <SCORE.INTRA.DIHEDRAL.0>
0

>  <SCORE.INTRA.POLAR>
0

>  <SCORE.INTRA.POLAR.0>
0

>  <SCORE.INTRA.REPUL>
0

>  <SCORE.INTRA.REPUL.0>
0

>  <SCORE.INTRA.SOLV>
0

>  <SCORE.INTRA.SOLV.lig_0>
-13.7928

>  <SCORE.INTRA.VDW>
0

>  <SCORE.INTRA.VDW.0>
0

>  <SCORE.INTRA.norm>
0

>  <SCORE.RESTR>
0

>  <SCORE.RESTR.CAVITY>
0

>  <SCORE.RESTR.norm>
0

>  <SCORE.SYSTEM>
0

>  <SCORE.SYSTEM.CONST>
0

>  <SCORE.SYSTEM.DIHEDRAL>
0

>  <SCORE.SYSTEM.SOLV>
0

>  <SCORE.SYSTEM.norm>
0

>  <SCORE.heavy>
10

>  <SCORE.norm>
-2.61153

>  <RMSD>
0.198

$$$$
1u8d_lig
 OpenBabel11021811413D
libRbt.so/2013.1/901 2013/11/27
 10 11  0  0  0  0  0  0  0  0999 V2000
   11.8307   10.5516    9.1814 N   0  0  0  0  0  0  0  0  0  0  0  0
   11.5874   11.9196    9.3919 C   0  0  0  0  0  0  0  0  0  0  0  0
   11.2520   12.7819    8.3986 N   0  0  0  0  0  0  0  0  0  0  0  0
   11.1752   12.1839    7.1900 C   0  0  0  0  0  0  0  0  0  0  0  0
   11.4318   10.7068    6.8968 C   0  0  0  0  0  0  0  0  0  0  0  0
   11.7776    9.8566    7.9586 C   0  0  0  0  0  0  0  0  0  0  0  0
   12.0183    8.6571    7.9541 O   0  0  0  0  0  0  0  0  0  0  0  0
   11.2487   10.5350    5.5521 N   0  0  0  0  0  0  0  0  0  0  0  0
   10.9010   11.7551    5.0258 C   0  0  0  0  0  0  0  0  0  0  0  0
   10.8484   12.7676    5.9801 N   0  0  0  0  0  0  0  0  0  0  0  0
  1  2  1  0  0  0  0
  1  6  1  0  0  0  0
  2  3  2  0  0  0  0
  3  4  1  0  0  0  0
  4  5  2  0  0  0  0
  4 10  1  0  0  0  0
  5  6  1  0  0  0  0
  5  8  1  0  0  0  0
  6  7  2  0  0  0  0
  8  9  1  0  0  0  0
  9 10  2  0  0  0  0
M  END
>  <CHROM.1>
11.41615725,11.13575270,7.36420286,0.29931933,-1.31393364,0.89645154

>  <Name>
1u8d_lig

>  <RI>
0

>  <Rbt.Current_Directory>
/home/itssahil/PROJECTS/Mol_Feturizer/New_Systems/rnas/1u8d

>  <Rbt.Executable>
rbdock ($Id: //depot/dev/client3/rdock/2013.1/src/exe/rbdock.cxx#4 $)

>  <Rbt.Library>
libRbt.so (2013.1, Build901 2013/11/27)

>  <Rbt.Parameter_File>
/export/apps/rDock/src/rDock_2013.1_src/data/scripts/dock_solv.prm

>  <Rbt.Receptor>
prm/pocket_docking_5.prm

>  <SCORE>
-26.1121

>  <SCORE.INTER>
-26.1121

>  <SCORE.INTER.CONST>
1

>  <SCORE.INTER.POLAR>
-1.93632

>  <SCORE.INTER.ROT>
0

>  <SCORE.INTER.SOLV>
11.528

>  <SCORE.INTER.VDW>
-18.3963

>  <SCORE.INTER.norm>
-2.61121

>  <SCORE.INTRA>
0

>  <SCORE.INTRA.DIHEDRAL>
0

>  <SCORE.INTRA.DIHEDRAL.0>
0

>  <SCORE.INTRA.POLAR>
0

>  <SCORE.INTRA.POLAR.0>
0

>  <SCORE.INTRA.REPUL>
0

>  <SCORE.INTRA.REPUL.0>
0

>  <SCORE.INTRA.SOLV>
0

>  <SCORE.INTRA.SOLV.lig_0>
-13.7928

>  <SCORE.INTRA.VDW>
0

>  <SCORE.INTRA.VDW.0>
0

>  <SCORE.INTRA.norm>
0

>  <SCORE.RESTR>
0

>  <SCORE.RESTR.CAVITY>
0

>  <SCORE.RESTR.norm>
0

>  <SCORE.SYSTEM>
0

>  <SCORE.SYSTEM.CONST>
0

>  <SCORE.SYSTEM.DIHEDRAL>
0

>  <SCORE.SYSTEM.SOLV>
0

>  <SCORE.SYSTEM.norm>
0

>  <SCORE.heavy>
10

>  <SCORE.norm>
-2.61121

>  <RMSD>
0.198

$$$$
1u8d_lig
 OpenBabel11021811413D
libRbt.so/2013.1/901 2013/11/27
 10 11  0  0  0  0  0  0  0  0999 V2000
   11.8378   10.5542    9.1649 N   0  0  0  0  0  0  0  0  0  0  0  0
   11.5844   11.9206    9.3743 C   0  0  0  0  0  0  0  0  0  0  0  0
   11.2455   12.7801    8.3799 N   0  0  0  0  0  0  0  0  0  0  0  0
   11.1758   12.1812    7.1712 C   0  0  0  0  0  0  0  0  0  0  0  0
   11.4434   10.7057    6.8793 C   0  0  0  0  0  0  0  0  0  0  0  0
   11.7924    9.8584    7.9423 C   0  0  0  0  0  0  0  0  0  0  0  0
   12.0415    8.6606    7.9388 O   0  0  0  0  0  0  0  0  0  0  0  0
   11.2647   10.5321    5.5342 N   0  0  0  0  0  0  0  0  0  0  0  0
   10.9099   11.7496    5.0066 C   0  0  0  0  0  0  0  0  0  0  0  0
   10.8480   12.7621    5.9604 N   0  0  0  0  0  0  0  0  0  0  0  0
  1  2  1  0  0  0  0
  1  6  1  0  0  0  0
  2  3  2  0  0  0  0
  3  4  1  0  0  0  0
  4  5  2  0  0  0  0
  4 10  1  0  0  0  0
  5  6  1  0  0  0  0
  5  8  1  0  0  0  0
  6  7  2  0  0  0  0
  8  9  1  0  0  0  0
  9 10  2  0  0  0  0
M  END
>  <CHROM.1>
11.42361323,11.13477096,7.34649440,0.32358181,-1.30996482,0.91951470

>  <Name>
1u8d_lig

>  <RI>
0

>  <Rbt.Current_Directory>
/home/itssahil/PROJECTS/Mol_Feturizer/New_Systems/rnas/1u8d

>  <Rbt.Executable>
rbdock ($Id: //depot/dev/client3/rdock/2013.1/src/exe/rbdock.cxx#4 $)

>  <Rbt.Library>
libRbt.so (2013.1, Build901 2013/11/27)

>  <Rbt.Parameter_File>
/export/apps/rDock/src/rDock_2013.1_src/data/scripts/dock_solv.prm

>  <Rbt.Receptor>
prm/pocket_docking_5.prm

>  <SCORE>
-26.119

>  <SCORE.INTER>
-26.119

>  <SCORE.INTER.CONST>
1

>  <SCORE.INTER.POLAR>
-1.93632

>  <SCORE.INTER.ROT>
0

>  <SCORE.INTER.SOLV>
11.5138

>  <SCORE.INTER.VDW>
-18.3962

>  <SCORE.INTER.norm>
-2.6119

>  <SCORE.INTRA>
0

>  <SCORE.INTRA.DIHEDRAL>
0

>  <SCORE.INTRA.DIHEDRAL.0>
0

>  <SCORE.INTRA.POLAR>
0

>  <SCORE.INTRA.POLAR.0>
0

>  <SCORE.INTRA.REPUL>
0

>  <SCORE.INTRA.REPUL.0>
0

>  <SCORE.INTRA.SOLV>
0

>  <SCORE.INTRA.SOLV.lig_0>
-13.7928

>  <SCORE.INTRA.VDW>
0

>  <SCORE.INTRA.VDW.0>
0

>  <SCORE.INTRA.norm>
0

>  <SCORE.RESTR>
0

>  <SCORE.RESTR.CAVITY>
0

>  <SCORE.RESTR.norm>
0

>  <SCORE.SYSTEM>
0

>  <SCORE.SYSTEM.CONST>
0

>  <SCORE.SYSTEM.DIHEDRAL>
0

>  <SCORE.SYSTEM.SOLV>
0

>  <SCORE.SYSTEM.norm>
0

>  <SCORE.heavy>
10

>  <SCORE.norm>
-2.6119

>  <RMSD>
0.198

$$$$
1u8d_lig
 OpenBabel11021811413D
libRbt.so/2013.1/901 2013/11/27
 10 11  0  0  0  0  0  0  0  0999 V2000
   11.8425   10.5538    9.1617 N   0  0  0  0  0  0  0  0  0  0  0  0
   11.5896   11.9205    9.3700 C   0  0  0  0  0  0  0  0  0  0  0  0
   11.2487   12.7789    8.3752 N   0  0  0  0  0  0  0  0  0  0  0  0
   11.1766   12.1785    7.1674 C   0  0  0  0  0  0  0  0  0  0  0  0
   11.4435   10.7027    6.8767 C   0  0  0  0  0  0  0  0  0  0  0  0
   11.7946    9.8566    7.9399 C   0  0  0  0  0  0  0  0  0  0  0  0
   12.0436    8.6588    7.9374 O   0  0  0  0  0  0  0  0  0  0  0  0
   11.2621   10.5276    5.5322 N   0  0  0  0  0  0  0  0  0  0  0  0
   10.9063   11.7445    5.0038 C   0  0  0  0  0  0  0  0  0  0  0  0
   10.8464   12.7580    5.9565 N   0  0  0  0  0  0  0  0  0  0  0  0
  1  2  1  0  0  0  0
  1  6  1  0  0  0  0
  2  3  2  0  0  0  0
  3  4  1  0  0  0  0
  4  5  2  0  0  0  0
  4 10  1  0  0  0  0
  5  6  1  0  0  0  0
  5  8  1  0  0  0  0
  6  7  2  0  0  0  0
  8  9  1  0  0  0  0
  9 10  2  0  0  0  0
M  END
>  <CHROM.1>
11.42470804,11.13231025,7.34339506,0.31722714,-1.30878882,0.91220668

>  <Name>
1u8d_lig

>  <RI>
0

>  <Rbt.Current_Directory>
/home/itssahil/PROJECTS/Mol_Feturizer/New_Systems/rnas/1u8d

>  <Rbt.Executable>
rbdock ($Id: //depot/dev/client3/rdock/2013.1/src/exe/rbdock.cxx#4 $)

>  <Rbt.Library>
libRbt.so (2013.1, Build901 2013/11/27)

>  <Rbt.Parameter_File>
/export/apps/rDock/src/rDock_2013.1_src/data/scripts/dock_solv.prm

>  <Rbt.Receptor>
prm/pocket_docking_5.prm

>  <SCORE>
-26.119

>  <SCORE.INTER>
-26.119

>  <SCORE.INTER.CONST>
1

>  <SCORE.INTER.POLAR>
-1.93632

>  <SCORE.INTER.ROT>
0

>  <SCORE.INTER.SOLV>
11.509

>  <SCORE.INTER.VDW>
-18.3946

>  <SCORE.INTER.norm>
-2.6119

>  <SCORE.INTRA>
0

>  <SCORE.INTRA.DIHEDRAL>
0

>  <SCORE.INTRA.DIHEDRAL.0>
0

>  <SCORE.INTRA.POLAR>
0

>  <SCORE.INTRA.POLAR.0>
0

>  <SCORE.INTRA.REPUL>
0

>  <SCORE.INTRA.REPUL.0>
0

>  <SCORE.INTRA.SOLV>
0

>  <SCORE.INTRA.SOLV.lig_0>
-13.7928

>  <SCORE.INTRA.VDW>
0

>  <SCORE.INTRA.VDW.0>
0

>  <SCORE.INTRA.norm>
0

>  <SCORE.RESTR>
0

>  <SCORE.RESTR.CAVITY>
0

>  <SCORE.RESTR.norm>
0

>  <SCORE.SYSTEM>
0

>  <SCORE.SYSTEM.CONST>
0

>  <SCORE.SYSTEM.DIHEDRAL>
0

>  <SCORE.SYSTEM.SOLV>
0

>  <SCORE.SYSTEM.norm>
0

>  <SCORE.heavy>
10

>  <SCORE.norm>
-2.6119

>  <RMSD>
0.198

$$$$
1u8d_lig
 OpenBabel11021811413D
libRbt.so/2013.1/901 2013/11/27
 10 11  0  0  0  0  0  0  0  0999 V2000
   11.7811   10.5052    9.1913 N   0  0  0  0  0  0  0  0  0  0  0  0
   11.5262   11.8719    9.3970 C   0  0  0  0  0  0  0  0  0  0  0  0
   11.2091   12.7332    8.3969 N   0  0  0  0  0  0  0  0  0  0  0  0
   11.1628   12.1356    7.1864 C   0  0  0  0  0  0  0  0  0  0  0  0
   11.4333   10.6599    6.8984 C   0  0  0  0  0  0  0  0  0  0  0  0
   11.7591    9.8108    7.9672 C   0  0  0  0  0  0  0  0  0  0  0  0
   12.0058    8.6125    7.9675 O   0  0  0  0  0  0  0  0  0  0  0  0
   11.2816   10.4881    5.5498 N   0  0  0  0  0  0  0  0  0  0  0  0
   10.9399   11.7069    5.0164 C   0  0  0  0  0  0  0  0  0  0  0  0
   10.8607   12.7185    5.9698 N   0  0  0  0  0  0  0  0  0  0  0  0
  1  2  1  0  0  0  0
  1  6  1  0  0  0  0
  2  3  2  0  0  0  0
  3  4  1  0  0  0  0
  4  5  2  0  0  0  0
  4 10  1  0  0  0  0
  5  6  1  0  0  0  0
  5  8  1  0  0  0  0
  6  7  2  0  0  0  0
  8  9  1  0  0  0  0
  9 10  2  0  0  0  0
M  END
>  <CHROM.1>
11.40491030,11.08854210,7.36550935,0.38444284,-1.32336850,0.97948617

>  <Name>
1u8d_lig

>  <RI>
0

>  <Rbt.Current_Directory>
/home/itssahil/PROJECTS/Mol_Feturizer/New_Systems/rnas/1u8d

>  <Rbt.Executable>
rbdock ($Id: //depot/dev/client3/rdock/2013.1/src/exe/rbdock.cxx#4 $)

>  <Rbt.Library>
libRbt.so (2013.1, Build901 2013/11/27)

>  <Rbt.Parameter_File>
/export/apps/rDock/src/rDock_2013.1_src/data/scripts/dock_solv.prm

>  <Rbt.Receptor>
prm/pocket_docking_6.prm

>  <SCORE>
-26.1184

>  <SCORE.INTER>
-26.1184

>  <SCORE.INTER.CONST>
1

>  <SCORE.INTER.POLAR>
-1.93632

>  <SCORE.INTER.ROT>
0

>  <SCORE.INTER.SOLV>
11.5847

>  <SCORE.INTER.VDW>
-18.4195

>  <SCORE.INTER.norm>
-2.61184

>  <SCORE.INTRA>
0

>  <SCORE.INTRA.DIHEDRAL>
0

>  <SCORE.INTRA.DIHEDRAL.0>
0

>  <SCORE.INTRA.POLAR>
0

>  <SCORE.INTRA.POLAR.0>
0

>  <SCORE.INTRA.REPUL>
0

>  <SCORE.INTRA.REPUL.0>
0

>  <SCORE.INTRA.SOLV>
0

>  <SCORE.INTRA.SOLV.lig_0>
-13.7928

>  <SCORE.INTRA.VDW>
0

>  <SCORE.INTRA.VDW.0>
0

>  <SCORE.INTRA.norm>
0

>  <SCORE.RESTR>
0

>  <SCORE.RESTR.CAVITY>
0

>  <SCORE.RESTR.norm>
0

>  <SCORE.SYSTEM>
0

>  <SCORE.SYSTEM.CONST>
0

>  <SCORE.SYSTEM.DIHEDRAL>
0

>  <SCORE.SYSTEM.SOLV>
0

>  <SCORE.SYSTEM.norm>
0

>  <SCORE.heavy>
10

>  <SCORE.norm>
-2.61184

>  <RMSD>
0.198

$$$$
1u8d_lig
 OpenBabel11021811413D
libRbt.so/2013.1/901 2013/11/27
 10 11  0  0  0  0  0  0  0  0999 V2000
   11.7768   10.5051    9.1922 N   0  0  0  0  0  0  0  0  0  0  0  0
   11.5222   11.8717    9.3982 C   0  0  0  0  0  0  0  0  0  0  0  0
   11.2055   12.7334    8.3983 N   0  0  0  0  0  0  0  0  0  0  0  0
   11.1591   12.1361    7.1876 C   0  0  0  0  0  0  0  0  0  0  0  0
   11.4293   10.6605    6.8992 C   0  0  0  0  0  0  0  0  0  0  0  0
   11.7547    9.8110    7.9679 C   0  0  0  0  0  0  0  0  0  0  0  0
   12.0012    8.6126    7.9679 O   0  0  0  0  0  0  0  0  0  0  0  0
   11.2776   10.4891    5.5506 N   0  0  0  0  0  0  0  0  0  0  0  0
   10.9363   11.7080    5.0175 C   0  0  0  0  0  0  0  0  0  0  0  0
   10.8572   12.7194    5.9711 N   0  0  0  0  0  0  0  0  0  0  0  0
  1  2  1  0  0  0  0
  1  6  1  0  0  0  0
  2  3  2  0  0  0  0
  3  4  1  0  0  0  0
  4  5  2  0  0  0  0
  4 10  1  0  0  0  0
  5  6  1  0  0  0  0
  5  8  1  0  0  0  0
  6  7  2  0  0  0  0
  8  9  1  0  0  0  0
  9 10  2  0  0  0  0
M  END
>  <CHROM.1>
11.40095153,11.08897085,7.36648515,0.38419181,-1.32361845,0.97951080

>  <Name>
1u8d_lig

>  <RI>
0

>  <Rbt.Current_Directory>
/home/itssahil/PROJECTS/Mol_Feturizer/New_Systems/rnas/1u8d

>  <Rbt.Executable>
rbdock ($Id: //depot/dev/client3/rdock/2013.1/src/exe/rbdock.cxx#4 $)

>  <Rbt.Library>
libRbt.so (2013.1, Build901 2013/11/27)

>  <Rbt.Parameter_File>
/export/apps/rDock/src/rDock_2013.1_src/data/scripts/dock_solv.prm

>  <Rbt.Receptor>
prm/pocket_docking_6.prm

>  <SCORE>
-26.1203

>  <SCORE.INTER>
-26.1203

>  <SCORE.INTER.CONST>
1

>  <SCORE.INTER.POLAR>
-1.93632

>  <SCORE.INTER.ROT>
0

>  <SCORE.INTER.SOLV>
11.5894

>  <SCORE.INTER.VDW>
-18.4222

>  <SCORE.INTER.norm>
-2.61203

>  <SCORE.INTRA>
0

>  <SCORE.INTRA.DIHEDRAL>
0

>  <SCORE.INTRA.DIHEDRAL.0>
0

>  <SCORE.INTRA.POLAR>
0

>  <SCORE.INTRA.POLAR.0>
0

>  <SCORE.INTRA.REPUL>
0

>  <SCORE.INTRA.REPUL.0>
0

>  <SCORE.INTRA.SOLV>
0

>  <SCORE.INTRA.SOLV.lig_0>
-13.7928

>  <SCORE.INTRA.VDW>
0

>  <SCORE.INTRA.VDW.0>
0

>  <SCORE.INTRA.norm>
0

>  <SCORE.RESTR>
0

>  <SCORE.RESTR.CAVITY>
0

>  <SCORE.RESTR.norm>
0

>  <SCORE.SYSTEM>
0

>  <SCORE.SYSTEM.CONST>
0

>  <SCORE.SYSTEM.DIHEDRAL>
0

>  <SCORE.SYSTEM.SOLV>
0

>  <SCORE.SYSTEM.norm>
0

>  <SCORE.heavy>
10

>  <SCORE.norm>
-2.61203

>  <RMSD>
0.198

$$$$
1u8d_lig
 OpenBabel11021811413D
libRbt.so/2013.1/901 2013/11/27
 10 11  0  0  0  0  0  0  0  0999 V2000
   11.8374   10.5527    9.1752 N   0  0  0  0  0  0  0  0  0  0  0  0
   11.5911   11.9203    9.3847 C   0  0  0  0  0  0  0  0  0  0  0  0
   11.2537   12.7812    8.3908 N   0  0  0  0  0  0  0  0  0  0  0  0
   11.1780   12.1821    7.1826 C   0  0  0  0  0  0  0  0  0  0  0  0
   11.4378   10.7053    6.8905 C   0  0  0  0  0  0  0  0  0  0  0  0
   11.7855    9.8567    7.9529 C   0  0  0  0  0  0  0  0  0  0  0  0
   12.0288    8.6577    7.9493 O   0  0  0  0  0  0  0  0  0  0  0  0
   11.2548   10.5321    5.5460 N   0  0  0  0  0  0  0  0  0  0  0  0
   10.9045   11.7511    5.0188 C   0  0  0  0  0  0  0  0  0  0  0  0
   10.8499   12.7642    5.9724 N   0  0  0  0  0  0  0  0  0  0  0  0
  1  2  1  0  0  0  0
  1  6  1  0  0  0  0
  2  3  2  0  0  0  0
  3  4  1  0  0  0  0
  4  5  2  0  0  0  0
  4 10  1  0  0  0  0
  5  6  1  0  0  0  0
  5  8  1  0  0  0  0
  6  7  2  0  0  0  0
  8  9  1  0  0  0  0
  9 10  2  0  0  0  0
M  END
>  <CHROM.1>
11.42130030,11.13459349,7.35761123,0.30414472,-1.31215845,0.90036115

>  <Name>
1u8d_lig

>  <RI>
0

>  <Rbt.Current_Directory>
/home/itssahil/PROJECTS/Mol_Feturizer/New_Systems/rnas/1u8d

>  <Rbt.Executable>
rbdock ($Id: //depot/dev/client3/rdock/2013.1/src/exe/rbdock.cxx#4 $)

>  <Rbt.Library>
libRbt.so (2013.1, Build901 2013/11/27)

>  <Rbt.Parameter_File>
/export/apps/rDock/src/rDock_2013.1_src/data/scripts/dock_solv.prm

>  <Rbt.Receptor>
prm/pocket_docking_7.prm

>  <SCORE>
-26.1133

>  <SCORE.INTER>
-26.1133

>  <SCORE.INTER.CONST>
1

>  <SCORE.INTER.POLAR>
-1.93632

>  <SCORE.INTER.ROT>
0

>  <SCORE.INTER.SOLV>
11.5191

>  <SCORE.INTER.VDW>
-18.3942

>  <SCORE.INTER.norm>
-2.61133

>  <SCORE.INTRA>
0

>  <SCORE.INTRA.DIHEDRAL>
0

>  <SCORE.INTRA.DIHEDRAL.0>
0

>  <SCORE.INTRA.POLAR>
0

>  <SCORE.INTRA.POLAR.0>
0

>  <SCORE.INTRA.REPUL>
0

>  <SCORE.INTRA.REPUL.0>
0

>  <SCORE.INTRA.SOLV>
0

>  <SCORE.INTRA.SOLV.lig_0>
-13.7928

>  <SCORE.INTRA.VDW>
0

>  <SCORE.INTRA.VDW.0>
0

>  <SCORE.INTRA.norm>
0

>  <SCORE.RESTR>
0

>  <SCORE.RESTR.CAVITY>
0

>  <SCORE.RESTR.norm>
0

>  <SCORE.SYSTEM>
0

>  <SCORE.SYSTEM.CONST>
0

>  <SCORE.SYSTEM.DIHEDRAL>
0

>  <SCORE.SYSTEM.SOLV>
0

>  <SCORE.SYSTEM.norm>
0

>  <SCORE.heavy>
10

>  <SCORE.norm>
-2.61133

>  <RMSD>
0.198

$$$$
1u8d_lig
 OpenBabel11021811413D
libRbt.so/2013.1/901 2013/11/27
 10 11  0  0  0  0  0  0  0  0999 V2000
   11.8395   10.5547    9.1610 N   0  0  0  0  0  0  0  0  0  0  0  0
   11.5855   11.9212    9.3683 C   0  0  0  0  0  0  0  0  0  0  0  0
   11.2463   12.7792    8.3725 N   0  0  0  0  0  0  0  0  0  0  0  0
   11.1770   12.1784    7.1647 C   0  0  0  0  0  0  0  0  0  0  0  0
   11.4453   10.7026    6.8751 C   0  0  0  0  0  0  0  0  0  0  0  0
   11.7945    9.8570    7.9393 C   0  0  0  0  0  0  0  0  0  0  0  0
   12.0441    8.6593    7.9377 O   0  0  0  0  0  0  0  0  0  0  0  0
   11.2668   10.5269    5.5302 N   0  0  0  0  0  0  0  0  0  0  0  0
   10.9116   11.7435    5.0008 C   0  0  0  0  0  0  0  0  0  0  0  0
   10.8491   12.7573    5.9530 N   0  0  0  0  0  0  0  0  0  0  0  0
  1  2  1  0  0  0  0
  1  6  1  0  0  0  0
  2  3  2  0  0  0  0
  3  4  1  0  0  0  0
  4  5  2  0  0  0  0
  4 10  1  0  0  0  0
  5  6  1  0  0  0  0
  5  8  1  0  0  0  0
  6  7  2  0  0  0  0
  8  9  1  0  0  0  0
  9 10  2  0  0  0  0
M  END
>  <CHROM.1>
11.42526990,11.13234413,7.34161222,0.32488783,-1.30970064,0.91926964

>  <Name>
1u8d_lig

>  <RI>
0

>  <Rbt.Current_Directory>
/home/itssahil/PROJECTS/Mol_Feturizer/New_Systems/rnas/1u8d

>  <Rbt.Executable>
rbdock ($Id: //depot/dev/client3/rdock/2013.1/src/exe/rbdock.cxx#4 $)

>  <Rbt.Library>
libRbt.so (2013.1, Build901 2013/11/27)

>  <Rbt.Parameter_File>
/export/apps/rDock/src/rDock_2013.1_src/data/scripts/dock_solv.prm

>  <Rbt.Receptor>
prm/pocket_docking_8.prm

>  <SCORE>
-26.1197

>  <SCORE.INTER>
-26.1197

>  <SCORE.INTER.CONST>
1

>  <SCORE.INTER.POLAR>
-1.93632

>  <SCORE.INTER.ROT>
0

>  <SCORE.INTER.SOLV>
11.513

>  <SCORE.INTER.VDW>
-18.3964

>  <SCORE.INTER.norm>
-2.61197

>  <SCORE.INTRA>
0

>  <SCORE.INTRA.DIHEDRAL>
0

>  <SCORE.INTRA.DIHEDRAL.0>
0

>  <SCORE.INTRA.POLAR>
0

>  <SCORE.INTRA.POLAR.0>
0

>  <SCORE.INTRA.REPUL>
0

>  <SCORE.INTRA.REPUL.0>
0

>  <SCORE.INTRA.SOLV>
0

>  <SCORE.INTRA.SOLV.lig_0>
-13.7928

>  <SCORE.INTRA.VDW>
0

>  <SCORE.INTRA.VDW.0>
0

>  <SCORE.INTRA.norm>
0

>  <SCORE.RESTR>
0

>  <SCORE.RESTR.CAVITY>
0

>  <SCORE.RESTR.norm>
0

>  <SCORE.SYSTEM>
0

>  <SCORE.SYSTEM.CONST>
0

>  <SCORE.SYSTEM.DIHEDRAL>
0

>  <SCORE.SYSTEM.SOLV>
0

>  <SCORE.SYSTEM.norm>
0

>  <SCORE.heavy>
10

>  <SCORE.norm>
-2.61197

>  <RMSD>
0.198

$$$$
1u8d_lig
 OpenBabel11021811413D
libRbt.so/2013.1/901 2013/11/27
 10 11  0  0  0  0  0  0  0  0999 V2000
   11.8258   10.5559    9.1816 N   0  0  0  0  0  0  0  0  0  0  0  0
   11.5834   11.9247    9.3882 C   0  0  0  0  0  0  0  0  0  0  0  0
   11.2519   12.7850    8.3918 N   0  0  0  0  0  0  0  0  0  0  0  0
   11.1780   12.1843    7.1843 C   0  0  0  0  0  0  0  0  0  0  0  0
   11.4338   10.7061    6.8955 C   0  0  0  0  0  0  0  0  0  0  0  0
   11.7755    9.8581    7.9602 C   0  0  0  0  0  0  0  0  0  0  0  0
   12.0148    8.6583    7.9593 O   0  0  0  0  0  0  0  0  0  0  0  0
   11.2545   10.5314    5.5506 N   0  0  0  0  0  0  0  0  0  0  0  0
   10.9098   11.7507    5.0204 C   0  0  0  0  0  0  0  0  0  0  0  0
   10.8555   12.7655    5.9722 N   0  0  0  0  0  0  0  0  0  0  0  0
  1  2  1  0  0  0  0
  1  6  1  0  0  0  0
  2  3  2  0  0  0  0
  3  4  1  0  0  0  0
  4  5  2  0  0  0  0
  4 10  1  0  0  0  0
  5  6  1  0  0  0  0
  5  8  1  0  0  0  0
  6  7  2  0  0  0  0
  8  9  1  0  0  0  0
  9 10  2  0  0  0  0
M  END
>  <CHROM.1>
11.41728205,11.13625825,7.36178266,0.30570297,-1.31666152,0.90026352

>  <Name>
1u8d_lig

>  <RI>
0

>  <Rbt.Current_Directory>
/home/itssahil/PROJECTS/Mol_Feturizer/New_Systems/rnas/1u8d

>  <Rbt.Executable>
rbdock ($Id: //depot/dev/client3/rdock/2013.1/src/exe/rbdock.cxx#4 $)

>  <Rbt.Library>
libRbt.so (2013.1, Build901 2013/11/27)

>  <Rbt.Parameter_File>
/export/apps/rDock/src/rDock_2013.1_src/data/scripts/dock_solv.prm

>  <Rbt.Receptor>
prm/pocket_docking_8.prm

>  <SCORE>
-26.1119

>  <SCORE.INTER>
-26.1119

>  <SCORE.INTER.CONST>
1

>  <SCORE.INTER.POLAR>
-1.93632

>  <SCORE.INTER.ROT>
0

>  <SCORE.INTER.SOLV>
11.5395

>  <SCORE.INTER.VDW>
-18.4

>  <SCORE.INTER.norm>
-2.61119

>  <SCORE.INTRA>
0

>  <SCORE.INTRA.DIHEDRAL>
0

>  <SCORE.INTRA.DIHEDRAL.0>
0

>  <SCORE.INTRA.POLAR>
0

>  <SCORE.INTRA.POLAR.0>
0

>  <SCORE.INTRA.REPUL>
0

>  <SCORE.INTRA.REPUL.0>
0

>  <SCORE.INTRA.SOLV>
0

>  <SCORE.INTRA.SOLV.lig_0>
-13.7928

>  <SCORE.INTRA.VDW>
0

>  <SCORE.INTRA.VDW.0>
0

>  <SCORE.INTRA.norm>
0

>  <SCORE.RESTR>
0

>  <SCORE.RESTR.CAVITY>
0

>  <SCORE.RESTR.norm>
0

>  <SCORE.SYSTEM>
0

>  <SCORE.SYSTEM.CONST>
0

>  <SCORE.SYSTEM.DIHEDRAL>
0

>  <SCORE.SYSTEM.SOLV>
0

>  <SCORE.SYSTEM.norm>
0

>  <SCORE.heavy>
10

>  <SCORE.norm>
-2.61119

>  <RMSD>
0.198

$$$$
1u8d_lig
 OpenBabel11021811413D
libRbt.so/2013.1/901 2013/11/27
 10 11  0  0  0  0  0  0  0  0999 V2000
   11.6695   10.4472    9.2335 N   0  0  0  0  0  0  0  0  0  0  0  0
   11.3131   11.7927    9.4276 C   0  0  0  0  0  0  0  0  0  0  0  0
   10.9724   12.6305    8.4154 N   0  0  0  0  0  0  0  0  0  0  0  0
   11.0104   12.0320    7.2051 C   0  0  0  0  0  0  0  0  0  0  0  0
   11.3929   10.5789    6.9294 C   0  0  0  0  0  0  0  0  0  0  0  0
   11.7390    9.7537    8.0106 C   0  0  0  0  0  0  0  0  0  0  0  0
   12.0683    8.5755    8.0218 O   0  0  0  0  0  0  0  0  0  0  0  0
   11.3012   10.3978    5.5766 N   0  0  0  0  0  0  0  0  0  0  0  0
   10.8946   11.5902    5.0293 C   0  0  0  0  0  0  0  0  0  0  0  0
   10.7116   12.5932    5.9775 N   0  0  0  0  0  0  0  0  0  0  0  0
  1  2  1  0  0  0  0
  1  6  1  0  0  0  0
  2  3  2  0  0  0  0
  3  4  1  0  0  0  0
  4  5  2  0  0  0  0
  4 10  1  0  0  0  0
  5  6  1  0  0  0  0
  5  8  1  0  0  0  0
  6  7  2  0  0  0  0
  8  9  1  0  0  0  0
  9 10  2  0  0  0  0
M  END
>  <CHROM.1>
11.31832450,11.00415310,7.39449653,0.62198637,-1.27741531,1.20797441

>  <Name>
1u8d_lig

>  <RI>
0

>  <Rbt.Current_Directory>
/home/itssahil/PROJECTS/Mol_Feturizer/New_Systems/rnas/1u8d

>  <Rbt.Executable>
rbdock ($Id: //depot/dev/client3/rdock/2013.1/src/exe/rbdock.cxx#4 $)

>  <Rbt.Library>
libRbt.so (2013.1, Build901 2013/11/27)

>  <Rbt.Parameter_File>
/export/apps/rDock/src/rDock_2013.1_src/data/scripts/dock_solv.prm

>  <Rbt.Receptor>
prm/blind_docking_20.prm

>  <SCORE>
-25.6999

>  <SCORE.INTER>
-25.7023

>  <SCORE.INTER.CONST>
1

>  <SCORE.INTER.POLAR>
-1.93632

>  <SCORE.INTER.ROT>
0

>  <SCORE.INTER.SOLV>
11.6215

>  <SCORE.INTER.VDW>
-18.1543

>  <SCORE.INTER.norm>
-2.57023

>  <SCORE.INTRA>
0

>  <SCORE.INTRA.DIHEDRAL>
0

>  <SCORE.INTRA.DIHEDRAL.0>
0

>  <SCORE.INTRA.POLAR>
0

>  <SCORE.INTRA.POLAR.0>
0

>  <SCORE.INTRA.REPUL>
0

>  <SCORE.INTRA.REPUL.0>
0

>  <SCORE.INTRA.SOLV>
0

>  <SCORE.INTRA.SOLV.lig_0>
-13.7928

>  <SCORE.INTRA.VDW>
0

>  <SCORE.INTRA.VDW.0>
0

>  <SCORE.INTRA.norm>
0

>  <SCORE.RESTR>
0.0024341

>  <SCORE.RESTR.CAVITY>
0.0024341

>  <SCORE.RESTR.norm>
0.00024341

>  <SCORE.SYSTEM>
0

>  <SCORE.SYSTEM.CONST>
0

>  <SCORE.SYSTEM.DIHEDRAL>
0

>  <SCORE.SYSTEM.SOLV>
0

>  <SCORE.SYSTEM.norm>
0

>  <SCORE.heavy>
10

>  <SCORE.norm>
-2.56999

>  <RMSD>
0.199

$$$$
1u8d_lig
 OpenBabel11021811413D
libRbt.so/2013.1/901 2013/11/27
 10 11  0  0  0  0  0  0  0  0999 V2000
   11.8364   10.5646    9.1521 N   0  0  0  0  0  0  0  0  0  0  0  0
   11.5706   11.9293    9.3572 C   0  0  0  0  0  0  0  0  0  0  0  0
   11.2343   12.7849    8.3584 N   0  0  0  0  0  0  0  0  0  0  0  0
   11.1804   12.1838    7.1500 C   0  0  0  0  0  0  0  0  0  0  0  0
   11.4621   10.7101    6.8627 C   0  0  0  0  0  0  0  0  0  0  0  0
   11.8077    9.8669    7.9300 C   0  0  0  0  0  0  0  0  0  0  0  0
   12.0660    8.6710    7.9306 O   0  0  0  0  0  0  0  0  0  0  0  0
   11.2972   10.5333    5.5163 N   0  0  0  0  0  0  0  0  0  0  0  0
   10.9380   11.7474    4.9837 C   0  0  0  0  0  0  0  0  0  0  0  0
   10.8594   12.7606    5.9354 N   0  0  0  0  0  0  0  0  0  0  0  0
  1  2  1  0  0  0  0
  1  6  1  0  0  0  0
  2  3  2  0  0  0  0
  3  4  1  0  0  0  0
  4  5  2  0  0  0  0
  4 10  1  0  0  0  0
  5  6  1  0  0  0  0
  5  8  1  0  0  0  0
  6  7  2  0  0  0  0
  8  9  1  0  0  0  0
  9 10  2  0  0  0  0
M  END
>  <CHROM.1>
11.43464624,11.13958276,7.32905899,0.37006660,-1.30921398,0.96305662

>  <Name>
1u8d_lig

>  <RI>
0

>  <Rbt.Current_Directory>
/home/itssahil/PROJECTS/Mol_Feturizer/New_Systems/rnas/1u8d

>  <Rbt.Executable>
rbdock ($Id: //depot/dev/client3/rdock/2013.1/src/exe/rbdock.cxx#4 $)

>  <Rbt.Library>
libRbt.so (2013.1, Build901 2013/11/27)

>  <Rbt.Parameter_File>
/export/apps/rDock/src/rDock_2013.1_src/data/scripts/dock_solv.prm

>  <Rbt.Receptor>
prm/blind_docking_40.prm

>  <SCORE>
-26.136

>  <SCORE.INTER>
-26.136

>  <SCORE.INTER.CONST>
1

>  <SCORE.INTER.POLAR>
-1.93632

>  <SCORE.INTER.ROT>
0

>  <SCORE.INTER.SOLV>
11.5151

>  <SCORE.INTER.VDW>
-18.4079

>  <SCORE.INTER.norm>
-2.6136

>  <SCORE.INTRA>
0

>  <SCORE.INTRA.DIHEDRAL>
0

>  <SCORE.INTRA.DIHEDRAL.0>
0

>  <SCORE.INTRA.POLAR>
0

>  <SCORE.INTRA.POLAR.0>
0

>  <SCORE.INTRA.REPUL>
0

>  <SCORE.INTRA.REPUL.0>
0

>  <SCORE.INTRA.SOLV>
0

>  <SCORE.INTRA.SOLV.lig_0>
-13.7928

>  <SCORE.INTRA.VDW>
0

>  <SCORE.INTRA.VDW.0>
0

>  <SCORE.INTRA.norm>
0

>  <SCORE.RESTR>
0

>  <SCORE.RESTR.CAVITY>
0

>  <SCORE.RESTR.norm>
0

>  <SCORE.SYSTEM>
0

>  <SCORE.SYSTEM.CONST>
0

>  <SCORE.SYSTEM.DIHEDRAL>
0

>  <SCORE.SYSTEM.SOLV>
0

>  <SCORE.SYSTEM.norm>
0

>  <SCORE.heavy>
10

>  <SCORE.norm>
-2.6136

>  <RMSD>
0.199

$$$$
1u8d_lig
 OpenBabel11021811413D
libRbt.so/2013.1/901 2013/11/27
 10 11  0  0  0  0  0  0  0  0999 V2000
   11.8398   10.5512    9.1712 N   0  0  0  0  0  0  0  0  0  0  0  0
   11.5926   11.9184    9.3823 C   0  0  0  0  0  0  0  0  0  0  0  0
   11.2536   12.7799    8.3895 N   0  0  0  0  0  0  0  0  0  0  0  0
   11.1773   12.1819    7.1808 C   0  0  0  0  0  0  0  0  0  0  0  0
   11.4380   10.7056    6.8871 C   0  0  0  0  0  0  0  0  0  0  0  0
   11.7874    9.8562    7.9484 C   0  0  0  0  0  0  0  0  0  0  0  0
   12.0316    8.6575    7.9434 O   0  0  0  0  0  0  0  0  0  0  0  0
   11.2539   10.5334    5.5426 N   0  0  0  0  0  0  0  0  0  0  0  0
   10.9021   11.7527    5.0169 C   0  0  0  0  0  0  0  0  0  0  0  0
   10.8476   12.7648    5.9714 N   0  0  0  0  0  0  0  0  0  0  0  0
  1  2  1  0  0  0  0
  1  6  1  0  0  0  0
  2  3  2  0  0  0  0
  3  4  1  0  0  0  0
  4  5  2  0  0  0  0
  4 10  1  0  0  0  0
  5  6  1  0  0  0  0
  5  8  1  0  0  0  0
  6  7  2  0  0  0  0
  8  9  1  0  0  0  0
  9 10  2  0  0  0  0
M  END
>  <CHROM.1>
11.42157045,11.13442085,7.35459158,0.30325601,-1.31095971,0.90042998

>  <Name>
1u8d_lig

>  <RI>
0

>  <Rbt.Current_Directory>
/home/itssahil/PROJECTS/Mol_Feturizer/New_Systems/rnas/1u8d

>  <Rbt.Executable>
rbdock ($Id: //depot/dev/client3/rdock/2013.1/src/exe/rbdock.cxx#4 $)

>  <Rbt.Library>
libRbt.so (2013.1, Build901 2013/11/27)

>  <Rbt.Parameter_File>
/export/apps/rDock/src/rDock_2013.1_src/data/scripts/dock_solv.prm

>  <Rbt.Receptor>
prm/blind_docking_80.prm

>  <SCORE>
-26.1154

>  <SCORE.INTER>
-26.1154

>  <SCORE.INTER.CONST>
1

>  <SCORE.INTER.POLAR>
-1.93632

>  <SCORE.INTER.ROT>
0

>  <SCORE.INTER.SOLV>
11.514

>  <SCORE.INTER.VDW>
-18.3939

>  <SCORE.INTER.norm>
-2.61154

>  <SCORE.INTRA>
0

>  <SCORE.INTRA.DIHEDRAL>
0

>  <SCORE.INTRA.DIHEDRAL.0>
0

>  <SCORE.INTRA.POLAR>
0

>  <SCORE.INTRA.POLAR.0>
0

>  <SCORE.INTRA.REPUL>
0

>  <SCORE.INTRA.REPUL.0>
0

>  <SCORE.INTRA.SOLV>
0

>  <SCORE.INTRA.SOLV.lig_0>
-13.7928

>  <SCORE.INTRA.VDW>
0

>  <SCORE.INTRA.VDW.0>
0

>  <SCORE.INTRA.norm>
0

>  <SCORE.RESTR>
0

>  <SCORE.RESTR.CAVITY>
0

>  <SCORE.RESTR.norm>
0

>  <SCORE.SYSTEM>
0

>  <SCORE.SYSTEM.CONST>
0

>  <SCORE.SYSTEM.DIHEDRAL>
0

>  <SCORE.SYSTEM.SOLV>
0

>  <SCORE.SYSTEM.norm>
0

>  <SCORE.heavy>
10

>  <SCORE.norm>
-2.61154

>  <RMSD>
0.199

$$$$
1u8d_lig
 OpenBabel11021811413D
libRbt.so/2013.1/901 2013/11/27
 10 11  0  0  0  0  0  0  0  0999 V2000
   11.8195   10.5545    9.1920 N   0  0  0  0  0  0  0  0  0  0  0  0
   11.5920   11.9280    9.3835 C   0  0  0  0  0  0  0  0  0  0  0  0
   11.2680   12.7805    8.3781 N   0  0  0  0  0  0  0  0  0  0  0  0
   11.1857   12.1670    7.1776 C   0  0  0  0  0  0  0  0  0  0  0  0
   11.4253   10.6831    6.9050 C   0  0  0  0  0  0  0  0  0  0  0  0
   11.7597    9.8435    7.9787 C   0  0  0  0  0  0  0  0  0  0  0  0
   11.9863    8.6414    7.9909 O   0  0  0  0  0  0  0  0  0  0  0  0
   11.2418   10.4951    5.5625 N   0  0  0  0  0  0  0  0  0  0  0  0
   10.9092   11.7120    5.0191 C   0  0  0  0  0  0  0  0  0  0  0  0
   10.8673   12.7379    5.9594 N   0  0  0  0  0  0  0  0  0  0  0  0
  1  2  1  0  0  0  0
  1  6  1  0  0  0  0
  2  3  2  0  0  0  0
  3  4  1  0  0  0  0
  4  5  2  0  0  0  0
  4 10  1  0  0  0  0
  5  6  1  0  0  0  0
  5  8  1  0  0  0  0
  6  7  2  0  0  0  0
  8  9  1  0  0  0  0
  9 10  2  0  0  0  0
M  END
>  <CHROM.1>
11.41408353,11.11860639,7.36644029,0.27327395,-1.32381355,0.85758313

>  <Name>
1u8d_lig

>  <RI>
0

>  <Rbt.Current_Directory>
/home/itssahil/PROJECTS/Mol_Feturizer/New_Systems/rnas/1u8d

>  <Rbt.Executable>
rbdock ($Id: //depot/dev/client3/rdock/2013.1/src/exe/rbdock.cxx#4 $)

>  <Rbt.Library>
libRbt.so (2013.1, Build901 2013/11/27)

>  <Rbt.Parameter_File>
/export/apps/rDock/src/rDock_2013.1_src/data/scripts/dock_solv.prm

>  <Rbt.Receptor>
prm/pocket_docking_4.prm

>  <SCORE>
-26.0605

>  <SCORE.INTER>
-26.0605

>  <SCORE.INTER.CONST>
1

>  <SCORE.INTER.POLAR>
-1.93632

>  <SCORE.INTER.ROT>
0

>  <SCORE.INTER.SOLV>
11.573

>  <SCORE.INTER.VDW>
-18.3769

>  <SCORE.INTER.norm>
-2.60605

>  <SCORE.INTRA>
0

>  <SCORE.INTRA.DIHEDRAL>
0

>  <SCORE.INTRA.DIHEDRAL.0>
0

>  <SCORE.INTRA.POLAR>
0

>  <SCORE.INTRA.POLAR.0>
0

>  <SCORE.INTRA.REPUL>
0

>  <SCORE.INTRA.REPUL.0>
0

>  <SCORE.INTRA.SOLV>
0

>  <SCORE.INTRA.SOLV.lig_0>
-13.7928

>  <SCORE.INTRA.VDW>
0

>  <SCORE.INTRA.VDW.0>
0

>  <SCORE.INTRA.norm>
0

>  <SCORE.RESTR>
0

>  <SCORE.RESTR.CAVITY>
0

>  <SCORE.RESTR.norm>
0

>  <SCORE.SYSTEM>
0

>  <SCORE.SYSTEM.CONST>
0

>  <SCORE.SYSTEM.DIHEDRAL>
0

>  <SCORE.SYSTEM.SOLV>
0

>  <SCORE.SYSTEM.norm>
0

>  <SCORE.heavy>
10

>  <SCORE.norm>
-2.60605

>  <RMSD>
0.199

$$$$
1u8d_lig
 OpenBabel11021811413D
libRbt.so/2013.1/901 2013/11/27
 10 11  0  0  0  0  0  0  0  0999 V2000
   11.8345   10.5527    9.1716 N   0  0  0  0  0  0  0  0  0  0  0  0
   11.5882   11.9205    9.3799 C   0  0  0  0  0  0  0  0  0  0  0  0
   11.2531   12.7810    8.3849 N   0  0  0  0  0  0  0  0  0  0  0  0
   11.1797   12.1813    7.1768 C   0  0  0  0  0  0  0  0  0  0  0  0
   11.4396   10.7042    6.8860 C   0  0  0  0  0  0  0  0  0  0  0  0
   11.7849    9.8561    7.9495 C   0  0  0  0  0  0  0  0  0  0  0  0
   12.0279    8.6570    7.9470 O   0  0  0  0  0  0  0  0  0  0  0  0
   11.2594   10.5304    5.5412 N   0  0  0  0  0  0  0  0  0  0  0  0
   10.9105   11.7492    5.0127 C   0  0  0  0  0  0  0  0  0  0  0  0
   10.8542   12.7628    5.9656 N   0  0  0  0  0  0  0  0  0  0  0  0
  1  2  1  0  0  0  0
  1  6  1  0  0  0  0
  2  3  2  0  0  0  0
  3  4  1  0  0  0  0
  4  5  2  0  0  0  0
  4 10  1  0  0  0  0
  5  6  1  0  0  0  0
  5  8  1  0  0  0  0
  6  7  2  0  0  0  0
  8  9  1  0  0  0  0
  9 10  2  0  0  0  0
M  END
>  <CHROM.1>
11.42228619,11.13379847,7.35284954,0.30974301,-1.31367333,0.90526531

>  <Name>
1u8d_lig

>  <RI>
0

>  <Rbt.Current_Directory>
/home/itssahil/PROJECTS/Mol_Feturizer/New_Systems/rnas/1u8d

>  <Rbt.Executable>
rbdock ($Id: //depot/dev/client3/rdock/2013.1/src/exe/rbdock.cxx#4 $)

>  <Rbt.Library>
libRbt.so (2013.1, Build901 2013/11/27)

>  <Rbt.Parameter_File>
/export/apps/rDock/src/rDock_2013.1_src/data/scripts/dock_solv.prm

>  <Rbt.Receptor>
prm/pocket_docking_4.prm

>  <SCORE>
-26.1174

>  <SCORE.INTER>
-26.1174

>  <SCORE.INTER.CONST>
1

>  <SCORE.INTER.POLAR>
-1.93632

>  <SCORE.INTER.ROT>
0

>  <SCORE.INTER.SOLV>
11.5238

>  <SCORE.INTER.VDW>
-18.3985

>  <SCORE.INTER.norm>
-2.61174

>  <SCORE.INTRA>
0

>  <SCORE.INTRA.DIHEDRAL>
0

>  <SCORE.INTRA.DIHEDRAL.0>
0

>  <SCORE.INTRA.POLAR>
0

>  <SCORE.INTRA.POLAR.0>
0

>  <SCORE.INTRA.REPUL>
0

>  <SCORE.INTRA.REPUL.0>
0

>  <SCORE.INTRA.SOLV>
0

>  <SCORE.INTRA.SOLV.lig_0>
-13.7928

>  <SCORE.INTRA.VDW>
0

>  <SCORE.INTRA.VDW.0>
0

>  <SCORE.INTRA.norm>
0

>  <SCORE.RESTR>
0

>  <SCORE.RESTR.CAVITY>
0

>  <SCORE.RESTR.norm>
0

>  <SCORE.SYSTEM>
0

>  <SCORE.SYSTEM.CONST>
0

>  <SCORE.SYSTEM.DIHEDRAL>
0

>  <SCORE.SYSTEM.SOLV>
0

>  <SCORE.SYSTEM.norm>
0

>  <SCORE.heavy>
10

>  <SCORE.norm>
-2.61174

>  <RMSD>
0.199

$$$$
1u8d_lig
 OpenBabel11021811413D
libRbt.so/2013.1/901 2013/11/27
 10 11  0  0  0  0  0  0  0  0999 V2000
   11.8374   10.5620    9.1572 N   0  0  0  0  0  0  0  0  0  0  0  0
   11.5699   11.9264    9.3614 C   0  0  0  0  0  0  0  0  0  0  0  0
   11.2373   12.7820    8.3613 N   0  0  0  0  0  0  0  0  0  0  0  0
   11.1890   12.1811    7.1526 C   0  0  0  0  0  0  0  0  0  0  0  0
   11.4727   10.7075    6.8663 C   0  0  0  0  0  0  0  0  0  0  0  0
   11.8144    9.8644    7.9349 C   0  0  0  0  0  0  0  0  0  0  0  0
   12.0734    8.6687    7.9364 O   0  0  0  0  0  0  0  0  0  0  0  0
   11.3137   10.5309    5.5191 N   0  0  0  0  0  0  0  0  0  0  0  0
   10.9560   11.7448    4.9852 C   0  0  0  0  0  0  0  0  0  0  0  0
   10.8727   12.7578    5.9367 N   0  0  0  0  0  0  0  0  0  0  0  0
  1  2  1  0  0  0  0
  1  6  1  0  0  0  0
  2  3  2  0  0  0  0
  3  4  1  0  0  0  0
  4  5  2  0  0  0  0
  4 10  1  0  0  0  0
  5  6  1  0  0  0  0
  5  8  1  0  0  0  0
  6  7  2  0  0  0  0
  8  9  1  0  0  0  0
  9 10  2  0  0  0  0
M  END
>  <CHROM.1>
11.44306006,11.13696756,7.33256910,0.38504195,-1.31109491,0.97767251

>  <Name>
1u8d_lig

>  <RI>
0

>  <Rbt.Current_Directory>
/home/itssahil/PROJECTS/Mol_Feturizer/New_Systems/rnas/1u8d

>  <Rbt.Executable>
rbdock ($Id: //depot/dev/client3/rdock/2013.1/src/exe/rbdock.cxx#4 $)

>  <Rbt.Library>
libRbt.so (2013.1, Build901 2013/11/27)

>  <Rbt.Parameter_File>
/export/apps/rDock/src/rDock_2013.1_src/data/scripts/dock_solv.prm

>  <Rbt.Receptor>
prm/pocket_docking_4.prm

>  <SCORE>
-26.1142

>  <SCORE.INTER>
-26.1142

>  <SCORE.INTER.CONST>
1

>  <SCORE.INTER.POLAR>
-1.93632

>  <SCORE.INTER.ROT>
0

>  <SCORE.INTER.SOLV>
11.5185

>  <SCORE.INTER.VDW>
-18.3946

>  <SCORE.INTER.norm>
-2.61142

>  <SCORE.INTRA>
0

>  <SCORE.INTRA.DIHEDRAL>
0

>  <SCORE.INTRA.DIHEDRAL.0>
0

>  <SCORE.INTRA.POLAR>
0

>  <SCORE.INTRA.POLAR.0>
0

>  <SCORE.INTRA.REPUL>
0

>  <SCORE.INTRA.REPUL.0>
0

>  <SCORE.INTRA.SOLV>
0

>  <SCORE.INTRA.SOLV.lig_0>
-13.7928

>  <SCORE.INTRA.VDW>
0

>  <SCORE.INTRA.VDW.0>
0

>  <SCORE.INTRA.norm>
0

>  <SCORE.RESTR>
0

>  <SCORE.RESTR.CAVITY>
0

>  <SCORE.RESTR.norm>
0

>  <SCORE.SYSTEM>
0

>  <SCORE.SYSTEM.CONST>
0

>  <SCORE.SYSTEM.DIHEDRAL>
0

>  <SCORE.SYSTEM.SOLV>
0

>  <SCORE.SYSTEM.norm>
0

>  <SCORE.heavy>
10

>  <SCORE.norm>
-2.61142

>  <RMSD>
0.199

$$$$
1u8d_lig
 OpenBabel11021811413D
libRbt.so/2013.1/901 2013/11/27
 10 11  0  0  0  0  0  0  0  0999 V2000
   11.8383   10.5546    9.1682 N   0  0  0  0  0  0  0  0  0  0  0  0
   11.5913   11.9224    9.3754 C   0  0  0  0  0  0  0  0  0  0  0  0
   11.2544   12.7816    8.3799 N   0  0  0  0  0  0  0  0  0  0  0  0
   11.1798   12.1806    7.1725 C   0  0  0  0  0  0  0  0  0  0  0  0
   11.4404   10.7034    6.8830 C   0  0  0  0  0  0  0  0  0  0  0  0
   11.7877    9.8566    7.9469 C   0  0  0  0  0  0  0  0  0  0  0  0
   12.0314    8.6577    7.9454 O   0  0  0  0  0  0  0  0  0  0  0  0
   11.2585   10.5280    5.5386 N   0  0  0  0  0  0  0  0  0  0  0  0
   10.9081   11.7461    5.0093 C   0  0  0  0  0  0  0  0  0  0  0  0
   10.8523   12.7606    5.9612 N   0  0  0  0  0  0  0  0  0  0  0  0
  1  2  1  0  0  0  0
  1  6  1  0  0  0  0
  2  3  2  0  0  0  0
  3  4  1  0  0  0  0
  4  5  2  0  0  0  0
  4 10  1  0  0  0  0
  5  6  1  0  0  0  0
  5  8  1  0  0  0  0
  6  7  2  0  0  0  0
  8  9  1  0  0  0  0
  9 10  2  0  0  0  0
M  END
>  <CHROM.1>
11.42336657,11.13346787,7.34938006,0.30740538,-1.31231508,0.90194483

>  <Name>
1u8d_lig

>  <RI>
0

>  <Rbt.Current_Directory>
/home/itssahil/PROJECTS/Mol_Feturizer/New_Systems/rnas/1u8d

>  <Rbt.Executable>
rbdock ($Id: //depot/dev/client3/rdock/2013.1/src/exe/rbdock.cxx#4 $)

>  <Rbt.Library>
libRbt.so (2013.1, Build901 2013/11/27)

>  <Rbt.Parameter_File>
/export/apps/rDock/src/rDock_2013.1_src/data/scripts/dock_solv.prm

>  <Rbt.Receptor>
prm/pocket_docking_4.prm

>  <SCORE>
-26.1158

>  <SCORE.INTER>
-26.1158

>  <SCORE.INTER.CONST>
1

>  <SCORE.INTER.POLAR>
-1.93632

>  <SCORE.INTER.ROT>
0

>  <SCORE.INTER.SOLV>
11.5195

>  <SCORE.INTER.VDW>
-18.396

>  <SCORE.INTER.norm>
-2.61158

>  <SCORE.INTRA>
0

>  <SCORE.INTRA.DIHEDRAL>
0

>  <SCORE.INTRA.DIHEDRAL.0>
0

>  <SCORE.INTRA.POLAR>
0

>  <SCORE.INTRA.POLAR.0>
0

>  <SCORE.INTRA.REPUL>
0

>  <SCORE.INTRA.REPUL.0>
0

>  <SCORE.INTRA.SOLV>
0

>  <SCORE.INTRA.SOLV.lig_0>
-13.7928

>  <SCORE.INTRA.VDW>
0

>  <SCORE.INTRA.VDW.0>
0

>  <SCORE.INTRA.norm>
0

>  <SCORE.RESTR>
0

>  <SCORE.RESTR.CAVITY>
0

>  <SCORE.RESTR.norm>
0

>  <SCORE.SYSTEM>
0

>  <SCORE.SYSTEM.CONST>
0

>  <SCORE.SYSTEM.DIHEDRAL>
0

>  <SCORE.SYSTEM.SOLV>
0

>  <SCORE.SYSTEM.norm>
0

>  <SCORE.heavy>
10

>  <SCORE.norm>
-2.61158

>  <RMSD>
0.199

$$$$
1u8d_lig
 OpenBabel11021811413D
libRbt.so/2013.1/901 2013/11/27
 10 11  0  0  0  0  0  0  0  0999 V2000
   11.8385   10.5595    9.1768 N   0  0  0  0  0  0  0  0  0  0  0  0
   11.5987   11.9290    9.3823 C   0  0  0  0  0  0  0  0  0  0  0  0
   11.2625   12.7878    8.3863 N   0  0  0  0  0  0  0  0  0  0  0  0
   11.1810   12.1850    7.1804 C   0  0  0  0  0  0  0  0  0  0  0  0
   11.4336   10.7060    6.8927 C   0  0  0  0  0  0  0  0  0  0  0  0
   11.7804    9.8596    7.9571 C   0  0  0  0  0  0  0  0  0  0  0  0
   12.0185    8.6595    7.9569 O   0  0  0  0  0  0  0  0  0  0  0  0
   11.2463   10.5290    5.5493 N   0  0  0  0  0  0  0  0  0  0  0  0
   10.8999   11.7477    5.0188 C   0  0  0  0  0  0  0  0  0  0  0  0
   10.8521   12.7643    5.9690 N   0  0  0  0  0  0  0  0  0  0  0  0
  1  2  1  0  0  0  0
  1  6  1  0  0  0  0
  2  3  2  0  0  0  0
  3  4  1  0  0  0  0
  4  5  2  0  0  0  0
  4 10  1  0  0  0  0
  5  6  1  0  0  0  0
  5  8  1  0  0  0  0
  6  7  2  0  0  0  0
  8  9  1  0  0  0  0
  9 10  2  0  0  0  0
M  END
>  <CHROM.1>
11.42015294,11.13701073,7.35835078,0.28536486,-1.31387457,0.87876542

>  <Name>
1u8d_lig

>  <RI>
0

>  <Rbt.Current_Directory>
/home/itssahil/PROJECTS/Mol_Feturizer/New_Systems/rnas/1u8d

>  <Rbt.Executable>
rbdock ($Id: //depot/dev/client3/rdock/2013.1/src/exe/rbdock.cxx#4 $)

>  <Rbt.Library>
libRbt.so (2013.1, Build901 2013/11/27)

>  <Rbt.Parameter_File>
/export/apps/rDock/src/rDock_2013.1_src/data/scripts/dock_solv.prm

>  <Rbt.Receptor>
prm/pocket_docking_5.prm

>  <SCORE>
-26.1015

>  <SCORE.INTER>
-26.1015

>  <SCORE.INTER.CONST>
1

>  <SCORE.INTER.POLAR>
-1.93632

>  <SCORE.INTER.ROT>
0

>  <SCORE.INTER.SOLV>
11.527

>  <SCORE.INTER.VDW>
-18.3889

>  <SCORE.INTER.norm>
-2.61015

>  <SCORE.INTRA>
0

>  <SCORE.INTRA.DIHEDRAL>
0

>  <SCORE.INTRA.DIHEDRAL.0>
0

>  <SCORE.INTRA.POLAR>
0

>  <SCORE.INTRA.POLAR.0>
0

>  <SCORE.INTRA.REPUL>
0

>  <SCORE.INTRA.REPUL.0>
0

>  <SCORE.INTRA.SOLV>
0

>  <SCORE.INTRA.SOLV.lig_0>
-13.7928

>  <SCORE.INTRA.VDW>
0

>  <SCORE.INTRA.VDW.0>
0

>  <SCORE.INTRA.norm>
0

>  <SCORE.RESTR>
0

>  <SCORE.RESTR.CAVITY>
0

>  <SCORE.RESTR.norm>
0

>  <SCORE.SYSTEM>
0

>  <SCORE.SYSTEM.CONST>
0

>  <SCORE.SYSTEM.DIHEDRAL>
0

>  <SCORE.SYSTEM.SOLV>
0

>  <SCORE.SYSTEM.norm>
0

>  <SCORE.heavy>
10

>  <SCORE.norm>
-2.61015

>  <RMSD>
0.199

$$$$
1u8d_lig
 OpenBabel11021811413D
libRbt.so/2013.1/901 2013/11/27
 10 11  0  0  0  0  0  0  0  0999 V2000
   11.8277   10.5535    9.1736 N   0  0  0  0  0  0  0  0  0  0  0  0
   11.5801   11.9213    9.3804 C   0  0  0  0  0  0  0  0  0  0  0  0
   11.2489   12.7813    8.3837 N   0  0  0  0  0  0  0  0  0  0  0  0
   11.1807   12.1812    7.1755 C   0  0  0  0  0  0  0  0  0  0  0  0
   11.4423   10.7041    6.8864 C   0  0  0  0  0  0  0  0  0  0  0  0
   11.7834    9.8564    7.9516 C   0  0  0  0  0  0  0  0  0  0  0  0
   12.0267    8.6575    7.9505 O   0  0  0  0  0  0  0  0  0  0  0  0
   11.2676   10.5298    5.5408 N   0  0  0  0  0  0  0  0  0  0  0  0
   10.9206   11.7484    5.0105 C   0  0  0  0  0  0  0  0  0  0  0  0
   10.8600   12.7622    5.9628 N   0  0  0  0  0  0  0  0  0  0  0  0
  1  2  1  0  0  0  0
  1  6  1  0  0  0  0
  2  3  2  0  0  0  0
  3  4  1  0  0  0  0
  4  5  2  0  0  0  0
  4 10  1  0  0  0  0
  5  6  1  0  0  0  0
  5  8  1  0  0  0  0
  6  7  2  0  0  0  0
  8  9  1  0  0  0  0
  9 10  2  0  0  0  0
M  END
>  <CHROM.1>
11.42285161,11.13385440,7.35294866,0.32344287,-1.31596787,0.91818247

>  <Name>
1u8d_lig

>  <RI>
0

>  <Rbt.Current_Directory>
/home/itssahil/PROJECTS/Mol_Feturizer/New_Systems/rnas/1u8d

>  <Rbt.Executable>
rbdock ($Id: //depot/dev/client3/rdock/2013.1/src/exe/rbdock.cxx#4 $)

>  <Rbt.Library>
libRbt.so (2013.1, Build901 2013/11/27)

>  <Rbt.Parameter_File>
/export/apps/rDock/src/rDock_2013.1_src/data/scripts/dock_solv.prm

>  <Rbt.Receptor>
prm/pocket_docking_6.prm

>  <SCORE>
-26.118

>  <SCORE.INTER>
-26.118

>  <SCORE.INTER.CONST>
1

>  <SCORE.INTER.POLAR>
-1.93632

>  <SCORE.INTER.ROT>
0

>  <SCORE.INTER.SOLV>
11.533

>  <SCORE.INTER.VDW>
-18.402

>  <SCORE.INTER.norm>
-2.6118

>  <SCORE.INTRA>
0

>  <SCORE.INTRA.DIHEDRAL>
0

>  <SCORE.INTRA.DIHEDRAL.0>
0

>  <SCORE.INTRA.POLAR>
0

>  <SCORE.INTRA.POLAR.0>
0

>  <SCORE.INTRA.REPUL>
0

>  <SCORE.INTRA.REPUL.0>
0

>  <SCORE.INTRA.SOLV>
0

>  <SCORE.INTRA.SOLV.lig_0>
-13.7928

>  <SCORE.INTRA.VDW>
0

>  <SCORE.INTRA.VDW.0>
0

>  <SCORE.INTRA.norm>
0

>  <SCORE.RESTR>
0

>  <SCORE.RESTR.CAVITY>
0

>  <SCORE.RESTR.norm>
0

>  <SCORE.SYSTEM>
0

>  <SCORE.SYSTEM.CONST>
0

>  <SCORE.SYSTEM.DIHEDRAL>
0

>  <SCORE.SYSTEM.SOLV>
0

>  <SCORE.SYSTEM.norm>
0

>  <SCORE.heavy>
10

>  <SCORE.norm>
-2.6118

>  <RMSD>
0.199

$$$$
1u8d_lig
 OpenBabel11021811413D
libRbt.so/2013.1/901 2013/11/27
 10 11  0  0  0  0  0  0  0  0999 V2000
   11.8190   10.5520    9.1940 N   0  0  0  0  0  0  0  0  0  0  0  0
   11.5898   11.9249    9.3875 C   0  0  0  0  0  0  0  0  0  0  0  0
   11.2669   12.7789    8.3829 N   0  0  0  0  0  0  0  0  0  0  0  0
   11.1874   12.1675    7.1812 C   0  0  0  0  0  0  0  0  0  0  0  0
   11.4289   10.6842    6.9064 C   0  0  0  0  0  0  0  0  0  0  0  0
   11.7621    9.8431    7.9793 C   0  0  0  0  0  0  0  0  0  0  0  0
   11.9898    8.6411    7.9898 O   0  0  0  0  0  0  0  0  0  0  0  0
   11.2481   10.4985    5.5632 N   0  0  0  0  0  0  0  0  0  0  0  0
   10.9154   11.7159    5.0214 C   0  0  0  0  0  0  0  0  0  0  0  0
   10.8708   12.7402    5.9634 N   0  0  0  0  0  0  0  0  0  0  0  0
  1  2  1  0  0  0  0
  1  6  1  0  0  0  0
  2  3  2  0  0  0  0
  3  4  1  0  0  0  0
  4  5  2  0  0  0  0
  4 10  1  0  0  0  0
  5  6  1  0  0  0  0
  5  8  1  0  0  0  0
  6  7  2  0  0  0  0
  8  9  1  0  0  0  0
  9 10  2  0  0  0  0
M  END
>  <CHROM.1>
11.41646774,11.11891669,7.36861326,0.28155581,-1.32431991,0.86736856

>  <Name>
1u8d_lig

>  <RI>
0

>  <Rbt.Current_Directory>
/home/itssahil/PROJECTS/Mol_Feturizer/New_Systems/rnas/1u8d

>  <Rbt.Executable>
rbdock ($Id: //depot/dev/client3/rdock/2013.1/src/exe/rbdock.cxx#4 $)

>  <Rbt.Library>
libRbt.so (2013.1, Build901 2013/11/27)

>  <Rbt.Parameter_File>
/export/apps/rDock/src/rDock_2013.1_src/data/scripts/dock_solv.prm

>  <Rbt.Receptor>
prm/pocket_docking_8.prm

>  <SCORE>
-26.0626

>  <SCORE.INTER>
-26.0626

>  <SCORE.INTER.CONST>
1

>  <SCORE.INTER.POLAR>
-1.93632

>  <SCORE.INTER.ROT>
0

>  <SCORE.INTER.SOLV>
11.572

>  <SCORE.INTER.VDW>
-18.378

>  <SCORE.INTER.norm>
-2.60626

>  <SCORE.INTRA>
0

>  <SCORE.INTRA.DIHEDRAL>
0

>  <SCORE.INTRA.DIHEDRAL.0>
0

>  <SCORE.INTRA.POLAR>
0

>  <SCORE.INTRA.POLAR.0>
0

>  <SCORE.INTRA.REPUL>
0

>  <SCORE.INTRA.REPUL.0>
0

>  <SCORE.INTRA.SOLV>
0

>  <SCORE.INTRA.SOLV.lig_0>
-13.7928

>  <SCORE.INTRA.VDW>
0

>  <SCORE.INTRA.VDW.0>
0

>  <SCORE.INTRA.norm>
0

>  <SCORE.RESTR>
0

>  <SCORE.RESTR.CAVITY>
0

>  <SCORE.RESTR.norm>
0

>  <SCORE.SYSTEM>
0

>  <SCORE.SYSTEM.CONST>
0

>  <SCORE.SYSTEM.DIHEDRAL>
0

>  <SCORE.SYSTEM.SOLV>
0

>  <SCORE.SYSTEM.norm>
0

>  <SCORE.heavy>
10

>  <SCORE.norm>
-2.60626

>  <RMSD>
0.199

$$$$
1u8d_lig
 OpenBabel11021811413D
libRbt.so/2013.1/901 2013/11/27
 10 11  0  0  0  0  0  0  0  0999 V2000
   11.8408   10.5611    9.1524 N   0  0  0  0  0  0  0  0  0  0  0  0
   11.5731   11.9249    9.3607 C   0  0  0  0  0  0  0  0  0  0  0  0
   11.2346   12.7822    8.3642 N   0  0  0  0  0  0  0  0  0  0  0  0
   11.1805   12.1837    7.1545 C   0  0  0  0  0  0  0  0  0  0  0  0
   11.4641   10.7110    6.8637 C   0  0  0  0  0  0  0  0  0  0  0  0
   11.8121    9.8660    7.9288 C   0  0  0  0  0  0  0  0  0  0  0  0
   12.0722    8.6705    7.9264 O   0  0  0  0  0  0  0  0  0  0  0  0
   11.2983   10.5370    5.5170 N   0  0  0  0  0  0  0  0  0  0  0  0
   10.9367   11.7517    4.9874 C   0  0  0  0  0  0  0  0  0  0  0  0
   10.8574   12.7626    5.9414 N   0  0  0  0  0  0  0  0  0  0  0  0
  1  2  1  0  0  0  0
  1  6  1  0  0  0  0
  2  3  2  0  0  0  0
  3  4  1  0  0  0  0
  4  5  2  0  0  0  0
  4 10  1  0  0  0  0
  5  6  1  0  0  0  0
  5  8  1  0  0  0  0
  6  7  2  0  0  0  0
  8  9  1  0  0  0  0
  9 10  2  0  0  0  0
M  END
>  <CHROM.1>
11.43649779,11.13944752,7.33099959,0.37049604,-1.30740787,0.96568399

>  <Name>
1u8d_lig

>  <RI>
0

>  <Rbt.Current_Directory>
/home/itssahil/PROJECTS/Mol_Feturizer/New_Systems/rnas/1u8d

>  <Rbt.Executable>
rbdock ($Id: //depot/dev/client3/rdock/2013.1/src/exe/rbdock.cxx#4 $)

>  <Rbt.Library>
libRbt.so (2013.1, Build901 2013/11/27)

>  <Rbt.Parameter_File>
/export/apps/rDock/src/rDock_2013.1_src/data/scripts/dock_solv.prm

>  <Rbt.Receptor>
prm/pocket_docking_8.prm

>  <SCORE>
-26.1371

>  <SCORE.INTER>
-26.1371

>  <SCORE.INTER.CONST>
1

>  <SCORE.INTER.POLAR>
-1.93632

>  <SCORE.INTER.ROT>
0

>  <SCORE.INTER.SOLV>
11.506

>  <SCORE.INTER.VDW>
-18.4056

>  <SCORE.INTER.norm>
-2.61371

>  <SCORE.INTRA>
0

>  <SCORE.INTRA.DIHEDRAL>
0

>  <SCORE.INTRA.DIHEDRAL.0>
0

>  <SCORE.INTRA.POLAR>
0

>  <SCORE.INTRA.POLAR.0>
0

>  <SCORE.INTRA.REPUL>
0

>  <SCORE.INTRA.REPUL.0>
0

>  <SCORE.INTRA.SOLV>
0

>  <SCORE.INTRA.SOLV.lig_0>
-13.7928

>  <SCORE.INTRA.VDW>
0

>  <SCORE.INTRA.VDW.0>
0

>  <SCORE.INTRA.norm>
0

>  <SCORE.RESTR>
0

>  <SCORE.RESTR.CAVITY>
0

>  <SCORE.RESTR.norm>
0

>  <SCORE.SYSTEM>
0

>  <SCORE.SYSTEM.CONST>
0

>  <SCORE.SYSTEM.DIHEDRAL>
0

>  <SCORE.SYSTEM.SOLV>
0

>  <SCORE.SYSTEM.norm>
0

>  <SCORE.heavy>
10

>  <SCORE.norm>
-2.61371

>  <RMSD>
0.199

$$$$
1u8d_lig
 OpenBabel11021811413D
libRbt.so/2013.1/901 2013/11/27
 10 11  0  0  0  0  0  0  0  0999 V2000
   11.8447   10.5507    9.1653 N   0  0  0  0  0  0  0  0  0  0  0  0
   11.5955   11.9177    9.3753 C   0  0  0  0  0  0  0  0  0  0  0  0
   11.2556   12.7781    8.3818 N   0  0  0  0  0  0  0  0  0  0  0  0
   11.1806   12.1791    7.1734 C   0  0  0  0  0  0  0  0  0  0  0  0
   11.4434   10.7029    6.8809 C   0  0  0  0  0  0  0  0  0  0  0  0
   11.7937    9.8548    7.9428 C   0  0  0  0  0  0  0  0  0  0  0  0
   12.0396    8.6564    7.9388 O   0  0  0  0  0  0  0  0  0  0  0  0
   11.2600   10.5296    5.5364 N   0  0  0  0  0  0  0  0  0  0  0  0
   10.9067   11.7480    5.0097 C   0  0  0  0  0  0  0  0  0  0  0  0
   10.8504   12.7607    5.9635 N   0  0  0  0  0  0  0  0  0  0  0  0
  1  2  1  0  0  0  0
  1  6  1  0  0  0  0
  2  3  2  0  0  0  0
  3  4  1  0  0  0  0
  4  5  2  0  0  0  0
  4 10  1  0  0  0  0
  5  6  1  0  0  0  0
  5  8  1  0  0  0  0
  6  7  2  0  0  0  0
  8  9  1  0  0  0  0
  9 10  2  0  0  0  0
M  END
>  <CHROM.1>
11.42624617,11.13208766,7.34806296,0.30768187,-1.31005397,0.90400819

>  <Name>
1u8d_lig

>  <RI>
0

>  <Rbt.Current_Directory>
/home/itssahil/PROJECTS/Mol_Feturizer/New_Systems/rnas/1u8d

>  <Rbt.Executable>
rbdock ($Id: //depot/dev/client3/rdock/2013.1/src/exe/rbdock.cxx#4 $)

>  <Rbt.Library>
libRbt.so (2013.1, Build901 2013/11/27)

>  <Rbt.Parameter_File>
/export/apps/rDock/src/rDock_2013.1_src/data/scripts/dock_solv.prm

>  <Rbt.Receptor>
prm/blind_docking_60.prm

>  <SCORE>
-26.1164

>  <SCORE.INTER>
-26.1164

>  <SCORE.INTER.CONST>
1

>  <SCORE.INTER.POLAR>
-1.93632

>  <SCORE.INTER.ROT>
0

>  <SCORE.INTER.SOLV>
11.5087

>  <SCORE.INTER.VDW>
-18.3928

>  <SCORE.INTER.norm>
-2.61164

>  <SCORE.INTRA>
0

>  <SCORE.INTRA.DIHEDRAL>
0

>  <SCORE.INTRA.DIHEDRAL.0>
0

>  <SCORE.INTRA.POLAR>
0

>  <SCORE.INTRA.POLAR.0>
0

>  <SCORE.INTRA.REPUL>
0

>  <SCORE.INTRA.REPUL.0>
0

>  <SCORE.INTRA.SOLV>
0

>  <SCORE.INTRA.SOLV.lig_0>
-13.7928

>  <SCORE.INTRA.VDW>
0

>  <SCORE.INTRA.VDW.0>
0

>  <SCORE.INTRA.norm>
0

>  <SCORE.RESTR>
0

>  <SCORE.RESTR.CAVITY>
0

>  <SCORE.RESTR.norm>
0

>  <SCORE.SYSTEM>
0

>  <SCORE.SYSTEM.CONST>
0

>  <SCORE.SYSTEM.DIHEDRAL>
0

>  <SCORE.SYSTEM.SOLV>
0

>  <SCORE.SYSTEM.norm>
0

>  <SCORE.heavy>
10

>  <SCORE.norm>
-2.61164

>  <RMSD>
0.200

$$$$
1u8d_lig
 OpenBabel11021811413D
libRbt.so/2013.1/901 2013/11/27
 10 11  0  0  0  0  0  0  0  0999 V2000
   11.8297   10.5502    9.1808 N   0  0  0  0  0  0  0  0  0  0  0  0
   11.5883   11.9185    9.3915 C   0  0  0  0  0  0  0  0  0  0  0  0
   11.2552   12.7816    8.3981 N   0  0  0  0  0  0  0  0  0  0  0  0
   11.1786   12.1840    7.1892 C   0  0  0  0  0  0  0  0  0  0  0  0
   11.4332   10.7065    6.8959 C   0  0  0  0  0  0  0  0  0  0  0  0
   11.7766    9.8556    7.9578 C   0  0  0  0  0  0  0  0  0  0  0  0
   12.0155    8.6557    7.9532 O   0  0  0  0  0  0  0  0  0  0  0  0
   11.2510   10.5353    5.5510 N   0  0  0  0  0  0  0  0  0  0  0  0
   10.9058   11.7562    5.0247 C   0  0  0  0  0  0  0  0  0  0  0  0
   10.8539   12.7685    5.9792 N   0  0  0  0  0  0  0  0  0  0  0  0
  1  2  1  0  0  0  0
  1  6  1  0  0  0  0
  2  3  2  0  0  0  0
  3  4  1  0  0  0  0
  4  5  2  0  0  0  0
  4 10  1  0  0  0  0
  5  6  1  0  0  0  0
  5  8  1  0  0  0  0
  6  7  2  0  0  0  0
  8  9  1  0  0  0  0
  9 10  2  0  0  0  0
M  END
>  <CHROM.1>
11.41776777,11.13542036,7.36338984,0.29840629,-1.31572881,0.89582024

>  <Name>
1u8d_lig

>  <RI>
0

>  <Rbt.Current_Directory>
/home/itssahil/PROJECTS/Mol_Feturizer/New_Systems/rnas/1u8d

>  <Rbt.Executable>
rbdock ($Id: //depot/dev/client3/rdock/2013.1/src/exe/rbdock.cxx#4 $)

>  <Rbt.Library>
libRbt.so (2013.1, Build901 2013/11/27)

>  <Rbt.Parameter_File>
/export/apps/rDock/src/rDock_2013.1_src/data/scripts/dock_solv.prm

>  <Rbt.Receptor>
prm/blind_docking_60.prm

>  <SCORE>
-26.1132

>  <SCORE.INTER>
-26.1132

>  <SCORE.INTER.CONST>
1

>  <SCORE.INTER.POLAR>
-1.93632

>  <SCORE.INTER.ROT>
0

>  <SCORE.INTER.SOLV>
11.5317

>  <SCORE.INTER.VDW>
-18.3983

>  <SCORE.INTER.norm>
-2.61132

>  <SCORE.INTRA>
0

>  <SCORE.INTRA.DIHEDRAL>
0

>  <SCORE.INTRA.DIHEDRAL.0>
0

>  <SCORE.INTRA.POLAR>
0

>  <SCORE.INTRA.POLAR.0>
0

>  <SCORE.INTRA.REPUL>
0

>  <SCORE.INTRA.REPUL.0>
0

>  <SCORE.INTRA.SOLV>
0

>  <SCORE.INTRA.SOLV.lig_0>
-13.7928

>  <SCORE.INTRA.VDW>
0

>  <SCORE.INTRA.VDW.0>
0

>  <SCORE.INTRA.norm>
0

>  <SCORE.RESTR>
0

>  <SCORE.RESTR.CAVITY>
0

>  <SCORE.RESTR.norm>
0

>  <SCORE.SYSTEM>
0

>  <SCORE.SYSTEM.CONST>
0

>  <SCORE.SYSTEM.DIHEDRAL>
0

>  <SCORE.SYSTEM.SOLV>
0

>  <SCORE.SYSTEM.norm>
0

>  <SCORE.heavy>
10

>  <SCORE.norm>
-2.61132

>  <RMSD>
0.200

$$$$
1u8d_lig
 OpenBabel11021811413D
libRbt.so/2013.1/901 2013/11/27
 10 11  0  0  0  0  0  0  0  0999 V2000
   11.8316   10.5852    9.1848 N   0  0  0  0  0  0  0  0  0  0  0  0
   11.5965   11.9564    9.3836 C   0  0  0  0  0  0  0  0  0  0  0  0
   11.2678   12.8125    8.3826 N   0  0  0  0  0  0  0  0  0  0  0  0
   11.1889   12.2049    7.1789 C   0  0  0  0  0  0  0  0  0  0  0  0
   11.4367   10.7238    6.8984 C   0  0  0  0  0  0  0  0  0  0  0  0
   11.7757    9.8804    7.9677 C   0  0  0  0  0  0  0  0  0  0  0  0
   12.0089    8.6794    7.9735 O   0  0  0  0  0  0  0  0  0  0  0  0
   11.2542   10.5419    5.5549 N   0  0  0  0  0  0  0  0  0  0  0  0
   10.9150   11.7598    5.0180 C   0  0  0  0  0  0  0  0  0  0  0  0
   10.8674   12.7805    5.9638 N   0  0  0  0  0  0  0  0  0  0  0  0
  1  2  1  0  0  0  0
  1  6  1  0  0  0  0
  2  3  2  0  0  0  0
  3  4  1  0  0  0  0
  4  5  2  0  0  0  0
  4 10  1  0  0  0  0
  5  6  1  0  0  0  0
  5  8  1  0  0  0  0
  6  7  2  0  0  0  0
  8  9  1  0  0  0  0
  9 10  2  0  0  0  0
M  END
>  <CHROM.1>
11.42308747,11.15676024,7.36218861,0.28778391,-1.31964156,0.87694832

>  <Name>
1u8d_lig

>  <RI>
0

>  <Rbt.Current_Directory>
/home/itssahil/PROJECTS/Mol_Feturizer/New_Systems/rnas/1u8d

>  <Rbt.Executable>
rbdock ($Id: //depot/dev/client3/rdock/2013.1/src/exe/rbdock.cxx#4 $)

>  <Rbt.Library>
libRbt.so (2013.1, Build901 2013/11/27)

>  <Rbt.Parameter_File>
/export/apps/rDock/src/rDock_2013.1_src/data/scripts/dock_solv.prm

>  <Rbt.Receptor>
prm/pocket_docking_5.prm

>  <SCORE>
-26.0996

>  <SCORE.INTER>
-26.0996

>  <SCORE.INTER.CONST>
1

>  <SCORE.INTER.POLAR>
-1.93632

>  <SCORE.INTER.ROT>
0

>  <SCORE.INTER.SOLV>
11.5518

>  <SCORE.INTER.VDW>
-18.3959

>  <SCORE.INTER.norm>
-2.60996

>  <SCORE.INTRA>
0

>  <SCORE.INTRA.DIHEDRAL>
0

>  <SCORE.INTRA.DIHEDRAL.0>
0

>  <SCORE.INTRA.POLAR>
0

>  <SCORE.INTRA.POLAR.0>
0

>  <SCORE.INTRA.REPUL>
0

>  <SCORE.INTRA.REPUL.0>
0

>  <SCORE.INTRA.SOLV>
0

>  <SCORE.INTRA.SOLV.lig_0>
-13.7928

>  <SCORE.INTRA.VDW>
0

>  <SCORE.INTRA.VDW.0>
0

>  <SCORE.INTRA.norm>
0

>  <SCORE.RESTR>
0

>  <SCORE.RESTR.CAVITY>
0

>  <SCORE.RESTR.norm>
0

>  <SCORE.SYSTEM>
0

>  <SCORE.SYSTEM.CONST>
0

>  <SCORE.SYSTEM.DIHEDRAL>
0

>  <SCORE.SYSTEM.SOLV>
0

>  <SCORE.SYSTEM.norm>
0

>  <SCORE.heavy>
10

>  <SCORE.norm>
-2.60996

>  <RMSD>
0.200

$$$$
1u8d_lig
 OpenBabel11021811413D
libRbt.so/2013.1/901 2013/11/27
 10 11  0  0  0  0  0  0  0  0999 V2000
   11.8348   10.5517    9.1706 N   0  0  0  0  0  0  0  0  0  0  0  0
   11.5882   11.9195    9.3789 C   0  0  0  0  0  0  0  0  0  0  0  0
   11.2537   12.7800    8.3838 N   0  0  0  0  0  0  0  0  0  0  0  0
   11.1811   12.1804    7.1756 C   0  0  0  0  0  0  0  0  0  0  0  0
   11.4414   10.7035    6.8848 C   0  0  0  0  0  0  0  0  0  0  0  0
   11.7861    9.8552    7.9485 C   0  0  0  0  0  0  0  0  0  0  0  0
   12.0292    8.6562    7.9460 O   0  0  0  0  0  0  0  0  0  0  0  0
   11.2620   10.5297    5.5399 N   0  0  0  0  0  0  0  0  0  0  0  0
   10.9133   11.7486    5.0113 C   0  0  0  0  0  0  0  0  0  0  0  0
   10.8563   12.7621    5.9642 N   0  0  0  0  0  0  0  0  0  0  0  0
  1  2  1  0  0  0  0
  1  6  1  0  0  0  0
  2  3  2  0  0  0  0
  3  4  1  0  0  0  0
  4  5  2  0  0  0  0
  4 10  1  0  0  0  0
  5  6  1  0  0  0  0
  5  8  1  0  0  0  0
  6  7  2  0  0  0  0
  8  9  1  0  0  0  0
  9 10  2  0  0  0  0
M  END
>  <CHROM.1>
11.42372738,11.13296667,7.35166584,0.31201842,-1.31396099,0.90757258

>  <Name>
1u8d_lig

>  <RI>
0

>  <Rbt.Current_Directory>
/home/itssahil/PROJECTS/Mol_Feturizer/New_Systems/rnas/1u8d

>  <Rbt.Executable>
rbdock ($Id: //depot/dev/client3/rdock/2013.1/src/exe/rbdock.cxx#4 $)

>  <Rbt.Library>
libRbt.so (2013.1, Build901 2013/11/27)

>  <Rbt.Parameter_File>
/export/apps/rDock/src/rDock_2013.1_src/data/scripts/dock_solv.prm

>  <Rbt.Receptor>
prm/pocket_docking_5.prm

>  <SCORE>
-26.1181

>  <SCORE.INTER>
-26.1181

>  <SCORE.INTER.CONST>
1

>  <SCORE.INTER.POLAR>
-1.93632

>  <SCORE.INTER.ROT>
0

>  <SCORE.INTER.SOLV>
11.5237

>  <SCORE.INTER.VDW>
-18.3989

>  <SCORE.INTER.norm>
-2.61181

>  <SCORE.INTRA>
0

>  <SCORE.INTRA.DIHEDRAL>
0

>  <SCORE.INTRA.DIHEDRAL.0>
0

>  <SCORE.INTRA.POLAR>
0

>  <SCORE.INTRA.POLAR.0>
0

>  <SCORE.INTRA.REPUL>
0

>  <SCORE.INTRA.REPUL.0>
0

>  <SCORE.INTRA.SOLV>
0

>  <SCORE.INTRA.SOLV.lig_0>
-13.7928

>  <SCORE.INTRA.VDW>
0

>  <SCORE.INTRA.VDW.0>
0

>  <SCORE.INTRA.norm>
0

>  <SCORE.RESTR>
0

>  <SCORE.RESTR.CAVITY>
0

>  <SCORE.RESTR.norm>
0

>  <SCORE.SYSTEM>
0

>  <SCORE.SYSTEM.CONST>
0

>  <SCORE.SYSTEM.DIHEDRAL>
0

>  <SCORE.SYSTEM.SOLV>
0

>  <SCORE.SYSTEM.norm>
0

>  <SCORE.heavy>
10

>  <SCORE.norm>
-2.61181

>  <RMSD>
0.200

$$$$
1u8d_lig
 OpenBabel11021811413D
libRbt.so/2013.1/901 2013/11/27
 10 11  0  0  0  0  0  0  0  0999 V2000
   11.8327   10.5466    9.1754 N   0  0  0  0  0  0  0  0  0  0  0  0
   11.5966   11.9175    9.3756 C   0  0  0  0  0  0  0  0  0  0  0  0
   11.2622   12.7733    8.3764 N   0  0  0  0  0  0  0  0  0  0  0  0
   11.1787   12.1659    7.1729 C   0  0  0  0  0  0  0  0  0  0  0  0
   11.4273   10.6852    6.8909 C   0  0  0  0  0  0  0  0  0  0  0  0
   11.7723    9.8420    7.9585 C   0  0  0  0  0  0  0  0  0  0  0  0
   12.0073    8.6414    7.9629 O   0  0  0  0  0  0  0  0  0  0  0  0
   11.2390   10.5034    5.5482 N   0  0  0  0  0  0  0  0  0  0  0  0
   10.8955   11.7209    5.0132 C   0  0  0  0  0  0  0  0  0  0  0  0
   10.8509   12.7413    5.9594 N   0  0  0  0  0  0  0  0  0  0  0  0
  1  2  1  0  0  0  0
  1  6  1  0  0  0  0
  2  3  2  0  0  0  0
  3  4  1  0  0  0  0
  4  5  2  0  0  0  0
  4 10  1  0  0  0  0
  5  6  1  0  0  0  0
  5  8  1  0  0  0  0
  6  7  2  0  0  0  0
  8  9  1  0  0  0  0
  9 10  2  0  0  0  0
M  END
>  <CHROM.1>
11.41516385,11.11805373,7.35485706,0.27758337,-1.31562783,0.86731674

>  <Name>
1u8d_lig

>  <RI>
0

>  <Rbt.Current_Directory>
/home/itssahil/PROJECTS/Mol_Feturizer/New_Systems/rnas/1u8d

>  <Rbt.Executable>
rbdock ($Id: //depot/dev/client3/rdock/2013.1/src/exe/rbdock.cxx#4 $)

>  <Rbt.Library>
libRbt.so (2013.1, Build901 2013/11/27)

>  <Rbt.Parameter_File>
/export/apps/rDock/src/rDock_2013.1_src/data/scripts/dock_solv.prm

>  <Rbt.Receptor>
prm/pocket_docking_6.prm

>  <SCORE>
-26.1053

>  <SCORE.INTER>
-26.1053

>  <SCORE.INTER.CONST>
1

>  <SCORE.INTER.POLAR>
-1.93632

>  <SCORE.INTER.ROT>
0

>  <SCORE.INTER.SOLV>
11.5372

>  <SCORE.INTER.VDW>
-18.3949

>  <SCORE.INTER.norm>
-2.61053

>  <SCORE.INTRA>
0

>  <SCORE.INTRA.DIHEDRAL>
0

>  <SCORE.INTRA.DIHEDRAL.0>
0

>  <SCORE.INTRA.POLAR>
0

>  <SCORE.INTRA.POLAR.0>
0

>  <SCORE.INTRA.REPUL>
0

>  <SCORE.INTRA.REPUL.0>
0

>  <SCORE.INTRA.SOLV>
0

>  <SCORE.INTRA.SOLV.lig_0>
-13.7928

>  <SCORE.INTRA.VDW>
0

>  <SCORE.INTRA.VDW.0>
0

>  <SCORE.INTRA.norm>
0

>  <SCORE.RESTR>
0

>  <SCORE.RESTR.CAVITY>
0

>  <SCORE.RESTR.norm>
0

>  <SCORE.SYSTEM>
0

>  <SCORE.SYSTEM.CONST>
0

>  <SCORE.SYSTEM.DIHEDRAL>
0

>  <SCORE.SYSTEM.SOLV>
0

>  <SCORE.SYSTEM.norm>
0

>  <SCORE.heavy>
10

>  <SCORE.norm>
-2.61053

>  <RMSD>
0.200

$$$$
1u8d_lig
 OpenBabel11021811413D
libRbt.so/2013.1/901 2013/11/27
 10 11  0  0  0  0  0  0  0  0999 V2000
   11.8429   10.5533    9.1597 N   0  0  0  0  0  0  0  0  0  0  0  0
   11.5903   11.9200    9.3674 C   0  0  0  0  0  0  0  0  0  0  0  0
   11.2504   12.7783    8.3722 N   0  0  0  0  0  0  0  0  0  0  0  0
   11.1789   12.1776    7.1645 C   0  0  0  0  0  0  0  0  0  0  0  0
   11.4455   10.7016    6.8744 C   0  0  0  0  0  0  0  0  0  0  0  0
   11.7956    9.8557    7.9381 C   0  0  0  0  0  0  0  0  0  0  0  0
   12.0442    8.6578    7.9361 O   0  0  0  0  0  0  0  0  0  0  0  0
   11.2649   10.5261    5.5298 N   0  0  0  0  0  0  0  0  0  0  0  0
   10.9099   11.7430    5.0009 C   0  0  0  0  0  0  0  0  0  0  0  0
   10.8496   12.7569    5.9532 N   0  0  0  0  0  0  0  0  0  0  0  0
  1  2  1  0  0  0  0
  1  6  1  0  0  0  0
  2  3  2  0  0  0  0
  3  4  1  0  0  0  0
  4  5  2  0  0  0  0
  4 10  1  0  0  0  0
  5  6  1  0  0  0  0
  5  8  1  0  0  0  0
  6  7  2  0  0  0  0
  8  9  1  0  0  0  0
  9 10  2  0  0  0  0
M  END
>  <CHROM.1>
11.42648511,11.13136514,7.34094806,0.31843272,-1.30945994,0.91307704

>  <Name>
1u8d_lig

>  <RI>
0

>  <Rbt.Current_Directory>
/home/itssahil/PROJECTS/Mol_Feturizer/New_Systems/rnas/1u8d

>  <Rbt.Executable>
rbdock ($Id: //depot/dev/client3/rdock/2013.1/src/exe/rbdock.cxx#4 $)

>  <Rbt.Library>
libRbt.so (2013.1, Build901 2013/11/27)

>  <Rbt.Parameter_File>
/export/apps/rDock/src/rDock_2013.1_src/data/scripts/dock_solv.prm

>  <Rbt.Receptor>
prm/pocket_docking_6.prm

>  <SCORE>
-26.1192

>  <SCORE.INTER>
-26.1192

>  <SCORE.INTER.CONST>
1

>  <SCORE.INTER.POLAR>
-1.93632

>  <SCORE.INTER.ROT>
0

>  <SCORE.INTER.SOLV>
11.5098

>  <SCORE.INTER.VDW>
-18.395

>  <SCORE.INTER.norm>
-2.61192

>  <SCORE.INTRA>
0

>  <SCORE.INTRA.DIHEDRAL>
0

>  <SCORE.INTRA.DIHEDRAL.0>
0

>  <SCORE.INTRA.POLAR>
0

>  <SCORE.INTRA.POLAR.0>
0

>  <SCORE.INTRA.REPUL>
0

>  <SCORE.INTRA.REPUL.0>
0

>  <SCORE.INTRA.SOLV>
0

>  <SCORE.INTRA.SOLV.lig_0>
-13.7928

>  <SCORE.INTRA.VDW>
0

>  <SCORE.INTRA.VDW.0>
0

>  <SCORE.INTRA.norm>
0

>  <SCORE.RESTR>
0

>  <SCORE.RESTR.CAVITY>
0

>  <SCORE.RESTR.norm>
0

>  <SCORE.SYSTEM>
0

>  <SCORE.SYSTEM.CONST>
0

>  <SCORE.SYSTEM.DIHEDRAL>
0

>  <SCORE.SYSTEM.SOLV>
0

>  <SCORE.SYSTEM.norm>
0

>  <SCORE.heavy>
10

>  <SCORE.norm>
-2.61192

>  <RMSD>
0.200

$$$$
1u8d_lig
 OpenBabel11021811413D
libRbt.so/2013.1/901 2013/11/27
 10 11  0  0  0  0  0  0  0  0999 V2000
   11.8275   10.5431    9.1529 N   0  0  0  0  0  0  0  0  0  0  0  0
   11.5551   11.9055    9.3645 C   0  0  0  0  0  0  0  0  0  0  0  0
   11.2210   12.7656    8.3689 N   0  0  0  0  0  0  0  0  0  0  0  0
   11.1763   12.1714    7.1567 C   0  0  0  0  0  0  0  0  0  0  0  0
   11.4653   10.7004    6.8624 C   0  0  0  0  0  0  0  0  0  0  0  0
   11.8084    9.8524    7.9267 C   0  0  0  0  0  0  0  0  0  0  0  0
   12.0713    8.6576    7.9218 O   0  0  0  0  0  0  0  0  0  0  0  0
   11.3087   10.5309    5.5140 N   0  0  0  0  0  0  0  0  0  0  0  0
   10.9476   11.7466    4.9865 C   0  0  0  0  0  0  0  0  0  0  0  0
   10.8598   12.7539    5.9436 N   0  0  0  0  0  0  0  0  0  0  0  0
  1  2  1  0  0  0  0
  1  6  1  0  0  0  0
  2  3  2  0  0  0  0
  3  4  1  0  0  0  0
  4  5  2  0  0  0  0
  4 10  1  0  0  0  0
  5  6  1  0  0  0  0
  5  8  1  0  0  0  0
  6  7  2  0  0  0  0
  8  9  1  0  0  0  0
  9 10  2  0  0  0  0
M  END
>  <CHROM.1>
11.43362617,11.12710774,7.33107977,0.39651282,-1.30906229,0.99441850

>  <Name>
1u8d_lig

>  <RI>
0

>  <Rbt.Current_Directory>
/home/itssahil/PROJECTS/Mol_Feturizer/New_Systems/rnas/1u8d

>  <Rbt.Executable>
rbdock ($Id: //depot/dev/client3/rdock/2013.1/src/exe/rbdock.cxx#4 $)

>  <Rbt.Library>
libRbt.so (2013.1, Build901 2013/11/27)

>  <Rbt.Parameter_File>
/export/apps/rDock/src/rDock_2013.1_src/data/scripts/dock_solv.prm

>  <Rbt.Receptor>
prm/pocket_docking_6.prm

>  <SCORE>
-26.1088

>  <SCORE.INTER>
-26.1088

>  <SCORE.INTER.CONST>
1

>  <SCORE.INTER.POLAR>
-1.93632

>  <SCORE.INTER.ROT>
0

>  <SCORE.INTER.SOLV>
11.5164

>  <SCORE.INTER.VDW>
-18.3903

>  <SCORE.INTER.norm>
-2.61088

>  <SCORE.INTRA>
0

>  <SCORE.INTRA.DIHEDRAL>
0

>  <SCORE.INTRA.DIHEDRAL.0>
0

>  <SCORE.INTRA.POLAR>
0

>  <SCORE.INTRA.POLAR.0>
0

>  <SCORE.INTRA.REPUL>
0

>  <SCORE.INTRA.REPUL.0>
0

>  <SCORE.INTRA.SOLV>
0

>  <SCORE.INTRA.SOLV.lig_0>
-13.7928

>  <SCORE.INTRA.VDW>
0

>  <SCORE.INTRA.VDW.0>
0

>  <SCORE.INTRA.norm>
0

>  <SCORE.RESTR>
0

>  <SCORE.RESTR.CAVITY>
0

>  <SCORE.RESTR.norm>
0

>  <SCORE.SYSTEM>
0

>  <SCORE.SYSTEM.CONST>
0

>  <SCORE.SYSTEM.DIHEDRAL>
0

>  <SCORE.SYSTEM.SOLV>
0

>  <SCORE.SYSTEM.norm>
0

>  <SCORE.heavy>
10

>  <SCORE.norm>
-2.61088

>  <RMSD>
0.200

$$$$
1u8d_lig
 OpenBabel11021811413D
libRbt.so/2013.1/901 2013/11/27
 10 11  0  0  0  0  0  0  0  0999 V2000
   11.8104   10.5429    9.1615 N   0  0  0  0  0  0  0  0  0  0  0  0
   11.5514   11.9075    9.3756 C   0  0  0  0  0  0  0  0  0  0  0  0
   11.2192   12.7713    8.3825 N   0  0  0  0  0  0  0  0  0  0  0  0
   11.1621   12.1784    7.1702 C   0  0  0  0  0  0  0  0  0  0  0  0
   11.4363   10.7051    6.8732 C   0  0  0  0  0  0  0  0  0  0  0  0
   11.7779    9.8533    7.9349 C   0  0  0  0  0  0  0  0  0  0  0  0
   12.0302    8.6562    7.9275 O   0  0  0  0  0  0  0  0  0  0  0  0
   11.2702   10.5380    5.5257 N   0  0  0  0  0  0  0  0  0  0  0  0
   10.9170   11.7573    5.0011 C   0  0  0  0  0  0  0  0  0  0  0  0
   10.8437   12.7647    5.9594 N   0  0  0  0  0  0  0  0  0  0  0  0
  1  2  1  0  0  0  0
  1  6  1  0  0  0  0
  2  3  2  0  0  0  0
  3  4  1  0  0  0  0
  4  5  2  0  0  0  0
  4 10  1  0  0  0  0
  5  6  1  0  0  0  0
  5  8  1  0  0  0  0
  6  7  2  0  0  0  0
  8  9  1  0  0  0  0
  9 10  2  0  0  0  0
M  END
>  <CHROM.1>
11.41110700,11.13173280,7.34235259,0.35814227,-1.31318579,0.95807219

>  <Name>
1u8d_lig

>  <RI>
0

>  <Rbt.Current_Directory>
/home/itssahil/PROJECTS/Mol_Feturizer/New_Systems/rnas/1u8d

>  <Rbt.Executable>
rbdock ($Id: //depot/dev/client3/rdock/2013.1/src/exe/rbdock.cxx#4 $)

>  <Rbt.Library>
libRbt.so (2013.1, Build901 2013/11/27)

>  <Rbt.Parameter_File>
/export/apps/rDock/src/rDock_2013.1_src/data/scripts/dock_solv.prm

>  <Rbt.Receptor>
prm/pocket_docking_6.prm

>  <SCORE>
-26.087

>  <SCORE.INTER>
-26.087

>  <SCORE.INTER.CONST>
1

>  <SCORE.INTER.POLAR>
-1.93632

>  <SCORE.INTER.ROT>
0

>  <SCORE.INTER.SOLV>
11.5354

>  <SCORE.INTER.VDW>
-18.3821

>  <SCORE.INTER.norm>
-2.6087

>  <SCORE.INTRA>
0

>  <SCORE.INTRA.DIHEDRAL>
0

>  <SCORE.INTRA.DIHEDRAL.0>
0

>  <SCORE.INTRA.POLAR>
0

>  <SCORE.INTRA.POLAR.0>
0

>  <SCORE.INTRA.REPUL>
0

>  <SCORE.INTRA.REPUL.0>
0

>  <SCORE.INTRA.SOLV>
0

>  <SCORE.INTRA.SOLV.lig_0>
-13.7928

>  <SCORE.INTRA.VDW>
0

>  <SCORE.INTRA.VDW.0>
0

>  <SCORE.INTRA.norm>
0

>  <SCORE.RESTR>
0

>  <SCORE.RESTR.CAVITY>
0

>  <SCORE.RESTR.norm>
0

>  <SCORE.SYSTEM>
0

>  <SCORE.SYSTEM.CONST>
0

>  <SCORE.SYSTEM.DIHEDRAL>
0

>  <SCORE.SYSTEM.SOLV>
0

>  <SCORE.SYSTEM.norm>
0

>  <SCORE.heavy>
10

>  <SCORE.norm>
-2.6087

>  <RMSD>
0.200

$$$$
1u8d_lig
 OpenBabel11021811413D
libRbt.so/2013.1/901 2013/11/27
 10 11  0  0  0  0  0  0  0  0999 V2000
   11.8080   10.5164    9.1763 N   0  0  0  0  0  0  0  0  0  0  0  0
   11.5611   11.8855    9.3753 C   0  0  0  0  0  0  0  0  0  0  0  0
   11.2333   12.7406    8.3732 N   0  0  0  0  0  0  0  0  0  0  0  0
   11.1679   12.1342    7.1680 C   0  0  0  0  0  0  0  0  0  0  0  0
   11.4290   10.6554    6.8873 C   0  0  0  0  0  0  0  0  0  0  0  0
   11.7664    9.8130    7.9578 C   0  0  0  0  0  0  0  0  0  0  0  0
   12.0087    8.6138    7.9637 O   0  0  0  0  0  0  0  0  0  0  0  0
   11.2578   10.4742    5.5422 N   0  0  0  0  0  0  0  0  0  0  0  0
   10.9133   11.6902    5.0046 C   0  0  0  0  0  0  0  0  0  0  0  0
   10.8510   12.7091    5.9514 N   0  0  0  0  0  0  0  0  0  0  0  0
  1  2  1  0  0  0  0
  1  6  1  0  0  0  0
  2  3  2  0  0  0  0
  3  4  1  0  0  0  0
  4  5  2  0  0  0  0
  4 10  1  0  0  0  0
  5  6  1  0  0  0  0
  5  8  1  0  0  0  0
  6  7  2  0  0  0  0
  8  9  1  0  0  0  0
  9 10  2  0  0  0  0
M  END
>  <CHROM.1>
11.40865782,11.08757233,7.35155492,0.32994110,-1.31831206,0.91923279

>  <Name>
1u8d_lig

>  <RI>
0

>  <Rbt.Current_Directory>
/home/itssahil/PROJECTS/Mol_Feturizer/New_Systems/rnas/1u8d

>  <Rbt.Executable>
rbdock ($Id: //depot/dev/client3/rdock/2013.1/src/exe/rbdock.cxx#4 $)

>  <Rbt.Library>
libRbt.so (2013.1, Build901 2013/11/27)

>  <Rbt.Parameter_File>
/export/apps/rDock/src/rDock_2013.1_src/data/scripts/dock_solv.prm

>  <Rbt.Receptor>
prm/pocket_docking_7.prm

>  <SCORE>
-26.0805

>  <SCORE.INTER>
-26.0805

>  <SCORE.INTER.CONST>
1

>  <SCORE.INTER.POLAR>
-1.93632

>  <SCORE.INTER.ROT>
0

>  <SCORE.INTER.SOLV>
11.5593

>  <SCORE.INTER.VDW>
-18.3857

>  <SCORE.INTER.norm>
-2.60805

>  <SCORE.INTRA>
0

>  <SCORE.INTRA.DIHEDRAL>
0

>  <SCORE.INTRA.DIHEDRAL.0>
0

>  <SCORE.INTRA.POLAR>
0

>  <SCORE.INTRA.POLAR.0>
0

>  <SCORE.INTRA.REPUL>
0

>  <SCORE.INTRA.REPUL.0>
0

>  <SCORE.INTRA.SOLV>
0

>  <SCORE.INTRA.SOLV.lig_0>
-13.7928

>  <SCORE.INTRA.VDW>
0

>  <SCORE.INTRA.VDW.0>
0

>  <SCORE.INTRA.norm>
0

>  <SCORE.RESTR>
0

>  <SCORE.RESTR.CAVITY>
0

>  <SCORE.RESTR.norm>
0

>  <SCORE.SYSTEM>
0

>  <SCORE.SYSTEM.CONST>
0

>  <SCORE.SYSTEM.DIHEDRAL>
0

>  <SCORE.SYSTEM.SOLV>
0

>  <SCORE.SYSTEM.norm>
0

>  <SCORE.heavy>
10

>  <SCORE.norm>
-2.60805

>  <RMSD>
0.200

$$$$
1u8d_lig
 OpenBabel11021811413D
libRbt.so/2013.1/901 2013/11/27
 10 11  0  0  0  0  0  0  0  0999 V2000
   11.8172   10.5574    9.1926 N   0  0  0  0  0  0  0  0  0  0  0  0
   11.5927   11.9313    9.3845 C   0  0  0  0  0  0  0  0  0  0  0  0
   11.2690   12.7846    8.3797 N   0  0  0  0  0  0  0  0  0  0  0  0
   11.1838   12.1714    7.1792 C   0  0  0  0  0  0  0  0  0  0  0  0
   11.4201   10.6871    6.9061 C   0  0  0  0  0  0  0  0  0  0  0  0
   11.7543    9.8467    7.9793 C   0  0  0  0  0  0  0  0  0  0  0  0
   11.9786    8.6441    7.9910 O   0  0  0  0  0  0  0  0  0  0  0  0
   11.2343   10.4996    5.5638 N   0  0  0  0  0  0  0  0  0  0  0  0
   10.9034   11.7171    5.0211 C   0  0  0  0  0  0  0  0  0  0  0  0
   10.8648   12.7431    5.9615 N   0  0  0  0  0  0  0  0  0  0  0  0
  1  2  1  0  0  0  0
  1  6  1  0  0  0  0
  2  3  2  0  0  0  0
  3  4  1  0  0  0  0
  4  5  2  0  0  0  0
  4 10  1  0  0  0  0
  5  6  1  0  0  0  0
  5  8  1  0  0  0  0
  6  7  2  0  0  0  0
  8  9  1  0  0  0  0
  9 10  2  0  0  0  0
M  END
>  <CHROM.1>
11.41038195,11.12251549,7.36761362,0.26366042,-1.32438137,0.84836418

>  <Name>
1u8d_lig

>  <RI>
0

>  <Rbt.Current_Directory>
/home/itssahil/PROJECTS/Mol_Feturizer/New_Systems/rnas/1u8d

>  <Rbt.Executable>
rbdock ($Id: //depot/dev/client3/rdock/2013.1/src/exe/rbdock.cxx#4 $)

>  <Rbt.Library>
libRbt.so (2013.1, Build901 2013/11/27)

>  <Rbt.Parameter_File>
/export/apps/rDock/src/rDock_2013.1_src/data/scripts/dock_solv.prm

>  <Rbt.Receptor>
prm/pocket_docking_8.prm

>  <SCORE>
-26.0569

>  <SCORE.INTER>
-26.0569

>  <SCORE.INTER.CONST>
1

>  <SCORE.INTER.POLAR>
-1.93632

>  <SCORE.INTER.ROT>
0

>  <SCORE.INTER.SOLV>
11.5771

>  <SCORE.INTER.VDW>
-18.3759

>  <SCORE.INTER.norm>
-2.60569

>  <SCORE.INTRA>
0

>  <SCORE.INTRA.DIHEDRAL>
0

>  <SCORE.INTRA.DIHEDRAL.0>
0

>  <SCORE.INTRA.POLAR>
0

>  <SCORE.INTRA.POLAR.0>
0

>  <SCORE.INTRA.REPUL>
0

>  <SCORE.INTRA.REPUL.0>
0

>  <SCORE.INTRA.SOLV>
0

>  <SCORE.INTRA.SOLV.lig_0>
-13.7928

>  <SCORE.INTRA.VDW>
0

>  <SCORE.INTRA.VDW.0>
0

>  <SCORE.INTRA.norm>
0

>  <SCORE.RESTR>
0

>  <SCORE.RESTR.CAVITY>
0

>  <SCORE.RESTR.norm>
0

>  <SCORE.SYSTEM>
0

>  <SCORE.SYSTEM.CONST>
0

>  <SCORE.SYSTEM.DIHEDRAL>
0

>  <SCORE.SYSTEM.SOLV>
0

>  <SCORE.SYSTEM.norm>
0

>  <SCORE.heavy>
10

>  <SCORE.norm>
-2.60569

>  <RMSD>
0.200

$$$$
1u8d_lig
 OpenBabel11021811413D
libRbt.so/2013.1/901 2013/11/27
 10 11  0  0  0  0  0  0  0  0999 V2000
   11.7044   10.4758    9.1665 N   0  0  0  0  0  0  0  0  0  0  0  0
   11.3468   11.8223    9.3514 C   0  0  0  0  0  0  0  0  0  0  0  0
   10.9907   12.6487    8.3351 N   0  0  0  0  0  0  0  0  0  0  0  0
   11.0146   12.0377    7.1307 C   0  0  0  0  0  0  0  0  0  0  0  0
   11.3975   10.5829    6.8650 C   0  0  0  0  0  0  0  0  0  0  0  0
   11.7599    9.7699    7.9501 C   0  0  0  0  0  0  0  0  0  0  0  0
   12.0925    8.5927    7.9691 O   0  0  0  0  0  0  0  0  0  0  0  0
   11.2886   10.3876    5.5155 N   0  0  0  0  0  0  0  0  0  0  0  0
   10.8717   11.5732    4.9613 C   0  0  0  0  0  0  0  0  0  0  0  0
   10.6983   12.5854    5.9014 N   0  0  0  0  0  0  0  0  0  0  0  0
  1  2  1  0  0  0  0
  1  6  1  0  0  0  0
  2  3  2  0  0  0  0
  3  4  1  0  0  0  0
  4  5  2  0  0  0  0
  4 10  1  0  0  0  0
  5  6  1  0  0  0  0
  5  8  1  0  0  0  0
  6  7  2  0  0  0  0
  8  9  1  0  0  0  0
  9 10  2  0  0  0  0
M  END
>  <CHROM.1>
11.32778495,11.01275789,7.32664004,0.58416734,-1.27001573,1.16146573

>  <Name>
1u8d_lig

>  <RI>
0

>  <Rbt.Current_Directory>
/home/itssahil/PROJECTS/Mol_Feturizer/New_Systems/rnas/1u8d

>  <Rbt.Executable>
rbdock ($Id: //depot/dev/client3/rdock/2013.1/src/exe/rbdock.cxx#4 $)

>  <Rbt.Library>
libRbt.so (2013.1, Build901 2013/11/27)

>  <Rbt.Parameter_File>
/export/apps/rDock/src/rDock_2013.1_src/data/scripts/dock_solv.prm

>  <Rbt.Receptor>
prm/blind_docking_20.prm

>  <SCORE>
-25.7779

>  <SCORE.INTER>
-25.7779

>  <SCORE.INTER.CONST>
1

>  <SCORE.INTER.POLAR>
-1.93632

>  <SCORE.INTER.ROT>
0

>  <SCORE.INTER.SOLV>
11.5879

>  <SCORE.INTER.VDW>
-18.1935

>  <SCORE.INTER.norm>
-2.57779

>  <SCORE.INTRA>
0

>  <SCORE.INTRA.DIHEDRAL>
0

>  <SCORE.INTRA.DIHEDRAL.0>
0

>  <SCORE.INTRA.POLAR>
0

>  <SCORE.INTRA.POLAR.0>
0

>  <SCORE.INTRA.REPUL>
0

>  <SCORE.INTRA.REPUL.0>
0

>  <SCORE.INTRA.SOLV>
0

>  <SCORE.INTRA.SOLV.lig_0>
-13.7928

>  <SCORE.INTRA.VDW>
0

>  <SCORE.INTRA.VDW.0>
0

>  <SCORE.INTRA.norm>
0

>  <SCORE.RESTR>
0

>  <SCORE.RESTR.CAVITY>
0

>  <SCORE.RESTR.norm>
0

>  <SCORE.SYSTEM>
0

>  <SCORE.SYSTEM.CONST>
0

>  <SCORE.SYSTEM.DIHEDRAL>
0

>  <SCORE.SYSTEM.SOLV>
0

>  <SCORE.SYSTEM.norm>
0

>  <SCORE.heavy>
10

>  <SCORE.norm>
-2.57779

>  <RMSD>
0.201

$$$$
1u8d_lig
 OpenBabel11021811413D
libRbt.so/2013.1/901 2013/11/27
 10 11  0  0  0  0  0  0  0  0999 V2000
   11.7719   10.5079    9.1861 N   0  0  0  0  0  0  0  0  0  0  0  0
   11.5116   11.8735    9.3917 C   0  0  0  0  0  0  0  0  0  0  0  0
   11.2008   12.7355    8.3901 N   0  0  0  0  0  0  0  0  0  0  0  0
   11.1664   12.1397    7.1784 C   0  0  0  0  0  0  0  0  0  0  0  0
   11.4434   10.6652    6.8905 C   0  0  0  0  0  0  0  0  0  0  0  0
   11.7623    9.8153    7.9608 C   0  0  0  0  0  0  0  0  0  0  0  0
   12.0122    8.6176    7.9614 O   0  0  0  0  0  0  0  0  0  0  0  0
   11.3036   10.4950    5.5404 N   0  0  0  0  0  0  0  0  0  0  0  0
   10.9633   11.7137    5.0059 C   0  0  0  0  0  0  0  0  0  0  0  0
   10.8732   12.7236    5.9602 N   0  0  0  0  0  0  0  0  0  0  0  0
  1  2  1  0  0  0  0
  1  6  1  0  0  0  0
  2  3  2  0  0  0  0
  3  4  1  0  0  0  0
  4  5  2  0  0  0  0
  4 10  1  0  0  0  0
  5  6  1  0  0  0  0
  5  8  1  0  0  0  0
  6  7  2  0  0  0  0
  8  9  1  0  0  0  0
  9 10  2  0  0  0  0
M  END
>  <CHROM.1>
11.40983260,11.09296238,7.35802117,0.41993359,-1.32576506,1.01543790

>  <Name>
1u8d_lig

>  <RI>
0

>  <Rbt.Current_Directory>
/home/itssahil/PROJECTS/Mol_Feturizer/New_Systems/rnas/1u8d

>  <Rbt.Executable>
rbdock ($Id: //depot/dev/client3/rdock/2013.1/src/exe/rbdock.cxx#4 $)

>  <Rbt.Library>
libRbt.so (2013.1, Build901 2013/11/27)

>  <Rbt.Parameter_File>
/export/apps/rDock/src/rDock_2013.1_src/data/scripts/dock_solv.prm

>  <Rbt.Receptor>
prm/blind_docking_80.prm

>  <SCORE>
-26.1246

>  <SCORE.INTER>
-26.1246

>  <SCORE.INTER.CONST>
1

>  <SCORE.INTER.POLAR>
-1.93632

>  <SCORE.INTER.ROT>
0

>  <SCORE.INTER.SOLV>
11.5962

>  <SCORE.INTER.VDW>
-18.4274

>  <SCORE.INTER.norm>
-2.61246

>  <SCORE.INTRA>
0

>  <SCORE.INTRA.DIHEDRAL>
0

>  <SCORE.INTRA.DIHEDRAL.0>
0

>  <SCORE.INTRA.POLAR>
0

>  <SCORE.INTRA.POLAR.0>
0

>  <SCORE.INTRA.REPUL>
0

>  <SCORE.INTRA.REPUL.0>
0

>  <SCORE.INTRA.SOLV>
0

>  <SCORE.INTRA.SOLV.lig_0>
-13.7928

>  <SCORE.INTRA.VDW>
0

>  <SCORE.INTRA.VDW.0>
0

>  <SCORE.INTRA.norm>
0

>  <SCORE.RESTR>
0

>  <SCORE.RESTR.CAVITY>
0

>  <SCORE.RESTR.norm>
0

>  <SCORE.SYSTEM>
0

>  <SCORE.SYSTEM.CONST>
0

>  <SCORE.SYSTEM.DIHEDRAL>
0

>  <SCORE.SYSTEM.SOLV>
0

>  <SCORE.SYSTEM.norm>
0

>  <SCORE.heavy>
10

>  <SCORE.norm>
-2.61246

>  <RMSD>
0.201

$$$$
1u8d_lig
 OpenBabel11021811413D
libRbt.so/2013.1/901 2013/11/27
 10 11  0  0  0  0  0  0  0  0999 V2000
   11.8321   10.5474    9.1755 N   0  0  0  0  0  0  0  0  0  0  0  0
   11.5950   11.9179    9.3768 C   0  0  0  0  0  0  0  0  0  0  0  0
   11.2627   12.7749    8.3779 N   0  0  0  0  0  0  0  0  0  0  0  0
   11.1823   12.1690    7.1734 C   0  0  0  0  0  0  0  0  0  0  0  0
   11.4321   10.6888    6.8902 C   0  0  0  0  0  0  0  0  0  0  0  0
   11.7748    9.8443    7.9575 C   0  0  0  0  0  0  0  0  0  0  0  0
   12.0102    8.6438    7.9610 O   0  0  0  0  0  0  0  0  0  0  0  0
   11.2471   10.5086    5.5468 N   0  0  0  0  0  0  0  0  0  0  0  0
   10.9045   11.7267    5.0125 C   0  0  0  0  0  0  0  0  0  0  0  0
   10.8572   12.7459    5.9598 N   0  0  0  0  0  0  0  0  0  0  0  0
  1  2  1  0  0  0  0
  1  6  1  0  0  0  0
  2  3  2  0  0  0  0
  3  4  1  0  0  0  0
  4  5  2  0  0  0  0
  4 10  1  0  0  0  0
  5  6  1  0  0  0  0
  5  8  1  0  0  0  0
  6  7  2  0  0  0  0
  8  9  1  0  0  0  0
  9 10  2  0  0  0  0
M  END
>  <CHROM.1>
11.41870101,11.12100632,7.35463230,0.28576222,-1.31692376,0.87649832

>  <Name>
1u8d_lig

>  <RI>
0

>  <Rbt.Current_Directory>
/home/itssahil/PROJECTS/Mol_Feturizer/New_Systems/rnas/1u8d

>  <Rbt.Executable>
rbdock ($Id: //depot/dev/client3/rdock/2013.1/src/exe/rbdock.cxx#4 $)

>  <Rbt.Library>
libRbt.so (2013.1, Build901 2013/11/27)

>  <Rbt.Parameter_File>
/export/apps/rDock/src/rDock_2013.1_src/data/scripts/dock_solv.prm

>  <Rbt.Receptor>
prm/pocket_docking_3.prm

>  <SCORE>
-26.0773

>  <SCORE.INTER>
-26.0773

>  <SCORE.INTER.CONST>
1

>  <SCORE.INTER.POLAR>
-1.93632

>  <SCORE.INTER.ROT>
0

>  <SCORE.INTER.SOLV>
11.5382

>  <SCORE.INTER.VDW>
-18.3766

>  <SCORE.INTER.norm>
-2.60773

>  <SCORE.INTRA>
0

>  <SCORE.INTRA.DIHEDRAL>
0

>  <SCORE.INTRA.DIHEDRAL.0>
0

>  <SCORE.INTRA.POLAR>
0

>  <SCORE.INTRA.POLAR.0>
0

>  <SCORE.INTRA.REPUL>
0

>  <SCORE.INTRA.REPUL.0>
0

>  <SCORE.INTRA.SOLV>
0

>  <SCORE.INTRA.SOLV.lig_0>
-13.7928

>  <SCORE.INTRA.VDW>
0

>  <SCORE.INTRA.VDW.0>
0

>  <SCORE.INTRA.norm>
0

>  <SCORE.RESTR>
0

>  <SCORE.RESTR.CAVITY>
0

>  <SCORE.RESTR.norm>
0

>  <SCORE.SYSTEM>
0

>  <SCORE.SYSTEM.CONST>
0

>  <SCORE.SYSTEM.DIHEDRAL>
0

>  <SCORE.SYSTEM.SOLV>
0

>  <SCORE.SYSTEM.norm>
0

>  <SCORE.heavy>
10

>  <SCORE.norm>
-2.60773

>  <RMSD>
0.201

$$$$
1u8d_lig
 OpenBabel11021811413D
libRbt.so/2013.1/901 2013/11/27
 10 11  0  0  0  0  0  0  0  0999 V2000
   11.8370   10.5607    9.1518 N   0  0  0  0  0  0  0  0  0  0  0  0
   11.5728   11.9254    9.3586 C   0  0  0  0  0  0  0  0  0  0  0  0
   11.2374   12.7827    8.3610 N   0  0  0  0  0  0  0  0  0  0  0  0
   11.1828   12.1832    7.1518 C   0  0  0  0  0  0  0  0  0  0  0  0
   11.4627   10.7095    6.8626 C   0  0  0  0  0  0  0  0  0  0  0  0
   11.8075    9.8645    7.9288 C   0  0  0  0  0  0  0  0  0  0  0  0
   12.0644    8.6684    7.9278 O   0  0  0  0  0  0  0  0  0  0  0  0
   11.2975   10.5346    5.5159 N   0  0  0  0  0  0  0  0  0  0  0  0
   10.9396   11.7497    4.9849 C   0  0  0  0  0  0  0  0  0  0  0  0
   10.8623   12.7618    5.9379 N   0  0  0  0  0  0  0  0  0  0  0  0
  1  2  1  0  0  0  0
  1  6  1  0  0  0  0
  2  3  2  0  0  0  0
  3  4  1  0  0  0  0
  4  5  2  0  0  0  0
  4 10  1  0  0  0  0
  5  6  1  0  0  0  0
  5  8  1  0  0  0  0
  6  7  2  0  0  0  0
  8  9  1  0  0  0  0
  9 10  2  0  0  0  0
M  END
>  <CHROM.1>
11.43580289,11.13842034,7.32949601,0.36733948,-1.31009675,0.96168012

>  <Name>
1u8d_lig

>  <RI>
0

>  <Rbt.Current_Directory>
/home/itssahil/PROJECTS/Mol_Feturizer/New_Systems/rnas/1u8d

>  <Rbt.Executable>
rbdock ($Id: //depot/dev/client3/rdock/2013.1/src/exe/rbdock.cxx#4 $)

>  <Rbt.Library>
libRbt.so (2013.1, Build901 2013/11/27)

>  <Rbt.Parameter_File>
/export/apps/rDock/src/rDock_2013.1_src/data/scripts/dock_solv.prm

>  <Rbt.Receptor>
prm/pocket_docking_4.prm

>  <SCORE>
-26.1383

>  <SCORE.INTER>
-26.1383

>  <SCORE.INTER.CONST>
1

>  <SCORE.INTER.POLAR>
-1.93632

>  <SCORE.INTER.ROT>
0

>  <SCORE.INTER.SOLV>
11.5149

>  <SCORE.INTER.VDW>
-18.4095

>  <SCORE.INTER.norm>
-2.61383

>  <SCORE.INTRA>
0

>  <SCORE.INTRA.DIHEDRAL>
0

>  <SCORE.INTRA.DIHEDRAL.0>
0

>  <SCORE.INTRA.POLAR>
0

>  <SCORE.INTRA.POLAR.0>
0

>  <SCORE.INTRA.REPUL>
0

>  <SCORE.INTRA.REPUL.0>
0

>  <SCORE.INTRA.SOLV>
0

>  <SCORE.INTRA.SOLV.lig_0>
-13.7928

>  <SCORE.INTRA.VDW>
0

>  <SCORE.INTRA.VDW.0>
0

>  <SCORE.INTRA.norm>
0

>  <SCORE.RESTR>
0

>  <SCORE.RESTR.CAVITY>
0

>  <SCORE.RESTR.norm>
0

>  <SCORE.SYSTEM>
0

>  <SCORE.SYSTEM.CONST>
0

>  <SCORE.SYSTEM.DIHEDRAL>
0

>  <SCORE.SYSTEM.SOLV>
0

>  <SCORE.SYSTEM.norm>
0

>  <SCORE.heavy>
10

>  <SCORE.norm>
-2.61383

>  <RMSD>
0.201

$$$$
1u8d_lig
 OpenBabel11021811413D
libRbt.so/2013.1/901 2013/11/27
 10 11  0  0  0  0  0  0  0  0999 V2000
   11.8385   10.5511    9.1688 N   0  0  0  0  0  0  0  0  0  0  0  0
   11.5912   11.9189    9.3764 C   0  0  0  0  0  0  0  0  0  0  0  0
   11.2569   12.7788    8.3807 N   0  0  0  0  0  0  0  0  0  0  0  0
   11.1852   12.1787    7.1728 C   0  0  0  0  0  0  0  0  0  0  0  0
   11.4462   10.7017    6.8828 C   0  0  0  0  0  0  0  0  0  0  0  0
   11.7907    9.8540    7.9469 C   0  0  0  0  0  0  0  0  0  0  0  0
   12.0342    8.6551    7.9451 O   0  0  0  0  0  0  0  0  0  0  0  0
   11.2676   10.5273    5.5378 N   0  0  0  0  0  0  0  0  0  0  0  0
   10.9187   11.7458    5.0085 C   0  0  0  0  0  0  0  0  0  0  0  0
   10.8608   12.7597    5.9610 N   0  0  0  0  0  0  0  0  0  0  0  0
  1  2  1  0  0  0  0
  1  6  1  0  0  0  0
  2  3  2  0  0  0  0
  3  4  1  0  0  0  0
  4  5  2  0  0  0  0
  4 10  1  0  0  0  0
  5  6  1  0  0  0  0
  5  8  1  0  0  0  0
  6  7  2  0  0  0  0
  8  9  1  0  0  0  0
  9 10  2  0  0  0  0
M  END
>  <CHROM.1>
11.42812218,11.13139030,7.34942075,0.31454485,-1.31399079,0.90958370

>  <Name>
1u8d_lig

>  <RI>
0

>  <Rbt.Current_Directory>
/home/itssahil/PROJECTS/Mol_Feturizer/New_Systems/rnas/1u8d

>  <Rbt.Executable>
rbdock ($Id: //depot/dev/client3/rdock/2013.1/src/exe/rbdock.cxx#4 $)

>  <Rbt.Library>
libRbt.so (2013.1, Build901 2013/11/27)

>  <Rbt.Parameter_File>
/export/apps/rDock/src/rDock_2013.1_src/data/scripts/dock_solv.prm

>  <Rbt.Receptor>
prm/pocket_docking_7.prm

>  <SCORE>
-26.115

>  <SCORE.INTER>
-26.115

>  <SCORE.INTER.CONST>
1

>  <SCORE.INTER.POLAR>
-1.93632

>  <SCORE.INTER.ROT>
0

>  <SCORE.INTER.SOLV>
11.521

>  <SCORE.INTER.VDW>
-18.396

>  <SCORE.INTER.norm>
-2.6115

>  <SCORE.INTRA>
0

>  <SCORE.INTRA.DIHEDRAL>
0

>  <SCORE.INTRA.DIHEDRAL.0>
0

>  <SCORE.INTRA.POLAR>
0

>  <SCORE.INTRA.POLAR.0>
0

>  <SCORE.INTRA.REPUL>
0

>  <SCORE.INTRA.REPUL.0>
0

>  <SCORE.INTRA.SOLV>
0

>  <SCORE.INTRA.SOLV.lig_0>
-13.7928

>  <SCORE.INTRA.VDW>
0

>  <SCORE.INTRA.VDW.0>
0

>  <SCORE.INTRA.norm>
0

>  <SCORE.RESTR>
0

>  <SCORE.RESTR.CAVITY>
0

>  <SCORE.RESTR.norm>
0

>  <SCORE.SYSTEM>
0

>  <SCORE.SYSTEM.CONST>
0

>  <SCORE.SYSTEM.DIHEDRAL>
0

>  <SCORE.SYSTEM.SOLV>
0

>  <SCORE.SYSTEM.norm>
0

>  <SCORE.heavy>
10

>  <SCORE.norm>
-2.6115

>  <RMSD>
0.201

$$$$
1u8d_lig
 OpenBabel11021811413D
libRbt.so/2013.1/901 2013/11/27
 10 11  0  0  0  0  0  0  0  0999 V2000
   11.8345   10.5502    9.1765 N   0  0  0  0  0  0  0  0  0  0  0  0
   11.5920   11.9183    9.3872 C   0  0  0  0  0  0  0  0  0  0  0  0
   11.2569   12.7809    8.3940 N   0  0  0  0  0  0  0  0  0  0  0  0
   11.1794   12.1831    7.1853 C   0  0  0  0  0  0  0  0  0  0  0  0
   11.4350   10.7058    6.8920 C   0  0  0  0  0  0  0  0  0  0  0  0
   11.7805    9.8553    7.9536 C   0  0  0  0  0  0  0  0  0  0  0  0
   12.0205    8.6557    7.9489 O   0  0  0  0  0  0  0  0  0  0  0  0
   11.2514   10.5342    5.5473 N   0  0  0  0  0  0  0  0  0  0  0  0
   10.9043   11.7546    5.0213 C   0  0  0  0  0  0  0  0  0  0  0  0
   10.8526   12.7670    5.9756 N   0  0  0  0  0  0  0  0  0  0  0  0
  1  2  1  0  0  0  0
  1  6  1  0  0  0  0
  2  3  2  0  0  0  0
  3  4  1  0  0  0  0
  4  5  2  0  0  0  0
  4 10  1  0  0  0  0
  5  6  1  0  0  0  0
  5  8  1  0  0  0  0
  6  7  2  0  0  0  0
  8  9  1  0  0  0  0
  9 10  2  0  0  0  0
M  END
>  <CHROM.1>
11.41974724,11.13472447,7.35943139,0.29690405,-1.31423473,0.89419167

>  <Name>
1u8d_lig

>  <RI>
0

>  <Rbt.Current_Directory>
/home/itssahil/PROJECTS/Mol_Feturizer/New_Systems/rnas/1u8d

>  <Rbt.Executable>
rbdock ($Id: //depot/dev/client3/rdock/2013.1/src/exe/rbdock.cxx#4 $)

>  <Rbt.Library>
libRbt.so (2013.1, Build901 2013/11/27)

>  <Rbt.Parameter_File>
/export/apps/rDock/src/rDock_2013.1_src/data/scripts/dock_solv.prm

>  <Rbt.Receptor>
prm/pocket_docking_8.prm

>  <SCORE>
-26.1142

>  <SCORE.INTER>
-26.1142

>  <SCORE.INTER.CONST>
1

>  <SCORE.INTER.POLAR>
-1.93632

>  <SCORE.INTER.ROT>
0

>  <SCORE.INTER.SOLV>
11.5243

>  <SCORE.INTER.VDW>
-18.3965

>  <SCORE.INTER.norm>
-2.61142

>  <SCORE.INTRA>
0

>  <SCORE.INTRA.DIHEDRAL>
0

>  <SCORE.INTRA.DIHEDRAL.0>
0

>  <SCORE.INTRA.POLAR>
0

>  <SCORE.INTRA.POLAR.0>
0

>  <SCORE.INTRA.REPUL>
0

>  <SCORE.INTRA.REPUL.0>
0

>  <SCORE.INTRA.SOLV>
0

>  <SCORE.INTRA.SOLV.lig_0>
-13.7928

>  <SCORE.INTRA.VDW>
0

>  <SCORE.INTRA.VDW.0>
0

>  <SCORE.INTRA.norm>
0

>  <SCORE.RESTR>
0

>  <SCORE.RESTR.CAVITY>
0

>  <SCORE.RESTR.norm>
0

>  <SCORE.SYSTEM>
0

>  <SCORE.SYSTEM.CONST>
0

>  <SCORE.SYSTEM.DIHEDRAL>
0

>  <SCORE.SYSTEM.SOLV>
0

>  <SCORE.SYSTEM.norm>
0

>  <SCORE.heavy>
10

>  <SCORE.norm>
-2.61142

>  <RMSD>
0.201

$$$$
1u8d_lig
 OpenBabel11021811413D
libRbt.so/2013.1/901 2013/11/27
 10 11  0  0  0  0  0  0  0  0999 V2000
   11.8369   10.5502    9.1728 N   0  0  0  0  0  0  0  0  0  0  0  0
   11.5933   11.9182    9.3834 C   0  0  0  0  0  0  0  0  0  0  0  0
   11.2580   12.7805    8.3900 N   0  0  0  0  0  0  0  0  0  0  0  0
   11.1815   12.1826    7.1813 C   0  0  0  0  0  0  0  0  0  0  0  0
   11.4383   10.7055    6.8881 C   0  0  0  0  0  0  0  0  0  0  0  0
   11.7840    9.8553    7.9499 C   0  0  0  0  0  0  0  0  0  0  0  0
   12.0248    8.6558    7.9454 O   0  0  0  0  0  0  0  0  0  0  0  0
   11.2554   10.5337    5.5434 N   0  0  0  0  0  0  0  0  0  0  0  0
   10.9078   11.7539    5.0171 C   0  0  0  0  0  0  0  0  0  0  0  0
   10.8549   12.7663    5.9714 N   0  0  0  0  0  0  0  0  0  0  0  0
  1  2  1  0  0  0  0
  1  6  1  0  0  0  0
  2  3  2  0  0  0  0
  3  4  1  0  0  0  0
  4  5  2  0  0  0  0
  4 10  1  0  0  0  0
  5  6  1  0  0  0  0
  5  8  1  0  0  0  0
  6  7  2  0  0  0  0
  8  9  1  0  0  0  0
  9 10  2  0  0  0  0
M  END
>  <CHROM.1>
11.42255683,11.13442478,7.35554691,0.30009756,-1.31397570,0.89725559

>  <Name>
1u8d_lig

>  <RI>
0

>  <Rbt.Current_Directory>
/home/itssahil/PROJECTS/Mol_Feturizer/New_Systems/rnas/1u8d

>  <Rbt.Executable>
rbdock ($Id: //depot/dev/client3/rdock/2013.1/src/exe/rbdock.cxx#4 $)

>  <Rbt.Library>
libRbt.so (2013.1, Build901 2013/11/27)

>  <Rbt.Parameter_File>
/export/apps/rDock/src/rDock_2013.1_src/data/scripts/dock_solv.prm

>  <Rbt.Receptor>
prm/blind_docking_100.prm

>  <SCORE>
-26.1151

>  <SCORE.INTER>
-26.1151

>  <SCORE.INTER.CONST>
1

>  <SCORE.INTER.POLAR>
-1.93632

>  <SCORE.INTER.ROT>
0

>  <SCORE.INTER.SOLV>
11.5216

>  <SCORE.INTER.VDW>
-18.3962

>  <SCORE.INTER.norm>
-2.61151

>  <SCORE.INTRA>
0

>  <SCORE.INTRA.DIHEDRAL>
0

>  <SCORE.INTRA.DIHEDRAL.0>
0

>  <SCORE.INTRA.POLAR>
0

>  <SCORE.INTRA.POLAR.0>
0

>  <SCORE.INTRA.REPUL>
0

>  <SCORE.INTRA.REPUL.0>
0

>  <SCORE.INTRA.SOLV>
0

>  <SCORE.INTRA.SOLV.lig_0>
-13.7928

>  <SCORE.INTRA.VDW>
0

>  <SCORE.INTRA.VDW.0>
0

>  <SCORE.INTRA.norm>
0

>  <SCORE.RESTR>
0

>  <SCORE.RESTR.CAVITY>
0

>  <SCORE.RESTR.norm>
0

>  <SCORE.SYSTEM>
0

>  <SCORE.SYSTEM.CONST>
0

>  <SCORE.SYSTEM.DIHEDRAL>
0

>  <SCORE.SYSTEM.SOLV>
0

>  <SCORE.SYSTEM.norm>
0

>  <SCORE.heavy>
10

>  <SCORE.norm>
-2.61151

>  <RMSD>
0.202

$$$$
1u8d_lig
 OpenBabel11021811413D
libRbt.so/2013.1/901 2013/11/27
 10 11  0  0  0  0  0  0  0  0999 V2000
   11.7132   10.4697    9.1769 N   0  0  0  0  0  0  0  0  0  0  0  0
   11.3611   11.8182    9.3571 C   0  0  0  0  0  0  0  0  0  0  0  0
   11.0047   12.6416    8.3384 N   0  0  0  0  0  0  0  0  0  0  0  0
   11.0225   12.0253    7.1365 C   0  0  0  0  0  0  0  0  0  0  0  0
   11.3993   10.5680    6.8760 C   0  0  0  0  0  0  0  0  0  0  0  0
   11.7622    9.7584    7.9633 C   0  0  0  0  0  0  0  0  0  0  0  0
   12.0906    8.5801    7.9864 O   0  0  0  0  0  0  0  0  0  0  0  0
   11.2853   10.3673    5.5276 N   0  0  0  0  0  0  0  0  0  0  0  0
   10.8710   11.5520    4.9696 C   0  0  0  0  0  0  0  0  0  0  0  0
   10.7043   12.5689    5.9059 N   0  0  0  0  0  0  0  0  0  0  0  0
  1  2  1  0  0  0  0
  1  6  1  0  0  0  0
  2  3  2  0  0  0  0
  3  4  1  0  0  0  0
  4  5  2  0  0  0  0
  4 10  1  0  0  0  0
  5  6  1  0  0  0  0
  5  8  1  0  0  0  0
  6  7  2  0  0  0  0
  8  9  1  0  0  0  0
  9 10  2  0  0  0  0
M  END
>  <CHROM.1>
11.33261327,11.00007693,7.33591930,0.56923332,-1.27204776,1.14289195

>  <Name>
1u8d_lig

>  <RI>
0

>  <Rbt.Current_Directory>
/home/itssahil/PROJECTS/Mol_Feturizer/New_Systems/rnas/1u8d

>  <Rbt.Executable>
rbdock ($Id: //depot/dev/client3/rdock/2013.1/src/exe/rbdock.cxx#4 $)

>  <Rbt.Library>
libRbt.so (2013.1, Build901 2013/11/27)

>  <Rbt.Parameter_File>
/export/apps/rDock/src/rDock_2013.1_src/data/scripts/dock_solv.prm

>  <Rbt.Receptor>
prm/blind_docking_20.prm

>  <SCORE>
-25.792

>  <SCORE.INTER>
-25.792

>  <SCORE.INTER.CONST>
1

>  <SCORE.INTER.POLAR>
-1.93632

>  <SCORE.INTER.ROT>
0

>  <SCORE.INTER.SOLV>
11.5855

>  <SCORE.INTER.VDW>
-18.2021

>  <SCORE.INTER.norm>
-2.5792

>  <SCORE.INTRA>
0

>  <SCORE.INTRA.DIHEDRAL>
0

>  <SCORE.INTRA.DIHEDRAL.0>
0

>  <SCORE.INTRA.POLAR>
0

>  <SCORE.INTRA.POLAR.0>
0

>  <SCORE.INTRA.REPUL>
0

>  <SCORE.INTRA.REPUL.0>
0

>  <SCORE.INTRA.SOLV>
0

>  <SCORE.INTRA.SOLV.lig_0>
-13.7928

>  <SCORE.INTRA.VDW>
0

>  <SCORE.INTRA.VDW.0>
0

>  <SCORE.INTRA.norm>
0

>  <SCORE.RESTR>
6.27736e-06

>  <SCORE.RESTR.CAVITY>
6.27736e-06

>  <SCORE.RESTR.norm>
6.27736e-07

>  <SCORE.SYSTEM>
0

>  <SCORE.SYSTEM.CONST>
0

>  <SCORE.SYSTEM.DIHEDRAL>
0

>  <SCORE.SYSTEM.SOLV>
0

>  <SCORE.SYSTEM.norm>
0

>  <SCORE.heavy>
10

>  <SCORE.norm>
-2.5792

>  <RMSD>
0.202

$$$$
1u8d_lig
 OpenBabel11021811413D
libRbt.so/2013.1/901 2013/11/27
 10 11  0  0  0  0  0  0  0  0999 V2000
   11.8401   10.5511    9.1793 N   0  0  0  0  0  0  0  0  0  0  0  0
   11.6133   11.9239    9.3770 C   0  0  0  0  0  0  0  0  0  0  0  0
   11.2765   12.7786    8.3776 N   0  0  0  0  0  0  0  0  0  0  0  0
   11.1807   12.1680    7.1766 C   0  0  0  0  0  0  0  0  0  0  0  0
   11.4188   10.6850    6.8974 C   0  0  0  0  0  0  0  0  0  0  0  0
   11.7668    9.8432    7.9650 C   0  0  0  0  0  0  0  0  0  0  0  0
   11.9949    8.6412    7.9715 O   0  0  0  0  0  0  0  0  0  0  0  0
   11.2197   10.5002    5.5567 N   0  0  0  0  0  0  0  0  0  0  0  0
   10.8793   11.7181    5.0204 C   0  0  0  0  0  0  0  0  0  0  0  0
   10.8474   12.7416    5.9637 N   0  0  0  0  0  0  0  0  0  0  0  0
  1  2  1  0  0  0  0
  1  6  1  0  0  0  0
  2  3  2  0  0  0  0
  3  4  1  0  0  0  0
  4  5  2  0  0  0  0
  4 10  1  0  0  0  0
  5  6  1  0  0  0  0
  5  8  1  0  0  0  0
  6  7  2  0  0  0  0
  8  9  1  0  0  0  0
  9 10  2  0  0  0  0
M  END
>  <CHROM.1>
11.41255016,11.11936314,7.36006617,0.24087460,-1.31510681,0.82872183

>  <Name>
1u8d_lig

>  <RI>
0

>  <Rbt.Current_Directory>
/home/itssahil/PROJECTS/Mol_Feturizer/New_Systems/rnas/1u8d

>  <Rbt.Executable>
rbdock ($Id: //depot/dev/client3/rdock/2013.1/src/exe/rbdock.cxx#4 $)

>  <Rbt.Library>
libRbt.so (2013.1, Build901 2013/11/27)

>  <Rbt.Parameter_File>
/export/apps/rDock/src/rDock_2013.1_src/data/scripts/dock_solv.prm

>  <Rbt.Receptor>
prm/blind_docking_80.prm

>  <SCORE>
-26.0777

>  <SCORE.INTER>
-26.0777

>  <SCORE.INTER.CONST>
1

>  <SCORE.INTER.POLAR>
-1.93632

>  <SCORE.INTER.ROT>
0

>  <SCORE.INTER.SOLV>
11.5389

>  <SCORE.INTER.VDW>
-18.3771

>  <SCORE.INTER.norm>
-2.60777

>  <SCORE.INTRA>
0

>  <SCORE.INTRA.DIHEDRAL>
0

>  <SCORE.INTRA.DIHEDRAL.0>
0

>  <SCORE.INTRA.POLAR>
0

>  <SCORE.INTRA.POLAR.0>
0

>  <SCORE.INTRA.REPUL>
0

>  <SCORE.INTRA.REPUL.0>
0

>  <SCORE.INTRA.SOLV>
0

>  <SCORE.INTRA.SOLV.lig_0>
-13.7928

>  <SCORE.INTRA.VDW>
0

>  <SCORE.INTRA.VDW.0>
0

>  <SCORE.INTRA.norm>
0

>  <SCORE.RESTR>
0

>  <SCORE.RESTR.CAVITY>
0

>  <SCORE.RESTR.norm>
0

>  <SCORE.SYSTEM>
0

>  <SCORE.SYSTEM.CONST>
0

>  <SCORE.SYSTEM.DIHEDRAL>
0

>  <SCORE.SYSTEM.SOLV>
0

>  <SCORE.SYSTEM.norm>
0

>  <SCORE.heavy>
10

>  <SCORE.norm>
-2.60777

>  <RMSD>
0.202

$$$$
1u8d_lig
 OpenBabel11021811413D
libRbt.so/2013.1/901 2013/11/27
 10 11  0  0  0  0  0  0  0  0999 V2000
   11.7471   10.4968    9.2392 N   0  0  0  0  0  0  0  0  0  0  0  0
   11.5077   11.8661    9.4456 C   0  0  0  0  0  0  0  0  0  0  0  0
   11.2012   12.7316    8.4458 N   0  0  0  0  0  0  0  0  0  0  0  0
   11.1488   12.1354    7.2349 C   0  0  0  0  0  0  0  0  0  0  0  0
   11.4027   10.6569    6.9461 C   0  0  0  0  0  0  0  0  0  0  0  0
   11.7180    9.8034    8.0147 C   0  0  0  0  0  0  0  0  0  0  0  0
   11.9510    8.6024    8.0144 O   0  0  0  0  0  0  0  0  0  0  0  0
   11.2499   10.4876    5.5973 N   0  0  0  0  0  0  0  0  0  0  0  0
   10.9226   11.7106    5.0645 C   0  0  0  0  0  0  0  0  0  0  0  0
   10.8542   12.7224    6.0184 N   0  0  0  0  0  0  0  0  0  0  0  0
  1  2  1  0  0  0  0
  1  6  1  0  0  0  0
  2  3  2  0  0  0  0
  3  4  1  0  0  0  0
  4  5  2  0  0  0  0
  4 10  1  0  0  0  0
  5  6  1  0  0  0  0
  5  8  1  0  0  0  0
  6  7  2  0  0  0  0
  8  9  1  0  0  0  0
  9 10  2  0  0  0  0
M  END
>  <CHROM.1>
11.37886554,11.08549847,7.41352019,0.35976389,-1.33316692,0.95615388

>  <Name>
1u8d_lig

>  <RI>
0

>  <Rbt.Current_Directory>
/home/itssahil/PROJECTS/Mol_Feturizer/New_Systems/rnas/1u8d

>  <Rbt.Executable>
rbdock ($Id: //depot/dev/client3/rdock/2013.1/src/exe/rbdock.cxx#4 $)

>  <Rbt.Library>
libRbt.so (2013.1, Build901 2013/11/27)

>  <Rbt.Parameter_File>
/export/apps/rDock/src/rDock_2013.1_src/data/scripts/dock_solv.prm

>  <Rbt.Receptor>
prm/pocket_docking_3.prm

>  <SCORE>
-26.0277

>  <SCORE.INTER>
-26.0277

>  <SCORE.INTER.CONST>
1

>  <SCORE.INTER.POLAR>
-1.93632

>  <SCORE.INTER.ROT>
0

>  <SCORE.INTER.SOLV>
11.6323

>  <SCORE.INTER.VDW>
-18.3748

>  <SCORE.INTER.norm>
-2.60277

>  <SCORE.INTRA>
0

>  <SCORE.INTRA.DIHEDRAL>
0

>  <SCORE.INTRA.DIHEDRAL.0>
0

>  <SCORE.INTRA.POLAR>
0

>  <SCORE.INTRA.POLAR.0>
0

>  <SCORE.INTRA.REPUL>
0

>  <SCORE.INTRA.REPUL.0>
0

>  <SCORE.INTRA.SOLV>
0

>  <SCORE.INTRA.SOLV.lig_0>
-13.7928

>  <SCORE.INTRA.VDW>
0

>  <SCORE.INTRA.VDW.0>
0

>  <SCORE.INTRA.norm>
0

>  <SCORE.RESTR>
0

>  <SCORE.RESTR.CAVITY>
0

>  <SCORE.RESTR.norm>
0

>  <SCORE.SYSTEM>
0

>  <SCORE.SYSTEM.CONST>
0

>  <SCORE.SYSTEM.DIHEDRAL>
0

>  <SCORE.SYSTEM.SOLV>
0

>  <SCORE.SYSTEM.norm>
0

>  <SCORE.heavy>
10

>  <SCORE.norm>
-2.60277

>  <RMSD>
0.202

$$$$
1u8d_lig
 OpenBabel11021811413D
libRbt.so/2013.1/901 2013/11/27
 10 11  0  0  0  0  0  0  0  0999 V2000
   11.8334   10.5498    9.1768 N   0  0  0  0  0  0  0  0  0  0  0  0
   11.5922   11.9183    9.3867 C   0  0  0  0  0  0  0  0  0  0  0  0
   11.2591   12.7809    8.3929 N   0  0  0  0  0  0  0  0  0  0  0  0
   11.1823   12.1827    7.1843 C   0  0  0  0  0  0  0  0  0  0  0  0
   11.4367   10.7050    6.8919 C   0  0  0  0  0  0  0  0  0  0  0  0
   11.7801    9.8546    7.9542 C   0  0  0  0  0  0  0  0  0  0  0  0
   12.0188    8.6547    7.9503 O   0  0  0  0  0  0  0  0  0  0  0  0
   11.2543   10.5331    5.5471 N   0  0  0  0  0  0  0  0  0  0  0  0
   10.9092   11.7537    5.0201 C   0  0  0  0  0  0  0  0  0  0  0  0
   10.8576   12.7665    5.9740 N   0  0  0  0  0  0  0  0  0  0  0  0
  1  2  1  0  0  0  0
  1  6  1  0  0  0  0
  2  3  2  0  0  0  0
  3  4  1  0  0  0  0
  4  5  2  0  0  0  0
  4 10  1  0  0  0  0
  5  6  1  0  0  0  0
  5  8  1  0  0  0  0
  6  7  2  0  0  0  0
  8  9  1  0  0  0  0
  9 10  2  0  0  0  0
M  END
>  <CHROM.1>
11.42134874,11.13415055,7.35911624,0.29768913,-1.31578041,0.89456377

>  <Name>
1u8d_lig

>  <RI>
0

>  <Rbt.Current_Directory>
/home/itssahil/PROJECTS/Mol_Feturizer/New_Systems/rnas/1u8d

>  <Rbt.Executable>
rbdock ($Id: //depot/dev/client3/rdock/2013.1/src/exe/rbdock.cxx#4 $)

>  <Rbt.Library>
libRbt.so (2013.1, Build901 2013/11/27)

>  <Rbt.Parameter_File>
/export/apps/rDock/src/rDock_2013.1_src/data/scripts/dock_solv.prm

>  <Rbt.Receptor>
prm/pocket_docking_4.prm

>  <SCORE>
-26.114

>  <SCORE.INTER>
-26.114

>  <SCORE.INTER.CONST>
1

>  <SCORE.INTER.POLAR>
-1.93632

>  <SCORE.INTER.ROT>
0

>  <SCORE.INTER.SOLV>
11.5283

>  <SCORE.INTER.VDW>
-18.3977

>  <SCORE.INTER.norm>
-2.6114

>  <SCORE.INTRA>
0

>  <SCORE.INTRA.DIHEDRAL>
0

>  <SCORE.INTRA.DIHEDRAL.0>
0

>  <SCORE.INTRA.POLAR>
0

>  <SCORE.INTRA.POLAR.0>
0

>  <SCORE.INTRA.REPUL>
0

>  <SCORE.INTRA.REPUL.0>
0

>  <SCORE.INTRA.SOLV>
0

>  <SCORE.INTRA.SOLV.lig_0>
-13.7928

>  <SCORE.INTRA.VDW>
0

>  <SCORE.INTRA.VDW.0>
0

>  <SCORE.INTRA.norm>
0

>  <SCORE.RESTR>
0

>  <SCORE.RESTR.CAVITY>
0

>  <SCORE.RESTR.norm>
0

>  <SCORE.SYSTEM>
0

>  <SCORE.SYSTEM.CONST>
0

>  <SCORE.SYSTEM.DIHEDRAL>
0

>  <SCORE.SYSTEM.SOLV>
0

>  <SCORE.SYSTEM.norm>
0

>  <SCORE.heavy>
10

>  <SCORE.norm>
-2.6114

>  <RMSD>
0.202

$$$$
1u8d_lig
 OpenBabel11021811413D
libRbt.so/2013.1/901 2013/11/27
 10 11  0  0  0  0  0  0  0  0999 V2000
   11.7983   10.5096    9.1867 N   0  0  0  0  0  0  0  0  0  0  0  0
   11.5550   11.8785    9.3914 C   0  0  0  0  0  0  0  0  0  0  0  0
   11.2326   12.7392    8.3924 N   0  0  0  0  0  0  0  0  0  0  0  0
   11.1684   12.1386    7.1843 C   0  0  0  0  0  0  0  0  0  0  0  0
   11.4257   10.6603    6.8974 C   0  0  0  0  0  0  0  0  0  0  0  0
   11.7577    9.8120    7.9649 C   0  0  0  0  0  0  0  0  0  0  0  0
   11.9963    8.6120    7.9658 O   0  0  0  0  0  0  0  0  0  0  0  0
   11.2575   10.4858    5.5511 N   0  0  0  0  0  0  0  0  0  0  0  0
   10.9181   11.7054    5.0181 C   0  0  0  0  0  0  0  0  0  0  0  0
   10.8566   12.7202    5.9695 N   0  0  0  0  0  0  0  0  0  0  0  0
  1  2  1  0  0  0  0
  1  6  1  0  0  0  0
  2  3  2  0  0  0  0
  3  4  1  0  0  0  0
  4  5  2  0  0  0  0
  4 10  1  0  0  0  0
  5  6  1  0  0  0  0
  5  8  1  0  0  0  0
  6  7  2  0  0  0  0
  8  9  1  0  0  0  0
  9 10  2  0  0  0  0
M  END
>  <CHROM.1>
11.40547992,11.09041428,7.36360835,0.33080178,-1.32236756,0.92468645

>  <Name>
1u8d_lig

>  <RI>
0

>  <Rbt.Current_Directory>
/home/itssahil/PROJECTS/Mol_Feturizer/New_Systems/rnas/1u8d

>  <Rbt.Executable>
rbdock ($Id: //depot/dev/client3/rdock/2013.1/src/exe/rbdock.cxx#4 $)

>  <Rbt.Library>
libRbt.so (2013.1, Build901 2013/11/27)

>  <Rbt.Parameter_File>
/export/apps/rDock/src/rDock_2013.1_src/data/scripts/dock_solv.prm

>  <Rbt.Receptor>
prm/pocket_docking_4.prm

>  <SCORE>
-26.096

>  <SCORE.INTER>
-26.096

>  <SCORE.INTER.CONST>
1

>  <SCORE.INTER.POLAR>
-1.93632

>  <SCORE.INTER.ROT>
0

>  <SCORE.INTER.SOLV>
11.5697

>  <SCORE.INTER.VDW>
-18.3995

>  <SCORE.INTER.norm>
-2.6096

>  <SCORE.INTRA>
0

>  <SCORE.INTRA.DIHEDRAL>
0

>  <SCORE.INTRA.DIHEDRAL.0>
0

>  <SCORE.INTRA.POLAR>
0

>  <SCORE.INTRA.POLAR.0>
0

>  <SCORE.INTRA.REPUL>
0

>  <SCORE.INTRA.REPUL.0>
0

>  <SCORE.INTRA.SOLV>
0

>  <SCORE.INTRA.SOLV.lig_0>
-13.7928

>  <SCORE.INTRA.VDW>
0

>  <SCORE.INTRA.VDW.0>
0

>  <SCORE.INTRA.norm>
0

>  <SCORE.RESTR>
0

>  <SCORE.RESTR.CAVITY>
0

>  <SCORE.RESTR.norm>
0

>  <SCORE.SYSTEM>
0

>  <SCORE.SYSTEM.CONST>
0

>  <SCORE.SYSTEM.DIHEDRAL>
0

>  <SCORE.SYSTEM.SOLV>
0

>  <SCORE.SYSTEM.norm>
0

>  <SCORE.heavy>
10

>  <SCORE.norm>
-2.6096

>  <RMSD>
0.202

$$$$
1u8d_lig
 OpenBabel11021811413D
libRbt.so/2013.1/901 2013/11/27
 10 11  0  0  0  0  0  0  0  0999 V2000
   11.8263   10.5854    9.1871 N   0  0  0  0  0  0  0  0  0  0  0  0
   11.5943   11.9581    9.3788 C   0  0  0  0  0  0  0  0  0  0  0  0
   11.2735   12.8109    8.3726 N   0  0  0  0  0  0  0  0  0  0  0  0
   11.1990   12.1985    7.1710 C   0  0  0  0  0  0  0  0  0  0  0  0
   11.4437   10.7155    6.8981 C   0  0  0  0  0  0  0  0  0  0  0  0
   11.7746    9.8756    7.9727 C   0  0  0  0  0  0  0  0  0  0  0  0
   12.0041    8.6740    7.9848 O   0  0  0  0  0  0  0  0  0  0  0  0
   11.2677   10.5285    5.5545 N   0  0  0  0  0  0  0  0  0  0  0  0
   10.9350   11.7451    5.0107 C   0  0  0  0  0  0  0  0  0  0  0  0
   10.8856   12.7699    5.9518 N   0  0  0  0  0  0  0  0  0  0  0  0
  1  2  1  0  0  0  0
  1  6  1  0  0  0  0
  2  3  2  0  0  0  0
  3  4  1  0  0  0  0
  4  5  2  0  0  0  0
  4 10  1  0  0  0  0
  5  6  1  0  0  0  0
  5  8  1  0  0  0  0
  6  7  2  0  0  0  0
  8  9  1  0  0  0  0
  9 10  2  0  0  0  0
M  END
>  <CHROM.1>
11.42902374,11.15044932,7.35999549,0.29628502,-1.32529995,0.88095843

>  <Name>
1u8d_lig

>  <RI>
0

>  <Rbt.Current_Directory>
/home/itssahil/PROJECTS/Mol_Feturizer/New_Systems/rnas/1u8d

>  <Rbt.Executable>
rbdock ($Id: //depot/dev/client3/rdock/2013.1/src/exe/rbdock.cxx#4 $)

>  <Rbt.Library>
libRbt.so (2013.1, Build901 2013/11/27)

>  <Rbt.Parameter_File>
/export/apps/rDock/src/rDock_2013.1_src/data/scripts/dock_solv.prm

>  <Rbt.Receptor>
prm/pocket_docking_8.prm

>  <SCORE>
-26.0942

>  <SCORE.INTER>
-26.0942

>  <SCORE.INTER.CONST>
1

>  <SCORE.INTER.POLAR>
-1.93632

>  <SCORE.INTER.ROT>
0

>  <SCORE.INTER.SOLV>
11.5724

>  <SCORE.INTER.VDW>
-18.3992

>  <SCORE.INTER.norm>
-2.60942

>  <SCORE.INTRA>
0

>  <SCORE.INTRA.DIHEDRAL>
0

>  <SCORE.INTRA.DIHEDRAL.0>
0

>  <SCORE.INTRA.POLAR>
0

>  <SCORE.INTRA.POLAR.0>
0

>  <SCORE.INTRA.REPUL>
0

>  <SCORE.INTRA.REPUL.0>
0

>  <SCORE.INTRA.SOLV>
0

>  <SCORE.INTRA.SOLV.lig_0>
-13.7928

>  <SCORE.INTRA.VDW>
0

>  <SCORE.INTRA.VDW.0>
0

>  <SCORE.INTRA.norm>
0

>  <SCORE.RESTR>
0

>  <SCORE.RESTR.CAVITY>
0

>  <SCORE.RESTR.norm>
0

>  <SCORE.SYSTEM>
0

>  <SCORE.SYSTEM.CONST>
0

>  <SCORE.SYSTEM.DIHEDRAL>
0

>  <SCORE.SYSTEM.SOLV>
0

>  <SCORE.SYSTEM.norm>
0

>  <SCORE.heavy>
10

>  <SCORE.norm>
-2.60942

>  <RMSD>
0.202

$$$$
1u8d_lig
 OpenBabel11021811413D
libRbt.so/2013.1/901 2013/11/27
 10 11  0  0  0  0  0  0  0  0999 V2000
   11.7779   10.5926    9.1996 N   0  0  0  0  0  0  0  0  0  0  0  0
   11.5557   11.9682    9.3821 C   0  0  0  0  0  0  0  0  0  0  0  0
   11.2510   12.8184    8.3686 N   0  0  0  0  0  0  0  0  0  0  0  0
   11.1821   12.2002    7.1696 C   0  0  0  0  0  0  0  0  0  0  0  0
   11.4168   10.7137    6.9066 C   0  0  0  0  0  0  0  0  0  0  0  0
   11.7310    9.8768    7.9885 C   0  0  0  0  0  0  0  0  0  0  0  0
   11.9503    8.6734    8.0090 O   0  0  0  0  0  0  0  0  0  0  0  0
   11.2512   10.5211    5.5625 N   0  0  0  0  0  0  0  0  0  0  0  0
   10.9334   11.7375    5.0094 C   0  0  0  0  0  0  0  0  0  0  0  0
   10.8843   12.7677    5.9447 N   0  0  0  0  0  0  0  0  0  0  0  0
  1  2  1  0  0  0  0
  1  6  1  0  0  0  0
  2  3  2  0  0  0  0
  3  4  1  0  0  0  0
  4  5  2  0  0  0  0
  4 10  1  0  0  0  0
  5  6  1  0  0  0  0
  5  8  1  0  0  0  0
  6  7  2  0  0  0  0
  8  9  1  0  0  0  0
  9 10  2  0  0  0  0
M  END
>  <CHROM.1>
11.40161926,11.15126380,7.36606897,0.30281911,-1.33741557,0.88203663

>  <Name>
1u8d_lig

>  <RI>
0

>  <Rbt.Current_Directory>
/home/itssahil/PROJECTS/Mol_Feturizer/New_Systems/rnas/1u8d

>  <Rbt.Executable>
rbdock ($Id: //depot/dev/client3/rdock/2013.1/src/exe/rbdock.cxx#4 $)

>  <Rbt.Library>
libRbt.so (2013.1, Build901 2013/11/27)

>  <Rbt.Parameter_File>
/export/apps/rDock/src/rDock_2013.1_src/data/scripts/dock_solv.prm

>  <Rbt.Receptor>
prm/pocket_docking_4.prm

>  <SCORE>
-26.0474

>  <SCORE.INTER>
-26.0474

>  <SCORE.INTER.CONST>
1

>  <SCORE.INTER.POLAR>
-1.93632

>  <SCORE.INTER.ROT>
0

>  <SCORE.INTER.SOLV>
11.6413

>  <SCORE.INTER.VDW>
-18.391

>  <SCORE.INTER.norm>
-2.60474

>  <SCORE.INTRA>
0

>  <SCORE.INTRA.DIHEDRAL>
0

>  <SCORE.INTRA.DIHEDRAL.0>
0

>  <SCORE.INTRA.POLAR>
0

>  <SCORE.INTRA.POLAR.0>
0

>  <SCORE.INTRA.REPUL>
0

>  <SCORE.INTRA.REPUL.0>
0

>  <SCORE.INTRA.SOLV>
0

>  <SCORE.INTRA.SOLV.lig_0>
-13.7928

>  <SCORE.INTRA.VDW>
0

>  <SCORE.INTRA.VDW.0>
0

>  <SCORE.INTRA.norm>
0

>  <SCORE.RESTR>
0

>  <SCORE.RESTR.CAVITY>
0

>  <SCORE.RESTR.norm>
0

>  <SCORE.SYSTEM>
0

>  <SCORE.SYSTEM.CONST>
0

>  <SCORE.SYSTEM.DIHEDRAL>
0

>  <SCORE.SYSTEM.SOLV>
0

>  <SCORE.SYSTEM.norm>
0

>  <SCORE.heavy>
10

>  <SCORE.norm>
-2.60474

>  <RMSD>
0.203

$$$$
1u8d_lig
 OpenBabel11021811413D
libRbt.so/2013.1/901 2013/11/27
 10 11  0  0  0  0  0  0  0  0999 V2000
   11.7605   10.4886    9.2350 N   0  0  0  0  0  0  0  0  0  0  0  0
   11.5159   11.8561    9.4469 C   0  0  0  0  0  0  0  0  0  0  0  0
   11.2078   12.7249    8.4503 N   0  0  0  0  0  0  0  0  0  0  0  0
   11.1594   12.1337    7.2368 C   0  0  0  0  0  0  0  0  0  0  0  0
   11.4189   10.6573    6.9421 C   0  0  0  0  0  0  0  0  0  0  0  0
   11.7357    9.8004    8.0074 C   0  0  0  0  0  0  0  0  0  0  0  0
   11.9730    8.6002    8.0023 O   0  0  0  0  0  0  0  0  0  0  0  0
   11.2687   10.4934    5.5923 N   0  0  0  0  0  0  0  0  0  0  0  0
   10.9378   11.7174    5.0643 C   0  0  0  0  0  0  0  0  0  0  0  0
   10.8645   12.7249    6.0225 N   0  0  0  0  0  0  0  0  0  0  0  0
  1  2  1  0  0  0  0
  1  6  1  0  0  0  0
  2  3  2  0  0  0  0
  3  4  1  0  0  0  0
  4  5  2  0  0  0  0
  4 10  1  0  0  0  0
  5  6  1  0  0  0  0
  5  8  1  0  0  0  0
  6  7  2  0  0  0  0
  8  9  1  0  0  0  0
  9 10  2  0  0  0  0
M  END
>  <CHROM.1>
11.39289263,11.08383400,7.41126801,0.37354058,-1.33108478,0.97385903

>  <Name>
1u8d_lig

>  <RI>
0

>  <Rbt.Current_Directory>
/home/itssahil/PROJECTS/Mol_Feturizer/New_Systems/rnas/1u8d

>  <Rbt.Executable>
rbdock ($Id: //depot/dev/client3/rdock/2013.1/src/exe/rbdock.cxx#4 $)

>  <Rbt.Library>
libRbt.so (2013.1, Build901 2013/11/27)

>  <Rbt.Parameter_File>
/export/apps/rDock/src/rDock_2013.1_src/data/scripts/dock_solv.prm

>  <Rbt.Receptor>
prm/pocket_docking_4.prm

>  <SCORE>
-26.0386

>  <SCORE.INTER>
-26.0386

>  <SCORE.INTER.CONST>
1

>  <SCORE.INTER.POLAR>
-1.93632

>  <SCORE.INTER.ROT>
0

>  <SCORE.INTER.SOLV>
11.6103

>  <SCORE.INTER.VDW>
-18.3747

>  <SCORE.INTER.norm>
-2.60386

>  <SCORE.INTRA>
0

>  <SCORE.INTRA.DIHEDRAL>
0

>  <SCORE.INTRA.DIHEDRAL.0>
0

>  <SCORE.INTRA.POLAR>
0

>  <SCORE.INTRA.POLAR.0>
0

>  <SCORE.INTRA.REPUL>
0

>  <SCORE.INTRA.REPUL.0>
0

>  <SCORE.INTRA.SOLV>
0

>  <SCORE.INTRA.SOLV.lig_0>
-13.7928

>  <SCORE.INTRA.VDW>
0

>  <SCORE.INTRA.VDW.0>
0

>  <SCORE.INTRA.norm>
0

>  <SCORE.RESTR>
0

>  <SCORE.RESTR.CAVITY>
0

>  <SCORE.RESTR.norm>
0

>  <SCORE.SYSTEM>
0

>  <SCORE.SYSTEM.CONST>
0

>  <SCORE.SYSTEM.DIHEDRAL>
0

>  <SCORE.SYSTEM.SOLV>
0

>  <SCORE.SYSTEM.norm>
0

>  <SCORE.heavy>
10

>  <SCORE.norm>
-2.60386

>  <RMSD>
0.203

$$$$
1u8d_lig
 OpenBabel11021811413D
libRbt.so/2013.1/901 2013/11/27
 10 11  0  0  0  0  0  0  0  0999 V2000
   11.8402   10.5538    9.1821 N   0  0  0  0  0  0  0  0  0  0  0  0
   11.6165   11.9273    9.3786 C   0  0  0  0  0  0  0  0  0  0  0  0
   11.2800   12.7816    8.3788 N   0  0  0  0  0  0  0  0  0  0  0  0
   11.1811   12.1699    7.1786 C   0  0  0  0  0  0  0  0  0  0  0  0
   11.4156   10.6861    6.9007 C   0  0  0  0  0  0  0  0  0  0  0  0
   11.7635    9.8447    7.9687 C   0  0  0  0  0  0  0  0  0  0  0  0
   11.9891    8.6423    7.9761 O   0  0  0  0  0  0  0  0  0  0  0  0
   11.2140   10.5003    5.5605 N   0  0  0  0  0  0  0  0  0  0  0  0
   10.8754   11.7182    5.0234 C   0  0  0  0  0  0  0  0  0  0  0  0
   10.8470   12.7429    5.9656 N   0  0  0  0  0  0  0  0  0  0  0  0
  1  2  1  0  0  0  0
  1  6  1  0  0  0  0
  2  3  2  0  0  0  0
  3  4  1  0  0  0  0
  4  5  2  0  0  0  0
  4 10  1  0  0  0  0
  5  6  1  0  0  0  0
  5  8  1  0  0  0  0
  6  7  2  0  0  0  0
  8  9  1  0  0  0  0
  9 10  2  0  0  0  0
M  END
>  <CHROM.1>
11.41098015,11.12097918,7.36291086,0.23079517,-1.31559096,0.81786787

>  <Name>
1u8d_lig

>  <RI>
0

>  <Rbt.Current_Directory>
/home/itssahil/PROJECTS/Mol_Feturizer/New_Systems/rnas/1u8d

>  <Rbt.Executable>
rbdock ($Id: //depot/dev/client3/rdock/2013.1/src/exe/rbdock.cxx#4 $)

>  <Rbt.Library>
libRbt.so (2013.1, Build901 2013/11/27)

>  <Rbt.Parameter_File>
/export/apps/rDock/src/rDock_2013.1_src/data/scripts/dock_solv.prm

>  <Rbt.Receptor>
prm/pocket_docking_7.prm

>  <SCORE>
-26.0667

>  <SCORE.INTER>
-26.0667

>  <SCORE.INTER.CONST>
1

>  <SCORE.INTER.POLAR>
-1.93632

>  <SCORE.INTER.ROT>
0

>  <SCORE.INTER.SOLV>
11.5432

>  <SCORE.INTER.VDW>
-18.3712

>  <SCORE.INTER.norm>
-2.60667

>  <SCORE.INTRA>
0

>  <SCORE.INTRA.DIHEDRAL>
0

>  <SCORE.INTRA.DIHEDRAL.0>
0

>  <SCORE.INTRA.POLAR>
0

>  <SCORE.INTRA.POLAR.0>
0

>  <SCORE.INTRA.REPUL>
0

>  <SCORE.INTRA.REPUL.0>
0

>  <SCORE.INTRA.SOLV>
0

>  <SCORE.INTRA.SOLV.lig_0>
-13.7928

>  <SCORE.INTRA.VDW>
0

>  <SCORE.INTRA.VDW.0>
0

>  <SCORE.INTRA.norm>
0

>  <SCORE.RESTR>
0

>  <SCORE.RESTR.CAVITY>
0

>  <SCORE.RESTR.norm>
0

>  <SCORE.SYSTEM>
0

>  <SCORE.SYSTEM.CONST>
0

>  <SCORE.SYSTEM.DIHEDRAL>
0

>  <SCORE.SYSTEM.SOLV>
0

>  <SCORE.SYSTEM.norm>
0

>  <SCORE.heavy>
10

>  <SCORE.norm>
-2.60667

>  <RMSD>
0.203

$$$$
1u8d_lig
 OpenBabel11021811413D
libRbt.so/2013.1/901 2013/11/27
 10 11  0  0  0  0  0  0  0  0999 V2000
   11.8035   10.5298    9.1835 N   0  0  0  0  0  0  0  0  0  0  0  0
   11.5508   11.8952    9.3996 C   0  0  0  0  0  0  0  0  0  0  0  0
   11.2315   12.7639    8.4066 N   0  0  0  0  0  0  0  0  0  0  0  0
   11.1805   12.1749    7.1921 C   0  0  0  0  0  0  0  0  0  0  0  0
   11.4484   10.7010    6.8928 C   0  0  0  0  0  0  0  0  0  0  0  0
   11.7767    9.8440    7.9546 C   0  0  0  0  0  0  0  0  0  0  0  0
   12.0221    8.6455    7.9457 O   0  0  0  0  0  0  0  0  0  0  0  0
   11.2921   10.5389    5.5435 N   0  0  0  0  0  0  0  0  0  0  0  0
   10.9501   11.7617    5.0199 C   0  0  0  0  0  0  0  0  0  0  0  0
   10.8751   12.7667    5.9806 N   0  0  0  0  0  0  0  0  0  0  0  0
  1  2  1  0  0  0  0
  1  6  1  0  0  0  0
  2  3  2  0  0  0  0
  3  4  1  0  0  0  0
  4  5  2  0  0  0  0
  4 10  1  0  0  0  0
  5  6  1  0  0  0  0
  5  8  1  0  0  0  0
  6  7  2  0  0  0  0
  8  9  1  0  0  0  0
  9 10  2  0  0  0  0
M  END
>  <CHROM.1>
11.42205450,11.12634332,7.36304498,0.37086025,-1.32247367,0.97336015

>  <Name>
1u8d_lig

>  <RI>
0

>  <Rbt.Current_Directory>
/home/itssahil/PROJECTS/Mol_Feturizer/New_Systems/rnas/1u8d

>  <Rbt.Executable>
rbdock ($Id: //depot/dev/client3/rdock/2013.1/src/exe/rbdock.cxx#4 $)

>  <Rbt.Library>
libRbt.so (2013.1, Build901 2013/11/27)

>  <Rbt.Parameter_File>
/export/apps/rDock/src/rDock_2013.1_src/data/scripts/dock_solv.prm

>  <Rbt.Receptor>
prm/pocket_docking_7.prm

>  <SCORE>
-26.1105

>  <SCORE.INTER>
-26.1105

>  <SCORE.INTER.CONST>
1

>  <SCORE.INTER.POLAR>
-1.93632

>  <SCORE.INTER.ROT>
0

>  <SCORE.INTER.SOLV>
11.5525

>  <SCORE.INTER.VDW>
-18.4034

>  <SCORE.INTER.norm>
-2.61105

>  <SCORE.INTRA>
0

>  <SCORE.INTRA.DIHEDRAL>
0

>  <SCORE.INTRA.DIHEDRAL.0>
0

>  <SCORE.INTRA.POLAR>
0

>  <SCORE.INTRA.POLAR.0>
0

>  <SCORE.INTRA.REPUL>
0

>  <SCORE.INTRA.REPUL.0>
0

>  <SCORE.INTRA.SOLV>
0

>  <SCORE.INTRA.SOLV.lig_0>
-13.7928

>  <SCORE.INTRA.VDW>
0

>  <SCORE.INTRA.VDW.0>
0

>  <SCORE.INTRA.norm>
0

>  <SCORE.RESTR>
0

>  <SCORE.RESTR.CAVITY>
0

>  <SCORE.RESTR.norm>
0

>  <SCORE.SYSTEM>
0

>  <SCORE.SYSTEM.CONST>
0

>  <SCORE.SYSTEM.DIHEDRAL>
0

>  <SCORE.SYSTEM.SOLV>
0

>  <SCORE.SYSTEM.norm>
0

>  <SCORE.heavy>
10

>  <SCORE.norm>
-2.61105

>  <RMSD>
0.203

$$$$
1u8d_lig
 OpenBabel11021811413D
libRbt.so/2013.1/901 2013/11/27
 10 11  0  0  0  0  0  0  0  0999 V2000
   11.7090   10.4713    9.1697 N   0  0  0  0  0  0  0  0  0  0  0  0
   11.3587   11.8199    9.3528 C   0  0  0  0  0  0  0  0  0  0  0  0
   11.0017   12.6454    8.3360 N   0  0  0  0  0  0  0  0  0  0  0  0
   11.0172   12.0313    7.1331 C   0  0  0  0  0  0  0  0  0  0  0  0
   11.3919   10.5739    6.8694 C   0  0  0  0  0  0  0  0  0  0  0  0
   11.7555    9.7620    7.9548 C   0  0  0  0  0  0  0  0  0  0  0  0
   12.0827    8.5833    7.9753 O   0  0  0  0  0  0  0  0  0  0  0  0
   11.2758   10.3757    5.5209 N   0  0  0  0  0  0  0  0  0  0  0  0
   10.8619   11.5619    4.9656 C   0  0  0  0  0  0  0  0  0  0  0  0
   10.6977   12.5773    5.9039 N   0  0  0  0  0  0  0  0  0  0  0  0
  1  2  1  0  0  0  0
  1  6  1  0  0  0  0
  2  3  2  0  0  0  0
  3  4  1  0  0  0  0
  4  5  2  0  0  0  0
  4 10  1  0  0  0  0
  5  6  1  0  0  0  0
  5  8  1  0  0  0  0
  6  7  2  0  0  0  0
  8  9  1  0  0  0  0
  9 10  2  0  0  0  0
M  END
>  <CHROM.1>
11.32638030,11.00532111,7.33020144,0.56324558,-1.27244759,1.13892271

>  <Name>
1u8d_lig

>  <RI>
0

>  <Rbt.Current_Directory>
/home/itssahil/PROJECTS/Mol_Feturizer/New_Systems/rnas/1u8d

>  <Rbt.Executable>
rbdock ($Id: //depot/dev/client3/rdock/2013.1/src/exe/rbdock.cxx#4 $)

>  <Rbt.Library>
libRbt.so (2013.1, Build901 2013/11/27)

>  <Rbt.Parameter_File>
/export/apps/rDock/src/rDock_2013.1_src/data/scripts/dock_solv.prm

>  <Rbt.Receptor>
prm/blind_docking_20.prm

>  <SCORE>
-25.787

>  <SCORE.INTER>
-25.787

>  <SCORE.INTER.CONST>
1

>  <SCORE.INTER.POLAR>
-1.93632

>  <SCORE.INTER.ROT>
0

>  <SCORE.INTER.SOLV>
11.5873

>  <SCORE.INTER.VDW>
-18.1994

>  <SCORE.INTER.norm>
-2.5787

>  <SCORE.INTRA>
0

>  <SCORE.INTRA.DIHEDRAL>
0

>  <SCORE.INTRA.DIHEDRAL.0>
0

>  <SCORE.INTRA.POLAR>
0

>  <SCORE.INTRA.POLAR.0>
0

>  <SCORE.INTRA.REPUL>
0

>  <SCORE.INTRA.REPUL.0>
0

>  <SCORE.INTRA.SOLV>
0

>  <SCORE.INTRA.SOLV.lig_0>
-13.7928

>  <SCORE.INTRA.VDW>
0

>  <SCORE.INTRA.VDW.0>
0

>  <SCORE.INTRA.norm>
0

>  <SCORE.RESTR>
0

>  <SCORE.RESTR.CAVITY>
0

>  <SCORE.RESTR.norm>
0

>  <SCORE.SYSTEM>
0

>  <SCORE.SYSTEM.CONST>
0

>  <SCORE.SYSTEM.DIHEDRAL>
0

>  <SCORE.SYSTEM.SOLV>
0

>  <SCORE.SYSTEM.norm>
0

>  <SCORE.heavy>
10

>  <SCORE.norm>
-2.5787

>  <RMSD>
0.204

$$$$
1u8d_lig
 OpenBabel11021811413D
libRbt.so/2013.1/901 2013/11/27
 10 11  0  0  0  0  0  0  0  0999 V2000
   11.6970   10.4682    9.2860 N   0  0  0  0  0  0  0  0  0  0  0  0
   11.4077   11.8252    9.5094 C   0  0  0  0  0  0  0  0  0  0  0  0
   11.1081   12.7002    8.5158 N   0  0  0  0  0  0  0  0  0  0  0  0
   11.1157   12.1265    7.2930 C   0  0  0  0  0  0  0  0  0  0  0  0
   11.4258   10.6625    6.9858 C   0  0  0  0  0  0  0  0  0  0  0  0
   11.7314    9.7984    8.0485 C   0  0  0  0  0  0  0  0  0  0  0  0
   12.0021    8.6054    8.0340 O   0  0  0  0  0  0  0  0  0  0  0  0
   11.3243   10.5151    5.6296 N   0  0  0  0  0  0  0  0  0  0  0  0
   10.9767   11.7376    5.1085 C   0  0  0  0  0  0  0  0  0  0  0  0
   10.8442   12.7279    6.0782 N   0  0  0  0  0  0  0  0  0  0  0  0
  1  2  1  0  0  0  0
  1  6  1  0  0  0  0
  2  3  2  0  0  0  0
  3  4  1  0  0  0  0
  4  5  2  0  0  0  0
  4 10  1  0  0  0  0
  5  6  1  0  0  0  0
  5  8  1  0  0  0  0
  6  7  2  0  0  0  0
  8  9  1  0  0  0  0
  9 10  2  0  0  0  0
M  END
>  <CHROM.1>
11.37258526,11.08094502,7.45992043,0.54796192,-1.32272655,1.15796654

>  <Name>
1u8d_lig

>  <RI>
0

>  <Rbt.Current_Directory>
/home/itssahil/PROJECTS/Mol_Feturizer/New_Systems/rnas/1u8d

>  <Rbt.Executable>
rbdock ($Id: //depot/dev/client3/rdock/2013.1/src/exe/rbdock.cxx#4 $)

>  <Rbt.Library>
libRbt.so (2013.1, Build901 2013/11/27)

>  <Rbt.Parameter_File>
/export/apps/rDock/src/rDock_2013.1_src/data/scripts/dock_solv.prm

>  <Rbt.Receptor>
prm/pocket_docking_3.prm

>  <SCORE>
-25.9888

>  <SCORE.INTER>
-25.9888

>  <SCORE.INTER.CONST>
1

>  <SCORE.INTER.POLAR>
-1.93632

>  <SCORE.INTER.ROT>
0

>  <SCORE.INTER.SOLV>
11.6312

>  <SCORE.INTER.VDW>
-18.3485

>  <SCORE.INTER.norm>
-2.59888

>  <SCORE.INTRA>
0

>  <SCORE.INTRA.DIHEDRAL>
0

>  <SCORE.INTRA.DIHEDRAL.0>
0

>  <SCORE.INTRA.POLAR>
0

>  <SCORE.INTRA.POLAR.0>
0

>  <SCORE.INTRA.REPUL>
0

>  <SCORE.INTRA.REPUL.0>
0

>  <SCORE.INTRA.SOLV>
0

>  <SCORE.INTRA.SOLV.lig_0>
-13.7928

>  <SCORE.INTRA.VDW>
0

>  <SCORE.INTRA.VDW.0>
0

>  <SCORE.INTRA.norm>
0

>  <SCORE.RESTR>
0

>  <SCORE.RESTR.CAVITY>
0

>  <SCORE.RESTR.norm>
0

>  <SCORE.SYSTEM>
0

>  <SCORE.SYSTEM.CONST>
0

>  <SCORE.SYSTEM.DIHEDRAL>
0

>  <SCORE.SYSTEM.SOLV>
0

>  <SCORE.SYSTEM.norm>
0

>  <SCORE.heavy>
10

>  <SCORE.norm>
-2.59888

>  <RMSD>
0.204

$$$$
1u8d_lig
 OpenBabel11021811413D
libRbt.so/2013.1/901 2013/11/27
 10 11  0  0  0  0  0  0  0  0999 V2000
   11.7809   10.5606    9.2223 N   0  0  0  0  0  0  0  0  0  0  0  0
   11.5622   11.9355    9.4145 C   0  0  0  0  0  0  0  0  0  0  0  0
   11.2602   12.7936    8.4070 N   0  0  0  0  0  0  0  0  0  0  0  0
   11.1903   12.1843    7.2035 C   0  0  0  0  0  0  0  0  0  0  0  0
   11.4213   10.6991    6.9301 C   0  0  0  0  0  0  0  0  0  0  0  0
   11.7328    9.8537    8.0061 C   0  0  0  0  0  0  0  0  0  0  0  0
   11.9489    8.6496    8.0180 O   0  0  0  0  0  0  0  0  0  0  0  0
   11.2559   10.5165    5.5845 N   0  0  0  0  0  0  0  0  0  0  0  0
   10.9416   11.7377    5.0399 C   0  0  0  0  0  0  0  0  0  0  0  0
   10.8947   12.7613    5.9826 N   0  0  0  0  0  0  0  0  0  0  0  0
  1  2  1  0  0  0  0
  1  6  1  0  0  0  0
  2  3  2  0  0  0  0
  3  4  1  0  0  0  0
  4  5  2  0  0  0  0
  4 10  1  0  0  0  0
  5  6  1  0  0  0  0
  5  8  1  0  0  0  0
  6  7  2  0  0  0  0
  8  9  1  0  0  0  0
  9 10  2  0  0  0  0
M  END
>  <CHROM.1>
11.40702457,11.13336768,7.39262250,0.29736445,-1.33975845,0.88389265

>  <Name>
1u8d_lig

>  <RI>
0

>  <Rbt.Current_Directory>
/home/itssahil/PROJECTS/Mol_Feturizer/New_Systems/rnas/1u8d

>  <Rbt.Executable>
rbdock ($Id: //depot/dev/client3/rdock/2013.1/src/exe/rbdock.cxx#4 $)

>  <Rbt.Library>
libRbt.so (2013.1, Build901 2013/11/27)

>  <Rbt.Parameter_File>
/export/apps/rDock/src/rDock_2013.1_src/data/scripts/dock_solv.prm

>  <Rbt.Receptor>
prm/pocket_docking_7.prm

>  <SCORE>
-26.0262

>  <SCORE.INTER>
-26.0262

>  <SCORE.INTER.CONST>
1

>  <SCORE.INTER.POLAR>
-1.93632

>  <SCORE.INTER.ROT>
0

>  <SCORE.INTER.SOLV>
11.635

>  <SCORE.INTER.VDW>
-18.3748

>  <SCORE.INTER.norm>
-2.60262

>  <SCORE.INTRA>
0

>  <SCORE.INTRA.DIHEDRAL>
0

>  <SCORE.INTRA.DIHEDRAL.0>
0

>  <SCORE.INTRA.POLAR>
0

>  <SCORE.INTRA.POLAR.0>
0

>  <SCORE.INTRA.REPUL>
0

>  <SCORE.INTRA.REPUL.0>
0

>  <SCORE.INTRA.SOLV>
0

>  <SCORE.INTRA.SOLV.lig_0>
-13.7928

>  <SCORE.INTRA.VDW>
0

>  <SCORE.INTRA.VDW.0>
0

>  <SCORE.INTRA.norm>
0

>  <SCORE.RESTR>
0

>  <SCORE.RESTR.CAVITY>
0

>  <SCORE.RESTR.norm>
0

>  <SCORE.SYSTEM>
0

>  <SCORE.SYSTEM.CONST>
0

>  <SCORE.SYSTEM.DIHEDRAL>
0

>  <SCORE.SYSTEM.SOLV>
0

>  <SCORE.SYSTEM.norm>
0

>  <SCORE.heavy>
10

>  <SCORE.norm>
-2.60262

>  <RMSD>
0.204

$$$$
1u8d_lig
 OpenBabel11021811413D
libRbt.so/2013.1/901 2013/11/27
 10 11  0  0  0  0  0  0  0  0999 V2000
   11.8368   10.5594    9.1598 N   0  0  0  0  0  0  0  0  0  0  0  0
   11.5734   11.9244    9.3657 C   0  0  0  0  0  0  0  0  0  0  0  0
   11.2458   12.7827    8.3663 N   0  0  0  0  0  0  0  0  0  0  0  0
   11.1981   12.1838    7.1565 C   0  0  0  0  0  0  0  0  0  0  0  0
   11.4776   10.7099    6.8684 C   0  0  0  0  0  0  0  0  0  0  0  0
   11.8141    9.8639    7.9364 C   0  0  0  0  0  0  0  0  0  0  0  0
   12.0692    8.6673    7.9365 O   0  0  0  0  0  0  0  0  0  0  0  0
   11.3210   10.5359    5.5206 N   0  0  0  0  0  0  0  0  0  0  0  0
   10.9684   11.7519    4.9879 C   0  0  0  0  0  0  0  0  0  0  0  0
   10.8864   12.7636    5.9409 N   0  0  0  0  0  0  0  0  0  0  0  0
  1  2  1  0  0  0  0
  1  6  1  0  0  0  0
  2  3  2  0  0  0  0
  3  4  1  0  0  0  0
  4  5  2  0  0  0  0
  4 10  1  0  0  0  0
  5  6  1  0  0  0  0
  5  8  1  0  0  0  0
  6  7  2  0  0  0  0
  8  9  1  0  0  0  0
  9 10  2  0  0  0  0
M  END
>  <CHROM.1>
11.44835287,11.13861815,7.33532260,0.38491433,-1.31505795,0.97918647

>  <Name>
1u8d_lig

>  <RI>
0

>  <Rbt.Current_Directory>
/home/itssahil/PROJECTS/Mol_Feturizer/New_Systems/rnas/1u8d

>  <Rbt.Executable>
rbdock ($Id: //depot/dev/client3/rdock/2013.1/src/exe/rbdock.cxx#4 $)

>  <Rbt.Library>
libRbt.so (2013.1, Build901 2013/11/27)

>  <Rbt.Parameter_File>
/export/apps/rDock/src/rDock_2013.1_src/data/scripts/dock_solv.prm

>  <Rbt.Receptor>
prm/pocket_docking_7.prm

>  <SCORE>
-26.098

>  <SCORE.INTER>
-26.098

>  <SCORE.INTER.CONST>
1

>  <SCORE.INTER.POLAR>
-1.93632

>  <SCORE.INTER.ROT>
0

>  <SCORE.INTER.SOLV>
11.5252

>  <SCORE.INTER.VDW>
-18.386

>  <SCORE.INTER.norm>
-2.6098

>  <SCORE.INTRA>
0

>  <SCORE.INTRA.DIHEDRAL>
0

>  <SCORE.INTRA.DIHEDRAL.0>
0

>  <SCORE.INTRA.POLAR>
0

>  <SCORE.INTRA.POLAR.0>
0

>  <SCORE.INTRA.REPUL>
0

>  <SCORE.INTRA.REPUL.0>
0

>  <SCORE.INTRA.SOLV>
0

>  <SCORE.INTRA.SOLV.lig_0>
-13.7928

>  <SCORE.INTRA.VDW>
0

>  <SCORE.INTRA.VDW.0>
0

>  <SCORE.INTRA.norm>
0

>  <SCORE.RESTR>
0

>  <SCORE.RESTR.CAVITY>
0

>  <SCORE.RESTR.norm>
0

>  <SCORE.SYSTEM>
0

>  <SCORE.SYSTEM.CONST>
0

>  <SCORE.SYSTEM.DIHEDRAL>
0

>  <SCORE.SYSTEM.SOLV>
0

>  <SCORE.SYSTEM.norm>
0

>  <SCORE.heavy>
10

>  <SCORE.norm>
-2.6098

>  <RMSD>
0.204

$$$$
1u8d_lig
 OpenBabel11021811413D
libRbt.so/2013.1/901 2013/11/27
 10 11  0  0  0  0  0  0  0  0999 V2000
   11.7890   10.4949    9.2110 N   0  0  0  0  0  0  0  0  0  0  0  0
   11.5554   11.8654    9.4165 C   0  0  0  0  0  0  0  0  0  0  0  0
   11.2356   12.7282    8.4185 N   0  0  0  0  0  0  0  0  0  0  0  0
   11.1638   12.1281    7.2106 C   0  0  0  0  0  0  0  0  0  0  0  0
   11.4103   10.6482    6.9229 C   0  0  0  0  0  0  0  0  0  0  0  0
   11.7400    9.7976    7.9894 C   0  0  0  0  0  0  0  0  0  0  0  0
   11.9707    8.5961    7.9895 O   0  0  0  0  0  0  0  0  0  0  0  0
   11.2369   10.4748    5.5771 N   0  0  0  0  0  0  0  0  0  0  0  0
   10.9040   11.6967    5.0452 C   0  0  0  0  0  0  0  0  0  0  0  0
   10.8520   12.7117    5.9968 N   0  0  0  0  0  0  0  0  0  0  0  0
  1  2  1  0  0  0  0
  1  6  1  0  0  0  0
  2  3  2  0  0  0  0
  3  4  1  0  0  0  0
  4  5  2  0  0  0  0
  4 10  1  0  0  0  0
  5  6  1  0  0  0  0
  5  8  1  0  0  0  0
  6  7  2  0  0  0  0
  8  9  1  0  0  0  0
  9 10  2  0  0  0  0
M  END
>  <CHROM.1>
11.39442750,11.07834540,7.38914848,0.30432407,-1.32572010,0.89904376

>  <Name>
1u8d_lig

>  <RI>
0

>  <Rbt.Current_Directory>
/home/itssahil/PROJECTS/Mol_Feturizer/New_Systems/rnas/1u8d

>  <Rbt.Executable>
rbdock ($Id: //depot/dev/client3/rdock/2013.1/src/exe/rbdock.cxx#4 $)

>  <Rbt.Library>
libRbt.so (2013.1, Build901 2013/11/27)

>  <Rbt.Parameter_File>
/export/apps/rDock/src/rDock_2013.1_src/data/scripts/dock_solv.prm

>  <Rbt.Receptor>
prm/blind_docking_100.prm

>  <SCORE>
-26.0642

>  <SCORE.INTER>
-26.0642

>  <SCORE.INTER.CONST>
1

>  <SCORE.INTER.POLAR>
-1.93632

>  <SCORE.INTER.ROT>
0

>  <SCORE.INTER.SOLV>
11.5856

>  <SCORE.INTER.VDW>
-18.3836

>  <SCORE.INTER.norm>
-2.60642

>  <SCORE.INTRA>
0

>  <SCORE.INTRA.DIHEDRAL>
0

>  <SCORE.INTRA.DIHEDRAL.0>
0

>  <SCORE.INTRA.POLAR>
0

>  <SCORE.INTRA.POLAR.0>
0

>  <SCORE.INTRA.REPUL>
0

>  <SCORE.INTRA.REPUL.0>
0

>  <SCORE.INTRA.SOLV>
0

>  <SCORE.INTRA.SOLV.lig_0>
-13.7928

>  <SCORE.INTRA.VDW>
0

>  <SCORE.INTRA.VDW.0>
0

>  <SCORE.INTRA.norm>
0

>  <SCORE.RESTR>
0

>  <SCORE.RESTR.CAVITY>
0

>  <SCORE.RESTR.norm>
0

>  <SCORE.SYSTEM>
0

>  <SCORE.SYSTEM.CONST>
0

>  <SCORE.SYSTEM.DIHEDRAL>
0

>  <SCORE.SYSTEM.SOLV>
0

>  <SCORE.SYSTEM.norm>
0

>  <SCORE.heavy>
10

>  <SCORE.norm>
-2.60642

>  <RMSD>
0.205

$$$$
1u8d_lig
 OpenBabel11021811413D
libRbt.so/2013.1/901 2013/11/27
 10 11  0  0  0  0  0  0  0  0999 V2000
   11.7171   10.5098    9.2504 N   0  0  0  0  0  0  0  0  0  0  0  0
   11.4373   11.8683    9.4765 C   0  0  0  0  0  0  0  0  0  0  0  0
   11.1462   12.7480    8.4844 N   0  0  0  0  0  0  0  0  0  0  0  0
   11.1519   12.1771    7.2603 C   0  0  0  0  0  0  0  0  0  0  0  0
   11.4517   10.7116    6.9501 C   0  0  0  0  0  0  0  0  0  0  0  0
   11.7489    9.8427    8.0114 C   0  0  0  0  0  0  0  0  0  0  0  0
   12.0108    8.6478    7.9945 O   0  0  0  0  0  0  0  0  0  0  0  0
   11.3517   10.5682    5.5934 N   0  0  0  0  0  0  0  0  0  0  0  0
   11.0143   11.7945    5.0746 C   0  0  0  0  0  0  0  0  0  0  0  0
   10.8871   12.7834    6.0464 N   0  0  0  0  0  0  0  0  0  0  0  0
  1  2  1  0  0  0  0
  1  6  1  0  0  0  0
  2  3  2  0  0  0  0
  3  4  1  0  0  0  0
  4  5  2  0  0  0  0
  4 10  1  0  0  0  0
  5  6  1  0  0  0  0
  5  8  1  0  0  0  0
  6  7  2  0  0  0  0
  8  9  1  0  0  0  0
  9 10  2  0  0  0  0
M  END
>  <CHROM.1>
11.40071281,11.12928906,7.42516471,0.54290436,-1.33026665,1.15545337

>  <Name>
1u8d_lig

>  <RI>
0

>  <Rbt.Current_Directory>
/home/itssahil/PROJECTS/Mol_Feturizer/New_Systems/rnas/1u8d

>  <Rbt.Executable>
rbdock ($Id: //depot/dev/client3/rdock/2013.1/src/exe/rbdock.cxx#4 $)

>  <Rbt.Library>
libRbt.so (2013.1, Build901 2013/11/27)

>  <Rbt.Parameter_File>
/export/apps/rDock/src/rDock_2013.1_src/data/scripts/dock_solv.prm

>  <Rbt.Receptor>
prm/blind_docking_60.prm

>  <SCORE>
-25.9569

>  <SCORE.INTER>
-25.9569

>  <SCORE.INTER.CONST>
1

>  <SCORE.INTER.POLAR>
-1.93632

>  <SCORE.INTER.ROT>
0

>  <SCORE.INTER.SOLV>
11.6207

>  <SCORE.INTER.VDW>
-18.3238

>  <SCORE.INTER.norm>
-2.59569

>  <SCORE.INTRA>
0

>  <SCORE.INTRA.DIHEDRAL>
0

>  <SCORE.INTRA.DIHEDRAL.0>
0

>  <SCORE.INTRA.POLAR>
0

>  <SCORE.INTRA.POLAR.0>
0

>  <SCORE.INTRA.REPUL>
0

>  <SCORE.INTRA.REPUL.0>
0

>  <SCORE.INTRA.SOLV>
0

>  <SCORE.INTRA.SOLV.lig_0>
-13.7928

>  <SCORE.INTRA.VDW>
0

>  <SCORE.INTRA.VDW.0>
0

>  <SCORE.INTRA.norm>
0

>  <SCORE.RESTR>
0

>  <SCORE.RESTR.CAVITY>
0

>  <SCORE.RESTR.norm>
0

>  <SCORE.SYSTEM>
0

>  <SCORE.SYSTEM.CONST>
0

>  <SCORE.SYSTEM.DIHEDRAL>
0

>  <SCORE.SYSTEM.SOLV>
0

>  <SCORE.SYSTEM.norm>
0

>  <SCORE.heavy>
10

>  <SCORE.norm>
-2.59569

>  <RMSD>
0.205

$$$$
1u8d_lig
 OpenBabel11021811413D
libRbt.so/2013.1/901 2013/11/27
 10 11  0  0  0  0  0  0  0  0999 V2000
   11.7337   10.4829    9.2828 N   0  0  0  0  0  0  0  0  0  0  0  0
   11.4748   11.8471    9.4996 C   0  0  0  0  0  0  0  0  0  0  0  0
   11.1758   12.7199    8.5039 N   0  0  0  0  0  0  0  0  0  0  0  0
   11.1515   12.1364    7.2860 C   0  0  0  0  0  0  0  0  0  0  0  0
   11.4276   10.6641    6.9858 C   0  0  0  0  0  0  0  0  0  0  0  0
   11.7342    9.8027    8.0505 C   0  0  0  0  0  0  0  0  0  0  0  0
   11.9811    8.6045    8.0415 O   0  0  0  0  0  0  0  0  0  0  0  0
   11.3004   10.5079    5.6328 N   0  0  0  0  0  0  0  0  0  0  0  0
   10.9682   11.7328    5.1074 C   0  0  0  0  0  0  0  0  0  0  0  0
   10.8714   12.7332    6.0709 N   0  0  0  0  0  0  0  0  0  0  0  0
  1  2  1  0  0  0  0
  1  6  1  0  0  0  0
  2  3  2  0  0  0  0
  3  4  1  0  0  0  0
  4  5  2  0  0  0  0
  4 10  1  0  0  0  0
  5  6  1  0  0  0  0
  5  8  1  0  0  0  0
  6  7  2  0  0  0  0
  8  9  1  0  0  0  0
  9 10  2  0  0  0  0
M  END
>  <CHROM.1>
11.39065372,11.08728931,7.45731591,0.44901877,-1.33279914,1.05375037

>  <Name>
1u8d_lig

>  <RI>
0

>  <Rbt.Current_Directory>
/home/itssahil/PROJECTS/Mol_Feturizer/New_Systems/rnas/1u8d

>  <Rbt.Executable>
rbdock ($Id: //depot/dev/client3/rdock/2013.1/src/exe/rbdock.cxx#4 $)

>  <Rbt.Library>
libRbt.so (2013.1, Build901 2013/11/27)

>  <Rbt.Parameter_File>
/export/apps/rDock/src/rDock_2013.1_src/data/scripts/dock_solv.prm

>  <Rbt.Receptor>
prm/pocket_docking_8.prm

>  <SCORE>
-26.0865

>  <SCORE.INTER>
-26.0865

>  <SCORE.INTER.CONST>
1

>  <SCORE.INTER.POLAR>
-1.93632

>  <SCORE.INTER.ROT>
0

>  <SCORE.INTER.SOLV>
11.6214

>  <SCORE.INTER.VDW>
-18.4104

>  <SCORE.INTER.norm>
-2.60865

>  <SCORE.INTRA>
0

>  <SCORE.INTRA.DIHEDRAL>
0

>  <SCORE.INTRA.DIHEDRAL.0>
0

>  <SCORE.INTRA.POLAR>
0

>  <SCORE.INTRA.POLAR.0>
0

>  <SCORE.INTRA.REPUL>
0

>  <SCORE.INTRA.REPUL.0>
0

>  <SCORE.INTRA.SOLV>
0

>  <SCORE.INTRA.SOLV.lig_0>
-13.7928

>  <SCORE.INTRA.VDW>
0

>  <SCORE.INTRA.VDW.0>
0

>  <SCORE.INTRA.norm>
0

>  <SCORE.RESTR>
0

>  <SCORE.RESTR.CAVITY>
0

>  <SCORE.RESTR.norm>
0

>  <SCORE.SYSTEM>
0

>  <SCORE.SYSTEM.CONST>
0

>  <SCORE.SYSTEM.DIHEDRAL>
0

>  <SCORE.SYSTEM.SOLV>
0

>  <SCORE.SYSTEM.norm>
0

>  <SCORE.heavy>
10

>  <SCORE.norm>
-2.60865

>  <RMSD>
0.205

$$$$
1u8d_lig
 OpenBabel11021811413D
libRbt.so/2013.1/901 2013/11/27
 10 11  0  0  0  0  0  0  0  0999 V2000
   11.6845   10.4646    9.1890 N   0  0  0  0  0  0  0  0  0  0  0  0
   11.3390   11.8149    9.3686 C   0  0  0  0  0  0  0  0  0  0  0  0
   11.0003   12.6433    8.3478 N   0  0  0  0  0  0  0  0  0  0  0  0
   11.0288   12.0301    7.1446 C   0  0  0  0  0  0  0  0  0  0  0  0
   11.3993   10.5710    6.8846 C   0  0  0  0  0  0  0  0  0  0  0  0
   11.7438    9.7562    7.9741 C   0  0  0  0  0  0  0  0  0  0  0  0
   12.0643    8.5758    7.9979 O   0  0  0  0  0  0  0  0  0  0  0  0
   11.3005   10.3747    5.5345 N   0  0  0  0  0  0  0  0  0  0  0  0
   10.9006   11.5635    4.9747 C   0  0  0  0  0  0  0  0  0  0  0  0
   10.7291   12.5790    5.9117 N   0  0  0  0  0  0  0  0  0  0  0  0
  1  2  1  0  0  0  0
  1  6  1  0  0  0  0
  2  3  2  0  0  0  0
  3  4  1  0  0  0  0
  4  5  2  0  0  0  0
  4 10  1  0  0  0  0
  5  6  1  0  0  0  0
  5  8  1  0  0  0  0
  6  7  2  0  0  0  0
  8  9  1  0  0  0  0
  9 10  2  0  0  0  0
M  END
>  <CHROM.1>
11.32982638,11.00235951,7.34493782,0.59885896,-1.28283653,1.17394741

>  <Name>
1u8d_lig

>  <RI>
0

>  <Rbt.Current_Directory>
/home/itssahil/PROJECTS/Mol_Feturizer/New_Systems/rnas/1u8d

>  <Rbt.Executable>
rbdock ($Id: //depot/dev/client3/rdock/2013.1/src/exe/rbdock.cxx#4 $)

>  <Rbt.Library>
libRbt.so (2013.1, Build901 2013/11/27)

>  <Rbt.Parameter_File>
/export/apps/rDock/src/rDock_2013.1_src/data/scripts/dock_solv.prm

>  <Rbt.Receptor>
prm/blind_docking_20.prm

>  <SCORE>
-25.7759

>  <SCORE.INTER>
-25.7759

>  <SCORE.INTER.CONST>
1

>  <SCORE.INTER.POLAR>
-1.93632

>  <SCORE.INTER.ROT>
0

>  <SCORE.INTER.SOLV>
11.6249

>  <SCORE.INTER.VDW>
-18.2045

>  <SCORE.INTER.norm>
-2.57759

>  <SCORE.INTRA>
0

>  <SCORE.INTRA.DIHEDRAL>
0

>  <SCORE.INTRA.DIHEDRAL.0>
0

>  <SCORE.INTRA.POLAR>
0

>  <SCORE.INTRA.POLAR.0>
0

>  <SCORE.INTRA.REPUL>
0

>  <SCORE.INTRA.REPUL.0>
0

>  <SCORE.INTRA.SOLV>
0

>  <SCORE.INTRA.SOLV.lig_0>
-13.7928

>  <SCORE.INTRA.VDW>
0

>  <SCORE.INTRA.VDW.0>
0

>  <SCORE.INTRA.norm>
0

>  <SCORE.RESTR>
0

>  <SCORE.RESTR.CAVITY>
0

>  <SCORE.RESTR.norm>
0

>  <SCORE.SYSTEM>
0

>  <SCORE.SYSTEM.CONST>
0

>  <SCORE.SYSTEM.DIHEDRAL>
0

>  <SCORE.SYSTEM.SOLV>
0

>  <SCORE.SYSTEM.norm>
0

>  <SCORE.heavy>
10

>  <SCORE.norm>
-2.57759

>  <RMSD>
0.206

$$$$
1u8d_lig
 OpenBabel11021811413D
libRbt.so/2013.1/901 2013/11/27
 10 11  0  0  0  0  0  0  0  0999 V2000
   11.7797   10.5004    9.2070 N   0  0  0  0  0  0  0  0  0  0  0  0
   11.5453   11.8717    9.4065 C   0  0  0  0  0  0  0  0  0  0  0  0
   11.2344   12.7318    8.4034 N   0  0  0  0  0  0  0  0  0  0  0  0
   11.1722   12.1282    7.1967 C   0  0  0  0  0  0  0  0  0  0  0  0
   11.4201   10.6473    6.9153 C   0  0  0  0  0  0  0  0  0  0  0  0
   11.7404    9.7996    7.9869 C   0  0  0  0  0  0  0  0  0  0  0  0
   11.9702    8.5980    7.9925 O   0  0  0  0  0  0  0  0  0  0  0  0
   11.2578   10.4702    5.5686 N   0  0  0  0  0  0  0  0  0  0  0  0
   10.9301   11.6907    5.0305 C   0  0  0  0  0  0  0  0  0  0  0  0
   10.8709   12.7086    5.9786 N   0  0  0  0  0  0  0  0  0  0  0  0
  1  2  1  0  0  0  0
  1  6  1  0  0  0  0
  2  3  2  0  0  0  0
  3  4  1  0  0  0  0
  4  5  2  0  0  0  0
  4 10  1  0  0  0  0
  5  6  1  0  0  0  0
  5  8  1  0  0  0  0
  6  7  2  0  0  0  0
  8  9  1  0  0  0  0
  9 10  2  0  0  0  0
M  END
>  <CHROM.1>
11.40064383,11.07886842,7.38018627,0.32991913,-1.33132036,0.92099280

>  <Name>
1u8d_lig

>  <RI>
0

>  <Rbt.Current_Directory>
/home/itssahil/PROJECTS/Mol_Feturizer/New_Systems/rnas/1u8d

>  <Rbt.Executable>
rbdock ($Id: //depot/dev/client3/rdock/2013.1/src/exe/rbdock.cxx#4 $)

>  <Rbt.Library>
libRbt.so (2013.1, Build901 2013/11/27)

>  <Rbt.Parameter_File>
/export/apps/rDock/src/rDock_2013.1_src/data/scripts/dock_solv.prm

>  <Rbt.Receptor>
prm/blind_docking_60.prm

>  <SCORE>
-26.0646

>  <SCORE.INTER>
-26.0646

>  <SCORE.INTER.CONST>
1

>  <SCORE.INTER.POLAR>
-1.93632

>  <SCORE.INTER.ROT>
0

>  <SCORE.INTER.SOLV>
11.6056

>  <SCORE.INTER.VDW>
-18.3905

>  <SCORE.INTER.norm>
-2.60646

>  <SCORE.INTRA>
0

>  <SCORE.INTRA.DIHEDRAL>
0

>  <SCORE.INTRA.DIHEDRAL.0>
0

>  <SCORE.INTRA.POLAR>
0

>  <SCORE.INTRA.POLAR.0>
0

>  <SCORE.INTRA.REPUL>
0

>  <SCORE.INTRA.REPUL.0>
0

>  <SCORE.INTRA.SOLV>
0

>  <SCORE.INTRA.SOLV.lig_0>
-13.7928

>  <SCORE.INTRA.VDW>
0

>  <SCORE.INTRA.VDW.0>
0

>  <SCORE.INTRA.norm>
0

>  <SCORE.RESTR>
0

>  <SCORE.RESTR.CAVITY>
0

>  <SCORE.RESTR.norm>
0

>  <SCORE.SYSTEM>
0

>  <SCORE.SYSTEM.CONST>
0

>  <SCORE.SYSTEM.DIHEDRAL>
0

>  <SCORE.SYSTEM.SOLV>
0

>  <SCORE.SYSTEM.norm>
0

>  <SCORE.heavy>
10

>  <SCORE.norm>
-2.60646

>  <RMSD>
0.206

$$$$
1u8d_lig
 OpenBabel11021811413D
libRbt.so/2013.1/901 2013/11/27
 10 11  0  0  0  0  0  0  0  0999 V2000
   11.7052   10.4767    9.2576 N   0  0  0  0  0  0  0  0  0  0  0  0
   11.4443   11.8407    9.4730 C   0  0  0  0  0  0  0  0  0  0  0  0
   11.1488   12.7131    8.4758 N   0  0  0  0  0  0  0  0  0  0  0  0
   11.1303   12.1292    7.2579 C   0  0  0  0  0  0  0  0  0  0  0  0
   11.4089   10.6571    6.9593 C   0  0  0  0  0  0  0  0  0  0  0  0
   11.7115    9.7962    8.0255 C   0  0  0  0  0  0  0  0  0  0  0  0
   11.9595    8.5982    8.0178 O   0  0  0  0  0  0  0  0  0  0  0  0
   11.2877   10.5005    5.6057 N   0  0  0  0  0  0  0  0  0  0  0  0
   10.9567   11.7250    5.0787 C   0  0  0  0  0  0  0  0  0  0  0  0
   10.8550   12.7256    6.0414 N   0  0  0  0  0  0  0  0  0  0  0  0
  1  2  1  0  0  0  0
  1  6  1  0  0  0  0
  2  3  2  0  0  0  0
  3  4  1  0  0  0  0
  4  5  2  0  0  0  0
  4 10  1  0  0  0  0
  5  6  1  0  0  0  0
  5  8  1  0  0  0  0
  6  7  2  0  0  0  0
  8  9  1  0  0  0  0
  9 10  2  0  0  0  0
M  END
>  <CHROM.1>
11.36954338,11.08038600,7.43050162,0.46675862,-1.33419587,1.07075231

>  <Name>
1u8d_lig

>  <RI>
0

>  <Rbt.Current_Directory>
/home/itssahil/PROJECTS/Mol_Feturizer/New_Systems/rnas/1u8d

>  <Rbt.Executable>
rbdock ($Id: //depot/dev/client3/rdock/2013.1/src/exe/rbdock.cxx#4 $)

>  <Rbt.Library>
libRbt.so (2013.1, Build901 2013/11/27)

>  <Rbt.Parameter_File>
/export/apps/rDock/src/rDock_2013.1_src/data/scripts/dock_solv.prm

>  <Rbt.Receptor>
prm/pocket_docking_6.prm

>  <SCORE>
-26.0621

>  <SCORE.INTER>
-26.0621

>  <SCORE.INTER.CONST>
1

>  <SCORE.INTER.POLAR>
-1.93632

>  <SCORE.INTER.ROT>
0

>  <SCORE.INTER.SOLV>
11.6591

>  <SCORE.INTER.VDW>
-18.4067

>  <SCORE.INTER.norm>
-2.60621

>  <SCORE.INTRA>
0

>  <SCORE.INTRA.DIHEDRAL>
0

>  <SCORE.INTRA.DIHEDRAL.0>
0

>  <SCORE.INTRA.POLAR>
0

>  <SCORE.INTRA.POLAR.0>
0

>  <SCORE.INTRA.REPUL>
0

>  <SCORE.INTRA.REPUL.0>
0

>  <SCORE.INTRA.SOLV>
0

>  <SCORE.INTRA.SOLV.lig_0>
-13.7928

>  <SCORE.INTRA.VDW>
0

>  <SCORE.INTRA.VDW.0>
0

>  <SCORE.INTRA.norm>
0

>  <SCORE.RESTR>
0

>  <SCORE.RESTR.CAVITY>
0

>  <SCORE.RESTR.norm>
0

>  <SCORE.SYSTEM>
0

>  <SCORE.SYSTEM.CONST>
0

>  <SCORE.SYSTEM.DIHEDRAL>
0

>  <SCORE.SYSTEM.SOLV>
0

>  <SCORE.SYSTEM.norm>
0

>  <SCORE.heavy>
10

>  <SCORE.norm>
-2.60621

>  <RMSD>
0.206

$$$$
1u8d_lig
 OpenBabel11021811413D
libRbt.so/2013.1/901 2013/11/27
 10 11  0  0  0  0  0  0  0  0999 V2000
   11.6681   10.4803    9.1849 N   0  0  0  0  0  0  0  0  0  0  0  0
   11.3205   11.8312    9.3561 C   0  0  0  0  0  0  0  0  0  0  0  0
   10.9890   12.6549    8.3293 N   0  0  0  0  0  0  0  0  0  0  0  0
   11.0270   12.0367    7.1290 C   0  0  0  0  0  0  0  0  0  0  0  0
   11.4003   10.5767    6.8780 C   0  0  0  0  0  0  0  0  0  0  0  0
   11.7370    9.7668    7.9736 C   0  0  0  0  0  0  0  0  0  0  0  0
   12.0580    8.5866    8.0049 O   0  0  0  0  0  0  0  0  0  0  0  0
   11.3118   10.3745    5.5280 N   0  0  0  0  0  0  0  0  0  0  0  0
   10.9154   11.5607    4.9602 C   0  0  0  0  0  0  0  0  0  0  0  0
   10.7362   12.5801    5.8915 N   0  0  0  0  0  0  0  0  0  0  0  0
  1  2  1  0  0  0  0
  1  6  1  0  0  0  0
  2  3  2  0  0  0  0
  3  4  1  0  0  0  0
  4  5  2  0  0  0  0
  4 10  1  0  0  0  0
  5  6  1  0  0  0  0
  5  8  1  0  0  0  0
  6  7  2  0  0  0  0
  8  9  1  0  0  0  0
  9 10  2  0  0  0  0
M  END
>  <CHROM.1>
11.32708468,11.00995678,7.33596441,0.62441204,-1.28511493,1.19418470

>  <Name>
1u8d_lig

>  <RI>
0

>  <Rbt.Current_Directory>
/home/itssahil/PROJECTS/Mol_Feturizer/New_Systems/rnas/1u8d

>  <Rbt.Executable>
rbdock ($Id: //depot/dev/client3/rdock/2013.1/src/exe/rbdock.cxx#4 $)

>  <Rbt.Library>
libRbt.so (2013.1, Build901 2013/11/27)

>  <Rbt.Parameter_File>
/export/apps/rDock/src/rDock_2013.1_src/data/scripts/dock_solv.prm

>  <Rbt.Receptor>
prm/blind_docking_20.prm

>  <SCORE>
-25.7557

>  <SCORE.INTER>
-25.7557

>  <SCORE.INTER.CONST>
1

>  <SCORE.INTER.POLAR>
-1.93632

>  <SCORE.INTER.ROT>
0

>  <SCORE.INTER.SOLV>
11.6469

>  <SCORE.INTER.VDW>
-18.1984

>  <SCORE.INTER.norm>
-2.57557

>  <SCORE.INTRA>
0

>  <SCORE.INTRA.DIHEDRAL>
0

>  <SCORE.INTRA.DIHEDRAL.0>
0

>  <SCORE.INTRA.POLAR>
0

>  <SCORE.INTRA.POLAR.0>
0

>  <SCORE.INTRA.REPUL>
0

>  <SCORE.INTRA.REPUL.0>
0

>  <SCORE.INTRA.SOLV>
0

>  <SCORE.INTRA.SOLV.lig_0>
-13.7928

>  <SCORE.INTRA.VDW>
0

>  <SCORE.INTRA.VDW.0>
0

>  <SCORE.INTRA.norm>
0

>  <SCORE.RESTR>
0

>  <SCORE.RESTR.CAVITY>
0

>  <SCORE.RESTR.norm>
0

>  <SCORE.SYSTEM>
0

>  <SCORE.SYSTEM.CONST>
0

>  <SCORE.SYSTEM.DIHEDRAL>
0

>  <SCORE.SYSTEM.SOLV>
0

>  <SCORE.SYSTEM.norm>
0

>  <SCORE.heavy>
10

>  <SCORE.norm>
-2.57557

>  <RMSD>
0.207

$$$$
1u8d_lig
 OpenBabel11021811413D
libRbt.so/2013.1/901 2013/11/27
 10 11  0  0  0  0  0  0  0  0999 V2000
   11.7254   10.5395    9.3242 N   0  0  0  0  0  0  0  0  0  0  0  0
   11.4850   11.9096    9.5240 C   0  0  0  0  0  0  0  0  0  0  0  0
   11.1937   12.7731    8.5179 N   0  0  0  0  0  0  0  0  0  0  0  0
   11.1573   12.1741    7.3078 C   0  0  0  0  0  0  0  0  0  0  0  0
   11.4132   10.6945    7.0261 C   0  0  0  0  0  0  0  0  0  0  0  0
   11.7125    9.8432    8.1010 C   0  0  0  0  0  0  0  0  0  0  0  0
   11.9438    8.6419    8.1068 O   0  0  0  0  0  0  0  0  0  0  0  0
   11.2790   10.5223    5.6757 N   0  0  0  0  0  0  0  0  0  0  0  0
   10.9607   11.7444    5.1355 C   0  0  0  0  0  0  0  0  0  0  0  0
   10.8805   12.7586    6.0860 N   0  0  0  0  0  0  0  0  0  0  0  0
  1  2  1  0  0  0  0
  1  6  1  0  0  0  0
  2  3  2  0  0  0  0
  3  4  1  0  0  0  0
  4  5  2  0  0  0  0
  4 10  1  0  0  0  0
  5  6  1  0  0  0  0
  5  8  1  0  0  0  0
  6  7  2  0  0  0  0
  8  9  1  0  0  0  0
  9 10  2  0  0  0  0
M  END
>  <CHROM.1>
11.38346581,11.12431080,7.49213098,0.40649239,-1.34205379,0.99923467

>  <Name>
1u8d_lig

>  <RI>
0

>  <Rbt.Current_Directory>
/home/itssahil/PROJECTS/Mol_Feturizer/New_Systems/rnas/1u8d

>  <Rbt.Executable>
rbdock ($Id: //depot/dev/client3/rdock/2013.1/src/exe/rbdock.cxx#4 $)

>  <Rbt.Library>
libRbt.so (2013.1, Build901 2013/11/27)

>  <Rbt.Parameter_File>
/export/apps/rDock/src/rDock_2013.1_src/data/scripts/dock_solv.prm

>  <Rbt.Receptor>
prm/pocket_docking_3.prm

>  <SCORE>
-25.9522

>  <SCORE.INTER>
-25.9522

>  <SCORE.INTER.CONST>
1

>  <SCORE.INTER.POLAR>
-1.93632

>  <SCORE.INTER.ROT>
0

>  <SCORE.INTER.SOLV>
11.6552

>  <SCORE.INTER.VDW>
-18.3322

>  <SCORE.INTER.norm>
-2.59522

>  <SCORE.INTRA>
0

>  <SCORE.INTRA.DIHEDRAL>
0

>  <SCORE.INTRA.DIHEDRAL.0>
0

>  <SCORE.INTRA.POLAR>
0

>  <SCORE.INTRA.POLAR.0>
0

>  <SCORE.INTRA.REPUL>
0

>  <SCORE.INTRA.REPUL.0>
0

>  <SCORE.INTRA.SOLV>
0

>  <SCORE.INTRA.SOLV.lig_0>
-13.7928

>  <SCORE.INTRA.VDW>
0

>  <SCORE.INTRA.VDW.0>
0

>  <SCORE.INTRA.norm>
0

>  <SCORE.RESTR>
0

>  <SCORE.RESTR.CAVITY>
0

>  <SCORE.RESTR.norm>
0

>  <SCORE.SYSTEM>
0

>  <SCORE.SYSTEM.CONST>
0

>  <SCORE.SYSTEM.DIHEDRAL>
0

>  <SCORE.SYSTEM.SOLV>
0

>  <SCORE.SYSTEM.norm>
0

>  <SCORE.heavy>
10

>  <SCORE.norm>
-2.59522

>  <RMSD>
0.207

$$$$
1u8d_lig
 OpenBabel11021811413D
libRbt.so/2013.1/901 2013/11/27
 10 11  0  0  0  0  0  0  0  0999 V2000
   11.6898   10.4918    9.2935 N   0  0  0  0  0  0  0  0  0  0  0  0
   11.4161   11.8537    9.5069 C   0  0  0  0  0  0  0  0  0  0  0  0
   11.1319   12.7260    8.5064 N   0  0  0  0  0  0  0  0  0  0  0  0
   11.1380   12.1445    7.2873 C   0  0  0  0  0  0  0  0  0  0  0  0
   11.4315   10.6749    6.9908 C   0  0  0  0  0  0  0  0  0  0  0  0
   11.7216    9.8138    8.0604 C   0  0  0  0  0  0  0  0  0  0  0  0
   11.9776    8.6175    8.0547 O   0  0  0  0  0  0  0  0  0  0  0  0
   11.3344   10.5201    5.6351 N   0  0  0  0  0  0  0  0  0  0  0  0
   11.0043   11.7434    5.1047 C   0  0  0  0  0  0  0  0  0  0  0  0
   10.8795   12.7414    6.0675 N   0  0  0  0  0  0  0  0  0  0  0  0
  1  2  1  0  0  0  0
  1  6  1  0  0  0  0
  2  3  2  0  0  0  0
  3  4  1  0  0  0  0
  4  5  2  0  0  0  0
  4 10  1  0  0  0  0
  5  6  1  0  0  0  0
  5  8  1  0  0  0  0
  6  7  2  0  0  0  0
  8  9  1  0  0  0  0
  9 10  2  0  0  0  0
M  END
>  <CHROM.1>
11.38127011,11.09691290,7.46204134,0.54480964,-1.33584346,1.14858174

>  <Name>
1u8d_lig

>  <RI>
0

>  <Rbt.Current_Directory>
/home/itssahil/PROJECTS/Mol_Feturizer/New_Systems/rnas/1u8d

>  <Rbt.Executable>
rbdock ($Id: //depot/dev/client3/rdock/2013.1/src/exe/rbdock.cxx#4 $)

>  <Rbt.Library>
libRbt.so (2013.1, Build901 2013/11/27)

>  <Rbt.Parameter_File>
/export/apps/rDock/src/rDock_2013.1_src/data/scripts/dock_solv.prm

>  <Rbt.Receptor>
prm/pocket_docking_4.prm

>  <SCORE>
-25.9851

>  <SCORE.INTER>
-25.9851

>  <SCORE.INTER.CONST>
1

>  <SCORE.INTER.POLAR>
-1.93632

>  <SCORE.INTER.ROT>
0

>  <SCORE.INTER.SOLV>
11.6635

>  <SCORE.INTER.VDW>
-18.3568

>  <SCORE.INTER.norm>
-2.59851

>  <SCORE.INTRA>
0

>  <SCORE.INTRA.DIHEDRAL>
0

>  <SCORE.INTRA.DIHEDRAL.0>
0

>  <SCORE.INTRA.POLAR>
0

>  <SCORE.INTRA.POLAR.0>
0

>  <SCORE.INTRA.REPUL>
0

>  <SCORE.INTRA.REPUL.0>
0

>  <SCORE.INTRA.SOLV>
0

>  <SCORE.INTRA.SOLV.lig_0>
-13.7928

>  <SCORE.INTRA.VDW>
0

>  <SCORE.INTRA.VDW.0>
0

>  <SCORE.INTRA.norm>
0

>  <SCORE.RESTR>
0

>  <SCORE.RESTR.CAVITY>
0

>  <SCORE.RESTR.norm>
0

>  <SCORE.SYSTEM>
0

>  <SCORE.SYSTEM.CONST>
0

>  <SCORE.SYSTEM.DIHEDRAL>
0

>  <SCORE.SYSTEM.SOLV>
0

>  <SCORE.SYSTEM.norm>
0

>  <SCORE.heavy>
10

>  <SCORE.norm>
-2.59851

>  <RMSD>
0.207

$$$$
1u8d_lig
 OpenBabel11021811413D
libRbt.so/2013.1/901 2013/11/27
 10 11  0  0  0  0  0  0  0  0999 V2000
   11.8357   10.5601    9.1538 N   0  0  0  0  0  0  0  0  0  0  0  0
   11.5781   11.9263    9.3595 C   0  0  0  0  0  0  0  0  0  0  0  0
   11.2487   12.7847    8.3609 N   0  0  0  0  0  0  0  0  0  0  0  0
   11.1929   12.1848    7.1520 C   0  0  0  0  0  0  0  0  0  0  0  0
   11.4658   10.7095    6.8640 C   0  0  0  0  0  0  0  0  0  0  0  0
   11.8046    9.8634    7.9312 C   0  0  0  0  0  0  0  0  0  0  0  0
   12.0554    8.6660    7.9313 O   0  0  0  0  0  0  0  0  0  0  0  0
   11.3019   10.5348    5.5172 N   0  0  0  0  0  0  0  0  0  0  0  0
   10.9510   11.7514    4.9849 C   0  0  0  0  0  0  0  0  0  0  0  0
   10.8773   12.7644    5.9372 N   0  0  0  0  0  0  0  0  0  0  0  0
  1  2  1  0  0  0  0
  1  6  1  0  0  0  0
  2  3  2  0  0  0  0
  3  4  1  0  0  0  0
  4  5  2  0  0  0  0
  4 10  1  0  0  0  0
  5  6  1  0  0  0  0
  5  8  1  0  0  0  0
  6  7  2  0  0  0  0
  8  9  1  0  0  0  0
  9 10  2  0  0  0  0
M  END
>  <CHROM.1>
11.44035464,11.13886960,7.33060196,0.36100715,-1.31517281,0.95501132

>  <Name>
1u8d_lig

>  <RI>
0

>  <Rbt.Current_Directory>
/home/itssahil/PROJECTS/Mol_Feturizer/New_Systems/rnas/1u8d

>  <Rbt.Executable>
rbdock ($Id: //depot/dev/client3/rdock/2013.1/src/exe/rbdock.cxx#4 $)

>  <Rbt.Library>
libRbt.so (2013.1, Build901 2013/11/27)

>  <Rbt.Parameter_File>
/export/apps/rDock/src/rDock_2013.1_src/data/scripts/dock_solv.prm

>  <Rbt.Receptor>
prm/pocket_docking_8.prm

>  <SCORE>
-26.1259

>  <SCORE.INTER>
-26.1259

>  <SCORE.INTER.CONST>
1

>  <SCORE.INTER.POLAR>
-1.93632

>  <SCORE.INTER.ROT>
0

>  <SCORE.INTER.SOLV>
11.5264

>  <SCORE.INTER.VDW>
-18.405

>  <SCORE.INTER.norm>
-2.61259

>  <SCORE.INTRA>
0

>  <SCORE.INTRA.DIHEDRAL>
0

>  <SCORE.INTRA.DIHEDRAL.0>
0

>  <SCORE.INTRA.POLAR>
0

>  <SCORE.INTRA.POLAR.0>
0

>  <SCORE.INTRA.REPUL>
0

>  <SCORE.INTRA.REPUL.0>
0

>  <SCORE.INTRA.SOLV>
0

>  <SCORE.INTRA.SOLV.lig_0>
-13.7928

>  <SCORE.INTRA.VDW>
0

>  <SCORE.INTRA.VDW.0>
0

>  <SCORE.INTRA.norm>
0

>  <SCORE.RESTR>
0

>  <SCORE.RESTR.CAVITY>
0

>  <SCORE.RESTR.norm>
0

>  <SCORE.SYSTEM>
0

>  <SCORE.SYSTEM.CONST>
0

>  <SCORE.SYSTEM.DIHEDRAL>
0

>  <SCORE.SYSTEM.SOLV>
0

>  <SCORE.SYSTEM.norm>
0

>  <SCORE.heavy>
10

>  <SCORE.norm>
-2.61259

>  <RMSD>
0.207

$$$$
1u8d_lig
 OpenBabel11021811413D
libRbt.so/2013.1/901 2013/11/27
 10 11  0  0  0  0  0  0  0  0999 V2000
   11.7023   10.4692    9.1667 N   0  0  0  0  0  0  0  0  0  0  0  0
   11.3506   11.8178    9.3474 C   0  0  0  0  0  0  0  0  0  0  0  0
   11.0047   12.6444    8.3276 N   0  0  0  0  0  0  0  0  0  0  0  0
   11.0326   12.0314    7.1244 C   0  0  0  0  0  0  0  0  0  0  0  0
   11.4096   10.5742    6.8633 C   0  0  0  0  0  0  0  0  0  0  0  0
   11.7615    9.7611    7.9518 C   0  0  0  0  0  0  0  0  0  0  0  0
   12.0879    8.5823    7.9746 O   0  0  0  0  0  0  0  0  0  0  0  0
   11.3078   10.3772    5.5134 N   0  0  0  0  0  0  0  0  0  0  0  0
   10.9002   11.5641    4.9549 C   0  0  0  0  0  0  0  0  0  0  0  0
   10.7264   12.5787    5.8923 N   0  0  0  0  0  0  0  0  0  0  0  0
  1  2  1  0  0  0  0
  1  6  1  0  0  0  0
  2  3  2  0  0  0  0
  3  4  1  0  0  0  0
  4  5  2  0  0  0  0
  4 10  1  0  0  0  0
  5  6  1  0  0  0  0
  5  8  1  0  0  0  0
  6  7  2  0  0  0  0
  8  9  1  0  0  0  0
  9 10  2  0  0  0  0
M  END
>  <CHROM.1>
11.33940269,11.00513190,7.32380122,0.59589979,-1.27705279,1.17108512

>  <Name>
1u8d_lig

>  <RI>
0

>  <Rbt.Current_Directory>
/home/itssahil/PROJECTS/Mol_Feturizer/New_Systems/rnas/1u8d

>  <Rbt.Executable>
rbdock ($Id: //depot/dev/client3/rdock/2013.1/src/exe/rbdock.cxx#4 $)

>  <Rbt.Library>
libRbt.so (2013.1, Build901 2013/11/27)

>  <Rbt.Parameter_File>
/export/apps/rDock/src/rDock_2013.1_src/data/scripts/dock_solv.prm

>  <Rbt.Receptor>
prm/blind_docking_20.prm

>  <SCORE>
-25.7878

>  <SCORE.INTER>
-25.7878

>  <SCORE.INTER.CONST>
1

>  <SCORE.INTER.POLAR>
-1.93632

>  <SCORE.INTER.ROT>
0

>  <SCORE.INTER.SOLV>
11.6008

>  <SCORE.INTER.VDW>
-18.2044

>  <SCORE.INTER.norm>
-2.57878

>  <SCORE.INTRA>
0

>  <SCORE.INTRA.DIHEDRAL>
0

>  <SCORE.INTRA.DIHEDRAL.0>
0

>  <SCORE.INTRA.POLAR>
0

>  <SCORE.INTRA.POLAR.0>
0

>  <SCORE.INTRA.REPUL>
0

>  <SCORE.INTRA.REPUL.0>
0

>  <SCORE.INTRA.SOLV>
0

>  <SCORE.INTRA.SOLV.lig_0>
-13.7928

>  <SCORE.INTRA.VDW>
0

>  <SCORE.INTRA.VDW.0>
0

>  <SCORE.INTRA.norm>
0

>  <SCORE.RESTR>
0

>  <SCORE.RESTR.CAVITY>
0

>  <SCORE.RESTR.norm>
0

>  <SCORE.SYSTEM>
0

>  <SCORE.SYSTEM.CONST>
0

>  <SCORE.SYSTEM.DIHEDRAL>
0

>  <SCORE.SYSTEM.SOLV>
0

>  <SCORE.SYSTEM.norm>
0

>  <SCORE.heavy>
10

>  <SCORE.norm>
-2.57878

>  <RMSD>
0.208

$$$$
1u8d_lig
 OpenBabel11021811413D
libRbt.so/2013.1/901 2013/11/27
 10 11  0  0  0  0  0  0  0  0999 V2000
   11.7205   10.4718    9.2705 N   0  0  0  0  0  0  0  0  0  0  0  0
   11.4640   11.8364    9.4880 C   0  0  0  0  0  0  0  0  0  0  0  0
   11.1652   12.7099    8.4928 N   0  0  0  0  0  0  0  0  0  0  0  0
   11.1385   12.1267    7.2748 C   0  0  0  0  0  0  0  0  0  0  0  0
   11.4119   10.6540    6.9740 C   0  0  0  0  0  0  0  0  0  0  0  0
   11.7183    9.7919    8.0381 C   0  0  0  0  0  0  0  0  0  0  0  0
   11.9634    8.5933    8.0285 O   0  0  0  0  0  0  0  0  0  0  0  0
   11.2828   10.4983    5.6210 N   0  0  0  0  0  0  0  0  0  0  0  0
   10.9519   11.7238    5.0964 C   0  0  0  0  0  0  0  0  0  0  0  0
   10.8579   12.7242    6.0601 N   0  0  0  0  0  0  0  0  0  0  0  0
  1  2  1  0  0  0  0
  1  6  1  0  0  0  0
  2  3  2  0  0  0  0
  3  4  1  0  0  0  0
  4  5  2  0  0  0  0
  4 10  1  0  0  0  0
  5  6  1  0  0  0  0
  5  8  1  0  0  0  0
  6  7  2  0  0  0  0
  8  9  1  0  0  0  0
  9 10  2  0  0  0  0
M  END
>  <CHROM.1>
11.37619669,11.07717034,7.44557776,0.44115594,-1.33359194,1.04632377

>  <Name>
1u8d_lig

>  <RI>
0

>  <Rbt.Current_Directory>
/home/itssahil/PROJECTS/Mol_Feturizer/New_Systems/rnas/1u8d

>  <Rbt.Executable>
rbdock ($Id: //depot/dev/client3/rdock/2013.1/src/exe/rbdock.cxx#4 $)

>  <Rbt.Library>
libRbt.so (2013.1, Build901 2013/11/27)

>  <Rbt.Parameter_File>
/export/apps/rDock/src/rDock_2013.1_src/data/scripts/dock_solv.prm

>  <Rbt.Receptor>
prm/blind_docking_80.prm

>  <SCORE>
-26.1275

>  <SCORE.INTER>
-26.1275

>  <SCORE.INTER.CONST>
1

>  <SCORE.INTER.POLAR>
-1.93632

>  <SCORE.INTER.ROT>
0

>  <SCORE.INTER.SOLV>
11.6395

>  <SCORE.INTER.VDW>
-18.4438

>  <SCORE.INTER.norm>
-2.61275

>  <SCORE.INTRA>
0

>  <SCORE.INTRA.DIHEDRAL>
0

>  <SCORE.INTRA.DIHEDRAL.0>
0

>  <SCORE.INTRA.POLAR>
0

>  <SCORE.INTRA.POLAR.0>
0

>  <SCORE.INTRA.REPUL>
0

>  <SCORE.INTRA.REPUL.0>
0

>  <SCORE.INTRA.SOLV>
0

>  <SCORE.INTRA.SOLV.lig_0>
-13.7928

>  <SCORE.INTRA.VDW>
0

>  <SCORE.INTRA.VDW.0>
0

>  <SCORE.INTRA.norm>
0

>  <SCORE.RESTR>
0

>  <SCORE.RESTR.CAVITY>
0

>  <SCORE.RESTR.norm>
0

>  <SCORE.SYSTEM>
0

>  <SCORE.SYSTEM.CONST>
0

>  <SCORE.SYSTEM.DIHEDRAL>
0

>  <SCORE.SYSTEM.SOLV>
0

>  <SCORE.SYSTEM.norm>
0

>  <SCORE.heavy>
10

>  <SCORE.norm>
-2.61275

>  <RMSD>
0.208

$$$$
1u8d_lig
 OpenBabel11021811413D
libRbt.so/2013.1/901 2013/11/27
 10 11  0  0  0  0  0  0  0  0999 V2000
   11.8398   10.5445    9.1783 N   0  0  0  0  0  0  0  0  0  0  0  0
   11.6052   11.9137    9.3910 C   0  0  0  0  0  0  0  0  0  0  0  0
   11.2728   12.7793    8.3995 N   0  0  0  0  0  0  0  0  0  0  0  0
   11.1898   12.1833    7.1903 C   0  0  0  0  0  0  0  0  0  0  0  0
   11.4368   10.7049    6.8948 C   0  0  0  0  0  0  0  0  0  0  0  0
   11.7797    9.8514    7.9548 C   0  0  0  0  0  0  0  0  0  0  0  0
   12.0131    8.6505    7.9483 O   0  0  0  0  0  0  0  0  0  0  0  0
   11.2496   10.5359    5.5503 N   0  0  0  0  0  0  0  0  0  0  0  0
   10.9082   11.7588    5.0262 C   0  0  0  0  0  0  0  0  0  0  0  0
   10.8639   12.7704    5.9819 N   0  0  0  0  0  0  0  0  0  0  0  0
  1  2  1  0  0  0  0
  1  6  1  0  0  0  0
  2  3  2  0  0  0  0
  3  4  1  0  0  0  0
  4  5  2  0  0  0  0
  4 10  1  0  0  0  0
  5  6  1  0  0  0  0
  5  8  1  0  0  0  0
  6  7  2  0  0  0  0
  8  9  1  0  0  0  0
  9 10  2  0  0  0  0
M  END
>  <CHROM.1>
11.42474038,11.13344221,7.36272759,0.27732842,-1.31724865,0.87639270

>  <Name>
1u8d_lig

>  <RI>
0

>  <Rbt.Current_Directory>
/home/itssahil/PROJECTS/Mol_Feturizer/New_Systems/rnas/1u8d

>  <Rbt.Executable>
rbdock ($Id: //depot/dev/client3/rdock/2013.1/src/exe/rbdock.cxx#4 $)

>  <Rbt.Library>
libRbt.so (2013.1, Build901 2013/11/27)

>  <Rbt.Parameter_File>
/export/apps/rDock/src/rDock_2013.1_src/data/scripts/dock_solv.prm

>  <Rbt.Receptor>
prm/pocket_docking_6.prm

>  <SCORE>
-26.1337

>  <SCORE.INTER>
-26.1337

>  <SCORE.INTER.CONST>
1

>  <SCORE.INTER.POLAR>
-1.93632

>  <SCORE.INTER.ROT>
0

>  <SCORE.INTER.SOLV>
11.5255

>  <SCORE.INTER.VDW>
-18.4099

>  <SCORE.INTER.norm>
-2.61337

>  <SCORE.INTRA>
0

>  <SCORE.INTRA.DIHEDRAL>
0

>  <SCORE.INTRA.DIHEDRAL.0>
0

>  <SCORE.INTRA.POLAR>
0

>  <SCORE.INTRA.POLAR.0>
0

>  <SCORE.INTRA.REPUL>
0

>  <SCORE.INTRA.REPUL.0>
0

>  <SCORE.INTRA.SOLV>
0

>  <SCORE.INTRA.SOLV.lig_0>
-13.7928

>  <SCORE.INTRA.VDW>
0

>  <SCORE.INTRA.VDW.0>
0

>  <SCORE.INTRA.norm>
0

>  <SCORE.RESTR>
0

>  <SCORE.RESTR.CAVITY>
0

>  <SCORE.RESTR.norm>
0

>  <SCORE.SYSTEM>
0

>  <SCORE.SYSTEM.CONST>
0

>  <SCORE.SYSTEM.DIHEDRAL>
0

>  <SCORE.SYSTEM.SOLV>
0

>  <SCORE.SYSTEM.norm>
0

>  <SCORE.heavy>
10

>  <SCORE.norm>
-2.61337

>  <RMSD>
0.208

$$$$
1u8d_lig
 OpenBabel11021811413D
libRbt.so/2013.1/901 2013/11/27
 10 11  0  0  0  0  0  0  0  0999 V2000
   11.8940   10.5779    9.0970 N   0  0  0  0  0  0  0  0  0  0  0  0
   11.6105   11.9437    9.2685 C   0  0  0  0  0  0  0  0  0  0  0  0
   11.2143   12.7587    8.2578 N   0  0  0  0  0  0  0  0  0  0  0  0
   11.1197   12.1162    7.0735 C   0  0  0  0  0  0  0  0  0  0  0  0
   11.4176   10.6389    6.8228 C   0  0  0  0  0  0  0  0  0  0  0  0
   11.8259    9.8388    7.9011 C   0  0  0  0  0  0  0  0  0  0  0  0
   12.1075    8.6486    7.9298 O   0  0  0  0  0  0  0  0  0  0  0  0
   11.1978   10.4137    5.4916 N   0  0  0  0  0  0  0  0  0  0  0  0
   10.7918   11.6023    4.9355 C   0  0  0  0  0  0  0  0  0  0  0  0
   10.7348   12.6455    5.8558 N   0  0  0  0  0  0  0  0  0  0  0  0
  1  2  1  0  0  0  0
  1  6  1  0  0  0  0
  2  3  2  0  0  0  0
  3  4  1  0  0  0  0
  4  5  2  0  0  0  0
  4 10  1  0  0  0  0
  5  6  1  0  0  0  0
  5  8  1  0  0  0  0
  6  7  2  0  0  0  0
  8  9  1  0  0  0  0
  9 10  2  0  0  0  0
M  END
>  <CHROM.1>
11.40203334,11.08340751,7.27551367,0.28810946,-1.26718826,0.85085411

>  <Name>
1u8d_lig

>  <RI>
0

>  <Rbt.Current_Directory>
/home/itssahil/PROJECTS/Mol_Feturizer/New_Systems/rnas/1u8d

>  <Rbt.Executable>
rbdock ($Id: //depot/dev/client3/rdock/2013.1/src/exe/rbdock.cxx#4 $)

>  <Rbt.Library>
libRbt.so (2013.1, Build901 2013/11/27)

>  <Rbt.Parameter_File>
/export/apps/rDock/src/rDock_2013.1_src/data/scripts/dock_solv.prm

>  <Rbt.Receptor>
prm/pocket_docking_7.prm

>  <SCORE>
-26.1089

>  <SCORE.INTER>
-26.1089

>  <SCORE.INTER.CONST>
1

>  <SCORE.INTER.POLAR>
-1.93632

>  <SCORE.INTER.ROT>
0

>  <SCORE.INTER.SOLV>
11.4182

>  <SCORE.INTER.VDW>
-18.3576

>  <SCORE.INTER.norm>
-2.61089

>  <SCORE.INTRA>
0

>  <SCORE.INTRA.DIHEDRAL>
0

>  <SCORE.INTRA.DIHEDRAL.0>
0

>  <SCORE.INTRA.POLAR>
0

>  <SCORE.INTRA.POLAR.0>
0

>  <SCORE.INTRA.REPUL>
0

>  <SCORE.INTRA.REPUL.0>
0

>  <SCORE.INTRA.SOLV>
0

>  <SCORE.INTRA.SOLV.lig_0>
-13.7928

>  <SCORE.INTRA.VDW>
0

>  <SCORE.INTRA.VDW.0>
0

>  <SCORE.INTRA.norm>
0

>  <SCORE.RESTR>
0

>  <SCORE.RESTR.CAVITY>
0

>  <SCORE.RESTR.norm>
0

>  <SCORE.SYSTEM>
0

>  <SCORE.SYSTEM.CONST>
0

>  <SCORE.SYSTEM.DIHEDRAL>
0

>  <SCORE.SYSTEM.SOLV>
0

>  <SCORE.SYSTEM.norm>
0

>  <SCORE.heavy>
10

>  <SCORE.norm>
-2.61089

>  <RMSD>
0.208

$$$$
1u8d_lig
 OpenBabel11021811413D
libRbt.so/2013.1/901 2013/11/27
 10 11  0  0  0  0  0  0  0  0999 V2000
   11.6850   10.4821    9.1524 N   0  0  0  0  0  0  0  0  0  0  0  0
   11.3275   11.8286    9.3372 C   0  0  0  0  0  0  0  0  0  0  0  0
   10.9885   12.6597    8.3189 N   0  0  0  0  0  0  0  0  0  0  0  0
   11.0294   12.0535    7.1126 C   0  0  0  0  0  0  0  0  0  0  0  0
   11.4132   10.5988    6.8470 C   0  0  0  0  0  0  0  0  0  0  0  0
   11.7575    9.7808    7.9342 C   0  0  0  0  0  0  0  0  0  0  0  0
   12.0873    8.6029    7.9536 O   0  0  0  0  0  0  0  0  0  0  0  0
   11.3244   10.4090    5.4952 N   0  0  0  0  0  0  0  0  0  0  0  0
   10.9184   11.5977    4.9394 C   0  0  0  0  0  0  0  0  0  0  0  0
   10.7329   12.6067    5.8808 N   0  0  0  0  0  0  0  0  0  0  0  0
  1  2  1  0  0  0  0
  1  6  1  0  0  0  0
  2  3  2  0  0  0  0
  3  4  1  0  0  0  0
  4  5  2  0  0  0  0
  4 10  1  0  0  0  0
  5  6  1  0  0  0  0
  5  8  1  0  0  0  0
  6  7  2  0  0  0  0
  8  9  1  0  0  0  0
  9 10  2  0  0  0  0
M  END
>  <CHROM.1>
11.33743794,11.02703838,7.30918396,0.62944369,-1.27768930,1.20870326

>  <Name>
1u8d_lig

>  <RI>
0

>  <Rbt.Current_Directory>
/home/itssahil/PROJECTS/Mol_Feturizer/New_Systems/rnas/1u8d

>  <Rbt.Executable>
rbdock ($Id: //depot/dev/client3/rdock/2013.1/src/exe/rbdock.cxx#4 $)

>  <Rbt.Library>
libRbt.so (2013.1, Build901 2013/11/27)

>  <Rbt.Parameter_File>
/export/apps/rDock/src/rDock_2013.1_src/data/scripts/dock_solv.prm

>  <Rbt.Receptor>
prm/blind_docking_20.prm

>  <SCORE>
-25.7937

>  <SCORE.INTER>
-25.7937

>  <SCORE.INTER.CONST>
1

>  <SCORE.INTER.POLAR>
-1.93632

>  <SCORE.INTER.ROT>
0

>  <SCORE.INTER.SOLV>
11.6166

>  <SCORE.INTER.VDW>
-18.2136

>  <SCORE.INTER.norm>
-2.57937

>  <SCORE.INTRA>
0

>  <SCORE.INTRA.DIHEDRAL>
0

>  <SCORE.INTRA.DIHEDRAL.0>
0

>  <SCORE.INTRA.POLAR>
0

>  <SCORE.INTRA.POLAR.0>
0

>  <SCORE.INTRA.REPUL>
0

>  <SCORE.INTRA.REPUL.0>
0

>  <SCORE.INTRA.SOLV>
0

>  <SCORE.INTRA.SOLV.lig_0>
-13.7928

>  <SCORE.INTRA.VDW>
0

>  <SCORE.INTRA.VDW.0>
0

>  <SCORE.INTRA.norm>
0

>  <SCORE.RESTR>
0

>  <SCORE.RESTR.CAVITY>
0

>  <SCORE.RESTR.norm>
0

>  <SCORE.SYSTEM>
0

>  <SCORE.SYSTEM.CONST>
0

>  <SCORE.SYSTEM.DIHEDRAL>
0

>  <SCORE.SYSTEM.SOLV>
0

>  <SCORE.SYSTEM.norm>
0

>  <SCORE.heavy>
10

>  <SCORE.norm>
-2.57937

>  <RMSD>
0.209

$$$$
1u8d_lig
 OpenBabel11021811413D
libRbt.so/2013.1/901 2013/11/27
 10 11  0  0  0  0  0  0  0  0999 V2000
   11.8421   10.5792    9.1739 N   0  0  0  0  0  0  0  0  0  0  0  0
   11.6092   11.9506    9.3736 C   0  0  0  0  0  0  0  0  0  0  0  0
   11.2826   12.8080    8.3732 N   0  0  0  0  0  0  0  0  0  0  0  0
   11.2033   12.2015    7.1689 C   0  0  0  0  0  0  0  0  0  0  0  0
   11.4488   10.7202    6.8874 C   0  0  0  0  0  0  0  0  0  0  0  0
   11.7857    9.8754    7.9562 C   0  0  0  0  0  0  0  0  0  0  0  0
   12.0169    8.6740    7.9613 O   0  0  0  0  0  0  0  0  0  0  0  0
   11.2668   10.5397    5.5437 N   0  0  0  0  0  0  0  0  0  0  0  0
   10.9299   11.7586    5.0075 C   0  0  0  0  0  0  0  0  0  0  0  0
   10.8836   12.7786    5.9540 N   0  0  0  0  0  0  0  0  0  0  0  0
  1  2  1  0  0  0  0
  1  6  1  0  0  0  0
  2  3  2  0  0  0  0
  3  4  1  0  0  0  0
  4  5  2  0  0  0  0
  4 10  1  0  0  0  0
  5  6  1  0  0  0  0
  5  8  1  0  0  0  0
  6  7  2  0  0  0  0
  8  9  1  0  0  0  0
  9 10  2  0  0  0  0
M  END
>  <CHROM.1>
11.43562637,11.15284303,7.35151116,0.28518137,-1.32131592,0.87520621

>  <Name>
1u8d_lig

>  <RI>
0

>  <Rbt.Current_Directory>
/home/itssahil/PROJECTS/Mol_Feturizer/New_Systems/rnas/1u8d

>  <Rbt.Executable>
rbdock ($Id: //depot/dev/client3/rdock/2013.1/src/exe/rbdock.cxx#4 $)

>  <Rbt.Library>
libRbt.so (2013.1, Build901 2013/11/27)

>  <Rbt.Parameter_File>
/export/apps/rDock/src/rDock_2013.1_src/data/scripts/dock_solv.prm

>  <Rbt.Receptor>
prm/blind_docking_60.prm

>  <SCORE>
-26.0916

>  <SCORE.INTER>
-26.0916

>  <SCORE.INTER.CONST>
1

>  <SCORE.INTER.POLAR>
-1.93632

>  <SCORE.INTER.ROT>
0

>  <SCORE.INTER.SOLV>
11.5453

>  <SCORE.INTER.VDW>
-18.3884

>  <SCORE.INTER.norm>
-2.60916

>  <SCORE.INTRA>
0

>  <SCORE.INTRA.DIHEDRAL>
0

>  <SCORE.INTRA.DIHEDRAL.0>
0

>  <SCORE.INTRA.POLAR>
0

>  <SCORE.INTRA.POLAR.0>
0

>  <SCORE.INTRA.REPUL>
0

>  <SCORE.INTRA.REPUL.0>
0

>  <SCORE.INTRA.SOLV>
0

>  <SCORE.INTRA.SOLV.lig_0>
-13.7928

>  <SCORE.INTRA.VDW>
0

>  <SCORE.INTRA.VDW.0>
0

>  <SCORE.INTRA.norm>
0

>  <SCORE.RESTR>
0

>  <SCORE.RESTR.CAVITY>
0

>  <SCORE.RESTR.norm>
0

>  <SCORE.SYSTEM>
0

>  <SCORE.SYSTEM.CONST>
0

>  <SCORE.SYSTEM.DIHEDRAL>
0

>  <SCORE.SYSTEM.SOLV>
0

>  <SCORE.SYSTEM.norm>
0

>  <SCORE.heavy>
10

>  <SCORE.norm>
-2.60916

>  <RMSD>
0.209

$$$$
1u8d_lig
 OpenBabel11021811413D
libRbt.so/2013.1/901 2013/11/27
 10 11  0  0  0  0  0  0  0  0999 V2000
   11.7358   10.4964    9.2551 N   0  0  0  0  0  0  0  0  0  0  0  0
   11.5052   11.8679    9.4571 C   0  0  0  0  0  0  0  0  0  0  0  0
   11.2098   12.7332    8.4537 N   0  0  0  0  0  0  0  0  0  0  0  0
   11.1591   12.1344    7.2440 C   0  0  0  0  0  0  0  0  0  0  0  0
   11.4037   10.6534    6.9600 C   0  0  0  0  0  0  0  0  0  0  0  0
   11.7077    9.8003    8.0321 C   0  0  0  0  0  0  0  0  0  0  0  0
   11.9321    8.5976    8.0358 O   0  0  0  0  0  0  0  0  0  0  0  0
   11.2563   10.4820    5.6108 N   0  0  0  0  0  0  0  0  0  0  0  0
   10.9403   11.7060    5.0735 C   0  0  0  0  0  0  0  0  0  0  0  0
   10.8746   12.7206    6.0247 N   0  0  0  0  0  0  0  0  0  0  0  0
  1  2  1  0  0  0  0
  1  6  1  0  0  0  0
  2  3  2  0  0  0  0
  3  4  1  0  0  0  0
  4  5  2  0  0  0  0
  4 10  1  0  0  0  0
  5  6  1  0  0  0  0
  5  8  1  0  0  0  0
  6  7  2  0  0  0  0
  8  9  1  0  0  0  0
  9 10  2  0  0  0  0
M  END
>  <CHROM.1>
11.38069936,11.08331308,7.42621253,0.35908013,-1.34182826,0.95310454

>  <Name>
1u8d_lig

>  <RI>
0

>  <Rbt.Current_Directory>
/home/itssahil/PROJECTS/Mol_Feturizer/New_Systems/rnas/1u8d

>  <Rbt.Executable>
rbdock ($Id: //depot/dev/client3/rdock/2013.1/src/exe/rbdock.cxx#4 $)

>  <Rbt.Library>
libRbt.so (2013.1, Build901 2013/11/27)

>  <Rbt.Parameter_File>
/export/apps/rDock/src/rDock_2013.1_src/data/scripts/dock_solv.prm

>  <Rbt.Receptor>
prm/blind_docking_80.prm

>  <SCORE>
-26.0955

>  <SCORE.INTER>
-26.0955

>  <SCORE.INTER.CONST>
1

>  <SCORE.INTER.POLAR>
-1.93632

>  <SCORE.INTER.ROT>
0

>  <SCORE.INTER.SOLV>
11.6565

>  <SCORE.INTER.VDW>
-18.4281

>  <SCORE.INTER.norm>
-2.60955

>  <SCORE.INTRA>
0

>  <SCORE.INTRA.DIHEDRAL>
0

>  <SCORE.INTRA.DIHEDRAL.0>
0

>  <SCORE.INTRA.POLAR>
0

>  <SCORE.INTRA.POLAR.0>
0

>  <SCORE.INTRA.REPUL>
0

>  <SCORE.INTRA.REPUL.0>
0

>  <SCORE.INTRA.SOLV>
0

>  <SCORE.INTRA.SOLV.lig_0>
-13.7928

>  <SCORE.INTRA.VDW>
0

>  <SCORE.INTRA.VDW.0>
0

>  <SCORE.INTRA.norm>
0

>  <SCORE.RESTR>
0

>  <SCORE.RESTR.CAVITY>
0

>  <SCORE.RESTR.norm>
0

>  <SCORE.SYSTEM>
0

>  <SCORE.SYSTEM.CONST>
0

>  <SCORE.SYSTEM.DIHEDRAL>
0

>  <SCORE.SYSTEM.SOLV>
0

>  <SCORE.SYSTEM.norm>
0

>  <SCORE.heavy>
10

>  <SCORE.norm>
-2.60955

>  <RMSD>
0.209

$$$$
1u8d_lig
 OpenBabel11021811413D
libRbt.so/2013.1/901 2013/11/27
 10 11  0  0  0  0  0  0  0  0999 V2000
   11.7295   10.4852    9.2622 N   0  0  0  0  0  0  0  0  0  0  0  0
   11.4939   11.8562    9.4619 C   0  0  0  0  0  0  0  0  0  0  0  0
   11.1976   12.7192    8.4568 N   0  0  0  0  0  0  0  0  0  0  0  0
   11.1512   12.1187    7.2478 C   0  0  0  0  0  0  0  0  0  0  0  0
   11.4014   10.6382    6.9662 C   0  0  0  0  0  0  0  0  0  0  0  0
   11.7062    9.7875    8.0400 C   0  0  0  0  0  0  0  0  0  0  0  0
   11.9346    8.5856    8.0457 O   0  0  0  0  0  0  0  0  0  0  0  0
   11.2573   10.4645    5.6170 N   0  0  0  0  0  0  0  0  0  0  0  0
   10.9382   11.6867    5.0775 C   0  0  0  0  0  0  0  0  0  0  0  0
   10.8672   12.7023    6.0272 N   0  0  0  0  0  0  0  0  0  0  0  0
  1  2  1  0  0  0  0
  1  6  1  0  0  0  0
  2  3  2  0  0  0  0
  3  4  1  0  0  0  0
  4  5  2  0  0  0  0
  4 10  1  0  0  0  0
  5  6  1  0  0  0  0
  5  8  1  0  0  0  0
  6  7  2  0  0  0  0
  8  9  1  0  0  0  0
  9 10  2  0  0  0  0
M  END
>  <CHROM.1>
11.37605881,11.06859519,7.43185340,0.37464062,-1.34020908,0.96695081

>  <Name>
1u8d_lig

>  <RI>
0

>  <Rbt.Current_Directory>
/home/itssahil/PROJECTS/Mol_Feturizer/New_Systems/rnas/1u8d

>  <Rbt.Executable>
rbdock ($Id: //depot/dev/client3/rdock/2013.1/src/exe/rbdock.cxx#4 $)

>  <Rbt.Library>
libRbt.so (2013.1, Build901 2013/11/27)

>  <Rbt.Parameter_File>
/export/apps/rDock/src/rDock_2013.1_src/data/scripts/dock_solv.prm

>  <Rbt.Receptor>
prm/pocket_docking_3.prm

>  <SCORE>
-26.1096

>  <SCORE.INTER>
-26.1096

>  <SCORE.INTER.CONST>
1

>  <SCORE.INTER.POLAR>
-1.93632

>  <SCORE.INTER.ROT>
0

>  <SCORE.INTER.SOLV>
11.6602

>  <SCORE.INTER.VDW>
-18.4388

>  <SCORE.INTER.norm>
-2.61096

>  <SCORE.INTRA>
0

>  <SCORE.INTRA.DIHEDRAL>
0

>  <SCORE.INTRA.DIHEDRAL.0>
0

>  <SCORE.INTRA.POLAR>
0

>  <SCORE.INTRA.POLAR.0>
0

>  <SCORE.INTRA.REPUL>
0

>  <SCORE.INTRA.REPUL.0>
0

>  <SCORE.INTRA.SOLV>
0

>  <SCORE.INTRA.SOLV.lig_0>
-13.7928

>  <SCORE.INTRA.VDW>
0

>  <SCORE.INTRA.VDW.0>
0

>  <SCORE.INTRA.norm>
0

>  <SCORE.RESTR>
0

>  <SCORE.RESTR.CAVITY>
0

>  <SCORE.RESTR.norm>
0

>  <SCORE.SYSTEM>
0

>  <SCORE.SYSTEM.CONST>
0

>  <SCORE.SYSTEM.DIHEDRAL>
0

>  <SCORE.SYSTEM.SOLV>
0

>  <SCORE.SYSTEM.norm>
0

>  <SCORE.heavy>
10

>  <SCORE.norm>
-2.61096

>  <RMSD>
0.209

$$$$
1u8d_lig
 OpenBabel11021811413D
libRbt.so/2013.1/901 2013/11/27
 10 11  0  0  0  0  0  0  0  0999 V2000
   11.7767   10.5677    9.1545 N   0  0  0  0  0  0  0  0  0  0  0  0
   11.5296   11.9361    9.3580 C   0  0  0  0  0  0  0  0  0  0  0  0
   11.2102   12.7961    8.3574 N   0  0  0  0  0  0  0  0  0  0  0  0
   11.1530   12.1953    7.1490 C   0  0  0  0  0  0  0  0  0  0  0  0
   11.4147   10.7175    6.8634 C   0  0  0  0  0  0  0  0  0  0  0  0
   11.7434    9.8699    7.9326 C   0  0  0  0  0  0  0  0  0  0  0  0
   11.9844    8.6705    7.9347 O   0  0  0  0  0  0  0  0  0  0  0  0
   11.2533   10.5426    5.5163 N   0  0  0  0  0  0  0  0  0  0  0  0
   10.9140   11.7615    4.9817 C   0  0  0  0  0  0  0  0  0  0  0  0
   10.8458   12.7761    5.9327 N   0  0  0  0  0  0  0  0  0  0  0  0
  1  2  1  0  0  0  0
  1  6  1  0  0  0  0
  2  3  2  0  0  0  0
  3  4  1  0  0  0  0
  4  5  2  0  0  0  0
  4 10  1  0  0  0  0
  5  6  1  0  0  0  0
  5  8  1  0  0  0  0
  6  7  2  0  0  0  0
  8  9  1  0  0  0  0
  9 10  2  0  0  0  0
M  END
>  <CHROM.1>
11.39138360,11.14760650,7.32951612,0.35146773,-1.32354759,0.94466248

>  <Name>
1u8d_lig

>  <RI>
0

>  <Rbt.Current_Directory>
/home/itssahil/PROJECTS/Mol_Feturizer/New_Systems/rnas/1u8d

>  <Rbt.Executable>
rbdock ($Id: //depot/dev/client3/rdock/2013.1/src/exe/rbdock.cxx#4 $)

>  <Rbt.Library>
libRbt.so (2013.1, Build901 2013/11/27)

>  <Rbt.Parameter_File>
/export/apps/rDock/src/rDock_2013.1_src/data/scripts/dock_solv.prm

>  <Rbt.Receptor>
prm/pocket_docking_3.prm

>  <SCORE>
-26.0472

>  <SCORE.INTER>
-26.0472

>  <SCORE.INTER.CONST>
1

>  <SCORE.INTER.POLAR>
-1.93632

>  <SCORE.INTER.ROT>
0

>  <SCORE.INTER.SOLV>
11.5894

>  <SCORE.INTER.VDW>
-18.3735

>  <SCORE.INTER.norm>
-2.60472

>  <SCORE.INTRA>
0

>  <SCORE.INTRA.DIHEDRAL>
0

>  <SCORE.INTRA.DIHEDRAL.0>
0

>  <SCORE.INTRA.POLAR>
0

>  <SCORE.INTRA.POLAR.0>
0

>  <SCORE.INTRA.REPUL>
0

>  <SCORE.INTRA.REPUL.0>
0

>  <SCORE.INTRA.SOLV>
0

>  <SCORE.INTRA.SOLV.lig_0>
-13.7928

>  <SCORE.INTRA.VDW>
0

>  <SCORE.INTRA.VDW.0>
0

>  <SCORE.INTRA.norm>
0

>  <SCORE.RESTR>
0

>  <SCORE.RESTR.CAVITY>
0

>  <SCORE.RESTR.norm>
0

>  <SCORE.SYSTEM>
0

>  <SCORE.SYSTEM.CONST>
0

>  <SCORE.SYSTEM.DIHEDRAL>
0

>  <SCORE.SYSTEM.SOLV>
0

>  <SCORE.SYSTEM.norm>
0

>  <SCORE.heavy>
10

>  <SCORE.norm>
-2.60472

>  <RMSD>
0.209

$$$$
1u8d_lig
 OpenBabel11021811413D
libRbt.so/2013.1/901 2013/11/27
 10 11  0  0  0  0  0  0  0  0999 V2000
   11.7184   10.4755    9.2689 N   0  0  0  0  0  0  0  0  0  0  0  0
   11.4705   11.8438    9.4720 C   0  0  0  0  0  0  0  0  0  0  0  0
   11.1773   12.7087    8.4676 N   0  0  0  0  0  0  0  0  0  0  0  0
   11.1471   12.1129    7.2558 C   0  0  0  0  0  0  0  0  0  0  0  0
   11.4112   10.6356    6.9705 C   0  0  0  0  0  0  0  0  0  0  0  0
   11.7121    9.7827    8.0437 C   0  0  0  0  0  0  0  0  0  0  0  0
   11.9496    8.5826    8.0467 O   0  0  0  0  0  0  0  0  0  0  0  0
   11.2813   10.4665    5.6193 N   0  0  0  0  0  0  0  0  0  0  0  0
   10.9582   11.6885    5.0817 C   0  0  0  0  0  0  0  0  0  0  0  0
   10.8704   12.6995    6.0349 N   0  0  0  0  0  0  0  0  0  0  0  0
  1  2  1  0  0  0  0
  1  6  1  0  0  0  0
  2  3  2  0  0  0  0
  3  4  1  0  0  0  0
  4  5  2  0  0  0  0
  4 10  1  0  0  0  0
  5  6  1  0  0  0  0
  5  8  1  0  0  0  0
  6  7  2  0  0  0  0
  8  9  1  0  0  0  0
  9 10  2  0  0  0  0
M  END
>  <CHROM.1>
11.37812137,11.06382117,7.43764652,0.42781761,-1.33908020,1.02286233

>  <Name>
1u8d_lig

>  <RI>
0

>  <Rbt.Current_Directory>
/home/itssahil/PROJECTS/Mol_Feturizer/New_Systems/rnas/1u8d

>  <Rbt.Executable>
rbdock ($Id: //depot/dev/client3/rdock/2013.1/src/exe/rbdock.cxx#4 $)

>  <Rbt.Library>
libRbt.so (2013.1, Build901 2013/11/27)

>  <Rbt.Parameter_File>
/export/apps/rDock/src/rDock_2013.1_src/data/scripts/dock_solv.prm

>  <Rbt.Receptor>
prm/pocket_docking_5.prm

>  <SCORE>
-26.0975

>  <SCORE.INTER>
-26.0975

>  <SCORE.INTER.CONST>
1

>  <SCORE.INTER.POLAR>
-1.93632

>  <SCORE.INTER.ROT>
0

>  <SCORE.INTER.SOLV>
11.6628

>  <SCORE.INTER.VDW>
-18.4316

>  <SCORE.INTER.norm>
-2.60975

>  <SCORE.INTRA>
0

>  <SCORE.INTRA.DIHEDRAL>
0

>  <SCORE.INTRA.DIHEDRAL.0>
0

>  <SCORE.INTRA.POLAR>
0

>  <SCORE.INTRA.POLAR.0>
0

>  <SCORE.INTRA.REPUL>
0

>  <SCORE.INTRA.REPUL.0>
0

>  <SCORE.INTRA.SOLV>
0

>  <SCORE.INTRA.SOLV.lig_0>
-13.7928

>  <SCORE.INTRA.VDW>
0

>  <SCORE.INTRA.VDW.0>
0

>  <SCORE.INTRA.norm>
0

>  <SCORE.RESTR>
0

>  <SCORE.RESTR.CAVITY>
0

>  <SCORE.RESTR.norm>
0

>  <SCORE.SYSTEM>
0

>  <SCORE.SYSTEM.CONST>
0

>  <SCORE.SYSTEM.DIHEDRAL>
0

>  <SCORE.SYSTEM.SOLV>
0

>  <SCORE.SYSTEM.norm>
0

>  <SCORE.heavy>
10

>  <SCORE.norm>
-2.60975

>  <RMSD>
0.209

$$$$
1u8d_lig
 OpenBabel11021811413D
libRbt.so/2013.1/901 2013/11/27
 10 11  0  0  0  0  0  0  0  0999 V2000
   11.7242   10.4787    9.2735 N   0  0  0  0  0  0  0  0  0  0  0  0
   11.4729   11.8443    9.4899 C   0  0  0  0  0  0  0  0  0  0  0  0
   11.1766   12.7181    8.4941 N   0  0  0  0  0  0  0  0  0  0  0  0
   11.1469   12.1339    7.2766 C   0  0  0  0  0  0  0  0  0  0  0  0
   11.4146   10.6600    6.9770 C   0  0  0  0  0  0  0  0  0  0  0  0
   11.7186    9.7976    8.0417 C   0  0  0  0  0  0  0  0  0  0  0  0
   11.9592    8.5981    8.0330 O   0  0  0  0  0  0  0  0  0  0  0  0
   11.2840   10.5035    5.6243 N   0  0  0  0  0  0  0  0  0  0  0  0
   10.9573   11.7298    5.0987 C   0  0  0  0  0  0  0  0  0  0  0  0
   10.8677   12.7314    6.0617 N   0  0  0  0  0  0  0  0  0  0  0  0
  1  2  1  0  0  0  0
  1  6  1  0  0  0  0
  2  3  2  0  0  0  0
  3  4  1  0  0  0  0
  4  5  2  0  0  0  0
  4 10  1  0  0  0  0
  5  6  1  0  0  0  0
  5  8  1  0  0  0  0
  6  7  2  0  0  0  0
  8  9  1  0  0  0  0
  9 10  2  0  0  0  0
M  END
>  <CHROM.1>
11.38080895,11.08364758,7.44824616,0.43057453,-1.33643877,1.03513977

>  <Name>
1u8d_lig

>  <RI>
0

>  <Rbt.Current_Directory>
/home/itssahil/PROJECTS/Mol_Feturizer/New_Systems/rnas/1u8d

>  <Rbt.Executable>
rbdock ($Id: //depot/dev/client3/rdock/2013.1/src/exe/rbdock.cxx#4 $)

>  <Rbt.Library>
libRbt.so (2013.1, Build901 2013/11/27)

>  <Rbt.Parameter_File>
/export/apps/rDock/src/rDock_2013.1_src/data/scripts/dock_solv.prm

>  <Rbt.Receptor>
prm/pocket_docking_7.prm

>  <SCORE>
-26.1319

>  <SCORE.INTER>
-26.1319

>  <SCORE.INTER.CONST>
1

>  <SCORE.INTER.POLAR>
-1.93632

>  <SCORE.INTER.ROT>
0

>  <SCORE.INTER.SOLV>
11.6402

>  <SCORE.INTER.VDW>
-18.447

>  <SCORE.INTER.norm>
-2.61319

>  <SCORE.INTRA>
0

>  <SCORE.INTRA.DIHEDRAL>
0

>  <SCORE.INTRA.DIHEDRAL.0>
0

>  <SCORE.INTRA.POLAR>
0

>  <SCORE.INTRA.POLAR.0>
0

>  <SCORE.INTRA.REPUL>
0

>  <SCORE.INTRA.REPUL.0>
0

>  <SCORE.INTRA.SOLV>
0

>  <SCORE.INTRA.SOLV.lig_0>
-13.7928

>  <SCORE.INTRA.VDW>
0

>  <SCORE.INTRA.VDW.0>
0

>  <SCORE.INTRA.norm>
0

>  <SCORE.RESTR>
0

>  <SCORE.RESTR.CAVITY>
0

>  <SCORE.RESTR.norm>
0

>  <SCORE.SYSTEM>
0

>  <SCORE.SYSTEM.CONST>
0

>  <SCORE.SYSTEM.DIHEDRAL>
0

>  <SCORE.SYSTEM.SOLV>
0

>  <SCORE.SYSTEM.norm>
0

>  <SCORE.heavy>
10

>  <SCORE.norm>
-2.61319

>  <RMSD>
0.209

$$$$
1u8d_lig
 OpenBabel11021811413D
libRbt.so/2013.1/901 2013/11/27
 10 11  0  0  0  0  0  0  0  0999 V2000
   11.8616   10.5321    9.1002 N   0  0  0  0  0  0  0  0  0  0  0  0
   11.5612   11.8926    9.2843 C   0  0  0  0  0  0  0  0  0  0  0  0
   11.1771   12.7174    8.2769 N   0  0  0  0  0  0  0  0  0  0  0  0
   11.1126   12.0902    7.0824 C   0  0  0  0  0  0  0  0  0  0  0  0
   11.4300   10.6194    6.8180 C   0  0  0  0  0  0  0  0  0  0  0  0
   11.8247    9.8087    7.8934 C   0  0  0  0  0  0  0  0  0  0  0  0
   12.1174    8.6209    7.9117 O   0  0  0  0  0  0  0  0  0  0  0  0
   11.2391   10.4102    5.4797 N   0  0  0  0  0  0  0  0  0  0  0  0
   10.8325   11.6023    4.9316 C   0  0  0  0  0  0  0  0  0  0  0  0
   10.7468   12.6323    5.8644 N   0  0  0  0  0  0  0  0  0  0  0  0
  1  2  1  0  0  0  0
  1  6  1  0  0  0  0
  2  3  2  0  0  0  0
  3  4  1  0  0  0  0
  4  5  2  0  0  0  0
  4 10  1  0  0  0  0
  5  6  1  0  0  0  0
  5  8  1  0  0  0  0
  6  7  2  0  0  0  0
  8  9  1  0  0  0  0
  9 10  2  0  0  0  0
M  END
>  <CHROM.1>
11.40103720,11.05753116,7.27617409,0.36139264,-1.27212836,0.93435507

>  <Name>
1u8d_lig

>  <RI>
0

>  <Rbt.Current_Directory>
/home/itssahil/PROJECTS/Mol_Feturizer/New_Systems/rnas/1u8d

>  <Rbt.Executable>
rbdock ($Id: //depot/dev/client3/rdock/2013.1/src/exe/rbdock.cxx#4 $)

>  <Rbt.Library>
libRbt.so (2013.1, Build901 2013/11/27)

>  <Rbt.Parameter_File>
/export/apps/rDock/src/rDock_2013.1_src/data/scripts/dock_solv.prm

>  <Rbt.Receptor>
prm/pocket_docking_8.prm

>  <SCORE>
-26.0681

>  <SCORE.INTER>
-26.0681

>  <SCORE.INTER.CONST>
1

>  <SCORE.INTER.POLAR>
-1.93632

>  <SCORE.INTER.ROT>
0

>  <SCORE.INTER.SOLV>
11.4437

>  <SCORE.INTER.VDW>
-18.3389

>  <SCORE.INTER.norm>
-2.60681

>  <SCORE.INTRA>
0

>  <SCORE.INTRA.DIHEDRAL>
0

>  <SCORE.INTRA.DIHEDRAL.0>
0

>  <SCORE.INTRA.POLAR>
0

>  <SCORE.INTRA.POLAR.0>
0

>  <SCORE.INTRA.REPUL>
0

>  <SCORE.INTRA.REPUL.0>
0

>  <SCORE.INTRA.SOLV>
0

>  <SCORE.INTRA.SOLV.lig_0>
-13.7928

>  <SCORE.INTRA.VDW>
0

>  <SCORE.INTRA.VDW.0>
0

>  <SCORE.INTRA.norm>
0

>  <SCORE.RESTR>
0

>  <SCORE.RESTR.CAVITY>
0

>  <SCORE.RESTR.norm>
0

>  <SCORE.SYSTEM>
0

>  <SCORE.SYSTEM.CONST>
0

>  <SCORE.SYSTEM.DIHEDRAL>
0

>  <SCORE.SYSTEM.SOLV>
0

>  <SCORE.SYSTEM.norm>
0

>  <SCORE.heavy>
10

>  <SCORE.norm>
-2.60681

>  <RMSD>
0.209

$$$$
1u8d_lig
 OpenBabel11021811413D
libRbt.so/2013.1/901 2013/11/27
 10 11  0  0  0  0  0  0  0  0999 V2000
   11.7149   10.4785    9.2688 N   0  0  0  0  0  0  0  0  0  0  0  0
   11.4549   11.8417    9.4901 C   0  0  0  0  0  0  0  0  0  0  0  0
   11.1612   12.7188    8.4966 N   0  0  0  0  0  0  0  0  0  0  0  0
   11.1434   12.1405    7.2760 C   0  0  0  0  0  0  0  0  0  0  0  0
   11.4210   10.6695    6.9711 C   0  0  0  0  0  0  0  0  0  0  0  0
   11.7219    9.8035    8.0337 C   0  0  0  0  0  0  0  0  0  0  0  0
   11.9688    8.6054    8.0208 O   0  0  0  0  0  0  0  0  0  0  0  0
   11.3010   10.5191    5.6167 N   0  0  0  0  0  0  0  0  0  0  0  0
   10.9717   11.7462    5.0949 C   0  0  0  0  0  0  0  0  0  0  0  0
   10.8698   12.7426    6.0621 N   0  0  0  0  0  0  0  0  0  0  0  0
  1  2  1  0  0  0  0
  1  6  1  0  0  0  0
  2  3  2  0  0  0  0
  3  4  1  0  0  0  0
  4  5  2  0  0  0  0
  4 10  1  0  0  0  0
  5  6  1  0  0  0  0
  5  8  1  0  0  0  0
  6  7  2  0  0  0  0
  8  9  1  0  0  0  0
  9 10  2  0  0  0  0
M  END
>  <CHROM.1>
11.38159321,11.09067533,7.44415411,0.46868210,-1.33543106,1.07714668

>  <Name>
1u8d_lig

>  <RI>
0

>  <Rbt.Current_Directory>
/home/itssahil/PROJECTS/Mol_Feturizer/New_Systems/rnas/1u8d

>  <Rbt.Executable>
rbdock ($Id: //depot/dev/client3/rdock/2013.1/src/exe/rbdock.cxx#4 $)

>  <Rbt.Library>
libRbt.so (2013.1, Build901 2013/11/27)

>  <Rbt.Parameter_File>
/export/apps/rDock/src/rDock_2013.1_src/data/scripts/dock_solv.prm

>  <Rbt.Receptor>
prm/blind_docking_60.prm

>  <SCORE>
-26.0805

>  <SCORE.INTER>
-26.0805

>  <SCORE.INTER.CONST>
1

>  <SCORE.INTER.POLAR>
-1.93632

>  <SCORE.INTER.ROT>
0

>  <SCORE.INTER.SOLV>
11.6418

>  <SCORE.INTER.VDW>
-18.4132

>  <SCORE.INTER.norm>
-2.60805

>  <SCORE.INTRA>
0

>  <SCORE.INTRA.DIHEDRAL>
0

>  <SCORE.INTRA.DIHEDRAL.0>
0

>  <SCORE.INTRA.POLAR>
0

>  <SCORE.INTRA.POLAR.0>
0

>  <SCORE.INTRA.REPUL>
0

>  <SCORE.INTRA.REPUL.0>
0

>  <SCORE.INTRA.SOLV>
0

>  <SCORE.INTRA.SOLV.lig_0>
-13.7928

>  <SCORE.INTRA.VDW>
0

>  <SCORE.INTRA.VDW.0>
0

>  <SCORE.INTRA.norm>
0

>  <SCORE.RESTR>
0

>  <SCORE.RESTR.CAVITY>
0

>  <SCORE.RESTR.norm>
0

>  <SCORE.SYSTEM>
0

>  <SCORE.SYSTEM.CONST>
0

>  <SCORE.SYSTEM.DIHEDRAL>
0

>  <SCORE.SYSTEM.SOLV>
0

>  <SCORE.SYSTEM.norm>
0

>  <SCORE.heavy>
10

>  <SCORE.norm>
-2.60805

>  <RMSD>
0.210

$$$$
1u8d_lig
 OpenBabel11021811413D
libRbt.so/2013.1/901 2013/11/27
 10 11  0  0  0  0  0  0  0  0999 V2000
   11.7443   10.4898    9.2641 N   0  0  0  0  0  0  0  0  0  0  0  0
   11.5156   11.8615    9.4670 C   0  0  0  0  0  0  0  0  0  0  0  0
   11.2160   12.7268    8.4649 N   0  0  0  0  0  0  0  0  0  0  0  0
   11.1591   12.1279    7.2555 C   0  0  0  0  0  0  0  0  0  0  0  0
   11.4015   10.6467    6.9705 C   0  0  0  0  0  0  0  0  0  0  0  0
   11.7100    9.7936    8.0413 C   0  0  0  0  0  0  0  0  0  0  0  0
   11.9336    8.5908    8.0441 O   0  0  0  0  0  0  0  0  0  0  0  0
   11.2475   10.4753    5.6221 N   0  0  0  0  0  0  0  0  0  0  0  0
   10.9298   11.6993    5.0861 C   0  0  0  0  0  0  0  0  0  0  0  0
   10.8692   12.7141    6.0375 N   0  0  0  0  0  0  0  0  0  0  0  0
  1  2  1  0  0  0  0
  1  6  1  0  0  0  0
  2  3  2  0  0  0  0
  3  4  1  0  0  0  0
  4  5  2  0  0  0  0
  4 10  1  0  0  0  0
  5  6  1  0  0  0  0
  5  8  1  0  0  0  0
  6  7  2  0  0  0  0
  8  9  1  0  0  0  0
  9 10  2  0  0  0  0
M  END
>  <CHROM.1>
11.38093054,11.07671299,7.43683813,0.34060622,-1.33956865,0.93497551

>  <Name>
1u8d_lig

>  <RI>
0

>  <Rbt.Current_Directory>
/home/itssahil/PROJECTS/Mol_Feturizer/New_Systems/rnas/1u8d

>  <Rbt.Executable>
rbdock ($Id: //depot/dev/client3/rdock/2013.1/src/exe/rbdock.cxx#4 $)

>  <Rbt.Library>
libRbt.so (2013.1, Build901 2013/11/27)

>  <Rbt.Parameter_File>
/export/apps/rDock/src/rDock_2013.1_src/data/scripts/dock_solv.prm

>  <Rbt.Receptor>
prm/pocket_docking_4.prm

>  <SCORE>
-26.1191

>  <SCORE.INTER>
-26.1191

>  <SCORE.INTER.CONST>
1

>  <SCORE.INTER.POLAR>
-1.93632

>  <SCORE.INTER.ROT>
0

>  <SCORE.INTER.SOLV>
11.644

>  <SCORE.INTER.VDW>
-18.4397

>  <SCORE.INTER.norm>
-2.61191

>  <SCORE.INTRA>
0

>  <SCORE.INTRA.DIHEDRAL>
0

>  <SCORE.INTRA.DIHEDRAL.0>
0

>  <SCORE.INTRA.POLAR>
0

>  <SCORE.INTRA.POLAR.0>
0

>  <SCORE.INTRA.REPUL>
0

>  <SCORE.INTRA.REPUL.0>
0

>  <SCORE.INTRA.SOLV>
0

>  <SCORE.INTRA.SOLV.lig_0>
-13.7928

>  <SCORE.INTRA.VDW>
0

>  <SCORE.INTRA.VDW.0>
0

>  <SCORE.INTRA.norm>
0

>  <SCORE.RESTR>
0

>  <SCORE.RESTR.CAVITY>
0

>  <SCORE.RESTR.norm>
0

>  <SCORE.SYSTEM>
0

>  <SCORE.SYSTEM.CONST>
0

>  <SCORE.SYSTEM.DIHEDRAL>
0

>  <SCORE.SYSTEM.SOLV>
0

>  <SCORE.SYSTEM.norm>
0

>  <SCORE.heavy>
10

>  <SCORE.norm>
-2.61191

>  <RMSD>
0.210

$$$$
1u8d_lig
 OpenBabel11021811413D
libRbt.so/2013.1/901 2013/11/27
 10 11  0  0  0  0  0  0  0  0999 V2000
   11.7212   10.4723    9.2712 N   0  0  0  0  0  0  0  0  0  0  0  0
   11.4691   11.8380    9.4867 C   0  0  0  0  0  0  0  0  0  0  0  0
   11.1726   12.7109    8.4902 N   0  0  0  0  0  0  0  0  0  0  0  0
   11.1437   12.1258    7.2731 C   0  0  0  0  0  0  0  0  0  0  0  0
   11.4123   10.6519    6.9745 C   0  0  0  0  0  0  0  0  0  0  0  0
   11.7165    9.7905    8.0399 C   0  0  0  0  0  0  0  0  0  0  0  0
   11.9577    8.5911    8.0320 O   0  0  0  0  0  0  0  0  0  0  0  0
   11.2822   10.4945    5.6219 N   0  0  0  0  0  0  0  0  0  0  0  0
   10.9550   11.7202    5.0954 C   0  0  0  0  0  0  0  0  0  0  0  0
   10.8644   12.7224    6.0577 N   0  0  0  0  0  0  0  0  0  0  0  0
  1  2  1  0  0  0  0
  1  6  1  0  0  0  0
  2  3  2  0  0  0  0
  3  4  1  0  0  0  0
  4  5  2  0  0  0  0
  4 10  1  0  0  0  0
  5  6  1  0  0  0  0
  5  8  1  0  0  0  0
  6  7  2  0  0  0  0
  8  9  1  0  0  0  0
  9 10  2  0  0  0  0
M  END
>  <CHROM.1>
11.37809544,11.07587891,7.44549805,0.43299318,-1.33609707,1.03682768

>  <Name>
1u8d_lig

>  <RI>
0

>  <Rbt.Current_Directory>
/home/itssahil/PROJECTS/Mol_Feturizer/New_Systems/rnas/1u8d

>  <Rbt.Executable>
rbdock ($Id: //depot/dev/client3/rdock/2013.1/src/exe/rbdock.cxx#4 $)

>  <Rbt.Library>
libRbt.so (2013.1, Build901 2013/11/27)

>  <Rbt.Parameter_File>
/export/apps/rDock/src/rDock_2013.1_src/data/scripts/dock_solv.prm

>  <Rbt.Receptor>
prm/pocket_docking_5.prm

>  <SCORE>
-26.1304

>  <SCORE.INTER>
-26.1304

>  <SCORE.INTER.CONST>
1

>  <SCORE.INTER.POLAR>
-1.93632

>  <SCORE.INTER.ROT>
0

>  <SCORE.INTER.SOLV>
11.6443

>  <SCORE.INTER.VDW>
-18.4473

>  <SCORE.INTER.norm>
-2.61304

>  <SCORE.INTRA>
0

>  <SCORE.INTRA.DIHEDRAL>
0

>  <SCORE.INTRA.DIHEDRAL.0>
0

>  <SCORE.INTRA.POLAR>
0

>  <SCORE.INTRA.POLAR.0>
0

>  <SCORE.INTRA.REPUL>
0

>  <SCORE.INTRA.REPUL.0>
0

>  <SCORE.INTRA.SOLV>
0

>  <SCORE.INTRA.SOLV.lig_0>
-13.7928

>  <SCORE.INTRA.VDW>
0

>  <SCORE.INTRA.VDW.0>
0

>  <SCORE.INTRA.norm>
0

>  <SCORE.RESTR>
0

>  <SCORE.RESTR.CAVITY>
0

>  <SCORE.RESTR.norm>
0

>  <SCORE.SYSTEM>
0

>  <SCORE.SYSTEM.CONST>
0

>  <SCORE.SYSTEM.DIHEDRAL>
0

>  <SCORE.SYSTEM.SOLV>
0

>  <SCORE.SYSTEM.norm>
0

>  <SCORE.heavy>
10

>  <SCORE.norm>
-2.61304

>  <RMSD>
0.210

$$$$
1u8d_lig
 OpenBabel11021811413D
libRbt.so/2013.1/901 2013/11/27
 10 11  0  0  0  0  0  0  0  0999 V2000
   11.6745   10.4941    9.2761 N   0  0  0  0  0  0  0  0  0  0  0  0
   11.4205   11.8609    9.4820 C   0  0  0  0  0  0  0  0  0  0  0  0
   11.1377   12.7294    8.4778 N   0  0  0  0  0  0  0  0  0  0  0  0
   11.1243   12.1389    7.2631 C   0  0  0  0  0  0  0  0  0  0  0  0
   11.3959   10.6635    6.9747 C   0  0  0  0  0  0  0  0  0  0  0  0
   11.6855    9.8067    8.0479 C   0  0  0  0  0  0  0  0  0  0  0  0
   11.9261    8.6072    8.0486 O   0  0  0  0  0  0  0  0  0  0  0  0
   11.2835   10.5001    5.6212 N   0  0  0  0  0  0  0  0  0  0  0  0
   10.9639   11.7236    5.0850 C   0  0  0  0  0  0  0  0  0  0  0  0
   10.8614   12.7301    6.0414 N   0  0  0  0  0  0  0  0  0  0  0  0
  1  2  1  0  0  0  0
  1  6  1  0  0  0  0
  2  3  2  0  0  0  0
  3  4  1  0  0  0  0
  4  5  2  0  0  0  0
  4 10  1  0  0  0  0
  5  6  1  0  0  0  0
  5  8  1  0  0  0  0
  6  7  2  0  0  0  0
  8  9  1  0  0  0  0
  9 10  2  0  0  0  0
M  END
>  <CHROM.1>
11.35578502,11.08960255,7.44327775,0.48157274,-1.34306759,1.07960757

>  <Name>
1u8d_lig

>  <RI>
0

>  <Rbt.Current_Directory>
/home/itssahil/PROJECTS/Mol_Feturizer/New_Systems/rnas/1u8d

>  <Rbt.Executable>
rbdock ($Id: //depot/dev/client3/rdock/2013.1/src/exe/rbdock.cxx#4 $)

>  <Rbt.Library>
libRbt.so (2013.1, Build901 2013/11/27)

>  <Rbt.Parameter_File>
/export/apps/rDock/src/rDock_2013.1_src/data/scripts/dock_solv.prm

>  <Rbt.Receptor>
prm/pocket_docking_6.prm

>  <SCORE>
-26.0727

>  <SCORE.INTER>
-26.0727

>  <SCORE.INTER.CONST>
1

>  <SCORE.INTER.POLAR>
-1.93632

>  <SCORE.INTER.ROT>
0

>  <SCORE.INTER.SOLV>
11.7046

>  <SCORE.INTER.VDW>
-18.4289

>  <SCORE.INTER.norm>
-2.60727

>  <SCORE.INTRA>
0

>  <SCORE.INTRA.DIHEDRAL>
0

>  <SCORE.INTRA.DIHEDRAL.0>
0

>  <SCORE.INTRA.POLAR>
0

>  <SCORE.INTRA.POLAR.0>
0

>  <SCORE.INTRA.REPUL>
0

>  <SCORE.INTRA.REPUL.0>
0

>  <SCORE.INTRA.SOLV>
0

>  <SCORE.INTRA.SOLV.lig_0>
-13.7928

>  <SCORE.INTRA.VDW>
0

>  <SCORE.INTRA.VDW.0>
0

>  <SCORE.INTRA.norm>
0

>  <SCORE.RESTR>
0

>  <SCORE.RESTR.CAVITY>
0

>  <SCORE.RESTR.norm>
0

>  <SCORE.SYSTEM>
0

>  <SCORE.SYSTEM.CONST>
0

>  <SCORE.SYSTEM.DIHEDRAL>
0

>  <SCORE.SYSTEM.SOLV>
0

>  <SCORE.SYSTEM.norm>
0

>  <SCORE.heavy>
10

>  <SCORE.norm>
-2.60727

>  <RMSD>
0.210

$$$$
1u8d_lig
 OpenBabel11021811413D
libRbt.so/2013.1/901 2013/11/27
 10 11  0  0  0  0  0  0  0  0999 V2000
   11.7337   10.4864    9.2622 N   0  0  0  0  0  0  0  0  0  0  0  0
   11.5012   11.8578    9.4621 C   0  0  0  0  0  0  0  0  0  0  0  0
   11.2061   12.7215    8.4572 N   0  0  0  0  0  0  0  0  0  0  0  0
   11.1578   12.1211    7.2482 C   0  0  0  0  0  0  0  0  0  0  0  0
   11.4047   10.6401    6.9664 C   0  0  0  0  0  0  0  0  0  0  0  0
   11.7082    9.7887    8.0400 C   0  0  0  0  0  0  0  0  0  0  0  0
   11.9341    8.5863    8.0455 O   0  0  0  0  0  0  0  0  0  0  0  0
   11.2593   10.4669    5.6172 N   0  0  0  0  0  0  0  0  0  0  0  0
   10.9426   11.6897    5.0779 C   0  0  0  0  0  0  0  0  0  0  0  0
   10.8743   12.7054    6.0278 N   0  0  0  0  0  0  0  0  0  0  0  0
  1  2  1  0  0  0  0
  1  6  1  0  0  0  0
  2  3  2  0  0  0  0
  3  4  1  0  0  0  0
  4  5  2  0  0  0  0
  4 10  1  0  0  0  0
  5  6  1  0  0  0  0
  5  8  1  0  0  0  0
  6  7  2  0  0  0  0
  8  9  1  0  0  0  0
  9 10  2  0  0  0  0
M  END
>  <CHROM.1>
11.38045650,11.07055686,7.43206422,0.36727532,-1.34162499,0.95983107

>  <Name>
1u8d_lig

>  <RI>
0

>  <Rbt.Current_Directory>
/home/itssahil/PROJECTS/Mol_Feturizer/New_Systems/rnas/1u8d

>  <Rbt.Executable>
rbdock ($Id: //depot/dev/client3/rdock/2013.1/src/exe/rbdock.cxx#4 $)

>  <Rbt.Library>
libRbt.so (2013.1, Build901 2013/11/27)

>  <Rbt.Parameter_File>
/export/apps/rDock/src/rDock_2013.1_src/data/scripts/dock_solv.prm

>  <Rbt.Receptor>
prm/pocket_docking_7.prm

>  <SCORE>
-26.1143

>  <SCORE.INTER>
-26.1143

>  <SCORE.INTER.CONST>
1

>  <SCORE.INTER.POLAR>
-1.93632

>  <SCORE.INTER.ROT>
0

>  <SCORE.INTER.SOLV>
11.6578

>  <SCORE.INTER.VDW>
-18.4411

>  <SCORE.INTER.norm>
-2.61143

>  <SCORE.INTRA>
0

>  <SCORE.INTRA.DIHEDRAL>
0

>  <SCORE.INTRA.DIHEDRAL.0>
0

>  <SCORE.INTRA.POLAR>
0

>  <SCORE.INTRA.POLAR.0>
0

>  <SCORE.INTRA.REPUL>
0

>  <SCORE.INTRA.REPUL.0>
0

>  <SCORE.INTRA.SOLV>
0

>  <SCORE.INTRA.SOLV.lig_0>
-13.7928

>  <SCORE.INTRA.VDW>
0

>  <SCORE.INTRA.VDW.0>
0

>  <SCORE.INTRA.norm>
0

>  <SCORE.RESTR>
0

>  <SCORE.RESTR.CAVITY>
0

>  <SCORE.RESTR.norm>
0

>  <SCORE.SYSTEM>
0

>  <SCORE.SYSTEM.CONST>
0

>  <SCORE.SYSTEM.DIHEDRAL>
0

>  <SCORE.SYSTEM.SOLV>
0

>  <SCORE.SYSTEM.norm>
0

>  <SCORE.heavy>
10

>  <SCORE.norm>
-2.61143

>  <RMSD>
0.210

$$$$
1u8d_lig
 OpenBabel11021811413D
libRbt.so/2013.1/901 2013/11/27
 10 11  0  0  0  0  0  0  0  0999 V2000
   11.7371   10.4884    9.2732 N   0  0  0  0  0  0  0  0  0  0  0  0
   11.5019   11.8588    9.4776 C   0  0  0  0  0  0  0  0  0  0  0  0
   11.2066   12.7254    8.4753 N   0  0  0  0  0  0  0  0  0  0  0  0
   11.1610   12.1292    7.2642 C   0  0  0  0  0  0  0  0  0  0  0  0
   11.4108   10.6496    6.9775 C   0  0  0  0  0  0  0  0  0  0  0  0
   11.7144    9.7950    8.0486 C   0  0  0  0  0  0  0  0  0  0  0  0
   11.9424    8.5930    8.0502 O   0  0  0  0  0  0  0  0  0  0  0  0
   11.2676   10.4808    5.6276 N   0  0  0  0  0  0  0  0  0  0  0  0
   10.9494   11.7050    5.0921 C   0  0  0  0  0  0  0  0  0  0  0  0
   10.8781   12.7172    6.0454 N   0  0  0  0  0  0  0  0  0  0  0  0
  1  2  1  0  0  0  0
  1  6  1  0  0  0  0
  2  3  2  0  0  0  0
  3  4  1  0  0  0  0
  4  5  2  0  0  0  0
  4 10  1  0  0  0  0
  5  6  1  0  0  0  0
  5  8  1  0  0  0  0
  6  7  2  0  0  0  0
  8  9  1  0  0  0  0
  9 10  2  0  0  0  0
M  END
>  <CHROM.1>
11.38525190,11.07836095,7.44466255,0.37646203,-1.34093815,0.97225473

>  <Name>
1u8d_lig

>  <RI>
0

>  <Rbt.Current_Directory>
/home/itssahil/PROJECTS/Mol_Feturizer/New_Systems/rnas/1u8d

>  <Rbt.Executable>
rbdock ($Id: //depot/dev/client3/rdock/2013.1/src/exe/rbdock.cxx#4 $)

>  <Rbt.Library>
libRbt.so (2013.1, Build901 2013/11/27)

>  <Rbt.Parameter_File>
/export/apps/rDock/src/rDock_2013.1_src/data/scripts/dock_solv.prm

>  <Rbt.Receptor>
prm/pocket_docking_7.prm

>  <SCORE>
-26.106

>  <SCORE.INTER>
-26.106

>  <SCORE.INTER.CONST>
1

>  <SCORE.INTER.POLAR>
-1.93632

>  <SCORE.INTER.ROT>
0

>  <SCORE.INTER.SOLV>
11.6477

>  <SCORE.INTER.VDW>
-18.4322

>  <SCORE.INTER.norm>
-2.6106

>  <SCORE.INTRA>
0

>  <SCORE.INTRA.DIHEDRAL>
0

>  <SCORE.INTRA.DIHEDRAL.0>
0

>  <SCORE.INTRA.POLAR>
0

>  <SCORE.INTRA.POLAR.0>
0

>  <SCORE.INTRA.REPUL>
0

>  <SCORE.INTRA.REPUL.0>
0

>  <SCORE.INTRA.SOLV>
0

>  <SCORE.INTRA.SOLV.lig_0>
-13.7928

>  <SCORE.INTRA.VDW>
0

>  <SCORE.INTRA.VDW.0>
0

>  <SCORE.INTRA.norm>
0

>  <SCORE.RESTR>
0

>  <SCORE.RESTR.CAVITY>
0

>  <SCORE.RESTR.norm>
0

>  <SCORE.SYSTEM>
0

>  <SCORE.SYSTEM.CONST>
0

>  <SCORE.SYSTEM.DIHEDRAL>
0

>  <SCORE.SYSTEM.SOLV>
0

>  <SCORE.SYSTEM.norm>
0

>  <SCORE.heavy>
10

>  <SCORE.norm>
-2.6106

>  <RMSD>
0.210

$$$$
1u8d_lig
 OpenBabel11021811413D
libRbt.so/2013.1/901 2013/11/27
 10 11  0  0  0  0  0  0  0  0999 V2000
   11.7716   10.5095    9.1819 N   0  0  0  0  0  0  0  0  0  0  0  0
   11.5345   11.8795    9.3866 C   0  0  0  0  0  0  0  0  0  0  0  0
   11.2208   12.7426    8.3870 N   0  0  0  0  0  0  0  0  0  0  0  0
   11.1587   12.1433    7.1781 C   0  0  0  0  0  0  0  0  0  0  0  0
   11.4095   10.6640    6.8911 C   0  0  0  0  0  0  0  0  0  0  0  0
   11.7326    9.8130    7.9593 C   0  0  0  0  0  0  0  0  0  0  0  0
   11.9650    8.6119    7.9603 O   0  0  0  0  0  0  0  0  0  0  0  0
   11.2462   10.4914    5.5439 N   0  0  0  0  0  0  0  0  0  0  0  0
   10.9154   11.7132    5.0105 C   0  0  0  0  0  0  0  0  0  0  0  0
   10.8550   12.7274    5.9625 N   0  0  0  0  0  0  0  0  0  0  0  0
  1  2  1  0  0  0  0
  1  6  1  0  0  0  0
  2  3  2  0  0  0  0
  3  4  1  0  0  0  0
  4  5  2  0  0  0  0
  4 10  1  0  0  0  0
  5  6  1  0  0  0  0
  5  8  1  0  0  0  0
  6  7  2  0  0  0  0
  8  9  1  0  0  0  0
  9 10  2  0  0  0  0
M  END
>  <CHROM.1>
11.38955111,11.09376693,7.35756652,0.33209034,-1.32905422,0.92674554

>  <Name>
1u8d_lig

>  <RI>
0

>  <Rbt.Current_Directory>
/home/itssahil/PROJECTS/Mol_Feturizer/New_Systems/rnas/1u8d

>  <Rbt.Executable>
rbdock ($Id: //depot/dev/client3/rdock/2013.1/src/exe/rbdock.cxx#4 $)

>  <Rbt.Library>
libRbt.so (2013.1, Build901 2013/11/27)

>  <Rbt.Parameter_File>
/export/apps/rDock/src/rDock_2013.1_src/data/scripts/dock_solv.prm

>  <Rbt.Receptor>
prm/pocket_docking_8.prm

>  <SCORE>
-26.093

>  <SCORE.INTER>
-26.093

>  <SCORE.INTER.CONST>
1

>  <SCORE.INTER.POLAR>
-1.93632

>  <SCORE.INTER.ROT>
0

>  <SCORE.INTER.SOLV>
11.607

>  <SCORE.INTER.VDW>
-18.4099

>  <SCORE.INTER.norm>
-2.6093

>  <SCORE.INTRA>
0

>  <SCORE.INTRA.DIHEDRAL>
0

>  <SCORE.INTRA.DIHEDRAL.0>
0

>  <SCORE.INTRA.POLAR>
0

>  <SCORE.INTRA.POLAR.0>
0

>  <SCORE.INTRA.REPUL>
0

>  <SCORE.INTRA.REPUL.0>
0

>  <SCORE.INTRA.SOLV>
0

>  <SCORE.INTRA.SOLV.lig_0>
-13.7928

>  <SCORE.INTRA.VDW>
0

>  <SCORE.INTRA.VDW.0>
0

>  <SCORE.INTRA.norm>
0

>  <SCORE.RESTR>
0

>  <SCORE.RESTR.CAVITY>
0

>  <SCORE.RESTR.norm>
0

>  <SCORE.SYSTEM>
0

>  <SCORE.SYSTEM.CONST>
0

>  <SCORE.SYSTEM.DIHEDRAL>
0

>  <SCORE.SYSTEM.SOLV>
0

>  <SCORE.SYSTEM.norm>
0

>  <SCORE.heavy>
10

>  <SCORE.norm>
-2.6093

>  <RMSD>
0.210

$$$$
1u8d_lig
 OpenBabel11021811413D
libRbt.so/2013.1/901 2013/11/27
 10 11  0  0  0  0  0  0  0  0999 V2000
   11.6995   10.4692    9.1635 N   0  0  0  0  0  0  0  0  0  0  0  0
   11.3494   11.8183    9.3436 C   0  0  0  0  0  0  0  0  0  0  0  0
   11.0074   12.6457    8.3232 N   0  0  0  0  0  0  0  0  0  0  0  0
   11.0374   12.0329    7.1198 C   0  0  0  0  0  0  0  0  0  0  0  0
   11.4127   10.5752    6.8594 C   0  0  0  0  0  0  0  0  0  0  0  0
   11.7605    9.7613    7.9485 C   0  0  0  0  0  0  0  0  0  0  0  0
   12.0851    8.5820    7.9719 O   0  0  0  0  0  0  0  0  0  0  0  0
   11.3139   10.3788    5.5092 N   0  0  0  0  0  0  0  0  0  0  0  0
   10.9097   11.5664    4.9499 C   0  0  0  0  0  0  0  0  0  0  0  0
   10.7351   12.5811    5.8872 N   0  0  0  0  0  0  0  0  0  0  0  0
  1  2  1  0  0  0  0
  1  6  1  0  0  0  0
  2  3  2  0  0  0  0
  3  4  1  0  0  0  0
  4  5  2  0  0  0  0
  4 10  1  0  0  0  0
  5  6  1  0  0  0  0
  5  8  1  0  0  0  0
  6  7  2  0  0  0  0
  8  9  1  0  0  0  0
  9 10  2  0  0  0  0
M  END
>  <CHROM.1>
11.34200622,11.00615901,7.31979861,0.60186864,-1.27946933,1.17705936

>  <Name>
1u8d_lig

>  <RI>
0

>  <Rbt.Current_Directory>
/home/itssahil/PROJECTS/Mol_Feturizer/New_Systems/rnas/1u8d

>  <Rbt.Executable>
rbdock ($Id: //depot/dev/client3/rdock/2013.1/src/exe/rbdock.cxx#4 $)

>  <Rbt.Library>
libRbt.so (2013.1, Build901 2013/11/27)

>  <Rbt.Parameter_File>
/export/apps/rDock/src/rDock_2013.1_src/data/scripts/dock_solv.prm

>  <Rbt.Receptor>
prm/blind_docking_20.prm

>  <SCORE>
-25.7841

>  <SCORE.INTER>
-25.7848

>  <SCORE.INTER.CONST>
1

>  <SCORE.INTER.POLAR>
-1.93632

>  <SCORE.INTER.ROT>
0

>  <SCORE.INTER.SOLV>
11.607

>  <SCORE.INTER.VDW>
-18.2045

>  <SCORE.INTER.norm>
-2.57848

>  <SCORE.INTRA>
0

>  <SCORE.INTRA.DIHEDRAL>
0

>  <SCORE.INTRA.DIHEDRAL.0>
0

>  <SCORE.INTRA.POLAR>
0

>  <SCORE.INTRA.POLAR.0>
0

>  <SCORE.INTRA.REPUL>
0

>  <SCORE.INTRA.REPUL.0>
0

>  <SCORE.INTRA.SOLV>
0

>  <SCORE.INTRA.SOLV.lig_0>
-13.7928

>  <SCORE.INTRA.VDW>
0

>  <SCORE.INTRA.VDW.0>
0

>  <SCORE.INTRA.norm>
0

>  <SCORE.RESTR>
0.000741454

>  <SCORE.RESTR.CAVITY>
0.000741454

>  <SCORE.RESTR.norm>
7.41454e-05

>  <SCORE.SYSTEM>
0

>  <SCORE.SYSTEM.CONST>
0

>  <SCORE.SYSTEM.DIHEDRAL>
0

>  <SCORE.SYSTEM.SOLV>
0

>  <SCORE.SYSTEM.norm>
0

>  <SCORE.heavy>
10

>  <SCORE.norm>
-2.57841

>  <RMSD>
0.211

$$$$
1u8d_lig
 OpenBabel11021811413D
libRbt.so/2013.1/901 2013/11/27
 10 11  0  0  0  0  0  0  0  0999 V2000
   11.6841   10.4821    9.1549 N   0  0  0  0  0  0  0  0  0  0  0  0
   11.3340   11.8301    9.3430 C   0  0  0  0  0  0  0  0  0  0  0  0
   10.9776   12.6595    8.3292 N   0  0  0  0  0  0  0  0  0  0  0  0
   10.9933   12.0500    7.1240 C   0  0  0  0  0  0  0  0  0  0  0  0
   11.3678   10.5935    6.8549 C   0  0  0  0  0  0  0  0  0  0  0  0
   11.7309    9.7775    7.9374 C   0  0  0  0  0  0  0  0  0  0  0  0
   12.0578    8.5986    7.9535 O   0  0  0  0  0  0  0  0  0  0  0  0
   11.2522   10.4005    5.5056 N   0  0  0  0  0  0  0  0  0  0  0  0
   10.8387   11.5888    4.9547 C   0  0  0  0  0  0  0  0  0  0  0  0
   10.6744   12.6007    5.8967 N   0  0  0  0  0  0  0  0  0  0  0  0
  1  2  1  0  0  0  0
  1  6  1  0  0  0  0
  2  3  2  0  0  0  0
  3  4  1  0  0  0  0
  4  5  2  0  0  0  0
  4 10  1  0  0  0  0
  5  6  1  0  0  0  0
  5  8  1  0  0  0  0
  6  7  2  0  0  0  0
  8  9  1  0  0  0  0
  9 10  2  0  0  0  0
M  END
>  <CHROM.1>
11.30224035,11.02319304,7.31733542,0.56400446,-1.27278442,1.14343075

>  <Name>
1u8d_lig

>  <RI>
0

>  <Rbt.Current_Directory>
/home/itssahil/PROJECTS/Mol_Feturizer/New_Systems/rnas/1u8d

>  <Rbt.Executable>
rbdock ($Id: //depot/dev/client3/rdock/2013.1/src/exe/rbdock.cxx#4 $)

>  <Rbt.Library>
libRbt.so (2013.1, Build901 2013/11/27)

>  <Rbt.Parameter_File>
/export/apps/rDock/src/rDock_2013.1_src/data/scripts/dock_solv.prm

>  <Rbt.Receptor>
prm/blind_docking_20.prm

>  <SCORE>
-25.7735

>  <SCORE.INTER>
-25.7738

>  <SCORE.INTER.CONST>
1

>  <SCORE.INTER.POLAR>
-1.93632

>  <SCORE.INTER.ROT>
0

>  <SCORE.INTER.SOLV>
11.6076

>  <SCORE.INTER.VDW>
-18.1973

>  <SCORE.INTER.norm>
-2.57738

>  <SCORE.INTRA>
0

>  <SCORE.INTRA.DIHEDRAL>
0

>  <SCORE.INTRA.DIHEDRAL.0>
0

>  <SCORE.INTRA.POLAR>
0

>  <SCORE.INTRA.POLAR.0>
0

>  <SCORE.INTRA.REPUL>
0

>  <SCORE.INTRA.REPUL.0>
0

>  <SCORE.INTRA.SOLV>
0

>  <SCORE.INTRA.SOLV.lig_0>
-13.7928

>  <SCORE.INTRA.VDW>
0

>  <SCORE.INTRA.VDW.0>
0

>  <SCORE.INTRA.norm>
0

>  <SCORE.RESTR>
0.00033361

>  <SCORE.RESTR.CAVITY>
0.00033361

>  <SCORE.RESTR.norm>
3.3361e-05

>  <SCORE.SYSTEM>
0

>  <SCORE.SYSTEM.CONST>
0

>  <SCORE.SYSTEM.DIHEDRAL>
0

>  <SCORE.SYSTEM.SOLV>
0

>  <SCORE.SYSTEM.norm>
0

>  <SCORE.heavy>
10

>  <SCORE.norm>
-2.57735

>  <RMSD>
0.211

$$$$
1u8d_lig
 OpenBabel11021811413D
libRbt.so/2013.1/901 2013/11/27
 10 11  0  0  0  0  0  0  0  0999 V2000
   11.7196   10.4761    9.2699 N   0  0  0  0  0  0  0  0  0  0  0  0
   11.4684   11.8416    9.4872 C   0  0  0  0  0  0  0  0  0  0  0  0
   11.1745   12.7165    8.4918 N   0  0  0  0  0  0  0  0  0  0  0  0
   11.1470   12.1335    7.2736 C   0  0  0  0  0  0  0  0  0  0  0  0
   11.4148   10.6598    6.9730 C   0  0  0  0  0  0  0  0  0  0  0  0
   11.7163    9.7963    8.0375 C   0  0  0  0  0  0  0  0  0  0  0  0
   11.9565    8.5967    8.0280 O   0  0  0  0  0  0  0  0  0  0  0  0
   11.2869   10.5048    5.6199 N   0  0  0  0  0  0  0  0  0  0  0  0
   10.9617   11.7317    5.0949 C   0  0  0  0  0  0  0  0  0  0  0  0
   10.8705   12.7324    6.0587 N   0  0  0  0  0  0  0  0  0  0  0  0
  1  2  1  0  0  0  0
  1  6  1  0  0  0  0
  2  3  2  0  0  0  0
  3  4  1  0  0  0  0
  4  5  2  0  0  0  0
  4 10  1  0  0  0  0
  5  6  1  0  0  0  0
  5  8  1  0  0  0  0
  6  7  2  0  0  0  0
  8  9  1  0  0  0  0
  9 10  2  0  0  0  0
M  END
>  <CHROM.1>
11.38019029,11.08304416,7.44464156,0.43725739,-1.33777719,1.04264948

>  <Name>
1u8d_lig

>  <RI>
0

>  <Rbt.Current_Directory>
/home/itssahil/PROJECTS/Mol_Feturizer/New_Systems/rnas/1u8d

>  <Rbt.Executable>
rbdock ($Id: //depot/dev/client3/rdock/2013.1/src/exe/rbdock.cxx#4 $)

>  <Rbt.Library>
libRbt.so (2013.1, Build901 2013/11/27)

>  <Rbt.Parameter_File>
/export/apps/rDock/src/rDock_2013.1_src/data/scripts/dock_solv.prm

>  <Rbt.Receptor>
prm/pocket_docking_6.prm

>  <SCORE>
-26.1323

>  <SCORE.INTER>
-26.1323

>  <SCORE.INTER.CONST>
1

>  <SCORE.INTER.POLAR>
-1.93632

>  <SCORE.INTER.ROT>
0

>  <SCORE.INTER.SOLV>
11.6461

>  <SCORE.INTER.VDW>
-18.4492

>  <SCORE.INTER.norm>
-2.61323

>  <SCORE.INTRA>
0

>  <SCORE.INTRA.DIHEDRAL>
0

>  <SCORE.INTRA.DIHEDRAL.0>
0

>  <SCORE.INTRA.POLAR>
0

>  <SCORE.INTRA.POLAR.0>
0

>  <SCORE.INTRA.REPUL>
0

>  <SCORE.INTRA.REPUL.0>
0

>  <SCORE.INTRA.SOLV>
0

>  <SCORE.INTRA.SOLV.lig_0>
-13.7928

>  <SCORE.INTRA.VDW>
0

>  <SCORE.INTRA.VDW.0>
0

>  <SCORE.INTRA.norm>
0

>  <SCORE.RESTR>
0

>  <SCORE.RESTR.CAVITY>
0

>  <SCORE.RESTR.norm>
0

>  <SCORE.SYSTEM>
0

>  <SCORE.SYSTEM.CONST>
0

>  <SCORE.SYSTEM.DIHEDRAL>
0

>  <SCORE.SYSTEM.SOLV>
0

>  <SCORE.SYSTEM.norm>
0

>  <SCORE.heavy>
10

>  <SCORE.norm>
-2.61323

>  <RMSD>
0.211

$$$$
1u8d_lig
 OpenBabel11021811413D
libRbt.so/2013.1/901 2013/11/27
 10 11  0  0  0  0  0  0  0  0999 V2000
   11.6943   10.4975    9.2585 N   0  0  0  0  0  0  0  0  0  0  0  0
   11.4463   11.8650    9.4667 C   0  0  0  0  0  0  0  0  0  0  0  0
   11.1640   12.7358    8.4644 N   0  0  0  0  0  0  0  0  0  0  0  0
   11.1447   12.1468    7.2490 C   0  0  0  0  0  0  0  0  0  0  0  0
   11.4095   10.6706    6.9581 C   0  0  0  0  0  0  0  0  0  0  0  0
   11.6988    9.8114    8.0295 C   0  0  0  0  0  0  0  0  0  0  0  0
   11.9346    8.6109    8.0281 O   0  0  0  0  0  0  0  0  0  0  0  0
   11.2924   10.5091    5.6048 N   0  0  0  0  0  0  0  0  0  0  0  0
   10.9761   11.7345    5.0709 C   0  0  0  0  0  0  0  0  0  0  0  0
   10.8805   12.7404    6.0288 N   0  0  0  0  0  0  0  0  0  0  0  0
  1  2  1  0  0  0  0
  1  6  1  0  0  0  0
  2  3  2  0  0  0  0
  3  4  1  0  0  0  0
  4  5  2  0  0  0  0
  4 10  1  0  0  0  0
  5  6  1  0  0  0  0
  5  8  1  0  0  0  0
  6  7  2  0  0  0  0
  8  9  1  0  0  0  0
  9 10  2  0  0  0  0
M  END
>  <CHROM.1>
11.37245474,11.09632765,7.42730504,0.46139576,-1.34515697,1.06107765

>  <Name>
1u8d_lig

>  <RI>
0

>  <Rbt.Current_Directory>
/home/itssahil/PROJECTS/Mol_Feturizer/New_Systems/rnas/1u8d

>  <Rbt.Executable>
rbdock ($Id: //depot/dev/client3/rdock/2013.1/src/exe/rbdock.cxx#4 $)

>  <Rbt.Library>
libRbt.so (2013.1, Build901 2013/11/27)

>  <Rbt.Parameter_File>
/export/apps/rDock/src/rDock_2013.1_src/data/scripts/dock_solv.prm

>  <Rbt.Receptor>
prm/pocket_docking_8.prm

>  <SCORE>
-26.0856

>  <SCORE.INTER>
-26.0856

>  <SCORE.INTER.CONST>
1

>  <SCORE.INTER.POLAR>
-1.93632

>  <SCORE.INTER.ROT>
0

>  <SCORE.INTER.SOLV>
11.6901

>  <SCORE.INTER.VDW>
-18.4327

>  <SCORE.INTER.norm>
-2.60856

>  <SCORE.INTRA>
0

>  <SCORE.INTRA.DIHEDRAL>
0

>  <SCORE.INTRA.DIHEDRAL.0>
0

>  <SCORE.INTRA.POLAR>
0

>  <SCORE.INTRA.POLAR.0>
0

>  <SCORE.INTRA.REPUL>
0

>  <SCORE.INTRA.REPUL.0>
0

>  <SCORE.INTRA.SOLV>
0

>  <SCORE.INTRA.SOLV.lig_0>
-13.7928

>  <SCORE.INTRA.VDW>
0

>  <SCORE.INTRA.VDW.0>
0

>  <SCORE.INTRA.norm>
0

>  <SCORE.RESTR>
0

>  <SCORE.RESTR.CAVITY>
0

>  <SCORE.RESTR.norm>
0

>  <SCORE.SYSTEM>
0

>  <SCORE.SYSTEM.CONST>
0

>  <SCORE.SYSTEM.DIHEDRAL>
0

>  <SCORE.SYSTEM.SOLV>
0

>  <SCORE.SYSTEM.norm>
0

>  <SCORE.heavy>
10

>  <SCORE.norm>
-2.60856

>  <RMSD>
0.211

$$$$
1u8d_lig
 OpenBabel11021811413D
libRbt.so/2013.1/901 2013/11/27
 10 11  0  0  0  0  0  0  0  0999 V2000
   11.7268   10.4790    9.2823 N   0  0  0  0  0  0  0  0  0  0  0  0
   11.4860   11.8480    9.4891 C   0  0  0  0  0  0  0  0  0  0  0  0
   11.1898   12.7157    8.4881 N   0  0  0  0  0  0  0  0  0  0  0  0
   11.1492   12.1220    7.2755 C   0  0  0  0  0  0  0  0  0  0  0  0
   11.4052   10.6440    6.9862 C   0  0  0  0  0  0  0  0  0  0  0  0
   11.7096    9.7882    8.0560 C   0  0  0  0  0  0  0  0  0  0  0  0
   11.9420    8.5870    8.0556 O   0  0  0  0  0  0  0  0  0  0  0  0
   11.2658   10.4777    5.6356 N   0  0  0  0  0  0  0  0  0  0  0  0
   10.9443   11.7018    5.1021 C   0  0  0  0  0  0  0  0  0  0  0  0
   10.8669   12.7117    6.0574 N   0  0  0  0  0  0  0  0  0  0  0  0
  1  2  1  0  0  0  0
  1  6  1  0  0  0  0
  2  3  2  0  0  0  0
  3  4  1  0  0  0  0
  4  5  2  0  0  0  0
  4 10  1  0  0  0  0
  5  6  1  0  0  0  0
  5  8  1  0  0  0  0
  6  7  2  0  0  0  0
  8  9  1  0  0  0  0
  9 10  2  0  0  0  0
M  END
>  <CHROM.1>
11.37697575,11.07164117,7.45422741,0.39400430,-1.33911855,0.99155325

>  <Name>
1u8d_lig

>  <RI>
0

>  <Rbt.Current_Directory>
/home/itssahil/PROJECTS/Mol_Feturizer/New_Systems/rnas/1u8d

>  <Rbt.Executable>
rbdock ($Id: //depot/dev/client3/rdock/2013.1/src/exe/rbdock.cxx#4 $)

>  <Rbt.Library>
libRbt.so (2013.1, Build901 2013/11/27)

>  <Rbt.Parameter_File>
/export/apps/rDock/src/rDock_2013.1_src/data/scripts/dock_solv.prm

>  <Rbt.Receptor>
prm/pocket_docking_8.prm

>  <SCORE>
-26.1518

>  <SCORE.INTER>
-26.1518

>  <SCORE.INTER.CONST>
1

>  <SCORE.INTER.POLAR>
-1.93632

>  <SCORE.INTER.ROT>
0

>  <SCORE.INTER.SOLV>
11.65

>  <SCORE.INTER.VDW>
-18.4635

>  <SCORE.INTER.norm>
-2.61518

>  <SCORE.INTRA>
0

>  <SCORE.INTRA.DIHEDRAL>
0

>  <SCORE.INTRA.DIHEDRAL.0>
0

>  <SCORE.INTRA.POLAR>
0

>  <SCORE.INTRA.POLAR.0>
0

>  <SCORE.INTRA.REPUL>
0

>  <SCORE.INTRA.REPUL.0>
0

>  <SCORE.INTRA.SOLV>
0

>  <SCORE.INTRA.SOLV.lig_0>
-13.7928

>  <SCORE.INTRA.VDW>
0

>  <SCORE.INTRA.VDW.0>
0

>  <SCORE.INTRA.norm>
0

>  <SCORE.RESTR>
0

>  <SCORE.RESTR.CAVITY>
0

>  <SCORE.RESTR.norm>
0

>  <SCORE.SYSTEM>
0

>  <SCORE.SYSTEM.CONST>
0

>  <SCORE.SYSTEM.DIHEDRAL>
0

>  <SCORE.SYSTEM.SOLV>
0

>  <SCORE.SYSTEM.norm>
0

>  <SCORE.heavy>
10

>  <SCORE.norm>
-2.61518

>  <RMSD>
0.211

$$$$
1u8d_lig
 OpenBabel11021811413D
libRbt.so/2013.1/901 2013/11/27
 10 11  0  0  0  0  0  0  0  0999 V2000
   11.7224   10.4879    9.2762 N   0  0  0  0  0  0  0  0  0  0  0  0
   11.4813   11.8558    9.4902 C   0  0  0  0  0  0  0  0  0  0  0  0
   11.1845   12.7285    8.4937 N   0  0  0  0  0  0  0  0  0  0  0  0
   11.1437   12.1410    7.2781 C   0  0  0  0  0  0  0  0  0  0  0  0
   11.4000   10.6646    6.9812 C   0  0  0  0  0  0  0  0  0  0  0  0
   11.7049    9.8034    8.0465 C   0  0  0  0  0  0  0  0  0  0  0  0
   11.9377    8.6023    8.0399 O   0  0  0  0  0  0  0  0  0  0  0  0
   11.2602   10.5050    5.6298 N   0  0  0  0  0  0  0  0  0  0  0  0
   10.9381   11.7318    5.1026 C   0  0  0  0  0  0  0  0  0  0  0  0
   10.8608   12.7368    6.0631 N   0  0  0  0  0  0  0  0  0  0  0  0
  1  2  1  0  0  0  0
  1  6  1  0  0  0  0
  2  3  2  0  0  0  0
  3  4  1  0  0  0  0
  4  5  2  0  0  0  0
  4 10  1  0  0  0  0
  5  6  1  0  0  0  0
  5  8  1  0  0  0  0
  6  7  2  0  0  0  0
  8  9  1  0  0  0  0
  9 10  2  0  0  0  0
M  END
>  <CHROM.1>
11.37181223,11.08980890,7.45137012,0.39342246,-1.33870037,0.99606631

>  <Name>
1u8d_lig

>  <RI>
0

>  <Rbt.Current_Directory>
/home/itssahil/PROJECTS/Mol_Feturizer/New_Systems/rnas/1u8d

>  <Rbt.Executable>
rbdock ($Id: //depot/dev/client3/rdock/2013.1/src/exe/rbdock.cxx#4 $)

>  <Rbt.Library>
libRbt.so (2013.1, Build901 2013/11/27)

>  <Rbt.Parameter_File>
/export/apps/rDock/src/rDock_2013.1_src/data/scripts/dock_solv.prm

>  <Rbt.Receptor>
prm/pocket_docking_8.prm

>  <SCORE>
-26.1261

>  <SCORE.INTER>
-26.1261

>  <SCORE.INTER.CONST>
1

>  <SCORE.INTER.POLAR>
-1.93632

>  <SCORE.INTER.ROT>
0

>  <SCORE.INTER.SOLV>
11.6492

>  <SCORE.INTER.VDW>
-18.446

>  <SCORE.INTER.norm>
-2.61261

>  <SCORE.INTRA>
0

>  <SCORE.INTRA.DIHEDRAL>
0

>  <SCORE.INTRA.DIHEDRAL.0>
0

>  <SCORE.INTRA.POLAR>
0

>  <SCORE.INTRA.POLAR.0>
0

>  <SCORE.INTRA.REPUL>
0

>  <SCORE.INTRA.REPUL.0>
0

>  <SCORE.INTRA.SOLV>
0

>  <SCORE.INTRA.SOLV.lig_0>
-13.7928

>  <SCORE.INTRA.VDW>
0

>  <SCORE.INTRA.VDW.0>
0

>  <SCORE.INTRA.norm>
0

>  <SCORE.RESTR>
0

>  <SCORE.RESTR.CAVITY>
0

>  <SCORE.RESTR.norm>
0

>  <SCORE.SYSTEM>
0

>  <SCORE.SYSTEM.CONST>
0

>  <SCORE.SYSTEM.DIHEDRAL>
0

>  <SCORE.SYSTEM.SOLV>
0

>  <SCORE.SYSTEM.norm>
0

>  <SCORE.heavy>
10

>  <SCORE.norm>
-2.61261

>  <RMSD>
0.211

$$$$
1u8d_lig
 OpenBabel11021811413D
libRbt.so/2013.1/901 2013/11/27
 10 11  0  0  0  0  0  0  0  0999 V2000
   11.7372   10.4864    9.2622 N   0  0  0  0  0  0  0  0  0  0  0  0
   11.5067   11.8575    9.4665 C   0  0  0  0  0  0  0  0  0  0  0  0
   11.2096   12.7241    8.4648 N   0  0  0  0  0  0  0  0  0  0  0  0
   11.1570   12.1270    7.2543 C   0  0  0  0  0  0  0  0  0  0  0  0
   11.4015   10.6465    6.9679 C   0  0  0  0  0  0  0  0  0  0  0  0
   11.7073    9.7919    8.0383 C   0  0  0  0  0  0  0  0  0  0  0  0
   11.9320    8.5893    8.0400 O   0  0  0  0  0  0  0  0  0  0  0  0
   11.2520   10.4769    5.6187 N   0  0  0  0  0  0  0  0  0  0  0  0
   10.9349   11.7016    5.0836 C   0  0  0  0  0  0  0  0  0  0  0  0
   10.8705   12.7148    6.0363 N   0  0  0  0  0  0  0  0  0  0  0  0
  1  2  1  0  0  0  0
  1  6  1  0  0  0  0
  2  3  2  0  0  0  0
  3  4  1  0  0  0  0
  4  5  2  0  0  0  0
  4 10  1  0  0  0  0
  5  6  1  0  0  0  0
  5  8  1  0  0  0  0
  6  7  2  0  0  0  0
  8  9  1  0  0  0  0
  9 10  2  0  0  0  0
M  END
>  <CHROM.1>
11.37914280,11.07573082,7.43474605,0.35390714,-1.34074943,0.94944296

>  <Name>
1u8d_lig

>  <RI>
0

>  <Rbt.Current_Directory>
/home/itssahil/PROJECTS/Mol_Feturizer/New_Systems/rnas/1u8d

>  <Rbt.Executable>
rbdock ($Id: //depot/dev/client3/rdock/2013.1/src/exe/rbdock.cxx#4 $)

>  <Rbt.Library>
libRbt.so (2013.1, Build901 2013/11/27)

>  <Rbt.Parameter_File>
/export/apps/rDock/src/rDock_2013.1_src/data/scripts/dock_solv.prm

>  <Rbt.Receptor>
prm/blind_docking_100.prm

>  <SCORE>
-26.1192

>  <SCORE.INTER>
-26.1192

>  <SCORE.INTER.CONST>
1

>  <SCORE.INTER.POLAR>
-1.93632

>  <SCORE.INTER.ROT>
0

>  <SCORE.INTER.SOLV>
11.6505

>  <SCORE.INTER.VDW>
-18.4419

>  <SCORE.INTER.norm>
-2.61192

>  <SCORE.INTRA>
0

>  <SCORE.INTRA.DIHEDRAL>
0

>  <SCORE.INTRA.DIHEDRAL.0>
0

>  <SCORE.INTRA.POLAR>
0

>  <SCORE.INTRA.POLAR.0>
0

>  <SCORE.INTRA.REPUL>
0

>  <SCORE.INTRA.REPUL.0>
0

>  <SCORE.INTRA.SOLV>
0

>  <SCORE.INTRA.SOLV.lig_0>
-13.7928

>  <SCORE.INTRA.VDW>
0

>  <SCORE.INTRA.VDW.0>
0

>  <SCORE.INTRA.norm>
0

>  <SCORE.RESTR>
0

>  <SCORE.RESTR.CAVITY>
0

>  <SCORE.RESTR.norm>
0

>  <SCORE.SYSTEM>
0

>  <SCORE.SYSTEM.CONST>
0

>  <SCORE.SYSTEM.DIHEDRAL>
0

>  <SCORE.SYSTEM.SOLV>
0

>  <SCORE.SYSTEM.norm>
0

>  <SCORE.heavy>
10

>  <SCORE.norm>
-2.61192

>  <RMSD>
0.212

$$$$
1u8d_lig
 OpenBabel11021811413D
libRbt.so/2013.1/901 2013/11/27
 10 11  0  0  0  0  0  0  0  0999 V2000
   11.6856   10.4841    9.1544 N   0  0  0  0  0  0  0  0  0  0  0  0
   11.3305   11.8310    9.3411 C   0  0  0  0  0  0  0  0  0  0  0  0
   10.9671   12.6569    8.3270 N   0  0  0  0  0  0  0  0  0  0  0  0
   10.9812   12.0452    7.1229 C   0  0  0  0  0  0  0  0  0  0  0  0
   11.3609   10.5898    6.8552 C   0  0  0  0  0  0  0  0  0  0  0  0
   11.7312    9.7773    7.9380 C   0  0  0  0  0  0  0  0  0  0  0  0
   12.0631    8.5999    7.9552 O   0  0  0  0  0  0  0  0  0  0  0  0
   11.2414   10.3937    5.5067 N   0  0  0  0  0  0  0  0  0  0  0  0
   10.8210   11.5792    4.9550 C   0  0  0  0  0  0  0  0  0  0  0  0
   10.6557   12.5922    5.8957 N   0  0  0  0  0  0  0  0  0  0  0  0
  1  2  1  0  0  0  0
  1  6  1  0  0  0  0
  2  3  2  0  0  0  0
  3  4  1  0  0  0  0
  4  5  2  0  0  0  0
  4 10  1  0  0  0  0
  5  6  1  0  0  0  0
  5  8  1  0  0  0  0
  6  7  2  0  0  0  0
  8  9  1  0  0  0  0
  9 10  2  0  0  0  0
M  END
>  <CHROM.1>
11.29510875,11.02007035,7.31708445,0.55926680,-1.26750580,1.13700756

>  <Name>
1u8d_lig

>  <RI>
0

>  <Rbt.Current_Directory>
/home/itssahil/PROJECTS/Mol_Feturizer/New_Systems/rnas/1u8d

>  <Rbt.Executable>
rbdock ($Id: //depot/dev/client3/rdock/2013.1/src/exe/rbdock.cxx#4 $)

>  <Rbt.Library>
libRbt.so (2013.1, Build901 2013/11/27)

>  <Rbt.Parameter_File>
/export/apps/rDock/src/rDock_2013.1_src/data/scripts/dock_solv.prm

>  <Rbt.Receptor>
prm/blind_docking_20.prm

>  <SCORE>
-25.7118

>  <SCORE.INTER>
-25.7118

>  <SCORE.INTER.CONST>
1

>  <SCORE.INTER.POLAR>
-1.93632

>  <SCORE.INTER.ROT>
0

>  <SCORE.INTER.SOLV>
11.598

>  <SCORE.INTER.VDW>
-18.1528

>  <SCORE.INTER.norm>
-2.57118

>  <SCORE.INTRA>
0

>  <SCORE.INTRA.DIHEDRAL>
0

>  <SCORE.INTRA.DIHEDRAL.0>
0

>  <SCORE.INTRA.POLAR>
0

>  <SCORE.INTRA.POLAR.0>
0

>  <SCORE.INTRA.REPUL>
0

>  <SCORE.INTRA.REPUL.0>
0

>  <SCORE.INTRA.SOLV>
0

>  <SCORE.INTRA.SOLV.lig_0>
-13.7928

>  <SCORE.INTRA.VDW>
0

>  <SCORE.INTRA.VDW.0>
0

>  <SCORE.INTRA.norm>
0

>  <SCORE.RESTR>
0

>  <SCORE.RESTR.CAVITY>
0

>  <SCORE.RESTR.norm>
0

>  <SCORE.SYSTEM>
0

>  <SCORE.SYSTEM.CONST>
0

>  <SCORE.SYSTEM.DIHEDRAL>
0

>  <SCORE.SYSTEM.SOLV>
0

>  <SCORE.SYSTEM.norm>
0

>  <SCORE.heavy>
10

>  <SCORE.norm>
-2.57118

>  <RMSD>
0.212

$$$$
1u8d_lig
 OpenBabel11021811413D
libRbt.so/2013.1/901 2013/11/27
 10 11  0  0  0  0  0  0  0  0999 V2000
   11.6864   10.4757    9.1593 N   0  0  0  0  0  0  0  0  0  0  0  0
   11.3414   11.8253    9.3446 C   0  0  0  0  0  0  0  0  0  0  0  0
   10.9910   12.6548    8.3288 N   0  0  0  0  0  0  0  0  0  0  0  0
   11.0071   12.0435    7.1245 C   0  0  0  0  0  0  0  0  0  0  0  0
   11.3763   10.5852    6.8584 C   0  0  0  0  0  0  0  0  0  0  0  0
   11.7333    9.7691    7.9429 C   0  0  0  0  0  0  0  0  0  0  0  0
   12.0552    8.5890    7.9614 O   0  0  0  0  0  0  0  0  0  0  0  0
   11.2632   10.3907    5.5090 N   0  0  0  0  0  0  0  0  0  0  0  0
   10.8560   11.5800    4.9554 C   0  0  0  0  0  0  0  0  0  0  0  0
   10.6936   12.5939    5.8957 N   0  0  0  0  0  0  0  0  0  0  0  0
  1  2  1  0  0  0  0
  1  6  1  0  0  0  0
  2  3  2  0  0  0  0
  3  4  1  0  0  0  0
  4  5  2  0  0  0  0
  4 10  1  0  0  0  0
  5  6  1  0  0  0  0
  5  8  1  0  0  0  0
  6  7  2  0  0  0  0
  8  9  1  0  0  0  0
  9 10  2  0  0  0  0
M  END
>  <CHROM.1>
11.31132797,11.01576088,7.32002396,0.56586365,-1.27757691,1.14382624

>  <Name>
1u8d_lig

>  <RI>
0

>  <Rbt.Current_Directory>
/home/itssahil/PROJECTS/Mol_Feturizer/New_Systems/rnas/1u8d

>  <Rbt.Executable>
rbdock ($Id: //depot/dev/client3/rdock/2013.1/src/exe/rbdock.cxx#4 $)

>  <Rbt.Library>
libRbt.so (2013.1, Build901 2013/11/27)

>  <Rbt.Parameter_File>
/export/apps/rDock/src/rDock_2013.1_src/data/scripts/dock_solv.prm

>  <Rbt.Receptor>
prm/blind_docking_20.prm

>  <SCORE>
-25.7846

>  <SCORE.INTER>
-25.7846

>  <SCORE.INTER.CONST>
1

>  <SCORE.INTER.POLAR>
-1.93632

>  <SCORE.INTER.ROT>
0

>  <SCORE.INTER.SOLV>
11.6139

>  <SCORE.INTER.VDW>
-18.2066

>  <SCORE.INTER.norm>
-2.57846

>  <SCORE.INTRA>
0

>  <SCORE.INTRA.DIHEDRAL>
0

>  <SCORE.INTRA.DIHEDRAL.0>
0

>  <SCORE.INTRA.POLAR>
0

>  <SCORE.INTRA.POLAR.0>
0

>  <SCORE.INTRA.REPUL>
0

>  <SCORE.INTRA.REPUL.0>
0

>  <SCORE.INTRA.SOLV>
0

>  <SCORE.INTRA.SOLV.lig_0>
-13.7928

>  <SCORE.INTRA.VDW>
0

>  <SCORE.INTRA.VDW.0>
0

>  <SCORE.INTRA.norm>
0

>  <SCORE.RESTR>
0

>  <SCORE.RESTR.CAVITY>
0

>  <SCORE.RESTR.norm>
0

>  <SCORE.SYSTEM>
0

>  <SCORE.SYSTEM.CONST>
0

>  <SCORE.SYSTEM.DIHEDRAL>
0

>  <SCORE.SYSTEM.SOLV>
0

>  <SCORE.SYSTEM.norm>
0

>  <SCORE.heavy>
10

>  <SCORE.norm>
-2.57846

>  <RMSD>
0.212

$$$$
1u8d_lig
 OpenBabel11021811413D
libRbt.so/2013.1/901 2013/11/27
 10 11  0  0  0  0  0  0  0  0999 V2000
   11.7025   10.4797    9.2606 N   0  0  0  0  0  0  0  0  0  0  0  0
   11.4596   11.8491    9.4626 C   0  0  0  0  0  0  0  0  0  0  0  0
   11.1706   12.7145    8.4575 N   0  0  0  0  0  0  0  0  0  0  0  0
   11.1394   12.1181    7.2460 C   0  0  0  0  0  0  0  0  0  0  0  0
   11.3982   10.6396    6.9618 C   0  0  0  0  0  0  0  0  0  0  0  0
   11.6948    9.7862    8.0358 C   0  0  0  0  0  0  0  0  0  0  0  0
   11.9277    8.5852    8.0397 O   0  0  0  0  0  0  0  0  0  0  0  0
   11.2690   10.4702    5.6105 N   0  0  0  0  0  0  0  0  0  0  0  0
   10.9510   11.6931    5.0720 C   0  0  0  0  0  0  0  0  0  0  0  0
   10.8661   12.7050    6.0245 N   0  0  0  0  0  0  0  0  0  0  0  0
  1  2  1  0  0  0  0
  1  6  1  0  0  0  0
  2  3  2  0  0  0  0
  3  4  1  0  0  0  0
  4  5  2  0  0  0  0
  4 10  1  0  0  0  0
  5  6  1  0  0  0  0
  5  8  1  0  0  0  0
  6  7  2  0  0  0  0
  8  9  1  0  0  0  0
  9 10  2  0  0  0  0
M  END
>  <CHROM.1>
11.36624288,11.06823536,7.42866308,0.42285384,-1.34280845,1.01745903

>  <Name>
1u8d_lig

>  <RI>
0

>  <Rbt.Current_Directory>
/home/itssahil/PROJECTS/Mol_Feturizer/New_Systems/rnas/1u8d

>  <Rbt.Executable>
rbdock ($Id: //depot/dev/client3/rdock/2013.1/src/exe/rbdock.cxx#4 $)

>  <Rbt.Library>
libRbt.so (2013.1, Build901 2013/11/27)

>  <Rbt.Parameter_File>
/export/apps/rDock/src/rDock_2013.1_src/data/scripts/dock_solv.prm

>  <Rbt.Receptor>
prm/blind_docking_80.prm

>  <SCORE>
-26.0926

>  <SCORE.INTER>
-26.0926

>  <SCORE.INTER.CONST>
1

>  <SCORE.INTER.POLAR>
-1.93632

>  <SCORE.INTER.ROT>
0

>  <SCORE.INTER.SOLV>
11.6864

>  <SCORE.INTER.VDW>
-18.4362

>  <SCORE.INTER.norm>
-2.60926

>  <SCORE.INTRA>
0

>  <SCORE.INTRA.DIHEDRAL>
0

>  <SCORE.INTRA.DIHEDRAL.0>
0

>  <SCORE.INTRA.POLAR>
0

>  <SCORE.INTRA.POLAR.0>
0

>  <SCORE.INTRA.REPUL>
0

>  <SCORE.INTRA.REPUL.0>
0

>  <SCORE.INTRA.SOLV>
0

>  <SCORE.INTRA.SOLV.lig_0>
-13.7928

>  <SCORE.INTRA.VDW>
0

>  <SCORE.INTRA.VDW.0>
0

>  <SCORE.INTRA.norm>
0

>  <SCORE.RESTR>
0

>  <SCORE.RESTR.CAVITY>
0

>  <SCORE.RESTR.norm>
0

>  <SCORE.SYSTEM>
0

>  <SCORE.SYSTEM.CONST>
0

>  <SCORE.SYSTEM.DIHEDRAL>
0

>  <SCORE.SYSTEM.SOLV>
0

>  <SCORE.SYSTEM.norm>
0

>  <SCORE.heavy>
10

>  <SCORE.norm>
-2.60926

>  <RMSD>
0.212

$$$$
1u8d_lig
 OpenBabel11021811413D
libRbt.so/2013.1/901 2013/11/27
 10 11  0  0  0  0  0  0  0  0999 V2000
   11.8259   10.5471    9.1729 N   0  0  0  0  0  0  0  0  0  0  0  0
   11.5945   11.9170    9.3850 C   0  0  0  0  0  0  0  0  0  0  0  0
   11.2673   12.7834    8.3926 N   0  0  0  0  0  0  0  0  0  0  0  0
   11.1858   12.1876    7.1831 C   0  0  0  0  0  0  0  0  0  0  0  0
   11.4295   10.7085    6.8883 C   0  0  0  0  0  0  0  0  0  0  0  0
   11.7672    9.8541    7.9492 C   0  0  0  0  0  0  0  0  0  0  0  0
   11.9972    8.6525    7.9434 O   0  0  0  0  0  0  0  0  0  0  0  0
   11.2455   10.5400    5.5433 N   0  0  0  0  0  0  0  0  0  0  0  0
   10.9089   11.7638    5.0183 C   0  0  0  0  0  0  0  0  0  0  0  0
   10.8649   12.7755    5.9738 N   0  0  0  0  0  0  0  0  0  0  0  0
  1  2  1  0  0  0  0
  1  6  1  0  0  0  0
  2  3  2  0  0  0  0
  3  4  1  0  0  0  0
  4  5  2  0  0  0  0
  4 10  1  0  0  0  0
  5  6  1  0  0  0  0
  5  8  1  0  0  0  0
  6  7  2  0  0  0  0
  8  9  1  0  0  0  0
  9 10  2  0  0  0  0
M  END
>  <CHROM.1>
11.41740166,11.13709681,7.35621996,0.27850941,-1.32111402,0.87749964

>  <Name>
1u8d_lig

>  <RI>
0

>  <Rbt.Current_Directory>
/home/itssahil/PROJECTS/Mol_Feturizer/New_Systems/rnas/1u8d

>  <Rbt.Executable>
rbdock ($Id: //depot/dev/client3/rdock/2013.1/src/exe/rbdock.cxx#4 $)

>  <Rbt.Library>
libRbt.so (2013.1, Build901 2013/11/27)

>  <Rbt.Parameter_File>
/export/apps/rDock/src/rDock_2013.1_src/data/scripts/dock_solv.prm

>  <Rbt.Receptor>
prm/pocket_docking_3.prm

>  <SCORE>
-26.0727

>  <SCORE.INTER>
-26.0727

>  <SCORE.INTER.CONST>
1

>  <SCORE.INTER.POLAR>
-1.93632

>  <SCORE.INTER.ROT>
0

>  <SCORE.INTER.SOLV>
11.5437

>  <SCORE.INTER.VDW>
-18.3753

>  <SCORE.INTER.norm>
-2.60727

>  <SCORE.INTRA>
0

>  <SCORE.INTRA.DIHEDRAL>
0

>  <SCORE.INTRA.DIHEDRAL.0>
0

>  <SCORE.INTRA.POLAR>
0

>  <SCORE.INTRA.POLAR.0>
0

>  <SCORE.INTRA.REPUL>
0

>  <SCORE.INTRA.REPUL.0>
0

>  <SCORE.INTRA.SOLV>
0

>  <SCORE.INTRA.SOLV.lig_0>
-13.7928

>  <SCORE.INTRA.VDW>
0

>  <SCORE.INTRA.VDW.0>
0

>  <SCORE.INTRA.norm>
0

>  <SCORE.RESTR>
0

>  <SCORE.RESTR.CAVITY>
0

>  <SCORE.RESTR.norm>
0

>  <SCORE.SYSTEM>
0

>  <SCORE.SYSTEM.CONST>
0

>  <SCORE.SYSTEM.DIHEDRAL>
0

>  <SCORE.SYSTEM.SOLV>
0

>  <SCORE.SYSTEM.norm>
0

>  <SCORE.heavy>
10

>  <SCORE.norm>
-2.60727

>  <RMSD>
0.212

$$$$
1u8d_lig
 OpenBabel11021811413D
libRbt.so/2013.1/901 2013/11/27
 10 11  0  0  0  0  0  0  0  0999 V2000
   11.8880   10.5618    9.0999 N   0  0  0  0  0  0  0  0  0  0  0  0
   11.6067   11.9278    9.2726 C   0  0  0  0  0  0  0  0  0  0  0  0
   11.2225   12.7469    8.2605 N   0  0  0  0  0  0  0  0  0  0  0  0
   11.1377   12.1081    7.0735 C   0  0  0  0  0  0  0  0  0  0  0  0
   11.4339   10.6307    6.8214 C   0  0  0  0  0  0  0  0  0  0  0  0
   11.8295    9.8263    7.9012 C   0  0  0  0  0  0  0  0  0  0  0  0
   12.1074    8.6352    7.9291 O   0  0  0  0  0  0  0  0  0  0  0  0
   11.2264   10.4100    5.4874 N   0  0  0  0  0  0  0  0  0  0  0  0
   10.8292   11.6013    4.9309 C   0  0  0  0  0  0  0  0  0  0  0  0
   10.7661   12.6420    5.8537 N   0  0  0  0  0  0  0  0  0  0  0  0
  1  2  1  0  0  0  0
  1  6  1  0  0  0  0
  2  3  2  0  0  0  0
  3  4  1  0  0  0  0
  4  5  2  0  0  0  0
  4 10  1  0  0  0  0
  5  6  1  0  0  0  0
  5  8  1  0  0  0  0
  6  7  2  0  0  0  0
  8  9  1  0  0  0  0
  9 10  2  0  0  0  0
M  END
>  <CHROM.1>
11.41514932,11.07392224,7.27516938,0.30692758,-1.27564597,0.87177089

>  <Name>
1u8d_lig

>  <RI>
0

>  <Rbt.Current_Directory>
/home/itssahil/PROJECTS/Mol_Feturizer/New_Systems/rnas/1u8d

>  <Rbt.Executable>
rbdock ($Id: //depot/dev/client3/rdock/2013.1/src/exe/rbdock.cxx#4 $)

>  <Rbt.Library>
libRbt.so (2013.1, Build901 2013/11/27)

>  <Rbt.Parameter_File>
/export/apps/rDock/src/rDock_2013.1_src/data/scripts/dock_solv.prm

>  <Rbt.Receptor>
prm/pocket_docking_4.prm

>  <SCORE>
-26.1407

>  <SCORE.INTER>
-26.1407

>  <SCORE.INTER.CONST>
1

>  <SCORE.INTER.POLAR>
-1.93632

>  <SCORE.INTER.ROT>
0

>  <SCORE.INTER.SOLV>
11.4341

>  <SCORE.INTER.VDW>
-18.3841

>  <SCORE.INTER.norm>
-2.61407

>  <SCORE.INTRA>
0

>  <SCORE.INTRA.DIHEDRAL>
0

>  <SCORE.INTRA.DIHEDRAL.0>
0

>  <SCORE.INTRA.POLAR>
0

>  <SCORE.INTRA.POLAR.0>
0

>  <SCORE.INTRA.REPUL>
0

>  <SCORE.INTRA.REPUL.0>
0

>  <SCORE.INTRA.SOLV>
0

>  <SCORE.INTRA.SOLV.lig_0>
-13.7928

>  <SCORE.INTRA.VDW>
0

>  <SCORE.INTRA.VDW.0>
0

>  <SCORE.INTRA.norm>
0

>  <SCORE.RESTR>
0

>  <SCORE.RESTR.CAVITY>
0

>  <SCORE.RESTR.norm>
0

>  <SCORE.SYSTEM>
0

>  <SCORE.SYSTEM.CONST>
0

>  <SCORE.SYSTEM.DIHEDRAL>
0

>  <SCORE.SYSTEM.SOLV>
0

>  <SCORE.SYSTEM.norm>
0

>  <SCORE.heavy>
10

>  <SCORE.norm>
-2.61407

>  <RMSD>
0.212

$$$$
1u8d_lig
 OpenBabel11021811413D
libRbt.so/2013.1/901 2013/11/27
 10 11  0  0  0  0  0  0  0  0999 V2000
   11.7237   10.4944    9.2756 N   0  0  0  0  0  0  0  0  0  0  0  0
   11.4942   11.8665    9.4753 C   0  0  0  0  0  0  0  0  0  0  0  0
   11.2030   12.7309    8.4700 N   0  0  0  0  0  0  0  0  0  0  0  0
   11.1553   12.1309    7.2608 C   0  0  0  0  0  0  0  0  0  0  0  0
   11.3990   10.6493    6.9793 C   0  0  0  0  0  0  0  0  0  0  0  0
   11.6986    9.7970    8.0533 C   0  0  0  0  0  0  0  0  0  0  0  0
   11.9215    8.5941    8.0590 O   0  0  0  0  0  0  0  0  0  0  0  0
   11.2556   10.4765    5.6299 N   0  0  0  0  0  0  0  0  0  0  0  0
   10.9428   11.7002    5.0902 C   0  0  0  0  0  0  0  0  0  0  0  0
   10.8754   12.7160    6.0400 N   0  0  0  0  0  0  0  0  0  0  0  0
  1  2  1  0  0  0  0
  1  6  1  0  0  0  0
  2  3  2  0  0  0  0
  3  4  1  0  0  0  0
  4  5  2  0  0  0  0
  4 10  1  0  0  0  0
  5  6  1  0  0  0  0
  5  8  1  0  0  0  0
  6  7  2  0  0  0  0
  8  9  1  0  0  0  0
  9 10  2  0  0  0  0
M  END
>  <CHROM.1>
11.37506654,11.07971939,7.44494682,0.36718915,-1.34463699,0.95986205

>  <Name>
1u8d_lig

>  <RI>
0

>  <Rbt.Current_Directory>
/home/itssahil/PROJECTS/Mol_Feturizer/New_Systems/rnas/1u8d

>  <Rbt.Executable>
rbdock ($Id: //depot/dev/client3/rdock/2013.1/src/exe/rbdock.cxx#4 $)

>  <Rbt.Library>
libRbt.so (2013.1, Build901 2013/11/27)

>  <Rbt.Parameter_File>
/export/apps/rDock/src/rDock_2013.1_src/data/scripts/dock_solv.prm

>  <Rbt.Receptor>
prm/pocket_docking_5.prm

>  <SCORE>
-26.1122

>  <SCORE.INTER>
-26.1122

>  <SCORE.INTER.CONST>
1

>  <SCORE.INTER.POLAR>
-1.93632

>  <SCORE.INTER.ROT>
0

>  <SCORE.INTER.SOLV>
11.6699

>  <SCORE.INTER.VDW>
-18.4437

>  <SCORE.INTER.norm>
-2.61122

>  <SCORE.INTRA>
0

>  <SCORE.INTRA.DIHEDRAL>
0

>  <SCORE.INTRA.DIHEDRAL.0>
0

>  <SCORE.INTRA.POLAR>
0

>  <SCORE.INTRA.POLAR.0>
0

>  <SCORE.INTRA.REPUL>
0

>  <SCORE.INTRA.REPUL.0>
0

>  <SCORE.INTRA.SOLV>
0

>  <SCORE.INTRA.SOLV.lig_0>
-13.7928

>  <SCORE.INTRA.VDW>
0

>  <SCORE.INTRA.VDW.0>
0

>  <SCORE.INTRA.norm>
0

>  <SCORE.RESTR>
0

>  <SCORE.RESTR.CAVITY>
0

>  <SCORE.RESTR.norm>
0

>  <SCORE.SYSTEM>
0

>  <SCORE.SYSTEM.CONST>
0

>  <SCORE.SYSTEM.DIHEDRAL>
0

>  <SCORE.SYSTEM.SOLV>
0

>  <SCORE.SYSTEM.norm>
0

>  <SCORE.heavy>
10

>  <SCORE.norm>
-2.61122

>  <RMSD>
0.212

$$$$
1u8d_lig
 OpenBabel11021811413D
libRbt.so/2013.1/901 2013/11/27
 10 11  0  0  0  0  0  0  0  0999 V2000
   11.7222   10.4740    9.2712 N   0  0  0  0  0  0  0  0  0  0  0  0
   11.4714   11.8397    9.4882 C   0  0  0  0  0  0  0  0  0  0  0  0
   11.1771   12.7143    8.4926 N   0  0  0  0  0  0  0  0  0  0  0  0
   11.1489   12.1310    7.2747 C   0  0  0  0  0  0  0  0  0  0  0  0
   11.4162   10.6571    6.9744 C   0  0  0  0  0  0  0  0  0  0  0  0
   11.7181    9.7939    8.0389 C   0  0  0  0  0  0  0  0  0  0  0  0
   11.9579    8.5942    8.0296 O   0  0  0  0  0  0  0  0  0  0  0  0
   11.2875   10.5018    5.6214 N   0  0  0  0  0  0  0  0  0  0  0  0
   10.9623   11.7286    5.0962 C   0  0  0  0  0  0  0  0  0  0  0  0
   10.8719   12.7295    6.0597 N   0  0  0  0  0  0  0  0  0  0  0  0
  1  2  1  0  0  0  0
  1  6  1  0  0  0  0
  2  3  2  0  0  0  0
  3  4  1  0  0  0  0
  4  5  2  0  0  0  0
  4 10  1  0  0  0  0
  5  6  1  0  0  0  0
  5  8  1  0  0  0  0
  6  7  2  0  0  0  0
  8  9  1  0  0  0  0
  9 10  2  0  0  0  0
M  END
>  <CHROM.1>
11.38191777,11.08048890,7.44586683,0.43478502,-1.33771666,1.03995781

>  <Name>
1u8d_lig

>  <RI>
0

>  <Rbt.Current_Directory>
/home/itssahil/PROJECTS/Mol_Feturizer/New_Systems/rnas/1u8d

>  <Rbt.Executable>
rbdock ($Id: //depot/dev/client3/rdock/2013.1/src/exe/rbdock.cxx#4 $)

>  <Rbt.Library>
libRbt.so (2013.1, Build901 2013/11/27)

>  <Rbt.Parameter_File>
/export/apps/rDock/src/rDock_2013.1_src/data/scripts/dock_solv.prm

>  <Rbt.Receptor>
prm/pocket_docking_5.prm

>  <SCORE>
-26.1322

>  <SCORE.INTER>
-26.1322

>  <SCORE.INTER.CONST>
1

>  <SCORE.INTER.POLAR>
-1.93632

>  <SCORE.INTER.ROT>
0

>  <SCORE.INTER.SOLV>
11.6435

>  <SCORE.INTER.VDW>
-18.4482

>  <SCORE.INTER.norm>
-2.61322

>  <SCORE.INTRA>
0

>  <SCORE.INTRA.DIHEDRAL>
0

>  <SCORE.INTRA.DIHEDRAL.0>
0

>  <SCORE.INTRA.POLAR>
0

>  <SCORE.INTRA.POLAR.0>
0

>  <SCORE.INTRA.REPUL>
0

>  <SCORE.INTRA.REPUL.0>
0

>  <SCORE.INTRA.SOLV>
0

>  <SCORE.INTRA.SOLV.lig_0>
-13.7928

>  <SCORE.INTRA.VDW>
0

>  <SCORE.INTRA.VDW.0>
0

>  <SCORE.INTRA.norm>
0

>  <SCORE.RESTR>
0

>  <SCORE.RESTR.CAVITY>
0

>  <SCORE.RESTR.norm>
0

>  <SCORE.SYSTEM>
0

>  <SCORE.SYSTEM.CONST>
0

>  <SCORE.SYSTEM.DIHEDRAL>
0

>  <SCORE.SYSTEM.SOLV>
0

>  <SCORE.SYSTEM.norm>
0

>  <SCORE.heavy>
10

>  <SCORE.norm>
-2.61322

>  <RMSD>
0.212

$$$$
1u8d_lig
 OpenBabel11021811413D
libRbt.so/2013.1/901 2013/11/27
 10 11  0  0  0  0  0  0  0  0999 V2000
   11.7215   10.4759    9.2708 N   0  0  0  0  0  0  0  0  0  0  0  0
   11.4722   11.8418    9.4880 C   0  0  0  0  0  0  0  0  0  0  0  0
   11.1771   12.7165    8.4927 N   0  0  0  0  0  0  0  0  0  0  0  0
   11.1465   12.1330    7.2749 C   0  0  0  0  0  0  0  0  0  0  0  0
   11.4121   10.6589    6.9744 C   0  0  0  0  0  0  0  0  0  0  0  0
   11.7149    9.7955    8.0387 C   0  0  0  0  0  0  0  0  0  0  0  0
   11.9538    8.5957    8.0293 O   0  0  0  0  0  0  0  0  0  0  0  0
   11.2812   10.5033    5.6217 N   0  0  0  0  0  0  0  0  0  0  0  0
   10.9562   11.7303    5.0968 C   0  0  0  0  0  0  0  0  0  0  0  0
   10.8681   12.7316    6.0603 N   0  0  0  0  0  0  0  0  0  0  0  0
  1  2  1  0  0  0  0
  1  6  1  0  0  0  0
  2  3  2  0  0  0  0
  3  4  1  0  0  0  0
  4  5  2  0  0  0  0
  4 10  1  0  0  0  0
  5  6  1  0  0  0  0
  5  8  1  0  0  0  0
  6  7  2  0  0  0  0
  8  9  1  0  0  0  0
  9 10  2  0  0  0  0
M  END
>  <CHROM.1>
11.37889266,11.08232586,7.44593176,0.42724522,-1.33764222,1.03244750

>  <Name>
1u8d_lig

>  <RI>
0

>  <Rbt.Current_Directory>
/home/itssahil/PROJECTS/Mol_Feturizer/New_Systems/rnas/1u8d

>  <Rbt.Executable>
rbdock ($Id: //depot/dev/client3/rdock/2013.1/src/exe/rbdock.cxx#4 $)

>  <Rbt.Library>
libRbt.so (2013.1, Build901 2013/11/27)

>  <Rbt.Parameter_File>
/export/apps/rDock/src/rDock_2013.1_src/data/scripts/dock_solv.prm

>  <Rbt.Receptor>
prm/pocket_docking_6.prm

>  <SCORE>
-26.1348

>  <SCORE.INTER>
-26.1348

>  <SCORE.INTER.CONST>
1

>  <SCORE.INTER.POLAR>
-1.93632

>  <SCORE.INTER.ROT>
0

>  <SCORE.INTER.SOLV>
11.6446

>  <SCORE.INTER.VDW>
-18.4503

>  <SCORE.INTER.norm>
-2.61348

>  <SCORE.INTRA>
0

>  <SCORE.INTRA.DIHEDRAL>
0

>  <SCORE.INTRA.DIHEDRAL.0>
0

>  <SCORE.INTRA.POLAR>
0

>  <SCORE.INTRA.POLAR.0>
0

>  <SCORE.INTRA.REPUL>
0

>  <SCORE.INTRA.REPUL.0>
0

>  <SCORE.INTRA.SOLV>
0

>  <SCORE.INTRA.SOLV.lig_0>
-13.7928

>  <SCORE.INTRA.VDW>
0

>  <SCORE.INTRA.VDW.0>
0

>  <SCORE.INTRA.norm>
0

>  <SCORE.RESTR>
0

>  <SCORE.RESTR.CAVITY>
0

>  <SCORE.RESTR.norm>
0

>  <SCORE.SYSTEM>
0

>  <SCORE.SYSTEM.CONST>
0

>  <SCORE.SYSTEM.DIHEDRAL>
0

>  <SCORE.SYSTEM.SOLV>
0

>  <SCORE.SYSTEM.norm>
0

>  <SCORE.heavy>
10

>  <SCORE.norm>
-2.61348

>  <RMSD>
0.212

$$$$
1u8d_lig
 OpenBabel11021811413D
libRbt.so/2013.1/901 2013/11/27
 10 11  0  0  0  0  0  0  0  0999 V2000
   11.7450   10.4883    9.2628 N   0  0  0  0  0  0  0  0  0  0  0  0
   11.5177   11.8599    9.4681 C   0  0  0  0  0  0  0  0  0  0  0  0
   11.2196   12.7274    8.4674 N   0  0  0  0  0  0  0  0  0  0  0  0
   11.1626   12.1308    7.2570 C   0  0  0  0  0  0  0  0  0  0  0  0
   11.4034   10.6499    6.9693 C   0  0  0  0  0  0  0  0  0  0  0  0
   11.7105    9.7944    8.0387 C   0  0  0  0  0  0  0  0  0  0  0  0
   11.9327    8.5913    8.0394 O   0  0  0  0  0  0  0  0  0  0  0  0
   11.2499   10.4811    5.6206 N   0  0  0  0  0  0  0  0  0  0  0  0
   10.9338   11.7065    5.0867 C   0  0  0  0  0  0  0  0  0  0  0  0
   10.8739   12.7196    6.0399 N   0  0  0  0  0  0  0  0  0  0  0  0
  1  2  1  0  0  0  0
  1  6  1  0  0  0  0
  2  3  2  0  0  0  0
  3  4  1  0  0  0  0
  4  5  2  0  0  0  0
  4 10  1  0  0  0  0
  5  6  1  0  0  0  0
  5  8  1  0  0  0  0
  6  7  2  0  0  0  0
  8  9  1  0  0  0  0
  9 10  2  0  0  0  0
M  END
>  <CHROM.1>
11.38313479,11.07902227,7.43642505,0.33930710,-1.34074268,0.93555881

>  <Name>
1u8d_lig

>  <RI>
0

>  <Rbt.Current_Directory>
/home/itssahil/PROJECTS/Mol_Feturizer/New_Systems/rnas/1u8d

>  <Rbt.Executable>
rbdock ($Id: //depot/dev/client3/rdock/2013.1/src/exe/rbdock.cxx#4 $)

>  <Rbt.Library>
libRbt.so (2013.1, Build901 2013/11/27)

>  <Rbt.Parameter_File>
/export/apps/rDock/src/rDock_2013.1_src/data/scripts/dock_solv.prm

>  <Rbt.Receptor>
prm/pocket_docking_7.prm

>  <SCORE>
-26.1226

>  <SCORE.INTER>
-26.1226

>  <SCORE.INTER.CONST>
1

>  <SCORE.INTER.POLAR>
-1.93632

>  <SCORE.INTER.ROT>
0

>  <SCORE.INTER.SOLV>
11.6434

>  <SCORE.INTER.VDW>
-18.4418

>  <SCORE.INTER.norm>
-2.61226

>  <SCORE.INTRA>
0

>  <SCORE.INTRA.DIHEDRAL>
0

>  <SCORE.INTRA.DIHEDRAL.0>
0

>  <SCORE.INTRA.POLAR>
0

>  <SCORE.INTRA.POLAR.0>
0

>  <SCORE.INTRA.REPUL>
0

>  <SCORE.INTRA.REPUL.0>
0

>  <SCORE.INTRA.SOLV>
0

>  <SCORE.INTRA.SOLV.lig_0>
-13.7928

>  <SCORE.INTRA.VDW>
0

>  <SCORE.INTRA.VDW.0>
0

>  <SCORE.INTRA.norm>
0

>  <SCORE.RESTR>
0

>  <SCORE.RESTR.CAVITY>
0

>  <SCORE.RESTR.norm>
0

>  <SCORE.SYSTEM>
0

>  <SCORE.SYSTEM.CONST>
0

>  <SCORE.SYSTEM.DIHEDRAL>
0

>  <SCORE.SYSTEM.SOLV>
0

>  <SCORE.SYSTEM.norm>
0

>  <SCORE.heavy>
10

>  <SCORE.norm>
-2.61226

>  <RMSD>
0.212

$$$$
1u8d_lig
 OpenBabel11021811413D
libRbt.so/2013.1/901 2013/11/27
 10 11  0  0  0  0  0  0  0  0999 V2000
   11.6819   10.4586    9.1844 N   0  0  0  0  0  0  0  0  0  0  0  0
   11.3415   11.8101    9.3648 C   0  0  0  0  0  0  0  0  0  0  0  0
   11.0039   12.6398    8.3447 N   0  0  0  0  0  0  0  0  0  0  0  0
   11.0281   12.0267    7.1414 C   0  0  0  0  0  0  0  0  0  0  0  0
   11.3930   10.5663    6.8806 C   0  0  0  0  0  0  0  0  0  0  0  0
   11.7365    9.7502    7.9694 C   0  0  0  0  0  0  0  0  0  0  0  0
   12.0529    8.5686    7.9925 O   0  0  0  0  0  0  0  0  0  0  0  0
   11.2911   10.3704    5.5306 N   0  0  0  0  0  0  0  0  0  0  0  0
   10.8943   11.5608    4.9717 C   0  0  0  0  0  0  0  0  0  0  0  0
   10.7281   12.5767    5.9091 N   0  0  0  0  0  0  0  0  0  0  0  0
  1  2  1  0  0  0  0
  1  6  1  0  0  0  0
  2  3  2  0  0  0  0
  3  4  1  0  0  0  0
  4  5  2  0  0  0  0
  4 10  1  0  0  0  0
  5  6  1  0  0  0  0
  5  8  1  0  0  0  0
  6  7  2  0  0  0  0
  8  9  1  0  0  0  0
  9 10  2  0  0  0  0
M  END
>  <CHROM.1>
11.32583642,10.99783106,7.34108261,0.58819488,-1.28537016,1.16383199

>  <Name>
1u8d_lig

>  <RI>
0

>  <Rbt.Current_Directory>
/home/itssahil/PROJECTS/Mol_Feturizer/New_Systems/rnas/1u8d

>  <Rbt.Executable>
rbdock ($Id: //depot/dev/client3/rdock/2013.1/src/exe/rbdock.cxx#4 $)

>  <Rbt.Library>
libRbt.so (2013.1, Build901 2013/11/27)

>  <Rbt.Parameter_File>
/export/apps/rDock/src/rDock_2013.1_src/data/scripts/dock_solv.prm

>  <Rbt.Receptor>
prm/blind_docking_20.prm

>  <SCORE>
-25.7844

>  <SCORE.INTER>
-25.7844

>  <SCORE.INTER.CONST>
1

>  <SCORE.INTER.POLAR>
-1.93632

>  <SCORE.INTER.ROT>
0

>  <SCORE.INTER.SOLV>
11.6294

>  <SCORE.INTER.VDW>
-18.2116

>  <SCORE.INTER.norm>
-2.57844

>  <SCORE.INTRA>
0

>  <SCORE.INTRA.DIHEDRAL>
0

>  <SCORE.INTRA.DIHEDRAL.0>
0

>  <SCORE.INTRA.POLAR>
0

>  <SCORE.INTRA.POLAR.0>
0

>  <SCORE.INTRA.REPUL>
0

>  <SCORE.INTRA.REPUL.0>
0

>  <SCORE.INTRA.SOLV>
0

>  <SCORE.INTRA.SOLV.lig_0>
-13.7928

>  <SCORE.INTRA.VDW>
0

>  <SCORE.INTRA.VDW.0>
0

>  <SCORE.INTRA.norm>
0

>  <SCORE.RESTR>
0

>  <SCORE.RESTR.CAVITY>
0

>  <SCORE.RESTR.norm>
0

>  <SCORE.SYSTEM>
0

>  <SCORE.SYSTEM.CONST>
0

>  <SCORE.SYSTEM.DIHEDRAL>
0

>  <SCORE.SYSTEM.SOLV>
0

>  <SCORE.SYSTEM.norm>
0

>  <SCORE.heavy>
10

>  <SCORE.norm>
-2.57844

>  <RMSD>
0.213

$$$$
1u8d_lig
 OpenBabel11021811413D
libRbt.so/2013.1/901 2013/11/27
 10 11  0  0  0  0  0  0  0  0999 V2000
   11.6813   10.4766    9.1556 N   0  0  0  0  0  0  0  0  0  0  0  0
   11.3354   11.8261    9.3402 C   0  0  0  0  0  0  0  0  0  0  0  0
   10.9937   12.6574    8.3228 N   0  0  0  0  0  0  0  0  0  0  0  0
   11.0196   12.0480    7.1176 C   0  0  0  0  0  0  0  0  0  0  0  0
   11.3903   10.5899    6.8523 C   0  0  0  0  0  0  0  0  0  0  0  0
   11.7380    9.7720    7.9384 C   0  0  0  0  0  0  0  0  0  0  0  0
   12.0593    8.5917    7.9578 O   0  0  0  0  0  0  0  0  0  0  0  0
   11.2883   10.3976    5.5018 N   0  0  0  0  0  0  0  0  0  0  0  0
   10.8863   11.5880    4.9467 C   0  0  0  0  0  0  0  0  0  0  0  0
   10.7165   12.6005    5.8872 N   0  0  0  0  0  0  0  0  0  0  0  0
  1  2  1  0  0  0  0
  1  6  1  0  0  0  0
  2  3  2  0  0  0  0
  3  4  1  0  0  0  0
  4  5  2  0  0  0  0
  4 10  1  0  0  0  0
  5  6  1  0  0  0  0
  5  8  1  0  0  0  0
  6  7  2  0  0  0  0
  8  9  1  0  0  0  0
  9 10  2  0  0  0  0
M  END
>  <CHROM.1>
11.32173357,11.01978799,7.31407598,0.59173431,-1.28131417,1.17019447

>  <Name>
1u8d_lig

>  <RI>
0

>  <Rbt.Current_Directory>
/home/itssahil/PROJECTS/Mol_Feturizer/New_Systems/rnas/1u8d

>  <Rbt.Executable>
rbdock ($Id: //depot/dev/client3/rdock/2013.1/src/exe/rbdock.cxx#4 $)

>  <Rbt.Library>
libRbt.so (2013.1, Build901 2013/11/27)

>  <Rbt.Parameter_File>
/export/apps/rDock/src/rDock_2013.1_src/data/scripts/dock_solv.prm

>  <Rbt.Receptor>
prm/blind_docking_20.prm

>  <SCORE>
-25.7828

>  <SCORE.INTER>
-25.7831

>  <SCORE.INTER.CONST>
1

>  <SCORE.INTER.POLAR>
-1.93632

>  <SCORE.INTER.ROT>
0

>  <SCORE.INTER.SOLV>
11.6247

>  <SCORE.INTER.VDW>
-18.2092

>  <SCORE.INTER.norm>
-2.57831

>  <SCORE.INTRA>
0

>  <SCORE.INTRA.DIHEDRAL>
0

>  <SCORE.INTRA.DIHEDRAL.0>
0

>  <SCORE.INTRA.POLAR>
0

>  <SCORE.INTRA.POLAR.0>
0

>  <SCORE.INTRA.REPUL>
0

>  <SCORE.INTRA.REPUL.0>
0

>  <SCORE.INTRA.SOLV>
0

>  <SCORE.INTRA.SOLV.lig_0>
-13.7928

>  <SCORE.INTRA.VDW>
0

>  <SCORE.INTRA.VDW.0>
0

>  <SCORE.INTRA.norm>
0

>  <SCORE.RESTR>
0.000333263

>  <SCORE.RESTR.CAVITY>
0.000333263

>  <SCORE.RESTR.norm>
3.33263e-05

>  <SCORE.SYSTEM>
0

>  <SCORE.SYSTEM.CONST>
0

>  <SCORE.SYSTEM.DIHEDRAL>
0

>  <SCORE.SYSTEM.SOLV>
0

>  <SCORE.SYSTEM.norm>
0

>  <SCORE.heavy>
10

>  <SCORE.norm>
-2.57828

>  <RMSD>
0.213

$$$$
1u8d_lig
 OpenBabel11021811413D
libRbt.so/2013.1/901 2013/11/27
 10 11  0  0  0  0  0  0  0  0999 V2000
   11.7246   10.4785    9.2803 N   0  0  0  0  0  0  0  0  0  0  0  0
   11.4846   11.8474    9.4883 C   0  0  0  0  0  0  0  0  0  0  0  0
   11.1902   12.7164    8.4879 N   0  0  0  0  0  0  0  0  0  0  0  0
   11.1504   12.1241    7.2747 C   0  0  0  0  0  0  0  0  0  0  0  0
   11.4057   10.6462    6.9840 C   0  0  0  0  0  0  0  0  0  0  0  0
   11.7082    9.7890    8.0533 C   0  0  0  0  0  0  0  0  0  0  0  0
   11.9398    8.5877    8.0518 O   0  0  0  0  0  0  0  0  0  0  0  0
   11.2677   10.4814    5.6331 N   0  0  0  0  0  0  0  0  0  0  0  0
   10.9477   11.7063    5.1005 C   0  0  0  0  0  0  0  0  0  0  0  0
   10.8700   12.7152    6.0569 N   0  0  0  0  0  0  0  0  0  0  0  0
  1  2  1  0  0  0  0
  1  6  1  0  0  0  0
  2  3  2  0  0  0  0
  3  4  1  0  0  0  0
  4  5  2  0  0  0  0
  4 10  1  0  0  0  0
  5  6  1  0  0  0  0
  5  8  1  0  0  0  0
  6  7  2  0  0  0  0
  8  9  1  0  0  0  0
  9 10  2  0  0  0  0
M  END
>  <CHROM.1>
11.37728068,11.07334459,7.45249466,0.39630007,-1.34034042,0.99484151

>  <Name>
1u8d_lig

>  <RI>
0

>  <Rbt.Current_Directory>
/home/itssahil/PROJECTS/Mol_Feturizer/New_Systems/rnas/1u8d

>  <Rbt.Executable>
rbdock ($Id: //depot/dev/client3/rdock/2013.1/src/exe/rbdock.cxx#4 $)

>  <Rbt.Library>
libRbt.so (2013.1, Build901 2013/11/27)

>  <Rbt.Parameter_File>
/export/apps/rDock/src/rDock_2013.1_src/data/scripts/dock_solv.prm

>  <Rbt.Receptor>
prm/blind_docking_80.prm

>  <SCORE>
-26.1548

>  <SCORE.INTER>
-26.1548

>  <SCORE.INTER.CONST>
1

>  <SCORE.INTER.POLAR>
-1.93632

>  <SCORE.INTER.ROT>
0

>  <SCORE.INTER.SOLV>
11.653

>  <SCORE.INTER.VDW>
-18.4665

>  <SCORE.INTER.norm>
-2.61548

>  <SCORE.INTRA>
0

>  <SCORE.INTRA.DIHEDRAL>
0

>  <SCORE.INTRA.DIHEDRAL.0>
0

>  <SCORE.INTRA.POLAR>
0

>  <SCORE.INTRA.POLAR.0>
0

>  <SCORE.INTRA.REPUL>
0

>  <SCORE.INTRA.REPUL.0>
0

>  <SCORE.INTRA.SOLV>
0

>  <SCORE.INTRA.SOLV.lig_0>
-13.7928

>  <SCORE.INTRA.VDW>
0

>  <SCORE.INTRA.VDW.0>
0

>  <SCORE.INTRA.norm>
0

>  <SCORE.RESTR>
0

>  <SCORE.RESTR.CAVITY>
0

>  <SCORE.RESTR.norm>
0

>  <SCORE.SYSTEM>
0

>  <SCORE.SYSTEM.CONST>
0

>  <SCORE.SYSTEM.DIHEDRAL>
0

>  <SCORE.SYSTEM.SOLV>
0

>  <SCORE.SYSTEM.norm>
0

>  <SCORE.heavy>
10

>  <SCORE.norm>
-2.61548

>  <RMSD>
0.213

$$$$
1u8d_lig
 OpenBabel11021811413D
libRbt.so/2013.1/901 2013/11/27
 10 11  0  0  0  0  0  0  0  0999 V2000
   11.7199   10.4697    9.2703 N   0  0  0  0  0  0  0  0  0  0  0  0
   11.4682   11.8355    9.4857 C   0  0  0  0  0  0  0  0  0  0  0  0
   11.1767   12.7094    8.4887 N   0  0  0  0  0  0  0  0  0  0  0  0
   11.1523   12.1253    7.2710 C   0  0  0  0  0  0  0  0  0  0  0  0
   11.4208   10.6513    6.9725 C   0  0  0  0  0  0  0  0  0  0  0  0
   11.7196    9.7888    8.0385 C   0  0  0  0  0  0  0  0  0  0  0  0
   11.9598    8.5892    8.0307 O   0  0  0  0  0  0  0  0  0  0  0  0
   11.2962   10.4950    5.6192 N   0  0  0  0  0  0  0  0  0  0  0  0
   10.9724   11.7214    5.0923 C   0  0  0  0  0  0  0  0  0  0  0  0
   10.8788   12.7230    6.0549 N   0  0  0  0  0  0  0  0  0  0  0  0
  1  2  1  0  0  0  0
  1  6  1  0  0  0  0
  2  3  2  0  0  0  0
  3  4  1  0  0  0  0
  4  5  2  0  0  0  0
  4 10  1  0  0  0  0
  5  6  1  0  0  0  0
  5  8  1  0  0  0  0
  6  7  2  0  0  0  0
  8  9  1  0  0  0  0
  9 10  2  0  0  0  0
M  END
>  <CHROM.1>
11.38501049,11.07498082,7.44360022,0.44658786,-1.33904878,1.05078901

>  <Name>
1u8d_lig

>  <RI>
0

>  <Rbt.Current_Directory>
/home/itssahil/PROJECTS/Mol_Feturizer/New_Systems/rnas/1u8d

>  <Rbt.Executable>
rbdock ($Id: //depot/dev/client3/rdock/2013.1/src/exe/rbdock.cxx#4 $)

>  <Rbt.Library>
libRbt.so (2013.1, Build901 2013/11/27)

>  <Rbt.Parameter_File>
/export/apps/rDock/src/rDock_2013.1_src/data/scripts/dock_solv.prm

>  <Rbt.Receptor>
prm/blind_docking_80.prm

>  <SCORE>
-26.1252

>  <SCORE.INTER>
-26.1252

>  <SCORE.INTER.CONST>
1

>  <SCORE.INTER.POLAR>
-1.93632

>  <SCORE.INTER.ROT>
0

>  <SCORE.INTER.SOLV>
11.6485

>  <SCORE.INTER.VDW>
-18.4452

>  <SCORE.INTER.norm>
-2.61252

>  <SCORE.INTRA>
0

>  <SCORE.INTRA.DIHEDRAL>
0

>  <SCORE.INTRA.DIHEDRAL.0>
0

>  <SCORE.INTRA.POLAR>
0

>  <SCORE.INTRA.POLAR.0>
0

>  <SCORE.INTRA.REPUL>
0

>  <SCORE.INTRA.REPUL.0>
0

>  <SCORE.INTRA.SOLV>
0

>  <SCORE.INTRA.SOLV.lig_0>
-13.7928

>  <SCORE.INTRA.VDW>
0

>  <SCORE.INTRA.VDW.0>
0

>  <SCORE.INTRA.norm>
0

>  <SCORE.RESTR>
0

>  <SCORE.RESTR.CAVITY>
0

>  <SCORE.RESTR.norm>
0

>  <SCORE.SYSTEM>
0

>  <SCORE.SYSTEM.CONST>
0

>  <SCORE.SYSTEM.DIHEDRAL>
0

>  <SCORE.SYSTEM.SOLV>
0

>  <SCORE.SYSTEM.norm>
0

>  <SCORE.heavy>
10

>  <SCORE.norm>
-2.61252

>  <RMSD>
0.213

$$$$
1u8d_lig
 OpenBabel11021811413D
libRbt.so/2013.1/901 2013/11/27
 10 11  0  0  0  0  0  0  0  0999 V2000
   11.8865   10.5634    9.0946 N   0  0  0  0  0  0  0  0  0  0  0  0
   11.6020   11.9286    9.2689 C   0  0  0  0  0  0  0  0  0  0  0  0
   11.2153   12.7478    8.2579 N   0  0  0  0  0  0  0  0  0  0  0  0
   11.1313   12.1099    7.0702 C   0  0  0  0  0  0  0  0  0  0  0  0
   11.4308   10.6336    6.8165 C   0  0  0  0  0  0  0  0  0  0  0  0
   11.8290    9.8290    7.8952 C   0  0  0  0  0  0  0  0  0  0  0  0
   12.1098    8.6386    7.9217 O   0  0  0  0  0  0  0  0  0  0  0  0
   11.2230   10.4137    5.4824 N   0  0  0  0  0  0  0  0  0  0  0  0
   10.8226   11.6046    4.9274 C   0  0  0  0  0  0  0  0  0  0  0  0
   10.7577   12.6443    5.8512 N   0  0  0  0  0  0  0  0  0  0  0  0
  1  2  1  0  0  0  0
  1  6  1  0  0  0  0
  2  3  2  0  0  0  0
  3  4  1  0  0  0  0
  4  5  2  0  0  0  0
  4 10  1  0  0  0  0
  5  6  1  0  0  0  0
  5  8  1  0  0  0  0
  6  7  2  0  0  0  0
  8  9  1  0  0  0  0
  9 10  2  0  0  0  0
M  END
>  <CHROM.1>
11.41129811,11.07628003,7.27073098,0.31052170,-1.27342370,0.87621325

>  <Name>
1u8d_lig

>  <RI>
0

>  <Rbt.Current_Directory>
/home/itssahil/PROJECTS/Mol_Feturizer/New_Systems/rnas/1u8d

>  <Rbt.Executable>
rbdock ($Id: //depot/dev/client3/rdock/2013.1/src/exe/rbdock.cxx#4 $)

>  <Rbt.Library>
libRbt.so (2013.1, Build901 2013/11/27)

>  <Rbt.Parameter_File>
/export/apps/rDock/src/rDock_2013.1_src/data/scripts/dock_solv.prm

>  <Rbt.Receptor>
prm/blind_docking_80.prm

>  <SCORE>
-26.1451

>  <SCORE.INTER>
-26.1451

>  <SCORE.INTER.CONST>
1

>  <SCORE.INTER.POLAR>
-1.93632

>  <SCORE.INTER.ROT>
0

>  <SCORE.INTER.SOLV>
11.43

>  <SCORE.INTER.VDW>
-18.3857

>  <SCORE.INTER.norm>
-2.61451

>  <SCORE.INTRA>
0

>  <SCORE.INTRA.DIHEDRAL>
0

>  <SCORE.INTRA.DIHEDRAL.0>
0

>  <SCORE.INTRA.POLAR>
0

>  <SCORE.INTRA.POLAR.0>
0

>  <SCORE.INTRA.REPUL>
0

>  <SCORE.INTRA.REPUL.0>
0

>  <SCORE.INTRA.SOLV>
0

>  <SCORE.INTRA.SOLV.lig_0>
-13.7928

>  <SCORE.INTRA.VDW>
0

>  <SCORE.INTRA.VDW.0>
0

>  <SCORE.INTRA.norm>
0

>  <SCORE.RESTR>
0

>  <SCORE.RESTR.CAVITY>
0

>  <SCORE.RESTR.norm>
0

>  <SCORE.SYSTEM>
0

>  <SCORE.SYSTEM.CONST>
0

>  <SCORE.SYSTEM.DIHEDRAL>
0

>  <SCORE.SYSTEM.SOLV>
0

>  <SCORE.SYSTEM.norm>
0

>  <SCORE.heavy>
10

>  <SCORE.norm>
-2.61451

>  <RMSD>
0.213

$$$$
1u8d_lig
 OpenBabel11021811413D
libRbt.so/2013.1/901 2013/11/27
 10 11  0  0  0  0  0  0  0  0999 V2000
   11.8403   10.5467    9.1724 N   0  0  0  0  0  0  0  0  0  0  0  0
   11.6046   11.9157    9.3849 C   0  0  0  0  0  0  0  0  0  0  0  0
   11.2774   12.7820    8.3923 N   0  0  0  0  0  0  0  0  0  0  0  0
   11.2007   12.1868    7.1822 C   0  0  0  0  0  0  0  0  0  0  0  0
   11.4492   10.7087    6.8869 C   0  0  0  0  0  0  0  0  0  0  0  0
   11.7865    9.8544    7.9481 C   0  0  0  0  0  0  0  0  0  0  0  0
   12.0200    8.6535    7.9419 O   0  0  0  0  0  0  0  0  0  0  0  0
   11.2690   10.5406    5.5413 N   0  0  0  0  0  0  0  0  0  0  0  0
   10.9304   11.7639    5.0164 C   0  0  0  0  0  0  0  0  0  0  0  0
   10.8811   12.7748    5.9725 N   0  0  0  0  0  0  0  0  0  0  0  0
  1  2  1  0  0  0  0
  1  6  1  0  0  0  0
  2  3  2  0  0  0  0
  3  4  1  0  0  0  0
  4  5  2  0  0  0  0
  4 10  1  0  0  0  0
  5  6  1  0  0  0  0
  5  8  1  0  0  0  0
  6  7  2  0  0  0  0
  8  9  1  0  0  0  0
  9 10  2  0  0  0  0
M  END
>  <CHROM.1>
11.43472854,11.13687408,7.35510082,0.29349364,-1.32056500,0.89275393

>  <Name>
1u8d_lig

>  <RI>
0

>  <Rbt.Current_Directory>
/home/itssahil/PROJECTS/Mol_Feturizer/New_Systems/rnas/1u8d

>  <Rbt.Executable>
rbdock ($Id: //depot/dev/client3/rdock/2013.1/src/exe/rbdock.cxx#4 $)

>  <Rbt.Library>
libRbt.so (2013.1, Build901 2013/11/27)

>  <Rbt.Parameter_File>
/export/apps/rDock/src/rDock_2013.1_src/data/scripts/dock_solv.prm

>  <Rbt.Receptor>
prm/pocket_docking_4.prm

>  <SCORE>
-26.1251

>  <SCORE.INTER>
-26.1251

>  <SCORE.INTER.CONST>
1

>  <SCORE.INTER.POLAR>
-1.93632

>  <SCORE.INTER.ROT>
0

>  <SCORE.INTER.SOLV>
11.5293

>  <SCORE.INTER.VDW>
-18.4054

>  <SCORE.INTER.norm>
-2.61251

>  <SCORE.INTRA>
0

>  <SCORE.INTRA.DIHEDRAL>
0

>  <SCORE.INTRA.DIHEDRAL.0>
0

>  <SCORE.INTRA.POLAR>
0

>  <SCORE.INTRA.POLAR.0>
0

>  <SCORE.INTRA.REPUL>
0

>  <SCORE.INTRA.REPUL.0>
0

>  <SCORE.INTRA.SOLV>
0

>  <SCORE.INTRA.SOLV.lig_0>
-13.7928

>  <SCORE.INTRA.VDW>
0

>  <SCORE.INTRA.VDW.0>
0

>  <SCORE.INTRA.norm>
0

>  <SCORE.RESTR>
0

>  <SCORE.RESTR.CAVITY>
0

>  <SCORE.RESTR.norm>
0

>  <SCORE.SYSTEM>
0

>  <SCORE.SYSTEM.CONST>
0

>  <SCORE.SYSTEM.DIHEDRAL>
0

>  <SCORE.SYSTEM.SOLV>
0

>  <SCORE.SYSTEM.norm>
0

>  <SCORE.heavy>
10

>  <SCORE.norm>
-2.61251

>  <RMSD>
0.213

$$$$
1u8d_lig
 OpenBabel11021811413D
libRbt.so/2013.1/901 2013/11/27
 10 11  0  0  0  0  0  0  0  0999 V2000
   11.7274   10.4887    9.2860 N   0  0  0  0  0  0  0  0  0  0  0  0
   11.4817   11.8539    9.5118 C   0  0  0  0  0  0  0  0  0  0  0  0
   11.1719   12.7322    8.5243 N   0  0  0  0  0  0  0  0  0  0  0  0
   11.1228   12.1532    7.3050 C   0  0  0  0  0  0  0  0  0  0  0  0
   11.3835   10.6801    6.9952 C   0  0  0  0  0  0  0  0  0  0  0  0
   11.7021    9.8129    8.0516 C   0  0  0  0  0  0  0  0  0  0  0  0
   11.9405    8.6130    8.0343 O   0  0  0  0  0  0  0  0  0  0  0  0
   11.2321   10.5295    5.6440 N   0  0  0  0  0  0  0  0  0  0  0  0
   10.8995   11.7585    5.1286 C   0  0  0  0  0  0  0  0  0  0  0  0
   10.8262   12.7562    6.0969 N   0  0  0  0  0  0  0  0  0  0  0  0
  1  2  1  0  0  0  0
  1  6  1  0  0  0  0
  2  3  2  0  0  0  0
  3  4  1  0  0  0  0
  4  5  2  0  0  0  0
  4 10  1  0  0  0  0
  5  6  1  0  0  0  0
  5  8  1  0  0  0  0
  6  7  2  0  0  0  0
  8  9  1  0  0  0  0
  9 10  2  0  0  0  0
M  END
>  <CHROM.1>
11.35747309,11.10186518,7.46868497,0.37242236,-1.32975495,0.98277346

>  <Name>
1u8d_lig

>  <RI>
0

>  <Rbt.Current_Directory>
/home/itssahil/PROJECTS/Mol_Feturizer/New_Systems/rnas/1u8d

>  <Rbt.Executable>
rbdock ($Id: //depot/dev/client3/rdock/2013.1/src/exe/rbdock.cxx#4 $)

>  <Rbt.Library>
libRbt.so (2013.1, Build901 2013/11/27)

>  <Rbt.Parameter_File>
/export/apps/rDock/src/rDock_2013.1_src/data/scripts/dock_solv.prm

>  <Rbt.Receptor>
prm/pocket_docking_6.prm

>  <SCORE>
-26.1101

>  <SCORE.INTER>
-26.1101

>  <SCORE.INTER.CONST>
1

>  <SCORE.INTER.POLAR>
-1.93632

>  <SCORE.INTER.ROT>
0

>  <SCORE.INTER.SOLV>
11.6179

>  <SCORE.INTER.VDW>
-18.4249

>  <SCORE.INTER.norm>
-2.61101

>  <SCORE.INTRA>
0

>  <SCORE.INTRA.DIHEDRAL>
0

>  <SCORE.INTRA.DIHEDRAL.0>
0

>  <SCORE.INTRA.POLAR>
0

>  <SCORE.INTRA.POLAR.0>
0

>  <SCORE.INTRA.REPUL>
0

>  <SCORE.INTRA.REPUL.0>
0

>  <SCORE.INTRA.SOLV>
0

>  <SCORE.INTRA.SOLV.lig_0>
-13.7928

>  <SCORE.INTRA.VDW>
0

>  <SCORE.INTRA.VDW.0>
0

>  <SCORE.INTRA.norm>
0

>  <SCORE.RESTR>
0

>  <SCORE.RESTR.CAVITY>
0

>  <SCORE.RESTR.norm>
0

>  <SCORE.SYSTEM>
0

>  <SCORE.SYSTEM.CONST>
0

>  <SCORE.SYSTEM.DIHEDRAL>
0

>  <SCORE.SYSTEM.SOLV>
0

>  <SCORE.SYSTEM.norm>
0

>  <SCORE.heavy>
10

>  <SCORE.norm>
-2.61101

>  <RMSD>
0.213

$$$$
1u8d_lig
 OpenBabel11021811413D
libRbt.so/2013.1/901 2013/11/27
 10 11  0  0  0  0  0  0  0  0999 V2000
   11.7188   10.4891    9.2707 N   0  0  0  0  0  0  0  0  0  0  0  0
   11.4846   11.8598    9.4744 C   0  0  0  0  0  0  0  0  0  0  0  0
   11.1979   12.7276    8.4706 N   0  0  0  0  0  0  0  0  0  0  0  0
   11.1597   12.1322    7.2588 C   0  0  0  0  0  0  0  0  0  0  0  0
   11.4088   10.6523    6.9729 C   0  0  0  0  0  0  0  0  0  0  0  0
   11.7034    9.7965    8.0455 C   0  0  0  0  0  0  0  0  0  0  0  0
   11.9292    8.5941    8.0480 O   0  0  0  0  0  0  0  0  0  0  0  0
   11.2747   10.4846    5.6219 N   0  0  0  0  0  0  0  0  0  0  0  0
   10.9626   11.7097    5.0851 C   0  0  0  0  0  0  0  0  0  0  0  0
   10.8864   12.7215    6.0385 N   0  0  0  0  0  0  0  0  0  0  0  0
  1  2  1  0  0  0  0
  1  6  1  0  0  0  0
  2  3  2  0  0  0  0
  3  4  1  0  0  0  0
  4  5  2  0  0  0  0
  4 10  1  0  0  0  0
  5  6  1  0  0  0  0
  5  8  1  0  0  0  0
  6  7  2  0  0  0  0
  8  9  1  0  0  0  0
  9 10  2  0  0  0  0
M  END
>  <CHROM.1>
11.38077420,11.08086002,7.44017570,0.39780130,-1.34632938,0.99368831

>  <Name>
1u8d_lig

>  <RI>
0

>  <Rbt.Current_Directory>
/home/itssahil/PROJECTS/Mol_Feturizer/New_Systems/rnas/1u8d

>  <Rbt.Executable>
rbdock ($Id: //depot/dev/client3/rdock/2013.1/src/exe/rbdock.cxx#4 $)

>  <Rbt.Library>
libRbt.so (2013.1, Build901 2013/11/27)

>  <Rbt.Parameter_File>
/export/apps/rDock/src/rDock_2013.1_src/data/scripts/dock_solv.prm

>  <Rbt.Receptor>
prm/blind_docking_80.prm

>  <SCORE>
-26.1351

>  <SCORE.INTER>
-26.1351

>  <SCORE.INTER.CONST>
1

>  <SCORE.INTER.POLAR>
-1.93632

>  <SCORE.INTER.ROT>
0

>  <SCORE.INTER.SOLV>
11.6722

>  <SCORE.INTER.VDW>
-18.4598

>  <SCORE.INTER.norm>
-2.61351

>  <SCORE.INTRA>
0

>  <SCORE.INTRA.DIHEDRAL>
0

>  <SCORE.INTRA.DIHEDRAL.0>
0

>  <SCORE.INTRA.POLAR>
0

>  <SCORE.INTRA.POLAR.0>
0

>  <SCORE.INTRA.REPUL>
0

>  <SCORE.INTRA.REPUL.0>
0

>  <SCORE.INTRA.SOLV>
0

>  <SCORE.INTRA.SOLV.lig_0>
-13.7928

>  <SCORE.INTRA.VDW>
0

>  <SCORE.INTRA.VDW.0>
0

>  <SCORE.INTRA.norm>
0

>  <SCORE.RESTR>
0

>  <SCORE.RESTR.CAVITY>
0

>  <SCORE.RESTR.norm>
0

>  <SCORE.SYSTEM>
0

>  <SCORE.SYSTEM.CONST>
0

>  <SCORE.SYSTEM.DIHEDRAL>
0

>  <SCORE.SYSTEM.SOLV>
0

>  <SCORE.SYSTEM.norm>
0

>  <SCORE.heavy>
10

>  <SCORE.norm>
-2.61351

>  <RMSD>
0.214

$$$$
1u8d_lig
 OpenBabel11021811413D
libRbt.so/2013.1/901 2013/11/27
 10 11  0  0  0  0  0  0  0  0999 V2000
   11.7253   10.4958    9.2774 N   0  0  0  0  0  0  0  0  0  0  0  0
   11.5013   11.8693    9.4729 C   0  0  0  0  0  0  0  0  0  0  0  0
   11.2129   12.7318    8.4651 N   0  0  0  0  0  0  0  0  0  0  0  0
   11.1622   12.1282    7.2578 C   0  0  0  0  0  0  0  0  0  0  0  0
   11.3999   10.6448    6.9807 C   0  0  0  0  0  0  0  0  0  0  0  0
   11.6968    9.7947    8.0572 C   0  0  0  0  0  0  0  0  0  0  0  0
   11.9149    8.5909    8.0666 O   0  0  0  0  0  0  0  0  0  0  0  0
   11.2551   10.4684    5.6319 N   0  0  0  0  0  0  0  0  0  0  0  0
   10.9468   11.6917    5.0886 C   0  0  0  0  0  0  0  0  0  0  0  0
   10.8839   12.7106    6.0354 N   0  0  0  0  0  0  0  0  0  0  0  0
  1  2  1  0  0  0  0
  1  6  1  0  0  0  0
  2  3  2  0  0  0  0
  3  4  1  0  0  0  0
  4  5  2  0  0  0  0
  4 10  1  0  0  0  0
  5  6  1  0  0  0  0
  5  8  1  0  0  0  0
  6  7  2  0  0  0  0
  8  9  1  0  0  0  0
  9 10  2  0  0  0  0
M  END
>  <CHROM.1>
11.37794680,11.07677238,7.44509026,0.35506925,-1.34752085,0.94494818

>  <Name>
1u8d_lig

>  <RI>
0

>  <Rbt.Current_Directory>
/home/itssahil/PROJECTS/Mol_Feturizer/New_Systems/rnas/1u8d

>  <Rbt.Executable>
rbdock ($Id: //depot/dev/client3/rdock/2013.1/src/exe/rbdock.cxx#4 $)

>  <Rbt.Library>
libRbt.so (2013.1, Build901 2013/11/27)

>  <Rbt.Parameter_File>
/export/apps/rDock/src/rDock_2013.1_src/data/scripts/dock_solv.prm

>  <Rbt.Receptor>
prm/pocket_docking_3.prm

>  <SCORE>
-26.1089

>  <SCORE.INTER>
-26.1089

>  <SCORE.INTER.CONST>
1

>  <SCORE.INTER.POLAR>
-1.93632

>  <SCORE.INTER.ROT>
0

>  <SCORE.INTER.SOLV>
11.6758

>  <SCORE.INTER.VDW>
-18.4435

>  <SCORE.INTER.norm>
-2.61089

>  <SCORE.INTRA>
0

>  <SCORE.INTRA.DIHEDRAL>
0

>  <SCORE.INTRA.DIHEDRAL.0>
0

>  <SCORE.INTRA.POLAR>
0

>  <SCORE.INTRA.POLAR.0>
0

>  <SCORE.INTRA.REPUL>
0

>  <SCORE.INTRA.REPUL.0>
0

>  <SCORE.INTRA.SOLV>
0

>  <SCORE.INTRA.SOLV.lig_0>
-13.7928

>  <SCORE.INTRA.VDW>
0

>  <SCORE.INTRA.VDW.0>
0

>  <SCORE.INTRA.norm>
0

>  <SCORE.RESTR>
0

>  <SCORE.RESTR.CAVITY>
0

>  <SCORE.RESTR.norm>
0

>  <SCORE.SYSTEM>
0

>  <SCORE.SYSTEM.CONST>
0

>  <SCORE.SYSTEM.DIHEDRAL>
0

>  <SCORE.SYSTEM.SOLV>
0

>  <SCORE.SYSTEM.norm>
0

>  <SCORE.heavy>
10

>  <SCORE.norm>
-2.61089

>  <RMSD>
0.214

$$$$
1u8d_lig
 OpenBabel11021811413D
libRbt.so/2013.1/901 2013/11/27
 10 11  0  0  0  0  0  0  0  0999 V2000
   11.7244   10.4775    9.2807 N   0  0  0  0  0  0  0  0  0  0  0  0
   11.4852   11.8465    9.4899 C   0  0  0  0  0  0  0  0  0  0  0  0
   11.1923   12.7167    8.4902 N   0  0  0  0  0  0  0  0  0  0  0  0
   11.1531   12.1256    7.2763 C   0  0  0  0  0  0  0  0  0  0  0  0
   11.4075   10.6478    6.9843 C   0  0  0  0  0  0  0  0  0  0  0  0
   11.7085    9.7893    8.0530 C   0  0  0  0  0  0  0  0  0  0  0  0
   11.9392    8.5878    8.0504 O   0  0  0  0  0  0  0  0  0  0  0  0
   11.2704   10.4845    5.6331 N   0  0  0  0  0  0  0  0  0  0  0  0
   10.9518   11.7103    5.1016 C   0  0  0  0  0  0  0  0  0  0  0  0
   10.8741   12.7183    6.0589 N   0  0  0  0  0  0  0  0  0  0  0  0
  1  2  1  0  0  0  0
  1  6  1  0  0  0  0
  2  3  2  0  0  0  0
  3  4  1  0  0  0  0
  4  5  2  0  0  0  0
  4 10  1  0  0  0  0
  5  6  1  0  0  0  0
  5  8  1  0  0  0  0
  6  7  2  0  0  0  0
  8  9  1  0  0  0  0
  9 10  2  0  0  0  0
M  END
>  <CHROM.1>
11.37898869,11.07454779,7.45320907,0.39747490,-1.34141783,0.99701112

>  <Name>
1u8d_lig

>  <RI>
0

>  <Rbt.Current_Directory>
/home/itssahil/PROJECTS/Mol_Feturizer/New_Systems/rnas/1u8d

>  <Rbt.Executable>
rbdock ($Id: //depot/dev/client3/rdock/2013.1/src/exe/rbdock.cxx#4 $)

>  <Rbt.Library>
libRbt.so (2013.1, Build901 2013/11/27)

>  <Rbt.Parameter_File>
/export/apps/rDock/src/rDock_2013.1_src/data/scripts/dock_solv.prm

>  <Rbt.Receptor>
prm/pocket_docking_3.prm

>  <SCORE>
-26.155

>  <SCORE.INTER>
-26.155

>  <SCORE.INTER.CONST>
1

>  <SCORE.INTER.POLAR>
-1.93632

>  <SCORE.INTER.ROT>
0

>  <SCORE.INTER.SOLV>
11.6532

>  <SCORE.INTER.VDW>
-18.4666

>  <SCORE.INTER.norm>
-2.6155

>  <SCORE.INTRA>
0

>  <SCORE.INTRA.DIHEDRAL>
0

>  <SCORE.INTRA.DIHEDRAL.0>
0

>  <SCORE.INTRA.POLAR>
0

>  <SCORE.INTRA.POLAR.0>
0

>  <SCORE.INTRA.REPUL>
0

>  <SCORE.INTRA.REPUL.0>
0

>  <SCORE.INTRA.SOLV>
0

>  <SCORE.INTRA.SOLV.lig_0>
-13.7928

>  <SCORE.INTRA.VDW>
0

>  <SCORE.INTRA.VDW.0>
0

>  <SCORE.INTRA.norm>
0

>  <SCORE.RESTR>
0

>  <SCORE.RESTR.CAVITY>
0

>  <SCORE.RESTR.norm>
0

>  <SCORE.SYSTEM>
0

>  <SCORE.SYSTEM.CONST>
0

>  <SCORE.SYSTEM.DIHEDRAL>
0

>  <SCORE.SYSTEM.SOLV>
0

>  <SCORE.SYSTEM.norm>
0

>  <SCORE.heavy>
10

>  <SCORE.norm>
-2.6155

>  <RMSD>
0.214

$$$$
1u8d_lig
 OpenBabel11021811413D
libRbt.so/2013.1/901 2013/11/27
 10 11  0  0  0  0  0  0  0  0999 V2000
   11.7240   10.4833    9.2813 N   0  0  0  0  0  0  0  0  0  0  0  0
   11.4841   11.8520    9.4911 C   0  0  0  0  0  0  0  0  0  0  0  0
   11.1950   12.7233    8.4911 N   0  0  0  0  0  0  0  0  0  0  0  0
   11.1603   12.1335    7.2765 C   0  0  0  0  0  0  0  0  0  0  0  0
   11.4158   10.6560    6.9839 C   0  0  0  0  0  0  0  0  0  0  0  0
   11.7127    9.7964    8.0528 C   0  0  0  0  0  0  0  0  0  0  0  0
   11.9433    8.5949    8.0499 O   0  0  0  0  0  0  0  0  0  0  0  0
   11.2837   10.4941    5.6320 N   0  0  0  0  0  0  0  0  0  0  0  0
   10.9672   11.7205    5.1005 C   0  0  0  0  0  0  0  0  0  0  0  0
   10.8859   12.7275    6.0586 N   0  0  0  0  0  0  0  0  0  0  0  0
  1  2  1  0  0  0  0
  1  6  1  0  0  0  0
  2  3  2  0  0  0  0
  3  4  1  0  0  0  0
  4  5  2  0  0  0  0
  4 10  1  0  0  0  0
  5  6  1  0  0  0  0
  5  8  1  0  0  0  0
  6  7  2  0  0  0  0
  8  9  1  0  0  0  0
  9 10  2  0  0  0  0
M  END
>  <CHROM.1>
11.38550470,11.08224431,7.45312895,0.41141104,-1.34349141,1.01164005

>  <Name>
1u8d_lig

>  <RI>
0

>  <Rbt.Current_Directory>
/home/itssahil/PROJECTS/Mol_Feturizer/New_Systems/rnas/1u8d

>  <Rbt.Executable>
rbdock ($Id: //depot/dev/client3/rdock/2013.1/src/exe/rbdock.cxx#4 $)

>  <Rbt.Library>
libRbt.so (2013.1, Build901 2013/11/27)

>  <Rbt.Parameter_File>
/export/apps/rDock/src/rDock_2013.1_src/data/scripts/dock_solv.prm

>  <Rbt.Receptor>
prm/pocket_docking_4.prm

>  <SCORE>
-26.1544

>  <SCORE.INTER>
-26.1544

>  <SCORE.INTER.CONST>
1

>  <SCORE.INTER.POLAR>
-1.93632

>  <SCORE.INTER.ROT>
0

>  <SCORE.INTER.SOLV>
11.6552

>  <SCORE.INTER.VDW>
-18.4669

>  <SCORE.INTER.norm>
-2.61544

>  <SCORE.INTRA>
0

>  <SCORE.INTRA.DIHEDRAL>
0

>  <SCORE.INTRA.DIHEDRAL.0>
0

>  <SCORE.INTRA.POLAR>
0

>  <SCORE.INTRA.POLAR.0>
0

>  <SCORE.INTRA.REPUL>
0

>  <SCORE.INTRA.REPUL.0>
0

>  <SCORE.INTRA.SOLV>
0

>  <SCORE.INTRA.SOLV.lig_0>
-13.7928

>  <SCORE.INTRA.VDW>
0

>  <SCORE.INTRA.VDW.0>
0

>  <SCORE.INTRA.norm>
0

>  <SCORE.RESTR>
0

>  <SCORE.RESTR.CAVITY>
0

>  <SCORE.RESTR.norm>
0

>  <SCORE.SYSTEM>
0

>  <SCORE.SYSTEM.CONST>
0

>  <SCORE.SYSTEM.DIHEDRAL>
0

>  <SCORE.SYSTEM.SOLV>
0

>  <SCORE.SYSTEM.norm>
0

>  <SCORE.heavy>
10

>  <SCORE.norm>
-2.61544

>  <RMSD>
0.214

$$$$
1u8d_lig
 OpenBabel11021811413D
libRbt.so/2013.1/901 2013/11/27
 10 11  0  0  0  0  0  0  0  0999 V2000
   11.7327   10.4883    9.2639 N   0  0  0  0  0  0  0  0  0  0  0  0
   11.5022   11.8594    9.4687 C   0  0  0  0  0  0  0  0  0  0  0  0
   11.2113   12.7276    8.4665 N   0  0  0  0  0  0  0  0  0  0  0  0
   11.1651   12.1322    7.2550 C   0  0  0  0  0  0  0  0  0  0  0  0
   11.4100   10.6519    6.9679 C   0  0  0  0  0  0  0  0  0  0  0  0
   11.7091    9.7956    8.0388 C   0  0  0  0  0  0  0  0  0  0  0  0
   11.9328    8.5928    8.0401 O   0  0  0  0  0  0  0  0  0  0  0  0
   11.2679   10.4843    5.6177 N   0  0  0  0  0  0  0  0  0  0  0  0
   10.9548   11.7099    5.0825 C   0  0  0  0  0  0  0  0  0  0  0  0
   10.8859   12.7219    6.0362 N   0  0  0  0  0  0  0  0  0  0  0  0
  1  2  1  0  0  0  0
  1  6  1  0  0  0  0
  2  3  2  0  0  0  0
  3  4  1  0  0  0  0
  4  5  2  0  0  0  0
  4 10  1  0  0  0  0
  5  6  1  0  0  0  0
  5  8  1  0  0  0  0
  6  7  2  0  0  0  0
  8  9  1  0  0  0  0
  9 10  2  0  0  0  0
M  END
>  <CHROM.1>
11.38535301,11.08048266,7.43521287,0.37213679,-1.34463520,0.96858139

>  <Name>
1u8d_lig

>  <RI>
0

>  <Rbt.Current_Directory>
/home/itssahil/PROJECTS/Mol_Feturizer/New_Systems/rnas/1u8d

>  <Rbt.Executable>
rbdock ($Id: //depot/dev/client3/rdock/2013.1/src/exe/rbdock.cxx#4 $)

>  <Rbt.Library>
libRbt.so (2013.1, Build901 2013/11/27)

>  <Rbt.Parameter_File>
/export/apps/rDock/src/rDock_2013.1_src/data/scripts/dock_solv.prm

>  <Rbt.Receptor>
prm/pocket_docking_5.prm

>  <SCORE>
-26.1171

>  <SCORE.INTER>
-26.1171

>  <SCORE.INTER.CONST>
1

>  <SCORE.INTER.POLAR>
-1.93632

>  <SCORE.INTER.ROT>
0

>  <SCORE.INTER.SOLV>
11.6584

>  <SCORE.INTER.VDW>
-18.4431

>  <SCORE.INTER.norm>
-2.61171

>  <SCORE.INTRA>
0

>  <SCORE.INTRA.DIHEDRAL>
0

>  <SCORE.INTRA.DIHEDRAL.0>
0

>  <SCORE.INTRA.POLAR>
0

>  <SCORE.INTRA.POLAR.0>
0

>  <SCORE.INTRA.REPUL>
0

>  <SCORE.INTRA.REPUL.0>
0

>  <SCORE.INTRA.SOLV>
0

>  <SCORE.INTRA.SOLV.lig_0>
-13.7928

>  <SCORE.INTRA.VDW>
0

>  <SCORE.INTRA.VDW.0>
0

>  <SCORE.INTRA.norm>
0

>  <SCORE.RESTR>
0

>  <SCORE.RESTR.CAVITY>
0

>  <SCORE.RESTR.norm>
0

>  <SCORE.SYSTEM>
0

>  <SCORE.SYSTEM.CONST>
0

>  <SCORE.SYSTEM.DIHEDRAL>
0

>  <SCORE.SYSTEM.SOLV>
0

>  <SCORE.SYSTEM.norm>
0

>  <SCORE.heavy>
10

>  <SCORE.norm>
-2.61171

>  <RMSD>
0.214

$$$$
1u8d_lig
 OpenBabel11021811413D
libRbt.so/2013.1/901 2013/11/27
 10 11  0  0  0  0  0  0  0  0999 V2000
   11.7264   10.4751    9.2753 N   0  0  0  0  0  0  0  0  0  0  0  0
   11.4799   11.8416    9.4922 C   0  0  0  0  0  0  0  0  0  0  0  0
   11.1871   12.7167    8.4967 N   0  0  0  0  0  0  0  0  0  0  0  0
   11.1558   12.1332    7.2789 C   0  0  0  0  0  0  0  0  0  0  0  0
   11.4184   10.6585    6.9788 C   0  0  0  0  0  0  0  0  0  0  0  0
   11.7189    9.7946    8.0432 C   0  0  0  0  0  0  0  0  0  0  0  0
   11.9553    8.5943    8.0341 O   0  0  0  0  0  0  0  0  0  0  0  0
   11.2878   10.5031    5.6260 N   0  0  0  0  0  0  0  0  0  0  0  0
   10.9656   11.7307    5.1008 C   0  0  0  0  0  0  0  0  0  0  0  0
   10.8792   12.7322    6.0641 N   0  0  0  0  0  0  0  0  0  0  0  0
  1  2  1  0  0  0  0
  1  6  1  0  0  0  0
  2  3  2  0  0  0  0
  3  4  1  0  0  0  0
  4  5  2  0  0  0  0
  4 10  1  0  0  0  0
  5  6  1  0  0  0  0
  5  8  1  0  0  0  0
  6  7  2  0  0  0  0
  8  9  1  0  0  0  0
  9 10  2  0  0  0  0
M  END
>  <CHROM.1>
11.38592500,11.08205328,7.45019086,0.42410445,-1.33966992,1.02926534

>  <Name>
1u8d_lig

>  <RI>
0

>  <Rbt.Current_Directory>
/home/itssahil/PROJECTS/Mol_Feturizer/New_Systems/rnas/1u8d

>  <Rbt.Executable>
rbdock ($Id: //depot/dev/client3/rdock/2013.1/src/exe/rbdock.cxx#4 $)

>  <Rbt.Library>
libRbt.so (2013.1, Build901 2013/11/27)

>  <Rbt.Parameter_File>
/export/apps/rDock/src/rDock_2013.1_src/data/scripts/dock_solv.prm

>  <Rbt.Receptor>
prm/pocket_docking_7.prm

>  <SCORE>
-26.1316

>  <SCORE.INTER>
-26.1316

>  <SCORE.INTER.CONST>
1

>  <SCORE.INTER.POLAR>
-1.93632

>  <SCORE.INTER.ROT>
0

>  <SCORE.INTER.SOLV>
11.6412

>  <SCORE.INTER.VDW>
-18.4471

>  <SCORE.INTER.norm>
-2.61316

>  <SCORE.INTRA>
0

>  <SCORE.INTRA.DIHEDRAL>
0

>  <SCORE.INTRA.DIHEDRAL.0>
0

>  <SCORE.INTRA.POLAR>
0

>  <SCORE.INTRA.POLAR.0>
0

>  <SCORE.INTRA.REPUL>
0

>  <SCORE.INTRA.REPUL.0>
0

>  <SCORE.INTRA.SOLV>
0

>  <SCORE.INTRA.SOLV.lig_0>
-13.7928

>  <SCORE.INTRA.VDW>
0

>  <SCORE.INTRA.VDW.0>
0

>  <SCORE.INTRA.norm>
0

>  <SCORE.RESTR>
0

>  <SCORE.RESTR.CAVITY>
0

>  <SCORE.RESTR.norm>
0

>  <SCORE.SYSTEM>
0

>  <SCORE.SYSTEM.CONST>
0

>  <SCORE.SYSTEM.DIHEDRAL>
0

>  <SCORE.SYSTEM.SOLV>
0

>  <SCORE.SYSTEM.norm>
0

>  <SCORE.heavy>
10

>  <SCORE.norm>
-2.61316

>  <RMSD>
0.214

$$$$
1u8d_lig
 OpenBabel11021811413D
libRbt.so/2013.1/901 2013/11/27
 10 11  0  0  0  0  0  0  0  0999 V2000
   11.7148   10.4819    9.2679 N   0  0  0  0  0  0  0  0  0  0  0  0
   11.4762   11.8509    9.4771 C   0  0  0  0  0  0  0  0  0  0  0  0
   11.1871   12.7220    8.4769 N   0  0  0  0  0  0  0  0  0  0  0  0
   11.1511   12.1315    7.2626 C   0  0  0  0  0  0  0  0  0  0  0  0
   11.4050   10.6536    6.9707 C   0  0  0  0  0  0  0  0  0  0  0  0
   11.7020    9.7943    8.0398 C   0  0  0  0  0  0  0  0  0  0  0  0
   11.9315    8.5926    8.0374 O   0  0  0  0  0  0  0  0  0  0  0  0
   11.2719   10.4911    5.6190 N   0  0  0  0  0  0  0  0  0  0  0  0
   10.9560   11.7174    5.0871 C   0  0  0  0  0  0  0  0  0  0  0  0
   10.8763   12.7250    6.0447 N   0  0  0  0  0  0  0  0  0  0  0  0
  1  2  1  0  0  0  0
  1  6  1  0  0  0  0
  2  3  2  0  0  0  0
  3  4  1  0  0  0  0
  4  5  2  0  0  0  0
  4 10  1  0  0  0  0
  5  6  1  0  0  0  0
  5  8  1  0  0  0  0
  6  7  2  0  0  0  0
  8  9  1  0  0  0  0
  9 10  2  0  0  0  0
M  END
>  <CHROM.1>
11.37547301,11.08013470,7.43971379,0.40663042,-1.34383662,1.00643423

>  <Name>
1u8d_lig

>  <RI>
0

>  <Rbt.Current_Directory>
/home/itssahil/PROJECTS/Mol_Feturizer/New_Systems/rnas/1u8d

>  <Rbt.Executable>
rbdock ($Id: //depot/dev/client3/rdock/2013.1/src/exe/rbdock.cxx#4 $)

>  <Rbt.Library>
libRbt.so (2013.1, Build901 2013/11/27)

>  <Rbt.Parameter_File>
/export/apps/rDock/src/rDock_2013.1_src/data/scripts/dock_solv.prm

>  <Rbt.Receptor>
prm/pocket_docking_7.prm

>  <SCORE>
-26.1402

>  <SCORE.INTER>
-26.1402

>  <SCORE.INTER.CONST>
1

>  <SCORE.INTER.POLAR>
-1.93632

>  <SCORE.INTER.ROT>
0

>  <SCORE.INTER.SOLV>
11.6685

>  <SCORE.INTER.VDW>
-18.4619

>  <SCORE.INTER.norm>
-2.61402

>  <SCORE.INTRA>
0

>  <SCORE.INTRA.DIHEDRAL>
0

>  <SCORE.INTRA.DIHEDRAL.0>
0

>  <SCORE.INTRA.POLAR>
0

>  <SCORE.INTRA.POLAR.0>
0

>  <SCORE.INTRA.REPUL>
0

>  <SCORE.INTRA.REPUL.0>
0

>  <SCORE.INTRA.SOLV>
0

>  <SCORE.INTRA.SOLV.lig_0>
-13.7928

>  <SCORE.INTRA.VDW>
0

>  <SCORE.INTRA.VDW.0>
0

>  <SCORE.INTRA.norm>
0

>  <SCORE.RESTR>
0

>  <SCORE.RESTR.CAVITY>
0

>  <SCORE.RESTR.norm>
0

>  <SCORE.SYSTEM>
0

>  <SCORE.SYSTEM.CONST>
0

>  <SCORE.SYSTEM.DIHEDRAL>
0

>  <SCORE.SYSTEM.SOLV>
0

>  <SCORE.SYSTEM.norm>
0

>  <SCORE.heavy>
10

>  <SCORE.norm>
-2.61402

>  <RMSD>
0.214

$$$$
1u8d_lig
 OpenBabel11021811413D
libRbt.so/2013.1/901 2013/11/27
 10 11  0  0  0  0  0  0  0  0999 V2000
   11.7347   10.4877    9.2641 N   0  0  0  0  0  0  0  0  0  0  0  0
   11.5046   11.8584    9.4721 C   0  0  0  0  0  0  0  0  0  0  0  0
   11.2118   12.7286    8.4722 N   0  0  0  0  0  0  0  0  0  0  0  0
   11.1631   12.1356    7.2596 C   0  0  0  0  0  0  0  0  0  0  0  0
   11.4073   10.6558    6.9691 C   0  0  0  0  0  0  0  0  0  0  0  0
   11.7086    9.7974    8.0377 C   0  0  0  0  0  0  0  0  0  0  0  0
   11.9321    8.5946    8.0362 O   0  0  0  0  0  0  0  0  0  0  0  0
   11.2625   10.4909    5.6188 N   0  0  0  0  0  0  0  0  0  0  0  0
   10.9485   11.7176    5.0867 C   0  0  0  0  0  0  0  0  0  0  0  0
   10.8815   12.7277    6.0426 N   0  0  0  0  0  0  0  0  0  0  0  0
  1  2  1  0  0  0  0
  1  6  1  0  0  0  0
  2  3  2  0  0  0  0
  3  4  1  0  0  0  0
  4  5  2  0  0  0  0
  4 10  1  0  0  0  0
  5  6  1  0  0  0  0
  5  8  1  0  0  0  0
  6  7  2  0  0  0  0
  8  9  1  0  0  0  0
  9 10  2  0  0  0  0
M  END
>  <CHROM.1>
11.38366854,11.08351079,7.43731715,0.36467596,-1.34354643,0.96329178

>  <Name>
1u8d_lig

>  <RI>
0

>  <Rbt.Current_Directory>
/home/itssahil/PROJECTS/Mol_Feturizer/New_Systems/rnas/1u8d

>  <Rbt.Executable>
rbdock ($Id: //depot/dev/client3/rdock/2013.1/src/exe/rbdock.cxx#4 $)

>  <Rbt.Library>
libRbt.so (2013.1, Build901 2013/11/27)

>  <Rbt.Parameter_File>
/export/apps/rDock/src/rDock_2013.1_src/data/scripts/dock_solv.prm

>  <Rbt.Receptor>
prm/pocket_docking_8.prm

>  <SCORE>
-26.1193

>  <SCORE.INTER>
-26.1193

>  <SCORE.INTER.CONST>
1

>  <SCORE.INTER.POLAR>
-1.93632

>  <SCORE.INTER.ROT>
0

>  <SCORE.INTER.SOLV>
11.6532

>  <SCORE.INTER.VDW>
-18.4429

>  <SCORE.INTER.norm>
-2.61193

>  <SCORE.INTRA>
0

>  <SCORE.INTRA.DIHEDRAL>
0

>  <SCORE.INTRA.DIHEDRAL.0>
0

>  <SCORE.INTRA.POLAR>
0

>  <SCORE.INTRA.POLAR.0>
0

>  <SCORE.INTRA.REPUL>
0

>  <SCORE.INTRA.REPUL.0>
0

>  <SCORE.INTRA.SOLV>
0

>  <SCORE.INTRA.SOLV.lig_0>
-13.7928

>  <SCORE.INTRA.VDW>
0

>  <SCORE.INTRA.VDW.0>
0

>  <SCORE.INTRA.norm>
0

>  <SCORE.RESTR>
0

>  <SCORE.RESTR.CAVITY>
0

>  <SCORE.RESTR.norm>
0

>  <SCORE.SYSTEM>
0

>  <SCORE.SYSTEM.CONST>
0

>  <SCORE.SYSTEM.DIHEDRAL>
0

>  <SCORE.SYSTEM.SOLV>
0

>  <SCORE.SYSTEM.norm>
0

>  <SCORE.heavy>
10

>  <SCORE.norm>
-2.61193

>  <RMSD>
0.214

$$$$
1u8d_lig
 OpenBabel11021811413D
libRbt.so/2013.1/901 2013/11/27
 10 11  0  0  0  0  0  0  0  0999 V2000
   11.7968   10.5781    9.1892 N   0  0  0  0  0  0  0  0  0  0  0  0
   11.5906   11.9557    9.3750 C   0  0  0  0  0  0  0  0  0  0  0  0
   11.2805   12.8091    8.3659 N   0  0  0  0  0  0  0  0  0  0  0  0
   11.1893   12.1921    7.1678 C   0  0  0  0  0  0  0  0  0  0  0  0
   11.4059   10.7035    6.9014 C   0  0  0  0  0  0  0  0  0  0  0  0
   11.7266    9.8632    7.9788 C   0  0  0  0  0  0  0  0  0  0  0  0
   11.9344    8.6577    7.9961 O   0  0  0  0  0  0  0  0  0  0  0  0
   11.2202   10.5129    5.5596 N   0  0  0  0  0  0  0  0  0  0  0  0
   10.9070   11.7325    5.0111 C   0  0  0  0  0  0  0  0  0  0  0  0
   10.8806   12.7629    5.9472 N   0  0  0  0  0  0  0  0  0  0  0  0
  1  2  1  0  0  0  0
  1  6  1  0  0  0  0
  2  3  2  0  0  0  0
  3  4  1  0  0  0  0
  4  5  2  0  0  0  0
  4 10  1  0  0  0  0
  5  6  1  0  0  0  0
  5  8  1  0  0  0  0
  6  7  2  0  0  0  0
  8  9  1  0  0  0  0
  9 10  2  0  0  0  0
M  END
>  <CHROM.1>
11.40125968,11.14096138,7.36111992,0.23119820,-1.33576875,0.81262955

>  <Name>
1u8d_lig

>  <RI>
0

>  <Rbt.Current_Directory>
/home/itssahil/PROJECTS/Mol_Feturizer/New_Systems/rnas/1u8d

>  <Rbt.Executable>
rbdock ($Id: //depot/dev/client3/rdock/2013.1/src/exe/rbdock.cxx#4 $)

>  <Rbt.Library>
libRbt.so (2013.1, Build901 2013/11/27)

>  <Rbt.Parameter_File>
/export/apps/rDock/src/rDock_2013.1_src/data/scripts/dock_solv.prm

>  <Rbt.Receptor>
prm/blind_docking_100.prm

>  <SCORE>
-26.075

>  <SCORE.INTER>
-26.075

>  <SCORE.INTER.CONST>
1

>  <SCORE.INTER.POLAR>
-1.93632

>  <SCORE.INTER.ROT>
0

>  <SCORE.INTER.SOLV>
11.6283

>  <SCORE.INTER.VDW>
-18.405

>  <SCORE.INTER.norm>
-2.6075

>  <SCORE.INTRA>
0

>  <SCORE.INTRA.DIHEDRAL>
0

>  <SCORE.INTRA.DIHEDRAL.0>
0

>  <SCORE.INTRA.POLAR>
0

>  <SCORE.INTRA.POLAR.0>
0

>  <SCORE.INTRA.REPUL>
0

>  <SCORE.INTRA.REPUL.0>
0

>  <SCORE.INTRA.SOLV>
0

>  <SCORE.INTRA.SOLV.lig_0>
-13.7928

>  <SCORE.INTRA.VDW>
0

>  <SCORE.INTRA.VDW.0>
0

>  <SCORE.INTRA.norm>
0

>  <SCORE.RESTR>
0

>  <SCORE.RESTR.CAVITY>
0

>  <SCORE.RESTR.norm>
0

>  <SCORE.SYSTEM>
0

>  <SCORE.SYSTEM.CONST>
0

>  <SCORE.SYSTEM.DIHEDRAL>
0

>  <SCORE.SYSTEM.SOLV>
0

>  <SCORE.SYSTEM.norm>
0

>  <SCORE.heavy>
10

>  <SCORE.norm>
-2.6075

>  <RMSD>
0.215

$$$$
1u8d_lig
 OpenBabel11021811413D
libRbt.so/2013.1/901 2013/11/27
 10 11  0  0  0  0  0  0  0  0999 V2000
   11.6682   10.4905    9.1430 N   0  0  0  0  0  0  0  0  0  0  0  0
   11.3127   11.8368    9.3330 C   0  0  0  0  0  0  0  0  0  0  0  0
   10.9661   12.6699    8.3188 N   0  0  0  0  0  0  0  0  0  0  0  0
   10.9972   12.0658    7.1111 C   0  0  0  0  0  0  0  0  0  0  0  0
   11.3784   10.6115    6.8400 C   0  0  0  0  0  0  0  0  0  0  0  0
   11.7308    9.7914    7.9230 C   0  0  0  0  0  0  0  0  0  0  0  0
   12.0604    8.6133    7.9377 O   0  0  0  0  0  0  0  0  0  0  0  0
   11.2789   10.4241    5.4886 N   0  0  0  0  0  0  0  0  0  0  0  0
   10.8690   11.6139    4.9381 C   0  0  0  0  0  0  0  0  0  0  0  0
   10.6913   12.6213    5.8827 N   0  0  0  0  0  0  0  0  0  0  0  0
  1  2  1  0  0  0  0
  1  6  1  0  0  0  0
  2  3  2  0  0  0  0
  3  4  1  0  0  0  0
  4  5  2  0  0  0  0
  4 10  1  0  0  0  0
  5  6  1  0  0  0  0
  5  8  1  0  0  0  0
  6  7  2  0  0  0  0
  8  9  1  0  0  0  0
  9 10  2  0  0  0  0
M  END
>  <CHROM.1>
11.30639954,11.03888456,7.30351198,0.60375984,-1.27517555,1.18590489

>  <Name>
1u8d_lig

>  <RI>
0

>  <Rbt.Current_Directory>
/home/itssahil/PROJECTS/Mol_Feturizer/New_Systems/rnas/1u8d

>  <Rbt.Executable>
rbdock ($Id: //depot/dev/client3/rdock/2013.1/src/exe/rbdock.cxx#4 $)

>  <Rbt.Library>
libRbt.so (2013.1, Build901 2013/11/27)

>  <Rbt.Parameter_File>
/export/apps/rDock/src/rDock_2013.1_src/data/scripts/dock_solv.prm

>  <Rbt.Receptor>
prm/blind_docking_20.prm

>  <SCORE>
-25.7699

>  <SCORE.INTER>
-25.7708

>  <SCORE.INTER.CONST>
1

>  <SCORE.INTER.POLAR>
-1.93628

>  <SCORE.INTER.ROT>
0

>  <SCORE.INTER.SOLV>
11.6254

>  <SCORE.INTER.VDW>
-18.2014

>  <SCORE.INTER.norm>
-2.57708

>  <SCORE.INTRA>
0

>  <SCORE.INTRA.DIHEDRAL>
0

>  <SCORE.INTRA.DIHEDRAL.0>
0

>  <SCORE.INTRA.POLAR>
0

>  <SCORE.INTRA.POLAR.0>
0

>  <SCORE.INTRA.REPUL>
0

>  <SCORE.INTRA.REPUL.0>
0

>  <SCORE.INTRA.SOLV>
0

>  <SCORE.INTRA.SOLV.lig_0>
-13.7928

>  <SCORE.INTRA.VDW>
0

>  <SCORE.INTRA.VDW.0>
0

>  <SCORE.INTRA.norm>
0

>  <SCORE.RESTR>
0.000981628

>  <SCORE.RESTR.CAVITY>
0.000981628

>  <SCORE.RESTR.norm>
9.81628e-05

>  <SCORE.SYSTEM>
0

>  <SCORE.SYSTEM.CONST>
0

>  <SCORE.SYSTEM.DIHEDRAL>
0

>  <SCORE.SYSTEM.SOLV>
0

>  <SCORE.SYSTEM.norm>
0

>  <SCORE.heavy>
10

>  <SCORE.norm>
-2.57699

>  <RMSD>
0.215

$$$$
1u8d_lig
 OpenBabel11021811413D
libRbt.so/2013.1/901 2013/11/27
 10 11  0  0  0  0  0  0  0  0999 V2000
   11.6778   10.4737    9.1583 N   0  0  0  0  0  0  0  0  0  0  0  0
   11.3058   11.8168    9.3386 C   0  0  0  0  0  0  0  0  0  0  0  0
   10.9696   12.6443    8.3163 N   0  0  0  0  0  0  0  0  0  0  0  0
   11.0288   12.0379    7.1108 C   0  0  0  0  0  0  0  0  0  0  0  0
   11.4290   10.5868    6.8501 C   0  0  0  0  0  0  0  0  0  0  0  0
   11.7696    9.7726    7.9413 C   0  0  0  0  0  0  0  0  0  0  0  0
   12.1103    8.5978    7.9648 O   0  0  0  0  0  0  0  0  0  0  0  0
   11.3561   10.3956    5.4975 N   0  0  0  0  0  0  0  0  0  0  0  0
   10.9448   11.5801    4.9369 C   0  0  0  0  0  0  0  0  0  0  0  0
   10.7400   12.5877    5.8757 N   0  0  0  0  0  0  0  0  0  0  0  0
  1  2  1  0  0  0  0
  1  6  1  0  0  0  0
  2  3  2  0  0  0  0
  3  4  1  0  0  0  0
  4  5  2  0  0  0  0
  4 10  1  0  0  0  0
  5  6  1  0  0  0  0
  5  8  1  0  0  0  0
  6  7  2  0  0  0  0
  8  9  1  0  0  0  0
  9 10  2  0  0  0  0
M  END
>  <CHROM.1>
11.34439960,11.01450531,7.31122968,0.67394370,-1.27229171,1.25076218

>  <Name>
1u8d_lig

>  <RI>
0

>  <Rbt.Current_Directory>
/home/itssahil/PROJECTS/Mol_Feturizer/New_Systems/rnas/1u8d

>  <Rbt.Executable>
rbdock ($Id: //depot/dev/client3/rdock/2013.1/src/exe/rbdock.cxx#4 $)

>  <Rbt.Library>
libRbt.so (2013.1, Build901 2013/11/27)

>  <Rbt.Parameter_File>
/export/apps/rDock/src/rDock_2013.1_src/data/scripts/dock_solv.prm

>  <Rbt.Receptor>
prm/blind_docking_20.prm

>  <SCORE>
-25.7265

>  <SCORE.INTER>
-25.7265

>  <SCORE.INTER.CONST>
1

>  <SCORE.INTER.POLAR>
-1.93632

>  <SCORE.INTER.ROT>
0

>  <SCORE.INTER.SOLV>
11.6162

>  <SCORE.INTER.VDW>
-18.1687

>  <SCORE.INTER.norm>
-2.57265

>  <SCORE.INTRA>
0

>  <SCORE.INTRA.DIHEDRAL>
0

>  <SCORE.INTRA.DIHEDRAL.0>
0

>  <SCORE.INTRA.POLAR>
0

>  <SCORE.INTRA.POLAR.0>
0

>  <SCORE.INTRA.REPUL>
0

>  <SCORE.INTRA.REPUL.0>
0

>  <SCORE.INTRA.SOLV>
0

>  <SCORE.INTRA.SOLV.lig_0>
-13.7928

>  <SCORE.INTRA.VDW>
0

>  <SCORE.INTRA.VDW.0>
0

>  <SCORE.INTRA.norm>
0

>  <SCORE.RESTR>
0

>  <SCORE.RESTR.CAVITY>
0

>  <SCORE.RESTR.norm>
0

>  <SCORE.SYSTEM>
0

>  <SCORE.SYSTEM.CONST>
0

>  <SCORE.SYSTEM.DIHEDRAL>
0

>  <SCORE.SYSTEM.SOLV>
0

>  <SCORE.SYSTEM.norm>
0

>  <SCORE.heavy>
10

>  <SCORE.norm>
-2.57265

>  <RMSD>
0.215

$$$$
1u8d_lig
 OpenBabel11021811413D
libRbt.so/2013.1/901 2013/11/27
 10 11  0  0  0  0  0  0  0  0999 V2000
   11.7219   10.4859    9.2728 N   0  0  0  0  0  0  0  0  0  0  0  0
   11.4847   11.8542    9.4885 C   0  0  0  0  0  0  0  0  0  0  0  0
   11.1922   12.7294    8.4929 N   0  0  0  0  0  0  0  0  0  0  0  0
   11.1514   12.1439    7.2764 C   0  0  0  0  0  0  0  0  0  0  0  0
   11.4037   10.6671    6.9775 C   0  0  0  0  0  0  0  0  0  0  0  0
   11.7043    9.8033    8.0420 C   0  0  0  0  0  0  0  0  0  0  0  0
   11.9333    8.6016    8.0338 O   0  0  0  0  0  0  0  0  0  0  0  0
   11.2654   10.5102    5.6256 N   0  0  0  0  0  0  0  0  0  0  0  0
   10.9480   11.7388    5.0999 C   0  0  0  0  0  0  0  0  0  0  0  0
   10.8723   12.7425    6.0619 N   0  0  0  0  0  0  0  0  0  0  0  0
  1  2  1  0  0  0  0
  1  6  1  0  0  0  0
  2  3  2  0  0  0  0
  3  4  1  0  0  0  0
  4  5  2  0  0  0  0
  4 10  1  0  0  0  0
  5  6  1  0  0  0  0
  5  8  1  0  0  0  0
  6  7  2  0  0  0  0
  8  9  1  0  0  0  0
  9 10  2  0  0  0  0
M  END
>  <CHROM.1>
11.37602863,11.09173064,7.44834177,0.39175882,-1.34214364,0.99602558

>  <Name>
1u8d_lig

>  <RI>
0

>  <Rbt.Current_Directory>
/home/itssahil/PROJECTS/Mol_Feturizer/New_Systems/rnas/1u8d

>  <Rbt.Executable>
rbdock ($Id: //depot/dev/client3/rdock/2013.1/src/exe/rbdock.cxx#4 $)

>  <Rbt.Library>
libRbt.so (2013.1, Build901 2013/11/27)

>  <Rbt.Parameter_File>
/export/apps/rDock/src/rDock_2013.1_src/data/scripts/dock_solv.prm

>  <Rbt.Receptor>
prm/blind_docking_40.prm

>  <SCORE>
-26.1329

>  <SCORE.INTER>
-26.1329

>  <SCORE.INTER.CONST>
1

>  <SCORE.INTER.POLAR>
-1.93632

>  <SCORE.INTER.ROT>
0

>  <SCORE.INTER.SOLV>
11.6536

>  <SCORE.INTER.VDW>
-18.4521

>  <SCORE.INTER.norm>
-2.61329

>  <SCORE.INTRA>
0

>  <SCORE.INTRA.DIHEDRAL>
0

>  <SCORE.INTRA.DIHEDRAL.0>
0

>  <SCORE.INTRA.POLAR>
0

>  <SCORE.INTRA.POLAR.0>
0

>  <SCORE.INTRA.REPUL>
0

>  <SCORE.INTRA.REPUL.0>
0

>  <SCORE.INTRA.SOLV>
0

>  <SCORE.INTRA.SOLV.lig_0>
-13.7928

>  <SCORE.INTRA.VDW>
0

>  <SCORE.INTRA.VDW.0>
0

>  <SCORE.INTRA.norm>
0

>  <SCORE.RESTR>
0

>  <SCORE.RESTR.CAVITY>
0

>  <SCORE.RESTR.norm>
0

>  <SCORE.SYSTEM>
0

>  <SCORE.SYSTEM.CONST>
0

>  <SCORE.SYSTEM.DIHEDRAL>
0

>  <SCORE.SYSTEM.SOLV>
0

>  <SCORE.SYSTEM.norm>
0

>  <SCORE.heavy>
10

>  <SCORE.norm>
-2.61329

>  <RMSD>
0.215

$$$$
1u8d_lig
 OpenBabel11021811413D
libRbt.so/2013.1/901 2013/11/27
 10 11  0  0  0  0  0  0  0  0999 V2000
   11.7199   10.4852    9.2721 N   0  0  0  0  0  0  0  0  0  0  0  0
   11.4814   11.8530    9.4894 C   0  0  0  0  0  0  0  0  0  0  0  0
   11.1873   12.7290    8.4950 N   0  0  0  0  0  0  0  0  0  0  0  0
   11.1462   12.1448    7.2779 C   0  0  0  0  0  0  0  0  0  0  0  0
   11.3998   10.6686    6.9772 C   0  0  0  0  0  0  0  0  0  0  0  0
   11.7020    9.8040    8.0406 C   0  0  0  0  0  0  0  0  0  0  0  0
   11.9323    8.6025    8.0309 O   0  0  0  0  0  0  0  0  0  0  0  0
   11.2607   10.5130    5.6253 N   0  0  0  0  0  0  0  0  0  0  0  0
   10.9417   11.7418    5.1011 C   0  0  0  0  0  0  0  0  0  0  0  0
   10.8657   12.7444    6.0642 N   0  0  0  0  0  0  0  0  0  0  0  0
  1  2  1  0  0  0  0
  1  6  1  0  0  0  0
  2  3  2  0  0  0  0
  3  4  1  0  0  0  0
  4  5  2  0  0  0  0
  4 10  1  0  0  0  0
  5  6  1  0  0  0  0
  5  8  1  0  0  0  0
  6  7  2  0  0  0  0
  8  9  1  0  0  0  0
  9 10  2  0  0  0  0
M  END
>  <CHROM.1>
11.37205452,11.09267910,7.44852391,0.39161094,-1.34089881,0.99696194

>  <Name>
1u8d_lig

>  <RI>
0

>  <Rbt.Current_Directory>
/home/itssahil/PROJECTS/Mol_Feturizer/New_Systems/rnas/1u8d

>  <Rbt.Executable>
rbdock ($Id: //depot/dev/client3/rdock/2013.1/src/exe/rbdock.cxx#4 $)

>  <Rbt.Library>
libRbt.so (2013.1, Build901 2013/11/27)

>  <Rbt.Parameter_File>
/export/apps/rDock/src/rDock_2013.1_src/data/scripts/dock_solv.prm

>  <Rbt.Receptor>
prm/blind_docking_40.prm

>  <SCORE>
-26.1302

>  <SCORE.INTER>
-26.1302

>  <SCORE.INTER.CONST>
1

>  <SCORE.INTER.POLAR>
-1.93632

>  <SCORE.INTER.ROT>
0

>  <SCORE.INTER.SOLV>
11.6526

>  <SCORE.INTER.VDW>
-18.4499

>  <SCORE.INTER.norm>
-2.61302

>  <SCORE.INTRA>
0

>  <SCORE.INTRA.DIHEDRAL>
0

>  <SCORE.INTRA.DIHEDRAL.0>
0

>  <SCORE.INTRA.POLAR>
0

>  <SCORE.INTRA.POLAR.0>
0

>  <SCORE.INTRA.REPUL>
0

>  <SCORE.INTRA.REPUL.0>
0

>  <SCORE.INTRA.SOLV>
0

>  <SCORE.INTRA.SOLV.lig_0>
-13.7928

>  <SCORE.INTRA.VDW>
0

>  <SCORE.INTRA.VDW.0>
0

>  <SCORE.INTRA.norm>
0

>  <SCORE.RESTR>
0

>  <SCORE.RESTR.CAVITY>
0

>  <SCORE.RESTR.norm>
0

>  <SCORE.SYSTEM>
0

>  <SCORE.SYSTEM.CONST>
0

>  <SCORE.SYSTEM.DIHEDRAL>
0

>  <SCORE.SYSTEM.SOLV>
0

>  <SCORE.SYSTEM.norm>
0

>  <SCORE.heavy>
10

>  <SCORE.norm>
-2.61302

>  <RMSD>
0.215

$$$$
1u8d_lig
 OpenBabel11021811413D
libRbt.so/2013.1/901 2013/11/27
 10 11  0  0  0  0  0  0  0  0999 V2000
   11.7165   10.4763    9.2671 N   0  0  0  0  0  0  0  0  0  0  0  0
   11.4848   11.8479    9.4668 C   0  0  0  0  0  0  0  0  0  0  0  0
   11.1872   12.7110    8.4622 N   0  0  0  0  0  0  0  0  0  0  0  0
   11.1354   12.1099    7.2537 C   0  0  0  0  0  0  0  0  0  0  0  0
   11.3812   10.6286    6.9721 C   0  0  0  0  0  0  0  0  0  0  0  0
   11.6875    9.7779    8.0454 C   0  0  0  0  0  0  0  0  0  0  0  0
   11.9131    8.5754    8.0511 O   0  0  0  0  0  0  0  0  0  0  0  0
   11.2321   10.4546    5.6235 N   0  0  0  0  0  0  0  0  0  0  0  0
   10.9141   11.6772    5.0843 C   0  0  0  0  0  0  0  0  0  0  0  0
   10.8487   12.6935    6.0337 N   0  0  0  0  0  0  0  0  0  0  0  0
  1  2  1  0  0  0  0
  1  6  1  0  0  0  0
  2  3  2  0  0  0  0
  3  4  1  0  0  0  0
  4  5  2  0  0  0  0
  4 10  1  0  0  0  0
  5  6  1  0  0  0  0
  5  8  1  0  0  0  0
  6  7  2  0  0  0  0
  8  9  1  0  0  0  0
  9 10  2  0  0  0  0
M  END
>  <CHROM.1>
11.35834410,11.05939306,7.43761305,0.35677130,-1.34021585,0.94896172

>  <Name>
1u8d_lig

>  <RI>
0

>  <Rbt.Current_Directory>
/home/itssahil/PROJECTS/Mol_Feturizer/New_Systems/rnas/1u8d

>  <Rbt.Executable>
rbdock ($Id: //depot/dev/client3/rdock/2013.1/src/exe/rbdock.cxx#4 $)

>  <Rbt.Library>
libRbt.so (2013.1, Build901 2013/11/27)

>  <Rbt.Parameter_File>
/export/apps/rDock/src/rDock_2013.1_src/data/scripts/dock_solv.prm

>  <Rbt.Receptor>
prm/blind_docking_60.prm

>  <SCORE>
-26.0526

>  <SCORE.INTER>
-26.0526

>  <SCORE.INTER.CONST>
1

>  <SCORE.INTER.POLAR>
-1.93632

>  <SCORE.INTER.ROT>
0

>  <SCORE.INTER.SOLV>
11.6736

>  <SCORE.INTER.VDW>
-18.4052

>  <SCORE.INTER.norm>
-2.60526

>  <SCORE.INTRA>
0

>  <SCORE.INTRA.DIHEDRAL>
0

>  <SCORE.INTRA.DIHEDRAL.0>
0

>  <SCORE.INTRA.POLAR>
0

>  <SCORE.INTRA.POLAR.0>
0

>  <SCORE.INTRA.REPUL>
0

>  <SCORE.INTRA.REPUL.0>
0

>  <SCORE.INTRA.SOLV>
0

>  <SCORE.INTRA.SOLV.lig_0>
-13.7928

>  <SCORE.INTRA.VDW>
0

>  <SCORE.INTRA.VDW.0>
0

>  <SCORE.INTRA.norm>
0

>  <SCORE.RESTR>
0

>  <SCORE.RESTR.CAVITY>
0

>  <SCORE.RESTR.norm>
0

>  <SCORE.SYSTEM>
0

>  <SCORE.SYSTEM.CONST>
0

>  <SCORE.SYSTEM.DIHEDRAL>
0

>  <SCORE.SYSTEM.SOLV>
0

>  <SCORE.SYSTEM.norm>
0

>  <SCORE.heavy>
10

>  <SCORE.norm>
-2.60526

>  <RMSD>
0.215

$$$$
1u8d_lig
 OpenBabel11021811413D
libRbt.so/2013.1/901 2013/11/27
 10 11  0  0  0  0  0  0  0  0999 V2000
   11.8257   10.5504    9.1776 N   0  0  0  0  0  0  0  0  0  0  0  0
   11.5963   11.9221    9.3799 C   0  0  0  0  0  0  0  0  0  0  0  0
   11.2812   12.7840    8.3796 N   0  0  0  0  0  0  0  0  0  0  0  0
   11.2096   12.1817    7.1727 C   0  0  0  0  0  0  0  0  0  0  0  0
   11.4518   10.7004    6.8884 C   0  0  0  0  0  0  0  0  0  0  0  0
   11.7767    9.8509    7.9572 C   0  0  0  0  0  0  0  0  0  0  0  0
   12.0034    8.6486    7.9602 O   0  0  0  0  0  0  0  0  0  0  0  0
   11.2802   10.5250    5.5426 N   0  0  0  0  0  0  0  0  0  0  0  0
   10.9523   11.7469    5.0077 C   0  0  0  0  0  0  0  0  0  0  0  0
   10.9020   12.7640    5.9572 N   0  0  0  0  0  0  0  0  0  0  0  0
  1  2  1  0  0  0  0
  1  6  1  0  0  0  0
  2  3  2  0  0  0  0
  3  4  1  0  0  0  0
  4  5  2  0  0  0  0
  4 10  1  0  0  0  0
  5  6  1  0  0  0  0
  5  8  1  0  0  0  0
  6  7  2  0  0  0  0
  8  9  1  0  0  0  0
  9 10  2  0  0  0  0
M  END
>  <CHROM.1>
11.43643571,11.13159140,7.35380772,0.30165372,-1.32942976,0.89446005

>  <Name>
1u8d_lig

>  <RI>
0

>  <Rbt.Current_Directory>
/home/itssahil/PROJECTS/Mol_Feturizer/New_Systems/rnas/1u8d

>  <Rbt.Executable>
rbdock ($Id: //depot/dev/client3/rdock/2013.1/src/exe/rbdock.cxx#4 $)

>  <Rbt.Library>
libRbt.so (2013.1, Build901 2013/11/27)

>  <Rbt.Parameter_File>
/export/apps/rDock/src/rDock_2013.1_src/data/scripts/dock_solv.prm

>  <Rbt.Receptor>
prm/pocket_docking_3.prm

>  <SCORE>
-26.1083

>  <SCORE.INTER>
-26.1083

>  <SCORE.INTER.CONST>
1

>  <SCORE.INTER.POLAR>
-1.93632

>  <SCORE.INTER.ROT>
0

>  <SCORE.INTER.SOLV>
11.5672

>  <SCORE.INTER.VDW>
-18.4069

>  <SCORE.INTER.norm>
-2.61083

>  <SCORE.INTRA>
0

>  <SCORE.INTRA.DIHEDRAL>
0

>  <SCORE.INTRA.DIHEDRAL.0>
0

>  <SCORE.INTRA.POLAR>
0

>  <SCORE.INTRA.POLAR.0>
0

>  <SCORE.INTRA.REPUL>
0

>  <SCORE.INTRA.REPUL.0>
0

>  <SCORE.INTRA.SOLV>
0

>  <SCORE.INTRA.SOLV.lig_0>
-13.7928

>  <SCORE.INTRA.VDW>
0

>  <SCORE.INTRA.VDW.0>
0

>  <SCORE.INTRA.norm>
0

>  <SCORE.RESTR>
0

>  <SCORE.RESTR.CAVITY>
0

>  <SCORE.RESTR.norm>
0

>  <SCORE.SYSTEM>
0

>  <SCORE.SYSTEM.CONST>
0

>  <SCORE.SYSTEM.DIHEDRAL>
0

>  <SCORE.SYSTEM.SOLV>
0

>  <SCORE.SYSTEM.norm>
0

>  <SCORE.heavy>
10

>  <SCORE.norm>
-2.61083

>  <RMSD>
0.215

$$$$
1u8d_lig
 OpenBabel11021811413D
libRbt.so/2013.1/901 2013/11/27
 10 11  0  0  0  0  0  0  0  0999 V2000
   11.7168   10.4879    9.2687 N   0  0  0  0  0  0  0  0  0  0  0  0
   11.4886   11.8600    9.4693 C   0  0  0  0  0  0  0  0  0  0  0  0
   11.1998   12.7257    8.4644 N   0  0  0  0  0  0  0  0  0  0  0  0
   11.1531   12.1267    7.2546 C   0  0  0  0  0  0  0  0  0  0  0  0
   11.3955   10.6451    6.9721 C   0  0  0  0  0  0  0  0  0  0  0  0
   11.6926    9.7916    8.0458 C   0  0  0  0  0  0  0  0  0  0  0  0
   11.9141    8.5884    8.0508 O   0  0  0  0  0  0  0  0  0  0  0  0
   11.2538   10.4737    5.6223 N   0  0  0  0  0  0  0  0  0  0  0  0
   10.9432   11.6983    5.0832 C   0  0  0  0  0  0  0  0  0  0  0  0
   10.8756   12.7133    6.0339 N   0  0  0  0  0  0  0  0  0  0  0  0
  1  2  1  0  0  0  0
  1  6  1  0  0  0  0
  2  3  2  0  0  0  0
  3  4  1  0  0  0  0
  4  5  2  0  0  0  0
  4 10  1  0  0  0  0
  5  6  1  0  0  0  0
  5  8  1  0  0  0  0
  6  7  2  0  0  0  0
  8  9  1  0  0  0  0
  9 10  2  0  0  0  0
M  END
>  <CHROM.1>
11.37141636,11.07519415,7.43811332,0.36953289,-1.34639957,0.96302266

>  <Name>
1u8d_lig

>  <RI>
0

>  <Rbt.Current_Directory>
/home/itssahil/PROJECTS/Mol_Feturizer/New_Systems/rnas/1u8d

>  <Rbt.Executable>
rbdock ($Id: //depot/dev/client3/rdock/2013.1/src/exe/rbdock.cxx#4 $)

>  <Rbt.Library>
libRbt.so (2013.1, Build901 2013/11/27)

>  <Rbt.Parameter_File>
/export/apps/rDock/src/rDock_2013.1_src/data/scripts/dock_solv.prm

>  <Rbt.Receptor>
prm/pocket_docking_4.prm

>  <SCORE>
-26.1131

>  <SCORE.INTER>
-26.1131

>  <SCORE.INTER.CONST>
1

>  <SCORE.INTER.POLAR>
-1.93632

>  <SCORE.INTER.ROT>
0

>  <SCORE.INTER.SOLV>
11.6794

>  <SCORE.INTER.VDW>
-18.4475

>  <SCORE.INTER.norm>
-2.61131

>  <SCORE.INTRA>
0

>  <SCORE.INTRA.DIHEDRAL>
0

>  <SCORE.INTRA.DIHEDRAL.0>
0

>  <SCORE.INTRA.POLAR>
0

>  <SCORE.INTRA.POLAR.0>
0

>  <SCORE.INTRA.REPUL>
0

>  <SCORE.INTRA.REPUL.0>
0

>  <SCORE.INTRA.SOLV>
0

>  <SCORE.INTRA.SOLV.lig_0>
-13.7928

>  <SCORE.INTRA.VDW>
0

>  <SCORE.INTRA.VDW.0>
0

>  <SCORE.INTRA.norm>
0

>  <SCORE.RESTR>
0

>  <SCORE.RESTR.CAVITY>
0

>  <SCORE.RESTR.norm>
0

>  <SCORE.SYSTEM>
0

>  <SCORE.SYSTEM.CONST>
0

>  <SCORE.SYSTEM.DIHEDRAL>
0

>  <SCORE.SYSTEM.SOLV>
0

>  <SCORE.SYSTEM.norm>
0

>  <SCORE.heavy>
10

>  <SCORE.norm>
-2.61131

>  <RMSD>
0.215

$$$$
1u8d_lig
 OpenBabel11021811413D
libRbt.so/2013.1/901 2013/11/27
 10 11  0  0  0  0  0  0  0  0999 V2000
   11.7110   10.4725    9.2784 N   0  0  0  0  0  0  0  0  0  0  0  0
   11.4679   11.8405    9.4892 C   0  0  0  0  0  0  0  0  0  0  0  0
   11.1747   12.7115    8.4901 N   0  0  0  0  0  0  0  0  0  0  0  0
   11.1394   12.1221    7.2753 C   0  0  0  0  0  0  0  0  0  0  0  0
   11.3982   10.6454    6.9817 C   0  0  0  0  0  0  0  0  0  0  0  0
   11.6993    9.7861    8.0496 C   0  0  0  0  0  0  0  0  0  0  0  0
   11.9330    8.5852    8.0458 O   0  0  0  0  0  0  0  0  0  0  0  0
   11.2642   10.4837    5.6299 N   0  0  0  0  0  0  0  0  0  0  0  0
   10.9435   11.7094    5.0995 C   0  0  0  0  0  0  0  0  0  0  0  0
   10.8613   12.7158    6.0582 N   0  0  0  0  0  0  0  0  0  0  0  0
  1  2  1  0  0  0  0
  1  6  1  0  0  0  0
  2  3  2  0  0  0  0
  3  4  1  0  0  0  0
  4  5  2  0  0  0  0
  4 10  1  0  0  0  0
  5  6  1  0  0  0  0
  5  8  1  0  0  0  0
  6  7  2  0  0  0  0
  8  9  1  0  0  0  0
  9 10  2  0  0  0  0
M  END
>  <CHROM.1>
11.36767035,11.07133438,7.45110107,0.41088313,-1.34032067,1.01153450

>  <Name>
1u8d_lig

>  <RI>
0

>  <Rbt.Current_Directory>
/home/itssahil/PROJECTS/Mol_Feturizer/New_Systems/rnas/1u8d

>  <Rbt.Executable>
rbdock ($Id: //depot/dev/client3/rdock/2013.1/src/exe/rbdock.cxx#4 $)

>  <Rbt.Library>
libRbt.so (2013.1, Build901 2013/11/27)

>  <Rbt.Parameter_File>
/export/apps/rDock/src/rDock_2013.1_src/data/scripts/dock_solv.prm

>  <Rbt.Receptor>
prm/pocket_docking_4.prm

>  <SCORE>
-26.1427

>  <SCORE.INTER>
-26.1427

>  <SCORE.INTER.CONST>
1

>  <SCORE.INTER.POLAR>
-1.93632

>  <SCORE.INTER.ROT>
0

>  <SCORE.INTER.SOLV>
11.6639

>  <SCORE.INTER.VDW>
-18.4621

>  <SCORE.INTER.norm>
-2.61427

>  <SCORE.INTRA>
0

>  <SCORE.INTRA.DIHEDRAL>
0

>  <SCORE.INTRA.DIHEDRAL.0>
0

>  <SCORE.INTRA.POLAR>
0

>  <SCORE.INTRA.POLAR.0>
0

>  <SCORE.INTRA.REPUL>
0

>  <SCORE.INTRA.REPUL.0>
0

>  <SCORE.INTRA.SOLV>
0

>  <SCORE.INTRA.SOLV.lig_0>
-13.7928

>  <SCORE.INTRA.VDW>
0

>  <SCORE.INTRA.VDW.0>
0

>  <SCORE.INTRA.norm>
0

>  <SCORE.RESTR>
0

>  <SCORE.RESTR.CAVITY>
0

>  <SCORE.RESTR.norm>
0

>  <SCORE.SYSTEM>
0

>  <SCORE.SYSTEM.CONST>
0

>  <SCORE.SYSTEM.DIHEDRAL>
0

>  <SCORE.SYSTEM.SOLV>
0

>  <SCORE.SYSTEM.norm>
0

>  <SCORE.heavy>
10

>  <SCORE.norm>
-2.61427

>  <RMSD>
0.215

$$$$
1u8d_lig
 OpenBabel11021811413D
libRbt.so/2013.1/901 2013/11/27
 10 11  0  0  0  0  0  0  0  0999 V2000
   11.7204   10.4735    9.2696 N   0  0  0  0  0  0  0  0  0  0  0  0
   11.4845   11.8434    9.4766 C   0  0  0  0  0  0  0  0  0  0  0  0
   11.1866   12.7114    8.4763 N   0  0  0  0  0  0  0  0  0  0  0  0
   11.1390   12.1171    7.2643 C   0  0  0  0  0  0  0  0  0  0  0  0
   11.3895   10.6381    6.9748 C   0  0  0  0  0  0  0  0  0  0  0  0
   11.6959    9.7820    8.0439 C   0  0  0  0  0  0  0  0  0  0  0  0
   11.9248    8.5802    8.0431 O   0  0  0  0  0  0  0  0  0  0  0  0
   11.2437   10.4714    5.6249 N   0  0  0  0  0  0  0  0  0  0  0  0
   10.9236   11.6962    5.0920 C   0  0  0  0  0  0  0  0  0  0  0  0
   10.8533   12.7068    6.0471 N   0  0  0  0  0  0  0  0  0  0  0  0
  1  2  1  0  0  0  0
  1  6  1  0  0  0  0
  2  3  2  0  0  0  0
  3  4  1  0  0  0  0
  4  5  2  0  0  0  0
  4 10  1  0  0  0  0
  5  6  1  0  0  0  0
  5  8  1  0  0  0  0
  6  7  2  0  0  0  0
  8  9  1  0  0  0  0
  9 10  2  0  0  0  0
M  END
>  <CHROM.1>
11.36450224,11.06613375,7.44269267,0.37127046,-1.33918378,0.96880594

>  <Name>
1u8d_lig

>  <RI>
0

>  <Rbt.Current_Directory>
/home/itssahil/PROJECTS/Mol_Feturizer/New_Systems/rnas/1u8d

>  <Rbt.Executable>
rbdock ($Id: //depot/dev/client3/rdock/2013.1/src/exe/rbdock.cxx#4 $)

>  <Rbt.Library>
libRbt.so (2013.1, Build901 2013/11/27)

>  <Rbt.Parameter_File>
/export/apps/rDock/src/rDock_2013.1_src/data/scripts/dock_solv.prm

>  <Rbt.Receptor>
prm/pocket_docking_5.prm

>  <SCORE>
-26.1063

>  <SCORE.INTER>
-26.1063

>  <SCORE.INTER.CONST>
1

>  <SCORE.INTER.POLAR>
-1.93632

>  <SCORE.INTER.ROT>
0

>  <SCORE.INTER.SOLV>
11.6604

>  <SCORE.INTER.VDW>
-18.4366

>  <SCORE.INTER.norm>
-2.61063

>  <SCORE.INTRA>
0

>  <SCORE.INTRA.DIHEDRAL>
0

>  <SCORE.INTRA.DIHEDRAL.0>
0

>  <SCORE.INTRA.POLAR>
0

>  <SCORE.INTRA.POLAR.0>
0

>  <SCORE.INTRA.REPUL>
0

>  <SCORE.INTRA.REPUL.0>
0

>  <SCORE.INTRA.SOLV>
0

>  <SCORE.INTRA.SOLV.lig_0>
-13.7928

>  <SCORE.INTRA.VDW>
0

>  <SCORE.INTRA.VDW.0>
0

>  <SCORE.INTRA.norm>
0

>  <SCORE.RESTR>
0

>  <SCORE.RESTR.CAVITY>
0

>  <SCORE.RESTR.norm>
0

>  <SCORE.SYSTEM>
0

>  <SCORE.SYSTEM.CONST>
0

>  <SCORE.SYSTEM.DIHEDRAL>
0

>  <SCORE.SYSTEM.SOLV>
0

>  <SCORE.SYSTEM.norm>
0

>  <SCORE.heavy>
10

>  <SCORE.norm>
-2.61063

>  <RMSD>
0.215

$$$$
1u8d_lig
 OpenBabel11021811413D
libRbt.so/2013.1/901 2013/11/27
 10 11  0  0  0  0  0  0  0  0999 V2000
   11.7112   10.4786    9.2649 N   0  0  0  0  0  0  0  0  0  0  0  0
   11.4722   11.8474    9.4747 C   0  0  0  0  0  0  0  0  0  0  0  0
   11.1810   12.7184    8.4750 N   0  0  0  0  0  0  0  0  0  0  0  0
   11.1434   12.1281    7.2607 C   0  0  0  0  0  0  0  0  0  0  0  0
   11.3978   10.6504    6.9682 C   0  0  0  0  0  0  0  0  0  0  0  0
   11.6969    9.7911    8.0367 C   0  0  0  0  0  0  0  0  0  0  0  0
   11.9272    8.5896    8.0337 O   0  0  0  0  0  0  0  0  0  0  0  0
   11.2626   10.4880    5.6167 N   0  0  0  0  0  0  0  0  0  0  0  0
   10.9451   11.7142    5.0854 C   0  0  0  0  0  0  0  0  0  0  0  0
   10.8664   12.7216    6.0433 N   0  0  0  0  0  0  0  0  0  0  0  0
  1  2  1  0  0  0  0
  1  6  1  0  0  0  0
  2  3  2  0  0  0  0
  3  4  1  0  0  0  0
  4  5  2  0  0  0  0
  4 10  1  0  0  0  0
  5  6  1  0  0  0  0
  5  8  1  0  0  0  0
  6  7  2  0  0  0  0
  8  9  1  0  0  0  0
  9 10  2  0  0  0  0
M  END
>  <CHROM.1>
11.36870819,11.07685144,7.43729245,0.40207836,-1.34249486,1.00213732

>  <Name>
1u8d_lig

>  <RI>
0

>  <Rbt.Current_Directory>
/home/itssahil/PROJECTS/Mol_Feturizer/New_Systems/rnas/1u8d

>  <Rbt.Executable>
rbdock ($Id: //depot/dev/client3/rdock/2013.1/src/exe/rbdock.cxx#4 $)

>  <Rbt.Library>
libRbt.so (2013.1, Build901 2013/11/27)

>  <Rbt.Parameter_File>
/export/apps/rDock/src/rDock_2013.1_src/data/scripts/dock_solv.prm

>  <Rbt.Receptor>
prm/pocket_docking_5.prm

>  <SCORE>
-26.139

>  <SCORE.INTER>
-26.139

>  <SCORE.INTER.CONST>
1

>  <SCORE.INTER.POLAR>
-1.93632

>  <SCORE.INTER.ROT>
0

>  <SCORE.INTER.SOLV>
11.6711

>  <SCORE.INTER.VDW>
-18.462

>  <SCORE.INTER.norm>
-2.6139

>  <SCORE.INTRA>
0

>  <SCORE.INTRA.DIHEDRAL>
0

>  <SCORE.INTRA.DIHEDRAL.0>
0

>  <SCORE.INTRA.POLAR>
0

>  <SCORE.INTRA.POLAR.0>
0

>  <SCORE.INTRA.REPUL>
0

>  <SCORE.INTRA.REPUL.0>
0

>  <SCORE.INTRA.SOLV>
0

>  <SCORE.INTRA.SOLV.lig_0>
-13.7928

>  <SCORE.INTRA.VDW>
0

>  <SCORE.INTRA.VDW.0>
0

>  <SCORE.INTRA.norm>
0

>  <SCORE.RESTR>
0

>  <SCORE.RESTR.CAVITY>
0

>  <SCORE.RESTR.norm>
0

>  <SCORE.SYSTEM>
0

>  <SCORE.SYSTEM.CONST>
0

>  <SCORE.SYSTEM.DIHEDRAL>
0

>  <SCORE.SYSTEM.SOLV>
0

>  <SCORE.SYSTEM.norm>
0

>  <SCORE.heavy>
10

>  <SCORE.norm>
-2.6139

>  <RMSD>
0.215

$$$$
1u8d_lig
 OpenBabel11021811413D
libRbt.so/2013.1/901 2013/11/27
 10 11  0  0  0  0  0  0  0  0999 V2000
   11.7131   10.4770    9.2662 N   0  0  0  0  0  0  0  0  0  0  0  0
   11.4755   11.8467    9.4724 C   0  0  0  0  0  0  0  0  0  0  0  0
   11.1851   12.7153    8.4705 N   0  0  0  0  0  0  0  0  0  0  0  0
   11.1467   12.1218    7.2578 C   0  0  0  0  0  0  0  0  0  0  0  0
   11.3995   10.6431    6.9691 C   0  0  0  0  0  0  0  0  0  0  0  0
   11.6979    9.7863    8.0399 C   0  0  0  0  0  0  0  0  0  0  0  0
   11.9269    8.5845    8.0400 O   0  0  0  0  0  0  0  0  0  0  0  0
   11.2639   10.4773    5.6180 N   0  0  0  0  0  0  0  0  0  0  0  0
   10.9477   11.7024    5.0836 C   0  0  0  0  0  0  0  0  0  0  0  0
   10.8702   12.7124    6.0388 N   0  0  0  0  0  0  0  0  0  0  0  0
  1  2  1  0  0  0  0
  1  6  1  0  0  0  0
  2  3  2  0  0  0  0
  3  4  1  0  0  0  0
  4  5  2  0  0  0  0
  4 10  1  0  0  0  0
  5  6  1  0  0  0  0
  5  8  1  0  0  0  0
  6  7  2  0  0  0  0
  8  9  1  0  0  0  0
  9 10  2  0  0  0  0
M  END
>  <CHROM.1>
11.37094051,11.07080886,7.43708259,0.39908226,-1.34330374,0.99658137

>  <Name>
1u8d_lig

>  <RI>
0

>  <Rbt.Current_Directory>
/home/itssahil/PROJECTS/Mol_Feturizer/New_Systems/rnas/1u8d

>  <Rbt.Executable>
rbdock ($Id: //depot/dev/client3/rdock/2013.1/src/exe/rbdock.cxx#4 $)

>  <Rbt.Library>
libRbt.so (2013.1, Build901 2013/11/27)

>  <Rbt.Parameter_File>
/export/apps/rDock/src/rDock_2013.1_src/data/scripts/dock_solv.prm

>  <Rbt.Receptor>
prm/pocket_docking_5.prm

>  <SCORE>
-26.1365

>  <SCORE.INTER>
-26.1365

>  <SCORE.INTER.CONST>
1

>  <SCORE.INTER.POLAR>
-1.93632

>  <SCORE.INTER.ROT>
0

>  <SCORE.INTER.SOLV>
11.673

>  <SCORE.INTER.VDW>
-18.4609

>  <SCORE.INTER.norm>
-2.61365

>  <SCORE.INTRA>
0

>  <SCORE.INTRA.DIHEDRAL>
0

>  <SCORE.INTRA.DIHEDRAL.0>
0

>  <SCORE.INTRA.POLAR>
0

>  <SCORE.INTRA.POLAR.0>
0

>  <SCORE.INTRA.REPUL>
0

>  <SCORE.INTRA.REPUL.0>
0

>  <SCORE.INTRA.SOLV>
0

>  <SCORE.INTRA.SOLV.lig_0>
-13.7928

>  <SCORE.INTRA.VDW>
0

>  <SCORE.INTRA.VDW.0>
0

>  <SCORE.INTRA.norm>
0

>  <SCORE.RESTR>
0

>  <SCORE.RESTR.CAVITY>
0

>  <SCORE.RESTR.norm>
0

>  <SCORE.SYSTEM>
0

>  <SCORE.SYSTEM.CONST>
0

>  <SCORE.SYSTEM.DIHEDRAL>
0

>  <SCORE.SYSTEM.SOLV>
0

>  <SCORE.SYSTEM.norm>
0

>  <SCORE.heavy>
10

>  <SCORE.norm>
-2.61365

>  <RMSD>
0.215

$$$$
1u8d_lig
 OpenBabel11021811413D
libRbt.so/2013.1/901 2013/11/27
 10 11  0  0  0  0  0  0  0  0999 V2000
   11.7245   10.4848    9.2618 N   0  0  0  0  0  0  0  0  0  0  0  0
   11.4920   11.8551    9.4700 C   0  0  0  0  0  0  0  0  0  0  0  0
   11.2015   12.7256    8.4697 N   0  0  0  0  0  0  0  0  0  0  0  0
   11.1577   12.1333    7.2565 C   0  0  0  0  0  0  0  0  0  0  0  0
   11.4048   10.6541    6.9658 C   0  0  0  0  0  0  0  0  0  0  0  0
   11.7035    9.7954    8.0349 C   0  0  0  0  0  0  0  0  0  0  0  0
   11.9286    8.5928    8.0334 O   0  0  0  0  0  0  0  0  0  0  0  0
   11.2648   10.4899    5.6150 N   0  0  0  0  0  0  0  0  0  0  0  0
   10.9510   11.7166    5.0826 C   0  0  0  0  0  0  0  0  0  0  0  0
   10.8795   12.7259    6.0389 N   0  0  0  0  0  0  0  0  0  0  0  0
  1  2  1  0  0  0  0
  1  6  1  0  0  0  0
  2  3  2  0  0  0  0
  3  4  1  0  0  0  0
  4  5  2  0  0  0  0
  4 10  1  0  0  0  0
  5  6  1  0  0  0  0
  5  8  1  0  0  0  0
  6  7  2  0  0  0  0
  8  9  1  0  0  0  0
  9 10  2  0  0  0  0
M  END
>  <CHROM.1>
11.37897838,11.08142886,7.43427657,0.38040690,-1.34440933,0.97929309

>  <Name>
1u8d_lig

>  <RI>
0

>  <Rbt.Current_Directory>
/home/itssahil/PROJECTS/Mol_Feturizer/New_Systems/rnas/1u8d

>  <Rbt.Executable>
rbdock ($Id: //depot/dev/client3/rdock/2013.1/src/exe/rbdock.cxx#4 $)

>  <Rbt.Library>
libRbt.so (2013.1, Build901 2013/11/27)

>  <Rbt.Parameter_File>
/export/apps/rDock/src/rDock_2013.1_src/data/scripts/dock_solv.prm

>  <Rbt.Receptor>
prm/pocket_docking_5.prm

>  <SCORE>
-26.1154

>  <SCORE.INTER>
-26.1154

>  <SCORE.INTER.CONST>
1

>  <SCORE.INTER.POLAR>
-1.93632

>  <SCORE.INTER.ROT>
0

>  <SCORE.INTER.SOLV>
11.6631

>  <SCORE.INTER.VDW>
-18.4436

>  <SCORE.INTER.norm>
-2.61154

>  <SCORE.INTRA>
0

>  <SCORE.INTRA.DIHEDRAL>
0

>  <SCORE.INTRA.DIHEDRAL.0>
0

>  <SCORE.INTRA.POLAR>
0

>  <SCORE.INTRA.POLAR.0>
0

>  <SCORE.INTRA.REPUL>
0

>  <SCORE.INTRA.REPUL.0>
0

>  <SCORE.INTRA.SOLV>
0

>  <SCORE.INTRA.SOLV.lig_0>
-13.7928

>  <SCORE.INTRA.VDW>
0

>  <SCORE.INTRA.VDW.0>
0

>  <SCORE.INTRA.norm>
0

>  <SCORE.RESTR>
0

>  <SCORE.RESTR.CAVITY>
0

>  <SCORE.RESTR.norm>
0

>  <SCORE.SYSTEM>
0

>  <SCORE.SYSTEM.CONST>
0

>  <SCORE.SYSTEM.DIHEDRAL>
0

>  <SCORE.SYSTEM.SOLV>
0

>  <SCORE.SYSTEM.norm>
0

>  <SCORE.heavy>
10

>  <SCORE.norm>
-2.61154

>  <RMSD>
0.215

$$$$
1u8d_lig
 OpenBabel11021811413D
libRbt.so/2013.1/901 2013/11/27
 10 11  0  0  0  0  0  0  0  0999 V2000
   11.7329   10.4884    9.2642 N   0  0  0  0  0  0  0  0  0  0  0  0
   11.5030   11.8592    9.4714 C   0  0  0  0  0  0  0  0  0  0  0  0
   11.2133   12.7294    8.4706 N   0  0  0  0  0  0  0  0  0  0  0  0
   11.1674   12.1362    7.2579 C   0  0  0  0  0  0  0  0  0  0  0  0
   11.4117   10.6562    6.9683 C   0  0  0  0  0  0  0  0  0  0  0  0
   11.7097    9.7979    8.0379 C   0  0  0  0  0  0  0  0  0  0  0  0
   11.9327    8.5949    8.0372 O   0  0  0  0  0  0  0  0  0  0  0  0
   11.2703   10.4911    5.6178 N   0  0  0  0  0  0  0  0  0  0  0  0
   10.9582   11.7179    5.0845 C   0  0  0  0  0  0  0  0  0  0  0  0
   10.8893   12.7282    6.0400 N   0  0  0  0  0  0  0  0  0  0  0  0
  1  2  1  0  0  0  0
  1  6  1  0  0  0  0
  2  3  2  0  0  0  0
  3  4  1  0  0  0  0
  4  5  2  0  0  0  0
  4 10  1  0  0  0  0
  5  6  1  0  0  0  0
  5  8  1  0  0  0  0
  6  7  2  0  0  0  0
  8  9  1  0  0  0  0
  9 10  2  0  0  0  0
M  END
>  <CHROM.1>
11.38699386,11.08400744,7.43641707,0.37298053,-1.34543309,0.97118196

>  <Name>
1u8d_lig

>  <RI>
0

>  <Rbt.Current_Directory>
/home/itssahil/PROJECTS/Mol_Feturizer/New_Systems/rnas/1u8d

>  <Rbt.Executable>
rbdock ($Id: //depot/dev/client3/rdock/2013.1/src/exe/rbdock.cxx#4 $)

>  <Rbt.Library>
libRbt.so (2013.1, Build901 2013/11/27)

>  <Rbt.Parameter_File>
/export/apps/rDock/src/rDock_2013.1_src/data/scripts/dock_solv.prm

>  <Rbt.Receptor>
prm/pocket_docking_6.prm

>  <SCORE>
-26.1171

>  <SCORE.INTER>
-26.1171

>  <SCORE.INTER.CONST>
1

>  <SCORE.INTER.POLAR>
-1.93632

>  <SCORE.INTER.ROT>
0

>  <SCORE.INTER.SOLV>
11.6575

>  <SCORE.INTER.VDW>
-18.4429

>  <SCORE.INTER.norm>
-2.61171

>  <SCORE.INTRA>
0

>  <SCORE.INTRA.DIHEDRAL>
0

>  <SCORE.INTRA.DIHEDRAL.0>
0

>  <SCORE.INTRA.POLAR>
0

>  <SCORE.INTRA.POLAR.0>
0

>  <SCORE.INTRA.REPUL>
0

>  <SCORE.INTRA.REPUL.0>
0

>  <SCORE.INTRA.SOLV>
0

>  <SCORE.INTRA.SOLV.lig_0>
-13.7928

>  <SCORE.INTRA.VDW>
0

>  <SCORE.INTRA.VDW.0>
0

>  <SCORE.INTRA.norm>
0

>  <SCORE.RESTR>
0

>  <SCORE.RESTR.CAVITY>
0

>  <SCORE.RESTR.norm>
0

>  <SCORE.SYSTEM>
0

>  <SCORE.SYSTEM.CONST>
0

>  <SCORE.SYSTEM.DIHEDRAL>
0

>  <SCORE.SYSTEM.SOLV>
0

>  <SCORE.SYSTEM.norm>
0

>  <SCORE.heavy>
10

>  <SCORE.norm>
-2.61171

>  <RMSD>
0.215

$$$$
1u8d_lig
 OpenBabel11021811413D
libRbt.so/2013.1/901 2013/11/27
 10 11  0  0  0  0  0  0  0  0999 V2000
   11.6988   10.4702    9.2532 N   0  0  0  0  0  0  0  0  0  0  0  0
   11.4440   11.8359    9.4648 C   0  0  0  0  0  0  0  0  0  0  0  0
   11.1594   12.7082    8.4644 N   0  0  0  0  0  0  0  0  0  0  0  0
   11.1451   12.1225    7.2474 C   0  0  0  0  0  0  0  0  0  0  0  0
   11.4175   10.6485    6.9529 C   0  0  0  0  0  0  0  0  0  0  0  0
   11.7088    9.7876    8.0223 C   0  0  0  0  0  0  0  0  0  0  0  0
   11.9503    8.5883    8.0180 O   0  0  0  0  0  0  0  0  0  0  0  0
   11.3036   10.4903    5.5988 N   0  0  0  0  0  0  0  0  0  0  0  0
   10.9826   11.7157    5.0678 C   0  0  0  0  0  0  0  0  0  0  0  0
   10.8805   12.7184    6.0284 N   0  0  0  0  0  0  0  0  0  0  0  0
  1  2  1  0  0  0  0
  1  6  1  0  0  0  0
  2  3  2  0  0  0  0
  3  4  1  0  0  0  0
  4  5  2  0  0  0  0
  4 10  1  0  0  0  0
  5  6  1  0  0  0  0
  5  8  1  0  0  0  0
  6  7  2  0  0  0  0
  8  9  1  0  0  0  0
  9 10  2  0  0  0  0
M  END
>  <CHROM.1>
11.37755348,11.07269426,7.42314356,0.47876966,-1.34191692,1.08083612

>  <Name>
1u8d_lig

>  <RI>
0

>  <Rbt.Current_Directory>
/home/itssahil/PROJECTS/Mol_Feturizer/New_Systems/rnas/1u8d

>  <Rbt.Executable>
rbdock ($Id: //depot/dev/client3/rdock/2013.1/src/exe/rbdock.cxx#4 $)

>  <Rbt.Library>
libRbt.so (2013.1, Build901 2013/11/27)

>  <Rbt.Parameter_File>
/export/apps/rDock/src/rDock_2013.1_src/data/scripts/dock_solv.prm

>  <Rbt.Receptor>
prm/pocket_docking_6.prm

>  <SCORE>
-26.0517

>  <SCORE.INTER>
-26.0517

>  <SCORE.INTER.CONST>
1

>  <SCORE.INTER.POLAR>
-1.93632

>  <SCORE.INTER.ROT>
0

>  <SCORE.INTER.SOLV>
11.6787

>  <SCORE.INTER.VDW>
-18.4063

>  <SCORE.INTER.norm>
-2.60517

>  <SCORE.INTRA>
0

>  <SCORE.INTRA.DIHEDRAL>
0

>  <SCORE.INTRA.DIHEDRAL.0>
0

>  <SCORE.INTRA.POLAR>
0

>  <SCORE.INTRA.POLAR.0>
0

>  <SCORE.INTRA.REPUL>
0

>  <SCORE.INTRA.REPUL.0>
0

>  <SCORE.INTRA.SOLV>
0

>  <SCORE.INTRA.SOLV.lig_0>
-13.7928

>  <SCORE.INTRA.VDW>
0

>  <SCORE.INTRA.VDW.0>
0

>  <SCORE.INTRA.norm>
0

>  <SCORE.RESTR>
0

>  <SCORE.RESTR.CAVITY>
0

>  <SCORE.RESTR.norm>
0

>  <SCORE.SYSTEM>
0

>  <SCORE.SYSTEM.CONST>
0

>  <SCORE.SYSTEM.DIHEDRAL>
0

>  <SCORE.SYSTEM.SOLV>
0

>  <SCORE.SYSTEM.norm>
0

>  <SCORE.heavy>
10

>  <SCORE.norm>
-2.60517

>  <RMSD>
0.215

$$$$
1u8d_lig
 OpenBabel11021811413D
libRbt.so/2013.1/901 2013/11/27
 10 11  0  0  0  0  0  0  0  0999 V2000
   11.7160   10.4903    9.2684 N   0  0  0  0  0  0  0  0  0  0  0  0
   11.4858   11.8614    9.4730 C   0  0  0  0  0  0  0  0  0  0  0  0
   11.1986   12.7302    8.4702 N   0  0  0  0  0  0  0  0  0  0  0  0
   11.1556   12.1352    7.2584 C   0  0  0  0  0  0  0  0  0  0  0  0
   11.4003   10.6548    6.9715 C   0  0  0  0  0  0  0  0  0  0  0  0
   11.6956    9.7980    8.0431 C   0  0  0  0  0  0  0  0  0  0  0  0
   11.9184    8.5950    8.0447 O   0  0  0  0  0  0  0  0  0  0  0  0
   11.2622   10.4878    5.6208 N   0  0  0  0  0  0  0  0  0  0  0  0
   10.9516   11.7138    5.0851 C   0  0  0  0  0  0  0  0  0  0  0  0
   10.8805   12.7255    6.0389 N   0  0  0  0  0  0  0  0  0  0  0  0
  1  2  1  0  0  0  0
  1  6  1  0  0  0  0
  2  3  2  0  0  0  0
  3  4  1  0  0  0  0
  4  5  2  0  0  0  0
  4 10  1  0  0  0  0
  5  6  1  0  0  0  0
  5  8  1  0  0  0  0
  6  7  2  0  0  0  0
  8  9  1  0  0  0  0
  9 10  2  0  0  0  0
M  END
>  <CHROM.1>
11.37458507,11.08328146,7.43891531,0.38160106,-1.34692722,0.97813374

>  <Name>
1u8d_lig

>  <RI>
0

>  <Rbt.Current_Directory>
/home/itssahil/PROJECTS/Mol_Feturizer/New_Systems/rnas/1u8d

>  <Rbt.Executable>
rbdock ($Id: //depot/dev/client3/rdock/2013.1/src/exe/rbdock.cxx#4 $)

>  <Rbt.Library>
libRbt.so (2013.1, Build901 2013/11/27)

>  <Rbt.Parameter_File>
/export/apps/rDock/src/rDock_2013.1_src/data/scripts/dock_solv.prm

>  <Rbt.Receptor>
prm/pocket_docking_7.prm

>  <SCORE>
-26.1387

>  <SCORE.INTER>
-26.1387

>  <SCORE.INTER.CONST>
1

>  <SCORE.INTER.POLAR>
-1.93632

>  <SCORE.INTER.ROT>
0

>  <SCORE.INTER.SOLV>
11.6772

>  <SCORE.INTER.VDW>
-18.4638

>  <SCORE.INTER.norm>
-2.61387

>  <SCORE.INTRA>
0

>  <SCORE.INTRA.DIHEDRAL>
0

>  <SCORE.INTRA.DIHEDRAL.0>
0

>  <SCORE.INTRA.POLAR>
0

>  <SCORE.INTRA.POLAR.0>
0

>  <SCORE.INTRA.REPUL>
0

>  <SCORE.INTRA.REPUL.0>
0

>  <SCORE.INTRA.SOLV>
0

>  <SCORE.INTRA.SOLV.lig_0>
-13.7928

>  <SCORE.INTRA.VDW>
0

>  <SCORE.INTRA.VDW.0>
0

>  <SCORE.INTRA.norm>
0

>  <SCORE.RESTR>
0

>  <SCORE.RESTR.CAVITY>
0

>  <SCORE.RESTR.norm>
0

>  <SCORE.SYSTEM>
0

>  <SCORE.SYSTEM.CONST>
0

>  <SCORE.SYSTEM.DIHEDRAL>
0

>  <SCORE.SYSTEM.SOLV>
0

>  <SCORE.SYSTEM.norm>
0

>  <SCORE.heavy>
10

>  <SCORE.norm>
-2.61387

>  <RMSD>
0.215

$$$$
1u8d_lig
 OpenBabel11021811413D
libRbt.so/2013.1/901 2013/11/27
 10 11  0  0  0  0  0  0  0  0999 V2000
   11.7514   10.4864    9.2670 N   0  0  0  0  0  0  0  0  0  0  0  0
   11.5268   11.8573    9.4795 C   0  0  0  0  0  0  0  0  0  0  0  0
   11.2231   12.7293    8.4844 N   0  0  0  0  0  0  0  0  0  0  0  0
   11.1577   12.1378    7.2719 C   0  0  0  0  0  0  0  0  0  0  0  0
   11.3952   10.6578    6.9765 C   0  0  0  0  0  0  0  0  0  0  0  0
   11.7082    9.7976    8.0403 C   0  0  0  0  0  0  0  0  0  0  0  0
   11.9293    8.5943    8.0345 O   0  0  0  0  0  0  0  0  0  0  0  0
   11.2329   10.4948    5.6281 N   0  0  0  0  0  0  0  0  0  0  0  0
   10.9146   11.7228    5.1013 C   0  0  0  0  0  0  0  0  0  0  0  0
   10.8619   12.7319    6.0592 N   0  0  0  0  0  0  0  0  0  0  0  0
  1  2  1  0  0  0  0
  1  6  1  0  0  0  0
  2  3  2  0  0  0  0
  3  4  1  0  0  0  0
  4  5  2  0  0  0  0
  4 10  1  0  0  0  0
  5  6  1  0  0  0  0
  5  8  1  0  0  0  0
  6  7  2  0  0  0  0
  8  9  1  0  0  0  0
  9 10  2  0  0  0  0
M  END
>  <CHROM.1>
11.37837535,11.08504283,7.44551466,0.31428490,-1.33768475,0.91538831

>  <Name>
1u8d_lig

>  <RI>
0

>  <Rbt.Current_Directory>
/home/itssahil/PROJECTS/Mol_Feturizer/New_Systems/rnas/1u8d

>  <Rbt.Executable>
rbdock ($Id: //depot/dev/client3/rdock/2013.1/src/exe/rbdock.cxx#4 $)

>  <Rbt.Library>
libRbt.so (2013.1, Build901 2013/11/27)

>  <Rbt.Parameter_File>
/export/apps/rDock/src/rDock_2013.1_src/data/scripts/dock_solv.prm

>  <Rbt.Receptor>
prm/pocket_docking_8.prm

>  <SCORE>
-26.1037

>  <SCORE.INTER>
-26.1037

>  <SCORE.INTER.CONST>
1

>  <SCORE.INTER.POLAR>
-1.93632

>  <SCORE.INTER.ROT>
0

>  <SCORE.INTER.SOLV>
11.6284

>  <SCORE.INTER.VDW>
-18.4242

>  <SCORE.INTER.norm>
-2.61037

>  <SCORE.INTRA>
0

>  <SCORE.INTRA.DIHEDRAL>
0

>  <SCORE.INTRA.DIHEDRAL.0>
0

>  <SCORE.INTRA.POLAR>
0

>  <SCORE.INTRA.POLAR.0>
0

>  <SCORE.INTRA.REPUL>
0

>  <SCORE.INTRA.REPUL.0>
0

>  <SCORE.INTRA.SOLV>
0

>  <SCORE.INTRA.SOLV.lig_0>
-13.7928

>  <SCORE.INTRA.VDW>
0

>  <SCORE.INTRA.VDW.0>
0

>  <SCORE.INTRA.norm>
0

>  <SCORE.RESTR>
0

>  <SCORE.RESTR.CAVITY>
0

>  <SCORE.RESTR.norm>
0

>  <SCORE.SYSTEM>
0

>  <SCORE.SYSTEM.CONST>
0

>  <SCORE.SYSTEM.DIHEDRAL>
0

>  <SCORE.SYSTEM.SOLV>
0

>  <SCORE.SYSTEM.norm>
0

>  <SCORE.heavy>
10

>  <SCORE.norm>
-2.61037

>  <RMSD>
0.215

$$$$
1u8d_lig
 OpenBabel11021811413D
libRbt.so/2013.1/901 2013/11/27
 10 11  0  0  0  0  0  0  0  0999 V2000
   11.7516   10.5082    9.2275 N   0  0  0  0  0  0  0  0  0  0  0  0
   11.5349   11.8848    9.4095 C   0  0  0  0  0  0  0  0  0  0  0  0
   11.2425   12.7372    8.3943 N   0  0  0  0  0  0  0  0  0  0  0  0
   11.1801   12.1205    7.1943 C   0  0  0  0  0  0  0  0  0  0  0  0
   11.4094   10.6331    6.9319 C   0  0  0  0  0  0  0  0  0  0  0  0
   11.7109    9.7937    8.0155 C   0  0  0  0  0  0  0  0  0  0  0  0
   11.9240    8.5892    8.0366 O   0  0  0  0  0  0  0  0  0  0  0  0
   11.2536   10.4424    5.5863 N   0  0  0  0  0  0  0  0  0  0  0  0
   10.9464   11.6609    5.0317 C   0  0  0  0  0  0  0  0  0  0  0  0
   10.8949   12.6905    5.9675 N   0  0  0  0  0  0  0  0  0  0  0  0
  1  2  1  0  0  0  0
  1  6  1  0  0  0  0
  2  3  2  0  0  0  0
  3  4  1  0  0  0  0
  4  5  2  0  0  0  0
  4 10  1  0  0  0  0
  5  6  1  0  0  0  0
  5  8  1  0  0  0  0
  6  7  2  0  0  0  0
  8  9  1  0  0  0  0
  9 10  2  0  0  0  0
M  END
>  <CHROM.1>
11.39279910,11.07029346,7.39156157,0.31629432,-1.34631346,0.89603923

>  <Name>
1u8d_lig

>  <RI>
0

>  <Rbt.Current_Directory>
/home/itssahil/PROJECTS/Mol_Feturizer/New_Systems/rnas/1u8d

>  <Rbt.Executable>
rbdock ($Id: //depot/dev/client3/rdock/2013.1/src/exe/rbdock.cxx#4 $)

>  <Rbt.Library>
libRbt.so (2013.1, Build901 2013/11/27)

>  <Rbt.Parameter_File>
/export/apps/rDock/src/rDock_2013.1_src/data/scripts/dock_solv.prm

>  <Rbt.Receptor>
prm/pocket_docking_8.prm

>  <SCORE>
-26.0648

>  <SCORE.INTER>
-26.0648

>  <SCORE.INTER.CONST>
1

>  <SCORE.INTER.POLAR>
-1.93632

>  <SCORE.INTER.ROT>
0

>  <SCORE.INTER.SOLV>
11.6702

>  <SCORE.INTER.VDW>
-18.4122

>  <SCORE.INTER.norm>
-2.60648

>  <SCORE.INTRA>
0

>  <SCORE.INTRA.DIHEDRAL>
0

>  <SCORE.INTRA.DIHEDRAL.0>
0

>  <SCORE.INTRA.POLAR>
0

>  <SCORE.INTRA.POLAR.0>
0

>  <SCORE.INTRA.REPUL>
0

>  <SCORE.INTRA.REPUL.0>
0

>  <SCORE.INTRA.SOLV>
0

>  <SCORE.INTRA.SOLV.lig_0>
-13.7928

>  <SCORE.INTRA.VDW>
0

>  <SCORE.INTRA.VDW.0>
0

>  <SCORE.INTRA.norm>
0

>  <SCORE.RESTR>
0

>  <SCORE.RESTR.CAVITY>
0

>  <SCORE.RESTR.norm>
0

>  <SCORE.SYSTEM>
0

>  <SCORE.SYSTEM.CONST>
0

>  <SCORE.SYSTEM.DIHEDRAL>
0

>  <SCORE.SYSTEM.SOLV>
0

>  <SCORE.SYSTEM.norm>
0

>  <SCORE.heavy>
10

>  <SCORE.norm>
-2.60648

>  <RMSD>
0.215

$$$$
1u8d_lig
 OpenBabel11021811413D
libRbt.so/2013.1/901 2013/11/27
 10 11  0  0  0  0  0  0  0  0999 V2000
   11.7553   10.5889    9.1955 N   0  0  0  0  0  0  0  0  0  0  0  0
   11.5402   11.9655    9.3796 C   0  0  0  0  0  0  0  0  0  0  0  0
   11.2479   12.8197    8.3660 N   0  0  0  0  0  0  0  0  0  0  0  0
   11.1839   12.2048    7.1651 C   0  0  0  0  0  0  0  0  0  0  0  0
   11.4115   10.7175    6.9004 C   0  0  0  0  0  0  0  0  0  0  0  0
   11.7129    9.8763    7.9825 C   0  0  0  0  0  0  0  0  0  0  0  0
   11.9248    8.6715    8.0017 O   0  0  0  0  0  0  0  0  0  0  0  0
   11.2545   10.5289    5.5546 N   0  0  0  0  0  0  0  0  0  0  0  0
   10.9481   11.7485    5.0020 C   0  0  0  0  0  0  0  0  0  0  0  0
   10.8984   12.7769    5.9394 N   0  0  0  0  0  0  0  0  0  0  0  0
  1  2  1  0  0  0  0
  1  6  1  0  0  0  0
  2  3  2  0  0  0  0
  3  4  1  0  0  0  0
  4  5  2  0  0  0  0
  4 10  1  0  0  0  0
  5  6  1  0  0  0  0
  5  8  1  0  0  0  0
  6  7  2  0  0  0  0
  8  9  1  0  0  0  0
  9 10  2  0  0  0  0
M  END
>  <CHROM.1>
11.39569833,11.15407005,7.36069096,0.31072702,-1.34664363,0.89205658

>  <Name>
1u8d_lig

>  <RI>
0

>  <Rbt.Current_Directory>
/home/itssahil/PROJECTS/Mol_Feturizer/New_Systems/rnas/1u8d

>  <Rbt.Executable>
rbdock ($Id: //depot/dev/client3/rdock/2013.1/src/exe/rbdock.cxx#4 $)

>  <Rbt.Library>
libRbt.so (2013.1, Build901 2013/11/27)

>  <Rbt.Parameter_File>
/export/apps/rDock/src/rDock_2013.1_src/data/scripts/dock_solv.prm

>  <Rbt.Receptor>
prm/pocket_docking_8.prm

>  <SCORE>
-26.0418

>  <SCORE.INTER>
-26.0418

>  <SCORE.INTER.CONST>
1

>  <SCORE.INTER.POLAR>
-1.93632

>  <SCORE.INTER.ROT>
0

>  <SCORE.INTER.SOLV>
11.6741

>  <SCORE.INTER.VDW>
-18.3981

>  <SCORE.INTER.norm>
-2.60418

>  <SCORE.INTRA>
0

>  <SCORE.INTRA.DIHEDRAL>
0

>  <SCORE.INTRA.DIHEDRAL.0>
0

>  <SCORE.INTRA.POLAR>
0

>  <SCORE.INTRA.POLAR.0>
0

>  <SCORE.INTRA.REPUL>
0

>  <SCORE.INTRA.REPUL.0>
0

>  <SCORE.INTRA.SOLV>
0

>  <SCORE.INTRA.SOLV.lig_0>
-13.7928

>  <SCORE.INTRA.VDW>
0

>  <SCORE.INTRA.VDW.0>
0

>  <SCORE.INTRA.norm>
0

>  <SCORE.RESTR>
0

>  <SCORE.RESTR.CAVITY>
0

>  <SCORE.RESTR.norm>
0

>  <SCORE.SYSTEM>
0

>  <SCORE.SYSTEM.CONST>
0

>  <SCORE.SYSTEM.DIHEDRAL>
0

>  <SCORE.SYSTEM.SOLV>
0

>  <SCORE.SYSTEM.norm>
0

>  <SCORE.heavy>
10

>  <SCORE.norm>
-2.60418

>  <RMSD>
0.215

$$$$
1u8d_lig
 OpenBabel11021811413D
libRbt.so/2013.1/901 2013/11/27
 10 11  0  0  0  0  0  0  0  0999 V2000
   11.8033   10.5739    9.1948 N   0  0  0  0  0  0  0  0  0  0  0  0
   11.5998   11.9518    9.3814 C   0  0  0  0  0  0  0  0  0  0  0  0
   11.2891   12.8061    8.3732 N   0  0  0  0  0  0  0  0  0  0  0  0
   11.1946   12.1896    7.1751 C   0  0  0  0  0  0  0  0  0  0  0  0
   11.4082   10.7008    6.9078 C   0  0  0  0  0  0  0  0  0  0  0  0
   11.7296    9.8596    7.9842 C   0  0  0  0  0  0  0  0  0  0  0  0
   11.9354    8.6537    8.0006 O   0  0  0  0  0  0  0  0  0  0  0  0
   11.2196   10.5110    5.5663 N   0  0  0  0  0  0  0  0  0  0  0  0
   10.9072   11.7313    5.0188 C   0  0  0  0  0  0  0  0  0  0  0  0
   10.8844   12.7614    5.9553 N   0  0  0  0  0  0  0  0  0  0  0  0
  1  2  1  0  0  0  0
  1  6  1  0  0  0  0
  2  3  2  0  0  0  0
  3  4  1  0  0  0  0
  4  5  2  0  0  0  0
  4 10  1  0  0  0  0
  5  6  1  0  0  0  0
  5  8  1  0  0  0  0
  6  7  2  0  0  0  0
  8  9  1  0  0  0  0
  9 10  2  0  0  0  0
M  END
>  <CHROM.1>
11.40513301,11.13810564,7.36762948,0.22028661,-1.33561431,0.80237253

>  <Name>
1u8d_lig

>  <RI>
0

>  <Rbt.Current_Directory>
/home/itssahil/PROJECTS/Mol_Feturizer/New_Systems/rnas/1u8d

>  <Rbt.Executable>
rbdock ($Id: //depot/dev/client3/rdock/2013.1/src/exe/rbdock.cxx#4 $)

>  <Rbt.Library>
libRbt.so (2013.1, Build901 2013/11/27)

>  <Rbt.Parameter_File>
/export/apps/rDock/src/rDock_2013.1_src/data/scripts/dock_solv.prm

>  <Rbt.Receptor>
prm/pocket_docking_8.prm

>  <SCORE>
-26.0662

>  <SCORE.INTER>
-26.0662

>  <SCORE.INTER.CONST>
1

>  <SCORE.INTER.POLAR>
-1.93632

>  <SCORE.INTER.ROT>
0

>  <SCORE.INTER.SOLV>
11.6244

>  <SCORE.INTER.VDW>
-18.3979

>  <SCORE.INTER.norm>
-2.60662

>  <SCORE.INTRA>
0

>  <SCORE.INTRA.DIHEDRAL>
0

>  <SCORE.INTRA.DIHEDRAL.0>
0

>  <SCORE.INTRA.POLAR>
0

>  <SCORE.INTRA.POLAR.0>
0

>  <SCORE.INTRA.REPUL>
0

>  <SCORE.INTRA.REPUL.0>
0

>  <SCORE.INTRA.SOLV>
0

>  <SCORE.INTRA.SOLV.lig_0>
-13.7928

>  <SCORE.INTRA.VDW>
0

>  <SCORE.INTRA.VDW.0>
0

>  <SCORE.INTRA.norm>
0

>  <SCORE.RESTR>
0

>  <SCORE.RESTR.CAVITY>
0

>  <SCORE.RESTR.norm>
0

>  <SCORE.SYSTEM>
0

>  <SCORE.SYSTEM.CONST>
0

>  <SCORE.SYSTEM.DIHEDRAL>
0

>  <SCORE.SYSTEM.SOLV>
0

>  <SCORE.SYSTEM.norm>
0

>  <SCORE.heavy>
10

>  <SCORE.norm>
-2.60662

>  <RMSD>
0.215

$$$$
1u8d_lig
 OpenBabel11021811413D
libRbt.so/2013.1/901 2013/11/27
 10 11  0  0  0  0  0  0  0  0999 V2000
   11.6703   10.4836    9.1475 N   0  0  0  0  0  0  0  0  0  0  0  0
   11.3198   11.8317    9.3341 C   0  0  0  0  0  0  0  0  0  0  0  0
   10.9810   12.6648    8.3174 N   0  0  0  0  0  0  0  0  0  0  0  0
   11.0145   12.0589    7.1107 C   0  0  0  0  0  0  0  0  0  0  0  0
   11.3905   10.6026    6.8431 C   0  0  0  0  0  0  0  0  0  0  0  0
   11.7350    9.7825    7.9287 C   0  0  0  0  0  0  0  0  0  0  0  0
   12.0594    8.6030    7.9464 O   0  0  0  0  0  0  0  0  0  0  0  0
   11.2958   10.4138    5.4916 N   0  0  0  0  0  0  0  0  0  0  0  0
   10.8933   11.6046    4.9378 C   0  0  0  0  0  0  0  0  0  0  0  0
   10.7160   12.6140    5.8803 N   0  0  0  0  0  0  0  0  0  0  0  0
  1  2  1  0  0  0  0
  1  6  1  0  0  0  0
  2  3  2  0  0  0  0
  3  4  1  0  0  0  0
  4  5  2  0  0  0  0
  4 10  1  0  0  0  0
  5  6  1  0  0  0  0
  5  8  1  0  0  0  0
  6  7  2  0  0  0  0
  8  9  1  0  0  0  0
  9 10  2  0  0  0  0
M  END
>  <CHROM.1>
11.31845698,11.03093080,7.30574967,0.61145046,-1.28070177,1.19188027

>  <Name>
1u8d_lig

>  <RI>
0

>  <Rbt.Current_Directory>
/home/itssahil/PROJECTS/Mol_Feturizer/New_Systems/rnas/1u8d

>  <Rbt.Executable>
rbdock ($Id: //depot/dev/client3/rdock/2013.1/src/exe/rbdock.cxx#4 $)

>  <Rbt.Library>
libRbt.so (2013.1, Build901 2013/11/27)

>  <Rbt.Parameter_File>
/export/apps/rDock/src/rDock_2013.1_src/data/scripts/dock_solv.prm

>  <Rbt.Receptor>
prm/blind_docking_20.prm

>  <SCORE>
-25.7755

>  <SCORE.INTER>
-25.7761

>  <SCORE.INTER.CONST>
1

>  <SCORE.INTER.POLAR>
-1.93632

>  <SCORE.INTER.ROT>
0

>  <SCORE.INTER.SOLV>
11.6331

>  <SCORE.INTER.VDW>
-18.2074

>  <SCORE.INTER.norm>
-2.57761

>  <SCORE.INTRA>
0

>  <SCORE.INTRA.DIHEDRAL>
0

>  <SCORE.INTRA.DIHEDRAL.0>
0

>  <SCORE.INTRA.POLAR>
0

>  <SCORE.INTRA.POLAR.0>
0

>  <SCORE.INTRA.REPUL>
0

>  <SCORE.INTRA.REPUL.0>
0

>  <SCORE.INTRA.SOLV>
0

>  <SCORE.INTRA.SOLV.lig_0>
-13.7928

>  <SCORE.INTRA.VDW>
0

>  <SCORE.INTRA.VDW.0>
0

>  <SCORE.INTRA.norm>
0

>  <SCORE.RESTR>
0.000637186

>  <SCORE.RESTR.CAVITY>
0.000637186

>  <SCORE.RESTR.norm>
6.37186e-05

>  <SCORE.SYSTEM>
0

>  <SCORE.SYSTEM.CONST>
0

>  <SCORE.SYSTEM.DIHEDRAL>
0

>  <SCORE.SYSTEM.SOLV>
0

>  <SCORE.SYSTEM.norm>
0

>  <SCORE.heavy>
10

>  <SCORE.norm>
-2.57755

>  <RMSD>
0.216

$$$$
1u8d_lig
 OpenBabel11021811413D
libRbt.so/2013.1/901 2013/11/27
 10 11  0  0  0  0  0  0  0  0999 V2000
   11.6769   10.4753    9.1560 N   0  0  0  0  0  0  0  0  0  0  0  0
   11.3355   11.8260    9.3410 C   0  0  0  0  0  0  0  0  0  0  0  0
   10.9932   12.6577    8.3242 N   0  0  0  0  0  0  0  0  0  0  0  0
   11.0135   12.0475    7.1193 C   0  0  0  0  0  0  0  0  0  0  0  0
   11.3790   10.5882    6.8536 C   0  0  0  0  0  0  0  0  0  0  0  0
   11.7277    9.7698    7.9392 C   0  0  0  0  0  0  0  0  0  0  0  0
   12.0455    8.5886    7.9582 O   0  0  0  0  0  0  0  0  0  0  0  0
   11.2723   10.3955    5.5035 N   0  0  0  0  0  0  0  0  0  0  0  0
   10.8720   11.5867    4.9490 C   0  0  0  0  0  0  0  0  0  0  0  0
   10.7082   12.6002    5.8895 N   0  0  0  0  0  0  0  0  0  0  0  0
  1  2  1  0  0  0  0
  1  6  1  0  0  0  0
  2  3  2  0  0  0  0
  3  4  1  0  0  0  0
  4  5  2  0  0  0  0
  4 10  1  0  0  0  0
  5  6  1  0  0  0  0
  5  8  1  0  0  0  0
  6  7  2  0  0  0  0
  8  9  1  0  0  0  0
  9 10  2  0  0  0  0
M  END
>  <CHROM.1>
11.31317690,11.01852509,7.31539356,0.57752286,-1.28279350,1.15600141

>  <Name>
1u8d_lig

>  <RI>
0

>  <Rbt.Current_Directory>
/home/itssahil/PROJECTS/Mol_Feturizer/New_Systems/rnas/1u8d

>  <Rbt.Executable>
rbdock ($Id: //depot/dev/client3/rdock/2013.1/src/exe/rbdock.cxx#4 $)

>  <Rbt.Library>
libRbt.so (2013.1, Build901 2013/11/27)

>  <Rbt.Parameter_File>
/export/apps/rDock/src/rDock_2013.1_src/data/scripts/dock_solv.prm

>  <Rbt.Receptor>
prm/blind_docking_20.prm

>  <SCORE>
-25.7876

>  <SCORE.INTER>
-25.7884

>  <SCORE.INTER.CONST>
1

>  <SCORE.INTER.POLAR>
-1.93627

>  <SCORE.INTER.ROT>
0

>  <SCORE.INTER.SOLV>
11.6304

>  <SCORE.INTER.VDW>
-18.2148

>  <SCORE.INTER.norm>
-2.57884

>  <SCORE.INTRA>
0

>  <SCORE.INTRA.DIHEDRAL>
0

>  <SCORE.INTRA.DIHEDRAL.0>
0

>  <SCORE.INTRA.POLAR>
0

>  <SCORE.INTRA.POLAR.0>
0

>  <SCORE.INTRA.REPUL>
0

>  <SCORE.INTRA.REPUL.0>
0

>  <SCORE.INTRA.SOLV>
0

>  <SCORE.INTRA.SOLV.lig_0>
-13.7928

>  <SCORE.INTRA.VDW>
0

>  <SCORE.INTRA.VDW.0>
0

>  <SCORE.INTRA.norm>
0

>  <SCORE.RESTR>
0.000829883

>  <SCORE.RESTR.CAVITY>
0.000829883

>  <SCORE.RESTR.norm>
8.29883e-05

>  <SCORE.SYSTEM>
0

>  <SCORE.SYSTEM.CONST>
0

>  <SCORE.SYSTEM.DIHEDRAL>
0

>  <SCORE.SYSTEM.SOLV>
0

>  <SCORE.SYSTEM.norm>
0

>  <SCORE.heavy>
10

>  <SCORE.norm>
-2.57876

>  <RMSD>
0.216

$$$$
1u8d_lig
 OpenBabel11021811413D
libRbt.so/2013.1/901 2013/11/27
 10 11  0  0  0  0  0  0  0  0999 V2000
   11.7220   10.4785    9.2862 N   0  0  0  0  0  0  0  0  0  0  0  0
   11.4878   11.8492    9.4894 C   0  0  0  0  0  0  0  0  0  0  0  0
   11.1980   12.7160    8.4857 N   0  0  0  0  0  0  0  0  0  0  0  0
   11.1568   12.1196    7.2745 C   0  0  0  0  0  0  0  0  0  0  0  0
   11.4059   10.6397    6.9892 C   0  0  0  0  0  0  0  0  0  0  0  0
   11.7037    9.7848    8.0616 C   0  0  0  0  0  0  0  0  0  0  0  0
   11.9301    8.5826    8.0644 O   0  0  0  0  0  0  0  0  0  0  0  0
   11.2683   10.4708    5.6387 N   0  0  0  0  0  0  0  0  0  0  0  0
   10.9541   11.6954    5.1016 C   0  0  0  0  0  0  0  0  0  0  0  0
   10.8800   12.7079    6.0544 N   0  0  0  0  0  0  0  0  0  0  0  0
  1  2  1  0  0  0  0
  1  6  1  0  0  0  0
  2  3  2  0  0  0  0
  3  4  1  0  0  0  0
  4  5  2  0  0  0  0
  4 10  1  0  0  0  0
  5  6  1  0  0  0  0
  5  8  1  0  0  0  0
  6  7  2  0  0  0  0
  8  9  1  0  0  0  0
  9 10  2  0  0  0  0
M  END
>  <CHROM.1>
11.37889008,11.06856252,7.45611630,0.38905150,-1.34445358,0.98435797

>  <Name>
1u8d_lig

>  <RI>
0

>  <Rbt.Current_Directory>
/home/itssahil/PROJECTS/Mol_Feturizer/New_Systems/rnas/1u8d

>  <Rbt.Executable>
rbdock ($Id: //depot/dev/client3/rdock/2013.1/src/exe/rbdock.cxx#4 $)

>  <Rbt.Library>
libRbt.so (2013.1, Build901 2013/11/27)

>  <Rbt.Parameter_File>
/export/apps/rDock/src/rDock_2013.1_src/data/scripts/dock_solv.prm

>  <Rbt.Receptor>
prm/blind_docking_40.prm

>  <SCORE>
-26.1217

>  <SCORE.INTER>
-26.1217

>  <SCORE.INTER.CONST>
1

>  <SCORE.INTER.POLAR>
-1.93632

>  <SCORE.INTER.ROT>
0

>  <SCORE.INTER.SOLV>
11.6637

>  <SCORE.INTER.VDW>
-18.4479

>  <SCORE.INTER.norm>
-2.61217

>  <SCORE.INTRA>
0

>  <SCORE.INTRA.DIHEDRAL>
0

>  <SCORE.INTRA.DIHEDRAL.0>
0

>  <SCORE.INTRA.POLAR>
0

>  <SCORE.INTRA.POLAR.0>
0

>  <SCORE.INTRA.REPUL>
0

>  <SCORE.INTRA.REPUL.0>
0

>  <SCORE.INTRA.SOLV>
0

>  <SCORE.INTRA.SOLV.lig_0>
-13.7928

>  <SCORE.INTRA.VDW>
0

>  <SCORE.INTRA.VDW.0>
0

>  <SCORE.INTRA.norm>
0

>  <SCORE.RESTR>
0

>  <SCORE.RESTR.CAVITY>
0

>  <SCORE.RESTR.norm>
0

>  <SCORE.SYSTEM>
0

>  <SCORE.SYSTEM.CONST>
0

>  <SCORE.SYSTEM.DIHEDRAL>
0

>  <SCORE.SYSTEM.SOLV>
0

>  <SCORE.SYSTEM.norm>
0

>  <SCORE.heavy>
10

>  <SCORE.norm>
-2.61217

>  <RMSD>
0.216

$$$$
1u8d_lig
 OpenBabel11021811413D
libRbt.so/2013.1/901 2013/11/27
 10 11  0  0  0  0  0  0  0  0999 V2000
   11.7167   10.4730    9.2696 N   0  0  0  0  0  0  0  0  0  0  0  0
   11.4634   11.8382    9.4868 C   0  0  0  0  0  0  0  0  0  0  0  0
   11.1783   12.7146    8.4902 N   0  0  0  0  0  0  0  0  0  0  0  0
   11.1620   12.1336    7.2709 C   0  0  0  0  0  0  0  0  0  0  0  0
   11.4326   10.6605    6.9703 C   0  0  0  0  0  0  0  0  0  0  0  0
   11.7246    9.7953    8.0360 C   0  0  0  0  0  0  0  0  0  0  0  0
   11.9650    8.5957    8.0268 O   0  0  0  0  0  0  0  0  0  0  0  0
   11.3170   10.5077    5.6158 N   0  0  0  0  0  0  0  0  0  0  0  0
   10.9963   11.7354    5.0900 C   0  0  0  0  0  0  0  0  0  0  0  0
   10.8963   12.7345    6.0545 N   0  0  0  0  0  0  0  0  0  0  0  0
  1  2  1  0  0  0  0
  1  6  1  0  0  0  0
  2  3  2  0  0  0  0
  3  4  1  0  0  0  0
  4  5  2  0  0  0  0
  4 10  1  0  0  0  0
  5  6  1  0  0  0  0
  5  8  1  0  0  0  0
  6  7  2  0  0  0  0
  8  9  1  0  0  0  0
  9 10  2  0  0  0  0
M  END
>  <CHROM.1>
11.39370000,11.08292733,7.44227282,0.47198072,-1.34207935,1.07808371

>  <Name>
1u8d_lig

>  <RI>
0

>  <Rbt.Current_Directory>
/home/itssahil/PROJECTS/Mol_Feturizer/New_Systems/rnas/1u8d

>  <Rbt.Executable>
rbdock ($Id: //depot/dev/client3/rdock/2013.1/src/exe/rbdock.cxx#4 $)

>  <Rbt.Library>
libRbt.so (2013.1, Build901 2013/11/27)

>  <Rbt.Parameter_File>
/export/apps/rDock/src/rDock_2013.1_src/data/scripts/dock_solv.prm

>  <Rbt.Receptor>
prm/blind_docking_40.prm

>  <SCORE>
-26.1071

>  <SCORE.INTER>
-26.1071

>  <SCORE.INTER.CONST>
1

>  <SCORE.INTER.POLAR>
-1.93632

>  <SCORE.INTER.ROT>
0

>  <SCORE.INTER.SOLV>
11.6516

>  <SCORE.INTER.VDW>
-18.4342

>  <SCORE.INTER.norm>
-2.61071

>  <SCORE.INTRA>
0

>  <SCORE.INTRA.DIHEDRAL>
0

>  <SCORE.INTRA.DIHEDRAL.0>
0

>  <SCORE.INTRA.POLAR>
0

>  <SCORE.INTRA.POLAR.0>
0

>  <SCORE.INTRA.REPUL>
0

>  <SCORE.INTRA.REPUL.0>
0

>  <SCORE.INTRA.SOLV>
0

>  <SCORE.INTRA.SOLV.lig_0>
-13.7928

>  <SCORE.INTRA.VDW>
0

>  <SCORE.INTRA.VDW.0>
0

>  <SCORE.INTRA.norm>
0

>  <SCORE.RESTR>
0

>  <SCORE.RESTR.CAVITY>
0

>  <SCORE.RESTR.norm>
0

>  <SCORE.SYSTEM>
0

>  <SCORE.SYSTEM.CONST>
0

>  <SCORE.SYSTEM.DIHEDRAL>
0

>  <SCORE.SYSTEM.SOLV>
0

>  <SCORE.SYSTEM.norm>
0

>  <SCORE.heavy>
10

>  <SCORE.norm>
-2.61071

>  <RMSD>
0.216

$$$$
1u8d_lig
 OpenBabel11021811413D
libRbt.so/2013.1/901 2013/11/27
 10 11  0  0  0  0  0  0  0  0999 V2000
   11.7199   10.4798    9.2771 N   0  0  0  0  0  0  0  0  0  0  0  0
   11.4818   11.8487    9.4880 C   0  0  0  0  0  0  0  0  0  0  0  0
   11.1935   12.7212    8.4888 N   0  0  0  0  0  0  0  0  0  0  0  0
   11.1578   12.1323    7.2737 C   0  0  0  0  0  0  0  0  0  0  0  0
   11.4113   10.6547    6.9800 C   0  0  0  0  0  0  0  0  0  0  0  0
   11.7074    9.7939    8.0481 C   0  0  0  0  0  0  0  0  0  0  0  0
   11.9365    8.5921    8.0442 O   0  0  0  0  0  0  0  0  0  0  0  0
   11.2787   10.4940    5.6280 N   0  0  0  0  0  0  0  0  0  0  0  0
   10.9636   11.7212    5.0975 C   0  0  0  0  0  0  0  0  0  0  0  0
   10.8838   12.7275    6.0564 N   0  0  0  0  0  0  0  0  0  0  0  0
  1  2  1  0  0  0  0
  1  6  1  0  0  0  0
  2  3  2  0  0  0  0
  3  4  1  0  0  0  0
  4  5  2  0  0  0  0
  4 10  1  0  0  0  0
  5  6  1  0  0  0  0
  5  8  1  0  0  0  0
  6  7  2  0  0  0  0
  8  9  1  0  0  0  0
  9 10  2  0  0  0  0
M  END
>  <CHROM.1>
11.38168585,11.08063444,7.44949353,0.40740841,-1.34442514,1.00850641

>  <Name>
1u8d_lig

>  <RI>
0

>  <Rbt.Current_Directory>
/home/itssahil/PROJECTS/Mol_Feturizer/New_Systems/rnas/1u8d

>  <Rbt.Executable>
rbdock ($Id: //depot/dev/client3/rdock/2013.1/src/exe/rbdock.cxx#4 $)

>  <Rbt.Library>
libRbt.so (2013.1, Build901 2013/11/27)

>  <Rbt.Parameter_File>
/export/apps/rDock/src/rDock_2013.1_src/data/scripts/dock_solv.prm

>  <Rbt.Receptor>
prm/blind_docking_60.prm

>  <SCORE>
-26.1587

>  <SCORE.INTER>
-26.1587

>  <SCORE.INTER.CONST>
1

>  <SCORE.INTER.POLAR>
-1.93632

>  <SCORE.INTER.ROT>
0

>  <SCORE.INTER.SOLV>
11.6603

>  <SCORE.INTER.VDW>
-18.4715

>  <SCORE.INTER.norm>
-2.61587

>  <SCORE.INTRA>
0

>  <SCORE.INTRA.DIHEDRAL>
0

>  <SCORE.INTRA.DIHEDRAL.0>
0

>  <SCORE.INTRA.POLAR>
0

>  <SCORE.INTRA.POLAR.0>
0

>  <SCORE.INTRA.REPUL>
0

>  <SCORE.INTRA.REPUL.0>
0

>  <SCORE.INTRA.SOLV>
0

>  <SCORE.INTRA.SOLV.lig_0>
-13.7928

>  <SCORE.INTRA.VDW>
0

>  <SCORE.INTRA.VDW.0>
0

>  <SCORE.INTRA.norm>
0

>  <SCORE.RESTR>
0

>  <SCORE.RESTR.CAVITY>
0

>  <SCORE.RESTR.norm>
0

>  <SCORE.SYSTEM>
0

>  <SCORE.SYSTEM.CONST>
0

>  <SCORE.SYSTEM.DIHEDRAL>
0

>  <SCORE.SYSTEM.SOLV>
0

>  <SCORE.SYSTEM.norm>
0

>  <SCORE.heavy>
10

>  <SCORE.norm>
-2.61587

>  <RMSD>
0.216

$$$$
1u8d_lig
 OpenBabel11021811413D
libRbt.so/2013.1/901 2013/11/27
 10 11  0  0  0  0  0  0  0  0999 V2000
   11.7193   10.4857    9.2717 N   0  0  0  0  0  0  0  0  0  0  0  0
   11.4813   11.8538    9.4880 C   0  0  0  0  0  0  0  0  0  0  0  0
   11.1896   12.7295    8.4926 N   0  0  0  0  0  0  0  0  0  0  0  0
   11.1504   12.1446    7.2756 C   0  0  0  0  0  0  0  0  0  0  0  0
   11.4036   10.6682    6.9762 C   0  0  0  0  0  0  0  0  0  0  0  0
   11.7033    9.8039    8.0405 C   0  0  0  0  0  0  0  0  0  0  0  0
   11.9329    8.6022    8.0319 O   0  0  0  0  0  0  0  0  0  0  0  0
   11.2669   10.5119    5.6241 N   0  0  0  0  0  0  0  0  0  0  0  0
   10.9496   11.7407    5.0987 C   0  0  0  0  0  0  0  0  0  0  0  0
   10.8724   12.7438    6.0612 N   0  0  0  0  0  0  0  0  0  0  0  0
  1  2  1  0  0  0  0
  1  6  1  0  0  0  0
  2  3  2  0  0  0  0
  3  4  1  0  0  0  0
  4  5  2  0  0  0  0
  4 10  1  0  0  0  0
  5  6  1  0  0  0  0
  5  8  1  0  0  0  0
  6  7  2  0  0  0  0
  8  9  1  0  0  0  0
  9 10  2  0  0  0  0
M  END
>  <CHROM.1>
11.37523739,11.09247804,7.44723772,0.39688740,-1.34239737,1.00160022

>  <Name>
1u8d_lig

>  <RI>
0

>  <Rbt.Current_Directory>
/home/itssahil/PROJECTS/Mol_Feturizer/New_Systems/rnas/1u8d

>  <Rbt.Executable>
rbdock ($Id: //depot/dev/client3/rdock/2013.1/src/exe/rbdock.cxx#4 $)

>  <Rbt.Library>
libRbt.so (2013.1, Build901 2013/11/27)

>  <Rbt.Parameter_File>
/export/apps/rDock/src/rDock_2013.1_src/data/scripts/dock_solv.prm

>  <Rbt.Receptor>
prm/blind_docking_60.prm

>  <SCORE>
-26.1322

>  <SCORE.INTER>
-26.1322

>  <SCORE.INTER.CONST>
1

>  <SCORE.INTER.POLAR>
-1.93632

>  <SCORE.INTER.ROT>
0

>  <SCORE.INTER.SOLV>
11.6558

>  <SCORE.INTER.VDW>
-18.4523

>  <SCORE.INTER.norm>
-2.61322

>  <SCORE.INTRA>
0

>  <SCORE.INTRA.DIHEDRAL>
0

>  <SCORE.INTRA.DIHEDRAL.0>
0

>  <SCORE.INTRA.POLAR>
0

>  <SCORE.INTRA.POLAR.0>
0

>  <SCORE.INTRA.REPUL>
0

>  <SCORE.INTRA.REPUL.0>
0

>  <SCORE.INTRA.SOLV>
0

>  <SCORE.INTRA.SOLV.lig_0>
-13.7928

>  <SCORE.INTRA.VDW>
0

>  <SCORE.INTRA.VDW.0>
0

>  <SCORE.INTRA.norm>
0

>  <SCORE.RESTR>
0

>  <SCORE.RESTR.CAVITY>
0

>  <SCORE.RESTR.norm>
0

>  <SCORE.SYSTEM>
0

>  <SCORE.SYSTEM.CONST>
0

>  <SCORE.SYSTEM.DIHEDRAL>
0

>  <SCORE.SYSTEM.SOLV>
0

>  <SCORE.SYSTEM.norm>
0

>  <SCORE.heavy>
10

>  <SCORE.norm>
-2.61322

>  <RMSD>
0.216

$$$$
1u8d_lig
 OpenBabel11021811413D
libRbt.so/2013.1/901 2013/11/27
 10 11  0  0  0  0  0  0  0  0999 V2000
   11.7224   10.4768    9.2793 N   0  0  0  0  0  0  0  0  0  0  0  0
   11.4850   11.8463    9.4874 C   0  0  0  0  0  0  0  0  0  0  0  0
   11.1953   12.7164    8.4866 N   0  0  0  0  0  0  0  0  0  0  0  0
   11.1575   12.1247    7.2730 C   0  0  0  0  0  0  0  0  0  0  0  0
   11.4102   10.6464    6.9823 C   0  0  0  0  0  0  0  0  0  0  0  0
   11.7078    9.7880    8.0520 C   0  0  0  0  0  0  0  0  0  0  0  0
   11.9366    8.5862    8.0505 O   0  0  0  0  0  0  0  0  0  0  0  0
   11.2754   10.4825    5.6309 N   0  0  0  0  0  0  0  0  0  0  0  0
   10.9596   11.7085    5.0981 C   0  0  0  0  0  0  0  0  0  0  0  0
   10.8817   12.7171    6.0547 N   0  0  0  0  0  0  0  0  0  0  0  0
  1  2  1  0  0  0  0
  1  6  1  0  0  0  0
  2  3  2  0  0  0  0
  3  4  1  0  0  0  0
  4  5  2  0  0  0  0
  4 10  1  0  0  0  0
  5  6  1  0  0  0  0
  5  8  1  0  0  0  0
  6  7  2  0  0  0  0
  8  9  1  0  0  0  0
  9 10  2  0  0  0  0
M  END
>  <CHROM.1>
11.38142579,11.07339498,7.45087520,0.40085765,-1.34373873,0.99977233

>  <Name>
1u8d_lig

>  <RI>
0

>  <Rbt.Current_Directory>
/home/itssahil/PROJECTS/Mol_Feturizer/New_Systems/rnas/1u8d

>  <Rbt.Executable>
rbdock ($Id: //depot/dev/client3/rdock/2013.1/src/exe/rbdock.cxx#4 $)

>  <Rbt.Library>
libRbt.so (2013.1, Build901 2013/11/27)

>  <Rbt.Parameter_File>
/export/apps/rDock/src/rDock_2013.1_src/data/scripts/dock_solv.prm

>  <Rbt.Receptor>
prm/blind_docking_60.prm

>  <SCORE>
-26.1549

>  <SCORE.INTER>
-26.1549

>  <SCORE.INTER.CONST>
1

>  <SCORE.INTER.POLAR>
-1.93632

>  <SCORE.INTER.ROT>
0

>  <SCORE.INTER.SOLV>
11.6592

>  <SCORE.INTER.VDW>
-18.4686

>  <SCORE.INTER.norm>
-2.61549

>  <SCORE.INTRA>
0

>  <SCORE.INTRA.DIHEDRAL>
0

>  <SCORE.INTRA.DIHEDRAL.0>
0

>  <SCORE.INTRA.POLAR>
0

>  <SCORE.INTRA.POLAR.0>
0

>  <SCORE.INTRA.REPUL>
0

>  <SCORE.INTRA.REPUL.0>
0

>  <SCORE.INTRA.SOLV>
0

>  <SCORE.INTRA.SOLV.lig_0>
-13.7928

>  <SCORE.INTRA.VDW>
0

>  <SCORE.INTRA.VDW.0>
0

>  <SCORE.INTRA.norm>
0

>  <SCORE.RESTR>
0

>  <SCORE.RESTR.CAVITY>
0

>  <SCORE.RESTR.norm>
0

>  <SCORE.SYSTEM>
0

>  <SCORE.SYSTEM.CONST>
0

>  <SCORE.SYSTEM.DIHEDRAL>
0

>  <SCORE.SYSTEM.SOLV>
0

>  <SCORE.SYSTEM.norm>
0

>  <SCORE.heavy>
10

>  <SCORE.norm>
-2.61549

>  <RMSD>
0.216

$$$$
1u8d_lig
 OpenBabel11021811413D
libRbt.so/2013.1/901 2013/11/27
 10 11  0  0  0  0  0  0  0  0999 V2000
   11.7182   10.4797    9.2721 N   0  0  0  0  0  0  0  0  0  0  0  0
   11.4797   11.8478    9.4875 C   0  0  0  0  0  0  0  0  0  0  0  0
   11.1849   12.7222    8.4920 N   0  0  0  0  0  0  0  0  0  0  0  0
   11.1431   12.1362    7.2758 C   0  0  0  0  0  0  0  0  0  0  0  0
   11.3966   10.6596    6.9772 C   0  0  0  0  0  0  0  0  0  0  0  0
   11.6997    9.7966    8.0416 C   0  0  0  0  0  0  0  0  0  0  0  0
   11.9301    8.5951    8.0336 O   0  0  0  0  0  0  0  0  0  0  0  0
   11.2567   10.5019    5.6255 N   0  0  0  0  0  0  0  0  0  0  0  0
   10.9372   11.7299    5.0997 C   0  0  0  0  0  0  0  0  0  0  0  0
   10.8617   12.7339    6.0614 N   0  0  0  0  0  0  0  0  0  0  0  0
  1  2  1  0  0  0  0
  1  6  1  0  0  0  0
  2  3  2  0  0  0  0
  3  4  1  0  0  0  0
  4  5  2  0  0  0  0
  4 10  1  0  0  0  0
  5  6  1  0  0  0  0
  5  8  1  0  0  0  0
  6  7  2  0  0  0  0
  8  9  1  0  0  0  0
  9 10  2  0  0  0  0
M  END
>  <CHROM.1>
11.36915066,11.08432327,7.44784939,0.38947275,-1.34044647,0.99338089

>  <Name>
1u8d_lig

>  <RI>
0

>  <Rbt.Current_Directory>
/home/itssahil/PROJECTS/Mol_Feturizer/New_Systems/rnas/1u8d

>  <Rbt.Executable>
rbdock ($Id: //depot/dev/client3/rdock/2013.1/src/exe/rbdock.cxx#4 $)

>  <Rbt.Library>
libRbt.so (2013.1, Build901 2013/11/27)

>  <Rbt.Parameter_File>
/export/apps/rDock/src/rDock_2013.1_src/data/scripts/dock_solv.prm

>  <Rbt.Receptor>
prm/pocket_docking_3.prm

>  <SCORE>
-26.1277

>  <SCORE.INTER>
-26.1277

>  <SCORE.INTER.CONST>
1

>  <SCORE.INTER.POLAR>
-1.93632

>  <SCORE.INTER.ROT>
0

>  <SCORE.INTER.SOLV>
11.655

>  <SCORE.INTER.VDW>
-18.4491

>  <SCORE.INTER.norm>
-2.61277

>  <SCORE.INTRA>
0

>  <SCORE.INTRA.DIHEDRAL>
0

>  <SCORE.INTRA.DIHEDRAL.0>
0

>  <SCORE.INTRA.POLAR>
0

>  <SCORE.INTRA.POLAR.0>
0

>  <SCORE.INTRA.REPUL>
0

>  <SCORE.INTRA.REPUL.0>
0

>  <SCORE.INTRA.SOLV>
0

>  <SCORE.INTRA.SOLV.lig_0>
-13.7928

>  <SCORE.INTRA.VDW>
0

>  <SCORE.INTRA.VDW.0>
0

>  <SCORE.INTRA.norm>
0

>  <SCORE.RESTR>
0

>  <SCORE.RESTR.CAVITY>
0

>  <SCORE.RESTR.norm>
0

>  <SCORE.SYSTEM>
0

>  <SCORE.SYSTEM.CONST>
0

>  <SCORE.SYSTEM.DIHEDRAL>
0

>  <SCORE.SYSTEM.SOLV>
0

>  <SCORE.SYSTEM.norm>
0

>  <SCORE.heavy>
10

>  <SCORE.norm>
-2.61277

>  <RMSD>
0.216

$$$$
1u8d_lig
 OpenBabel11021811413D
libRbt.so/2013.1/901 2013/11/27
 10 11  0  0  0  0  0  0  0  0999 V2000
   11.8522   10.5225    9.1018 N   0  0  0  0  0  0  0  0  0  0  0  0
   11.5562   11.8842    9.2836 C   0  0  0  0  0  0  0  0  0  0  0  0
   11.1843   12.7110    8.2732 N   0  0  0  0  0  0  0  0  0  0  0  0
   11.1272   12.0842    7.0781 C   0  0  0  0  0  0  0  0  0  0  0  0
   11.4404   10.6121    6.8160 C   0  0  0  0  0  0  0  0  0  0  0  0
   11.8224    9.7995    7.8946 C   0  0  0  0  0  0  0  0  0  0  0  0
   12.1098    8.6104    7.9151 O   0  0  0  0  0  0  0  0  0  0  0  0
   11.2600   10.4040    5.4761 N   0  0  0  0  0  0  0  0  0  0  0  0
   10.8633   11.5979    4.9249 C   0  0  0  0  0  0  0  0  0  0  0  0
   10.7742   12.6281    5.8572 N   0  0  0  0  0  0  0  0  0  0  0  0
  1  2  1  0  0  0  0
  1  6  1  0  0  0  0
  2  3  2  0  0  0  0
  3  4  1  0  0  0  0
  4  5  2  0  0  0  0
  4 10  1  0  0  0  0
  5  6  1  0  0  0  0
  5  8  1  0  0  0  0
  6  7  2  0  0  0  0
  8  9  1  0  0  0  0
  9 10  2  0  0  0  0
M  END
>  <CHROM.1>
11.40949054,11.05026859,7.27406038,0.37619433,-1.28066239,0.94872515

>  <Name>
1u8d_lig

>  <RI>
0

>  <Rbt.Current_Directory>
/home/itssahil/PROJECTS/Mol_Feturizer/New_Systems/rnas/1u8d

>  <Rbt.Executable>
rbdock ($Id: //depot/dev/client3/rdock/2013.1/src/exe/rbdock.cxx#4 $)

>  <Rbt.Library>
libRbt.so (2013.1, Build901 2013/11/27)

>  <Rbt.Parameter_File>
/export/apps/rDock/src/rDock_2013.1_src/data/scripts/dock_solv.prm

>  <Rbt.Receptor>
prm/pocket_docking_3.prm

>  <SCORE>
-26.064

>  <SCORE.INTER>
-26.064

>  <SCORE.INTER.CONST>
1

>  <SCORE.INTER.POLAR>
-1.93632

>  <SCORE.INTER.ROT>
0

>  <SCORE.INTER.SOLV>
11.4669

>  <SCORE.INTER.VDW>
-18.3439

>  <SCORE.INTER.norm>
-2.6064

>  <SCORE.INTRA>
0

>  <SCORE.INTRA.DIHEDRAL>
0

>  <SCORE.INTRA.DIHEDRAL.0>
0

>  <SCORE.INTRA.POLAR>
0

>  <SCORE.INTRA.POLAR.0>
0

>  <SCORE.INTRA.REPUL>
0

>  <SCORE.INTRA.REPUL.0>
0

>  <SCORE.INTRA.SOLV>
0

>  <SCORE.INTRA.SOLV.lig_0>
-13.7928

>  <SCORE.INTRA.VDW>
0

>  <SCORE.INTRA.VDW.0>
0

>  <SCORE.INTRA.norm>
0

>  <SCORE.RESTR>
0

>  <SCORE.RESTR.CAVITY>
0

>  <SCORE.RESTR.norm>
0

>  <SCORE.SYSTEM>
0

>  <SCORE.SYSTEM.CONST>
0

>  <SCORE.SYSTEM.DIHEDRAL>
0

>  <SCORE.SYSTEM.SOLV>
0

>  <SCORE.SYSTEM.norm>
0

>  <SCORE.heavy>
10

>  <SCORE.norm>
-2.6064

>  <RMSD>
0.216

$$$$
1u8d_lig
 OpenBabel11021811413D
libRbt.so/2013.1/901 2013/11/27
 10 11  0  0  0  0  0  0  0  0999 V2000
   11.7230   10.4780    9.2806 N   0  0  0  0  0  0  0  0  0  0  0  0
   11.4845   11.8473    9.4885 C   0  0  0  0  0  0  0  0  0  0  0  0
   11.1962   12.7175    8.4873 N   0  0  0  0  0  0  0  0  0  0  0  0
   11.1611   12.1261    7.2735 C   0  0  0  0  0  0  0  0  0  0  0  0
   11.4151   10.6479    6.9830 C   0  0  0  0  0  0  0  0  0  0  0  0
   11.7111    9.7895    8.0530 C   0  0  0  0  0  0  0  0  0  0  0  0
   11.9405    8.5877    8.0517 O   0  0  0  0  0  0  0  0  0  0  0  0
   11.2830   10.4843    5.6313 N   0  0  0  0  0  0  0  0  0  0  0  0
   10.9676   11.7103    5.0981 C   0  0  0  0  0  0  0  0  0  0  0  0
   10.8873   12.7186    6.0549 N   0  0  0  0  0  0  0  0  0  0  0  0
  1  2  1  0  0  0  0
  1  6  1  0  0  0  0
  2  3  2  0  0  0  0
  3  4  1  0  0  0  0
  4  5  2  0  0  0  0
  4 10  1  0  0  0  0
  5  6  1  0  0  0  0
  5  8  1  0  0  0  0
  6  7  2  0  0  0  0
  8  9  1  0  0  0  0
  9 10  2  0  0  0  0
M  END
>  <CHROM.1>
11.38522612,11.07483040,7.45160894,0.40928914,-1.34434323,1.00821437

>  <Name>
1u8d_lig

>  <RI>
0

>  <Rbt.Current_Directory>
/home/itssahil/PROJECTS/Mol_Feturizer/New_Systems/rnas/1u8d

>  <Rbt.Executable>
rbdock ($Id: //depot/dev/client3/rdock/2013.1/src/exe/rbdock.cxx#4 $)

>  <Rbt.Library>
libRbt.so (2013.1, Build901 2013/11/27)

>  <Rbt.Parameter_File>
/export/apps/rDock/src/rDock_2013.1_src/data/scripts/dock_solv.prm

>  <Rbt.Receptor>
prm/pocket_docking_3.prm

>  <SCORE>
-26.152

>  <SCORE.INTER>
-26.152

>  <SCORE.INTER.CONST>
1

>  <SCORE.INTER.POLAR>
-1.93632

>  <SCORE.INTER.ROT>
0

>  <SCORE.INTER.SOLV>
11.6586

>  <SCORE.INTER.VDW>
-18.4664

>  <SCORE.INTER.norm>
-2.6152

>  <SCORE.INTRA>
0

>  <SCORE.INTRA.DIHEDRAL>
0

>  <SCORE.INTRA.DIHEDRAL.0>
0

>  <SCORE.INTRA.POLAR>
0

>  <SCORE.INTRA.POLAR.0>
0

>  <SCORE.INTRA.REPUL>
0

>  <SCORE.INTRA.REPUL.0>
0

>  <SCORE.INTRA.SOLV>
0

>  <SCORE.INTRA.SOLV.lig_0>
-13.7928

>  <SCORE.INTRA.VDW>
0

>  <SCORE.INTRA.VDW.0>
0

>  <SCORE.INTRA.norm>
0

>  <SCORE.RESTR>
0

>  <SCORE.RESTR.CAVITY>
0

>  <SCORE.RESTR.norm>
0

>  <SCORE.SYSTEM>
0

>  <SCORE.SYSTEM.CONST>
0

>  <SCORE.SYSTEM.DIHEDRAL>
0

>  <SCORE.SYSTEM.SOLV>
0

>  <SCORE.SYSTEM.norm>
0

>  <SCORE.heavy>
10

>  <SCORE.norm>
-2.6152

>  <RMSD>
0.216

$$$$
1u8d_lig
 OpenBabel11021811413D
libRbt.so/2013.1/901 2013/11/27
 10 11  0  0  0  0  0  0  0  0999 V2000
   11.7176   10.4804    9.2688 N   0  0  0  0  0  0  0  0  0  0  0  0
   11.4812   11.8495    9.4798 C   0  0  0  0  0  0  0  0  0  0  0  0
   11.1917   12.7220    8.4810 N   0  0  0  0  0  0  0  0  0  0  0  0
   11.1531   12.1328    7.2661 C   0  0  0  0  0  0  0  0  0  0  0  0
   11.4046   10.6549    6.9723 C   0  0  0  0  0  0  0  0  0  0  0  0
   11.7020    9.7941    8.0400 C   0  0  0  0  0  0  0  0  0  0  0  0
   11.9299    8.5921    8.0360 O   0  0  0  0  0  0  0  0  0  0  0  0
   11.2692   10.4940    5.6206 N   0  0  0  0  0  0  0  0  0  0  0  0
   10.9541   11.7213    5.0904 C   0  0  0  0  0  0  0  0  0  0  0  0
   10.8773   12.7280    6.0492 N   0  0  0  0  0  0  0  0  0  0  0  0
  1  2  1  0  0  0  0
  1  6  1  0  0  0  0
  2  3  2  0  0  0  0
  3  4  1  0  0  0  0
  4  5  2  0  0  0  0
  4 10  1  0  0  0  0
  5  6  1  0  0  0  0
  5  8  1  0  0  0  0
  6  7  2  0  0  0  0
  8  9  1  0  0  0  0
  9 10  2  0  0  0  0
M  END
>  <CHROM.1>
11.37632186,11.08099377,7.44175603,0.39775933,-1.34415339,0.99884355

>  <Name>
1u8d_lig

>  <RI>
0

>  <Rbt.Current_Directory>
/home/itssahil/PROJECTS/Mol_Feturizer/New_Systems/rnas/1u8d

>  <Rbt.Executable>
rbdock ($Id: //depot/dev/client3/rdock/2013.1/src/exe/rbdock.cxx#4 $)

>  <Rbt.Library>
libRbt.so (2013.1, Build901 2013/11/27)

>  <Rbt.Parameter_File>
/export/apps/rDock/src/rDock_2013.1_src/data/scripts/dock_solv.prm

>  <Rbt.Receptor>
prm/pocket_docking_4.prm

>  <SCORE>
-26.1419

>  <SCORE.INTER>
-26.1419

>  <SCORE.INTER.CONST>
1

>  <SCORE.INTER.POLAR>
-1.93632

>  <SCORE.INTER.ROT>
0

>  <SCORE.INTER.SOLV>
11.6646

>  <SCORE.INTER.VDW>
-18.4618

>  <SCORE.INTER.norm>
-2.61419

>  <SCORE.INTRA>
0

>  <SCORE.INTRA.DIHEDRAL>
0

>  <SCORE.INTRA.DIHEDRAL.0>
0

>  <SCORE.INTRA.POLAR>
0

>  <SCORE.INTRA.POLAR.0>
0

>  <SCORE.INTRA.REPUL>
0

>  <SCORE.INTRA.REPUL.0>
0

>  <SCORE.INTRA.SOLV>
0

>  <SCORE.INTRA.SOLV.lig_0>
-13.7928

>  <SCORE.INTRA.VDW>
0

>  <SCORE.INTRA.VDW.0>
0

>  <SCORE.INTRA.norm>
0

>  <SCORE.RESTR>
0

>  <SCORE.RESTR.CAVITY>
0

>  <SCORE.RESTR.norm>
0

>  <SCORE.SYSTEM>
0

>  <SCORE.SYSTEM.CONST>
0

>  <SCORE.SYSTEM.DIHEDRAL>
0

>  <SCORE.SYSTEM.SOLV>
0

>  <SCORE.SYSTEM.norm>
0

>  <SCORE.heavy>
10

>  <SCORE.norm>
-2.61419

>  <RMSD>
0.216

$$$$
1u8d_lig
 OpenBabel11021811413D
libRbt.so/2013.1/901 2013/11/27
 10 11  0  0  0  0  0  0  0  0999 V2000
   11.7147   10.4820    9.2680 N   0  0  0  0  0  0  0  0  0  0  0  0
   11.4776   11.8510    9.4793 C   0  0  0  0  0  0  0  0  0  0  0  0
   11.1894   12.7239    8.4804 N   0  0  0  0  0  0  0  0  0  0  0  0
   11.1526   12.1353    7.2652 C   0  0  0  0  0  0  0  0  0  0  0  0
   11.4050   10.6576    6.9710 C   0  0  0  0  0  0  0  0  0  0  0  0
   11.7011    9.7963    8.0388 C   0  0  0  0  0  0  0  0  0  0  0  0
   11.9294    8.5944    8.0346 O   0  0  0  0  0  0  0  0  0  0  0  0
   11.2716   10.4972    5.6191 N   0  0  0  0  0  0  0  0  0  0  0  0
   10.9570   11.7247    5.0891 C   0  0  0  0  0  0  0  0  0  0  0  0
   10.8784   12.7309    6.0482 N   0  0  0  0  0  0  0  0  0  0  0  0
  1  2  1  0  0  0  0
  1  6  1  0  0  0  0
  2  3  2  0  0  0  0
  3  4  1  0  0  0  0
  4  5  2  0  0  0  0
  4 10  1  0  0  0  0
  5  6  1  0  0  0  0
  5  8  1  0  0  0  0
  6  7  2  0  0  0  0
  8  9  1  0  0  0  0
  9 10  2  0  0  0  0
M  END
>  <CHROM.1>
11.37592419,11.08340506,7.44068208,0.40384234,-1.34469455,1.00522884

>  <Name>
1u8d_lig

>  <RI>
0

>  <Rbt.Current_Directory>
/home/itssahil/PROJECTS/Mol_Feturizer/New_Systems/rnas/1u8d

>  <Rbt.Executable>
rbdock ($Id: //depot/dev/client3/rdock/2013.1/src/exe/rbdock.cxx#4 $)

>  <Rbt.Library>
libRbt.so (2013.1, Build901 2013/11/27)

>  <Rbt.Parameter_File>
/export/apps/rDock/src/rDock_2013.1_src/data/scripts/dock_solv.prm

>  <Rbt.Receptor>
prm/pocket_docking_5.prm

>  <SCORE>
-26.1411

>  <SCORE.INTER>
-26.1411

>  <SCORE.INTER.CONST>
1

>  <SCORE.INTER.POLAR>
-1.93632

>  <SCORE.INTER.ROT>
0

>  <SCORE.INTER.SOLV>
11.6679

>  <SCORE.INTER.VDW>
-18.4623

>  <SCORE.INTER.norm>
-2.61411

>  <SCORE.INTRA>
0

>  <SCORE.INTRA.DIHEDRAL>
0

>  <SCORE.INTRA.DIHEDRAL.0>
0

>  <SCORE.INTRA.POLAR>
0

>  <SCORE.INTRA.POLAR.0>
0

>  <SCORE.INTRA.REPUL>
0

>  <SCORE.INTRA.REPUL.0>
0

>  <SCORE.INTRA.SOLV>
0

>  <SCORE.INTRA.SOLV.lig_0>
-13.7928

>  <SCORE.INTRA.VDW>
0

>  <SCORE.INTRA.VDW.0>
0

>  <SCORE.INTRA.norm>
0

>  <SCORE.RESTR>
0

>  <SCORE.RESTR.CAVITY>
0

>  <SCORE.RESTR.norm>
0

>  <SCORE.SYSTEM>
0

>  <SCORE.SYSTEM.CONST>
0

>  <SCORE.SYSTEM.DIHEDRAL>
0

>  <SCORE.SYSTEM.SOLV>
0

>  <SCORE.SYSTEM.norm>
0

>  <SCORE.heavy>
10

>  <SCORE.norm>
-2.61411

>  <RMSD>
0.216

$$$$
1u8d_lig
 OpenBabel11021811413D
libRbt.so/2013.1/901 2013/11/27
 10 11  0  0  0  0  0  0  0  0999 V2000
   11.7184   10.4905    9.2711 N   0  0  0  0  0  0  0  0  0  0  0  0
   11.4911   11.8631    9.4693 C   0  0  0  0  0  0  0  0  0  0  0  0
   11.2061   12.7279    8.4625 N   0  0  0  0  0  0  0  0  0  0  0  0
   11.1620   12.1274    7.2534 C   0  0  0  0  0  0  0  0  0  0  0  0
   11.4036   10.6452    6.9734 C   0  0  0  0  0  0  0  0  0  0  0  0
   11.6968    9.7927    8.0490 C   0  0  0  0  0  0  0  0  0  0  0  0
   11.9169    8.5892    8.0561 O   0  0  0  0  0  0  0  0  0  0  0  0
   11.2654   10.4723    5.6235 N   0  0  0  0  0  0  0  0  0  0  0  0
   10.9577   11.6965    5.0820 C   0  0  0  0  0  0  0  0  0  0  0  0
   10.8885   12.7127    6.0312 N   0  0  0  0  0  0  0  0  0  0  0  0
  1  2  1  0  0  0  0
  1  6  1  0  0  0  0
  2  3  2  0  0  0  0
  3  4  1  0  0  0  0
  4  5  2  0  0  0  0
  4 10  1  0  0  0  0
  5  6  1  0  0  0  0
  5  8  1  0  0  0  0
  6  7  2  0  0  0  0
  8  9  1  0  0  0  0
  9 10  2  0  0  0  0
M  END
>  <CHROM.1>
11.37869279,11.07587423,7.43880711,0.37691621,-1.34886003,0.96897512

>  <Name>
1u8d_lig

>  <RI>
0

>  <Rbt.Current_Directory>
/home/itssahil/PROJECTS/Mol_Feturizer/New_Systems/rnas/1u8d

>  <Rbt.Executable>
rbdock ($Id: //depot/dev/client3/rdock/2013.1/src/exe/rbdock.cxx#4 $)

>  <Rbt.Library>
libRbt.so (2013.1, Build901 2013/11/27)

>  <Rbt.Parameter_File>
/export/apps/rDock/src/rDock_2013.1_src/data/scripts/dock_solv.prm

>  <Rbt.Receptor>
prm/pocket_docking_6.prm

>  <SCORE>
-26.1119

>  <SCORE.INTER>
-26.1119

>  <SCORE.INTER.CONST>
1

>  <SCORE.INTER.POLAR>
-1.93632

>  <SCORE.INTER.ROT>
0

>  <SCORE.INTER.SOLV>
11.6815

>  <SCORE.INTER.VDW>
-18.4474

>  <SCORE.INTER.norm>
-2.61119

>  <SCORE.INTRA>
0

>  <SCORE.INTRA.DIHEDRAL>
0

>  <SCORE.INTRA.DIHEDRAL.0>
0

>  <SCORE.INTRA.POLAR>
0

>  <SCORE.INTRA.POLAR.0>
0

>  <SCORE.INTRA.REPUL>
0

>  <SCORE.INTRA.REPUL.0>
0

>  <SCORE.INTRA.SOLV>
0

>  <SCORE.INTRA.SOLV.lig_0>
-13.7928

>  <SCORE.INTRA.VDW>
0

>  <SCORE.INTRA.VDW.0>
0

>  <SCORE.INTRA.norm>
0

>  <SCORE.RESTR>
0

>  <SCORE.RESTR.CAVITY>
0

>  <SCORE.RESTR.norm>
0

>  <SCORE.SYSTEM>
0

>  <SCORE.SYSTEM.CONST>
0

>  <SCORE.SYSTEM.DIHEDRAL>
0

>  <SCORE.SYSTEM.SOLV>
0

>  <SCORE.SYSTEM.norm>
0

>  <SCORE.heavy>
10

>  <SCORE.norm>
-2.61119

>  <RMSD>
0.216

$$$$
1u8d_lig
 OpenBabel11021811413D
libRbt.so/2013.1/901 2013/11/27
 10 11  0  0  0  0  0  0  0  0999 V2000
   11.7210   10.4757    9.2785 N   0  0  0  0  0  0  0  0  0  0  0  0
   11.4837   11.8450    9.4879 C   0  0  0  0  0  0  0  0  0  0  0  0
   11.1927   12.7159    8.4882 N   0  0  0  0  0  0  0  0  0  0  0  0
   11.1535   12.1252    7.2741 C   0  0  0  0  0  0  0  0  0  0  0  0
   11.4059   10.6471    6.9820 C   0  0  0  0  0  0  0  0  0  0  0  0
   11.7049    9.7879    8.0506 C   0  0  0  0  0  0  0  0  0  0  0  0
   11.9338    8.5860    8.0479 O   0  0  0  0  0  0  0  0  0  0  0  0
   11.2694   10.4843    5.6306 N   0  0  0  0  0  0  0  0  0  0  0  0
   10.9529   11.7107    5.0992 C   0  0  0  0  0  0  0  0  0  0  0  0
   10.8761   12.7185    6.0567 N   0  0  0  0  0  0  0  0  0  0  0  0
  1  2  1  0  0  0  0
  1  6  1  0  0  0  0
  2  3  2  0  0  0  0
  3  4  1  0  0  0  0
  4  5  2  0  0  0  0
  4 10  1  0  0  0  0
  5  6  1  0  0  0  0
  5  8  1  0  0  0  0
  6  7  2  0  0  0  0
  8  9  1  0  0  0  0
  9 10  2  0  0  0  0
M  END
>  <CHROM.1>
11.37768427,11.07372143,7.45092856,0.39630895,-1.34302572,0.99612469

>  <Name>
1u8d_lig

>  <RI>
0

>  <Rbt.Current_Directory>
/home/itssahil/PROJECTS/Mol_Feturizer/New_Systems/rnas/1u8d

>  <Rbt.Executable>
rbdock ($Id: //depot/dev/client3/rdock/2013.1/src/exe/rbdock.cxx#4 $)

>  <Rbt.Library>
libRbt.so (2013.1, Build901 2013/11/27)

>  <Rbt.Parameter_File>
/export/apps/rDock/src/rDock_2013.1_src/data/scripts/dock_solv.prm

>  <Rbt.Receptor>
prm/pocket_docking_7.prm

>  <SCORE>
-26.1558

>  <SCORE.INTER>
-26.1558

>  <SCORE.INTER.CONST>
1

>  <SCORE.INTER.POLAR>
-1.93632

>  <SCORE.INTER.ROT>
0

>  <SCORE.INTER.SOLV>
11.659

>  <SCORE.INTER.VDW>
-18.4691

>  <SCORE.INTER.norm>
-2.61558

>  <SCORE.INTRA>
0

>  <SCORE.INTRA.DIHEDRAL>
0

>  <SCORE.INTRA.DIHEDRAL.0>
0

>  <SCORE.INTRA.POLAR>
0

>  <SCORE.INTRA.POLAR.0>
0

>  <SCORE.INTRA.REPUL>
0

>  <SCORE.INTRA.REPUL.0>
0

>  <SCORE.INTRA.SOLV>
0

>  <SCORE.INTRA.SOLV.lig_0>
-13.7928

>  <SCORE.INTRA.VDW>
0

>  <SCORE.INTRA.VDW.0>
0

>  <SCORE.INTRA.norm>
0

>  <SCORE.RESTR>
0

>  <SCORE.RESTR.CAVITY>
0

>  <SCORE.RESTR.norm>
0

>  <SCORE.SYSTEM>
0

>  <SCORE.SYSTEM.CONST>
0

>  <SCORE.SYSTEM.DIHEDRAL>
0

>  <SCORE.SYSTEM.SOLV>
0

>  <SCORE.SYSTEM.norm>
0

>  <SCORE.heavy>
10

>  <SCORE.norm>
-2.61558

>  <RMSD>
0.216

$$$$
1u8d_lig
 OpenBabel11021811413D
libRbt.so/2013.1/901 2013/11/27
 10 11  0  0  0  0  0  0  0  0999 V2000
   11.7278   10.4851    9.2777 N   0  0  0  0  0  0  0  0  0  0  0  0
   11.4932   11.8537    9.4942 C   0  0  0  0  0  0  0  0  0  0  0  0
   11.1953   12.7287    8.5000 N   0  0  0  0  0  0  0  0  0  0  0  0
   11.1463   12.1426    7.2840 C   0  0  0  0  0  0  0  0  0  0  0  0
   11.3954   10.6654    6.9844 C   0  0  0  0  0  0  0  0  0  0  0  0
   11.7018    9.8019    8.0474 C   0  0  0  0  0  0  0  0  0  0  0  0
   11.9297    8.5999    8.0384 O   0  0  0  0  0  0  0  0  0  0  0  0
   11.2485   10.5079    5.6335 N   0  0  0  0  0  0  0  0  0  0  0  0
   10.9289   11.7365    5.1091 C   0  0  0  0  0  0  0  0  0  0  0  0
   10.8602   12.7408    6.0710 N   0  0  0  0  0  0  0  0  0  0  0  0
  1  2  1  0  0  0  0
  1  6  1  0  0  0  0
  2  3  2  0  0  0  0
  3  4  1  0  0  0  0
  4  5  2  0  0  0  0
  4 10  1  0  0  0  0
  5  6  1  0  0  0  0
  5  8  1  0  0  0  0
  6  7  2  0  0  0  0
  8  9  1  0  0  0  0
  9 10  2  0  0  0  0
M  END
>  <CHROM.1>
11.37107052,11.09029944,7.45513719,0.36657175,-1.33944261,0.97097427

>  <Name>
1u8d_lig

>  <RI>
0

>  <Rbt.Current_Directory>
/home/itssahil/PROJECTS/Mol_Feturizer/New_Systems/rnas/1u8d

>  <Rbt.Executable>
rbdock ($Id: //depot/dev/client3/rdock/2013.1/src/exe/rbdock.cxx#4 $)

>  <Rbt.Library>
libRbt.so (2013.1, Build901 2013/11/27)

>  <Rbt.Parameter_File>
/export/apps/rDock/src/rDock_2013.1_src/data/scripts/dock_solv.prm

>  <Rbt.Receptor>
prm/pocket_docking_7.prm

>  <SCORE>
-26.1243

>  <SCORE.INTER>
-26.1243

>  <SCORE.INTER.CONST>
1

>  <SCORE.INTER.POLAR>
-1.93632

>  <SCORE.INTER.ROT>
0

>  <SCORE.INTER.SOLV>
11.6443

>  <SCORE.INTER.VDW>
-18.4432

>  <SCORE.INTER.norm>
-2.61243

>  <SCORE.INTRA>
0

>  <SCORE.INTRA.DIHEDRAL>
0

>  <SCORE.INTRA.DIHEDRAL.0>
0

>  <SCORE.INTRA.POLAR>
0

>  <SCORE.INTRA.POLAR.0>
0

>  <SCORE.INTRA.REPUL>
0

>  <SCORE.INTRA.REPUL.0>
0

>  <SCORE.INTRA.SOLV>
0

>  <SCORE.INTRA.SOLV.lig_0>
-13.7928

>  <SCORE.INTRA.VDW>
0

>  <SCORE.INTRA.VDW.0>
0

>  <SCORE.INTRA.norm>
0

>  <SCORE.RESTR>
0

>  <SCORE.RESTR.CAVITY>
0

>  <SCORE.RESTR.norm>
0

>  <SCORE.SYSTEM>
0

>  <SCORE.SYSTEM.CONST>
0

>  <SCORE.SYSTEM.DIHEDRAL>
0

>  <SCORE.SYSTEM.SOLV>
0

>  <SCORE.SYSTEM.norm>
0

>  <SCORE.heavy>
10

>  <SCORE.norm>
-2.61243

>  <RMSD>
0.216

$$$$
1u8d_lig
 OpenBabel11021811413D
libRbt.so/2013.1/901 2013/11/27
 10 11  0  0  0  0  0  0  0  0999 V2000
   11.7146   10.4724    9.2772 N   0  0  0  0  0  0  0  0  0  0  0  0
   11.4743   11.8409    9.4876 C   0  0  0  0  0  0  0  0  0  0  0  0
   11.1825   12.7121    8.4883 N   0  0  0  0  0  0  0  0  0  0  0  0
   11.1457   12.1224    7.2737 C   0  0  0  0  0  0  0  0  0  0  0  0
   11.4015   10.6451    6.9805 C   0  0  0  0  0  0  0  0  0  0  0  0
   11.7012    9.7855    8.0487 C   0  0  0  0  0  0  0  0  0  0  0  0
   11.9325    8.5842    8.0452 O   0  0  0  0  0  0  0  0  0  0  0  0
   11.2667   10.4832    5.6289 N   0  0  0  0  0  0  0  0  0  0  0  0
   10.9482   11.7094    5.0981 C   0  0  0  0  0  0  0  0  0  0  0  0
   10.8684   12.7162    6.0565 N   0  0  0  0  0  0  0  0  0  0  0  0
  1  2  1  0  0  0  0
  1  6  1  0  0  0  0
  2  3  2  0  0  0  0
  3  4  1  0  0  0  0
  4  5  2  0  0  0  0
  4 10  1  0  0  0  0
  5  6  1  0  0  0  0
  5  8  1  0  0  0  0
  6  7  2  0  0  0  0
  8  9  1  0  0  0  0
  9 10  2  0  0  0  0
M  END
>  <CHROM.1>
11.37191501,11.07123210,7.44978871,0.40500378,-1.34182656,1.00546587

>  <Name>
1u8d_lig

>  <RI>
0

>  <Rbt.Current_Directory>
/home/itssahil/PROJECTS/Mol_Feturizer/New_Systems/rnas/1u8d

>  <Rbt.Executable>
rbdock ($Id: //depot/dev/client3/rdock/2013.1/src/exe/rbdock.cxx#4 $)

>  <Rbt.Library>
libRbt.so (2013.1, Build901 2013/11/27)

>  <Rbt.Parameter_File>
/export/apps/rDock/src/rDock_2013.1_src/data/scripts/dock_solv.prm

>  <Rbt.Receptor>
prm/pocket_docking_8.prm

>  <SCORE>
-26.1498

>  <SCORE.INTER>
-26.1498

>  <SCORE.INTER.CONST>
1

>  <SCORE.INTER.POLAR>
-1.93632

>  <SCORE.INTER.ROT>
0

>  <SCORE.INTER.SOLV>
11.663

>  <SCORE.INTER.VDW>
-18.4665

>  <SCORE.INTER.norm>
-2.61498

>  <SCORE.INTRA>
0

>  <SCORE.INTRA.DIHEDRAL>
0

>  <SCORE.INTRA.DIHEDRAL.0>
0

>  <SCORE.INTRA.POLAR>
0

>  <SCORE.INTRA.POLAR.0>
0

>  <SCORE.INTRA.REPUL>
0

>  <SCORE.INTRA.REPUL.0>
0

>  <SCORE.INTRA.SOLV>
0

>  <SCORE.INTRA.SOLV.lig_0>
-13.7928

>  <SCORE.INTRA.VDW>
0

>  <SCORE.INTRA.VDW.0>
0

>  <SCORE.INTRA.norm>
0

>  <SCORE.RESTR>
0

>  <SCORE.RESTR.CAVITY>
0

>  <SCORE.RESTR.norm>
0

>  <SCORE.SYSTEM>
0

>  <SCORE.SYSTEM.CONST>
0

>  <SCORE.SYSTEM.DIHEDRAL>
0

>  <SCORE.SYSTEM.SOLV>
0

>  <SCORE.SYSTEM.norm>
0

>  <SCORE.heavy>
10

>  <SCORE.norm>
-2.61498

>  <RMSD>
0.216

$$$$
1u8d_lig
 OpenBabel11021811413D
libRbt.so/2013.1/901 2013/11/27
 10 11  0  0  0  0  0  0  0  0999 V2000
   11.7210   10.4838    9.2717 N   0  0  0  0  0  0  0  0  0  0  0  0
   11.4845   11.8520    9.4886 C   0  0  0  0  0  0  0  0  0  0  0  0
   11.1913   12.7281    8.4939 N   0  0  0  0  0  0  0  0  0  0  0  0
   11.1491   12.1434    7.2770 C   0  0  0  0  0  0  0  0  0  0  0  0
   11.4006   10.6668    6.9769 C   0  0  0  0  0  0  0  0  0  0  0  0
   11.7019    9.8022    8.0404 C   0  0  0  0  0  0  0  0  0  0  0  0
   11.9306    8.6003    8.0311 O   0  0  0  0  0  0  0  0  0  0  0  0
   11.2609   10.5109    5.6250 N   0  0  0  0  0  0  0  0  0  0  0  0
   10.9434   11.7399    5.1005 C   0  0  0  0  0  0  0  0  0  0  0  0
   10.8690   12.7430    6.0633 N   0  0  0  0  0  0  0  0  0  0  0  0
  1  2  1  0  0  0  0
  1  6  1  0  0  0  0
  2  3  2  0  0  0  0
  3  4  1  0  0  0  0
  4  5  2  0  0  0  0
  4 10  1  0  0  0  0
  5  6  1  0  0  0  0
  5  8  1  0  0  0  0
  6  7  2  0  0  0  0
  8  9  1  0  0  0  0
  9 10  2  0  0  0  0
M  END
>  <CHROM.1>
11.37354943,11.09107468,7.44802147,0.38728201,-1.34188250,0.99237539

>  <Name>
1u8d_lig

>  <RI>
0

>  <Rbt.Current_Directory>
/home/itssahil/PROJECTS/Mol_Feturizer/New_Systems/rnas/1u8d

>  <Rbt.Executable>
rbdock ($Id: //depot/dev/client3/rdock/2013.1/src/exe/rbdock.cxx#4 $)

>  <Rbt.Library>
libRbt.so (2013.1, Build901 2013/11/27)

>  <Rbt.Parameter_File>
/export/apps/rDock/src/rDock_2013.1_src/data/scripts/dock_solv.prm

>  <Rbt.Receptor>
prm/blind_docking_40.prm

>  <SCORE>
-26.1327

>  <SCORE.INTER>
-26.1327

>  <SCORE.INTER.CONST>
1

>  <SCORE.INTER.POLAR>
-1.93632

>  <SCORE.INTER.ROT>
0

>  <SCORE.INTER.SOLV>
11.6536

>  <SCORE.INTER.VDW>
-18.4519

>  <SCORE.INTER.norm>
-2.61327

>  <SCORE.INTRA>
0

>  <SCORE.INTRA.DIHEDRAL>
0

>  <SCORE.INTRA.DIHEDRAL.0>
0

>  <SCORE.INTRA.POLAR>
0

>  <SCORE.INTRA.POLAR.0>
0

>  <SCORE.INTRA.REPUL>
0

>  <SCORE.INTRA.REPUL.0>
0

>  <SCORE.INTRA.SOLV>
0

>  <SCORE.INTRA.SOLV.lig_0>
-13.7928

>  <SCORE.INTRA.VDW>
0

>  <SCORE.INTRA.VDW.0>
0

>  <SCORE.INTRA.norm>
0

>  <SCORE.RESTR>
0

>  <SCORE.RESTR.CAVITY>
0

>  <SCORE.RESTR.norm>
0

>  <SCORE.SYSTEM>
0

>  <SCORE.SYSTEM.CONST>
0

>  <SCORE.SYSTEM.DIHEDRAL>
0

>  <SCORE.SYSTEM.SOLV>
0

>  <SCORE.SYSTEM.norm>
0

>  <SCORE.heavy>
10

>  <SCORE.norm>
-2.61327

>  <RMSD>
0.217

$$$$
1u8d_lig
 OpenBabel11021811413D
libRbt.so/2013.1/901 2013/11/27
 10 11  0  0  0  0  0  0  0  0999 V2000
   11.7187   10.4722    9.2685 N   0  0  0  0  0  0  0  0  0  0  0  0
   11.4779   11.8398    9.4842 C   0  0  0  0  0  0  0  0  0  0  0  0
   11.1866   12.7150    8.4882 N   0  0  0  0  0  0  0  0  0  0  0  0
   11.1510   12.1301    7.2712 C   0  0  0  0  0  0  0  0  0  0  0  0
   11.4074   10.6541    6.9723 C   0  0  0  0  0  0  0  0  0  0  0  0
   11.7065    9.7903    8.0372 C   0  0  0  0  0  0  0  0  0  0  0  0
   11.9382    8.5890    8.0290 O   0  0  0  0  0  0  0  0  0  0  0  0
   11.2738   10.4976    5.6199 N   0  0  0  0  0  0  0  0  0  0  0  0
   10.9554   11.7258    5.0938 C   0  0  0  0  0  0  0  0  0  0  0  0
   10.8745   12.7288    6.0562 N   0  0  0  0  0  0  0  0  0  0  0  0
  1  2  1  0  0  0  0
  1  6  1  0  0  0  0
  2  3  2  0  0  0  0
  3  4  1  0  0  0  0
  4  5  2  0  0  0  0
  4 10  1  0  0  0  0
  5  6  1  0  0  0  0
  5  8  1  0  0  0  0
  6  7  2  0  0  0  0
  8  9  1  0  0  0  0
  9 10  2  0  0  0  0
M  END
>  <CHROM.1>
11.37733507,11.07831771,7.44324434,0.40870507,-1.34202541,1.01311360

>  <Name>
1u8d_lig

>  <RI>
0

>  <Rbt.Current_Directory>
/home/itssahil/PROJECTS/Mol_Feturizer/New_Systems/rnas/1u8d

>  <Rbt.Executable>
rbdock ($Id: //depot/dev/client3/rdock/2013.1/src/exe/rbdock.cxx#4 $)

>  <Rbt.Library>
libRbt.so (2013.1, Build901 2013/11/27)

>  <Rbt.Parameter_File>
/export/apps/rDock/src/rDock_2013.1_src/data/scripts/dock_solv.prm

>  <Rbt.Receptor>
prm/blind_docking_60.prm

>  <SCORE>
-26.1395

>  <SCORE.INTER>
-26.1395

>  <SCORE.INTER.CONST>
1

>  <SCORE.INTER.POLAR>
-1.93632

>  <SCORE.INTER.ROT>
0

>  <SCORE.INTER.SOLV>
11.6558

>  <SCORE.INTER.VDW>
-18.4572

>  <SCORE.INTER.norm>
-2.61395

>  <SCORE.INTRA>
0

>  <SCORE.INTRA.DIHEDRAL>
0

>  <SCORE.INTRA.DIHEDRAL.0>
0

>  <SCORE.INTRA.POLAR>
0

>  <SCORE.INTRA.POLAR.0>
0

>  <SCORE.INTRA.REPUL>
0

>  <SCORE.INTRA.REPUL.0>
0

>  <SCORE.INTRA.SOLV>
0

>  <SCORE.INTRA.SOLV.lig_0>
-13.7928

>  <SCORE.INTRA.VDW>
0

>  <SCORE.INTRA.VDW.0>
0

>  <SCORE.INTRA.norm>
0

>  <SCORE.RESTR>
0

>  <SCORE.RESTR.CAVITY>
0

>  <SCORE.RESTR.norm>
0

>  <SCORE.SYSTEM>
0

>  <SCORE.SYSTEM.CONST>
0

>  <SCORE.SYSTEM.DIHEDRAL>
0

>  <SCORE.SYSTEM.SOLV>
0

>  <SCORE.SYSTEM.norm>
0

>  <SCORE.heavy>
10

>  <SCORE.norm>
-2.61395

>  <RMSD>
0.217

$$$$
1u8d_lig
 OpenBabel11021811413D
libRbt.so/2013.1/901 2013/11/27
 10 11  0  0  0  0  0  0  0  0999 V2000
   11.7024   10.4795    9.2803 N   0  0  0  0  0  0  0  0  0  0  0  0
   11.4556   11.8465    9.4936 C   0  0  0  0  0  0  0  0  0  0  0  0
   11.1714   12.7208    8.4948 N   0  0  0  0  0  0  0  0  0  0  0  0
   11.1490   12.1358    7.2776 C   0  0  0  0  0  0  0  0  0  0  0  0
   11.4124   10.6605    6.9812 C   0  0  0  0  0  0  0  0  0  0  0  0
   11.7037    9.7976    8.0490 C   0  0  0  0  0  0  0  0  0  0  0  0
   11.9389    8.5970    8.0431 O   0  0  0  0  0  0  0  0  0  0  0  0
   11.2920   10.5036    5.6276 N   0  0  0  0  0  0  0  0  0  0  0  0
   10.9752   11.7309    5.0985 C   0  0  0  0  0  0  0  0  0  0  0  0
   10.8823   12.7337    6.0600 N   0  0  0  0  0  0  0  0  0  0  0  0
  1  2  1  0  0  0  0
  1  6  1  0  0  0  0
  2  3  2  0  0  0  0
  3  4  1  0  0  0  0
  4  5  2  0  0  0  0
  4 10  1  0  0  0  0
  5  6  1  0  0  0  0
  5  8  1  0  0  0  0
  6  7  2  0  0  0  0
  8  9  1  0  0  0  0
  9 10  2  0  0  0  0
M  END
>  <CHROM.1>
11.37664606,11.08467556,7.45185164,0.45124500,-1.34447240,1.05451166

>  <Name>
1u8d_lig

>  <RI>
0

>  <Rbt.Current_Directory>
/home/itssahil/PROJECTS/Mol_Feturizer/New_Systems/rnas/1u8d

>  <Rbt.Executable>
rbdock ($Id: //depot/dev/client3/rdock/2013.1/src/exe/rbdock.cxx#4 $)

>  <Rbt.Library>
libRbt.so (2013.1, Build901 2013/11/27)

>  <Rbt.Parameter_File>
/export/apps/rDock/src/rDock_2013.1_src/data/scripts/dock_solv.prm

>  <Rbt.Receptor>
prm/blind_docking_60.prm

>  <SCORE>
-26.0953

>  <SCORE.INTER>
-26.0953

>  <SCORE.INTER.CONST>
1

>  <SCORE.INTER.POLAR>
-1.93632

>  <SCORE.INTER.ROT>
0

>  <SCORE.INTER.SOLV>
11.6723

>  <SCORE.INTER.VDW>
-18.4332

>  <SCORE.INTER.norm>
-2.60953

>  <SCORE.INTRA>
0

>  <SCORE.INTRA.DIHEDRAL>
0

>  <SCORE.INTRA.DIHEDRAL.0>
0

>  <SCORE.INTRA.POLAR>
0

>  <SCORE.INTRA.POLAR.0>
0

>  <SCORE.INTRA.REPUL>
0

>  <SCORE.INTRA.REPUL.0>
0

>  <SCORE.INTRA.SOLV>
0

>  <SCORE.INTRA.SOLV.lig_0>
-13.7928

>  <SCORE.INTRA.VDW>
0

>  <SCORE.INTRA.VDW.0>
0

>  <SCORE.INTRA.norm>
0

>  <SCORE.RESTR>
0

>  <SCORE.RESTR.CAVITY>
0

>  <SCORE.RESTR.norm>
0

>  <SCORE.SYSTEM>
0

>  <SCORE.SYSTEM.CONST>
0

>  <SCORE.SYSTEM.DIHEDRAL>
0

>  <SCORE.SYSTEM.SOLV>
0

>  <SCORE.SYSTEM.norm>
0

>  <SCORE.heavy>
10

>  <SCORE.norm>
-2.60953

>  <RMSD>
0.217

$$$$
1u8d_lig
 OpenBabel11021811413D
libRbt.so/2013.1/901 2013/11/27
 10 11  0  0  0  0  0  0  0  0999 V2000
   11.6856   10.5248    9.2715 N   0  0  0  0  0  0  0  0  0  0  0  0
   11.4321   11.8905    9.4847 C   0  0  0  0  0  0  0  0  0  0  0  0
   11.1619   12.7670    8.4840 N   0  0  0  0  0  0  0  0  0  0  0  0
   11.1606   12.1855    7.2649 C   0  0  0  0  0  0  0  0  0  0  0  0
   11.4323   10.7116    6.9686 C   0  0  0  0  0  0  0  0  0  0  0  0
   11.7085    9.8464    8.0385 C   0  0  0  0  0  0  0  0  0  0  0  0
   11.9466    8.6464    8.0330 O   0  0  0  0  0  0  0  0  0  0  0  0
   11.3342   10.5584    5.6128 N   0  0  0  0  0  0  0  0  0  0  0  0
   11.0230   11.7864    5.0821 C   0  0  0  0  0  0  0  0  0  0  0  0
   10.9122   12.7862    6.0448 N   0  0  0  0  0  0  0  0  0  0  0  0
  1  2  1  0  0  0  0
  1  6  1  0  0  0  0
  2  3  2  0  0  0  0
  3  4  1  0  0  0  0
  4  5  2  0  0  0  0
  4 10  1  0  0  0  0
  5  6  1  0  0  0  0
  5  8  1  0  0  0  0
  6  7  2  0  0  0  0
  8  9  1  0  0  0  0
  9 10  2  0  0  0  0
M  END
>  <CHROM.1>
11.38794448,11.13437919,7.43981370,0.52095771,-1.34981485,1.12534961

>  <Name>
1u8d_lig

>  <RI>
0

>  <Rbt.Current_Directory>
/home/itssahil/PROJECTS/Mol_Feturizer/New_Systems/rnas/1u8d

>  <Rbt.Executable>
rbdock ($Id: //depot/dev/client3/rdock/2013.1/src/exe/rbdock.cxx#4 $)

>  <Rbt.Library>
libRbt.so (2013.1, Build901 2013/11/27)

>  <Rbt.Parameter_File>
/export/apps/rDock/src/rDock_2013.1_src/data/scripts/dock_solv.prm

>  <Rbt.Receptor>
prm/blind_docking_60.prm

>  <SCORE>
-25.9572

>  <SCORE.INTER>
-25.9572

>  <SCORE.INTER.CONST>
1

>  <SCORE.INTER.POLAR>
-1.93632

>  <SCORE.INTER.ROT>
0

>  <SCORE.INTER.SOLV>
11.6898

>  <SCORE.INTER.VDW>
-18.347

>  <SCORE.INTER.norm>
-2.59572

>  <SCORE.INTRA>
0

>  <SCORE.INTRA.DIHEDRAL>
0

>  <SCORE.INTRA.DIHEDRAL.0>
0

>  <SCORE.INTRA.POLAR>
0

>  <SCORE.INTRA.POLAR.0>
0

>  <SCORE.INTRA.REPUL>
0

>  <SCORE.INTRA.REPUL.0>
0

>  <SCORE.INTRA.SOLV>
0

>  <SCORE.INTRA.SOLV.lig_0>
-13.7928

>  <SCORE.INTRA.VDW>
0

>  <SCORE.INTRA.VDW.0>
0

>  <SCORE.INTRA.norm>
0

>  <SCORE.RESTR>
0

>  <SCORE.RESTR.CAVITY>
0

>  <SCORE.RESTR.norm>
0

>  <SCORE.SYSTEM>
0

>  <SCORE.SYSTEM.CONST>
0

>  <SCORE.SYSTEM.DIHEDRAL>
0

>  <SCORE.SYSTEM.SOLV>
0

>  <SCORE.SYSTEM.norm>
0

>  <SCORE.heavy>
10

>  <SCORE.norm>
-2.59572

>  <RMSD>
0.217

$$$$
1u8d_lig
 OpenBabel11021811413D
libRbt.so/2013.1/901 2013/11/27
 10 11  0  0  0  0  0  0  0  0999 V2000
   11.7124   10.4779    9.2799 N   0  0  0  0  0  0  0  0  0  0  0  0
   11.4705   11.8462    9.4905 C   0  0  0  0  0  0  0  0  0  0  0  0
   11.1849   12.7185    8.4904 N   0  0  0  0  0  0  0  0  0  0  0  0
   11.1558   12.1302    7.2749 C   0  0  0  0  0  0  0  0  0  0  0  0
   11.4136   10.6533    6.9815 C   0  0  0  0  0  0  0  0  0  0  0  0
   11.7067    9.7925    8.0505 C   0  0  0  0  0  0  0  0  0  0  0  0
   11.9383    8.5912    8.0470 O   0  0  0  0  0  0  0  0  0  0  0  0
   11.2874   10.4931    5.6289 N   0  0  0  0  0  0  0  0  0  0  0  0
   10.9721   11.7199    5.0977 C   0  0  0  0  0  0  0  0  0  0  0  0
   10.8861   12.7255    6.0567 N   0  0  0  0  0  0  0  0  0  0  0  0
  1  2  1  0  0  0  0
  1  6  1  0  0  0  0
  2  3  2  0  0  0  0
  3  4  1  0  0  0  0
  4  5  2  0  0  0  0
  4 10  1  0  0  0  0
  5  6  1  0  0  0  0
  5  8  1  0  0  0  0
  6  7  2  0  0  0  0
  8  9  1  0  0  0  0
  9 10  2  0  0  0  0
M  END
>  <CHROM.1>
11.38108491,11.07892902,7.45116489,0.42910524,-1.34500947,1.03016960

>  <Name>
1u8d_lig

>  <RI>
0

>  <Rbt.Current_Directory>
/home/itssahil/PROJECTS/Mol_Feturizer/New_Systems/rnas/1u8d

>  <Rbt.Executable>
rbdock ($Id: //depot/dev/client3/rdock/2013.1/src/exe/rbdock.cxx#4 $)

>  <Rbt.Library>
libRbt.so (2013.1, Build901 2013/11/27)

>  <Rbt.Parameter_File>
/export/apps/rDock/src/rDock_2013.1_src/data/scripts/dock_solv.prm

>  <Rbt.Receptor>
prm/blind_docking_80.prm

>  <SCORE>
-26.1443

>  <SCORE.INTER>
-26.1443

>  <SCORE.INTER.CONST>
1

>  <SCORE.INTER.POLAR>
-1.93632

>  <SCORE.INTER.ROT>
0

>  <SCORE.INTER.SOLV>
11.6669

>  <SCORE.INTER.VDW>
-18.4641

>  <SCORE.INTER.norm>
-2.61443

>  <SCORE.INTRA>
0

>  <SCORE.INTRA.DIHEDRAL>
0

>  <SCORE.INTRA.DIHEDRAL.0>
0

>  <SCORE.INTRA.POLAR>
0

>  <SCORE.INTRA.POLAR.0>
0

>  <SCORE.INTRA.REPUL>
0

>  <SCORE.INTRA.REPUL.0>
0

>  <SCORE.INTRA.SOLV>
0

>  <SCORE.INTRA.SOLV.lig_0>
-13.7928

>  <SCORE.INTRA.VDW>
0

>  <SCORE.INTRA.VDW.0>
0

>  <SCORE.INTRA.norm>
0

>  <SCORE.RESTR>
0

>  <SCORE.RESTR.CAVITY>
0

>  <SCORE.RESTR.norm>
0

>  <SCORE.SYSTEM>
0

>  <SCORE.SYSTEM.CONST>
0

>  <SCORE.SYSTEM.DIHEDRAL>
0

>  <SCORE.SYSTEM.SOLV>
0

>  <SCORE.SYSTEM.norm>
0

>  <SCORE.heavy>
10

>  <SCORE.norm>
-2.61443

>  <RMSD>
0.217

$$$$
1u8d_lig
 OpenBabel11021811413D
libRbt.so/2013.1/901 2013/11/27
 10 11  0  0  0  0  0  0  0  0999 V2000
   11.7210   10.4822    9.2758 N   0  0  0  0  0  0  0  0  0  0  0  0
   11.4843   11.8512    9.4877 C   0  0  0  0  0  0  0  0  0  0  0  0
   11.1972   12.7247    8.4891 N   0  0  0  0  0  0  0  0  0  0  0  0
   11.1612   12.1369    7.2736 C   0  0  0  0  0  0  0  0  0  0  0  0
   11.4132   10.6593    6.9787 C   0  0  0  0  0  0  0  0  0  0  0  0
   11.7081    9.7972    8.0462 C   0  0  0  0  0  0  0  0  0  0  0  0
   11.9359    8.5952    8.0414 O   0  0  0  0  0  0  0  0  0  0  0  0
   11.2808   10.4998    5.6265 N   0  0  0  0  0  0  0  0  0  0  0  0
   10.9671   11.7277    5.0970 C   0  0  0  0  0  0  0  0  0  0  0  0
   10.8882   12.7334    6.0567 N   0  0  0  0  0  0  0  0  0  0  0  0
  1  2  1  0  0  0  0
  1  6  1  0  0  0  0
  2  3  2  0  0  0  0
  3  4  1  0  0  0  0
  4  5  2  0  0  0  0
  4 10  1  0  0  0  0
  5  6  1  0  0  0  0
  5  8  1  0  0  0  0
  6  7  2  0  0  0  0
  8  9  1  0  0  0  0
  9 10  2  0  0  0  0
M  END
>  <CHROM.1>
11.38390419,11.08481836,7.44857385,0.40593314,-1.34546507,1.00787647

>  <Name>
1u8d_lig

>  <RI>
0

>  <Rbt.Current_Directory>
/home/itssahil/PROJECTS/Mol_Feturizer/New_Systems/rnas/1u8d

>  <Rbt.Executable>
rbdock ($Id: //depot/dev/client3/rdock/2013.1/src/exe/rbdock.cxx#4 $)

>  <Rbt.Library>
libRbt.so (2013.1, Build901 2013/11/27)

>  <Rbt.Parameter_File>
/export/apps/rDock/src/rDock_2013.1_src/data/scripts/dock_solv.prm

>  <Rbt.Receptor>
prm/pocket_docking_3.prm

>  <SCORE>
-26.1616

>  <SCORE.INTER>
-26.1616

>  <SCORE.INTER.CONST>
1

>  <SCORE.INTER.POLAR>
-1.93632

>  <SCORE.INTER.ROT>
0

>  <SCORE.INTER.SOLV>
11.6603

>  <SCORE.INTER.VDW>
-18.4735

>  <SCORE.INTER.norm>
-2.61616

>  <SCORE.INTRA>
0

>  <SCORE.INTRA.DIHEDRAL>
0

>  <SCORE.INTRA.DIHEDRAL.0>
0

>  <SCORE.INTRA.POLAR>
0

>  <SCORE.INTRA.POLAR.0>
0

>  <SCORE.INTRA.REPUL>
0

>  <SCORE.INTRA.REPUL.0>
0

>  <SCORE.INTRA.SOLV>
0

>  <SCORE.INTRA.SOLV.lig_0>
-13.7928

>  <SCORE.INTRA.VDW>
0

>  <SCORE.INTRA.VDW.0>
0

>  <SCORE.INTRA.norm>
0

>  <SCORE.RESTR>
0

>  <SCORE.RESTR.CAVITY>
0

>  <SCORE.RESTR.norm>
0

>  <SCORE.SYSTEM>
0

>  <SCORE.SYSTEM.CONST>
0

>  <SCORE.SYSTEM.DIHEDRAL>
0

>  <SCORE.SYSTEM.SOLV>
0

>  <SCORE.SYSTEM.norm>
0

>  <SCORE.heavy>
10

>  <SCORE.norm>
-2.61616

>  <RMSD>
0.217

$$$$
1u8d_lig
 OpenBabel11021811413D
libRbt.so/2013.1/901 2013/11/27
 10 11  0  0  0  0  0  0  0  0999 V2000
   11.8585   10.5799    9.1527 N   0  0  0  0  0  0  0  0  0  0  0  0
   11.6190   11.9500    9.3539 C   0  0  0  0  0  0  0  0  0  0  0  0
   11.2892   12.8071    8.3542 N   0  0  0  0  0  0  0  0  0  0  0  0
   11.2138   12.2017    7.1491 C   0  0  0  0  0  0  0  0  0  0  0  0
   11.4664   10.7219    6.8660 C   0  0  0  0  0  0  0  0  0  0  0  0
   11.8065    9.8774    7.9341 C   0  0  0  0  0  0  0  0  0  0  0  0
   12.0433    8.6771    7.9378 O   0  0  0  0  0  0  0  0  0  0  0  0
   11.2864   10.5422    5.5219 N   0  0  0  0  0  0  0  0  0  0  0  0
   10.9442   11.7601    4.9870 C   0  0  0  0  0  0  0  0  0  0  0  0
   10.8923   12.7788    5.9347 N   0  0  0  0  0  0  0  0  0  0  0  0
  1  2  1  0  0  0  0
  1  6  1  0  0  0  0
  2  3  2  0  0  0  0
  3  4  1  0  0  0  0
  4  5  2  0  0  0  0
  4 10  1  0  0  0  0
  5  6  1  0  0  0  0
  5  8  1  0  0  0  0
  6  7  2  0  0  0  0
  8  9  1  0  0  0  0
  9 10  2  0  0  0  0
M  END
>  <CHROM.1>
11.45088446,11.15389945,7.33065758,0.29982203,-1.31820129,0.89061953

>  <Name>
1u8d_lig

>  <RI>
0

>  <Rbt.Current_Directory>
/home/itssahil/PROJECTS/Mol_Feturizer/New_Systems/rnas/1u8d

>  <Rbt.Executable>
rbdock ($Id: //depot/dev/client3/rdock/2013.1/src/exe/rbdock.cxx#4 $)

>  <Rbt.Library>
libRbt.so (2013.1, Build901 2013/11/27)

>  <Rbt.Parameter_File>
/export/apps/rDock/src/rDock_2013.1_src/data/scripts/dock_solv.prm

>  <Rbt.Receptor>
prm/pocket_docking_4.prm

>  <SCORE>
-26.1052

>  <SCORE.INTER>
-26.1052

>  <SCORE.INTER.CONST>
1

>  <SCORE.INTER.POLAR>
-1.93632

>  <SCORE.INTER.ROT>
0

>  <SCORE.INTER.SOLV>
11.525

>  <SCORE.INTER.VDW>
-18.3908

>  <SCORE.INTER.norm>
-2.61052

>  <SCORE.INTRA>
0

>  <SCORE.INTRA.DIHEDRAL>
0

>  <SCORE.INTRA.DIHEDRAL.0>
0

>  <SCORE.INTRA.POLAR>
0

>  <SCORE.INTRA.POLAR.0>
0

>  <SCORE.INTRA.REPUL>
0

>  <SCORE.INTRA.REPUL.0>
0

>  <SCORE.INTRA.SOLV>
0

>  <SCORE.INTRA.SOLV.lig_0>
-13.7928

>  <SCORE.INTRA.VDW>
0

>  <SCORE.INTRA.VDW.0>
0

>  <SCORE.INTRA.norm>
0

>  <SCORE.RESTR>
0

>  <SCORE.RESTR.CAVITY>
0

>  <SCORE.RESTR.norm>
0

>  <SCORE.SYSTEM>
0

>  <SCORE.SYSTEM.CONST>
0

>  <SCORE.SYSTEM.DIHEDRAL>
0

>  <SCORE.SYSTEM.SOLV>
0

>  <SCORE.SYSTEM.norm>
0

>  <SCORE.heavy>
10

>  <SCORE.norm>
-2.61052

>  <RMSD>
0.217

$$$$
1u8d_lig
 OpenBabel11021811413D
libRbt.so/2013.1/901 2013/11/27
 10 11  0  0  0  0  0  0  0  0999 V2000
   11.7255   10.4852    9.2799 N   0  0  0  0  0  0  0  0  0  0  0  0
   11.4888   11.8543    9.4909 C   0  0  0  0  0  0  0  0  0  0  0  0
   11.2032   12.7275    8.4916 N   0  0  0  0  0  0  0  0  0  0  0  0
   11.1688   12.1392    7.2762 C   0  0  0  0  0  0  0  0  0  0  0  0
   11.4209   10.6614    6.9823 C   0  0  0  0  0  0  0  0  0  0  0  0
   11.7142    9.7998    8.0506 C   0  0  0  0  0  0  0  0  0  0  0  0
   11.9418    8.5977    8.0466 O   0  0  0  0  0  0  0  0  0  0  0  0
   11.2904   10.5014    5.6300 N   0  0  0  0  0  0  0  0  0  0  0  0
   10.9777   11.7291    5.0995 C   0  0  0  0  0  0  0  0  0  0  0  0
   10.8976   12.7352    6.0587 N   0  0  0  0  0  0  0  0  0  0  0  0
  1  2  1  0  0  0  0
  1  6  1  0  0  0  0
  2  3  2  0  0  0  0
  3  4  1  0  0  0  0
  4  5  2  0  0  0  0
  4 10  1  0  0  0  0
  5  6  1  0  0  0  0
  5  8  1  0  0  0  0
  6  7  2  0  0  0  0
  8  9  1  0  0  0  0
  9 10  2  0  0  0  0
M  END
>  <CHROM.1>
11.39109331,11.08712991,7.45197382,0.41076212,-1.34635576,1.01215802

>  <Name>
1u8d_lig

>  <RI>
0

>  <Rbt.Current_Directory>
/home/itssahil/PROJECTS/Mol_Feturizer/New_Systems/rnas/1u8d

>  <Rbt.Executable>
rbdock ($Id: //depot/dev/client3/rdock/2013.1/src/exe/rbdock.cxx#4 $)

>  <Rbt.Library>
libRbt.so (2013.1, Build901 2013/11/27)

>  <Rbt.Parameter_File>
/export/apps/rDock/src/rDock_2013.1_src/data/scripts/dock_solv.prm

>  <Rbt.Receptor>
prm/pocket_docking_4.prm

>  <SCORE>
-26.1546

>  <SCORE.INTER>
-26.1546

>  <SCORE.INTER.CONST>
1

>  <SCORE.INTER.POLAR>
-1.93632

>  <SCORE.INTER.ROT>
0

>  <SCORE.INTER.SOLV>
11.657

>  <SCORE.INTER.VDW>
-18.4676

>  <SCORE.INTER.norm>
-2.61546

>  <SCORE.INTRA>
0

>  <SCORE.INTRA.DIHEDRAL>
0

>  <SCORE.INTRA.DIHEDRAL.0>
0

>  <SCORE.INTRA.POLAR>
0

>  <SCORE.INTRA.POLAR.0>
0

>  <SCORE.INTRA.REPUL>
0

>  <SCORE.INTRA.REPUL.0>
0

>  <SCORE.INTRA.SOLV>
0

>  <SCORE.INTRA.SOLV.lig_0>
-13.7928

>  <SCORE.INTRA.VDW>
0

>  <SCORE.INTRA.VDW.0>
0

>  <SCORE.INTRA.norm>
0

>  <SCORE.RESTR>
0

>  <SCORE.RESTR.CAVITY>
0

>  <SCORE.RESTR.norm>
0

>  <SCORE.SYSTEM>
0

>  <SCORE.SYSTEM.CONST>
0

>  <SCORE.SYSTEM.DIHEDRAL>
0

>  <SCORE.SYSTEM.SOLV>
0

>  <SCORE.SYSTEM.norm>
0

>  <SCORE.heavy>
10

>  <SCORE.norm>
-2.61546

>  <RMSD>
0.217

$$$$
1u8d_lig
 OpenBabel11021811413D
libRbt.so/2013.1/901 2013/11/27
 10 11  0  0  0  0  0  0  0  0999 V2000
   11.6988   10.4793    9.2806 N   0  0  0  0  0  0  0  0  0  0  0  0
   11.4509   11.8461    9.4938 C   0  0  0  0  0  0  0  0  0  0  0  0
   11.1671   12.7202    8.4948 N   0  0  0  0  0  0  0  0  0  0  0  0
   11.1462   12.1353    7.2775 C   0  0  0  0  0  0  0  0  0  0  0  0
   11.4109   10.6601    6.9813 C   0  0  0  0  0  0  0  0  0  0  0  0
   11.7018    9.7974    8.0493 C   0  0  0  0  0  0  0  0  0  0  0  0
   11.9378    8.5970    8.0436 O   0  0  0  0  0  0  0  0  0  0  0  0
   11.2920   10.5033    5.6276 N   0  0  0  0  0  0  0  0  0  0  0  0
   10.9749   11.7304    5.0982 C   0  0  0  0  0  0  0  0  0  0  0  0
   10.8804   12.7330    6.0597 N   0  0  0  0  0  0  0  0  0  0  0  0
  1  2  1  0  0  0  0
  1  6  1  0  0  0  0
  2  3  2  0  0  0  0
  3  4  1  0  0  0  0
  4  5  2  0  0  0  0
  4 10  1  0  0  0  0
  5  6  1  0  0  0  0
  5  8  1  0  0  0  0
  6  7  2  0  0  0  0
  8  9  1  0  0  0  0
  9 10  2  0  0  0  0
M  END
>  <CHROM.1>
11.37444568,11.08428443,7.45193265,0.45653976,-1.34435955,1.05973056

>  <Name>
1u8d_lig

>  <RI>
0

>  <Rbt.Current_Directory>
/home/itssahil/PROJECTS/Mol_Feturizer/New_Systems/rnas/1u8d

>  <Rbt.Executable>
rbdock ($Id: //depot/dev/client3/rdock/2013.1/src/exe/rbdock.cxx#4 $)

>  <Rbt.Library>
libRbt.so (2013.1, Build901 2013/11/27)

>  <Rbt.Parameter_File>
/export/apps/rDock/src/rDock_2013.1_src/data/scripts/dock_solv.prm

>  <Rbt.Receptor>
prm/pocket_docking_4.prm

>  <SCORE>
-26.0905

>  <SCORE.INTER>
-26.0905

>  <SCORE.INTER.CONST>
1

>  <SCORE.INTER.POLAR>
-1.93632

>  <SCORE.INTER.ROT>
0

>  <SCORE.INTER.SOLV>
11.6755

>  <SCORE.INTER.VDW>
-18.4311

>  <SCORE.INTER.norm>
-2.60905

>  <SCORE.INTRA>
0

>  <SCORE.INTRA.DIHEDRAL>
0

>  <SCORE.INTRA.DIHEDRAL.0>
0

>  <SCORE.INTRA.POLAR>
0

>  <SCORE.INTRA.POLAR.0>
0

>  <SCORE.INTRA.REPUL>
0

>  <SCORE.INTRA.REPUL.0>
0

>  <SCORE.INTRA.SOLV>
0

>  <SCORE.INTRA.SOLV.lig_0>
-13.7928

>  <SCORE.INTRA.VDW>
0

>  <SCORE.INTRA.VDW.0>
0

>  <SCORE.INTRA.norm>
0

>  <SCORE.RESTR>
0

>  <SCORE.RESTR.CAVITY>
0

>  <SCORE.RESTR.norm>
0

>  <SCORE.SYSTEM>
0

>  <SCORE.SYSTEM.CONST>
0

>  <SCORE.SYSTEM.DIHEDRAL>
0

>  <SCORE.SYSTEM.SOLV>
0

>  <SCORE.SYSTEM.norm>
0

>  <SCORE.heavy>
10

>  <SCORE.norm>
-2.60905

>  <RMSD>
0.217

$$$$
1u8d_lig
 OpenBabel11021811413D
libRbt.so/2013.1/901 2013/11/27
 10 11  0  0  0  0  0  0  0  0999 V2000
   11.7180   10.4750    9.2695 N   0  0  0  0  0  0  0  0  0  0  0  0
   11.4691   11.8410    9.4863 C   0  0  0  0  0  0  0  0  0  0  0  0
   11.1843   12.7175    8.4897 N   0  0  0  0  0  0  0  0  0  0  0  0
   11.1635   12.1357    7.2709 C   0  0  0  0  0  0  0  0  0  0  0  0
   11.4293   10.6615    6.9708 C   0  0  0  0  0  0  0  0  0  0  0  0
   11.7212    9.7963    8.0365 C   0  0  0  0  0  0  0  0  0  0  0  0
   11.9581    8.5960    8.0276 O   0  0  0  0  0  0  0  0  0  0  0  0
   11.3101   10.5080    5.6167 N   0  0  0  0  0  0  0  0  0  0  0  0
   10.9918   11.7363    5.0906 C   0  0  0  0  0  0  0  0  0  0  0  0
   10.8968   12.7364    6.0546 N   0  0  0  0  0  0  0  0  0  0  0  0
  1  2  1  0  0  0  0
  1  6  1  0  0  0  0
  2  3  2  0  0  0  0
  3  4  1  0  0  0  0
  4  5  2  0  0  0  0
  4 10  1  0  0  0  0
  5  6  1  0  0  0  0
  5  8  1  0  0  0  0
  6  7  2  0  0  0  0
  8  9  1  0  0  0  0
  9 10  2  0  0  0  0
M  END
>  <CHROM.1>
11.39262990,11.08443836,7.44252022,0.45706652,-1.34351874,1.06281483

>  <Name>
1u8d_lig

>  <RI>
0

>  <Rbt.Current_Directory>
/home/itssahil/PROJECTS/Mol_Feturizer/New_Systems/rnas/1u8d

>  <Rbt.Executable>
rbdock ($Id: //depot/dev/client3/rdock/2013.1/src/exe/rbdock.cxx#4 $)

>  <Rbt.Library>
libRbt.so (2013.1, Build901 2013/11/27)

>  <Rbt.Parameter_File>
/export/apps/rDock/src/rDock_2013.1_src/data/scripts/dock_solv.prm

>  <Rbt.Receptor>
prm/pocket_docking_4.prm

>  <SCORE>
-26.1168

>  <SCORE.INTER>
-26.1168

>  <SCORE.INTER.CONST>
1

>  <SCORE.INTER.POLAR>
-1.93632

>  <SCORE.INTER.ROT>
0

>  <SCORE.INTER.SOLV>
11.6534

>  <SCORE.INTER.VDW>
-18.4413

>  <SCORE.INTER.norm>
-2.61168

>  <SCORE.INTRA>
0

>  <SCORE.INTRA.DIHEDRAL>
0

>  <SCORE.INTRA.DIHEDRAL.0>
0

>  <SCORE.INTRA.POLAR>
0

>  <SCORE.INTRA.POLAR.0>
0

>  <SCORE.INTRA.REPUL>
0

>  <SCORE.INTRA.REPUL.0>
0

>  <SCORE.INTRA.SOLV>
0

>  <SCORE.INTRA.SOLV.lig_0>
-13.7928

>  <SCORE.INTRA.VDW>
0

>  <SCORE.INTRA.VDW.0>
0

>  <SCORE.INTRA.norm>
0

>  <SCORE.RESTR>
0

>  <SCORE.RESTR.CAVITY>
0

>  <SCORE.RESTR.norm>
0

>  <SCORE.SYSTEM>
0

>  <SCORE.SYSTEM.CONST>
0

>  <SCORE.SYSTEM.DIHEDRAL>
0

>  <SCORE.SYSTEM.SOLV>
0

>  <SCORE.SYSTEM.norm>
0

>  <SCORE.heavy>
10

>  <SCORE.norm>
-2.61168

>  <RMSD>
0.217

$$$$
1u8d_lig
 OpenBabel11021811413D
libRbt.so/2013.1/901 2013/11/27
 10 11  0  0  0  0  0  0  0  0999 V2000
   11.7229   10.4820    9.2736 N   0  0  0  0  0  0  0  0  0  0  0  0
   11.4893   11.8510    9.4886 C   0  0  0  0  0  0  0  0  0  0  0  0
   11.1956   12.7258    8.4930 N   0  0  0  0  0  0  0  0  0  0  0  0
   11.1498   12.1391    7.2772 C   0  0  0  0  0  0  0  0  0  0  0  0
   11.3979   10.6615    6.9791 C   0  0  0  0  0  0  0  0  0  0  0  0
   11.7000    9.7982    8.0436 C   0  0  0  0  0  0  0  0  0  0  0  0
   11.9264    8.5959    8.0359 O   0  0  0  0  0  0  0  0  0  0  0  0
   11.2551   10.5034    5.6279 N   0  0  0  0  0  0  0  0  0  0  0  0
   10.9387   11.7322    5.1018 C   0  0  0  0  0  0  0  0  0  0  0  0
   10.8682   12.7370    6.0630 N   0  0  0  0  0  0  0  0  0  0  0  0
  1  2  1  0  0  0  0
  1  6  1  0  0  0  0
  2  3  2  0  0  0  0
  3  4  1  0  0  0  0
  4  5  2  0  0  0  0
  4 10  1  0  0  0  0
  5  6  1  0  0  0  0
  5  8  1  0  0  0  0
  6  7  2  0  0  0  0
  8  9  1  0  0  0  0
  9 10  2  0  0  0  0
M  END
>  <CHROM.1>
11.37266030,11.08665316,7.44959354,0.37504691,-1.34222434,0.97869668

>  <Name>
1u8d_lig

>  <RI>
0

>  <Rbt.Current_Directory>
/home/itssahil/PROJECTS/Mol_Feturizer/New_Systems/rnas/1u8d

>  <Rbt.Executable>
rbdock ($Id: //depot/dev/client3/rdock/2013.1/src/exe/rbdock.cxx#4 $)

>  <Rbt.Library>
libRbt.so (2013.1, Build901 2013/11/27)

>  <Rbt.Parameter_File>
/export/apps/rDock/src/rDock_2013.1_src/data/scripts/dock_solv.prm

>  <Rbt.Receptor>
prm/pocket_docking_4.prm

>  <SCORE>
-26.131

>  <SCORE.INTER>
-26.131

>  <SCORE.INTER.CONST>
1

>  <SCORE.INTER.POLAR>
-1.93632

>  <SCORE.INTER.ROT>
0

>  <SCORE.INTER.SOLV>
11.6544

>  <SCORE.INTER.VDW>
-18.451

>  <SCORE.INTER.norm>
-2.6131

>  <SCORE.INTRA>
0

>  <SCORE.INTRA.DIHEDRAL>
0

>  <SCORE.INTRA.DIHEDRAL.0>
0

>  <SCORE.INTRA.POLAR>
0

>  <SCORE.INTRA.POLAR.0>
0

>  <SCORE.INTRA.REPUL>
0

>  <SCORE.INTRA.REPUL.0>
0

>  <SCORE.INTRA.SOLV>
0

>  <SCORE.INTRA.SOLV.lig_0>
-13.7928

>  <SCORE.INTRA.VDW>
0

>  <SCORE.INTRA.VDW.0>
0

>  <SCORE.INTRA.norm>
0

>  <SCORE.RESTR>
0

>  <SCORE.RESTR.CAVITY>
0

>  <SCORE.RESTR.norm>
0

>  <SCORE.SYSTEM>
0

>  <SCORE.SYSTEM.CONST>
0

>  <SCORE.SYSTEM.DIHEDRAL>
0

>  <SCORE.SYSTEM.SOLV>
0

>  <SCORE.SYSTEM.norm>
0

>  <SCORE.heavy>
10

>  <SCORE.norm>
-2.6131

>  <RMSD>
0.217

$$$$
1u8d_lig
 OpenBabel11021811413D
libRbt.so/2013.1/901 2013/11/27
 10 11  0  0  0  0  0  0  0  0999 V2000
   11.7178   10.4739    9.2682 N   0  0  0  0  0  0  0  0  0  0  0  0
   11.4766   11.8413    9.4847 C   0  0  0  0  0  0  0  0  0  0  0  0
   11.1857   12.7171    8.4891 N   0  0  0  0  0  0  0  0  0  0  0  0
   11.1508   12.1330    7.2717 C   0  0  0  0  0  0  0  0  0  0  0  0
   11.4076   10.6572    6.9720 C   0  0  0  0  0  0  0  0  0  0  0  0
   11.7063    9.7928    8.0365 C   0  0  0  0  0  0  0  0  0  0  0  0
   11.9383    8.5916    8.0277 O   0  0  0  0  0  0  0  0  0  0  0  0
   11.2747   10.5015    5.6194 N   0  0  0  0  0  0  0  0  0  0  0  0
   10.9564   11.7301    5.0940 C   0  0  0  0  0  0  0  0  0  0  0  0
   10.8748   12.7324    6.0569 N   0  0  0  0  0  0  0  0  0  0  0  0
  1  2  1  0  0  0  0
  1  6  1  0  0  0  0
  2  3  2  0  0  0  0
  3  4  1  0  0  0  0
  4  5  2  0  0  0  0
  4 10  1  0  0  0  0
  5  6  1  0  0  0  0
  5  8  1  0  0  0  0
  6  7  2  0  0  0  0
  8  9  1  0  0  0  0
  9 10  2  0  0  0  0
M  END
>  <CHROM.1>
11.37726047,11.08111583,7.44322154,0.41105846,-1.34213849,1.01604693

>  <Name>
1u8d_lig

>  <RI>
0

>  <Rbt.Current_Directory>
/home/itssahil/PROJECTS/Mol_Feturizer/New_Systems/rnas/1u8d

>  <Rbt.Executable>
rbdock ($Id: //depot/dev/client3/rdock/2013.1/src/exe/rbdock.cxx#4 $)

>  <Rbt.Library>
libRbt.so (2013.1, Build901 2013/11/27)

>  <Rbt.Parameter_File>
/export/apps/rDock/src/rDock_2013.1_src/data/scripts/dock_solv.prm

>  <Rbt.Receptor>
prm/pocket_docking_5.prm

>  <SCORE>
-26.1397

>  <SCORE.INTER>
-26.1397

>  <SCORE.INTER.CONST>
1

>  <SCORE.INTER.POLAR>
-1.93632

>  <SCORE.INTER.ROT>
0

>  <SCORE.INTER.SOLV>
11.656

>  <SCORE.INTER.VDW>
-18.4574

>  <SCORE.INTER.norm>
-2.61397

>  <SCORE.INTRA>
0

>  <SCORE.INTRA.DIHEDRAL>
0

>  <SCORE.INTRA.DIHEDRAL.0>
0

>  <SCORE.INTRA.POLAR>
0

>  <SCORE.INTRA.POLAR.0>
0

>  <SCORE.INTRA.REPUL>
0

>  <SCORE.INTRA.REPUL.0>
0

>  <SCORE.INTRA.SOLV>
0

>  <SCORE.INTRA.SOLV.lig_0>
-13.7928

>  <SCORE.INTRA.VDW>
0

>  <SCORE.INTRA.VDW.0>
0

>  <SCORE.INTRA.norm>
0

>  <SCORE.RESTR>
0

>  <SCORE.RESTR.CAVITY>
0

>  <SCORE.RESTR.norm>
0

>  <SCORE.SYSTEM>
0

>  <SCORE.SYSTEM.CONST>
0

>  <SCORE.SYSTEM.DIHEDRAL>
0

>  <SCORE.SYSTEM.SOLV>
0

>  <SCORE.SYSTEM.norm>
0

>  <SCORE.heavy>
10

>  <SCORE.norm>
-2.61397

>  <RMSD>
0.217

$$$$
1u8d_lig
 OpenBabel11021811413D
libRbt.so/2013.1/901 2013/11/27
 10 11  0  0  0  0  0  0  0  0999 V2000
   11.7208   10.4833    9.2717 N   0  0  0  0  0  0  0  0  0  0  0  0
   11.4857   11.8520    9.4867 C   0  0  0  0  0  0  0  0  0  0  0  0
   11.1940   12.7271    8.4908 N   0  0  0  0  0  0  0  0  0  0  0  0
   11.1517   12.1410    7.2746 C   0  0  0  0  0  0  0  0  0  0  0  0
   11.4017   10.6637    6.9764 C   0  0  0  0  0  0  0  0  0  0  0  0
   11.7016    9.8001    8.0412 C   0  0  0  0  0  0  0  0  0  0  0  0
   11.9289    8.5980    8.0336 O   0  0  0  0  0  0  0  0  0  0  0  0
   11.2625   10.5062    5.6247 N   0  0  0  0  0  0  0  0  0  0  0  0
   10.9467   11.7350    5.0985 C   0  0  0  0  0  0  0  0  0  0  0  0
   10.8729   12.7393    6.0599 N   0  0  0  0  0  0  0  0  0  0  0  0
  1  2  1  0  0  0  0
  1  6  1  0  0  0  0
  2  3  2  0  0  0  0
  3  4  1  0  0  0  0
  4  5  2  0  0  0  0
  4 10  1  0  0  0  0
  5  6  1  0  0  0  0
  5  8  1  0  0  0  0
  6  7  2  0  0  0  0
  8  9  1  0  0  0  0
  9 10  2  0  0  0  0
M  END
>  <CHROM.1>
11.37492431,11.08861870,7.44702744,0.38638898,-1.34309368,0.99024847

>  <Name>
1u8d_lig

>  <RI>
0

>  <Rbt.Current_Directory>
/home/itssahil/PROJECTS/Mol_Feturizer/New_Systems/rnas/1u8d

>  <Rbt.Executable>
rbdock ($Id: //depot/dev/client3/rdock/2013.1/src/exe/rbdock.cxx#4 $)

>  <Rbt.Library>
libRbt.so (2013.1, Build901 2013/11/27)

>  <Rbt.Parameter_File>
/export/apps/rDock/src/rDock_2013.1_src/data/scripts/dock_solv.prm

>  <Rbt.Receptor>
prm/pocket_docking_6.prm

>  <SCORE>
-26.134

>  <SCORE.INTER>
-26.134

>  <SCORE.INTER.CONST>
1

>  <SCORE.INTER.POLAR>
-1.93632

>  <SCORE.INTER.ROT>
0

>  <SCORE.INTER.SOLV>
11.6571

>  <SCORE.INTER.VDW>
-18.454

>  <SCORE.INTER.norm>
-2.6134

>  <SCORE.INTRA>
0

>  <SCORE.INTRA.DIHEDRAL>
0

>  <SCORE.INTRA.DIHEDRAL.0>
0

>  <SCORE.INTRA.POLAR>
0

>  <SCORE.INTRA.POLAR.0>
0

>  <SCORE.INTRA.REPUL>
0

>  <SCORE.INTRA.REPUL.0>
0

>  <SCORE.INTRA.SOLV>
0

>  <SCORE.INTRA.SOLV.lig_0>
-13.7928

>  <SCORE.INTRA.VDW>
0

>  <SCORE.INTRA.VDW.0>
0

>  <SCORE.INTRA.norm>
0

>  <SCORE.RESTR>
0

>  <SCORE.RESTR.CAVITY>
0

>  <SCORE.RESTR.norm>
0

>  <SCORE.SYSTEM>
0

>  <SCORE.SYSTEM.CONST>
0

>  <SCORE.SYSTEM.DIHEDRAL>
0

>  <SCORE.SYSTEM.SOLV>
0

>  <SCORE.SYSTEM.norm>
0

>  <SCORE.heavy>
10

>  <SCORE.norm>
-2.6134

>  <RMSD>
0.217

$$$$
1u8d_lig
 OpenBabel11021811413D
libRbt.so/2013.1/901 2013/11/27
 10 11  0  0  0  0  0  0  0  0999 V2000
   11.7431   10.4880    9.2626 N   0  0  0  0  0  0  0  0  0  0  0  0
   11.5199   11.8604    9.4673 C   0  0  0  0  0  0  0  0  0  0  0  0
   11.2278   12.7290    8.4659 N   0  0  0  0  0  0  0  0  0  0  0  0
   11.1724   12.1327    7.2552 C   0  0  0  0  0  0  0  0  0  0  0  0
   11.4089   10.6510    6.9682 C   0  0  0  0  0  0  0  0  0  0  0  0
   11.7098    9.7943    8.0383 C   0  0  0  0  0  0  0  0  0  0  0  0
   11.9279    8.5905    8.0396 O   0  0  0  0  0  0  0  0  0  0  0  0
   11.2589   10.4828    5.6189 N   0  0  0  0  0  0  0  0  0  0  0  0
   10.9487   11.7094    5.0842 C   0  0  0  0  0  0  0  0  0  0  0  0
   10.8895   12.7226    6.0374 N   0  0  0  0  0  0  0  0  0  0  0  0
  1  2  1  0  0  0  0
  1  6  1  0  0  0  0
  2  3  2  0  0  0  0
  3  4  1  0  0  0  0
  4  5  2  0  0  0  0
  4 10  1  0  0  0  0
  5  6  1  0  0  0  0
  5  8  1  0  0  0  0
  6  7  2  0  0  0  0
  8  9  1  0  0  0  0
  9 10  2  0  0  0  0
M  END
>  <CHROM.1>
11.38875447,11.08014899,7.43522663,0.34090610,-1.34532253,0.93721920

>  <Name>
1u8d_lig

>  <RI>
0

>  <Rbt.Current_Directory>
/home/itssahil/PROJECTS/Mol_Feturizer/New_Systems/rnas/1u8d

>  <Rbt.Executable>
rbdock ($Id: //depot/dev/client3/rdock/2013.1/src/exe/rbdock.cxx#4 $)

>  <Rbt.Library>
libRbt.so (2013.1, Build901 2013/11/27)

>  <Rbt.Parameter_File>
/export/apps/rDock/src/rDock_2013.1_src/data/scripts/dock_solv.prm

>  <Rbt.Receptor>
prm/pocket_docking_6.prm

>  <SCORE>
-26.1217

>  <SCORE.INTER>
-26.1217

>  <SCORE.INTER.CONST>
1

>  <SCORE.INTER.POLAR>
-1.93632

>  <SCORE.INTER.ROT>
0

>  <SCORE.INTER.SOLV>
11.6518

>  <SCORE.INTER.VDW>
-18.444

>  <SCORE.INTER.norm>
-2.61217

>  <SCORE.INTRA>
0

>  <SCORE.INTRA.DIHEDRAL>
0

>  <SCORE.INTRA.DIHEDRAL.0>
0

>  <SCORE.INTRA.POLAR>
0

>  <SCORE.INTRA.POLAR.0>
0

>  <SCORE.INTRA.REPUL>
0

>  <SCORE.INTRA.REPUL.0>
0

>  <SCORE.INTRA.SOLV>
0

>  <SCORE.INTRA.SOLV.lig_0>
-13.7928

>  <SCORE.INTRA.VDW>
0

>  <SCORE.INTRA.VDW.0>
0

>  <SCORE.INTRA.norm>
0

>  <SCORE.RESTR>
0

>  <SCORE.RESTR.CAVITY>
0

>  <SCORE.RESTR.norm>
0

>  <SCORE.SYSTEM>
0

>  <SCORE.SYSTEM.CONST>
0

>  <SCORE.SYSTEM.DIHEDRAL>
0

>  <SCORE.SYSTEM.SOLV>
0

>  <SCORE.SYSTEM.norm>
0

>  <SCORE.heavy>
10

>  <SCORE.norm>
-2.61217

>  <RMSD>
0.217

$$$$
1u8d_lig
 OpenBabel11021811413D
libRbt.so/2013.1/901 2013/11/27
 10 11  0  0  0  0  0  0  0  0999 V2000
   11.7297   10.4798    9.2788 N   0  0  0  0  0  0  0  0  0  0  0  0
   11.4977   11.8491    9.4937 C   0  0  0  0  0  0  0  0  0  0  0  0
   11.1953   12.7223    8.4993 N   0  0  0  0  0  0  0  0  0  0  0  0
   11.1390   12.1337    7.2849 C   0  0  0  0  0  0  0  0  0  0  0  0
   11.3849   10.6557    6.9869 C   0  0  0  0  0  0  0  0  0  0  0  0
   11.6963    9.7940    8.0501 C   0  0  0  0  0  0  0  0  0  0  0  0
   11.9229    8.5918    8.0423 O   0  0  0  0  0  0  0  0  0  0  0  0
   11.2304   10.4955    5.6372 N   0  0  0  0  0  0  0  0  0  0  0  0
   10.9093   11.7233    5.1120 C   0  0  0  0  0  0  0  0  0  0  0  0
   10.8469   12.7297    6.0722 N   0  0  0  0  0  0  0  0  0  0  0  0
  1  2  1  0  0  0  0
  1  6  1  0  0  0  0
  2  3  2  0  0  0  0
  3  4  1  0  0  0  0
  4  5  2  0  0  0  0
  4 10  1  0  0  0  0
  5  6  1  0  0  0  0
  5  8  1  0  0  0  0
  6  7  2  0  0  0  0
  8  9  1  0  0  0  0
  9 10  2  0  0  0  0
M  END
>  <CHROM.1>
11.36361717,11.08153301,7.45695947,0.34456257,-1.33714379,0.94747289

>  <Name>
1u8d_lig

>  <RI>
0

>  <Rbt.Current_Directory>
/home/itssahil/PROJECTS/Mol_Feturizer/New_Systems/rnas/1u8d

>  <Rbt.Executable>
rbdock ($Id: //depot/dev/client3/rdock/2013.1/src/exe/rbdock.cxx#4 $)

>  <Rbt.Library>
libRbt.so (2013.1, Build901 2013/11/27)

>  <Rbt.Parameter_File>
/export/apps/rDock/src/rDock_2013.1_src/data/scripts/dock_solv.prm

>  <Rbt.Receptor>
prm/pocket_docking_6.prm

>  <SCORE>
-26.1099

>  <SCORE.INTER>
-26.1099

>  <SCORE.INTER.CONST>
1

>  <SCORE.INTER.POLAR>
-1.93632

>  <SCORE.INTER.ROT>
0

>  <SCORE.INTER.SOLV>
11.6413

>  <SCORE.INTER.VDW>
-18.4326

>  <SCORE.INTER.norm>
-2.61099

>  <SCORE.INTRA>
0

>  <SCORE.INTRA.DIHEDRAL>
0

>  <SCORE.INTRA.DIHEDRAL.0>
0

>  <SCORE.INTRA.POLAR>
0

>  <SCORE.INTRA.POLAR.0>
0

>  <SCORE.INTRA.REPUL>
0

>  <SCORE.INTRA.REPUL.0>
0

>  <SCORE.INTRA.SOLV>
0

>  <SCORE.INTRA.SOLV.lig_0>
-13.7928

>  <SCORE.INTRA.VDW>
0

>  <SCORE.INTRA.VDW.0>
0

>  <SCORE.INTRA.norm>
0

>  <SCORE.RESTR>
0

>  <SCORE.RESTR.CAVITY>
0

>  <SCORE.RESTR.norm>
0

>  <SCORE.SYSTEM>
0

>  <SCORE.SYSTEM.CONST>
0

>  <SCORE.SYSTEM.DIHEDRAL>
0

>  <SCORE.SYSTEM.SOLV>
0

>  <SCORE.SYSTEM.norm>
0

>  <SCORE.heavy>
10

>  <SCORE.norm>
-2.61099

>  <RMSD>
0.217

$$$$
1u8d_lig
 OpenBabel11021811413D
libRbt.so/2013.1/901 2013/11/27
 10 11  0  0  0  0  0  0  0  0999 V2000
   11.7263   10.4770    9.2752 N   0  0  0  0  0  0  0  0  0  0  0  0
   11.4942   11.8466    9.4881 C   0  0  0  0  0  0  0  0  0  0  0  0
   11.1966   12.7193    8.4918 N   0  0  0  0  0  0  0  0  0  0  0  0
   11.1455   12.1299    7.2776 C   0  0  0  0  0  0  0  0  0  0  0  0
   11.3918   10.6516    6.9817 C   0  0  0  0  0  0  0  0  0  0  0  0
   11.6979    9.7905    8.0468 C   0  0  0  0  0  0  0  0  0  0  0  0
   11.9239    8.5881    8.0409 O   0  0  0  0  0  0  0  0  0  0  0  0
   11.2433   10.4906    5.6314 N   0  0  0  0  0  0  0  0  0  0  0  0
   10.9252   11.7183    5.1040 C   0  0  0  0  0  0  0  0  0  0  0  0
   10.8591   12.7253    6.0632 N   0  0  0  0  0  0  0  0  0  0  0  0
  1  2  1  0  0  0  0
  1  6  1  0  0  0  0
  2  3  2  0  0  0  0
  3  4  1  0  0  0  0
  4  5  2  0  0  0  0
  4 10  1  0  0  0  0
  5  6  1  0  0  0  0
  5  8  1  0  0  0  0
  6  7  2  0  0  0  0
  8  9  1  0  0  0  0
  9 10  2  0  0  0  0
M  END
>  <CHROM.1>
11.36868671,11.07776299,7.45132345,0.35892059,-1.34019977,0.96077924

>  <Name>
1u8d_lig

>  <RI>
0

>  <Rbt.Current_Directory>
/home/itssahil/PROJECTS/Mol_Feturizer/New_Systems/rnas/1u8d

>  <Rbt.Executable>
rbdock ($Id: //depot/dev/client3/rdock/2013.1/src/exe/rbdock.cxx#4 $)

>  <Rbt.Library>
libRbt.so (2013.1, Build901 2013/11/27)

>  <Rbt.Parameter_File>
/export/apps/rDock/src/rDock_2013.1_src/data/scripts/dock_solv.prm

>  <Rbt.Receptor>
prm/pocket_docking_8.prm

>  <SCORE>
-26.1237

>  <SCORE.INTER>
-26.1237

>  <SCORE.INTER.CONST>
1

>  <SCORE.INTER.POLAR>
-1.93632

>  <SCORE.INTER.ROT>
0

>  <SCORE.INTER.SOLV>
11.6501

>  <SCORE.INTER.VDW>
-18.4448

>  <SCORE.INTER.norm>
-2.61237

>  <SCORE.INTRA>
0

>  <SCORE.INTRA.DIHEDRAL>
0

>  <SCORE.INTRA.DIHEDRAL.0>
0

>  <SCORE.INTRA.POLAR>
0

>  <SCORE.INTRA.POLAR.0>
0

>  <SCORE.INTRA.REPUL>
0

>  <SCORE.INTRA.REPUL.0>
0

>  <SCORE.INTRA.SOLV>
0

>  <SCORE.INTRA.SOLV.lig_0>
-13.7928

>  <SCORE.INTRA.VDW>
0

>  <SCORE.INTRA.VDW.0>
0

>  <SCORE.INTRA.norm>
0

>  <SCORE.RESTR>
0

>  <SCORE.RESTR.CAVITY>
0

>  <SCORE.RESTR.norm>
0

>  <SCORE.SYSTEM>
0

>  <SCORE.SYSTEM.CONST>
0

>  <SCORE.SYSTEM.DIHEDRAL>
0

>  <SCORE.SYSTEM.SOLV>
0

>  <SCORE.SYSTEM.norm>
0

>  <SCORE.heavy>
10

>  <SCORE.norm>
-2.61237

>  <RMSD>
0.217

$$$$
1u8d_lig
 OpenBabel11021811413D
libRbt.so/2013.1/901 2013/11/27
 10 11  0  0  0  0  0  0  0  0999 V2000
   11.6672   10.4867    9.2726 N   0  0  0  0  0  0  0  0  0  0  0  0
   11.4133   11.8533    9.4796 C   0  0  0  0  0  0  0  0  0  0  0  0
   11.1414   12.7249    8.4751 N   0  0  0  0  0  0  0  0  0  0  0  0
   11.1388   12.1376    7.2587 C   0  0  0  0  0  0  0  0  0  0  0  0
   11.4110   10.6625    6.9691 C   0  0  0  0  0  0  0  0  0  0  0  0
   11.6889    9.8025    8.0427 C   0  0  0  0  0  0  0  0  0  0  0  0
   11.9277    8.6026    8.0426 O   0  0  0  0  0  0  0  0  0  0  0  0
   11.3113   10.5028    5.6142 N   0  0  0  0  0  0  0  0  0  0  0  0
   10.9988   11.7282    5.0781 C   0  0  0  0  0  0  0  0  0  0  0  0
   10.8886   12.7324    6.0361 N   0  0  0  0  0  0  0  0  0  0  0  0
  1  2  1  0  0  0  0
  1  6  1  0  0  0  0
  2  3  2  0  0  0  0
  3  4  1  0  0  0  0
  4  5  2  0  0  0  0
  4 10  1  0  0  0  0
  5  6  1  0  0  0  0
  5  8  1  0  0  0  0
  6  7  2  0  0  0  0
  8  9  1  0  0  0  0
  9 10  2  0  0  0  0
M  END
>  <CHROM.1>
11.36698565,11.08748953,7.43836279,0.51686522,-1.34879417,1.11662685

>  <Name>
1u8d_lig

>  <RI>
0

>  <Rbt.Current_Directory>
/home/itssahil/PROJECTS/Mol_Feturizer/New_Systems/rnas/1u8d

>  <Rbt.Executable>
rbdock ($Id: //depot/dev/client3/rdock/2013.1/src/exe/rbdock.cxx#4 $)

>  <Rbt.Library>
libRbt.so (2013.1, Build901 2013/11/27)

>  <Rbt.Parameter_File>
/export/apps/rDock/src/rDock_2013.1_src/data/scripts/dock_solv.prm

>  <Rbt.Receptor>
prm/blind_docking_100.prm

>  <SCORE>
-26.0493

>  <SCORE.INTER>
-26.0493

>  <SCORE.INTER.CONST>
1

>  <SCORE.INTER.POLAR>
-1.93632

>  <SCORE.INTER.ROT>
0

>  <SCORE.INTER.SOLV>
11.7165

>  <SCORE.INTER.VDW>
-18.4173

>  <SCORE.INTER.norm>
-2.60493

>  <SCORE.INTRA>
0

>  <SCORE.INTRA.DIHEDRAL>
0

>  <SCORE.INTRA.DIHEDRAL.0>
0

>  <SCORE.INTRA.POLAR>
0

>  <SCORE.INTRA.POLAR.0>
0

>  <SCORE.INTRA.REPUL>
0

>  <SCORE.INTRA.REPUL.0>
0

>  <SCORE.INTRA.SOLV>
0

>  <SCORE.INTRA.SOLV.lig_0>
-13.7928

>  <SCORE.INTRA.VDW>
0

>  <SCORE.INTRA.VDW.0>
0

>  <SCORE.INTRA.norm>
0

>  <SCORE.RESTR>
0

>  <SCORE.RESTR.CAVITY>
0

>  <SCORE.RESTR.norm>
0

>  <SCORE.SYSTEM>
0

>  <SCORE.SYSTEM.CONST>
0

>  <SCORE.SYSTEM.DIHEDRAL>
0

>  <SCORE.SYSTEM.SOLV>
0

>  <SCORE.SYSTEM.norm>
0

>  <SCORE.heavy>
10

>  <SCORE.norm>
-2.60493

>  <RMSD>
0.218

$$$$
1u8d_lig
 OpenBabel11021811413D
libRbt.so/2013.1/901 2013/11/27
 10 11  0  0  0  0  0  0  0  0999 V2000
   11.6687   10.4670    9.1767 N   0  0  0  0  0  0  0  0  0  0  0  0
   11.3327   11.8203    9.3518 C   0  0  0  0  0  0  0  0  0  0  0  0
   11.0027   12.6484    8.3280 N   0  0  0  0  0  0  0  0  0  0  0  0
   11.0297   12.0319    7.1265 C   0  0  0  0  0  0  0  0  0  0  0  0
   11.3901   10.5694    6.8713 C   0  0  0  0  0  0  0  0  0  0  0  0
   11.7258    9.7549    7.9639 C   0  0  0  0  0  0  0  0  0  0  0  0
   12.0375    8.5722    7.9916 O   0  0  0  0  0  0  0  0  0  0  0  0
   11.2933   10.3702    5.5214 N   0  0  0  0  0  0  0  0  0  0  0  0
   10.9035   11.5604    4.9576 C   0  0  0  0  0  0  0  0  0  0  0  0
   10.7371   12.5796    5.8914 N   0  0  0  0  0  0  0  0  0  0  0  0
  1  2  1  0  0  0  0
  1  6  1  0  0  0  0
  2  3  2  0  0  0  0
  3  4  1  0  0  0  0
  4  5  2  0  0  0  0
  4 10  1  0  0  0  0
  5  6  1  0  0  0  0
  5  8  1  0  0  0  0
  6  7  2  0  0  0  0
  8  9  1  0  0  0  0
  9 10  2  0  0  0  0
M  END
>  <CHROM.1>
11.32262368,11.00242547,7.33033339,0.59698348,-1.29059491,1.16950948

>  <Name>
1u8d_lig

>  <RI>
0

>  <Rbt.Current_Directory>
/home/itssahil/PROJECTS/Mol_Feturizer/New_Systems/rnas/1u8d

>  <Rbt.Executable>
rbdock ($Id: //depot/dev/client3/rdock/2013.1/src/exe/rbdock.cxx#4 $)

>  <Rbt.Library>
libRbt.so (2013.1, Build901 2013/11/27)

>  <Rbt.Parameter_File>
/export/apps/rDock/src/rDock_2013.1_src/data/scripts/dock_solv.prm

>  <Rbt.Receptor>
prm/blind_docking_20.prm

>  <SCORE>
-25.7875

>  <SCORE.INTER>
-25.7875

>  <SCORE.INTER.CONST>
1

>  <SCORE.INTER.POLAR>
-1.93632

>  <SCORE.INTER.ROT>
0

>  <SCORE.INTER.SOLV>
11.6509

>  <SCORE.INTER.VDW>
-18.2209

>  <SCORE.INTER.norm>
-2.57875

>  <SCORE.INTRA>
0

>  <SCORE.INTRA.DIHEDRAL>
0

>  <SCORE.INTRA.DIHEDRAL.0>
0

>  <SCORE.INTRA.POLAR>
0

>  <SCORE.INTRA.POLAR.0>
0

>  <SCORE.INTRA.REPUL>
0

>  <SCORE.INTRA.REPUL.0>
0

>  <SCORE.INTRA.SOLV>
0

>  <SCORE.INTRA.SOLV.lig_0>
-13.7928

>  <SCORE.INTRA.VDW>
0

>  <SCORE.INTRA.VDW.0>
0

>  <SCORE.INTRA.norm>
0

>  <SCORE.RESTR>
0

>  <SCORE.RESTR.CAVITY>
0

>  <SCORE.RESTR.norm>
0

>  <SCORE.SYSTEM>
0

>  <SCORE.SYSTEM.CONST>
0

>  <SCORE.SYSTEM.DIHEDRAL>
0

>  <SCORE.SYSTEM.SOLV>
0

>  <SCORE.SYSTEM.norm>
0

>  <SCORE.heavy>
10

>  <SCORE.norm>
-2.57875

>  <RMSD>
0.218

$$$$
1u8d_lig
 OpenBabel11021811413D
libRbt.so/2013.1/901 2013/11/27
 10 11  0  0  0  0  0  0  0  0999 V2000
   11.6667   10.4801    9.1492 N   0  0  0  0  0  0  0  0  0  0  0  0
   11.3175   11.8287    9.3347 C   0  0  0  0  0  0  0  0  0  0  0  0
   10.9849   12.6628    8.3167 N   0  0  0  0  0  0  0  0  0  0  0  0
   11.0233   12.0573    7.1099 C   0  0  0  0  0  0  0  0  0  0  0  0
   11.3983   10.6005    6.8435 C   0  0  0  0  0  0  0  0  0  0  0  0
   11.7362    9.7795    7.9304 C   0  0  0  0  0  0  0  0  0  0  0  0
   12.0587    8.5994    7.9492 O   0  0  0  0  0  0  0  0  0  0  0  0
   11.3099   10.4124    5.4915 N   0  0  0  0  0  0  0  0  0  0  0  0
   10.9120   11.6040    4.9363 C   0  0  0  0  0  0  0  0  0  0  0  0
   10.7317   12.6133    5.8783 N   0  0  0  0  0  0  0  0  0  0  0  0
  1  2  1  0  0  0  0
  1  6  1  0  0  0  0
  2  3  2  0  0  0  0
  3  4  1  0  0  0  0
  4  5  2  0  0  0  0
  4 10  1  0  0  0  0
  5  6  1  0  0  0  0
  5  8  1  0  0  0  0
  6  7  2  0  0  0  0
  8  9  1  0  0  0  0
  9 10  2  0  0  0  0
M  END
>  <CHROM.1>
11.32471387,11.02878252,7.30600267,0.62538557,-1.28392295,1.20565658

>  <Name>
1u8d_lig

>  <RI>
0

>  <Rbt.Current_Directory>
/home/itssahil/PROJECTS/Mol_Feturizer/New_Systems/rnas/1u8d

>  <Rbt.Executable>
rbdock ($Id: //depot/dev/client3/rdock/2013.1/src/exe/rbdock.cxx#4 $)

>  <Rbt.Library>
libRbt.so (2013.1, Build901 2013/11/27)

>  <Rbt.Parameter_File>
/export/apps/rDock/src/rDock_2013.1_src/data/scripts/dock_solv.prm

>  <Rbt.Receptor>
prm/blind_docking_20.prm

>  <SCORE>
-25.76

>  <SCORE.INTER>
-25.76

>  <SCORE.INTER.CONST>
1

>  <SCORE.INTER.POLAR>
-1.93632

>  <SCORE.INTER.ROT>
0

>  <SCORE.INTER.SOLV>
11.6412

>  <SCORE.INTER.VDW>
-18.1994

>  <SCORE.INTER.norm>
-2.576

>  <SCORE.INTRA>
0

>  <SCORE.INTRA.DIHEDRAL>
0

>  <SCORE.INTRA.DIHEDRAL.0>
0

>  <SCORE.INTRA.POLAR>
0

>  <SCORE.INTRA.POLAR.0>
0

>  <SCORE.INTRA.REPUL>
0

>  <SCORE.INTRA.REPUL.0>
0

>  <SCORE.INTRA.SOLV>
0

>  <SCORE.INTRA.SOLV.lig_0>
-13.7928

>  <SCORE.INTRA.VDW>
0

>  <SCORE.INTRA.VDW.0>
0

>  <SCORE.INTRA.norm>
0

>  <SCORE.RESTR>
0

>  <SCORE.RESTR.CAVITY>
0

>  <SCORE.RESTR.norm>
0

>  <SCORE.SYSTEM>
0

>  <SCORE.SYSTEM.CONST>
0

>  <SCORE.SYSTEM.DIHEDRAL>
0

>  <SCORE.SYSTEM.SOLV>
0

>  <SCORE.SYSTEM.norm>
0

>  <SCORE.heavy>
10

>  <SCORE.norm>
-2.576

>  <RMSD>
0.218

$$$$
1u8d_lig
 OpenBabel11021811413D
libRbt.so/2013.1/901 2013/11/27
 10 11  0  0  0  0  0  0  0  0999 V2000
   11.7180   10.4837    9.2828 N   0  0  0  0  0  0  0  0  0  0  0  0
   11.4777   11.8520    9.4955 C   0  0  0  0  0  0  0  0  0  0  0  0
   11.1945   12.7265    8.4965 N   0  0  0  0  0  0  0  0  0  0  0  0
   11.1663   12.1403    7.2800 C   0  0  0  0  0  0  0  0  0  0  0  0
   11.4226   10.6636    6.9844 C   0  0  0  0  0  0  0  0  0  0  0  0
   11.7131    9.8005    8.0523 C   0  0  0  0  0  0  0  0  0  0  0  0
   11.9431    8.5989    8.0470 O   0  0  0  0  0  0  0  0  0  0  0  0
   11.2979   10.5058    5.6313 N   0  0  0  0  0  0  0  0  0  0  0  0
   10.9849   11.7340    5.1018 C   0  0  0  0  0  0  0  0  0  0  0  0
   10.8990   12.7381    6.0624 N   0  0  0  0  0  0  0  0  0  0  0  0
  1  2  1  0  0  0  0
  1  6  1  0  0  0  0
  2  3  2  0  0  0  0
  3  4  1  0  0  0  0
  4  5  2  0  0  0  0
  4 10  1  0  0  0  0
  5  6  1  0  0  0  0
  5  8  1  0  0  0  0
  6  7  2  0  0  0  0
  8  9  1  0  0  0  0
  9 10  2  0  0  0  0
M  END
>  <CHROM.1>
11.38993666,11.08839843,7.45469690,0.43122533,-1.34682636,1.03397442

>  <Name>
1u8d_lig

>  <RI>
0

>  <Rbt.Current_Directory>
/home/itssahil/PROJECTS/Mol_Feturizer/New_Systems/rnas/1u8d

>  <Rbt.Executable>
rbdock ($Id: //depot/dev/client3/rdock/2013.1/src/exe/rbdock.cxx#4 $)

>  <Rbt.Library>
libRbt.so (2013.1, Build901 2013/11/27)

>  <Rbt.Parameter_File>
/export/apps/rDock/src/rDock_2013.1_src/data/scripts/dock_solv.prm

>  <Rbt.Receptor>
prm/pocket_docking_3.prm

>  <SCORE>
-26.1405

>  <SCORE.INTER>
-26.1405

>  <SCORE.INTER.CONST>
1

>  <SCORE.INTER.POLAR>
-1.93632

>  <SCORE.INTER.ROT>
0

>  <SCORE.INTER.SOLV>
11.6612

>  <SCORE.INTER.VDW>
-18.4597

>  <SCORE.INTER.norm>
-2.61405

>  <SCORE.INTRA>
0

>  <SCORE.INTRA.DIHEDRAL>
0

>  <SCORE.INTRA.DIHEDRAL.0>
0

>  <SCORE.INTRA.POLAR>
0

>  <SCORE.INTRA.POLAR.0>
0

>  <SCORE.INTRA.REPUL>
0

>  <SCORE.INTRA.REPUL.0>
0

>  <SCORE.INTRA.SOLV>
0

>  <SCORE.INTRA.SOLV.lig_0>
-13.7928

>  <SCORE.INTRA.VDW>
0

>  <SCORE.INTRA.VDW.0>
0

>  <SCORE.INTRA.norm>
0

>  <SCORE.RESTR>
0

>  <SCORE.RESTR.CAVITY>
0

>  <SCORE.RESTR.norm>
0

>  <SCORE.SYSTEM>
0

>  <SCORE.SYSTEM.CONST>
0

>  <SCORE.SYSTEM.DIHEDRAL>
0

>  <SCORE.SYSTEM.SOLV>
0

>  <SCORE.SYSTEM.norm>
0

>  <SCORE.heavy>
10

>  <SCORE.norm>
-2.61405

>  <RMSD>
0.218

$$$$
1u8d_lig
 OpenBabel11021811413D
libRbt.so/2013.1/901 2013/11/27
 10 11  0  0  0  0  0  0  0  0999 V2000
   11.7063   10.4714    9.2772 N   0  0  0  0  0  0  0  0  0  0  0  0
   11.4633   11.8391    9.4897 C   0  0  0  0  0  0  0  0  0  0  0  0
   11.1748   12.7123    8.4911 N   0  0  0  0  0  0  0  0  0  0  0  0
   11.1439   12.1252    7.2750 C   0  0  0  0  0  0  0  0  0  0  0  0
   11.4028   10.6489    6.9796 C   0  0  0  0  0  0  0  0  0  0  0  0
   11.6990    9.7873    8.0471 C   0  0  0  0  0  0  0  0  0  0  0  0
   11.9319    8.5863    8.0419 O   0  0  0  0  0  0  0  0  0  0  0  0
   11.2741   10.4899    5.6270 N   0  0  0  0  0  0  0  0  0  0  0  0
   10.9564   11.7169    5.0977 C   0  0  0  0  0  0  0  0  0  0  0  0
   10.8711   12.7215    6.0580 N   0  0  0  0  0  0  0  0  0  0  0  0
  1  2  1  0  0  0  0
  1  6  1  0  0  0  0
  2  3  2  0  0  0  0
  3  4  1  0  0  0  0
  4  5  2  0  0  0  0
  4 10  1  0  0  0  0
  5  6  1  0  0  0  0
  5  8  1  0  0  0  0
  6  7  2  0  0  0  0
  8  9  1  0  0  0  0
  9 10  2  0  0  0  0
M  END
>  <CHROM.1>
11.37070233,11.07395679,7.44972511,0.42418320,-1.34304698,1.02642479

>  <Name>
1u8d_lig

>  <RI>
0

>  <Rbt.Current_Directory>
/home/itssahil/PROJECTS/Mol_Feturizer/New_Systems/rnas/1u8d

>  <Rbt.Executable>
rbdock ($Id: //depot/dev/client3/rdock/2013.1/src/exe/rbdock.cxx#4 $)

>  <Rbt.Library>
libRbt.so (2013.1, Build901 2013/11/27)

>  <Rbt.Parameter_File>
/export/apps/rDock/src/rDock_2013.1_src/data/scripts/dock_solv.prm

>  <Rbt.Receptor>
prm/pocket_docking_3.prm

>  <SCORE>
-26.1422

>  <SCORE.INTER>
-26.1422

>  <SCORE.INTER.CONST>
1

>  <SCORE.INTER.POLAR>
-1.93632

>  <SCORE.INTER.ROT>
0

>  <SCORE.INTER.SOLV>
11.67

>  <SCORE.INTER.VDW>
-18.4637

>  <SCORE.INTER.norm>
-2.61422

>  <SCORE.INTRA>
0

>  <SCORE.INTRA.DIHEDRAL>
0

>  <SCORE.INTRA.DIHEDRAL.0>
0

>  <SCORE.INTRA.POLAR>
0

>  <SCORE.INTRA.POLAR.0>
0

>  <SCORE.INTRA.REPUL>
0

>  <SCORE.INTRA.REPUL.0>
0

>  <SCORE.INTRA.SOLV>
0

>  <SCORE.INTRA.SOLV.lig_0>
-13.7928

>  <SCORE.INTRA.VDW>
0

>  <SCORE.INTRA.VDW.0>
0

>  <SCORE.INTRA.norm>
0

>  <SCORE.RESTR>
0

>  <SCORE.RESTR.CAVITY>
0

>  <SCORE.RESTR.norm>
0

>  <SCORE.SYSTEM>
0

>  <SCORE.SYSTEM.CONST>
0

>  <SCORE.SYSTEM.DIHEDRAL>
0

>  <SCORE.SYSTEM.SOLV>
0

>  <SCORE.SYSTEM.norm>
0

>  <SCORE.heavy>
10

>  <SCORE.norm>
-2.61422

>  <RMSD>
0.218

$$$$
1u8d_lig
 OpenBabel11021811413D
libRbt.so/2013.1/901 2013/11/27
 10 11  0  0  0  0  0  0  0  0999 V2000
   11.6944   10.4768    9.2710 N   0  0  0  0  0  0  0  0  0  0  0  0
   11.4292   11.8388    9.4935 C   0  0  0  0  0  0  0  0  0  0  0  0
   11.1499   12.7195    8.4990 N   0  0  0  0  0  0  0  0  0  0  0  0
   11.1517   12.1459    7.2760 C   0  0  0  0  0  0  0  0  0  0  0  0
   11.4359   10.6765    6.9697 C   0  0  0  0  0  0  0  0  0  0  0  0
   11.7213    9.8067    8.0335 C   0  0  0  0  0  0  0  0  0  0  0  0
   11.9700    8.6089    8.0197 O   0  0  0  0  0  0  0  0  0  0  0  0
   11.3371   10.5313    5.6130 N   0  0  0  0  0  0  0  0  0  0  0  0
   11.0143   11.7600    5.0909 C   0  0  0  0  0  0  0  0  0  0  0  0
   10.8962   12.7524    6.0603 N   0  0  0  0  0  0  0  0  0  0  0  0
  1  2  1  0  0  0  0
  1  6  1  0  0  0  0
  2  3  2  0  0  0  0
  3  4  1  0  0  0  0
  4  5  2  0  0  0  0
  4 10  1  0  0  0  0
  5  6  1  0  0  0  0
  5  8  1  0  0  0  0
  6  7  2  0  0  0  0
  8  9  1  0  0  0  0
  9 10  2  0  0  0  0
M  END
>  <CHROM.1>
11.38860350,11.09575920,7.44373572,0.53144152,-1.34121899,1.14213584

>  <Name>
1u8d_lig

>  <RI>
0

>  <Rbt.Current_Directory>
/home/itssahil/PROJECTS/Mol_Feturizer/New_Systems/rnas/1u8d

>  <Rbt.Executable>
rbdock ($Id: //depot/dev/client3/rdock/2013.1/src/exe/rbdock.cxx#4 $)

>  <Rbt.Library>
libRbt.so (2013.1, Build901 2013/11/27)

>  <Rbt.Parameter_File>
/export/apps/rDock/src/rDock_2013.1_src/data/scripts/dock_solv.prm

>  <Rbt.Receptor>
prm/pocket_docking_3.prm

>  <SCORE>
-26.0126

>  <SCORE.INTER>
-26.0126

>  <SCORE.INTER.CONST>
1

>  <SCORE.INTER.POLAR>
-1.93632

>  <SCORE.INTER.ROT>
0

>  <SCORE.INTER.SOLV>
11.6631

>  <SCORE.INTER.VDW>
-18.375

>  <SCORE.INTER.norm>
-2.60126

>  <SCORE.INTRA>
0

>  <SCORE.INTRA.DIHEDRAL>
0

>  <SCORE.INTRA.DIHEDRAL.0>
0

>  <SCORE.INTRA.POLAR>
0

>  <SCORE.INTRA.POLAR.0>
0

>  <SCORE.INTRA.REPUL>
0

>  <SCORE.INTRA.REPUL.0>
0

>  <SCORE.INTRA.SOLV>
0

>  <SCORE.INTRA.SOLV.lig_0>
-13.7928

>  <SCORE.INTRA.VDW>
0

>  <SCORE.INTRA.VDW.0>
0

>  <SCORE.INTRA.norm>
0

>  <SCORE.RESTR>
0

>  <SCORE.RESTR.CAVITY>
0

>  <SCORE.RESTR.norm>
0

>  <SCORE.SYSTEM>
0

>  <SCORE.SYSTEM.CONST>
0

>  <SCORE.SYSTEM.DIHEDRAL>
0

>  <SCORE.SYSTEM.SOLV>
0

>  <SCORE.SYSTEM.norm>
0

>  <SCORE.heavy>
10

>  <SCORE.norm>
-2.60126

>  <RMSD>
0.218

$$$$
1u8d_lig
 OpenBabel11021811413D
libRbt.so/2013.1/901 2013/11/27
 10 11  0  0  0  0  0  0  0  0999 V2000
   11.6761   10.4912    9.2793 N   0  0  0  0  0  0  0  0  0  0  0  0
   11.4287   11.8588    9.4878 C   0  0  0  0  0  0  0  0  0  0  0  0
   11.1531   12.7312    8.4849 N   0  0  0  0  0  0  0  0  0  0  0  0
   11.1398   12.1435    7.2687 C   0  0  0  0  0  0  0  0  0  0  0  0
   11.4045   10.6674    6.9777 C   0  0  0  0  0  0  0  0  0  0  0  0
   11.6867    9.8066    8.0496 C   0  0  0  0  0  0  0  0  0  0  0  0
   11.9210    8.6058    8.0482 O   0  0  0  0  0  0  0  0  0  0  0  0
   11.2948   10.5076    5.6235 N   0  0  0  0  0  0  0  0  0  0  0  0
   10.9831   11.7340    5.0892 C   0  0  0  0  0  0  0  0  0  0  0  0
   10.8833   12.7389    6.0477 N   0  0  0  0  0  0  0  0  0  0  0  0
  1  2  1  0  0  0  0
  1  6  1  0  0  0  0
  2  3  2  0  0  0  0
  3  4  1  0  0  0  0
  4  5  2  0  0  0  0
  4 10  1  0  0  0  0
  5  6  1  0  0  0  0
  5  8  1  0  0  0  0
  6  7  2  0  0  0  0
  8  9  1  0  0  0  0
  9 10  2  0  0  0  0
M  END
>  <CHROM.1>
11.36533250,11.09260203,7.44709321,0.48103028,-1.34894811,1.08137943

>  <Name>
1u8d_lig

>  <RI>
0

>  <Rbt.Current_Directory>
/home/itssahil/PROJECTS/Mol_Feturizer/New_Systems/rnas/1u8d

>  <Rbt.Executable>
rbdock ($Id: //depot/dev/client3/rdock/2013.1/src/exe/rbdock.cxx#4 $)

>  <Rbt.Library>
libRbt.so (2013.1, Build901 2013/11/27)

>  <Rbt.Parameter_File>
/export/apps/rDock/src/rDock_2013.1_src/data/scripts/dock_solv.prm

>  <Rbt.Receptor>
prm/pocket_docking_4.prm

>  <SCORE>
-26.0724

>  <SCORE.INTER>
-26.0724

>  <SCORE.INTER.CONST>
1

>  <SCORE.INTER.POLAR>
-1.93632

>  <SCORE.INTER.ROT>
0

>  <SCORE.INTER.SOLV>
11.7073

>  <SCORE.INTER.VDW>
-18.4296

>  <SCORE.INTER.norm>
-2.60724

>  <SCORE.INTRA>
0

>  <SCORE.INTRA.DIHEDRAL>
0

>  <SCORE.INTRA.DIHEDRAL.0>
0

>  <SCORE.INTRA.POLAR>
0

>  <SCORE.INTRA.POLAR.0>
0

>  <SCORE.INTRA.REPUL>
0

>  <SCORE.INTRA.REPUL.0>
0

>  <SCORE.INTRA.SOLV>
0

>  <SCORE.INTRA.SOLV.lig_0>
-13.7928

>  <SCORE.INTRA.VDW>
0

>  <SCORE.INTRA.VDW.0>
0

>  <SCORE.INTRA.norm>
0

>  <SCORE.RESTR>
0

>  <SCORE.RESTR.CAVITY>
0

>  <SCORE.RESTR.norm>
0

>  <SCORE.SYSTEM>
0

>  <SCORE.SYSTEM.CONST>
0

>  <SCORE.SYSTEM.DIHEDRAL>
0

>  <SCORE.SYSTEM.SOLV>
0

>  <SCORE.SYSTEM.norm>
0

>  <SCORE.heavy>
10

>  <SCORE.norm>
-2.60724

>  <RMSD>
0.218

$$$$
1u8d_lig
 OpenBabel11021811413D
libRbt.so/2013.1/901 2013/11/27
 10 11  0  0  0  0  0  0  0  0999 V2000
   11.7307   10.4810    9.2804 N   0  0  0  0  0  0  0  0  0  0  0  0
   11.4987   11.8502    9.4963 C   0  0  0  0  0  0  0  0  0  0  0  0
   11.2018   12.7251    8.5018 N   0  0  0  0  0  0  0  0  0  0  0  0
   11.1511   12.1384    7.2862 C   0  0  0  0  0  0  0  0  0  0  0  0
   11.3973   10.6606    6.9872 C   0  0  0  0  0  0  0  0  0  0  0  0
   11.7028    9.7972    8.0505 C   0  0  0  0  0  0  0  0  0  0  0  0
   11.9286    8.5948    8.0420 O   0  0  0  0  0  0  0  0  0  0  0  0
   11.2493   10.5026    5.6364 N   0  0  0  0  0  0  0  0  0  0  0  0
   10.9317   11.7315    5.1116 C   0  0  0  0  0  0  0  0  0  0  0  0
   10.8653   12.7364    6.0730 N   0  0  0  0  0  0  0  0  0  0  0  0
  1  2  1  0  0  0  0
  1  6  1  0  0  0  0
  2  3  2  0  0  0  0
  3  4  1  0  0  0  0
  4  5  2  0  0  0  0
  4 10  1  0  0  0  0
  5  6  1  0  0  0  0
  5  8  1  0  0  0  0
  6  7  2  0  0  0  0
  8  9  1  0  0  0  0
  9 10  2  0  0  0  0
M  END
>  <CHROM.1>
11.37402152,11.08581469,7.45771722,0.36008350,-1.34059153,0.96410215

>  <Name>
1u8d_lig

>  <RI>
0

>  <Rbt.Current_Directory>
/home/itssahil/PROJECTS/Mol_Feturizer/New_Systems/rnas/1u8d

>  <Rbt.Executable>
rbdock ($Id: //depot/dev/client3/rdock/2013.1/src/exe/rbdock.cxx#4 $)

>  <Rbt.Library>
libRbt.so (2013.1, Build901 2013/11/27)

>  <Rbt.Parameter_File>
/export/apps/rDock/src/rDock_2013.1_src/data/scripts/dock_solv.prm

>  <Rbt.Receptor>
prm/pocket_docking_5.prm

>  <SCORE>
-26.1228

>  <SCORE.INTER>
-26.1228

>  <SCORE.INTER.CONST>
1

>  <SCORE.INTER.POLAR>
-1.93632

>  <SCORE.INTER.ROT>
0

>  <SCORE.INTER.SOLV>
11.6432

>  <SCORE.INTER.VDW>
-18.4419

>  <SCORE.INTER.norm>
-2.61228

>  <SCORE.INTRA>
0

>  <SCORE.INTRA.DIHEDRAL>
0

>  <SCORE.INTRA.DIHEDRAL.0>
0

>  <SCORE.INTRA.POLAR>
0

>  <SCORE.INTRA.POLAR.0>
0

>  <SCORE.INTRA.REPUL>
0

>  <SCORE.INTRA.REPUL.0>
0

>  <SCORE.INTRA.SOLV>
0

>  <SCORE.INTRA.SOLV.lig_0>
-13.7928

>  <SCORE.INTRA.VDW>
0

>  <SCORE.INTRA.VDW.0>
0

>  <SCORE.INTRA.norm>
0

>  <SCORE.RESTR>
0

>  <SCORE.RESTR.CAVITY>
0

>  <SCORE.RESTR.norm>
0

>  <SCORE.SYSTEM>
0

>  <SCORE.SYSTEM.CONST>
0

>  <SCORE.SYSTEM.DIHEDRAL>
0

>  <SCORE.SYSTEM.SOLV>
0

>  <SCORE.SYSTEM.norm>
0

>  <SCORE.heavy>
10

>  <SCORE.norm>
-2.61228

>  <RMSD>
0.218

$$$$
1u8d_lig
 OpenBabel11021811413D
libRbt.so/2013.1/901 2013/11/27
 10 11  0  0  0  0  0  0  0  0999 V2000
   11.7217   10.4808    9.2726 N   0  0  0  0  0  0  0  0  0  0  0  0
   11.4822   11.8487    9.4876 C   0  0  0  0  0  0  0  0  0  0  0  0
   11.1963   12.7246    8.4907 N   0  0  0  0  0  0  0  0  0  0  0  0
   11.1645   12.1400    7.2734 C   0  0  0  0  0  0  0  0  0  0  0  0
   11.4196   10.6636    6.9752 C   0  0  0  0  0  0  0  0  0  0  0  0
   11.7131    9.7992    8.0411 C   0  0  0  0  0  0  0  0  0  0  0  0
   11.9429    8.5975    8.0336 O   0  0  0  0  0  0  0  0  0  0  0  0
   11.2911   10.5077    5.6223 N   0  0  0  0  0  0  0  0  0  0  0  0
   10.9768   11.7365    5.0953 C   0  0  0  0  0  0  0  0  0  0  0  0
   10.8937   12.7394    6.0575 N   0  0  0  0  0  0  0  0  0  0  0  0
  1  2  1  0  0  0  0
  1  6  1  0  0  0  0
  2  3  2  0  0  0  0
  3  4  1  0  0  0  0
  4  5  2  0  0  0  0
  4 10  1  0  0  0  0
  5  6  1  0  0  0  0
  5  8  1  0  0  0  0
  6  7  2  0  0  0  0
  8  9  1  0  0  0  0
  9 10  2  0  0  0  0
M  END
>  <CHROM.1>
11.38842794,11.08784482,7.44616048,0.41980491,-1.34546614,1.02414562

>  <Name>
1u8d_lig

>  <RI>
0

>  <Rbt.Current_Directory>
/home/itssahil/PROJECTS/Mol_Feturizer/New_Systems/rnas/1u8d

>  <Rbt.Executable>
rbdock ($Id: //depot/dev/client3/rdock/2013.1/src/exe/rbdock.cxx#4 $)

>  <Rbt.Library>
libRbt.so (2013.1, Build901 2013/11/27)

>  <Rbt.Parameter_File>
/export/apps/rDock/src/rDock_2013.1_src/data/scripts/dock_solv.prm

>  <Rbt.Receptor>
prm/pocket_docking_7.prm

>  <SCORE>
-26.1326

>  <SCORE.INTER>
-26.1326

>  <SCORE.INTER.CONST>
1

>  <SCORE.INTER.POLAR>
-1.93632

>  <SCORE.INTER.ROT>
0

>  <SCORE.INTER.SOLV>
11.6563

>  <SCORE.INTER.VDW>
-18.4528

>  <SCORE.INTER.norm>
-2.61326

>  <SCORE.INTRA>
0

>  <SCORE.INTRA.DIHEDRAL>
0

>  <SCORE.INTRA.DIHEDRAL.0>
0

>  <SCORE.INTRA.POLAR>
0

>  <SCORE.INTRA.POLAR.0>
0

>  <SCORE.INTRA.REPUL>
0

>  <SCORE.INTRA.REPUL.0>
0

>  <SCORE.INTRA.SOLV>
0

>  <SCORE.INTRA.SOLV.lig_0>
-13.7928

>  <SCORE.INTRA.VDW>
0

>  <SCORE.INTRA.VDW.0>
0

>  <SCORE.INTRA.norm>
0

>  <SCORE.RESTR>
0

>  <SCORE.RESTR.CAVITY>
0

>  <SCORE.RESTR.norm>
0

>  <SCORE.SYSTEM>
0

>  <SCORE.SYSTEM.CONST>
0

>  <SCORE.SYSTEM.DIHEDRAL>
0

>  <SCORE.SYSTEM.SOLV>
0

>  <SCORE.SYSTEM.norm>
0

>  <SCORE.heavy>
10

>  <SCORE.norm>
-2.61326

>  <RMSD>
0.218

$$$$
1u8d_lig
 OpenBabel11021811413D
libRbt.so/2013.1/901 2013/11/27
 10 11  0  0  0  0  0  0  0  0999 V2000
   11.7152   10.4791    9.2667 N   0  0  0  0  0  0  0  0  0  0  0  0
   11.4798   11.8484    9.4778 C   0  0  0  0  0  0  0  0  0  0  0  0
   11.1926   12.7215    8.4788 N   0  0  0  0  0  0  0  0  0  0  0  0
   11.1551   12.1328    7.2637 C   0  0  0  0  0  0  0  0  0  0  0  0
   11.4057   10.6547    6.9698 C   0  0  0  0  0  0  0  0  0  0  0  0
   11.7007    9.7933    8.0377 C   0  0  0  0  0  0  0  0  0  0  0  0
   11.9276    8.5911    8.0336 O   0  0  0  0  0  0  0  0  0  0  0  0
   11.2720   10.4943    5.6179 N   0  0  0  0  0  0  0  0  0  0  0  0
   10.9589   11.7221    5.0877 C   0  0  0  0  0  0  0  0  0  0  0  0
   10.8816   12.7286    6.0466 N   0  0  0  0  0  0  0  0  0  0  0  0
  1  2  1  0  0  0  0
  1  6  1  0  0  0  0
  2  3  2  0  0  0  0
  3  4  1  0  0  0  0
  4  5  2  0  0  0  0
  4 10  1  0  0  0  0
  5  6  1  0  0  0  0
  5  8  1  0  0  0  0
  6  7  2  0  0  0  0
  8  9  1  0  0  0  0
  9 10  2  0  0  0  0
M  END
>  <CHROM.1>
11.37711461,11.08064605,7.43937598,0.40084987,-1.34569742,1.00216360

>  <Name>
1u8d_lig

>  <RI>
0

>  <Rbt.Current_Directory>
/home/itssahil/PROJECTS/Mol_Feturizer/New_Systems/rnas/1u8d

>  <Rbt.Executable>
rbdock ($Id: //depot/dev/client3/rdock/2013.1/src/exe/rbdock.cxx#4 $)

>  <Rbt.Library>
libRbt.so (2013.1, Build901 2013/11/27)

>  <Rbt.Parameter_File>
/export/apps/rDock/src/rDock_2013.1_src/data/scripts/dock_solv.prm

>  <Rbt.Receptor>
prm/pocket_docking_7.prm

>  <SCORE>
-26.1422

>  <SCORE.INTER>
-26.1422

>  <SCORE.INTER.CONST>
1

>  <SCORE.INTER.POLAR>
-1.93632

>  <SCORE.INTER.ROT>
0

>  <SCORE.INTER.SOLV>
11.6692

>  <SCORE.INTER.VDW>
-18.4635

>  <SCORE.INTER.norm>
-2.61422

>  <SCORE.INTRA>
0

>  <SCORE.INTRA.DIHEDRAL>
0

>  <SCORE.INTRA.DIHEDRAL.0>
0

>  <SCORE.INTRA.POLAR>
0

>  <SCORE.INTRA.POLAR.0>
0

>  <SCORE.INTRA.REPUL>
0

>  <SCORE.INTRA.REPUL.0>
0

>  <SCORE.INTRA.SOLV>
0

>  <SCORE.INTRA.SOLV.lig_0>
-13.7928

>  <SCORE.INTRA.VDW>
0

>  <SCORE.INTRA.VDW.0>
0

>  <SCORE.INTRA.norm>
0

>  <SCORE.RESTR>
0

>  <SCORE.RESTR.CAVITY>
0

>  <SCORE.RESTR.norm>
0

>  <SCORE.SYSTEM>
0

>  <SCORE.SYSTEM.CONST>
0

>  <SCORE.SYSTEM.DIHEDRAL>
0

>  <SCORE.SYSTEM.SOLV>
0

>  <SCORE.SYSTEM.norm>
0

>  <SCORE.heavy>
10

>  <SCORE.norm>
-2.61422

>  <RMSD>
0.218

$$$$
1u8d_lig
 OpenBabel11021811413D
libRbt.so/2013.1/901 2013/11/27
 10 11  0  0  0  0  0  0  0  0999 V2000
   11.7286   10.4976    9.2804 N   0  0  0  0  0  0  0  0  0  0  0  0
   11.5024   11.8685    9.4913 C   0  0  0  0  0  0  0  0  0  0  0  0
   11.2140   12.7420    8.4930 N   0  0  0  0  0  0  0  0  0  0  0  0
   11.1655   12.1520    7.2789 C   0  0  0  0  0  0  0  0  0  0  0  0
   11.4056   10.6722    6.9852 C   0  0  0  0  0  0  0  0  0  0  0  0
   11.7024    9.8104    8.0523 C   0  0  0  0  0  0  0  0  0  0  0  0
   11.9223    8.6069    8.0483 O   0  0  0  0  0  0  0  0  0  0  0  0
   11.2626   10.5110    5.6343 N   0  0  0  0  0  0  0  0  0  0  0  0
   10.9532   11.7399    5.1046 C   0  0  0  0  0  0  0  0  0  0  0  0
   10.8878   12.7479    6.0628 N   0  0  0  0  0  0  0  0  0  0  0  0
  1  2  1  0  0  0  0
  1  6  1  0  0  0  0
  2  3  2  0  0  0  0
  3  4  1  0  0  0  0
  4  5  2  0  0  0  0
  4 10  1  0  0  0  0
  5  6  1  0  0  0  0
  5  8  1  0  0  0  0
  6  7  2  0  0  0  0
  8  9  1  0  0  0  0
  9 10  2  0  0  0  0
M  END
>  <CHROM.1>
11.38250571,11.09886531,7.45442633,0.36296293,-1.34704390,0.96400408

>  <Name>
1u8d_lig

>  <RI>
0

>  <Rbt.Current_Directory>
/home/itssahil/PROJECTS/Mol_Feturizer/New_Systems/rnas/1u8d

>  <Rbt.Executable>
rbdock ($Id: //depot/dev/client3/rdock/2013.1/src/exe/rbdock.cxx#4 $)

>  <Rbt.Library>
libRbt.so (2013.1, Build901 2013/11/27)

>  <Rbt.Parameter_File>
/export/apps/rDock/src/rDock_2013.1_src/data/scripts/dock_solv.prm

>  <Rbt.Receptor>
prm/pocket_docking_8.prm

>  <SCORE>
-26.0825

>  <SCORE.INTER>
-26.0825

>  <SCORE.INTER.CONST>
1

>  <SCORE.INTER.POLAR>
-1.93632

>  <SCORE.INTER.ROT>
0

>  <SCORE.INTER.SOLV>
11.6598

>  <SCORE.INTER.VDW>
-18.4205

>  <SCORE.INTER.norm>
-2.60825

>  <SCORE.INTRA>
0

>  <SCORE.INTRA.DIHEDRAL>
0

>  <SCORE.INTRA.DIHEDRAL.0>
0

>  <SCORE.INTRA.POLAR>
0

>  <SCORE.INTRA.POLAR.0>
0

>  <SCORE.INTRA.REPUL>
0

>  <SCORE.INTRA.REPUL.0>
0

>  <SCORE.INTRA.SOLV>
0

>  <SCORE.INTRA.SOLV.lig_0>
-13.7928

>  <SCORE.INTRA.VDW>
0

>  <SCORE.INTRA.VDW.0>
0

>  <SCORE.INTRA.norm>
0

>  <SCORE.RESTR>
0

>  <SCORE.RESTR.CAVITY>
0

>  <SCORE.RESTR.norm>
0

>  <SCORE.SYSTEM>
0

>  <SCORE.SYSTEM.CONST>
0

>  <SCORE.SYSTEM.DIHEDRAL>
0

>  <SCORE.SYSTEM.SOLV>
0

>  <SCORE.SYSTEM.norm>
0

>  <SCORE.heavy>
10

>  <SCORE.norm>
-2.60825

>  <RMSD>
0.218

$$$$
1u8d_lig
 OpenBabel11021811413D
libRbt.so/2013.1/901 2013/11/27
 10 11  0  0  0  0  0  0  0  0999 V2000
   11.6685   10.4491    9.1914 N   0  0  0  0  0  0  0  0  0  0  0  0
   11.3312   11.8014    9.3719 C   0  0  0  0  0  0  0  0  0  0  0  0
   11.0057   12.6345    8.3508 N   0  0  0  0  0  0  0  0  0  0  0  0
   11.0382   12.0241    7.1463 C   0  0  0  0  0  0  0  0  0  0  0  0
   11.4002   10.5630    6.8854 C   0  0  0  0  0  0  0  0  0  0  0  0
   11.7312    9.7432    7.9754 C   0  0  0  0  0  0  0  0  0  0  0  0
   12.0432    8.5604    7.9985 O   0  0  0  0  0  0  0  0  0  0  0  0
   11.3095   10.3705    5.5341 N   0  0  0  0  0  0  0  0  0  0  0  0
   10.9219   11.5635    4.9745 C   0  0  0  0  0  0  0  0  0  0  0  0
   10.7511   12.5780    5.9127 N   0  0  0  0  0  0  0  0  0  0  0  0
  1  2  1  0  0  0  0
  1  6  1  0  0  0  0
  2  3  2  0  0  0  0
  3  4  1  0  0  0  0
  4  5  2  0  0  0  0
  4 10  1  0  0  0  0
  5  6  1  0  0  0  0
  5  8  1  0  0  0  0
  6  7  2  0  0  0  0
  8  9  1  0  0  0  0
  9 10  2  0  0  0  0
M  END
>  <CHROM.1>
11.33054262,10.99370297,7.34629074,0.61243674,-1.29205781,1.18938057

>  <Name>
1u8d_lig

>  <RI>
0

>  <Rbt.Current_Directory>
/home/itssahil/PROJECTS/Mol_Feturizer/New_Systems/rnas/1u8d

>  <Rbt.Executable>
rbdock ($Id: //depot/dev/client3/rdock/2013.1/src/exe/rbdock.cxx#4 $)

>  <Rbt.Library>
libRbt.so (2013.1, Build901 2013/11/27)

>  <Rbt.Parameter_File>
/export/apps/rDock/src/rDock_2013.1_src/data/scripts/dock_solv.prm

>  <Rbt.Receptor>
prm/blind_docking_20.prm

>  <SCORE>
-25.7744

>  <SCORE.INTER>
-25.7744

>  <SCORE.INTER.CONST>
1

>  <SCORE.INTER.POLAR>
-1.93632

>  <SCORE.INTER.ROT>
0

>  <SCORE.INTER.SOLV>
11.6517

>  <SCORE.INTER.VDW>
-18.2124

>  <SCORE.INTER.norm>
-2.57744

>  <SCORE.INTRA>
0

>  <SCORE.INTRA.DIHEDRAL>
0

>  <SCORE.INTRA.DIHEDRAL.0>
0

>  <SCORE.INTRA.POLAR>
0

>  <SCORE.INTRA.POLAR.0>
0

>  <SCORE.INTRA.REPUL>
0

>  <SCORE.INTRA.REPUL.0>
0

>  <SCORE.INTRA.SOLV>
0

>  <SCORE.INTRA.SOLV.lig_0>
-13.7928

>  <SCORE.INTRA.VDW>
0

>  <SCORE.INTRA.VDW.0>
0

>  <SCORE.INTRA.norm>
0

>  <SCORE.RESTR>
0

>  <SCORE.RESTR.CAVITY>
0

>  <SCORE.RESTR.norm>
0

>  <SCORE.SYSTEM>
0

>  <SCORE.SYSTEM.CONST>
0

>  <SCORE.SYSTEM.DIHEDRAL>
0

>  <SCORE.SYSTEM.SOLV>
0

>  <SCORE.SYSTEM.norm>
0

>  <SCORE.heavy>
10

>  <SCORE.norm>
-2.57744

>  <RMSD>
0.219

$$$$
1u8d_lig
 OpenBabel11021811413D
libRbt.so/2013.1/901 2013/11/27
 10 11  0  0  0  0  0  0  0  0999 V2000
   11.7225   10.4781    9.2734 N   0  0  0  0  0  0  0  0  0  0  0  0
   11.4886   11.8475    9.4853 C   0  0  0  0  0  0  0  0  0  0  0  0
   11.2004   12.7211    8.4871 N   0  0  0  0  0  0  0  0  0  0  0  0
   11.1602   12.1328    7.2719 C   0  0  0  0  0  0  0  0  0  0  0  0
   11.4090   10.6547    6.9771 C   0  0  0  0  0  0  0  0  0  0  0  0
   11.7052    9.7926    8.0442 C   0  0  0  0  0  0  0  0  0  0  0  0
   11.9310    8.5902    8.0393 O   0  0  0  0  0  0  0  0  0  0  0  0
   11.2728   10.4948    5.6253 N   0  0  0  0  0  0  0  0  0  0  0  0
   10.9598   11.7231    5.0961 C   0  0  0  0  0  0  0  0  0  0  0  0
   10.8851   12.7293    6.0555 N   0  0  0  0  0  0  0  0  0  0  0  0
  1  2  1  0  0  0  0
  1  6  1  0  0  0  0
  2  3  2  0  0  0  0
  3  4  1  0  0  0  0
  4  5  2  0  0  0  0
  4 10  1  0  0  0  0
  5  6  1  0  0  0  0
  5  8  1  0  0  0  0
  6  7  2  0  0  0  0
  8  9  1  0  0  0  0
  9 10  2  0  0  0  0
M  END
>  <CHROM.1>
11.38163330,11.08046476,7.44681568,0.39198469,-1.34547450,0.99384389

>  <Name>
1u8d_lig

>  <RI>
0

>  <Rbt.Current_Directory>
/home/itssahil/PROJECTS/Mol_Feturizer/New_Systems/rnas/1u8d

>  <Rbt.Executable>
rbdock ($Id: //depot/dev/client3/rdock/2013.1/src/exe/rbdock.cxx#4 $)

>  <Rbt.Library>
libRbt.so (2013.1, Build901 2013/11/27)

>  <Rbt.Parameter_File>
/export/apps/rDock/src/rDock_2013.1_src/data/scripts/dock_solv.prm

>  <Rbt.Receptor>
prm/blind_docking_40.prm

>  <SCORE>
-26.1667

>  <SCORE.INTER>
-26.1667

>  <SCORE.INTER.CONST>
1

>  <SCORE.INTER.POLAR>
-1.93632

>  <SCORE.INTER.ROT>
0

>  <SCORE.INTER.SOLV>
11.66

>  <SCORE.INTER.VDW>
-18.4767

>  <SCORE.INTER.norm>
-2.61667

>  <SCORE.INTRA>
0

>  <SCORE.INTRA.DIHEDRAL>
0

>  <SCORE.INTRA.DIHEDRAL.0>
0

>  <SCORE.INTRA.POLAR>
0

>  <SCORE.INTRA.POLAR.0>
0

>  <SCORE.INTRA.REPUL>
0

>  <SCORE.INTRA.REPUL.0>
0

>  <SCORE.INTRA.SOLV>
0

>  <SCORE.INTRA.SOLV.lig_0>
-13.7928

>  <SCORE.INTRA.VDW>
0

>  <SCORE.INTRA.VDW.0>
0

>  <SCORE.INTRA.norm>
0

>  <SCORE.RESTR>
0

>  <SCORE.RESTR.CAVITY>
0

>  <SCORE.RESTR.norm>
0

>  <SCORE.SYSTEM>
0

>  <SCORE.SYSTEM.CONST>
0

>  <SCORE.SYSTEM.DIHEDRAL>
0

>  <SCORE.SYSTEM.SOLV>
0

>  <SCORE.SYSTEM.norm>
0

>  <SCORE.heavy>
10

>  <SCORE.norm>
-2.61667

>  <RMSD>
0.219

$$$$
1u8d_lig
 OpenBabel11021811413D
libRbt.so/2013.1/901 2013/11/27
 10 11  0  0  0  0  0  0  0  0999 V2000
   11.7125   10.4751    9.2753 N   0  0  0  0  0  0  0  0  0  0  0  0
   11.4741   11.8437    9.4877 C   0  0  0  0  0  0  0  0  0  0  0  0
   11.1885   12.7177    8.4892 N   0  0  0  0  0  0  0  0  0  0  0  0
   11.1557   12.1308    7.2731 C   0  0  0  0  0  0  0  0  0  0  0  0
   11.4097   10.6536    6.9777 C   0  0  0  0  0  0  0  0  0  0  0  0
   11.7030    9.7911    8.0452 C   0  0  0  0  0  0  0  0  0  0  0  0
   11.9319    8.5893    8.0400 O   0  0  0  0  0  0  0  0  0  0  0  0
   11.2804   10.4950    5.6251 N   0  0  0  0  0  0  0  0  0  0  0  0
   10.9668   11.7231    5.0958 C   0  0  0  0  0  0  0  0  0  0  0  0
   10.8849   12.7279    6.0560 N   0  0  0  0  0  0  0  0  0  0  0  0
  1  2  1  0  0  0  0
  1  6  1  0  0  0  0
  2  3  2  0  0  0  0
  3  4  1  0  0  0  0
  4  5  2  0  0  0  0
  4 10  1  0  0  0  0
  5  6  1  0  0  0  0
  5  8  1  0  0  0  0
  6  7  2  0  0  0  0
  8  9  1  0  0  0  0
  9 10  2  0  0  0  0
M  END
>  <CHROM.1>
11.37898315,11.07878394,7.44781835,0.41644638,-1.34587595,1.01886193

>  <Name>
1u8d_lig

>  <RI>
0

>  <Rbt.Current_Directory>
/home/itssahil/PROJECTS/Mol_Feturizer/New_Systems/rnas/1u8d

>  <Rbt.Executable>
rbdock ($Id: //depot/dev/client3/rdock/2013.1/src/exe/rbdock.cxx#4 $)

>  <Rbt.Library>
libRbt.so (2013.1, Build901 2013/11/27)

>  <Rbt.Parameter_File>
/export/apps/rDock/src/rDock_2013.1_src/data/scripts/dock_solv.prm

>  <Rbt.Receptor>
prm/blind_docking_60.prm

>  <SCORE>
-26.1535

>  <SCORE.INTER>
-26.1535

>  <SCORE.INTER.CONST>
1

>  <SCORE.INTER.POLAR>
-1.93632

>  <SCORE.INTER.ROT>
0

>  <SCORE.INTER.SOLV>
11.6678

>  <SCORE.INTER.VDW>
-18.4705

>  <SCORE.INTER.norm>
-2.61535

>  <SCORE.INTRA>
0

>  <SCORE.INTRA.DIHEDRAL>
0

>  <SCORE.INTRA.DIHEDRAL.0>
0

>  <SCORE.INTRA.POLAR>
0

>  <SCORE.INTRA.POLAR.0>
0

>  <SCORE.INTRA.REPUL>
0

>  <SCORE.INTRA.REPUL.0>
0

>  <SCORE.INTRA.SOLV>
0

>  <SCORE.INTRA.SOLV.lig_0>
-13.7928

>  <SCORE.INTRA.VDW>
0

>  <SCORE.INTRA.VDW.0>
0

>  <SCORE.INTRA.norm>
0

>  <SCORE.RESTR>
0

>  <SCORE.RESTR.CAVITY>
0

>  <SCORE.RESTR.norm>
0

>  <SCORE.SYSTEM>
0

>  <SCORE.SYSTEM.CONST>
0

>  <SCORE.SYSTEM.DIHEDRAL>
0

>  <SCORE.SYSTEM.SOLV>
0

>  <SCORE.SYSTEM.norm>
0

>  <SCORE.heavy>
10

>  <SCORE.norm>
-2.61535

>  <RMSD>
0.219

$$$$
1u8d_lig
 OpenBabel11021811413D
libRbt.so/2013.1/901 2013/11/27
 10 11  0  0  0  0  0  0  0  0999 V2000
   11.7163   10.4791    9.2680 N   0  0  0  0  0  0  0  0  0  0  0  0
   11.4738   11.8460    9.4866 C   0  0  0  0  0  0  0  0  0  0  0  0
   11.1878   12.7241    8.4917 N   0  0  0  0  0  0  0  0  0  0  0  0
   11.1590   12.1430    7.2727 C   0  0  0  0  0  0  0  0  0  0  0  0
   11.4176   10.6679    6.9707 C   0  0  0  0  0  0  0  0  0  0  0  0
   11.7111    9.8010    8.0346 C   0  0  0  0  0  0  0  0  0  0  0  0
   11.9433    8.5998    8.0240 O   0  0  0  0  0  0  0  0  0  0  0  0
   11.2915   10.5156    5.6171 N   0  0  0  0  0  0  0  0  0  0  0  0
   10.9756   11.7454    5.0931 C   0  0  0  0  0  0  0  0  0  0  0  0
   10.8890   12.7453    6.0581 N   0  0  0  0  0  0  0  0  0  0  0  0
  1  2  1  0  0  0  0
  1  6  1  0  0  0  0
  2  3  2  0  0  0  0
  3  4  1  0  0  0  0
  4  5  2  0  0  0  0
  4 10  1  0  0  0  0
  5  6  1  0  0  0  0
  5  8  1  0  0  0  0
  6  7  2  0  0  0  0
  8  9  1  0  0  0  0
  9 10  2  0  0  0  0
M  END
>  <CHROM.1>
11.38480926,11.09073275,7.44280012,0.43043274,-1.34460695,1.03736712

>  <Name>
1u8d_lig

>  <RI>
0

>  <Rbt.Current_Directory>
/home/itssahil/PROJECTS/Mol_Feturizer/New_Systems/rnas/1u8d

>  <Rbt.Executable>
rbdock ($Id: //depot/dev/client3/rdock/2013.1/src/exe/rbdock.cxx#4 $)

>  <Rbt.Library>
libRbt.so (2013.1, Build901 2013/11/27)

>  <Rbt.Parameter_File>
/export/apps/rDock/src/rDock_2013.1_src/data/scripts/dock_solv.prm

>  <Rbt.Receptor>
prm/blind_docking_60.prm

>  <SCORE>
-26.1336

>  <SCORE.INTER>
-26.1336

>  <SCORE.INTER.CONST>
1

>  <SCORE.INTER.POLAR>
-1.93632

>  <SCORE.INTER.ROT>
0

>  <SCORE.INTER.SOLV>
11.657

>  <SCORE.INTER.VDW>
-18.4537

>  <SCORE.INTER.norm>
-2.61336

>  <SCORE.INTRA>
0

>  <SCORE.INTRA.DIHEDRAL>
0

>  <SCORE.INTRA.DIHEDRAL.0>
0

>  <SCORE.INTRA.POLAR>
0

>  <SCORE.INTRA.POLAR.0>
0

>  <SCORE.INTRA.REPUL>
0

>  <SCORE.INTRA.REPUL.0>
0

>  <SCORE.INTRA.SOLV>
0

>  <SCORE.INTRA.SOLV.lig_0>
-13.7928

>  <SCORE.INTRA.VDW>
0

>  <SCORE.INTRA.VDW.0>
0

>  <SCORE.INTRA.norm>
0

>  <SCORE.RESTR>
0

>  <SCORE.RESTR.CAVITY>
0

>  <SCORE.RESTR.norm>
0

>  <SCORE.SYSTEM>
0

>  <SCORE.SYSTEM.CONST>
0

>  <SCORE.SYSTEM.DIHEDRAL>
0

>  <SCORE.SYSTEM.SOLV>
0

>  <SCORE.SYSTEM.norm>
0

>  <SCORE.heavy>
10

>  <SCORE.norm>
-2.61336

>  <RMSD>
0.219

$$$$
1u8d_lig
 OpenBabel11021811413D
libRbt.so/2013.1/901 2013/11/27
 10 11  0  0  0  0  0  0  0  0999 V2000
   11.7312   10.4815    9.2827 N   0  0  0  0  0  0  0  0  0  0  0  0
   11.5006   11.8510    9.4978 C   0  0  0  0  0  0  0  0  0  0  0  0
   11.2056   12.7259    8.5027 N   0  0  0  0  0  0  0  0  0  0  0  0
   11.1555   12.1389    7.2873 C   0  0  0  0  0  0  0  0  0  0  0  0
   11.4002   10.6607    6.9891 C   0  0  0  0  0  0  0  0  0  0  0  0
   11.7037    9.7973    8.0530 C   0  0  0  0  0  0  0  0  0  0  0  0
   11.9281    8.5946    8.0452 O   0  0  0  0  0  0  0  0  0  0  0  0
   11.2535   10.5024    5.6383 N   0  0  0  0  0  0  0  0  0  0  0  0
   10.9377   11.7315    5.1126 C   0  0  0  0  0  0  0  0  0  0  0  0
   10.8716   12.7368    6.0736 N   0  0  0  0  0  0  0  0  0  0  0  0
  1  2  1  0  0  0  0
  1  6  1  0  0  0  0
  2  3  2  0  0  0  0
  3  4  1  0  0  0  0
  4  5  2  0  0  0  0
  4 10  1  0  0  0  0
  5  6  1  0  0  0  0
  5  8  1  0  0  0  0
  6  7  2  0  0  0  0
  8  9  1  0  0  0  0
  9 10  2  0  0  0  0
M  END
>  <CHROM.1>
11.37701439,11.08609644,7.45943150,0.36078004,-1.34210463,0.96441305

>  <Name>
1u8d_lig

>  <RI>
0

>  <Rbt.Current_Directory>
/home/itssahil/PROJECTS/Mol_Feturizer/New_Systems/rnas/1u8d

>  <Rbt.Executable>
rbdock ($Id: //depot/dev/client3/rdock/2013.1/src/exe/rbdock.cxx#4 $)

>  <Rbt.Library>
libRbt.so (2013.1, Build901 2013/11/27)

>  <Rbt.Parameter_File>
/export/apps/rDock/src/rDock_2013.1_src/data/scripts/dock_solv.prm

>  <Rbt.Receptor>
prm/pocket_docking_3.prm

>  <SCORE>
-26.1219

>  <SCORE.INTER>
-26.1219

>  <SCORE.INTER.CONST>
1

>  <SCORE.INTER.POLAR>
-1.93632

>  <SCORE.INTER.ROT>
0

>  <SCORE.INTER.SOLV>
11.645

>  <SCORE.INTER.VDW>
-18.4418

>  <SCORE.INTER.norm>
-2.61219

>  <SCORE.INTRA>
0

>  <SCORE.INTRA.DIHEDRAL>
0

>  <SCORE.INTRA.DIHEDRAL.0>
0

>  <SCORE.INTRA.POLAR>
0

>  <SCORE.INTRA.POLAR.0>
0

>  <SCORE.INTRA.REPUL>
0

>  <SCORE.INTRA.REPUL.0>
0

>  <SCORE.INTRA.SOLV>
0

>  <SCORE.INTRA.SOLV.lig_0>
-13.7928

>  <SCORE.INTRA.VDW>
0

>  <SCORE.INTRA.VDW.0>
0

>  <SCORE.INTRA.norm>
0

>  <SCORE.RESTR>
0

>  <SCORE.RESTR.CAVITY>
0

>  <SCORE.RESTR.norm>
0

>  <SCORE.SYSTEM>
0

>  <SCORE.SYSTEM.CONST>
0

>  <SCORE.SYSTEM.DIHEDRAL>
0

>  <SCORE.SYSTEM.SOLV>
0

>  <SCORE.SYSTEM.norm>
0

>  <SCORE.heavy>
10

>  <SCORE.norm>
-2.61219

>  <RMSD>
0.219

$$$$
1u8d_lig
 OpenBabel11021811413D
libRbt.so/2013.1/901 2013/11/27
 10 11  0  0  0  0  0  0  0  0999 V2000
   11.7181   10.4819    9.2756 N   0  0  0  0  0  0  0  0  0  0  0  0
   11.4813   11.8507    9.4884 C   0  0  0  0  0  0  0  0  0  0  0  0
   11.1969   12.7254    8.4901 N   0  0  0  0  0  0  0  0  0  0  0  0
   11.1636   12.1389    7.2738 C   0  0  0  0  0  0  0  0  0  0  0  0
   11.4158   10.6615    6.9780 C   0  0  0  0  0  0  0  0  0  0  0  0
   11.7078    9.7982    8.0453 C   0  0  0  0  0  0  0  0  0  0  0  0
   11.9353    8.5962    8.0398 O   0  0  0  0  0  0  0  0  0  0  0  0
   11.2865   10.5035    5.6254 N   0  0  0  0  0  0  0  0  0  0  0  0
   10.9744   11.7321    5.0964 C   0  0  0  0  0  0  0  0  0  0  0  0
   10.8936   12.7367    6.0569 N   0  0  0  0  0  0  0  0  0  0  0  0
  1  2  1  0  0  0  0
  1  6  1  0  0  0  0
  2  3  2  0  0  0  0
  3  4  1  0  0  0  0
  4  5  2  0  0  0  0
  4 10  1  0  0  0  0
  5  6  1  0  0  0  0
  5  8  1  0  0  0  0
  6  7  2  0  0  0  0
  8  9  1  0  0  0  0
  9 10  2  0  0  0  0
M  END
>  <CHROM.1>
11.38551433,11.08654748,7.44827922,0.41407549,-1.34699258,1.01686251

>  <Name>
1u8d_lig

>  <RI>
0

>  <Rbt.Current_Directory>
/home/itssahil/PROJECTS/Mol_Feturizer/New_Systems/rnas/1u8d

>  <Rbt.Executable>
rbdock ($Id: //depot/dev/client3/rdock/2013.1/src/exe/rbdock.cxx#4 $)

>  <Rbt.Library>
libRbt.so (2013.1, Build901 2013/11/27)

>  <Rbt.Parameter_File>
/export/apps/rDock/src/rDock_2013.1_src/data/scripts/dock_solv.prm

>  <Rbt.Receptor>
prm/pocket_docking_3.prm

>  <SCORE>
-26.1573

>  <SCORE.INTER>
-26.1573

>  <SCORE.INTER.CONST>
1

>  <SCORE.INTER.POLAR>
-1.93632

>  <SCORE.INTER.ROT>
0

>  <SCORE.INTER.SOLV>
11.6638

>  <SCORE.INTER.VDW>
-18.4717

>  <SCORE.INTER.norm>
-2.61573

>  <SCORE.INTRA>
0

>  <SCORE.INTRA.DIHEDRAL>
0

>  <SCORE.INTRA.DIHEDRAL.0>
0

>  <SCORE.INTRA.POLAR>
0

>  <SCORE.INTRA.POLAR.0>
0

>  <SCORE.INTRA.REPUL>
0

>  <SCORE.INTRA.REPUL.0>
0

>  <SCORE.INTRA.SOLV>
0

>  <SCORE.INTRA.SOLV.lig_0>
-13.7928

>  <SCORE.INTRA.VDW>
0

>  <SCORE.INTRA.VDW.0>
0

>  <SCORE.INTRA.norm>
0

>  <SCORE.RESTR>
0

>  <SCORE.RESTR.CAVITY>
0

>  <SCORE.RESTR.norm>
0

>  <SCORE.SYSTEM>
0

>  <SCORE.SYSTEM.CONST>
0

>  <SCORE.SYSTEM.DIHEDRAL>
0

>  <SCORE.SYSTEM.SOLV>
0

>  <SCORE.SYSTEM.norm>
0

>  <SCORE.heavy>
10

>  <SCORE.norm>
-2.61573

>  <RMSD>
0.219

$$$$
1u8d_lig
 OpenBabel11021811413D
libRbt.so/2013.1/901 2013/11/27
 10 11  0  0  0  0  0  0  0  0999 V2000
   11.7222   10.4786    9.2723 N   0  0  0  0  0  0  0  0  0  0  0  0
   11.4888   11.8477    9.4873 C   0  0  0  0  0  0  0  0  0  0  0  0
   11.1973   12.7229    8.4915 N   0  0  0  0  0  0  0  0  0  0  0  0
   11.1534   12.1367    7.2754 C   0  0  0  0  0  0  0  0  0  0  0  0
   11.4015   10.6591    6.9772 C   0  0  0  0  0  0  0  0  0  0  0  0
   11.7012    9.7953    8.0419 C   0  0  0  0  0  0  0  0  0  0  0  0
   11.9272    8.5929    8.0343 O   0  0  0  0  0  0  0  0  0  0  0  0
   11.2611   10.5016    5.6257 N   0  0  0  0  0  0  0  0  0  0  0  0
   10.9462   11.7306    5.0995 C   0  0  0  0  0  0  0  0  0  0  0  0
   10.8743   12.7352    6.0609 N   0  0  0  0  0  0  0  0  0  0  0  0
  1  2  1  0  0  0  0
  1  6  1  0  0  0  0
  2  3  2  0  0  0  0
  3  4  1  0  0  0  0
  4  5  2  0  0  0  0
  4 10  1  0  0  0  0
  5  6  1  0  0  0  0
  5  8  1  0  0  0  0
  6  7  2  0  0  0  0
  8  9  1  0  0  0  0
  9 10  2  0  0  0  0
M  END
>  <CHROM.1>
11.37553090,11.08408207,7.44782187,0.38074758,-1.34359855,0.98461135

>  <Name>
1u8d_lig

>  <RI>
0

>  <Rbt.Current_Directory>
/home/itssahil/PROJECTS/Mol_Feturizer/New_Systems/rnas/1u8d

>  <Rbt.Executable>
rbdock ($Id: //depot/dev/client3/rdock/2013.1/src/exe/rbdock.cxx#4 $)

>  <Rbt.Library>
libRbt.so (2013.1, Build901 2013/11/27)

>  <Rbt.Parameter_File>
/export/apps/rDock/src/rDock_2013.1_src/data/scripts/dock_solv.prm

>  <Rbt.Receptor>
prm/pocket_docking_5.prm

>  <SCORE>
-26.1332

>  <SCORE.INTER>
-26.1332

>  <SCORE.INTER.CONST>
1

>  <SCORE.INTER.POLAR>
-1.93632

>  <SCORE.INTER.ROT>
0

>  <SCORE.INTER.SOLV>
11.6564

>  <SCORE.INTER.VDW>
-18.4532

>  <SCORE.INTER.norm>
-2.61332

>  <SCORE.INTRA>
0

>  <SCORE.INTRA.DIHEDRAL>
0

>  <SCORE.INTRA.DIHEDRAL.0>
0

>  <SCORE.INTRA.POLAR>
0

>  <SCORE.INTRA.POLAR.0>
0

>  <SCORE.INTRA.REPUL>
0

>  <SCORE.INTRA.REPUL.0>
0

>  <SCORE.INTRA.SOLV>
0

>  <SCORE.INTRA.SOLV.lig_0>
-13.7928

>  <SCORE.INTRA.VDW>
0

>  <SCORE.INTRA.VDW.0>
0

>  <SCORE.INTRA.norm>
0

>  <SCORE.RESTR>
0

>  <SCORE.RESTR.CAVITY>
0

>  <SCORE.RESTR.norm>
0

>  <SCORE.SYSTEM>
0

>  <SCORE.SYSTEM.CONST>
0

>  <SCORE.SYSTEM.DIHEDRAL>
0

>  <SCORE.SYSTEM.SOLV>
0

>  <SCORE.SYSTEM.norm>
0

>  <SCORE.heavy>
10

>  <SCORE.norm>
-2.61332

>  <RMSD>
0.219

$$$$
1u8d_lig
 OpenBabel11021811413D
libRbt.so/2013.1/901 2013/11/27
 10 11  0  0  0  0  0  0  0  0999 V2000
   11.7165   10.4865    9.2685 N   0  0  0  0  0  0  0  0  0  0  0  0
   11.4858   11.8572    9.4760 C   0  0  0  0  0  0  0  0  0  0  0  0
   11.2023   12.7287    8.4746 N   0  0  0  0  0  0  0  0  0  0  0  0
   11.1634   12.1370    7.2610 C   0  0  0  0  0  0  0  0  0  0  0  0
   11.4088   10.6573    6.9709 C   0  0  0  0  0  0  0  0  0  0  0  0
   11.7002    9.7975    8.0412 C   0  0  0  0  0  0  0  0  0  0  0  0
   11.9228    8.5945    8.0403 O   0  0  0  0  0  0  0  0  0  0  0  0
   11.2753   10.4940    5.6193 N   0  0  0  0  0  0  0  0  0  0  0  0
   10.9669   11.7215    5.0858 C   0  0  0  0  0  0  0  0  0  0  0  0
   10.8926   12.7307    6.0422 N   0  0  0  0  0  0  0  0  0  0  0  0
  1  2  1  0  0  0  0
  1  6  1  0  0  0  0
  2  3  2  0  0  0  0
  3  4  1  0  0  0  0
  4  5  2  0  0  0  0
  4 10  1  0  0  0  0
  5  6  1  0  0  0  0
  5  8  1  0  0  0  0
  6  7  2  0  0  0  0
  8  9  1  0  0  0  0
  9 10  2  0  0  0  0
M  END
>  <CHROM.1>
11.38152206,11.08455650,7.43940656,0.39422958,-1.34899832,0.99317387

>  <Name>
1u8d_lig

>  <RI>
0

>  <Rbt.Current_Directory>
/home/itssahil/PROJECTS/Mol_Feturizer/New_Systems/rnas/1u8d

>  <Rbt.Executable>
rbdock ($Id: //depot/dev/client3/rdock/2013.1/src/exe/rbdock.cxx#4 $)

>  <Rbt.Library>
libRbt.so (2013.1, Build901 2013/11/27)

>  <Rbt.Parameter_File>
/export/apps/rDock/src/rDock_2013.1_src/data/scripts/dock_solv.prm

>  <Rbt.Receptor>
prm/pocket_docking_5.prm

>  <SCORE>
-26.1362

>  <SCORE.INTER>
-26.1362

>  <SCORE.INTER.CONST>
1

>  <SCORE.INTER.POLAR>
-1.93632

>  <SCORE.INTER.ROT>
0

>  <SCORE.INTER.SOLV>
11.6759

>  <SCORE.INTER.VDW>
-18.4617

>  <SCORE.INTER.norm>
-2.61362

>  <SCORE.INTRA>
0

>  <SCORE.INTRA.DIHEDRAL>
0

>  <SCORE.INTRA.DIHEDRAL.0>
0

>  <SCORE.INTRA.POLAR>
0

>  <SCORE.INTRA.POLAR.0>
0

>  <SCORE.INTRA.REPUL>
0

>  <SCORE.INTRA.REPUL.0>
0

>  <SCORE.INTRA.SOLV>
0

>  <SCORE.INTRA.SOLV.lig_0>
-13.7928

>  <SCORE.INTRA.VDW>
0

>  <SCORE.INTRA.VDW.0>
0

>  <SCORE.INTRA.norm>
0

>  <SCORE.RESTR>
0

>  <SCORE.RESTR.CAVITY>
0

>  <SCORE.RESTR.norm>
0

>  <SCORE.SYSTEM>
0

>  <SCORE.SYSTEM.CONST>
0

>  <SCORE.SYSTEM.DIHEDRAL>
0

>  <SCORE.SYSTEM.SOLV>
0

>  <SCORE.SYSTEM.norm>
0

>  <SCORE.heavy>
10

>  <SCORE.norm>
-2.61362

>  <RMSD>
0.219

$$$$
1u8d_lig
 OpenBabel11021811413D
libRbt.so/2013.1/901 2013/11/27
 10 11  0  0  0  0  0  0  0  0999 V2000
   11.7213   10.4761    9.2725 N   0  0  0  0  0  0  0  0  0  0  0  0
   11.4778   11.8428    9.4913 C   0  0  0  0  0  0  0  0  0  0  0  0
   11.1901   12.7206    8.4966 N   0  0  0  0  0  0  0  0  0  0  0  0
   11.1607   12.1394    7.2777 C   0  0  0  0  0  0  0  0  0  0  0  0
   11.4202   10.6646    6.9755 C   0  0  0  0  0  0  0  0  0  0  0  0
   11.7154    9.7979    8.0392 C   0  0  0  0  0  0  0  0  0  0  0  0
   11.9486    8.5970    8.0284 O   0  0  0  0  0  0  0  0  0  0  0  0
   11.2929   10.5120    5.6220 N   0  0  0  0  0  0  0  0  0  0  0  0
   10.9755   11.7415    5.0983 C   0  0  0  0  0  0  0  0  0  0  0  0
   10.8890   12.7414    6.0632 N   0  0  0  0  0  0  0  0  0  0  0  0
  1  2  1  0  0  0  0
  1  6  1  0  0  0  0
  2  3  2  0  0  0  0
  3  4  1  0  0  0  0
  4  5  2  0  0  0  0
  4 10  1  0  0  0  0
  5  6  1  0  0  0  0
  5  8  1  0  0  0  0
  6  7  2  0  0  0  0
  8  9  1  0  0  0  0
  9 10  2  0  0  0  0
M  END
>  <CHROM.1>
11.38752029,11.08735360,7.44762178,0.42861551,-1.34339299,1.03552410

>  <Name>
1u8d_lig

>  <RI>
0

>  <Rbt.Current_Directory>
/home/itssahil/PROJECTS/Mol_Feturizer/New_Systems/rnas/1u8d

>  <Rbt.Executable>
rbdock ($Id: //depot/dev/client3/rdock/2013.1/src/exe/rbdock.cxx#4 $)

>  <Rbt.Library>
libRbt.so (2013.1, Build901 2013/11/27)

>  <Rbt.Parameter_File>
/export/apps/rDock/src/rDock_2013.1_src/data/scripts/dock_solv.prm

>  <Rbt.Receptor>
prm/pocket_docking_5.prm

>  <SCORE>
-26.1303

>  <SCORE.INTER>
-26.1303

>  <SCORE.INTER.CONST>
1

>  <SCORE.INTER.POLAR>
-1.93632

>  <SCORE.INTER.ROT>
0

>  <SCORE.INTER.SOLV>
11.6495

>  <SCORE.INTER.VDW>
-18.4489

>  <SCORE.INTER.norm>
-2.61303

>  <SCORE.INTRA>
0

>  <SCORE.INTRA.DIHEDRAL>
0

>  <SCORE.INTRA.DIHEDRAL.0>
0

>  <SCORE.INTRA.POLAR>
0

>  <SCORE.INTRA.POLAR.0>
0

>  <SCORE.INTRA.REPUL>
0

>  <SCORE.INTRA.REPUL.0>
0

>  <SCORE.INTRA.SOLV>
0

>  <SCORE.INTRA.SOLV.lig_0>
-13.7928

>  <SCORE.INTRA.VDW>
0

>  <SCORE.INTRA.VDW.0>
0

>  <SCORE.INTRA.norm>
0

>  <SCORE.RESTR>
0

>  <SCORE.RESTR.CAVITY>
0

>  <SCORE.RESTR.norm>
0

>  <SCORE.SYSTEM>
0

>  <SCORE.SYSTEM.CONST>
0

>  <SCORE.SYSTEM.DIHEDRAL>
0

>  <SCORE.SYSTEM.SOLV>
0

>  <SCORE.SYSTEM.norm>
0

>  <SCORE.heavy>
10

>  <SCORE.norm>
-2.61303

>  <RMSD>
0.219

$$$$
1u8d_lig
 OpenBabel11021811413D
libRbt.so/2013.1/901 2013/11/27
 10 11  0  0  0  0  0  0  0  0999 V2000
   11.7260   10.4752    9.2746 N   0  0  0  0  0  0  0  0  0  0  0  0
   11.4942   11.8448    9.4880 C   0  0  0  0  0  0  0  0  0  0  0  0
   11.2009   12.7186    8.4915 N   0  0  0  0  0  0  0  0  0  0  0  0
   11.1534   12.1304    7.2765 C   0  0  0  0  0  0  0  0  0  0  0  0
   11.3994   10.6521    6.9802 C   0  0  0  0  0  0  0  0  0  0  0  0
   11.7012    9.7898    8.0455 C   0  0  0  0  0  0  0  0  0  0  0  0
   11.9262    8.5873    8.0393 O   0  0  0  0  0  0  0  0  0  0  0  0
   11.2554   10.4925    5.6292 N   0  0  0  0  0  0  0  0  0  0  0  0
   10.9402   11.7209    5.1018 C   0  0  0  0  0  0  0  0  0  0  0  0
   10.8716   12.7271    6.0617 N   0  0  0  0  0  0  0  0  0  0  0  0
  1  2  1  0  0  0  0
  1  6  1  0  0  0  0
  2  3  2  0  0  0  0
  3  4  1  0  0  0  0
  4  5  2  0  0  0  0
  4 10  1  0  0  0  0
  5  6  1  0  0  0  0
  5  8  1  0  0  0  0
  6  7  2  0  0  0  0
  8  9  1  0  0  0  0
  9 10  2  0  0  0  0
M  END
>  <CHROM.1>
11.37508579,11.07791717,7.45010179,0.36916554,-1.34284609,0.97166333

>  <Name>
1u8d_lig

>  <RI>
0

>  <Rbt.Current_Directory>
/home/itssahil/PROJECTS/Mol_Feturizer/New_Systems/rnas/1u8d

>  <Rbt.Executable>
rbdock ($Id: //depot/dev/client3/rdock/2013.1/src/exe/rbdock.cxx#4 $)

>  <Rbt.Library>
libRbt.so (2013.1, Build901 2013/11/27)

>  <Rbt.Parameter_File>
/export/apps/rDock/src/rDock_2013.1_src/data/scripts/dock_solv.prm

>  <Rbt.Receptor>
prm/pocket_docking_5.prm

>  <SCORE>
-26.1297

>  <SCORE.INTER>
-26.1297

>  <SCORE.INTER.CONST>
1

>  <SCORE.INTER.POLAR>
-1.93632

>  <SCORE.INTER.ROT>
0

>  <SCORE.INTER.SOLV>
11.653

>  <SCORE.INTER.VDW>
-18.4497

>  <SCORE.INTER.norm>
-2.61297

>  <SCORE.INTRA>
0

>  <SCORE.INTRA.DIHEDRAL>
0

>  <SCORE.INTRA.DIHEDRAL.0>
0

>  <SCORE.INTRA.POLAR>
0

>  <SCORE.INTRA.POLAR.0>
0

>  <SCORE.INTRA.REPUL>
0

>  <SCORE.INTRA.REPUL.0>
0

>  <SCORE.INTRA.SOLV>
0

>  <SCORE.INTRA.SOLV.lig_0>
-13.7928

>  <SCORE.INTRA.VDW>
0

>  <SCORE.INTRA.VDW.0>
0

>  <SCORE.INTRA.norm>
0

>  <SCORE.RESTR>
0

>  <SCORE.RESTR.CAVITY>
0

>  <SCORE.RESTR.norm>
0

>  <SCORE.SYSTEM>
0

>  <SCORE.SYSTEM.CONST>
0

>  <SCORE.SYSTEM.DIHEDRAL>
0

>  <SCORE.SYSTEM.SOLV>
0

>  <SCORE.SYSTEM.norm>
0

>  <SCORE.heavy>
10

>  <SCORE.norm>
-2.61297

>  <RMSD>
0.219

$$$$
1u8d_lig
 OpenBabel11021811413D
libRbt.so/2013.1/901 2013/11/27
 10 11  0  0  0  0  0  0  0  0999 V2000
   11.7394   10.4872    9.2883 N   0  0  0  0  0  0  0  0  0  0  0  0
   11.5061   11.8548    9.5122 C   0  0  0  0  0  0  0  0  0  0  0  0
   11.1984   12.7334    8.5242 N   0  0  0  0  0  0  0  0  0  0  0  0
   11.1382   12.1520    7.3065 C   0  0  0  0  0  0  0  0  0  0  0  0
   11.3852   10.6761    6.9989 C   0  0  0  0  0  0  0  0  0  0  0  0
   11.7021    9.8087    8.0557 C   0  0  0  0  0  0  0  0  0  0  0  0
   11.9306    8.6069    8.0399 O   0  0  0  0  0  0  0  0  0  0  0  0
   11.2256   10.5236    5.6488 N   0  0  0  0  0  0  0  0  0  0  0  0
   10.9005   11.7541    5.1322 C   0  0  0  0  0  0  0  0  0  0  0  0
   10.8403   12.7546    6.0986 N   0  0  0  0  0  0  0  0  0  0  0  0
  1  2  1  0  0  0  0
  1  6  1  0  0  0  0
  2  3  2  0  0  0  0
  3  4  1  0  0  0  0
  4  5  2  0  0  0  0
  4 10  1  0  0  0  0
  5  6  1  0  0  0  0
  5  8  1  0  0  0  0
  6  7  2  0  0  0  0
  8  9  1  0  0  0  0
  9 10  2  0  0  0  0
M  END
>  <CHROM.1>
11.36510245,11.09915270,7.47147714,0.33468815,-1.33355908,0.94378610

>  <Name>
1u8d_lig

>  <RI>
0

>  <Rbt.Current_Directory>
/home/itssahil/PROJECTS/Mol_Feturizer/New_Systems/rnas/1u8d

>  <Rbt.Executable>
rbdock ($Id: //depot/dev/client3/rdock/2013.1/src/exe/rbdock.cxx#4 $)

>  <Rbt.Library>
libRbt.so (2013.1, Build901 2013/11/27)

>  <Rbt.Parameter_File>
/export/apps/rDock/src/rDock_2013.1_src/data/scripts/dock_solv.prm

>  <Rbt.Receptor>
prm/pocket_docking_7.prm

>  <SCORE>
-26.1216

>  <SCORE.INTER>
-26.1216

>  <SCORE.INTER.CONST>
1

>  <SCORE.INTER.POLAR>
-1.93632

>  <SCORE.INTER.ROT>
0

>  <SCORE.INTER.SOLV>
11.6166

>  <SCORE.INTER.VDW>
-18.4322

>  <SCORE.INTER.norm>
-2.61216

>  <SCORE.INTRA>
0

>  <SCORE.INTRA.DIHEDRAL>
0

>  <SCORE.INTRA.DIHEDRAL.0>
0

>  <SCORE.INTRA.POLAR>
0

>  <SCORE.INTRA.POLAR.0>
0

>  <SCORE.INTRA.REPUL>
0

>  <SCORE.INTRA.REPUL.0>
0

>  <SCORE.INTRA.SOLV>
0

>  <SCORE.INTRA.SOLV.lig_0>
-13.7928

>  <SCORE.INTRA.VDW>
0

>  <SCORE.INTRA.VDW.0>
0

>  <SCORE.INTRA.norm>
0

>  <SCORE.RESTR>
0

>  <SCORE.RESTR.CAVITY>
0

>  <SCORE.RESTR.norm>
0

>  <SCORE.SYSTEM>
0

>  <SCORE.SYSTEM.CONST>
0

>  <SCORE.SYSTEM.DIHEDRAL>
0

>  <SCORE.SYSTEM.SOLV>
0

>  <SCORE.SYSTEM.norm>
0

>  <SCORE.heavy>
10

>  <SCORE.norm>
-2.61216

>  <RMSD>
0.219

$$$$
1u8d_lig
 OpenBabel11021811413D
libRbt.so/2013.1/901 2013/11/27
 10 11  0  0  0  0  0  0  0  0999 V2000
   11.7275   10.4838    9.2777 N   0  0  0  0  0  0  0  0  0  0  0  0
   11.4946   11.8522    9.4975 C   0  0  0  0  0  0  0  0  0  0  0  0
   11.1986   12.7301    8.5053 N   0  0  0  0  0  0  0  0  0  0  0  0
   11.1497   12.1471    7.2878 C   0  0  0  0  0  0  0  0  0  0  0  0
   11.3968   10.6704    6.9846 C   0  0  0  0  0  0  0  0  0  0  0  0
   11.7014    9.8038    8.0457 C   0  0  0  0  0  0  0  0  0  0  0  0
   11.9276    8.6015    8.0338 O   0  0  0  0  0  0  0  0  0  0  0  0
   11.2507   10.5164    5.6332 N   0  0  0  0  0  0  0  0  0  0  0  0
   10.9332   11.7468    5.1117 C   0  0  0  0  0  0  0  0  0  0  0  0
   10.8652   12.7487    6.0761 N   0  0  0  0  0  0  0  0  0  0  0  0
  1  2  1  0  0  0  0
  1  6  1  0  0  0  0
  2  3  2  0  0  0  0
  3  4  1  0  0  0  0
  4  5  2  0  0  0  0
  4 10  1  0  0  0  0
  5  6  1  0  0  0  0
  5  8  1  0  0  0  0
  6  7  2  0  0  0  0
  8  9  1  0  0  0  0
  9 10  2  0  0  0  0
M  END
>  <CHROM.1>
11.37281988,11.09408728,7.45644619,0.36567100,-1.34097141,0.97260453

>  <Name>
1u8d_lig

>  <RI>
0

>  <Rbt.Current_Directory>
/home/itssahil/PROJECTS/Mol_Feturizer/New_Systems/rnas/1u8d

>  <Rbt.Executable>
rbdock ($Id: //depot/dev/client3/rdock/2013.1/src/exe/rbdock.cxx#4 $)

>  <Rbt.Library>
libRbt.so (2013.1, Build901 2013/11/27)

>  <Rbt.Parameter_File>
/export/apps/rDock/src/rDock_2013.1_src/data/scripts/dock_solv.prm

>  <Rbt.Receptor>
prm/pocket_docking_8.prm

>  <SCORE>
-26.1237

>  <SCORE.INTER>
-26.1237

>  <SCORE.INTER.CONST>
1

>  <SCORE.INTER.POLAR>
-1.93632

>  <SCORE.INTER.ROT>
0

>  <SCORE.INTER.SOLV>
11.6439

>  <SCORE.INTER.VDW>
-18.4427

>  <SCORE.INTER.norm>
-2.61237

>  <SCORE.INTRA>
0

>  <SCORE.INTRA.DIHEDRAL>
0

>  <SCORE.INTRA.DIHEDRAL.0>
0

>  <SCORE.INTRA.POLAR>
0

>  <SCORE.INTRA.POLAR.0>
0

>  <SCORE.INTRA.REPUL>
0

>  <SCORE.INTRA.REPUL.0>
0

>  <SCORE.INTRA.SOLV>
0

>  <SCORE.INTRA.SOLV.lig_0>
-13.7928

>  <SCORE.INTRA.VDW>
0

>  <SCORE.INTRA.VDW.0>
0

>  <SCORE.INTRA.norm>
0

>  <SCORE.RESTR>
0

>  <SCORE.RESTR.CAVITY>
0

>  <SCORE.RESTR.norm>
0

>  <SCORE.SYSTEM>
0

>  <SCORE.SYSTEM.CONST>
0

>  <SCORE.SYSTEM.DIHEDRAL>
0

>  <SCORE.SYSTEM.SOLV>
0

>  <SCORE.SYSTEM.norm>
0

>  <SCORE.heavy>
10

>  <SCORE.norm>
-2.61237

>  <RMSD>
0.219

$$$$
1u8d_lig
 OpenBabel11021811413D
libRbt.so/2013.1/901 2013/11/27
 10 11  0  0  0  0  0  0  0  0999 V2000
   11.7152   10.4749    9.2752 N   0  0  0  0  0  0  0  0  0  0  0  0
   11.4778   11.8437    9.4876 C   0  0  0  0  0  0  0  0  0  0  0  0
   11.1904   12.7175    8.4893 N   0  0  0  0  0  0  0  0  0  0  0  0
   11.1549   12.1300    7.2735 C   0  0  0  0  0  0  0  0  0  0  0  0
   11.4077   10.6526    6.9782 C   0  0  0  0  0  0  0  0  0  0  0  0
   11.7029    9.7904    8.0454 C   0  0  0  0  0  0  0  0  0  0  0  0
   11.9313    8.5885    8.0402 O   0  0  0  0  0  0  0  0  0  0  0  0
   11.2756   10.4936    5.6259 N   0  0  0  0  0  0  0  0  0  0  0  0
   10.9613   11.7215    5.0968 C   0  0  0  0  0  0  0  0  0  0  0  0
   10.8818   12.7268    6.0568 N   0  0  0  0  0  0  0  0  0  0  0  0
  1  2  1  0  0  0  0
  1  6  1  0  0  0  0
  2  3  2  0  0  0  0
  3  4  1  0  0  0  0
  4  5  2  0  0  0  0
  4 10  1  0  0  0  0
  5  6  1  0  0  0  0
  5  8  1  0  0  0  0
  6  7  2  0  0  0  0
  8  9  1  0  0  0  0
  9 10  2  0  0  0  0
M  END
>  <CHROM.1>
11.37813689,11.07800694,7.44818025,0.40763589,-1.34511852,1.00988351

>  <Name>
1u8d_lig

>  <RI>
0

>  <Rbt.Current_Directory>
/home/itssahil/PROJECTS/Mol_Feturizer/New_Systems/rnas/1u8d

>  <Rbt.Executable>
rbdock ($Id: //depot/dev/client3/rdock/2013.1/src/exe/rbdock.cxx#4 $)

>  <Rbt.Library>
libRbt.so (2013.1, Build901 2013/11/27)

>  <Rbt.Parameter_File>
/export/apps/rDock/src/rDock_2013.1_src/data/scripts/dock_solv.prm

>  <Rbt.Receptor>
prm/pocket_docking_8.prm

>  <SCORE>
-26.1569

>  <SCORE.INTER>
-26.1569

>  <SCORE.INTER.CONST>
1

>  <SCORE.INTER.POLAR>
-1.93632

>  <SCORE.INTER.ROT>
0

>  <SCORE.INTER.SOLV>
11.6647

>  <SCORE.INTER.VDW>
-18.4718

>  <SCORE.INTER.norm>
-2.61569

>  <SCORE.INTRA>
0

>  <SCORE.INTRA.DIHEDRAL>
0

>  <SCORE.INTRA.DIHEDRAL.0>
0

>  <SCORE.INTRA.POLAR>
0

>  <SCORE.INTRA.POLAR.0>
0

>  <SCORE.INTRA.REPUL>
0

>  <SCORE.INTRA.REPUL.0>
0

>  <SCORE.INTRA.SOLV>
0

>  <SCORE.INTRA.SOLV.lig_0>
-13.7928

>  <SCORE.INTRA.VDW>
0

>  <SCORE.INTRA.VDW.0>
0

>  <SCORE.INTRA.norm>
0

>  <SCORE.RESTR>
0

>  <SCORE.RESTR.CAVITY>
0

>  <SCORE.RESTR.norm>
0

>  <SCORE.SYSTEM>
0

>  <SCORE.SYSTEM.CONST>
0

>  <SCORE.SYSTEM.DIHEDRAL>
0

>  <SCORE.SYSTEM.SOLV>
0

>  <SCORE.SYSTEM.norm>
0

>  <SCORE.heavy>
10

>  <SCORE.norm>
-2.61569

>  <RMSD>
0.219

$$$$
1u8d_lig
 OpenBabel11021811413D
libRbt.so/2013.1/901 2013/11/27
 10 11  0  0  0  0  0  0  0  0999 V2000
   11.6610   10.4845    9.1447 N   0  0  0  0  0  0  0  0  0  0  0  0
   11.3124   11.8330    9.3318 C   0  0  0  0  0  0  0  0  0  0  0  0
   10.9764   12.6674    8.3151 N   0  0  0  0  0  0  0  0  0  0  0  0
   11.0108   12.0622    7.1080 C   0  0  0  0  0  0  0  0  0  0  0  0
   11.3848   10.6055    6.8400 C   0  0  0  0  0  0  0  0  0  0  0  0
   11.7263    9.7842    7.9256 C   0  0  0  0  0  0  0  0  0  0  0  0
   12.0488    8.6041    7.9430 O   0  0  0  0  0  0  0  0  0  0  0  0
   11.2918   10.4177    5.4882 N   0  0  0  0  0  0  0  0  0  0  0  0
   10.8920   11.6095    4.9347 C   0  0  0  0  0  0  0  0  0  0  0  0
   10.7150   12.6186    5.8775 N   0  0  0  0  0  0  0  0  0  0  0  0
  1  2  1  0  0  0  0
  1  6  1  0  0  0  0
  2  3  2  0  0  0  0
  3  4  1  0  0  0  0
  4  5  2  0  0  0  0
  4 10  1  0  0  0  0
  5  6  1  0  0  0  0
  5  8  1  0  0  0  0
  6  7  2  0  0  0  0
  8  9  1  0  0  0  0
  9 10  2  0  0  0  0
M  END
>  <CHROM.1>
11.31276517,11.03365643,7.30285725,0.61423598,-1.28274031,1.19521540

>  <Name>
1u8d_lig

>  <RI>
0

>  <Rbt.Current_Directory>
/home/itssahil/PROJECTS/Mol_Feturizer/New_Systems/rnas/1u8d

>  <Rbt.Executable>
rbdock ($Id: //depot/dev/client3/rdock/2013.1/src/exe/rbdock.cxx#4 $)

>  <Rbt.Library>
libRbt.so (2013.1, Build901 2013/11/27)

>  <Rbt.Parameter_File>
/export/apps/rDock/src/rDock_2013.1_src/data/scripts/dock_solv.prm

>  <Rbt.Receptor>
prm/blind_docking_20.prm

>  <SCORE>
-25.7694

>  <SCORE.INTER>
-25.7699

>  <SCORE.INTER.CONST>
1

>  <SCORE.INTER.POLAR>
-1.93632

>  <SCORE.INTER.ROT>
0

>  <SCORE.INTER.SOLV>
11.6441

>  <SCORE.INTER.VDW>
-18.2069

>  <SCORE.INTER.norm>
-2.57699

>  <SCORE.INTRA>
0

>  <SCORE.INTRA.DIHEDRAL>
0

>  <SCORE.INTRA.DIHEDRAL.0>
0

>  <SCORE.INTRA.POLAR>
0

>  <SCORE.INTRA.POLAR.0>
0

>  <SCORE.INTRA.REPUL>
0

>  <SCORE.INTRA.REPUL.0>
0

>  <SCORE.INTRA.SOLV>
0

>  <SCORE.INTRA.SOLV.lig_0>
-13.7928

>  <SCORE.INTRA.VDW>
0

>  <SCORE.INTRA.VDW.0>
0

>  <SCORE.INTRA.norm>
0

>  <SCORE.RESTR>
0.000510714

>  <SCORE.RESTR.CAVITY>
0.000510714

>  <SCORE.RESTR.norm>
5.10714e-05

>  <SCORE.SYSTEM>
0

>  <SCORE.SYSTEM.CONST>
0

>  <SCORE.SYSTEM.DIHEDRAL>
0

>  <SCORE.SYSTEM.SOLV>
0

>  <SCORE.SYSTEM.norm>
0

>  <SCORE.heavy>
10

>  <SCORE.norm>
-2.57694

>  <RMSD>
0.220

$$$$
1u8d_lig
 OpenBabel11021811413D
libRbt.so/2013.1/901 2013/11/27
 10 11  0  0  0  0  0  0  0  0999 V2000
   11.6673   10.4506    9.1867 N   0  0  0  0  0  0  0  0  0  0  0  0
   11.3295   11.8028    9.3667 C   0  0  0  0  0  0  0  0  0  0  0  0
   11.0080   12.6367    8.3449 N   0  0  0  0  0  0  0  0  0  0  0  0
   11.0453   12.0270    7.1402 C   0  0  0  0  0  0  0  0  0  0  0  0
   11.4082   10.5661    6.8797 C   0  0  0  0  0  0  0  0  0  0  0  0
   11.7348    9.7455    7.9704 C   0  0  0  0  0  0  0  0  0  0  0  0
   12.0466    8.5627    7.9940 O   0  0  0  0  0  0  0  0  0  0  0  0
   11.3228   10.3745    5.5280 N   0  0  0  0  0  0  0  0  0  0  0  0
   10.9376   11.5679    4.9676 C   0  0  0  0  0  0  0  0  0  0  0  0
   10.7630   12.5818    5.9058 N   0  0  0  0  0  0  0  0  0  0  0  0
  1  2  1  0  0  0  0
  1  6  1  0  0  0  0
  2  3  2  0  0  0  0
  3  4  1  0  0  0  0
  4  5  2  0  0  0  0
  4 10  1  0  0  0  0
  5  6  1  0  0  0  0
  5  8  1  0  0  0  0
  6  7  2  0  0  0  0
  8  9  1  0  0  0  0
  9 10  2  0  0  0  0
M  END
>  <CHROM.1>
11.33673879,10.99648725,7.34059430,0.62575592,-1.29357667,1.20286236

>  <Name>
1u8d_lig

>  <RI>
0

>  <Rbt.Current_Directory>
/home/itssahil/PROJECTS/Mol_Feturizer/New_Systems/rnas/1u8d

>  <Rbt.Executable>
rbdock ($Id: //depot/dev/client3/rdock/2013.1/src/exe/rbdock.cxx#4 $)

>  <Rbt.Library>
libRbt.so (2013.1, Build901 2013/11/27)

>  <Rbt.Parameter_File>
/export/apps/rDock/src/rDock_2013.1_src/data/scripts/dock_solv.prm

>  <Rbt.Receptor>
prm/blind_docking_20.prm

>  <SCORE>
-25.7635

>  <SCORE.INTER>
-25.7649

>  <SCORE.INTER.CONST>
1

>  <SCORE.INTER.POLAR>
-1.93632

>  <SCORE.INTER.ROT>
0

>  <SCORE.INTER.SOLV>
11.6548

>  <SCORE.INTER.VDW>
-18.2071

>  <SCORE.INTER.norm>
-2.57649

>  <SCORE.INTRA>
0

>  <SCORE.INTRA.DIHEDRAL>
0

>  <SCORE.INTRA.DIHEDRAL.0>
0

>  <SCORE.INTRA.POLAR>
0

>  <SCORE.INTRA.POLAR.0>
0

>  <SCORE.INTRA.REPUL>
0

>  <SCORE.INTRA.REPUL.0>
0

>  <SCORE.INTRA.SOLV>
0

>  <SCORE.INTRA.SOLV.lig_0>
-13.7928

>  <SCORE.INTRA.VDW>
0

>  <SCORE.INTRA.VDW.0>
0

>  <SCORE.INTRA.norm>
0

>  <SCORE.RESTR>
0.00137916

>  <SCORE.RESTR.CAVITY>
0.00137916

>  <SCORE.RESTR.norm>
0.000137916

>  <SCORE.SYSTEM>
0

>  <SCORE.SYSTEM.CONST>
0

>  <SCORE.SYSTEM.DIHEDRAL>
0

>  <SCORE.SYSTEM.SOLV>
0

>  <SCORE.SYSTEM.norm>
0

>  <SCORE.heavy>
10

>  <SCORE.norm>
-2.57635

>  <RMSD>
0.220

$$$$
1u8d_lig
 OpenBabel11021811413D
libRbt.so/2013.1/901 2013/11/27
 10 11  0  0  0  0  0  0  0  0999 V2000
   11.7131   10.4768    9.2734 N   0  0  0  0  0  0  0  0  0  0  0  0
   11.4757   11.8454    9.4870 C   0  0  0  0  0  0  0  0  0  0  0  0
   11.1902   12.7204    8.4892 N   0  0  0  0  0  0  0  0  0  0  0  0
   11.1565   12.1344    7.2727 C   0  0  0  0  0  0  0  0  0  0  0  0
   11.4093   10.6573    6.9761 C   0  0  0  0  0  0  0  0  0  0  0  0
   11.7025    9.7937    8.0428 C   0  0  0  0  0  0  0  0  0  0  0  0
   11.9305    8.5918    8.0366 O   0  0  0  0  0  0  0  0  0  0  0  0
   11.2794   10.4998    5.6234 N   0  0  0  0  0  0  0  0  0  0  0  0
   10.9664   11.7285    5.0952 C   0  0  0  0  0  0  0  0  0  0  0  0
   10.8856   12.7327    6.0562 N   0  0  0  0  0  0  0  0  0  0  0  0
  1  2  1  0  0  0  0
  1  6  1  0  0  0  0
  2  3  2  0  0  0  0
  3  4  1  0  0  0  0
  4  5  2  0  0  0  0
  4 10  1  0  0  0  0
  5  6  1  0  0  0  0
  5  8  1  0  0  0  0
  6  7  2  0  0  0  0
  8  9  1  0  0  0  0
  9 10  2  0  0  0  0
M  END
>  <CHROM.1>
11.37912134,11.08211823,7.44653060,0.41313622,-1.34624554,1.01639085

>  <Name>
1u8d_lig

>  <RI>
0

>  <Rbt.Current_Directory>
/home/itssahil/PROJECTS/Mol_Feturizer/New_Systems/rnas/1u8d

>  <Rbt.Executable>
rbdock ($Id: //depot/dev/client3/rdock/2013.1/src/exe/rbdock.cxx#4 $)

>  <Rbt.Library>
libRbt.so (2013.1, Build901 2013/11/27)

>  <Rbt.Parameter_File>
/export/apps/rDock/src/rDock_2013.1_src/data/scripts/dock_solv.prm

>  <Rbt.Receptor>
prm/blind_docking_40.prm

>  <SCORE>
-26.158

>  <SCORE.INTER>
-26.158

>  <SCORE.INTER.CONST>
1

>  <SCORE.INTER.POLAR>
-1.93632

>  <SCORE.INTER.ROT>
0

>  <SCORE.INTER.SOLV>
11.6672

>  <SCORE.INTER.VDW>
-18.4733

>  <SCORE.INTER.norm>
-2.6158

>  <SCORE.INTRA>
0

>  <SCORE.INTRA.DIHEDRAL>
0

>  <SCORE.INTRA.DIHEDRAL.0>
0

>  <SCORE.INTRA.POLAR>
0

>  <SCORE.INTRA.POLAR.0>
0

>  <SCORE.INTRA.REPUL>
0

>  <SCORE.INTRA.REPUL.0>
0

>  <SCORE.INTRA.SOLV>
0

>  <SCORE.INTRA.SOLV.lig_0>
-13.7928

>  <SCORE.INTRA.VDW>
0

>  <SCORE.INTRA.VDW.0>
0

>  <SCORE.INTRA.norm>
0

>  <SCORE.RESTR>
0

>  <SCORE.RESTR.CAVITY>
0

>  <SCORE.RESTR.norm>
0

>  <SCORE.SYSTEM>
0

>  <SCORE.SYSTEM.CONST>
0

>  <SCORE.SYSTEM.DIHEDRAL>
0

>  <SCORE.SYSTEM.SOLV>
0

>  <SCORE.SYSTEM.norm>
0

>  <SCORE.heavy>
10

>  <SCORE.norm>
-2.6158

>  <RMSD>
0.220

$$$$
1u8d_lig
 OpenBabel11021811413D
libRbt.so/2013.1/901 2013/11/27
 10 11  0  0  0  0  0  0  0  0999 V2000
   11.7893   10.5751    9.1951 N   0  0  0  0  0  0  0  0  0  0  0  0
   11.5834   11.9521    9.3861 C   0  0  0  0  0  0  0  0  0  0  0  0
   11.2837   12.8111    8.3786 N   0  0  0  0  0  0  0  0  0  0  0  0
   11.2025   12.2003    7.1766 C   0  0  0  0  0  0  0  0  0  0  0  0
   11.4193   10.7128    6.9045 C   0  0  0  0  0  0  0  0  0  0  0  0
   11.7290    9.8665    7.9804 C   0  0  0  0  0  0  0  0  0  0  0  0
   11.9349    8.6606    7.9933 O   0  0  0  0  0  0  0  0  0  0  0  0
   11.2455   10.5294    5.5601 N   0  0  0  0  0  0  0  0  0  0  0  0
   10.9390   11.7523    5.0150 C   0  0  0  0  0  0  0  0  0  0  0  0
   10.9056   12.7779    5.9562 N   0  0  0  0  0  0  0  0  0  0  0  0
  1  2  1  0  0  0  0
  1  6  1  0  0  0  0
  2  3  2  0  0  0  0
  3  4  1  0  0  0  0
  4  5  2  0  0  0  0
  4 10  1  0  0  0  0
  5  6  1  0  0  0  0
  5  8  1  0  0  0  0
  6  7  2  0  0  0  0
  8  9  1  0  0  0  0
  9 10  2  0  0  0  0
M  END
>  <CHROM.1>
11.41110955,11.14795421,7.36639148,0.25590631,-1.34299051,0.84182430

>  <Name>
1u8d_lig

>  <RI>
0

>  <Rbt.Current_Directory>
/home/itssahil/PROJECTS/Mol_Feturizer/New_Systems/rnas/1u8d

>  <Rbt.Executable>
rbdock ($Id: //depot/dev/client3/rdock/2013.1/src/exe/rbdock.cxx#4 $)

>  <Rbt.Library>
libRbt.so (2013.1, Build901 2013/11/27)

>  <Rbt.Parameter_File>
/export/apps/rDock/src/rDock_2013.1_src/data/scripts/dock_solv.prm

>  <Rbt.Receptor>
prm/blind_docking_40.prm

>  <SCORE>
-26.109

>  <SCORE.INTER>
-26.109

>  <SCORE.INTER.CONST>
1

>  <SCORE.INTER.POLAR>
-1.93632

>  <SCORE.INTER.ROT>
0

>  <SCORE.INTER.SOLV>
11.6421

>  <SCORE.INTER.VDW>
-18.4323

>  <SCORE.INTER.norm>
-2.6109

>  <SCORE.INTRA>
0

>  <SCORE.INTRA.DIHEDRAL>
0

>  <SCORE.INTRA.DIHEDRAL.0>
0

>  <SCORE.INTRA.POLAR>
0

>  <SCORE.INTRA.POLAR.0>
0

>  <SCORE.INTRA.REPUL>
0

>  <SCORE.INTRA.REPUL.0>
0

>  <SCORE.INTRA.SOLV>
0

>  <SCORE.INTRA.SOLV.lig_0>
-13.7928

>  <SCORE.INTRA.VDW>
0

>  <SCORE.INTRA.VDW.0>
0

>  <SCORE.INTRA.norm>
0

>  <SCORE.RESTR>
0

>  <SCORE.RESTR.CAVITY>
0

>  <SCORE.RESTR.norm>
0

>  <SCORE.SYSTEM>
0

>  <SCORE.SYSTEM.CONST>
0

>  <SCORE.SYSTEM.DIHEDRAL>
0

>  <SCORE.SYSTEM.SOLV>
0

>  <SCORE.SYSTEM.norm>
0

>  <SCORE.heavy>
10

>  <SCORE.norm>
-2.6109

>  <RMSD>
0.220

$$$$
1u8d_lig
 OpenBabel11021811413D
libRbt.so/2013.1/901 2013/11/27
 10 11  0  0  0  0  0  0  0  0999 V2000
   11.7243   10.4769    9.2734 N   0  0  0  0  0  0  0  0  0  0  0  0
   11.4914   11.8465    9.4854 C   0  0  0  0  0  0  0  0  0  0  0  0
   11.2026   12.7201    8.4874 N   0  0  0  0  0  0  0  0  0  0  0  0
   11.1608   12.1317    7.2723 C   0  0  0  0  0  0  0  0  0  0  0  0
   11.4084   10.6533    6.9774 C   0  0  0  0  0  0  0  0  0  0  0  0
   11.7054    9.7913    8.0443 C   0  0  0  0  0  0  0  0  0  0  0  0
   11.9305    8.5888    8.0394 O   0  0  0  0  0  0  0  0  0  0  0  0
   11.2707   10.4934    5.6258 N   0  0  0  0  0  0  0  0  0  0  0  0
   10.9577   11.7217    5.0967 C   0  0  0  0  0  0  0  0  0  0  0  0
   10.8846   12.7281    6.0561 N   0  0  0  0  0  0  0  0  0  0  0  0
  1  2  1  0  0  0  0
  1  6  1  0  0  0  0
  2  3  2  0  0  0  0
  3  4  1  0  0  0  0
  4  5  2  0  0  0  0
  4 10  1  0  0  0  0
  5  6  1  0  0  0  0
  5  8  1  0  0  0  0
  6  7  2  0  0  0  0
  8  9  1  0  0  0  0
  9 10  2  0  0  0  0
M  END
>  <CHROM.1>
11.38183263,11.07921435,7.44714210,0.38662077,-1.34532356,0.98846122

>  <Name>
1u8d_lig

>  <RI>
0

>  <Rbt.Current_Directory>
/home/itssahil/PROJECTS/Mol_Feturizer/New_Systems/rnas/1u8d

>  <Rbt.Executable>
rbdock ($Id: //depot/dev/client3/rdock/2013.1/src/exe/rbdock.cxx#4 $)

>  <Rbt.Library>
libRbt.so (2013.1, Build901 2013/11/27)

>  <Rbt.Parameter_File>
/export/apps/rDock/src/rDock_2013.1_src/data/scripts/dock_solv.prm

>  <Rbt.Receptor>
prm/blind_docking_60.prm

>  <SCORE>
-26.1676

>  <SCORE.INTER>
-26.1676

>  <SCORE.INTER.CONST>
1

>  <SCORE.INTER.POLAR>
-1.93632

>  <SCORE.INTER.ROT>
0

>  <SCORE.INTER.SOLV>
11.6582

>  <SCORE.INTER.VDW>
-18.4767

>  <SCORE.INTER.norm>
-2.61676

>  <SCORE.INTRA>
0

>  <SCORE.INTRA.DIHEDRAL>
0

>  <SCORE.INTRA.DIHEDRAL.0>
0

>  <SCORE.INTRA.POLAR>
0

>  <SCORE.INTRA.POLAR.0>
0

>  <SCORE.INTRA.REPUL>
0

>  <SCORE.INTRA.REPUL.0>
0

>  <SCORE.INTRA.SOLV>
0

>  <SCORE.INTRA.SOLV.lig_0>
-13.7928

>  <SCORE.INTRA.VDW>
0

>  <SCORE.INTRA.VDW.0>
0

>  <SCORE.INTRA.norm>
0

>  <SCORE.RESTR>
0

>  <SCORE.RESTR.CAVITY>
0

>  <SCORE.RESTR.norm>
0

>  <SCORE.SYSTEM>
0

>  <SCORE.SYSTEM.CONST>
0

>  <SCORE.SYSTEM.DIHEDRAL>
0

>  <SCORE.SYSTEM.SOLV>
0

>  <SCORE.SYSTEM.norm>
0

>  <SCORE.heavy>
10

>  <SCORE.norm>
-2.61676

>  <RMSD>
0.220

$$$$
1u8d_lig
 OpenBabel11021811413D
libRbt.so/2013.1/901 2013/11/27
 10 11  0  0  0  0  0  0  0  0999 V2000
   11.6774   10.4845    9.2847 N   0  0  0  0  0  0  0  0  0  0  0  0
   11.4197   11.8490    9.5014 C   0  0  0  0  0  0  0  0  0  0  0  0
   11.1448   12.7267    8.5031 N   0  0  0  0  0  0  0  0  0  0  0  0
   11.1432   12.1478    7.2827 C   0  0  0  0  0  0  0  0  0  0  0  0
   11.4193   10.6756    6.9827 C   0  0  0  0  0  0  0  0  0  0  0  0
   11.7003    9.8089    8.0502 C   0  0  0  0  0  0  0  0  0  0  0  0
   11.9424    8.6097    8.0416 O   0  0  0  0  0  0  0  0  0  0  0  0
   11.3193   10.5249    5.6267 N   0  0  0  0  0  0  0  0  0  0  0  0
   11.0031   11.7531    5.0993 C   0  0  0  0  0  0  0  0  0  0  0  0
   10.8906   12.7504    6.0644 N   0  0  0  0  0  0  0  0  0  0  0  0
  1  2  1  0  0  0  0
  1  6  1  0  0  0  0
  2  3  2  0  0  0  0
  3  4  1  0  0  0  0
  4  5  2  0  0  0  0
  4 10  1  0  0  0  0
  5  6  1  0  0  0  0
  5  8  1  0  0  0  0
  6  7  2  0  0  0  0
  8  9  1  0  0  0  0
  9 10  2  0  0  0  0
M  END
>  <CHROM.1>
11.37441456,11.09713224,7.45491748,0.52005524,-1.34602460,1.12664677

>  <Name>
1u8d_lig

>  <RI>
0

>  <Rbt.Current_Directory>
/home/itssahil/PROJECTS/Mol_Feturizer/New_Systems/rnas/1u8d

>  <Rbt.Executable>
rbdock ($Id: //depot/dev/client3/rdock/2013.1/src/exe/rbdock.cxx#4 $)

>  <Rbt.Library>
libRbt.so (2013.1, Build901 2013/11/27)

>  <Rbt.Parameter_File>
/export/apps/rDock/src/rDock_2013.1_src/data/scripts/dock_solv.prm

>  <Rbt.Receptor>
prm/blind_docking_60.prm

>  <SCORE>
-26.0652

>  <SCORE.INTER>
-26.0652

>  <SCORE.INTER.CONST>
1

>  <SCORE.INTER.POLAR>
-1.93632

>  <SCORE.INTER.ROT>
0

>  <SCORE.INTER.SOLV>
11.6898

>  <SCORE.INTER.VDW>
-18.419

>  <SCORE.INTER.norm>
-2.60652

>  <SCORE.INTRA>
0

>  <SCORE.INTRA.DIHEDRAL>
0

>  <SCORE.INTRA.DIHEDRAL.0>
0

>  <SCORE.INTRA.POLAR>
0

>  <SCORE.INTRA.POLAR.0>
0

>  <SCORE.INTRA.REPUL>
0

>  <SCORE.INTRA.REPUL.0>
0

>  <SCORE.INTRA.SOLV>
0

>  <SCORE.INTRA.SOLV.lig_0>
-13.7928

>  <SCORE.INTRA.VDW>
0

>  <SCORE.INTRA.VDW.0>
0

>  <SCORE.INTRA.norm>
0

>  <SCORE.RESTR>
0

>  <SCORE.RESTR.CAVITY>
0

>  <SCORE.RESTR.norm>
0

>  <SCORE.SYSTEM>
0

>  <SCORE.SYSTEM.CONST>
0

>  <SCORE.SYSTEM.DIHEDRAL>
0

>  <SCORE.SYSTEM.SOLV>
0

>  <SCORE.SYSTEM.norm>
0

>  <SCORE.heavy>
10

>  <SCORE.norm>
-2.60652

>  <RMSD>
0.220

$$$$
1u8d_lig
 OpenBabel11021811413D
libRbt.so/2013.1/901 2013/11/27
 10 11  0  0  0  0  0  0  0  0999 V2000
   11.7288   10.4857    9.2788 N   0  0  0  0  0  0  0  0  0  0  0  0
   11.5002   11.8566    9.4869 C   0  0  0  0  0  0  0  0  0  0  0  0
   11.2163   12.7287    8.4860 N   0  0  0  0  0  0  0  0  0  0  0  0
   11.1748   12.1372    7.2724 C   0  0  0  0  0  0  0  0  0  0  0  0
   11.4179   10.6573    6.9818 C   0  0  0  0  0  0  0  0  0  0  0  0
   11.7098    9.7970    8.0515 C   0  0  0  0  0  0  0  0  0  0  0  0
   11.9307    8.5937    8.0501 O   0  0  0  0  0  0  0  0  0  0  0  0
   11.2821   10.4943    5.6304 N   0  0  0  0  0  0  0  0  0  0  0  0
   10.9745   11.7223    5.0975 C   0  0  0  0  0  0  0  0  0  0  0  0
   10.9030   12.7314    6.0541 N   0  0  0  0  0  0  0  0  0  0  0  0
  1  2  1  0  0  0  0
  1  6  1  0  0  0  0
  2  3  2  0  0  0  0
  3  4  1  0  0  0  0
  4  5  2  0  0  0  0
  4 10  1  0  0  0  0
  5  6  1  0  0  0  0
  5  8  1  0  0  0  0
  6  7  2  0  0  0  0
  8  9  1  0  0  0  0
  9 10  2  0  0  0  0
M  END
>  <CHROM.1>
11.39184611,11.08446517,7.45035849,0.38516032,-1.34927373,0.98446295

>  <Name>
1u8d_lig

>  <RI>
0

>  <Rbt.Current_Directory>
/home/itssahil/PROJECTS/Mol_Feturizer/New_Systems/rnas/1u8d

>  <Rbt.Executable>
rbdock ($Id: //depot/dev/client3/rdock/2013.1/src/exe/rbdock.cxx#4 $)

>  <Rbt.Library>
libRbt.so (2013.1, Build901 2013/11/27)

>  <Rbt.Parameter_File>
/export/apps/rDock/src/rDock_2013.1_src/data/scripts/dock_solv.prm

>  <Rbt.Receptor>
prm/pocket_docking_3.prm

>  <SCORE>
-26.1544

>  <SCORE.INTER>
-26.1544

>  <SCORE.INTER.CONST>
1

>  <SCORE.INTER.POLAR>
-1.93632

>  <SCORE.INTER.ROT>
0

>  <SCORE.INTER.SOLV>
11.6623

>  <SCORE.INTER.VDW>
-18.4693

>  <SCORE.INTER.norm>
-2.61544

>  <SCORE.INTRA>
0

>  <SCORE.INTRA.DIHEDRAL>
0

>  <SCORE.INTRA.DIHEDRAL.0>
0

>  <SCORE.INTRA.POLAR>
0

>  <SCORE.INTRA.POLAR.0>
0

>  <SCORE.INTRA.REPUL>
0

>  <SCORE.INTRA.REPUL.0>
0

>  <SCORE.INTRA.SOLV>
0

>  <SCORE.INTRA.SOLV.lig_0>
-13.7928

>  <SCORE.INTRA.VDW>
0

>  <SCORE.INTRA.VDW.0>
0

>  <SCORE.INTRA.norm>
0

>  <SCORE.RESTR>
0

>  <SCORE.RESTR.CAVITY>
0

>  <SCORE.RESTR.norm>
0

>  <SCORE.SYSTEM>
0

>  <SCORE.SYSTEM.CONST>
0

>  <SCORE.SYSTEM.DIHEDRAL>
0

>  <SCORE.SYSTEM.SOLV>
0

>  <SCORE.SYSTEM.norm>
0

>  <SCORE.heavy>
10

>  <SCORE.norm>
-2.61544

>  <RMSD>
0.220

$$$$
1u8d_lig
 OpenBabel11021811413D
libRbt.so/2013.1/901 2013/11/27
 10 11  0  0  0  0  0  0  0  0999 V2000
   11.7247   10.4745    9.2741 N   0  0  0  0  0  0  0  0  0  0  0  0
   11.4933   11.8443    9.4863 C   0  0  0  0  0  0  0  0  0  0  0  0
   11.2007   12.7175    8.4889 N   0  0  0  0  0  0  0  0  0  0  0  0
   11.1536   12.1283    7.2744 C   0  0  0  0  0  0  0  0  0  0  0  0
   11.3993   10.6497    6.9793 C   0  0  0  0  0  0  0  0  0  0  0  0
   11.7003    9.7881    8.0455 C   0  0  0  0  0  0  0  0  0  0  0  0
   11.9248    8.5855    8.0403 O   0  0  0  0  0  0  0  0  0  0  0  0
   11.2559   10.4890    5.6284 N   0  0  0  0  0  0  0  0  0  0  0  0
   10.9413   11.7172    5.0999 C   0  0  0  0  0  0  0  0  0  0  0  0
   10.8726   12.7242    6.0590 N   0  0  0  0  0  0  0  0  0  0  0  0
  1  2  1  0  0  0  0
  1  6  1  0  0  0  0
  2  3  2  0  0  0  0
  3  4  1  0  0  0  0
  4  5  2  0  0  0  0
  4 10  1  0  0  0  0
  5  6  1  0  0  0  0
  5  8  1  0  0  0  0
  6  7  2  0  0  0  0
  8  9  1  0  0  0  0
  9 10  2  0  0  0  0
M  END
>  <CHROM.1>
11.37484954,11.07588871,7.44889731,0.37013997,-1.34338457,0.97182712

>  <Name>
1u8d_lig

>  <RI>
0

>  <Rbt.Current_Directory>
/home/itssahil/PROJECTS/Mol_Feturizer/New_Systems/rnas/1u8d

>  <Rbt.Executable>
rbdock ($Id: //depot/dev/client3/rdock/2013.1/src/exe/rbdock.cxx#4 $)

>  <Rbt.Library>
libRbt.so (2013.1, Build901 2013/11/27)

>  <Rbt.Parameter_File>
/export/apps/rDock/src/rDock_2013.1_src/data/scripts/dock_solv.prm

>  <Rbt.Receptor>
prm/pocket_docking_3.prm

>  <SCORE>
-26.1292

>  <SCORE.INTER>
-26.1292

>  <SCORE.INTER.CONST>
1

>  <SCORE.INTER.POLAR>
-1.93632

>  <SCORE.INTER.ROT>
0

>  <SCORE.INTER.SOLV>
11.6559

>  <SCORE.INTER.VDW>
-18.4504

>  <SCORE.INTER.norm>
-2.61292

>  <SCORE.INTRA>
0

>  <SCORE.INTRA.DIHEDRAL>
0

>  <SCORE.INTRA.DIHEDRAL.0>
0

>  <SCORE.INTRA.POLAR>
0

>  <SCORE.INTRA.POLAR.0>
0

>  <SCORE.INTRA.REPUL>
0

>  <SCORE.INTRA.REPUL.0>
0

>  <SCORE.INTRA.SOLV>
0

>  <SCORE.INTRA.SOLV.lig_0>
-13.7928

>  <SCORE.INTRA.VDW>
0

>  <SCORE.INTRA.VDW.0>
0

>  <SCORE.INTRA.norm>
0

>  <SCORE.RESTR>
0

>  <SCORE.RESTR.CAVITY>
0

>  <SCORE.RESTR.norm>
0

>  <SCORE.SYSTEM>
0

>  <SCORE.SYSTEM.CONST>
0

>  <SCORE.SYSTEM.DIHEDRAL>
0

>  <SCORE.SYSTEM.SOLV>
0

>  <SCORE.SYSTEM.norm>
0

>  <SCORE.heavy>
10

>  <SCORE.norm>
-2.61292

>  <RMSD>
0.220

$$$$
1u8d_lig
 OpenBabel11021811413D
libRbt.so/2013.1/901 2013/11/27
 10 11  0  0  0  0  0  0  0  0999 V2000
   11.7312   10.4774    9.2800 N   0  0  0  0  0  0  0  0  0  0  0  0
   11.5005   11.8468    9.4955 C   0  0  0  0  0  0  0  0  0  0  0  0
   11.2056   12.7220    8.5006 N   0  0  0  0  0  0  0  0  0  0  0  0
   11.1555   12.1353    7.2850 C   0  0  0  0  0  0  0  0  0  0  0  0
   11.4004   10.6572    6.9863 C   0  0  0  0  0  0  0  0  0  0  0  0
   11.7038    9.7935    8.0501 C   0  0  0  0  0  0  0  0  0  0  0  0
   11.9282    8.5909    8.0419 O   0  0  0  0  0  0  0  0  0  0  0  0
   11.2537   10.4993    5.6355 N   0  0  0  0  0  0  0  0  0  0  0  0
   10.9380   11.7285    5.1102 C   0  0  0  0  0  0  0  0  0  0  0  0
   10.8717   12.7336    6.0714 N   0  0  0  0  0  0  0  0  0  0  0  0
  1  2  1  0  0  0  0
  1  6  1  0  0  0  0
  2  3  2  0  0  0  0
  3  4  1  0  0  0  0
  4  5  2  0  0  0  0
  4 10  1  0  0  0  0
  5  6  1  0  0  0  0
  5  8  1  0  0  0  0
  6  7  2  0  0  0  0
  8  9  1  0  0  0  0
  9 10  2  0  0  0  0
M  END
>  <CHROM.1>
11.37709595,11.08247321,7.45684545,0.36116601,-1.34212470,0.96508664

>  <Name>
1u8d_lig

>  <RI>
0

>  <Rbt.Current_Directory>
/home/itssahil/PROJECTS/Mol_Feturizer/New_Systems/rnas/1u8d

>  <Rbt.Executable>
rbdock ($Id: //depot/dev/client3/rdock/2013.1/src/exe/rbdock.cxx#4 $)

>  <Rbt.Library>
libRbt.so (2013.1, Build901 2013/11/27)

>  <Rbt.Parameter_File>
/export/apps/rDock/src/rDock_2013.1_src/data/scripts/dock_solv.prm

>  <Rbt.Receptor>
prm/pocket_docking_4.prm

>  <SCORE>
-26.125

>  <SCORE.INTER>
-26.125

>  <SCORE.INTER.CONST>
1

>  <SCORE.INTER.POLAR>
-1.93632

>  <SCORE.INTER.ROT>
0

>  <SCORE.INTER.SOLV>
11.6449

>  <SCORE.INTER.VDW>
-18.4439

>  <SCORE.INTER.norm>
-2.6125

>  <SCORE.INTRA>
0

>  <SCORE.INTRA.DIHEDRAL>
0

>  <SCORE.INTRA.DIHEDRAL.0>
0

>  <SCORE.INTRA.POLAR>
0

>  <SCORE.INTRA.POLAR.0>
0

>  <SCORE.INTRA.REPUL>
0

>  <SCORE.INTRA.REPUL.0>
0

>  <SCORE.INTRA.SOLV>
0

>  <SCORE.INTRA.SOLV.lig_0>
-13.7928

>  <SCORE.INTRA.VDW>
0

>  <SCORE.INTRA.VDW.0>
0

>  <SCORE.INTRA.norm>
0

>  <SCORE.RESTR>
0

>  <SCORE.RESTR.CAVITY>
0

>  <SCORE.RESTR.norm>
0

>  <SCORE.SYSTEM>
0

>  <SCORE.SYSTEM.CONST>
0

>  <SCORE.SYSTEM.DIHEDRAL>
0

>  <SCORE.SYSTEM.SOLV>
0

>  <SCORE.SYSTEM.norm>
0

>  <SCORE.heavy>
10

>  <SCORE.norm>
-2.6125

>  <RMSD>
0.220

$$$$
1u8d_lig
 OpenBabel11021811413D
libRbt.so/2013.1/901 2013/11/27
 10 11  0  0  0  0  0  0  0  0999 V2000
   11.7234   10.4783    9.2732 N   0  0  0  0  0  0  0  0  0  0  0  0
   11.4911   11.8474    9.4892 C   0  0  0  0  0  0  0  0  0  0  0  0
   11.2002   12.7235    8.4939 N   0  0  0  0  0  0  0  0  0  0  0  0
   11.1556   12.1380    7.2775 C   0  0  0  0  0  0  0  0  0  0  0  0
   11.4025   10.6604    6.9784 C   0  0  0  0  0  0  0  0  0  0  0  0
   11.7017    9.7957    8.0425 C   0  0  0  0  0  0  0  0  0  0  0  0
   11.9267    8.5932    8.0340 O   0  0  0  0  0  0  0  0  0  0  0  0
   11.2617   10.5038    5.6267 N   0  0  0  0  0  0  0  0  0  0  0  0
   10.9477   11.7335    5.1014 C   0  0  0  0  0  0  0  0  0  0  0  0
   10.8768   12.7375    6.0634 N   0  0  0  0  0  0  0  0  0  0  0  0
  1  2  1  0  0  0  0
  1  6  1  0  0  0  0
  2  3  2  0  0  0  0
  3  4  1  0  0  0  0
  4  5  2  0  0  0  0
  4 10  1  0  0  0  0
  5  6  1  0  0  0  0
  5  8  1  0  0  0  0
  6  7  2  0  0  0  0
  8  9  1  0  0  0  0
  9 10  2  0  0  0  0
M  END
>  <CHROM.1>
11.37693859,11.08513467,7.44922209,0.37816852,-1.34417924,0.98271408

>  <Name>
1u8d_lig

>  <RI>
0

>  <Rbt.Current_Directory>
/home/itssahil/PROJECTS/Mol_Feturizer/New_Systems/rnas/1u8d

>  <Rbt.Executable>
rbdock ($Id: //depot/dev/client3/rdock/2013.1/src/exe/rbdock.cxx#4 $)

>  <Rbt.Library>
libRbt.so (2013.1, Build901 2013/11/27)

>  <Rbt.Parameter_File>
/export/apps/rDock/src/rDock_2013.1_src/data/scripts/dock_solv.prm

>  <Rbt.Receptor>
prm/pocket_docking_4.prm

>  <SCORE>
-26.1327

>  <SCORE.INTER>
-26.1327

>  <SCORE.INTER.CONST>
1

>  <SCORE.INTER.POLAR>
-1.93632

>  <SCORE.INTER.ROT>
0

>  <SCORE.INTER.SOLV>
11.6553

>  <SCORE.INTER.VDW>
-18.4525

>  <SCORE.INTER.norm>
-2.61327

>  <SCORE.INTRA>
0

>  <SCORE.INTRA.DIHEDRAL>
0

>  <SCORE.INTRA.DIHEDRAL.0>
0

>  <SCORE.INTRA.POLAR>
0

>  <SCORE.INTRA.POLAR.0>
0

>  <SCORE.INTRA.REPUL>
0

>  <SCORE.INTRA.REPUL.0>
0

>  <SCORE.INTRA.SOLV>
0

>  <SCORE.INTRA.SOLV.lig_0>
-13.7928

>  <SCORE.INTRA.VDW>
0

>  <SCORE.INTRA.VDW.0>
0

>  <SCORE.INTRA.norm>
0

>  <SCORE.RESTR>
0

>  <SCORE.RESTR.CAVITY>
0

>  <SCORE.RESTR.norm>
0

>  <SCORE.SYSTEM>
0

>  <SCORE.SYSTEM.CONST>
0

>  <SCORE.SYSTEM.DIHEDRAL>
0

>  <SCORE.SYSTEM.SOLV>
0

>  <SCORE.SYSTEM.norm>
0

>  <SCORE.heavy>
10

>  <SCORE.norm>
-2.61327

>  <RMSD>
0.220

$$$$
1u8d_lig
 OpenBabel11021811413D
libRbt.so/2013.1/901 2013/11/27
 10 11  0  0  0  0  0  0  0  0999 V2000
   11.7210   10.4804    9.2713 N   0  0  0  0  0  0  0  0  0  0  0  0
   11.4877   11.8495    9.4859 C   0  0  0  0  0  0  0  0  0  0  0  0
   11.2004   12.7253    8.4893 N   0  0  0  0  0  0  0  0  0  0  0  0
   11.1607   12.1395    7.2729 C   0  0  0  0  0  0  0  0  0  0  0  0
   11.4089   10.6618    6.9751 C   0  0  0  0  0  0  0  0  0  0  0  0
   11.7041    9.7974    8.0407 C   0  0  0  0  0  0  0  0  0  0  0  0
   11.9293    8.5949    8.0334 O   0  0  0  0  0  0  0  0  0  0  0  0
   11.2734   10.5048    5.6230 N   0  0  0  0  0  0  0  0  0  0  0  0
   10.9612   11.7342    5.0961 C   0  0  0  0  0  0  0  0  0  0  0  0
   10.8865   12.7385    6.0575 N   0  0  0  0  0  0  0  0  0  0  0  0
  1  2  1  0  0  0  0
  1  6  1  0  0  0  0
  2  3  2  0  0  0  0
  3  4  1  0  0  0  0
  4  5  2  0  0  0  0
  4 10  1  0  0  0  0
  5  6  1  0  0  0  0
  5  8  1  0  0  0  0
  6  7  2  0  0  0  0
  8  9  1  0  0  0  0
  9 10  2  0  0  0  0
M  END
>  <CHROM.1>
11.38150210,11.08664213,7.44575566,0.39298014,-1.34617032,0.99686145

>  <Name>
1u8d_lig

>  <RI>
0

>  <Rbt.Current_Directory>
/home/itssahil/PROJECTS/Mol_Feturizer/New_Systems/rnas/1u8d

>  <Rbt.Executable>
rbdock ($Id: //depot/dev/client3/rdock/2013.1/src/exe/rbdock.cxx#4 $)

>  <Rbt.Library>
libRbt.so (2013.1, Build901 2013/11/27)

>  <Rbt.Parameter_File>
/export/apps/rDock/src/rDock_2013.1_src/data/scripts/dock_solv.prm

>  <Rbt.Receptor>
prm/pocket_docking_4.prm

>  <SCORE>
-26.134

>  <SCORE.INTER>
-26.134

>  <SCORE.INTER.CONST>
1

>  <SCORE.INTER.POLAR>
-1.93632

>  <SCORE.INTER.ROT>
0

>  <SCORE.INTER.SOLV>
11.6608

>  <SCORE.INTER.VDW>
-18.4552

>  <SCORE.INTER.norm>
-2.6134

>  <SCORE.INTRA>
0

>  <SCORE.INTRA.DIHEDRAL>
0

>  <SCORE.INTRA.DIHEDRAL.0>
0

>  <SCORE.INTRA.POLAR>
0

>  <SCORE.INTRA.POLAR.0>
0

>  <SCORE.INTRA.REPUL>
0

>  <SCORE.INTRA.REPUL.0>
0

>  <SCORE.INTRA.SOLV>
0

>  <SCORE.INTRA.SOLV.lig_0>
-13.7928

>  <SCORE.INTRA.VDW>
0

>  <SCORE.INTRA.VDW.0>
0

>  <SCORE.INTRA.norm>
0

>  <SCORE.RESTR>
0

>  <SCORE.RESTR.CAVITY>
0

>  <SCORE.RESTR.norm>
0

>  <SCORE.SYSTEM>
0

>  <SCORE.SYSTEM.CONST>
0

>  <SCORE.SYSTEM.DIHEDRAL>
0

>  <SCORE.SYSTEM.SOLV>
0

>  <SCORE.SYSTEM.norm>
0

>  <SCORE.heavy>
10

>  <SCORE.norm>
-2.6134

>  <RMSD>
0.220

$$$$
1u8d_lig
 OpenBabel11021811413D
libRbt.so/2013.1/901 2013/11/27
 10 11  0  0  0  0  0  0  0  0999 V2000
   11.7276   10.4791    9.2797 N   0  0  0  0  0  0  0  0  0  0  0  0
   11.4942   11.8487    9.4916 C   0  0  0  0  0  0  0  0  0  0  0  0
   11.2077   12.7226    8.4931 N   0  0  0  0  0  0  0  0  0  0  0  0
   11.1688   12.1345    7.2778 C   0  0  0  0  0  0  0  0  0  0  0  0
   11.4171   10.6562    6.9830 C   0  0  0  0  0  0  0  0  0  0  0  0
   11.7115    9.7939    8.0504 C   0  0  0  0  0  0  0  0  0  0  0  0
   11.9367    8.5913    8.0456 O   0  0  0  0  0  0  0  0  0  0  0  0
   11.2826   10.4967    5.6311 N   0  0  0  0  0  0  0  0  0  0  0  0
   10.9709   11.7252    5.1016 C   0  0  0  0  0  0  0  0  0  0  0  0
   10.8955   12.7313    6.0611 N   0  0  0  0  0  0  0  0  0  0  0  0
  1  2  1  0  0  0  0
  1  6  1  0  0  0  0
  2  3  2  0  0  0  0
  3  4  1  0  0  0  0
  4  5  2  0  0  0  0
  4 10  1  0  0  0  0
  5  6  1  0  0  0  0
  5  8  1  0  0  0  0
  6  7  2  0  0  0  0
  8  9  1  0  0  0  0
  9 10  2  0  0  0  0
M  END
>  <CHROM.1>
11.38940213,11.08198293,7.45281118,0.39553350,-1.34660325,0.99746059

>  <Name>
1u8d_lig

>  <RI>
0

>  <Rbt.Current_Directory>
/home/itssahil/PROJECTS/Mol_Feturizer/New_Systems/rnas/1u8d

>  <Rbt.Executable>
rbdock ($Id: //depot/dev/client3/rdock/2013.1/src/exe/rbdock.cxx#4 $)

>  <Rbt.Library>
libRbt.so (2013.1, Build901 2013/11/27)

>  <Rbt.Parameter_File>
/export/apps/rDock/src/rDock_2013.1_src/data/scripts/dock_solv.prm

>  <Rbt.Receptor>
prm/pocket_docking_5.prm

>  <SCORE>
-26.1579

>  <SCORE.INTER>
-26.1579

>  <SCORE.INTER.CONST>
1

>  <SCORE.INTER.POLAR>
-1.93632

>  <SCORE.INTER.ROT>
0

>  <SCORE.INTER.SOLV>
11.6552

>  <SCORE.INTER.VDW>
-18.4693

>  <SCORE.INTER.norm>
-2.61579

>  <SCORE.INTRA>
0

>  <SCORE.INTRA.DIHEDRAL>
0

>  <SCORE.INTRA.DIHEDRAL.0>
0

>  <SCORE.INTRA.POLAR>
0

>  <SCORE.INTRA.POLAR.0>
0

>  <SCORE.INTRA.REPUL>
0

>  <SCORE.INTRA.REPUL.0>
0

>  <SCORE.INTRA.SOLV>
0

>  <SCORE.INTRA.SOLV.lig_0>
-13.7928

>  <SCORE.INTRA.VDW>
0

>  <SCORE.INTRA.VDW.0>
0

>  <SCORE.INTRA.norm>
0

>  <SCORE.RESTR>
0

>  <SCORE.RESTR.CAVITY>
0

>  <SCORE.RESTR.norm>
0

>  <SCORE.SYSTEM>
0

>  <SCORE.SYSTEM.CONST>
0

>  <SCORE.SYSTEM.DIHEDRAL>
0

>  <SCORE.SYSTEM.SOLV>
0

>  <SCORE.SYSTEM.norm>
0

>  <SCORE.heavy>
10

>  <SCORE.norm>
-2.61579

>  <RMSD>
0.220

$$$$
1u8d_lig
 OpenBabel11021811413D
libRbt.so/2013.1/901 2013/11/27
 10 11  0  0  0  0  0  0  0  0999 V2000
   11.7168   10.4851    9.2683 N   0  0  0  0  0  0  0  0  0  0  0  0
   11.4888   11.8567    9.4725 C   0  0  0  0  0  0  0  0  0  0  0  0
   11.2076   12.7265    8.4690 N   0  0  0  0  0  0  0  0  0  0  0  0
   11.1681   12.1321    7.2567 C   0  0  0  0  0  0  0  0  0  0  0  0
   11.4107   10.6513    6.9702 C   0  0  0  0  0  0  0  0  0  0  0  0
   11.6998    9.7933    8.0426 C   0  0  0  0  0  0  0  0  0  0  0  0
   11.9199    8.5899    8.0445 O   0  0  0  0  0  0  0  0  0  0  0  0
   11.2776   10.4851    5.6189 N   0  0  0  0  0  0  0  0  0  0  0  0
   10.9719   11.7121    5.0824 C   0  0  0  0  0  0  0  0  0  0  0  0
   10.8992   12.7235    6.0364 N   0  0  0  0  0  0  0  0  0  0  0  0
  1  2  1  0  0  0  0
  1  6  1  0  0  0  0
  2  3  2  0  0  0  0
  3  4  1  0  0  0  0
  4  5  2  0  0  0  0
  4 10  1  0  0  0  0
  5  6  1  0  0  0  0
  5  8  1  0  0  0  0
  6  7  2  0  0  0  0
  8  9  1  0  0  0  0
  9 10  2  0  0  0  0
M  END
>  <CHROM.1>
11.38401088,11.07961919,7.43766723,0.39110850,-1.35099859,0.98783485

>  <Name>
1u8d_lig

>  <RI>
0

>  <Rbt.Current_Directory>
/home/itssahil/PROJECTS/Mol_Feturizer/New_Systems/rnas/1u8d

>  <Rbt.Executable>
rbdock ($Id: //depot/dev/client3/rdock/2013.1/src/exe/rbdock.cxx#4 $)

>  <Rbt.Library>
libRbt.so (2013.1, Build901 2013/11/27)

>  <Rbt.Parameter_File>
/export/apps/rDock/src/rDock_2013.1_src/data/scripts/dock_solv.prm

>  <Rbt.Receptor>
prm/pocket_docking_7.prm

>  <SCORE>
-26.1329

>  <SCORE.INTER>
-26.1329

>  <SCORE.INTER.CONST>
1

>  <SCORE.INTER.POLAR>
-1.93632

>  <SCORE.INTER.ROT>
0

>  <SCORE.INTER.SOLV>
11.6807

>  <SCORE.INTER.VDW>
-18.4611

>  <SCORE.INTER.norm>
-2.61329

>  <SCORE.INTRA>
0

>  <SCORE.INTRA.DIHEDRAL>
0

>  <SCORE.INTRA.DIHEDRAL.0>
0

>  <SCORE.INTRA.POLAR>
0

>  <SCORE.INTRA.POLAR.0>
0

>  <SCORE.INTRA.REPUL>
0

>  <SCORE.INTRA.REPUL.0>
0

>  <SCORE.INTRA.SOLV>
0

>  <SCORE.INTRA.SOLV.lig_0>
-13.7928

>  <SCORE.INTRA.VDW>
0

>  <SCORE.INTRA.VDW.0>
0

>  <SCORE.INTRA.norm>
0

>  <SCORE.RESTR>
0

>  <SCORE.RESTR.CAVITY>
0

>  <SCORE.RESTR.norm>
0

>  <SCORE.SYSTEM>
0

>  <SCORE.SYSTEM.CONST>
0

>  <SCORE.SYSTEM.DIHEDRAL>
0

>  <SCORE.SYSTEM.SOLV>
0

>  <SCORE.SYSTEM.norm>
0

>  <SCORE.heavy>
10

>  <SCORE.norm>
-2.61329

>  <RMSD>
0.220

$$$$
1u8d_lig
 OpenBabel11021811413D
libRbt.so/2013.1/901 2013/11/27
 10 11  0  0  0  0  0  0  0  0999 V2000
   11.8125   10.5535    9.1573 N   0  0  0  0  0  0  0  0  0  0  0  0
   11.5856   11.9249    9.3646 C   0  0  0  0  0  0  0  0  0  0  0  0
   11.2646   12.7896    8.3687 N   0  0  0  0  0  0  0  0  0  0  0  0
   11.1846   12.1905    7.1607 C   0  0  0  0  0  0  0  0  0  0  0  0
   11.4237   10.7097    6.8710 C   0  0  0  0  0  0  0  0  0  0  0  0
   11.7550    9.8572    7.9354 C   0  0  0  0  0  0  0  0  0  0  0  0
   11.9806    8.6547    7.9338 O   0  0  0  0  0  0  0  0  0  0  0  0
   11.2432   10.5379    5.5259 N   0  0  0  0  0  0  0  0  0  0  0  0
   10.9128   11.7614    4.9963 C   0  0  0  0  0  0  0  0  0  0  0  0
   10.8696   12.7761    5.9487 N   0  0  0  0  0  0  0  0  0  0  0  0
  1  2  1  0  0  0  0
  1  6  1  0  0  0  0
  2  3  2  0  0  0  0
  3  4  1  0  0  0  0
  4  5  2  0  0  0  0
  4 10  1  0  0  0  0
  5  6  1  0  0  0  0
  5  8  1  0  0  0  0
  6  7  2  0  0  0  0
  8  9  1  0  0  0  0
  9 10  2  0  0  0  0
M  END
>  <CHROM.1>
11.41180117,11.13971508,7.33759364,0.27846104,-1.32592199,0.87453089

>  <Name>
1u8d_lig

>  <RI>
0

>  <Rbt.Current_Directory>
/home/itssahil/PROJECTS/Mol_Feturizer/New_Systems/rnas/1u8d

>  <Rbt.Executable>
rbdock ($Id: //depot/dev/client3/rdock/2013.1/src/exe/rbdock.cxx#4 $)

>  <Rbt.Library>
libRbt.so (2013.1, Build901 2013/11/27)

>  <Rbt.Parameter_File>
/export/apps/rDock/src/rDock_2013.1_src/data/scripts/dock_solv.prm

>  <Rbt.Receptor>
prm/pocket_docking_7.prm

>  <SCORE>
-26.0803

>  <SCORE.INTER>
-26.0803

>  <SCORE.INTER.CONST>
1

>  <SCORE.INTER.POLAR>
-1.93632

>  <SCORE.INTER.ROT>
0

>  <SCORE.INTER.SOLV>
11.5664

>  <SCORE.INTER.VDW>
-18.3879

>  <SCORE.INTER.norm>
-2.60803

>  <SCORE.INTRA>
0

>  <SCORE.INTRA.DIHEDRAL>
0

>  <SCORE.INTRA.DIHEDRAL.0>
0

>  <SCORE.INTRA.POLAR>
0

>  <SCORE.INTRA.POLAR.0>
0

>  <SCORE.INTRA.REPUL>
0

>  <SCORE.INTRA.REPUL.0>
0

>  <SCORE.INTRA.SOLV>
0

>  <SCORE.INTRA.SOLV.lig_0>
-13.7928

>  <SCORE.INTRA.VDW>
0

>  <SCORE.INTRA.VDW.0>
0

>  <SCORE.INTRA.norm>
0

>  <SCORE.RESTR>
0

>  <SCORE.RESTR.CAVITY>
0

>  <SCORE.RESTR.norm>
0

>  <SCORE.SYSTEM>
0

>  <SCORE.SYSTEM.CONST>
0

>  <SCORE.SYSTEM.DIHEDRAL>
0

>  <SCORE.SYSTEM.SOLV>
0

>  <SCORE.SYSTEM.norm>
0

>  <SCORE.heavy>
10

>  <SCORE.norm>
-2.60803

>  <RMSD>
0.220

$$$$
1u8d_lig
 OpenBabel11021811413D
libRbt.so/2013.1/901 2013/11/27
 10 11  0  0  0  0  0  0  0  0999 V2000
   11.7140   10.4752    9.2728 N   0  0  0  0  0  0  0  0  0  0  0  0
   11.4776   11.8440    9.4861 C   0  0  0  0  0  0  0  0  0  0  0  0
   11.1913   12.7187    8.4883 N   0  0  0  0  0  0  0  0  0  0  0  0
   11.1557   12.1321    7.2721 C   0  0  0  0  0  0  0  0  0  0  0  0
   11.4074   10.6547    6.9758 C   0  0  0  0  0  0  0  0  0  0  0  0
   11.7015    9.7915    8.0425 C   0  0  0  0  0  0  0  0  0  0  0  0
   11.9290    8.5894    8.0366 O   0  0  0  0  0  0  0  0  0  0  0  0
   11.2756   10.4967    5.6234 N   0  0  0  0  0  0  0  0  0  0  0  0
   10.9625   11.7253    5.0950 C   0  0  0  0  0  0  0  0  0  0  0  0
   10.8834   12.7300    6.0557 N   0  0  0  0  0  0  0  0  0  0  0  0
  1  2  1  0  0  0  0
  1  6  1  0  0  0  0
  2  3  2  0  0  0  0
  3  4  1  0  0  0  0
  4  5  2  0  0  0  0
  4 10  1  0  0  0  0
  5  6  1  0  0  0  0
  5  8  1  0  0  0  0
  6  7  2  0  0  0  0
  8  9  1  0  0  0  0
  9 10  2  0  0  0  0
M  END
>  <CHROM.1>
11.37800083,11.07980159,7.44611627,0.40697331,-1.34595977,1.00994190

>  <Name>
1u8d_lig

>  <RI>
0

>  <Rbt.Current_Directory>
/home/itssahil/PROJECTS/Mol_Feturizer/New_Systems/rnas/1u8d

>  <Rbt.Executable>
rbdock ($Id: //depot/dev/client3/rdock/2013.1/src/exe/rbdock.cxx#4 $)

>  <Rbt.Library>
libRbt.so (2013.1, Build901 2013/11/27)

>  <Rbt.Parameter_File>
/export/apps/rDock/src/rDock_2013.1_src/data/scripts/dock_solv.prm

>  <Rbt.Receptor>
prm/pocket_docking_8.prm

>  <SCORE>
-26.1599

>  <SCORE.INTER>
-26.1599

>  <SCORE.INTER.CONST>
1

>  <SCORE.INTER.POLAR>
-1.93632

>  <SCORE.INTER.ROT>
0

>  <SCORE.INTER.SOLV>
11.6667

>  <SCORE.INTER.VDW>
-18.4744

>  <SCORE.INTER.norm>
-2.61599

>  <SCORE.INTRA>
0

>  <SCORE.INTRA.DIHEDRAL>
0

>  <SCORE.INTRA.DIHEDRAL.0>
0

>  <SCORE.INTRA.POLAR>
0

>  <SCORE.INTRA.POLAR.0>
0

>  <SCORE.INTRA.REPUL>
0

>  <SCORE.INTRA.REPUL.0>
0

>  <SCORE.INTRA.SOLV>
0

>  <SCORE.INTRA.SOLV.lig_0>
-13.7928

>  <SCORE.INTRA.VDW>
0

>  <SCORE.INTRA.VDW.0>
0

>  <SCORE.INTRA.norm>
0

>  <SCORE.RESTR>
0

>  <SCORE.RESTR.CAVITY>
0

>  <SCORE.RESTR.norm>
0

>  <SCORE.SYSTEM>
0

>  <SCORE.SYSTEM.CONST>
0

>  <SCORE.SYSTEM.DIHEDRAL>
0

>  <SCORE.SYSTEM.SOLV>
0

>  <SCORE.SYSTEM.norm>
0

>  <SCORE.heavy>
10

>  <SCORE.norm>
-2.61599

>  <RMSD>
0.220

$$$$
1u8d_lig
 OpenBabel11021811413D
libRbt.so/2013.1/901 2013/11/27
 10 11  0  0  0  0  0  0  0  0999 V2000
   11.7181   10.4786    9.2727 N   0  0  0  0  0  0  0  0  0  0  0  0
   11.4835   11.8477    9.4863 C   0  0  0  0  0  0  0  0  0  0  0  0
   11.1985   12.7230    8.4887 N   0  0  0  0  0  0  0  0  0  0  0  0
   11.1625   12.1369    7.2723 C   0  0  0  0  0  0  0  0  0  0  0  0
   11.4123   10.6592    6.9757 C   0  0  0  0  0  0  0  0  0  0  0  0
   11.7050    9.7953    8.0423 C   0  0  0  0  0  0  0  0  0  0  0  0
   11.9309    8.5929    8.0361 O   0  0  0  0  0  0  0  0  0  0  0  0
   11.2807   10.5017    5.6232 N   0  0  0  0  0  0  0  0  0  0  0  0
   10.9694   11.7309    5.0951 C   0  0  0  0  0  0  0  0  0  0  0  0
   10.8914   12.7354    6.0560 N   0  0  0  0  0  0  0  0  0  0  0  0
  1  2  1  0  0  0  0
  1  6  1  0  0  0  0
  2  3  2  0  0  0  0
  3  4  1  0  0  0  0
  4  5  2  0  0  0  0
  4 10  1  0  0  0  0
  5  6  1  0  0  0  0
  5  8  1  0  0  0  0
  6  7  2  0  0  0  0
  8  9  1  0  0  0  0
  9 10  2  0  0  0  0
M  END
>  <CHROM.1>
11.38340585,11.08420111,7.44610495,0.40491993,-1.34724900,1.00820001

>  <Name>
1u8d_lig

>  <RI>
0

>  <Rbt.Current_Directory>
/home/itssahil/PROJECTS/Mol_Feturizer/New_Systems/rnas/1u8d

>  <Rbt.Executable>
rbdock ($Id: //depot/dev/client3/rdock/2013.1/src/exe/rbdock.cxx#4 $)

>  <Rbt.Library>
libRbt.so (2013.1, Build901 2013/11/27)

>  <Rbt.Parameter_File>
/export/apps/rDock/src/rDock_2013.1_src/data/scripts/dock_solv.prm

>  <Rbt.Receptor>
prm/blind_docking_100.prm

>  <SCORE>
-26.1628

>  <SCORE.INTER>
-26.1628

>  <SCORE.INTER.CONST>
1

>  <SCORE.INTER.POLAR>
-1.93632

>  <SCORE.INTER.ROT>
0

>  <SCORE.INTER.SOLV>
11.6644

>  <SCORE.INTER.VDW>
-18.4756

>  <SCORE.INTER.norm>
-2.61628

>  <SCORE.INTRA>
0

>  <SCORE.INTRA.DIHEDRAL>
0

>  <SCORE.INTRA.DIHEDRAL.0>
0

>  <SCORE.INTRA.POLAR>
0

>  <SCORE.INTRA.POLAR.0>
0

>  <SCORE.INTRA.REPUL>
0

>  <SCORE.INTRA.REPUL.0>
0

>  <SCORE.INTRA.SOLV>
0

>  <SCORE.INTRA.SOLV.lig_0>
-13.7928

>  <SCORE.INTRA.VDW>
0

>  <SCORE.INTRA.VDW.0>
0

>  <SCORE.INTRA.norm>
0

>  <SCORE.RESTR>
0

>  <SCORE.RESTR.CAVITY>
0

>  <SCORE.RESTR.norm>
0

>  <SCORE.SYSTEM>
0

>  <SCORE.SYSTEM.CONST>
0

>  <SCORE.SYSTEM.DIHEDRAL>
0

>  <SCORE.SYSTEM.SOLV>
0

>  <SCORE.SYSTEM.norm>
0

>  <SCORE.heavy>
10

>  <SCORE.norm>
-2.61628

>  <RMSD>
0.221

$$$$
1u8d_lig
 OpenBabel11021811413D
libRbt.so/2013.1/901 2013/11/27
 10 11  0  0  0  0  0  0  0  0999 V2000
   11.7197   10.4808    9.2748 N   0  0  0  0  0  0  0  0  0  0  0  0
   11.4854   11.8499    9.4885 C   0  0  0  0  0  0  0  0  0  0  0  0
   11.2022   12.7257    8.4908 N   0  0  0  0  0  0  0  0  0  0  0  0
   11.1675   12.1401    7.2742 C   0  0  0  0  0  0  0  0  0  0  0  0
   11.4171   10.6624    6.9774 C   0  0  0  0  0  0  0  0  0  0  0  0
   11.7080    9.7980    8.0440 C   0  0  0  0  0  0  0  0  0  0  0  0
   11.9334    8.5955    8.0376 O   0  0  0  0  0  0  0  0  0  0  0  0
   11.2872   10.5055    5.6247 N   0  0  0  0  0  0  0  0  0  0  0  0
   10.9771   11.7350    5.0966 C   0  0  0  0  0  0  0  0  0  0  0  0
   10.8983   12.7392    6.0578 N   0  0  0  0  0  0  0  0  0  0  0  0
  1  2  1  0  0  0  0
  1  6  1  0  0  0  0
  2  3  2  0  0  0  0
  3  4  1  0  0  0  0
  4  5  2  0  0  0  0
  4 10  1  0  0  0  0
  5  6  1  0  0  0  0
  5  8  1  0  0  0  0
  6  7  2  0  0  0  0
  8  9  1  0  0  0  0
  9 10  2  0  0  0  0
M  END
>  <CHROM.1>
11.38770923,11.08723557,7.44790298,0.40898364,-1.34831007,1.01254851

>  <Name>
1u8d_lig

>  <RI>
0

>  <Rbt.Current_Directory>
/home/itssahil/PROJECTS/Mol_Feturizer/New_Systems/rnas/1u8d

>  <Rbt.Executable>
rbdock ($Id: //depot/dev/client3/rdock/2013.1/src/exe/rbdock.cxx#4 $)

>  <Rbt.Library>
libRbt.so (2013.1, Build901 2013/11/27)

>  <Rbt.Parameter_File>
/export/apps/rDock/src/rDock_2013.1_src/data/scripts/dock_solv.prm

>  <Rbt.Receptor>
prm/blind_docking_80.prm

>  <SCORE>
-26.1585

>  <SCORE.INTER>
-26.1585

>  <SCORE.INTER.CONST>
1

>  <SCORE.INTER.POLAR>
-1.93632

>  <SCORE.INTER.ROT>
0

>  <SCORE.INTER.SOLV>
11.6636

>  <SCORE.INTER.VDW>
-18.4725

>  <SCORE.INTER.norm>
-2.61585

>  <SCORE.INTRA>
0

>  <SCORE.INTRA.DIHEDRAL>
0

>  <SCORE.INTRA.DIHEDRAL.0>
0

>  <SCORE.INTRA.POLAR>
0

>  <SCORE.INTRA.POLAR.0>
0

>  <SCORE.INTRA.REPUL>
0

>  <SCORE.INTRA.REPUL.0>
0

>  <SCORE.INTRA.SOLV>
0

>  <SCORE.INTRA.SOLV.lig_0>
-13.7928

>  <SCORE.INTRA.VDW>
0

>  <SCORE.INTRA.VDW.0>
0

>  <SCORE.INTRA.norm>
0

>  <SCORE.RESTR>
0

>  <SCORE.RESTR.CAVITY>
0

>  <SCORE.RESTR.norm>
0

>  <SCORE.SYSTEM>
0

>  <SCORE.SYSTEM.CONST>
0

>  <SCORE.SYSTEM.DIHEDRAL>
0

>  <SCORE.SYSTEM.SOLV>
0

>  <SCORE.SYSTEM.norm>
0

>  <SCORE.heavy>
10

>  <SCORE.norm>
-2.61585

>  <RMSD>
0.221

$$$$
1u8d_lig
 OpenBabel11021811413D
libRbt.so/2013.1/901 2013/11/27
 10 11  0  0  0  0  0  0  0  0999 V2000
   11.7108   10.4752    9.2734 N   0  0  0  0  0  0  0  0  0  0  0  0
   11.4737   11.8438    9.4869 C   0  0  0  0  0  0  0  0  0  0  0  0
   11.1900   12.7191    8.4888 N   0  0  0  0  0  0  0  0  0  0  0  0
   11.1578   12.1333    7.2722 C   0  0  0  0  0  0  0  0  0  0  0  0
   11.4105   10.6561    6.9757 C   0  0  0  0  0  0  0  0  0  0  0  0
   11.7017    9.7923    8.0427 C   0  0  0  0  0  0  0  0  0  0  0  0
   11.9294    8.5902    8.0366 O   0  0  0  0  0  0  0  0  0  0  0  0
   11.2824   10.4990    5.6228 N   0  0  0  0  0  0  0  0  0  0  0  0
   10.9706   11.7278    5.0943 C   0  0  0  0  0  0  0  0  0  0  0  0
   10.8888   12.7319    6.0554 N   0  0  0  0  0  0  0  0  0  0  0  0
  1  2  1  0  0  0  0
  1  6  1  0  0  0  0
  2  3  2  0  0  0  0
  3  4  1  0  0  0  0
  4  5  2  0  0  0  0
  4 10  1  0  0  0  0
  5  6  1  0  0  0  0
  5  8  1  0  0  0  0
  6  7  2  0  0  0  0
  8  9  1  0  0  0  0
  9 10  2  0  0  0  0
M  END
>  <CHROM.1>
11.37974426,11.08089437,7.44614519,0.41774117,-1.34732408,1.02106286

>  <Name>
1u8d_lig

>  <RI>
0

>  <Rbt.Current_Directory>
/home/itssahil/PROJECTS/Mol_Feturizer/New_Systems/rnas/1u8d

>  <Rbt.Executable>
rbdock ($Id: //depot/dev/client3/rdock/2013.1/src/exe/rbdock.cxx#4 $)

>  <Rbt.Library>
libRbt.so (2013.1, Build901 2013/11/27)

>  <Rbt.Parameter_File>
/export/apps/rDock/src/rDock_2013.1_src/data/scripts/dock_solv.prm

>  <Rbt.Receptor>
prm/pocket_docking_3.prm

>  <SCORE>
-26.1545

>  <SCORE.INTER>
-26.1545

>  <SCORE.INTER.CONST>
1

>  <SCORE.INTER.POLAR>
-1.93632

>  <SCORE.INTER.ROT>
0

>  <SCORE.INTER.SOLV>
11.6706

>  <SCORE.INTER.VDW>
-18.4721

>  <SCORE.INTER.norm>
-2.61545

>  <SCORE.INTRA>
0

>  <SCORE.INTRA.DIHEDRAL>
0

>  <SCORE.INTRA.DIHEDRAL.0>
0

>  <SCORE.INTRA.POLAR>
0

>  <SCORE.INTRA.POLAR.0>
0

>  <SCORE.INTRA.REPUL>
0

>  <SCORE.INTRA.REPUL.0>
0

>  <SCORE.INTRA.SOLV>
0

>  <SCORE.INTRA.SOLV.lig_0>
-13.7928

>  <SCORE.INTRA.VDW>
0

>  <SCORE.INTRA.VDW.0>
0

>  <SCORE.INTRA.norm>
0

>  <SCORE.RESTR>
0

>  <SCORE.RESTR.CAVITY>
0

>  <SCORE.RESTR.norm>
0

>  <SCORE.SYSTEM>
0

>  <SCORE.SYSTEM.CONST>
0

>  <SCORE.SYSTEM.DIHEDRAL>
0

>  <SCORE.SYSTEM.SOLV>
0

>  <SCORE.SYSTEM.norm>
0

>  <SCORE.heavy>
10

>  <SCORE.norm>
-2.61545

>  <RMSD>
0.221

$$$$
1u8d_lig
 OpenBabel11021811413D
libRbt.so/2013.1/901 2013/11/27
 10 11  0  0  0  0  0  0  0  0999 V2000
   11.7281   10.4803    9.2771 N   0  0  0  0  0  0  0  0  0  0  0  0
   11.4961   11.8492    9.4942 C   0  0  0  0  0  0  0  0  0  0  0  0
   11.2047   12.7261    8.4998 N   0  0  0  0  0  0  0  0  0  0  0  0
   11.1593   12.1416    7.2830 C   0  0  0  0  0  0  0  0  0  0  0  0
   11.4058   10.6641    6.9826 C   0  0  0  0  0  0  0  0  0  0  0  0
   11.7055    9.7986    8.0459 C   0  0  0  0  0  0  0  0  0  0  0  0
   11.9304    8.5961    8.0364 O   0  0  0  0  0  0  0  0  0  0  0  0
   11.2642   10.5086    5.6309 N   0  0  0  0  0  0  0  0  0  0  0  0
   10.9500   11.7386    5.1066 C   0  0  0  0  0  0  0  0  0  0  0  0
   10.8798   12.7419    6.0694 N   0  0  0  0  0  0  0  0  0  0  0  0
  1  2  1  0  0  0  0
  1  6  1  0  0  0  0
  2  3  2  0  0  0  0
  3  4  1  0  0  0  0
  4  5  2  0  0  0  0
  4 10  1  0  0  0  0
  5  6  1  0  0  0  0
  5  8  1  0  0  0  0
  6  7  2  0  0  0  0
  8  9  1  0  0  0  0
  9 10  2  0  0  0  0
M  END
>  <CHROM.1>
11.38061142,11.08852509,7.45375692,0.37565079,-1.34394224,0.98099578

>  <Name>
1u8d_lig

>  <RI>
0

>  <Rbt.Current_Directory>
/home/itssahil/PROJECTS/Mol_Feturizer/New_Systems/rnas/1u8d

>  <Rbt.Executable>
rbdock ($Id: //depot/dev/client3/rdock/2013.1/src/exe/rbdock.cxx#4 $)

>  <Rbt.Library>
libRbt.so (2013.1, Build901 2013/11/27)

>  <Rbt.Parameter_File>
/export/apps/rDock/src/rDock_2013.1_src/data/scripts/dock_solv.prm

>  <Rbt.Receptor>
prm/pocket_docking_4.prm

>  <SCORE>
-26.1304

>  <SCORE.INTER>
-26.1304

>  <SCORE.INTER.CONST>
1

>  <SCORE.INTER.POLAR>
-1.93632

>  <SCORE.INTER.ROT>
0

>  <SCORE.INTER.SOLV>
11.6488

>  <SCORE.INTER.VDW>
-18.4488

>  <SCORE.INTER.norm>
-2.61304

>  <SCORE.INTRA>
0

>  <SCORE.INTRA.DIHEDRAL>
0

>  <SCORE.INTRA.DIHEDRAL.0>
0

>  <SCORE.INTRA.POLAR>
0

>  <SCORE.INTRA.POLAR.0>
0

>  <SCORE.INTRA.REPUL>
0

>  <SCORE.INTRA.REPUL.0>
0

>  <SCORE.INTRA.SOLV>
0

>  <SCORE.INTRA.SOLV.lig_0>
-13.7928

>  <SCORE.INTRA.VDW>
0

>  <SCORE.INTRA.VDW.0>
0

>  <SCORE.INTRA.norm>
0

>  <SCORE.RESTR>
0

>  <SCORE.RESTR.CAVITY>
0

>  <SCORE.RESTR.norm>
0

>  <SCORE.SYSTEM>
0

>  <SCORE.SYSTEM.CONST>
0

>  <SCORE.SYSTEM.DIHEDRAL>
0

>  <SCORE.SYSTEM.SOLV>
0

>  <SCORE.SYSTEM.norm>
0

>  <SCORE.heavy>
10

>  <SCORE.norm>
-2.61304

>  <RMSD>
0.221

$$$$
1u8d_lig
 OpenBabel11021811413D
libRbt.so/2013.1/901 2013/11/27
 10 11  0  0  0  0  0  0  0  0999 V2000
   11.7457   10.5709    9.2013 N   0  0  0  0  0  0  0  0  0  0  0  0
   11.5242   11.9445    9.3989 C   0  0  0  0  0  0  0  0  0  0  0  0
   11.2401   12.8095    8.3920 N   0  0  0  0  0  0  0  0  0  0  0  0
   11.1909   12.2082    7.1835 C   0  0  0  0  0  0  0  0  0  0  0  0
   11.4260   10.7248    6.9042 C   0  0  0  0  0  0  0  0  0  0  0  0
   11.7185    9.8721    7.9798 C   0  0  0  0  0  0  0  0  0  0  0  0
   11.9340    8.6678    7.9874 O   0  0  0  0  0  0  0  0  0  0  0  0
   11.2840   10.5513    5.5547 N   0  0  0  0  0  0  0  0  0  0  0  0
   10.9796   11.7763    5.0130 C   0  0  0  0  0  0  0  0  0  0  0  0
   10.9167   12.7936    5.9615 N   0  0  0  0  0  0  0  0  0  0  0  0
  1  2  1  0  0  0  0
  1  6  1  0  0  0  0
  2  3  2  0  0  0  0
  3  4  1  0  0  0  0
  4  5  2  0  0  0  0
  4 10  1  0  0  0  0
  5  6  1  0  0  0  0
  5  8  1  0  0  0  0
  6  7  2  0  0  0  0
  8  9  1  0  0  0  0
  9 10  2  0  0  0  0
M  END
>  <CHROM.1>
11.40389785,11.15601511,7.36929846,0.35790819,-1.35064009,0.94958151

>  <Name>
1u8d_lig

>  <RI>
0

>  <Rbt.Current_Directory>
/home/itssahil/PROJECTS/Mol_Feturizer/New_Systems/rnas/1u8d

>  <Rbt.Executable>
rbdock ($Id: //depot/dev/client3/rdock/2013.1/src/exe/rbdock.cxx#4 $)

>  <Rbt.Library>
libRbt.so (2013.1, Build901 2013/11/27)

>  <Rbt.Parameter_File>
/export/apps/rDock/src/rDock_2013.1_src/data/scripts/dock_solv.prm

>  <Rbt.Receptor>
prm/pocket_docking_6.prm

>  <SCORE>
-26.0232

>  <SCORE.INTER>
-26.0232

>  <SCORE.INTER.CONST>
1

>  <SCORE.INTER.POLAR>
-1.93632

>  <SCORE.INTER.ROT>
0

>  <SCORE.INTER.SOLV>
11.6737

>  <SCORE.INTER.VDW>
-18.3856

>  <SCORE.INTER.norm>
-2.60232

>  <SCORE.INTRA>
0

>  <SCORE.INTRA.DIHEDRAL>
0

>  <SCORE.INTRA.DIHEDRAL.0>
0

>  <SCORE.INTRA.POLAR>
0

>  <SCORE.INTRA.POLAR.0>
0

>  <SCORE.INTRA.REPUL>
0

>  <SCORE.INTRA.REPUL.0>
0

>  <SCORE.INTRA.SOLV>
0

>  <SCORE.INTRA.SOLV.lig_0>
-13.7928

>  <SCORE.INTRA.VDW>
0

>  <SCORE.INTRA.VDW.0>
0

>  <SCORE.INTRA.norm>
0

>  <SCORE.RESTR>
0

>  <SCORE.RESTR.CAVITY>
0

>  <SCORE.RESTR.norm>
0

>  <SCORE.SYSTEM>
0

>  <SCORE.SYSTEM.CONST>
0

>  <SCORE.SYSTEM.DIHEDRAL>
0

>  <SCORE.SYSTEM.SOLV>
0

>  <SCORE.SYSTEM.norm>
0

>  <SCORE.heavy>
10

>  <SCORE.norm>
-2.60232

>  <RMSD>
0.221

$$$$
1u8d_lig
 OpenBabel11021811413D
libRbt.so/2013.1/901 2013/11/27
 10 11  0  0  0  0  0  0  0  0999 V2000
   11.7173   10.4784    9.2732 N   0  0  0  0  0  0  0  0  0  0  0  0
   11.4823   11.8475    9.4863 C   0  0  0  0  0  0  0  0  0  0  0  0
   11.1978   12.7225    8.4883 N   0  0  0  0  0  0  0  0  0  0  0  0
   11.1626   12.1360    7.2721 C   0  0  0  0  0  0  0  0  0  0  0  0
   11.4128   10.6584    6.9760 C   0  0  0  0  0  0  0  0  0  0  0  0
   11.7051    9.7948    8.0429 C   0  0  0  0  0  0  0  0  0  0  0  0
   11.9311    8.5924    8.0371 O   0  0  0  0  0  0  0  0  0  0  0  0
   11.2820   10.5005    5.6235 N   0  0  0  0  0  0  0  0  0  0  0  0
   10.9708   11.7295    5.0948 C   0  0  0  0  0  0  0  0  0  0  0  0
   10.8920   12.7342    6.0555 N   0  0  0  0  0  0  0  0  0  0  0  0
  1  2  1  0  0  0  0
  1  6  1  0  0  0  0
  2  3  2  0  0  0  0
  3  4  1  0  0  0  0
  4  5  2  0  0  0  0
  4 10  1  0  0  0  0
  5  6  1  0  0  0  0
  5  8  1  0  0  0  0
  6  7  2  0  0  0  0
  8  9  1  0  0  0  0
  9 10  2  0  0  0  0
M  END
>  <CHROM.1>
11.38353964,11.08346317,7.44625647,0.40744905,-1.34739396,1.01042216

>  <Name>
1u8d_lig

>  <RI>
0

>  <Rbt.Current_Directory>
/home/itssahil/PROJECTS/Mol_Feturizer/New_Systems/rnas/1u8d

>  <Rbt.Executable>
rbdock ($Id: //depot/dev/client3/rdock/2013.1/src/exe/rbdock.cxx#4 $)

>  <Rbt.Library>
libRbt.so (2013.1, Build901 2013/11/27)

>  <Rbt.Parameter_File>
/export/apps/rDock/src/rDock_2013.1_src/data/scripts/dock_solv.prm

>  <Rbt.Receptor>
prm/pocket_docking_7.prm

>  <SCORE>
-26.161

>  <SCORE.INTER>
-26.161

>  <SCORE.INTER.CONST>
1

>  <SCORE.INTER.POLAR>
-1.93632

>  <SCORE.INTER.ROT>
0

>  <SCORE.INTER.SOLV>
11.6654

>  <SCORE.INTER.VDW>
-18.4748

>  <SCORE.INTER.norm>
-2.6161

>  <SCORE.INTRA>
0

>  <SCORE.INTRA.DIHEDRAL>
0

>  <SCORE.INTRA.DIHEDRAL.0>
0

>  <SCORE.INTRA.POLAR>
0

>  <SCORE.INTRA.POLAR.0>
0

>  <SCORE.INTRA.REPUL>
0

>  <SCORE.INTRA.REPUL.0>
0

>  <SCORE.INTRA.SOLV>
0

>  <SCORE.INTRA.SOLV.lig_0>
-13.7928

>  <SCORE.INTRA.VDW>
0

>  <SCORE.INTRA.VDW.0>
0

>  <SCORE.INTRA.norm>
0

>  <SCORE.RESTR>
0

>  <SCORE.RESTR.CAVITY>
0

>  <SCORE.RESTR.norm>
0

>  <SCORE.SYSTEM>
0

>  <SCORE.SYSTEM.CONST>
0

>  <SCORE.SYSTEM.DIHEDRAL>
0

>  <SCORE.SYSTEM.SOLV>
0

>  <SCORE.SYSTEM.norm>
0

>  <SCORE.heavy>
10

>  <SCORE.norm>
-2.6161

>  <RMSD>
0.221

$$$$
1u8d_lig
 OpenBabel11021811413D
libRbt.so/2013.1/901 2013/11/27
 10 11  0  0  0  0  0  0  0  0999 V2000
   11.6820   10.4817    9.2914 N   0  0  0  0  0  0  0  0  0  0  0  0
   11.4328   11.8488    9.5009 C   0  0  0  0  0  0  0  0  0  0  0  0
   11.1583   12.7220    8.4985 N   0  0  0  0  0  0  0  0  0  0  0  0
   11.1481   12.1358    7.2817 C   0  0  0  0  0  0  0  0  0  0  0  0
   11.4148   10.6602    6.9894 C   0  0  0  0  0  0  0  0  0  0  0  0
   11.6958    9.7985    8.0609 C   0  0  0  0  0  0  0  0  0  0  0  0
   11.9313    8.5980    8.0586 O   0  0  0  0  0  0  0  0  0  0  0  0
   11.3080   10.5020    5.6349 N   0  0  0  0  0  0  0  0  0  0  0  0
   10.9961   11.7286    5.1014 C   0  0  0  0  0  0  0  0  0  0  0  0
   10.8934   12.7323    6.0609 N   0  0  0  0  0  0  0  0  0  0  0  0
  1  2  1  0  0  0  0
  1  6  1  0  0  0  0
  2  3  2  0  0  0  0
  3  4  1  0  0  0  0
  4  5  2  0  0  0  0
  4 10  1  0  0  0  0
  5  6  1  0  0  0  0
  5  8  1  0  0  0  0
  6  7  2  0  0  0  0
  8  9  1  0  0  0  0
  9 10  2  0  0  0  0
M  END
>  <CHROM.1>
11.37429435,11.08489435,7.45927988,0.49115154,-1.34896980,1.09240620

>  <Name>
1u8d_lig

>  <RI>
0

>  <Rbt.Current_Directory>
/home/itssahil/PROJECTS/Mol_Feturizer/New_Systems/rnas/1u8d

>  <Rbt.Executable>
rbdock ($Id: //depot/dev/client3/rdock/2013.1/src/exe/rbdock.cxx#4 $)

>  <Rbt.Library>
libRbt.so (2013.1, Build901 2013/11/27)

>  <Rbt.Parameter_File>
/export/apps/rDock/src/rDock_2013.1_src/data/scripts/dock_solv.prm

>  <Rbt.Receptor>
prm/pocket_docking_7.prm

>  <SCORE>
-26.0811

>  <SCORE.INTER>
-26.0811

>  <SCORE.INTER.CONST>
1

>  <SCORE.INTER.POLAR>
-1.93632

>  <SCORE.INTER.ROT>
0

>  <SCORE.INTER.SOLV>
11.6963

>  <SCORE.INTER.VDW>
-18.4318

>  <SCORE.INTER.norm>
-2.60811

>  <SCORE.INTRA>
0

>  <SCORE.INTRA.DIHEDRAL>
0

>  <SCORE.INTRA.DIHEDRAL.0>
0

>  <SCORE.INTRA.POLAR>
0

>  <SCORE.INTRA.POLAR.0>
0

>  <SCORE.INTRA.REPUL>
0

>  <SCORE.INTRA.REPUL.0>
0

>  <SCORE.INTRA.SOLV>
0

>  <SCORE.INTRA.SOLV.lig_0>
-13.7928

>  <SCORE.INTRA.VDW>
0

>  <SCORE.INTRA.VDW.0>
0

>  <SCORE.INTRA.norm>
0

>  <SCORE.RESTR>
0

>  <SCORE.RESTR.CAVITY>
0

>  <SCORE.RESTR.norm>
0

>  <SCORE.SYSTEM>
0

>  <SCORE.SYSTEM.CONST>
0

>  <SCORE.SYSTEM.DIHEDRAL>
0

>  <SCORE.SYSTEM.SOLV>
0

>  <SCORE.SYSTEM.norm>
0

>  <SCORE.heavy>
10

>  <SCORE.norm>
-2.60811

>  <RMSD>
0.221

$$$$
1u8d_lig
 OpenBabel11021811413D
libRbt.so/2013.1/901 2013/11/27
 10 11  0  0  0  0  0  0  0  0999 V2000
   11.7229   10.4754    9.2720 N   0  0  0  0  0  0  0  0  0  0  0  0
   11.4912   11.8453    9.4840 C   0  0  0  0  0  0  0  0  0  0  0  0
   11.2032   12.7191    8.4860 N   0  0  0  0  0  0  0  0  0  0  0  0
   11.1611   12.1307    7.2709 C   0  0  0  0  0  0  0  0  0  0  0  0
   11.4074   10.6522    6.9760 C   0  0  0  0  0  0  0  0  0  0  0  0
   11.7035    9.7898    8.0429 C   0  0  0  0  0  0  0  0  0  0  0  0
   11.9275    8.5871    8.0380 O   0  0  0  0  0  0  0  0  0  0  0  0
   11.2697   10.4923    5.6244 N   0  0  0  0  0  0  0  0  0  0  0  0
   10.9578   11.7209    5.0953 C   0  0  0  0  0  0  0  0  0  0  0  0
   10.8855   12.7274    6.0547 N   0  0  0  0  0  0  0  0  0  0  0  0
  1  2  1  0  0  0  0
  1  6  1  0  0  0  0
  2  3  2  0  0  0  0
  3  4  1  0  0  0  0
  4  5  2  0  0  0  0
  4 10  1  0  0  0  0
  5  6  1  0  0  0  0
  5  8  1  0  0  0  0
  6  7  2  0  0  0  0
  8  9  1  0  0  0  0
  9 10  2  0  0  0  0
M  END
>  <CHROM.1>
11.38114300,11.07807077,7.44572275,0.38481484,-1.34611325,0.98671664

>  <Name>
1u8d_lig

>  <RI>
0

>  <Rbt.Current_Directory>
/home/itssahil/PROJECTS/Mol_Feturizer/New_Systems/rnas/1u8d

>  <Rbt.Executable>
rbdock ($Id: //depot/dev/client3/rdock/2013.1/src/exe/rbdock.cxx#4 $)

>  <Rbt.Library>
libRbt.so (2013.1, Build901 2013/11/27)

>  <Rbt.Parameter_File>
/export/apps/rDock/src/rDock_2013.1_src/data/scripts/dock_solv.prm

>  <Rbt.Receptor>
prm/pocket_docking_8.prm

>  <SCORE>
-26.168

>  <SCORE.INTER>
-26.168

>  <SCORE.INTER.CONST>
1

>  <SCORE.INTER.POLAR>
-1.93632

>  <SCORE.INTER.ROT>
0

>  <SCORE.INTER.SOLV>
11.6609

>  <SCORE.INTER.VDW>
-18.4779

>  <SCORE.INTER.norm>
-2.6168

>  <SCORE.INTRA>
0

>  <SCORE.INTRA.DIHEDRAL>
0

>  <SCORE.INTRA.DIHEDRAL.0>
0

>  <SCORE.INTRA.POLAR>
0

>  <SCORE.INTRA.POLAR.0>
0

>  <SCORE.INTRA.REPUL>
0

>  <SCORE.INTRA.REPUL.0>
0

>  <SCORE.INTRA.SOLV>
0

>  <SCORE.INTRA.SOLV.lig_0>
-13.7928

>  <SCORE.INTRA.VDW>
0

>  <SCORE.INTRA.VDW.0>
0

>  <SCORE.INTRA.norm>
0

>  <SCORE.RESTR>
0

>  <SCORE.RESTR.CAVITY>
0

>  <SCORE.RESTR.norm>
0

>  <SCORE.SYSTEM>
0

>  <SCORE.SYSTEM.CONST>
0

>  <SCORE.SYSTEM.DIHEDRAL>
0

>  <SCORE.SYSTEM.SOLV>
0

>  <SCORE.SYSTEM.norm>
0

>  <SCORE.heavy>
10

>  <SCORE.norm>
-2.6168

>  <RMSD>
0.221

$$$$
1u8d_lig
 OpenBabel11021811413D
libRbt.so/2013.1/901 2013/11/27
 10 11  0  0  0  0  0  0  0  0999 V2000
   11.7225   10.4764    9.2730 N   0  0  0  0  0  0  0  0  0  0  0  0
   11.4911   11.8461    9.4856 C   0  0  0  0  0  0  0  0  0  0  0  0
   11.2064   12.7211    8.4875 N   0  0  0  0  0  0  0  0  0  0  0  0
   11.1672   12.1338    7.2718 C   0  0  0  0  0  0  0  0  0  0  0  0
   11.4134   10.6553    6.9763 C   0  0  0  0  0  0  0  0  0  0  0  0
   11.7059    9.7918    8.0433 C   0  0  0  0  0  0  0  0  0  0  0  0
   11.9292    8.5890    8.0379 O   0  0  0  0  0  0  0  0  0  0  0  0
   11.2792   10.4967    5.6242 N   0  0  0  0  0  0  0  0  0  0  0  0
   10.9697   11.7260    5.0953 C   0  0  0  0  0  0  0  0  0  0  0  0
   10.8954   12.7316    6.0554 N   0  0  0  0  0  0  0  0  0  0  0  0
  1  2  1  0  0  0  0
  1  6  1  0  0  0  0
  2  3  2  0  0  0  0
  3  4  1  0  0  0  0
  4  5  2  0  0  0  0
  4 10  1  0  0  0  0
  5  6  1  0  0  0  0
  5  8  1  0  0  0  0
  6  7  2  0  0  0  0
  8  9  1  0  0  0  0
  9 10  2  0  0  0  0
M  END
>  <CHROM.1>
11.38608665,11.08080486,7.44634362,0.39349945,-1.34816734,0.99605427

>  <Name>
1u8d_lig

>  <RI>
0

>  <Rbt.Current_Directory>
/home/itssahil/PROJECTS/Mol_Feturizer/New_Systems/rnas/1u8d

>  <Rbt.Executable>
rbdock ($Id: //depot/dev/client3/rdock/2013.1/src/exe/rbdock.cxx#4 $)

>  <Rbt.Library>
libRbt.so (2013.1, Build901 2013/11/27)

>  <Rbt.Parameter_File>
/export/apps/rDock/src/rDock_2013.1_src/data/scripts/dock_solv.prm

>  <Rbt.Receptor>
prm/blind_docking_100.prm

>  <SCORE>
-26.1643

>  <SCORE.INTER>
-26.1643

>  <SCORE.INTER.CONST>
1

>  <SCORE.INTER.POLAR>
-1.93632

>  <SCORE.INTER.ROT>
0

>  <SCORE.INTER.SOLV>
11.6628

>  <SCORE.INTER.VDW>
-18.4761

>  <SCORE.INTER.norm>
-2.61643

>  <SCORE.INTRA>
0

>  <SCORE.INTRA.DIHEDRAL>
0

>  <SCORE.INTRA.DIHEDRAL.0>
0

>  <SCORE.INTRA.POLAR>
0

>  <SCORE.INTRA.POLAR.0>
0

>  <SCORE.INTRA.REPUL>
0

>  <SCORE.INTRA.REPUL.0>
0

>  <SCORE.INTRA.SOLV>
0

>  <SCORE.INTRA.SOLV.lig_0>
-13.7928

>  <SCORE.INTRA.VDW>
0

>  <SCORE.INTRA.VDW.0>
0

>  <SCORE.INTRA.norm>
0

>  <SCORE.RESTR>
0

>  <SCORE.RESTR.CAVITY>
0

>  <SCORE.RESTR.norm>
0

>  <SCORE.SYSTEM>
0

>  <SCORE.SYSTEM.CONST>
0

>  <SCORE.SYSTEM.DIHEDRAL>
0

>  <SCORE.SYSTEM.SOLV>
0

>  <SCORE.SYSTEM.norm>
0

>  <SCORE.heavy>
10

>  <SCORE.norm>
-2.61643

>  <RMSD>
0.222

$$$$
1u8d_lig
 OpenBabel11021811413D
libRbt.so/2013.1/901 2013/11/27
 10 11  0  0  0  0  0  0  0  0999 V2000
   11.6589   10.4898    9.1369 N   0  0  0  0  0  0  0  0  0  0  0  0
   11.3029   11.8363    9.3251 C   0  0  0  0  0  0  0  0  0  0  0  0
   10.9626   12.6697    8.3091 N   0  0  0  0  0  0  0  0  0  0  0  0
   11.0005   12.0659    7.1015 C   0  0  0  0  0  0  0  0  0  0  0  0
   11.3826   10.6115    6.8323 C   0  0  0  0  0  0  0  0  0  0  0  0
   11.7283    9.7910    7.9171 C   0  0  0  0  0  0  0  0  0  0  0  0
   12.0572    8.6127    7.9335 O   0  0  0  0  0  0  0  0  0  0  0  0
   11.2909   10.4245    5.4802 N   0  0  0  0  0  0  0  0  0  0  0  0
   10.8848   11.6146    4.9277 C   0  0  0  0  0  0  0  0  0  0  0  0
   10.7020   12.6218    5.8715 N   0  0  0  0  0  0  0  0  0  0  0  0
  1  2  1  0  0  0  0
  1  6  1  0  0  0  0
  2  3  2  0  0  0  0
  3  4  1  0  0  0  0
  4  5  2  0  0  0  0
  4 10  1  0  0  0  0
  5  6  1  0  0  0  0
  5  8  1  0  0  0  0
  6  7  2  0  0  0  0
  8  9  1  0  0  0  0
  9 10  2  0  0  0  0
M  END
>  <CHROM.1>
11.30808464,11.03880447,7.29546099,0.62193027,-1.27774864,1.20352851

>  <Name>
1u8d_lig

>  <RI>
0

>  <Rbt.Current_Directory>
/home/itssahil/PROJECTS/Mol_Feturizer/New_Systems/rnas/1u8d

>  <Rbt.Executable>
rbdock ($Id: //depot/dev/client3/rdock/2013.1/src/exe/rbdock.cxx#4 $)

>  <Rbt.Library>
libRbt.so (2013.1, Build901 2013/11/27)

>  <Rbt.Parameter_File>
/export/apps/rDock/src/rDock_2013.1_src/data/scripts/dock_solv.prm

>  <Rbt.Receptor>
prm/blind_docking_20.prm

>  <SCORE>
-25.7506

>  <SCORE.INTER>
-25.7506

>  <SCORE.INTER.CONST>
1

>  <SCORE.INTER.POLAR>
-1.93632

>  <SCORE.INTER.ROT>
0

>  <SCORE.INTER.SOLV>
11.638

>  <SCORE.INTER.VDW>
-18.192

>  <SCORE.INTER.norm>
-2.57506

>  <SCORE.INTRA>
0

>  <SCORE.INTRA.DIHEDRAL>
0

>  <SCORE.INTRA.DIHEDRAL.0>
0

>  <SCORE.INTRA.POLAR>
0

>  <SCORE.INTRA.POLAR.0>
0

>  <SCORE.INTRA.REPUL>
0

>  <SCORE.INTRA.REPUL.0>
0

>  <SCORE.INTRA.SOLV>
0

>  <SCORE.INTRA.SOLV.lig_0>
-13.7928

>  <SCORE.INTRA.VDW>
0

>  <SCORE.INTRA.VDW.0>
0

>  <SCORE.INTRA.norm>
0

>  <SCORE.RESTR>
0

>  <SCORE.RESTR.CAVITY>
0

>  <SCORE.RESTR.norm>
0

>  <SCORE.SYSTEM>
0

>  <SCORE.SYSTEM.CONST>
0

>  <SCORE.SYSTEM.DIHEDRAL>
0

>  <SCORE.SYSTEM.SOLV>
0

>  <SCORE.SYSTEM.norm>
0

>  <SCORE.heavy>
10

>  <SCORE.norm>
-2.57506

>  <RMSD>
0.222

$$$$
1u8d_lig
 OpenBabel11021811413D
libRbt.so/2013.1/901 2013/11/27
 10 11  0  0  0  0  0  0  0  0999 V2000
   11.7272   10.4763    9.2758 N   0  0  0  0  0  0  0  0  0  0  0  0
   11.4975   11.8458    9.4918 C   0  0  0  0  0  0  0  0  0  0  0  0
   11.2050   12.7220    8.4971 N   0  0  0  0  0  0  0  0  0  0  0  0
   11.1561   12.1361    7.2810 C   0  0  0  0  0  0  0  0  0  0  0  0
   11.4000   10.6580    6.9818 C   0  0  0  0  0  0  0  0  0  0  0  0
   11.7009    9.7933    8.0454 C   0  0  0  0  0  0  0  0  0  0  0  0
   11.9242    8.5904    8.0368 O   0  0  0  0  0  0  0  0  0  0  0  0
   11.2552   10.5011    5.6306 N   0  0  0  0  0  0  0  0  0  0  0  0
   10.9415   11.7310    5.1056 C   0  0  0  0  0  0  0  0  0  0  0  0
   10.8747   12.7355    6.0674 N   0  0  0  0  0  0  0  0  0  0  0  0
  1  2  1  0  0  0  0
  1  6  1  0  0  0  0
  2  3  2  0  0  0  0
  3  4  1  0  0  0  0
  4  5  2  0  0  0  0
  4 10  1  0  0  0  0
  5  6  1  0  0  0  0
  5  8  1  0  0  0  0
  6  7  2  0  0  0  0
  8  9  1  0  0  0  0
  9 10  2  0  0  0  0
M  END
>  <CHROM.1>
11.37640393,11.08297528,7.45251228,0.36412142,-1.34378326,0.96862566

>  <Name>
1u8d_lig

>  <RI>
0

>  <Rbt.Current_Directory>
/home/itssahil/PROJECTS/Mol_Feturizer/New_Systems/rnas/1u8d

>  <Rbt.Executable>
rbdock ($Id: //depot/dev/client3/rdock/2013.1/src/exe/rbdock.cxx#4 $)

>  <Rbt.Library>
libRbt.so (2013.1, Build901 2013/11/27)

>  <Rbt.Parameter_File>
/export/apps/rDock/src/rDock_2013.1_src/data/scripts/dock_solv.prm

>  <Rbt.Receptor>
prm/blind_docking_40.prm

>  <SCORE>
-26.1295

>  <SCORE.INTER>
-26.1295

>  <SCORE.INTER.CONST>
1

>  <SCORE.INTER.POLAR>
-1.93632

>  <SCORE.INTER.ROT>
0

>  <SCORE.INTER.SOLV>
11.6514

>  <SCORE.INTER.VDW>
-18.4491

>  <SCORE.INTER.norm>
-2.61295

>  <SCORE.INTRA>
0

>  <SCORE.INTRA.DIHEDRAL>
0

>  <SCORE.INTRA.DIHEDRAL.0>
0

>  <SCORE.INTRA.POLAR>
0

>  <SCORE.INTRA.POLAR.0>
0

>  <SCORE.INTRA.REPUL>
0

>  <SCORE.INTRA.REPUL.0>
0

>  <SCORE.INTRA.SOLV>
0

>  <SCORE.INTRA.SOLV.lig_0>
-13.7928

>  <SCORE.INTRA.VDW>
0

>  <SCORE.INTRA.VDW.0>
0

>  <SCORE.INTRA.norm>
0

>  <SCORE.RESTR>
0

>  <SCORE.RESTR.CAVITY>
0

>  <SCORE.RESTR.norm>
0

>  <SCORE.SYSTEM>
0

>  <SCORE.SYSTEM.CONST>
0

>  <SCORE.SYSTEM.DIHEDRAL>
0

>  <SCORE.SYSTEM.SOLV>
0

>  <SCORE.SYSTEM.norm>
0

>  <SCORE.heavy>
10

>  <SCORE.norm>
-2.61295

>  <RMSD>
0.222

$$$$
1u8d_lig
 OpenBabel11021811413D
libRbt.so/2013.1/901 2013/11/27
 10 11  0  0  0  0  0  0  0  0999 V2000
   11.7094   10.4776    9.2705 N   0  0  0  0  0  0  0  0  0  0  0  0
   11.4730   11.8480    9.4735 C   0  0  0  0  0  0  0  0  0  0  0  0
   11.1982   12.7173    8.4678 N   0  0  0  0  0  0  0  0  0  0  0  0
   11.1741   12.1238    7.2547 C   0  0  0  0  0  0  0  0  0  0  0  0
   11.4264   10.6444    6.9695 C   0  0  0  0  0  0  0  0  0  0  0  0
   11.7082    9.7869    8.0442 C   0  0  0  0  0  0  0  0  0  0  0  0
   11.9338    8.5844    8.0474 O   0  0  0  0  0  0  0  0  0  0  0  0
   11.3081   10.4788    5.6168 N   0  0  0  0  0  0  0  0  0  0  0  0
   11.0024   11.7047    5.0782 C   0  0  0  0  0  0  0  0  0  0  0  0
   10.9152   12.7151    6.0322 N   0  0  0  0  0  0  0  0  0  0  0  0
  1  2  1  0  0  0  0
  1  6  1  0  0  0  0
  2  3  2  0  0  0  0
  3  4  1  0  0  0  0
  4  5  2  0  0  0  0
  4 10  1  0  0  0  0
  5  6  1  0  0  0  0
  5  8  1  0  0  0  0
  6  7  2  0  0  0  0
  8  9  1  0  0  0  0
  9 10  2  0  0  0  0
M  END
>  <CHROM.1>
11.39290418,11.07219476,7.43706364,0.44280589,-1.35261280,1.03912567

>  <Name>
1u8d_lig

>  <RI>
0

>  <Rbt.Current_Directory>
/home/itssahil/PROJECTS/Mol_Feturizer/New_Systems/rnas/1u8d

>  <Rbt.Executable>
rbdock ($Id: //depot/dev/client3/rdock/2013.1/src/exe/rbdock.cxx#4 $)

>  <Rbt.Library>
libRbt.so (2013.1, Build901 2013/11/27)

>  <Rbt.Parameter_File>
/export/apps/rDock/src/rDock_2013.1_src/data/scripts/dock_solv.prm

>  <Rbt.Receptor>
prm/pocket_docking_3.prm

>  <SCORE>
-26.099

>  <SCORE.INTER>
-26.099

>  <SCORE.INTER.CONST>
1

>  <SCORE.INTER.POLAR>
-1.93632

>  <SCORE.INTER.ROT>
0

>  <SCORE.INTER.SOLV>
11.688

>  <SCORE.INTER.VDW>
-18.4409

>  <SCORE.INTER.norm>
-2.6099

>  <SCORE.INTRA>
0

>  <SCORE.INTRA.DIHEDRAL>
0

>  <SCORE.INTRA.DIHEDRAL.0>
0

>  <SCORE.INTRA.POLAR>
0

>  <SCORE.INTRA.POLAR.0>
0

>  <SCORE.INTRA.REPUL>
0

>  <SCORE.INTRA.REPUL.0>
0

>  <SCORE.INTRA.SOLV>
0

>  <SCORE.INTRA.SOLV.lig_0>
-13.7928

>  <SCORE.INTRA.VDW>
0

>  <SCORE.INTRA.VDW.0>
0

>  <SCORE.INTRA.norm>
0

>  <SCORE.RESTR>
0

>  <SCORE.RESTR.CAVITY>
0

>  <SCORE.RESTR.norm>
0

>  <SCORE.SYSTEM>
0

>  <SCORE.SYSTEM.CONST>
0

>  <SCORE.SYSTEM.DIHEDRAL>
0

>  <SCORE.SYSTEM.SOLV>
0

>  <SCORE.SYSTEM.norm>
0

>  <SCORE.heavy>
10

>  <SCORE.norm>
-2.6099

>  <RMSD>
0.222

$$$$
1u8d_lig
 OpenBabel11021811413D
libRbt.so/2013.1/901 2013/11/27
 10 11  0  0  0  0  0  0  0  0999 V2000
   11.7218   10.4779    9.2737 N   0  0  0  0  0  0  0  0  0  0  0  0
   11.4894   11.8472    9.4877 C   0  0  0  0  0  0  0  0  0  0  0  0
   11.2049   12.7231    8.4904 N   0  0  0  0  0  0  0  0  0  0  0  0
   11.1670   12.1372    7.2739 C   0  0  0  0  0  0  0  0  0  0  0  0
   11.4144   10.6593    6.9769 C   0  0  0  0  0  0  0  0  0  0  0  0
   11.7067    9.7948    8.0431 C   0  0  0  0  0  0  0  0  0  0  0  0
   11.9308    8.5920    8.0365 O   0  0  0  0  0  0  0  0  0  0  0  0
   11.2814   10.5022    5.6245 N   0  0  0  0  0  0  0  0  0  0  0  0
   10.9715   11.7319    5.0968 C   0  0  0  0  0  0  0  0  0  0  0  0
   10.8958   12.7363    6.0580 N   0  0  0  0  0  0  0  0  0  0  0  0
  1  2  1  0  0  0  0
  1  6  1  0  0  0  0
  2  3  2  0  0  0  0
  3  4  1  0  0  0  0
  4  5  2  0  0  0  0
  4 10  1  0  0  0  0
  5  6  1  0  0  0  0
  5  8  1  0  0  0  0
  6  7  2  0  0  0  0
  8  9  1  0  0  0  0
  9 10  2  0  0  0  0
M  END
>  <CHROM.1>
11.38648756,11.08420819,7.44740277,0.39813244,-1.34804270,1.00174215

>  <Name>
1u8d_lig

>  <RI>
0

>  <Rbt.Current_Directory>
/home/itssahil/PROJECTS/Mol_Feturizer/New_Systems/rnas/1u8d

>  <Rbt.Executable>
rbdock ($Id: //depot/dev/client3/rdock/2013.1/src/exe/rbdock.cxx#4 $)

>  <Rbt.Library>
libRbt.so (2013.1, Build901 2013/11/27)

>  <Rbt.Parameter_File>
/export/apps/rDock/src/rDock_2013.1_src/data/scripts/dock_solv.prm

>  <Rbt.Receptor>
prm/pocket_docking_3.prm

>  <SCORE>
-26.1632

>  <SCORE.INTER>
-26.1632

>  <SCORE.INTER.CONST>
1

>  <SCORE.INTER.POLAR>
-1.93632

>  <SCORE.INTER.ROT>
0

>  <SCORE.INTER.SOLV>
11.6618

>  <SCORE.INTER.VDW>
-18.475

>  <SCORE.INTER.norm>
-2.61632

>  <SCORE.INTRA>
0

>  <SCORE.INTRA.DIHEDRAL>
0

>  <SCORE.INTRA.DIHEDRAL.0>
0

>  <SCORE.INTRA.POLAR>
0

>  <SCORE.INTRA.POLAR.0>
0

>  <SCORE.INTRA.REPUL>
0

>  <SCORE.INTRA.REPUL.0>
0

>  <SCORE.INTRA.SOLV>
0

>  <SCORE.INTRA.SOLV.lig_0>
-13.7928

>  <SCORE.INTRA.VDW>
0

>  <SCORE.INTRA.VDW.0>
0

>  <SCORE.INTRA.norm>
0

>  <SCORE.RESTR>
0

>  <SCORE.RESTR.CAVITY>
0

>  <SCORE.RESTR.norm>
0

>  <SCORE.SYSTEM>
0

>  <SCORE.SYSTEM.CONST>
0

>  <SCORE.SYSTEM.DIHEDRAL>
0

>  <SCORE.SYSTEM.SOLV>
0

>  <SCORE.SYSTEM.norm>
0

>  <SCORE.heavy>
10

>  <SCORE.norm>
-2.61632

>  <RMSD>
0.222

$$$$
1u8d_lig
 OpenBabel11021811413D
libRbt.so/2013.1/901 2013/11/27
 10 11  0  0  0  0  0  0  0  0999 V2000
   11.7216   10.4759    9.2711 N   0  0  0  0  0  0  0  0  0  0  0  0
   11.4901   11.8455    9.4847 C   0  0  0  0  0  0  0  0  0  0  0  0
   11.2038   12.7208    8.4874 N   0  0  0  0  0  0  0  0  0  0  0  0
   11.1631   12.1341    7.2715 C   0  0  0  0  0  0  0  0  0  0  0  0
   11.4094   10.6558    6.9749 C   0  0  0  0  0  0  0  0  0  0  0  0
   11.7036    9.7920    8.0411 C   0  0  0  0  0  0  0  0  0  0  0  0
   11.9273    8.5892    8.0348 O   0  0  0  0  0  0  0  0  0  0  0  0
   11.2734   10.4979    5.6229 N   0  0  0  0  0  0  0  0  0  0  0  0
   10.9628   11.7273    5.0950 C   0  0  0  0  0  0  0  0  0  0  0  0
   10.8895   12.7325    6.0556 N   0  0  0  0  0  0  0  0  0  0  0  0
  1  2  1  0  0  0  0
  1  6  1  0  0  0  0
  2  3  2  0  0  0  0
  3  4  1  0  0  0  0
  4  5  2  0  0  0  0
  4 10  1  0  0  0  0
  5  6  1  0  0  0  0
  5  8  1  0  0  0  0
  6  7  2  0  0  0  0
  8  9  1  0  0  0  0
  9 10  2  0  0  0  0
M  END
>  <CHROM.1>
11.38258572,11.08110597,7.44517713,0.38918148,-1.34715825,0.99232257

>  <Name>
1u8d_lig

>  <RI>
0

>  <Rbt.Current_Directory>
/home/itssahil/PROJECTS/Mol_Feturizer/New_Systems/rnas/1u8d

>  <Rbt.Executable>
rbdock ($Id: //depot/dev/client3/rdock/2013.1/src/exe/rbdock.cxx#4 $)

>  <Rbt.Library>
libRbt.so (2013.1, Build901 2013/11/27)

>  <Rbt.Parameter_File>
/export/apps/rDock/src/rDock_2013.1_src/data/scripts/dock_solv.prm

>  <Rbt.Receptor>
prm/pocket_docking_4.prm

>  <SCORE>
-26.1683

>  <SCORE.INTER>
-26.1683

>  <SCORE.INTER.CONST>
1

>  <SCORE.INTER.POLAR>
-1.93632

>  <SCORE.INTER.ROT>
0

>  <SCORE.INTER.SOLV>
11.6623

>  <SCORE.INTER.VDW>
-18.4786

>  <SCORE.INTER.norm>
-2.61683

>  <SCORE.INTRA>
0

>  <SCORE.INTRA.DIHEDRAL>
0

>  <SCORE.INTRA.DIHEDRAL.0>
0

>  <SCORE.INTRA.POLAR>
0

>  <SCORE.INTRA.POLAR.0>
0

>  <SCORE.INTRA.REPUL>
0

>  <SCORE.INTRA.REPUL.0>
0

>  <SCORE.INTRA.SOLV>
0

>  <SCORE.INTRA.SOLV.lig_0>
-13.7928

>  <SCORE.INTRA.VDW>
0

>  <SCORE.INTRA.VDW.0>
0

>  <SCORE.INTRA.norm>
0

>  <SCORE.RESTR>
0

>  <SCORE.RESTR.CAVITY>
0

>  <SCORE.RESTR.norm>
0

>  <SCORE.SYSTEM>
0

>  <SCORE.SYSTEM.CONST>
0

>  <SCORE.SYSTEM.DIHEDRAL>
0

>  <SCORE.SYSTEM.SOLV>
0

>  <SCORE.SYSTEM.norm>
0

>  <SCORE.heavy>
10

>  <SCORE.norm>
-2.61683

>  <RMSD>
0.222

$$$$
1u8d_lig
 OpenBabel11021811413D
libRbt.so/2013.1/901 2013/11/27
 10 11  0  0  0  0  0  0  0  0999 V2000
   11.7231   10.4786    9.2734 N   0  0  0  0  0  0  0  0  0  0  0  0
   11.4908   11.8480    9.4868 C   0  0  0  0  0  0  0  0  0  0  0  0
   11.2056   12.7234    8.4892 N   0  0  0  0  0  0  0  0  0  0  0  0
   11.1669   12.1367    7.2731 C   0  0  0  0  0  0  0  0  0  0  0  0
   11.4142   10.6586    6.9767 C   0  0  0  0  0  0  0  0  0  0  0  0
   11.7072    9.7947    8.0433 C   0  0  0  0  0  0  0  0  0  0  0  0
   11.9313    8.5920    8.0372 O   0  0  0  0  0  0  0  0  0  0  0  0
   11.2803   10.5008    5.6245 N   0  0  0  0  0  0  0  0  0  0  0  0
   10.9700   11.7301    5.0963 C   0  0  0  0  0  0  0  0  0  0  0  0
   10.8949   12.7352    6.0569 N   0  0  0  0  0  0  0  0  0  0  0  0
  1  2  1  0  0  0  0
  1  6  1  0  0  0  0
  2  3  2  0  0  0  0
  3  4  1  0  0  0  0
  4  5  2  0  0  0  0
  4 10  1  0  0  0  0
  5  6  1  0  0  0  0
  5  8  1  0  0  0  0
  6  7  2  0  0  0  0
  8  9  1  0  0  0  0
  9 10  2  0  0  0  0
M  END
>  <CHROM.1>
11.38655561,11.08384067,7.44700739,0.39571088,-1.34766154,0.99880532

>  <Name>
1u8d_lig

>  <RI>
0

>  <Rbt.Current_Directory>
/home/itssahil/PROJECTS/Mol_Feturizer/New_Systems/rnas/1u8d

>  <Rbt.Executable>
rbdock ($Id: //depot/dev/client3/rdock/2013.1/src/exe/rbdock.cxx#4 $)

>  <Rbt.Library>
libRbt.so (2013.1, Build901 2013/11/27)

>  <Rbt.Parameter_File>
/export/apps/rDock/src/rDock_2013.1_src/data/scripts/dock_solv.prm

>  <Rbt.Receptor>
prm/pocket_docking_4.prm

>  <SCORE>
-26.165

>  <SCORE.INTER>
-26.165

>  <SCORE.INTER.CONST>
1

>  <SCORE.INTER.POLAR>
-1.93632

>  <SCORE.INTER.ROT>
0

>  <SCORE.INTER.SOLV>
11.6609

>  <SCORE.INTER.VDW>
-18.4759

>  <SCORE.INTER.norm>
-2.6165

>  <SCORE.INTRA>
0

>  <SCORE.INTRA.DIHEDRAL>
0

>  <SCORE.INTRA.DIHEDRAL.0>
0

>  <SCORE.INTRA.POLAR>
0

>  <SCORE.INTRA.POLAR.0>
0

>  <SCORE.INTRA.REPUL>
0

>  <SCORE.INTRA.REPUL.0>
0

>  <SCORE.INTRA.SOLV>
0

>  <SCORE.INTRA.SOLV.lig_0>
-13.7928

>  <SCORE.INTRA.VDW>
0

>  <SCORE.INTRA.VDW.0>
0

>  <SCORE.INTRA.norm>
0

>  <SCORE.RESTR>
0

>  <SCORE.RESTR.CAVITY>
0

>  <SCORE.RESTR.norm>
0

>  <SCORE.SYSTEM>
0

>  <SCORE.SYSTEM.CONST>
0

>  <SCORE.SYSTEM.DIHEDRAL>
0

>  <SCORE.SYSTEM.SOLV>
0

>  <SCORE.SYSTEM.norm>
0

>  <SCORE.heavy>
10

>  <SCORE.norm>
-2.6165

>  <RMSD>
0.222

$$$$
1u8d_lig
 OpenBabel11021811413D
libRbt.so/2013.1/901 2013/11/27
 10 11  0  0  0  0  0  0  0  0999 V2000
   11.7367   10.4891    9.2857 N   0  0  0  0  0  0  0  0  0  0  0  0
   11.5210   11.8625    9.4911 C   0  0  0  0  0  0  0  0  0  0  0  0
   11.2265   12.7319    8.4910 N   0  0  0  0  0  0  0  0  0  0  0  0
   11.1609   12.1353    7.2810 C   0  0  0  0  0  0  0  0  0  0  0  0
   11.3890   10.6524    6.9933 C   0  0  0  0  0  0  0  0  0  0  0  0
   11.6927    9.7949    8.0620 C   0  0  0  0  0  0  0  0  0  0  0  0
   11.9054    8.5901    8.0625 O   0  0  0  0  0  0  0  0  0  0  0  0
   11.2298   10.4842    5.6451 N   0  0  0  0  0  0  0  0  0  0  0  0
   10.9217   11.7119    5.1117 C   0  0  0  0  0  0  0  0  0  0  0  0
   10.8730   12.7258    6.0646 N   0  0  0  0  0  0  0  0  0  0  0  0
  1  2  1  0  0  0  0
  1  6  1  0  0  0  0
  2  3  2  0  0  0  0
  3  4  1  0  0  0  0
  4  5  2  0  0  0  0
  4 10  1  0  0  0  0
  5  6  1  0  0  0  0
  5  8  1  0  0  0  0
  6  7  2  0  0  0  0
  8  9  1  0  0  0  0
  9 10  2  0  0  0  0
M  END
>  <CHROM.1>
11.37364157,11.08184423,7.46022946,0.30663229,-1.34510794,0.90328917

>  <Name>
1u8d_lig

>  <RI>
0

>  <Rbt.Current_Directory>
/home/itssahil/PROJECTS/Mol_Feturizer/New_Systems/rnas/1u8d

>  <Rbt.Executable>
rbdock ($Id: //depot/dev/client3/rdock/2013.1/src/exe/rbdock.cxx#4 $)

>  <Rbt.Library>
libRbt.so (2013.1, Build901 2013/11/27)

>  <Rbt.Parameter_File>
/export/apps/rDock/src/rDock_2013.1_src/data/scripts/dock_solv.prm

>  <Rbt.Receptor>
prm/pocket_docking_5.prm

>  <SCORE>
-26.083

>  <SCORE.INTER>
-26.083

>  <SCORE.INTER.CONST>
1

>  <SCORE.INTER.POLAR>
-1.93632

>  <SCORE.INTER.ROT>
0

>  <SCORE.INTER.SOLV>
11.6561

>  <SCORE.INTER.VDW>
-18.4196

>  <SCORE.INTER.norm>
-2.6083

>  <SCORE.INTRA>
0

>  <SCORE.INTRA.DIHEDRAL>
0

>  <SCORE.INTRA.DIHEDRAL.0>
0

>  <SCORE.INTRA.POLAR>
0

>  <SCORE.INTRA.POLAR.0>
0

>  <SCORE.INTRA.REPUL>
0

>  <SCORE.INTRA.REPUL.0>
0

>  <SCORE.INTRA.SOLV>
0

>  <SCORE.INTRA.SOLV.lig_0>
-13.7928

>  <SCORE.INTRA.VDW>
0

>  <SCORE.INTRA.VDW.0>
0

>  <SCORE.INTRA.norm>
0

>  <SCORE.RESTR>
0

>  <SCORE.RESTR.CAVITY>
0

>  <SCORE.RESTR.norm>
0

>  <SCORE.SYSTEM>
0

>  <SCORE.SYSTEM.CONST>
0

>  <SCORE.SYSTEM.DIHEDRAL>
0

>  <SCORE.SYSTEM.SOLV>
0

>  <SCORE.SYSTEM.norm>
0

>  <SCORE.heavy>
10

>  <SCORE.norm>
-2.6083

>  <RMSD>
0.222

$$$$
1u8d_lig
 OpenBabel11021811413D
libRbt.so/2013.1/901 2013/11/27
 10 11  0  0  0  0  0  0  0  0999 V2000
   11.8181   10.5776    9.1552 N   0  0  0  0  0  0  0  0  0  0  0  0
   11.6013   11.9517    9.3546 C   0  0  0  0  0  0  0  0  0  0  0  0
   11.2767   12.8112    8.3553 N   0  0  0  0  0  0  0  0  0  0  0  0
   11.1824   12.2040    7.1525 C   0  0  0  0  0  0  0  0  0  0  0  0
   11.4099   10.7197    6.8714 C   0  0  0  0  0  0  0  0  0  0  0  0
   11.7455    9.8728    7.9390 C   0  0  0  0  0  0  0  0  0  0  0  0
   11.9638    8.6690    7.9441 O   0  0  0  0  0  0  0  0  0  0  0  0
   11.2164   10.5394    5.5292 N   0  0  0  0  0  0  0  0  0  0  0  0
   10.8887   11.7610    4.9938 C   0  0  0  0  0  0  0  0  0  0  0  0
   10.8601   12.7828    5.9391 N   0  0  0  0  0  0  0  0  0  0  0  0
  1  2  1  0  0  0  0
  1  6  1  0  0  0  0
  2  3  2  0  0  0  0
  3  4  1  0  0  0  0
  4  5  2  0  0  0  0
  4 10  1  0  0  0  0
  5  6  1  0  0  0  0
  5  8  1  0  0  0  0
  6  7  2  0  0  0  0
  8  9  1  0  0  0  0
  9 10  2  0  0  0  0
M  END
>  <CHROM.1>
11.40473320,11.15310596,7.33493982,0.23447845,-1.32461786,0.82465482

>  <Name>
1u8d_lig

>  <RI>
0

>  <Rbt.Current_Directory>
/home/itssahil/PROJECTS/Mol_Feturizer/New_Systems/rnas/1u8d

>  <Rbt.Executable>
rbdock ($Id: //depot/dev/client3/rdock/2013.1/src/exe/rbdock.cxx#4 $)

>  <Rbt.Library>
libRbt.so (2013.1, Build901 2013/11/27)

>  <Rbt.Parameter_File>
/export/apps/rDock/src/rDock_2013.1_src/data/scripts/dock_solv.prm

>  <Rbt.Receptor>
prm/pocket_docking_8.prm

>  <SCORE>
-26.0715

>  <SCORE.INTER>
-26.0715

>  <SCORE.INTER.CONST>
1

>  <SCORE.INTER.POLAR>
-1.93632

>  <SCORE.INTER.ROT>
0

>  <SCORE.INTER.SOLV>
11.5741

>  <SCORE.INTER.VDW>
-18.3847

>  <SCORE.INTER.norm>
-2.60715

>  <SCORE.INTRA>
0

>  <SCORE.INTRA.DIHEDRAL>
0

>  <SCORE.INTRA.DIHEDRAL.0>
0

>  <SCORE.INTRA.POLAR>
0

>  <SCORE.INTRA.POLAR.0>
0

>  <SCORE.INTRA.REPUL>
0

>  <SCORE.INTRA.REPUL.0>
0

>  <SCORE.INTRA.SOLV>
0

>  <SCORE.INTRA.SOLV.lig_0>
-13.7928

>  <SCORE.INTRA.VDW>
0

>  <SCORE.INTRA.VDW.0>
0

>  <SCORE.INTRA.norm>
0

>  <SCORE.RESTR>
0

>  <SCORE.RESTR.CAVITY>
0

>  <SCORE.RESTR.norm>
0

>  <SCORE.SYSTEM>
0

>  <SCORE.SYSTEM.CONST>
0

>  <SCORE.SYSTEM.DIHEDRAL>
0

>  <SCORE.SYSTEM.SOLV>
0

>  <SCORE.SYSTEM.norm>
0

>  <SCORE.heavy>
10

>  <SCORE.norm>
-2.60715

>  <RMSD>
0.222

$$$$
1u8d_lig
 OpenBabel11021811413D
libRbt.so/2013.1/901 2013/11/27
 10 11  0  0  0  0  0  0  0  0999 V2000
   11.7236   10.4789    9.2745 N   0  0  0  0  0  0  0  0  0  0  0  0
   11.4912   11.8477    9.4924 C   0  0  0  0  0  0  0  0  0  0  0  0
   11.2025   12.7256    8.4982 N   0  0  0  0  0  0  0  0  0  0  0  0
   11.1603   12.1424    7.2806 C   0  0  0  0  0  0  0  0  0  0  0  0
   11.4074   10.6653    6.9793 C   0  0  0  0  0  0  0  0  0  0  0  0
   11.7042    9.7986    8.0425 C   0  0  0  0  0  0  0  0  0  0  0  0
   11.9290    8.5960    8.0323 O   0  0  0  0  0  0  0  0  0  0  0  0
   11.2693   10.5112    5.6271 N   0  0  0  0  0  0  0  0  0  0  0  0
   10.9567   11.7418    5.1033 C   0  0  0  0  0  0  0  0  0  0  0  0
   10.8841   12.7441    6.0670 N   0  0  0  0  0  0  0  0  0  0  0  0
  1  2  1  0  0  0  0
  1  6  1  0  0  0  0
  2  3  2  0  0  0  0
  3  4  1  0  0  0  0
  4  5  2  0  0  0  0
  4 10  1  0  0  0  0
  5  6  1  0  0  0  0
  5  8  1  0  0  0  0
  6  7  2  0  0  0  0
  8  9  1  0  0  0  0
  9 10  2  0  0  0  0
M  END
>  <CHROM.1>
11.38099637,11.08914632,7.45085007,0.38515841,-1.34549202,0.99132991

>  <Name>
1u8d_lig

>  <RI>
0

>  <Rbt.Current_Directory>
/home/itssahil/PROJECTS/Mol_Feturizer/New_Systems/rnas/1u8d

>  <Rbt.Executable>
rbdock ($Id: //depot/dev/client3/rdock/2013.1/src/exe/rbdock.cxx#4 $)

>  <Rbt.Library>
libRbt.so (2013.1, Build901 2013/11/27)

>  <Rbt.Parameter_File>
/export/apps/rDock/src/rDock_2013.1_src/data/scripts/dock_solv.prm

>  <Rbt.Receptor>
prm/pocket_docking_8.prm

>  <SCORE>
-26.131

>  <SCORE.INTER>
-26.131

>  <SCORE.INTER.CONST>
1

>  <SCORE.INTER.POLAR>
-1.93632

>  <SCORE.INTER.ROT>
0

>  <SCORE.INTER.SOLV>
11.6544

>  <SCORE.INTER.VDW>
-18.4511

>  <SCORE.INTER.norm>
-2.6131

>  <SCORE.INTRA>
0

>  <SCORE.INTRA.DIHEDRAL>
0

>  <SCORE.INTRA.DIHEDRAL.0>
0

>  <SCORE.INTRA.POLAR>
0

>  <SCORE.INTRA.POLAR.0>
0

>  <SCORE.INTRA.REPUL>
0

>  <SCORE.INTRA.REPUL.0>
0

>  <SCORE.INTRA.SOLV>
0

>  <SCORE.INTRA.SOLV.lig_0>
-13.7928

>  <SCORE.INTRA.VDW>
0

>  <SCORE.INTRA.VDW.0>
0

>  <SCORE.INTRA.norm>
0

>  <SCORE.RESTR>
0

>  <SCORE.RESTR.CAVITY>
0

>  <SCORE.RESTR.norm>
0

>  <SCORE.SYSTEM>
0

>  <SCORE.SYSTEM.CONST>
0

>  <SCORE.SYSTEM.DIHEDRAL>
0

>  <SCORE.SYSTEM.SOLV>
0

>  <SCORE.SYSTEM.norm>
0

>  <SCORE.heavy>
10

>  <SCORE.norm>
-2.6131

>  <RMSD>
0.222

$$$$
1u8d_lig
 OpenBabel11021811413D
libRbt.so/2013.1/901 2013/11/27
 10 11  0  0  0  0  0  0  0  0999 V2000
   11.7361   10.5228    9.0925 N   0  0  0  0  0  0  0  0  0  0  0  0
   11.3764   11.8693    9.2731 C   0  0  0  0  0  0  0  0  0  0  0  0
   11.0043   12.6877    8.2560 N   0  0  0  0  0  0  0  0  0  0  0  0
   11.0145   12.0688    7.0555 C   0  0  0  0  0  0  0  0  0  0  0  0
   11.3988   10.6135    6.7945 C   0  0  0  0  0  0  0  0  0  0  0  0
   11.7781    9.8090    7.8801 C   0  0  0  0  0  0  0  0  0  0  0  0
   12.1149    8.6331    7.9026 O   0  0  0  0  0  0  0  0  0  0  0  0
   11.2729   10.4088    5.4478 N   0  0  0  0  0  0  0  0  0  0  0  0
   10.8448   11.5893    4.8913 C   0  0  0  0  0  0  0  0  0  0  0  0
   10.6803   12.6072    5.8268 N   0  0  0  0  0  0  0  0  0  0  0  0
  1  2  1  0  0  0  0
  1  6  1  0  0  0  0
  2  3  2  0  0  0  0
  3  4  1  0  0  0  0
  4  5  2  0  0  0  0
  4 10  1  0  0  0  0
  5  6  1  0  0  0  0
  5  8  1  0  0  0  0
  6  7  2  0  0  0  0
  8  9  1  0  0  0  0
  9 10  2  0  0  0  0
M  END
>  <CHROM.1>
11.33365031,11.04620710,7.25414195,0.54919823,-1.26155012,1.12144481

>  <Name>
1u8d_lig

>  <RI>
0

>  <Rbt.Current_Directory>
/home/itssahil/PROJECTS/Mol_Feturizer/New_Systems/rnas/1u8d

>  <Rbt.Executable>
rbdock ($Id: //depot/dev/client3/rdock/2013.1/src/exe/rbdock.cxx#4 $)

>  <Rbt.Library>
libRbt.so (2013.1, Build901 2013/11/27)

>  <Rbt.Parameter_File>
/export/apps/rDock/src/rDock_2013.1_src/data/scripts/dock_solv.prm

>  <Rbt.Receptor>
prm/blind_docking_20.prm

>  <SCORE>
-25.8136

>  <SCORE.INTER>
-25.8136

>  <SCORE.INTER.CONST>
1

>  <SCORE.INTER.POLAR>
-1.93632

>  <SCORE.INTER.ROT>
0

>  <SCORE.INTER.SOLV>
11.542

>  <SCORE.INTER.VDW>
-18.202

>  <SCORE.INTER.norm>
-2.58136

>  <SCORE.INTRA>
0

>  <SCORE.INTRA.DIHEDRAL>
0

>  <SCORE.INTRA.DIHEDRAL.0>
0

>  <SCORE.INTRA.POLAR>
0

>  <SCORE.INTRA.POLAR.0>
0

>  <SCORE.INTRA.REPUL>
0

>  <SCORE.INTRA.REPUL.0>
0

>  <SCORE.INTRA.SOLV>
0

>  <SCORE.INTRA.SOLV.lig_0>
-13.7928

>  <SCORE.INTRA.VDW>
0

>  <SCORE.INTRA.VDW.0>
0

>  <SCORE.INTRA.norm>
0

>  <SCORE.RESTR>
0

>  <SCORE.RESTR.CAVITY>
0

>  <SCORE.RESTR.norm>
0

>  <SCORE.SYSTEM>
0

>  <SCORE.SYSTEM.CONST>
0

>  <SCORE.SYSTEM.DIHEDRAL>
0

>  <SCORE.SYSTEM.SOLV>
0

>  <SCORE.SYSTEM.norm>
0

>  <SCORE.heavy>
10

>  <SCORE.norm>
-2.58136

>  <RMSD>
0.223

$$$$
1u8d_lig
 OpenBabel11021811413D
libRbt.so/2013.1/901 2013/11/27
 10 11  0  0  0  0  0  0  0  0999 V2000
   11.6730   10.4577    9.1753 N   0  0  0  0  0  0  0  0  0  0  0  0
   11.3417   11.8117    9.3536 C   0  0  0  0  0  0  0  0  0  0  0  0
   11.0062   12.6412    8.3328 N   0  0  0  0  0  0  0  0  0  0  0  0
   11.0227   12.0253    7.1308 C   0  0  0  0  0  0  0  0  0  0  0  0
   11.3776   10.5621    6.8721 C   0  0  0  0  0  0  0  0  0  0  0  0
   11.7194    9.7462    7.9617 C   0  0  0  0  0  0  0  0  0  0  0  0
   12.0284    8.5627    7.9865 O   0  0  0  0  0  0  0  0  0  0  0  0
   11.2703   10.3638    5.5229 N   0  0  0  0  0  0  0  0  0  0  0  0
   10.8793   11.5554    4.9626 C   0  0  0  0  0  0  0  0  0  0  0  0
   10.7224   12.5745    5.8982 N   0  0  0  0  0  0  0  0  0  0  0  0
  1  2  1  0  0  0  0
  1  6  1  0  0  0  0
  2  3  2  0  0  0  0
  3  4  1  0  0  0  0
  4  5  2  0  0  0  0
  4 10  1  0  0  0  0
  5  6  1  0  0  0  0
  5  8  1  0  0  0  0
  6  7  2  0  0  0  0
  8  9  1  0  0  0  0
  9 10  2  0  0  0  0
M  END
>  <CHROM.1>
11.31462307,10.99502152,7.33183991,0.56883756,-1.28987687,1.14300312

>  <Name>
1u8d_lig

>  <RI>
0

>  <Rbt.Current_Directory>
/home/itssahil/PROJECTS/Mol_Feturizer/New_Systems/rnas/1u8d

>  <Rbt.Executable>
rbdock ($Id: //depot/dev/client3/rdock/2013.1/src/exe/rbdock.cxx#4 $)

>  <Rbt.Library>
libRbt.so (2013.1, Build901 2013/11/27)

>  <Rbt.Parameter_File>
/export/apps/rDock/src/rDock_2013.1_src/data/scripts/dock_solv.prm

>  <Rbt.Receptor>
prm/blind_docking_20.prm

>  <SCORE>
-25.8049

>  <SCORE.INTER>
-25.8049

>  <SCORE.INTER.CONST>
1

>  <SCORE.INTER.POLAR>
-1.93632

>  <SCORE.INTER.ROT>
0

>  <SCORE.INTER.SOLV>
11.6442

>  <SCORE.INTER.VDW>
-18.2303

>  <SCORE.INTER.norm>
-2.58049

>  <SCORE.INTRA>
0

>  <SCORE.INTRA.DIHEDRAL>
0

>  <SCORE.INTRA.DIHEDRAL.0>
0

>  <SCORE.INTRA.POLAR>
0

>  <SCORE.INTRA.POLAR.0>
0

>  <SCORE.INTRA.REPUL>
0

>  <SCORE.INTRA.REPUL.0>
0

>  <SCORE.INTRA.SOLV>
0

>  <SCORE.INTRA.SOLV.lig_0>
-13.7928

>  <SCORE.INTRA.VDW>
0

>  <SCORE.INTRA.VDW.0>
0

>  <SCORE.INTRA.norm>
0

>  <SCORE.RESTR>
0

>  <SCORE.RESTR.CAVITY>
0

>  <SCORE.RESTR.norm>
0

>  <SCORE.SYSTEM>
0

>  <SCORE.SYSTEM.CONST>
0

>  <SCORE.SYSTEM.DIHEDRAL>
0

>  <SCORE.SYSTEM.SOLV>
0

>  <SCORE.SYSTEM.norm>
0

>  <SCORE.heavy>
10

>  <SCORE.norm>
-2.58049

>  <RMSD>
0.223

$$$$
1u8d_lig
 OpenBabel11021811413D
libRbt.so/2013.1/901 2013/11/27
 10 11  0  0  0  0  0  0  0  0999 V2000
   11.7175   10.4791    9.2727 N   0  0  0  0  0  0  0  0  0  0  0  0
   11.4839   11.8483    9.4864 C   0  0  0  0  0  0  0  0  0  0  0  0
   11.2019   12.7244    8.4887 N   0  0  0  0  0  0  0  0  0  0  0  0
   11.1675   12.1389    7.2720 C   0  0  0  0  0  0  0  0  0  0  0  0
   11.4163   10.6611    6.9751 C   0  0  0  0  0  0  0  0  0  0  0  0
   11.7060    9.7964    8.0419 C   0  0  0  0  0  0  0  0  0  0  0  0
   11.9306    8.5938    8.0355 O   0  0  0  0  0  0  0  0  0  0  0  0
   11.2870   10.5044    5.6223 N   0  0  0  0  0  0  0  0  0  0  0  0
   10.9780   11.7341    5.0942 C   0  0  0  0  0  0  0  0  0  0  0  0
   10.8993   12.7383    6.0554 N   0  0  0  0  0  0  0  0  0  0  0  0
  1  2  1  0  0  0  0
  1  6  1  0  0  0  0
  2  3  2  0  0  0  0
  3  4  1  0  0  0  0
  4  5  2  0  0  0  0
  4 10  1  0  0  0  0
  5  6  1  0  0  0  0
  5  8  1  0  0  0  0
  6  7  2  0  0  0  0
  8  9  1  0  0  0  0
  9 10  2  0  0  0  0
M  END
>  <CHROM.1>
11.38689537,11.08588794,7.44567361,0.40949050,-1.34916735,1.01313287

>  <Name>
1u8d_lig

>  <RI>
0

>  <Rbt.Current_Directory>
/home/itssahil/PROJECTS/Mol_Feturizer/New_Systems/rnas/1u8d

>  <Rbt.Executable>
rbdock ($Id: //depot/dev/client3/rdock/2013.1/src/exe/rbdock.cxx#4 $)

>  <Rbt.Library>
libRbt.so (2013.1, Build901 2013/11/27)

>  <Rbt.Parameter_File>
/export/apps/rDock/src/rDock_2013.1_src/data/scripts/dock_solv.prm

>  <Rbt.Receptor>
prm/blind_docking_80.prm

>  <SCORE>
-26.1592

>  <SCORE.INTER>
-26.1592

>  <SCORE.INTER.CONST>
1

>  <SCORE.INTER.POLAR>
-1.93632

>  <SCORE.INTER.ROT>
0

>  <SCORE.INTER.SOLV>
11.6671

>  <SCORE.INTER.VDW>
-18.4741

>  <SCORE.INTER.norm>
-2.61592

>  <SCORE.INTRA>
0

>  <SCORE.INTRA.DIHEDRAL>
0

>  <SCORE.INTRA.DIHEDRAL.0>
0

>  <SCORE.INTRA.POLAR>
0

>  <SCORE.INTRA.POLAR.0>
0

>  <SCORE.INTRA.REPUL>
0

>  <SCORE.INTRA.REPUL.0>
0

>  <SCORE.INTRA.SOLV>
0

>  <SCORE.INTRA.SOLV.lig_0>
-13.7928

>  <SCORE.INTRA.VDW>
0

>  <SCORE.INTRA.VDW.0>
0

>  <SCORE.INTRA.norm>
0

>  <SCORE.RESTR>
0

>  <SCORE.RESTR.CAVITY>
0

>  <SCORE.RESTR.norm>
0

>  <SCORE.SYSTEM>
0

>  <SCORE.SYSTEM.CONST>
0

>  <SCORE.SYSTEM.DIHEDRAL>
0

>  <SCORE.SYSTEM.SOLV>
0

>  <SCORE.SYSTEM.norm>
0

>  <SCORE.heavy>
10

>  <SCORE.norm>
-2.61592

>  <RMSD>
0.223

$$$$
1u8d_lig
 OpenBabel11021811413D
libRbt.so/2013.1/901 2013/11/27
 10 11  0  0  0  0  0  0  0  0999 V2000
   11.7192   10.4774    9.2725 N   0  0  0  0  0  0  0  0  0  0  0  0
   11.4875   11.8469    9.4863 C   0  0  0  0  0  0  0  0  0  0  0  0
   11.2035   12.7228    8.4889 N   0  0  0  0  0  0  0  0  0  0  0  0
   11.1653   12.1367    7.2726 C   0  0  0  0  0  0  0  0  0  0  0  0
   11.4119   10.6586    6.9757 C   0  0  0  0  0  0  0  0  0  0  0  0
   11.7038    9.7941    8.0421 C   0  0  0  0  0  0  0  0  0  0  0  0
   11.9272    8.5913    8.0356 O   0  0  0  0  0  0  0  0  0  0  0  0
   11.2789   10.5014    5.6234 N   0  0  0  0  0  0  0  0  0  0  0  0
   10.9696   11.7312    5.0955 C   0  0  0  0  0  0  0  0  0  0  0  0
   10.8944   12.7358    6.0565 N   0  0  0  0  0  0  0  0  0  0  0  0
  1  2  1  0  0  0  0
  1  6  1  0  0  0  0
  2  3  2  0  0  0  0
  3  4  1  0  0  0  0
  4  5  2  0  0  0  0
  4 10  1  0  0  0  0
  5  6  1  0  0  0  0
  5  8  1  0  0  0  0
  6  7  2  0  0  0  0
  8  9  1  0  0  0  0
  9 10  2  0  0  0  0
M  END
>  <CHROM.1>
11.38421185,11.08361839,7.44615682,0.39688183,-1.34847912,1.00037868

>  <Name>
1u8d_lig

>  <RI>
0

>  <Rbt.Current_Directory>
/home/itssahil/PROJECTS/Mol_Feturizer/New_Systems/rnas/1u8d

>  <Rbt.Executable>
rbdock ($Id: //depot/dev/client3/rdock/2013.1/src/exe/rbdock.cxx#4 $)

>  <Rbt.Library>
libRbt.so (2013.1, Build901 2013/11/27)

>  <Rbt.Parameter_File>
/export/apps/rDock/src/rDock_2013.1_src/data/scripts/dock_solv.prm

>  <Rbt.Receptor>
prm/blind_docking_80.prm

>  <SCORE>
-26.1638

>  <SCORE.INTER>
-26.1638

>  <SCORE.INTER.CONST>
1

>  <SCORE.INTER.POLAR>
-1.93632

>  <SCORE.INTER.ROT>
0

>  <SCORE.INTER.SOLV>
11.6655

>  <SCORE.INTER.VDW>
-18.4766

>  <SCORE.INTER.norm>
-2.61638

>  <SCORE.INTRA>
0

>  <SCORE.INTRA.DIHEDRAL>
0

>  <SCORE.INTRA.DIHEDRAL.0>
0

>  <SCORE.INTRA.POLAR>
0

>  <SCORE.INTRA.POLAR.0>
0

>  <SCORE.INTRA.REPUL>
0

>  <SCORE.INTRA.REPUL.0>
0

>  <SCORE.INTRA.SOLV>
0

>  <SCORE.INTRA.SOLV.lig_0>
-13.7928

>  <SCORE.INTRA.VDW>
0

>  <SCORE.INTRA.VDW.0>
0

>  <SCORE.INTRA.norm>
0

>  <SCORE.RESTR>
0

>  <SCORE.RESTR.CAVITY>
0

>  <SCORE.RESTR.norm>
0

>  <SCORE.SYSTEM>
0

>  <SCORE.SYSTEM.CONST>
0

>  <SCORE.SYSTEM.DIHEDRAL>
0

>  <SCORE.SYSTEM.SOLV>
0

>  <SCORE.SYSTEM.norm>
0

>  <SCORE.heavy>
10

>  <SCORE.norm>
-2.61638

>  <RMSD>
0.223

$$$$
1u8d_lig
 OpenBabel11021811413D
libRbt.so/2013.1/901 2013/11/27
 10 11  0  0  0  0  0  0  0  0999 V2000
   11.7203   10.4783    9.2714 N   0  0  0  0  0  0  0  0  0  0  0  0
   11.4891   11.8479    9.4854 C   0  0  0  0  0  0  0  0  0  0  0  0
   11.2053   12.7240    8.4881 N   0  0  0  0  0  0  0  0  0  0  0  0
   11.1667   12.1381    7.2717 C   0  0  0  0  0  0  0  0  0  0  0  0
   11.4128   10.6599    6.9747 C   0  0  0  0  0  0  0  0  0  0  0  0
   11.7045    9.7952    8.0409 C   0  0  0  0  0  0  0  0  0  0  0  0
   11.9275    8.5923    8.0342 O   0  0  0  0  0  0  0  0  0  0  0  0
   11.2795   10.5029    5.6223 N   0  0  0  0  0  0  0  0  0  0  0  0
   10.9705   11.7329    5.0946 C   0  0  0  0  0  0  0  0  0  0  0  0
   10.8958   12.7374    6.0557 N   0  0  0  0  0  0  0  0  0  0  0  0
  1  2  1  0  0  0  0
  1  6  1  0  0  0  0
  2  3  2  0  0  0  0
  3  4  1  0  0  0  0
  4  5  2  0  0  0  0
  4 10  1  0  0  0  0
  5  6  1  0  0  0  0
  5  8  1  0  0  0  0
  6  7  2  0  0  0  0
  8  9  1  0  0  0  0
  9 10  2  0  0  0  0
M  END
>  <CHROM.1>
11.38527538,11.08490180,7.44514746,0.39546083,-1.34869968,0.99910990

>  <Name>
1u8d_lig

>  <RI>
0

>  <Rbt.Current_Directory>
/home/itssahil/PROJECTS/Mol_Feturizer/New_Systems/rnas/1u8d

>  <Rbt.Executable>
rbdock ($Id: //depot/dev/client3/rdock/2013.1/src/exe/rbdock.cxx#4 $)

>  <Rbt.Library>
libRbt.so (2013.1, Build901 2013/11/27)

>  <Rbt.Parameter_File>
/export/apps/rDock/src/rDock_2013.1_src/data/scripts/dock_solv.prm

>  <Rbt.Receptor>
prm/pocket_docking_3.prm

>  <SCORE>
-26.1659

>  <SCORE.INTER>
-26.1659

>  <SCORE.INTER.CONST>
1

>  <SCORE.INTER.POLAR>
-1.93632

>  <SCORE.INTER.ROT>
0

>  <SCORE.INTER.SOLV>
11.665

>  <SCORE.INTER.VDW>
-18.4778

>  <SCORE.INTER.norm>
-2.61659

>  <SCORE.INTRA>
0

>  <SCORE.INTRA.DIHEDRAL>
0

>  <SCORE.INTRA.DIHEDRAL.0>
0

>  <SCORE.INTRA.POLAR>
0

>  <SCORE.INTRA.POLAR.0>
0

>  <SCORE.INTRA.REPUL>
0

>  <SCORE.INTRA.REPUL.0>
0

>  <SCORE.INTRA.SOLV>
0

>  <SCORE.INTRA.SOLV.lig_0>
-13.7928

>  <SCORE.INTRA.VDW>
0

>  <SCORE.INTRA.VDW.0>
0

>  <SCORE.INTRA.norm>
0

>  <SCORE.RESTR>
0

>  <SCORE.RESTR.CAVITY>
0

>  <SCORE.RESTR.norm>
0

>  <SCORE.SYSTEM>
0

>  <SCORE.SYSTEM.CONST>
0

>  <SCORE.SYSTEM.DIHEDRAL>
0

>  <SCORE.SYSTEM.SOLV>
0

>  <SCORE.SYSTEM.norm>
0

>  <SCORE.heavy>
10

>  <SCORE.norm>
-2.61659

>  <RMSD>
0.223

$$$$
1u8d_lig
 OpenBabel11021811413D
libRbt.so/2013.1/901 2013/11/27
 10 11  0  0  0  0  0  0  0  0999 V2000
   11.7169   10.4773    9.2711 N   0  0  0  0  0  0  0  0  0  0  0  0
   11.4844   11.8467    9.4851 C   0  0  0  0  0  0  0  0  0  0  0  0
   11.2009   12.7228    8.4878 N   0  0  0  0  0  0  0  0  0  0  0  0
   11.1640   12.1371    7.2712 C   0  0  0  0  0  0  0  0  0  0  0  0
   11.4116   10.6592    6.9741 C   0  0  0  0  0  0  0  0  0  0  0  0
   11.7029    9.7945    8.0405 C   0  0  0  0  0  0  0  0  0  0  0  0
   11.9269    8.5917    8.0338 O   0  0  0  0  0  0  0  0  0  0  0  0
   11.2798   10.5023    5.6216 N   0  0  0  0  0  0  0  0  0  0  0  0
   10.9704   11.7321    5.0938 C   0  0  0  0  0  0  0  0  0  0  0  0
   10.8939   12.7364    6.0551 N   0  0  0  0  0  0  0  0  0  0  0  0
  1  2  1  0  0  0  0
  1  6  1  0  0  0  0
  2  3  2  0  0  0  0
  3  4  1  0  0  0  0
  4  5  2  0  0  0  0
  4 10  1  0  0  0  0
  5  6  1  0  0  0  0
  5  8  1  0  0  0  0
  6  7  2  0  0  0  0
  8  9  1  0  0  0  0
  9 10  2  0  0  0  0
M  END
>  <CHROM.1>
11.38326746,11.08402654,7.44467449,0.40141357,-1.34856438,1.00511528

>  <Name>
1u8d_lig

>  <RI>
0

>  <Rbt.Current_Directory>
/home/itssahil/PROJECTS/Mol_Feturizer/New_Systems/rnas/1u8d

>  <Rbt.Executable>
rbdock ($Id: //depot/dev/client3/rdock/2013.1/src/exe/rbdock.cxx#4 $)

>  <Rbt.Library>
libRbt.so (2013.1, Build901 2013/11/27)

>  <Rbt.Parameter_File>
/export/apps/rDock/src/rDock_2013.1_src/data/scripts/dock_solv.prm

>  <Rbt.Receptor>
prm/pocket_docking_3.prm

>  <SCORE>
-26.1637

>  <SCORE.INTER>
-26.1637

>  <SCORE.INTER.CONST>
1

>  <SCORE.INTER.POLAR>
-1.93632

>  <SCORE.INTER.ROT>
0

>  <SCORE.INTER.SOLV>
11.6676

>  <SCORE.INTER.VDW>
-18.4773

>  <SCORE.INTER.norm>
-2.61637

>  <SCORE.INTRA>
0

>  <SCORE.INTRA.DIHEDRAL>
0

>  <SCORE.INTRA.DIHEDRAL.0>
0

>  <SCORE.INTRA.POLAR>
0

>  <SCORE.INTRA.POLAR.0>
0

>  <SCORE.INTRA.REPUL>
0

>  <SCORE.INTRA.REPUL.0>
0

>  <SCORE.INTRA.SOLV>
0

>  <SCORE.INTRA.SOLV.lig_0>
-13.7928

>  <SCORE.INTRA.VDW>
0

>  <SCORE.INTRA.VDW.0>
0

>  <SCORE.INTRA.norm>
0

>  <SCORE.RESTR>
0

>  <SCORE.RESTR.CAVITY>
0

>  <SCORE.RESTR.norm>
0

>  <SCORE.SYSTEM>
0

>  <SCORE.SYSTEM.CONST>
0

>  <SCORE.SYSTEM.DIHEDRAL>
0

>  <SCORE.SYSTEM.SOLV>
0

>  <SCORE.SYSTEM.norm>
0

>  <SCORE.heavy>
10

>  <SCORE.norm>
-2.61637

>  <RMSD>
0.223

$$$$
1u8d_lig
 OpenBabel11021811413D
libRbt.so/2013.1/901 2013/11/27
 10 11  0  0  0  0  0  0  0  0999 V2000
   11.7202   10.4758    9.2708 N   0  0  0  0  0  0  0  0  0  0  0  0
   11.4889   11.8455    9.4842 C   0  0  0  0  0  0  0  0  0  0  0  0
   11.2036   12.7210    8.4868 N   0  0  0  0  0  0  0  0  0  0  0  0
   11.1637   12.1343    7.2708 C   0  0  0  0  0  0  0  0  0  0  0  0
   11.4098   10.6560    6.9744 C   0  0  0  0  0  0  0  0  0  0  0  0
   11.7030    9.7920    8.0407 C   0  0  0  0  0  0  0  0  0  0  0  0
   11.9263    8.5891    8.0346 O   0  0  0  0  0  0  0  0  0  0  0  0
   11.2749   10.4981    5.6223 N   0  0  0  0  0  0  0  0  0  0  0  0
   10.9650   11.7276    5.0942 C   0  0  0  0  0  0  0  0  0  0  0  0
   10.8912   12.7328    6.0548 N   0  0  0  0  0  0  0  0  0  0  0  0
  1  2  1  0  0  0  0
  1  6  1  0  0  0  0
  2  3  2  0  0  0  0
  3  4  1  0  0  0  0
  4  5  2  0  0  0  0
  4 10  1  0  0  0  0
  5  6  1  0  0  0  0
  5  8  1  0  0  0  0
  6  7  2  0  0  0  0
  8  9  1  0  0  0  0
  9 10  2  0  0  0  0
M  END
>  <CHROM.1>
11.38274674,11.08122797,7.44462970,0.39145642,-1.34784214,0.99458387

>  <Name>
1u8d_lig

>  <RI>
0

>  <Rbt.Current_Directory>
/home/itssahil/PROJECTS/Mol_Feturizer/New_Systems/rnas/1u8d

>  <Rbt.Executable>
rbdock ($Id: //depot/dev/client3/rdock/2013.1/src/exe/rbdock.cxx#4 $)

>  <Rbt.Library>
libRbt.so (2013.1, Build901 2013/11/27)

>  <Rbt.Parameter_File>
/export/apps/rDock/src/rDock_2013.1_src/data/scripts/dock_solv.prm

>  <Rbt.Receptor>
prm/pocket_docking_4.prm

>  <SCORE>
-26.1673

>  <SCORE.INTER>
-26.1673

>  <SCORE.INTER.CONST>
1

>  <SCORE.INTER.POLAR>
-1.93632

>  <SCORE.INTER.ROT>
0

>  <SCORE.INTER.SOLV>
11.6647

>  <SCORE.INTER.VDW>
-18.4787

>  <SCORE.INTER.norm>
-2.61673

>  <SCORE.INTRA>
0

>  <SCORE.INTRA.DIHEDRAL>
0

>  <SCORE.INTRA.DIHEDRAL.0>
0

>  <SCORE.INTRA.POLAR>
0

>  <SCORE.INTRA.POLAR.0>
0

>  <SCORE.INTRA.REPUL>
0

>  <SCORE.INTRA.REPUL.0>
0

>  <SCORE.INTRA.SOLV>
0

>  <SCORE.INTRA.SOLV.lig_0>
-13.7928

>  <SCORE.INTRA.VDW>
0

>  <SCORE.INTRA.VDW.0>
0

>  <SCORE.INTRA.norm>
0

>  <SCORE.RESTR>
0

>  <SCORE.RESTR.CAVITY>
0

>  <SCORE.RESTR.norm>
0

>  <SCORE.SYSTEM>
0

>  <SCORE.SYSTEM.CONST>
0

>  <SCORE.SYSTEM.DIHEDRAL>
0

>  <SCORE.SYSTEM.SOLV>
0

>  <SCORE.SYSTEM.norm>
0

>  <SCORE.heavy>
10

>  <SCORE.norm>
-2.61673

>  <RMSD>
0.223

$$$$
1u8d_lig
 OpenBabel11021811413D
libRbt.so/2013.1/901 2013/11/27
 10 11  0  0  0  0  0  0  0  0999 V2000
   11.6818   10.4830    9.2901 N   0  0  0  0  0  0  0  0  0  0  0  0
   11.4362   11.8506    9.5003 C   0  0  0  0  0  0  0  0  0  0  0  0
   11.1631   12.7249    8.4984 N   0  0  0  0  0  0  0  0  0  0  0  0
   11.1505   12.1391    7.2814 C   0  0  0  0  0  0  0  0  0  0  0  0
   11.4131   10.6630    6.9884 C   0  0  0  0  0  0  0  0  0  0  0  0
   11.6928    9.8002    8.0593 C   0  0  0  0  0  0  0  0  0  0  0  0
   11.9252    8.5991    8.0564 O   0  0  0  0  0  0  0  0  0  0  0  0
   11.3048   10.5055    5.6338 N   0  0  0  0  0  0  0  0  0  0  0  0
   10.9957   11.7332    5.1011 C   0  0  0  0  0  0  0  0  0  0  0  0
   10.8963   12.7368    6.0610 N   0  0  0  0  0  0  0  0  0  0  0  0
  1  2  1  0  0  0  0
  1  6  1  0  0  0  0
  2  3  2  0  0  0  0
  3  4  1  0  0  0  0
  4  5  2  0  0  0  0
  4 10  1  0  0  0  0
  5  6  1  0  0  0  0
  5  8  1  0  0  0  0
  6  7  2  0  0  0  0
  8  9  1  0  0  0  0
  9 10  2  0  0  0  0
M  END
>  <CHROM.1>
11.37411451,11.08761514,7.45840470,0.48248607,-1.35087626,1.08431818

>  <Name>
1u8d_lig

>  <RI>
0

>  <Rbt.Current_Directory>
/home/itssahil/PROJECTS/Mol_Feturizer/New_Systems/rnas/1u8d

>  <Rbt.Executable>
rbdock ($Id: //depot/dev/client3/rdock/2013.1/src/exe/rbdock.cxx#4 $)

>  <Rbt.Library>
libRbt.so (2013.1, Build901 2013/11/27)

>  <Rbt.Parameter_File>
/export/apps/rDock/src/rDock_2013.1_src/data/scripts/dock_solv.prm

>  <Rbt.Receptor>
prm/pocket_docking_5.prm

>  <SCORE>
-26.0872

>  <SCORE.INTER>
-26.0872

>  <SCORE.INTER.CONST>
1

>  <SCORE.INTER.POLAR>
-1.93632

>  <SCORE.INTER.ROT>
0

>  <SCORE.INTER.SOLV>
11.6989

>  <SCORE.INTER.VDW>
-18.4367

>  <SCORE.INTER.norm>
-2.60872

>  <SCORE.INTRA>
0

>  <SCORE.INTRA.DIHEDRAL>
0

>  <SCORE.INTRA.DIHEDRAL.0>
0

>  <SCORE.INTRA.POLAR>
0

>  <SCORE.INTRA.POLAR.0>
0

>  <SCORE.INTRA.REPUL>
0

>  <SCORE.INTRA.REPUL.0>
0

>  <SCORE.INTRA.SOLV>
0

>  <SCORE.INTRA.SOLV.lig_0>
-13.7928

>  <SCORE.INTRA.VDW>
0

>  <SCORE.INTRA.VDW.0>
0

>  <SCORE.INTRA.norm>
0

>  <SCORE.RESTR>
0

>  <SCORE.RESTR.CAVITY>
0

>  <SCORE.RESTR.norm>
0

>  <SCORE.SYSTEM>
0

>  <SCORE.SYSTEM.CONST>
0

>  <SCORE.SYSTEM.DIHEDRAL>
0

>  <SCORE.SYSTEM.SOLV>
0

>  <SCORE.SYSTEM.norm>
0

>  <SCORE.heavy>
10

>  <SCORE.norm>
-2.60872

>  <RMSD>
0.223

$$$$
1u8d_lig
 OpenBabel11021811413D
libRbt.so/2013.1/901 2013/11/27
 10 11  0  0  0  0  0  0  0  0999 V2000
   11.7117   10.4782    9.2718 N   0  0  0  0  0  0  0  0  0  0  0  0
   11.4764   11.8470    9.4867 C   0  0  0  0  0  0  0  0  0  0  0  0
   11.1959   12.7240    8.4893 N   0  0  0  0  0  0  0  0  0  0  0  0
   11.1650   12.1398    7.2718 C   0  0  0  0  0  0  0  0  0  0  0  0
   11.4158   10.6627    6.9738 C   0  0  0  0  0  0  0  0  0  0  0  0
   11.7038    9.7969    8.0402 C   0  0  0  0  0  0  0  0  0  0  0  0
   11.9294    8.5945    8.0330 O   0  0  0  0  0  0  0  0  0  0  0  0
   11.2899   10.5075    5.6205 N   0  0  0  0  0  0  0  0  0  0  0  0
   10.9811   11.7375    5.0931 C   0  0  0  0  0  0  0  0  0  0  0  0
   10.8992   12.7404    6.0553 N   0  0  0  0  0  0  0  0  0  0  0  0
  1  2  1  0  0  0  0
  1  6  1  0  0  0  0
  2  3  2  0  0  0  0
  3  4  1  0  0  0  0
  4  5  2  0  0  0  0
  4 10  1  0  0  0  0
  5  6  1  0  0  0  0
  5  8  1  0  0  0  0
  6  7  2  0  0  0  0
  8  9  1  0  0  0  0
  9 10  2  0  0  0  0
M  END
>  <CHROM.1>
11.38491204,11.08686522,7.44479679,0.42098419,-1.34964579,1.02552929

>  <Name>
1u8d_lig

>  <RI>
0

>  <Rbt.Current_Directory>
/home/itssahil/PROJECTS/Mol_Feturizer/New_Systems/rnas/1u8d

>  <Rbt.Executable>
rbdock ($Id: //depot/dev/client3/rdock/2013.1/src/exe/rbdock.cxx#4 $)

>  <Rbt.Library>
libRbt.so (2013.1, Build901 2013/11/27)

>  <Rbt.Parameter_File>
/export/apps/rDock/src/rDock_2013.1_src/data/scripts/dock_solv.prm

>  <Rbt.Receptor>
prm/pocket_docking_5.prm

>  <SCORE>
-26.1541

>  <SCORE.INTER>
-26.1541

>  <SCORE.INTER.CONST>
1

>  <SCORE.INTER.POLAR>
-1.93632

>  <SCORE.INTER.ROT>
0

>  <SCORE.INTER.SOLV>
11.6718

>  <SCORE.INTER.VDW>
-18.4722

>  <SCORE.INTER.norm>
-2.61541

>  <SCORE.INTRA>
0

>  <SCORE.INTRA.DIHEDRAL>
0

>  <SCORE.INTRA.DIHEDRAL.0>
0

>  <SCORE.INTRA.POLAR>
0

>  <SCORE.INTRA.POLAR.0>
0

>  <SCORE.INTRA.REPUL>
0

>  <SCORE.INTRA.REPUL.0>
0

>  <SCORE.INTRA.SOLV>
0

>  <SCORE.INTRA.SOLV.lig_0>
-13.7928

>  <SCORE.INTRA.VDW>
0

>  <SCORE.INTRA.VDW.0>
0

>  <SCORE.INTRA.norm>
0

>  <SCORE.RESTR>
0

>  <SCORE.RESTR.CAVITY>
0

>  <SCORE.RESTR.norm>
0

>  <SCORE.SYSTEM>
0

>  <SCORE.SYSTEM.CONST>
0

>  <SCORE.SYSTEM.DIHEDRAL>
0

>  <SCORE.SYSTEM.SOLV>
0

>  <SCORE.SYSTEM.norm>
0

>  <SCORE.heavy>
10

>  <SCORE.norm>
-2.61541

>  <RMSD>
0.223

$$$$
1u8d_lig
 OpenBabel11021811413D
libRbt.so/2013.1/901 2013/11/27
 10 11  0  0  0  0  0  0  0  0999 V2000
   11.7124   10.4788    9.2731 N   0  0  0  0  0  0  0  0  0  0  0  0
   11.4767   11.8476    9.4874 C   0  0  0  0  0  0  0  0  0  0  0  0
   11.1966   12.7243    8.4895 N   0  0  0  0  0  0  0  0  0  0  0  0
   11.1664   12.1398    7.2722 C   0  0  0  0  0  0  0  0  0  0  0  0
   11.4177   10.6625    6.9748 C   0  0  0  0  0  0  0  0  0  0  0  0
   11.7052    9.7972    8.0417 C   0  0  0  0  0  0  0  0  0  0  0  0
   11.9312    8.5948    8.0349 O   0  0  0  0  0  0  0  0  0  0  0  0
   11.2926   10.5069    5.6216 N   0  0  0  0  0  0  0  0  0  0  0  0
   10.9838   11.7367    5.0936 C   0  0  0  0  0  0  0  0  0  0  0  0
   10.9012   12.7399    6.0554 N   0  0  0  0  0  0  0  0  0  0  0  0
  1  2  1  0  0  0  0
  1  6  1  0  0  0  0
  2  3  2  0  0  0  0
  3  4  1  0  0  0  0
  4  5  2  0  0  0  0
  4 10  1  0  0  0  0
  5  6  1  0  0  0  0
  5  8  1  0  0  0  0
  6  7  2  0  0  0  0
  8  9  1  0  0  0  0
  9 10  2  0  0  0  0
M  END
>  <CHROM.1>
11.38648178,11.08686468,7.44568914,0.42344175,-1.34976126,1.02761350

>  <Name>
1u8d_lig

>  <RI>
0

>  <Rbt.Current_Directory>
/home/itssahil/PROJECTS/Mol_Feturizer/New_Systems/rnas/1u8d

>  <Rbt.Executable>
rbdock ($Id: //depot/dev/client3/rdock/2013.1/src/exe/rbdock.cxx#4 $)

>  <Rbt.Library>
libRbt.so (2013.1, Build901 2013/11/27)

>  <Rbt.Parameter_File>
/export/apps/rDock/src/rDock_2013.1_src/data/scripts/dock_solv.prm

>  <Rbt.Receptor>
prm/pocket_docking_7.prm

>  <SCORE>
-26.1515

>  <SCORE.INTER>
-26.1515

>  <SCORE.INTER.CONST>
1

>  <SCORE.INTER.POLAR>
-1.93632

>  <SCORE.INTER.ROT>
0

>  <SCORE.INTER.SOLV>
11.6712

>  <SCORE.INTER.VDW>
-18.4703

>  <SCORE.INTER.norm>
-2.61515

>  <SCORE.INTRA>
0

>  <SCORE.INTRA.DIHEDRAL>
0

>  <SCORE.INTRA.DIHEDRAL.0>
0

>  <SCORE.INTRA.POLAR>
0

>  <SCORE.INTRA.POLAR.0>
0

>  <SCORE.INTRA.REPUL>
0

>  <SCORE.INTRA.REPUL.0>
0

>  <SCORE.INTRA.SOLV>
0

>  <SCORE.INTRA.SOLV.lig_0>
-13.7928

>  <SCORE.INTRA.VDW>
0

>  <SCORE.INTRA.VDW.0>
0

>  <SCORE.INTRA.norm>
0

>  <SCORE.RESTR>
0

>  <SCORE.RESTR.CAVITY>
0

>  <SCORE.RESTR.norm>
0

>  <SCORE.SYSTEM>
0

>  <SCORE.SYSTEM.CONST>
0

>  <SCORE.SYSTEM.DIHEDRAL>
0

>  <SCORE.SYSTEM.SOLV>
0

>  <SCORE.SYSTEM.norm>
0

>  <SCORE.heavy>
10

>  <SCORE.norm>
-2.61515

>  <RMSD>
0.223

$$$$
1u8d_lig
 OpenBabel11021811413D
libRbt.so/2013.1/901 2013/11/27
 10 11  0  0  0  0  0  0  0  0999 V2000
   11.7204   10.4769    9.2708 N   0  0  0  0  0  0  0  0  0  0  0  0
   11.4891   11.8464    9.4849 C   0  0  0  0  0  0  0  0  0  0  0  0
   11.2054   12.7227    8.4876 N   0  0  0  0  0  0  0  0  0  0  0  0
   11.1670   12.1368    7.2712 C   0  0  0  0  0  0  0  0  0  0  0  0
   11.4131   10.6587    6.9740 C   0  0  0  0  0  0  0  0  0  0  0  0
   11.7047    9.7939    8.0402 C   0  0  0  0  0  0  0  0  0  0  0  0
   11.9277    8.5910    8.0335 O   0  0  0  0  0  0  0  0  0  0  0  0
   11.2800   10.5018    5.6216 N   0  0  0  0  0  0  0  0  0  0  0  0
   10.9711   11.7318    5.0940 C   0  0  0  0  0  0  0  0  0  0  0  0
   10.8963   12.7363    6.0552 N   0  0  0  0  0  0  0  0  0  0  0  0
  1  2  1  0  0  0  0
  1  6  1  0  0  0  0
  2  3  2  0  0  0  0
  3  4  1  0  0  0  0
  4  5  2  0  0  0  0
  4 10  1  0  0  0  0
  5  6  1  0  0  0  0
  5  8  1  0  0  0  0
  6  7  2  0  0  0  0
  8  9  1  0  0  0  0
  9 10  2  0  0  0  0
M  END
>  <CHROM.1>
11.38555744,11.08363269,7.44455420,0.39601901,-1.34877528,0.99975080

>  <Name>
1u8d_lig

>  <RI>
0

>  <Rbt.Current_Directory>
/home/itssahil/PROJECTS/Mol_Feturizer/New_Systems/rnas/1u8d

>  <Rbt.Executable>
rbdock ($Id: //depot/dev/client3/rdock/2013.1/src/exe/rbdock.cxx#4 $)

>  <Rbt.Library>
libRbt.so (2013.1, Build901 2013/11/27)

>  <Rbt.Parameter_File>
/export/apps/rDock/src/rDock_2013.1_src/data/scripts/dock_solv.prm

>  <Rbt.Receptor>
prm/pocket_docking_7.prm

>  <SCORE>
-26.166

>  <SCORE.INTER>
-26.166

>  <SCORE.INTER.CONST>
1

>  <SCORE.INTER.POLAR>
-1.93632

>  <SCORE.INTER.ROT>
0

>  <SCORE.INTER.SOLV>
11.6649

>  <SCORE.INTER.VDW>
-18.4779

>  <SCORE.INTER.norm>
-2.6166

>  <SCORE.INTRA>
0

>  <SCORE.INTRA.DIHEDRAL>
0

>  <SCORE.INTRA.DIHEDRAL.0>
0

>  <SCORE.INTRA.POLAR>
0

>  <SCORE.INTRA.POLAR.0>
0

>  <SCORE.INTRA.REPUL>
0

>  <SCORE.INTRA.REPUL.0>
0

>  <SCORE.INTRA.SOLV>
0

>  <SCORE.INTRA.SOLV.lig_0>
-13.7928

>  <SCORE.INTRA.VDW>
0

>  <SCORE.INTRA.VDW.0>
0

>  <SCORE.INTRA.norm>
0

>  <SCORE.RESTR>
0

>  <SCORE.RESTR.CAVITY>
0

>  <SCORE.RESTR.norm>
0

>  <SCORE.SYSTEM>
0

>  <SCORE.SYSTEM.CONST>
0

>  <SCORE.SYSTEM.DIHEDRAL>
0

>  <SCORE.SYSTEM.SOLV>
0

>  <SCORE.SYSTEM.norm>
0

>  <SCORE.heavy>
10

>  <SCORE.norm>
-2.6166

>  <RMSD>
0.223

$$$$
1u8d_lig
 OpenBabel11021811413D
libRbt.so/2013.1/901 2013/11/27
 10 11  0  0  0  0  0  0  0  0999 V2000
   11.7214   10.4775    9.2717 N   0  0  0  0  0  0  0  0  0  0  0  0
   11.4901   11.8471    9.4854 C   0  0  0  0  0  0  0  0  0  0  0  0
   11.2053   12.7229    8.4880 N   0  0  0  0  0  0  0  0  0  0  0  0
   11.1660   12.1365    7.2718 C   0  0  0  0  0  0  0  0  0  0  0  0
   11.4122   10.6583    6.9751 C   0  0  0  0  0  0  0  0  0  0  0  0
   11.7048    9.7940    8.0414 C   0  0  0  0  0  0  0  0  0  0  0  0
   11.9281    8.5911    8.0350 O   0  0  0  0  0  0  0  0  0  0  0  0
   11.2780   10.5008    5.6229 N   0  0  0  0  0  0  0  0  0  0  0  0
   10.9684   11.7305    5.0950 C   0  0  0  0  0  0  0  0  0  0  0  0
   10.8942   12.7354    6.0558 N   0  0  0  0  0  0  0  0  0  0  0  0
  1  2  1  0  0  0  0
  1  6  1  0  0  0  0
  2  3  2  0  0  0  0
  3  4  1  0  0  0  0
  4  5  2  0  0  0  0
  4 10  1  0  0  0  0
  5  6  1  0  0  0  0
  5  8  1  0  0  0  0
  6  7  2  0  0  0  0
  8  9  1  0  0  0  0
  9 10  2  0  0  0  0
M  END
>  <CHROM.1>
11.38495878,11.08342945,7.44546887,0.39334725,-1.34814492,0.99670947

>  <Name>
1u8d_lig

>  <RI>
0

>  <Rbt.Current_Directory>
/home/itssahil/PROJECTS/Mol_Feturizer/New_Systems/rnas/1u8d

>  <Rbt.Executable>
rbdock ($Id: //depot/dev/client3/rdock/2013.1/src/exe/rbdock.cxx#4 $)

>  <Rbt.Library>
libRbt.so (2013.1, Build901 2013/11/27)

>  <Rbt.Parameter_File>
/export/apps/rDock/src/rDock_2013.1_src/data/scripts/dock_solv.prm

>  <Rbt.Receptor>
prm/pocket_docking_7.prm

>  <SCORE>
-26.1666

>  <SCORE.INTER>
-26.1666

>  <SCORE.INTER.CONST>
1

>  <SCORE.INTER.POLAR>
-1.93632

>  <SCORE.INTER.ROT>
0

>  <SCORE.INTER.SOLV>
11.6634

>  <SCORE.INTER.VDW>
-18.4778

>  <SCORE.INTER.norm>
-2.61666

>  <SCORE.INTRA>
0

>  <SCORE.INTRA.DIHEDRAL>
0

>  <SCORE.INTRA.DIHEDRAL.0>
0

>  <SCORE.INTRA.POLAR>
0

>  <SCORE.INTRA.POLAR.0>
0

>  <SCORE.INTRA.REPUL>
0

>  <SCORE.INTRA.REPUL.0>
0

>  <SCORE.INTRA.SOLV>
0

>  <SCORE.INTRA.SOLV.lig_0>
-13.7928

>  <SCORE.INTRA.VDW>
0

>  <SCORE.INTRA.VDW.0>
0

>  <SCORE.INTRA.norm>
0

>  <SCORE.RESTR>
0

>  <SCORE.RESTR.CAVITY>
0

>  <SCORE.RESTR.norm>
0

>  <SCORE.SYSTEM>
0

>  <SCORE.SYSTEM.CONST>
0

>  <SCORE.SYSTEM.DIHEDRAL>
0

>  <SCORE.SYSTEM.SOLV>
0

>  <SCORE.SYSTEM.norm>
0

>  <SCORE.heavy>
10

>  <SCORE.norm>
-2.61666

>  <RMSD>
0.223

$$$$
1u8d_lig
 OpenBabel11021811413D
libRbt.so/2013.1/901 2013/11/27
 10 11  0  0  0  0  0  0  0  0999 V2000
   11.7131   10.4796    9.2731 N   0  0  0  0  0  0  0  0  0  0  0  0
   11.4774   11.8483    9.4878 C   0  0  0  0  0  0  0  0  0  0  0  0
   11.1965   12.7252    8.4903 N   0  0  0  0  0  0  0  0  0  0  0  0
   11.1656   12.1408    7.2729 C   0  0  0  0  0  0  0  0  0  0  0  0
   11.4169   10.6637    6.9750 C   0  0  0  0  0  0  0  0  0  0  0  0
   11.7052    9.7982    8.0415 C   0  0  0  0  0  0  0  0  0  0  0  0
   11.9313    8.5959    8.0344 O   0  0  0  0  0  0  0  0  0  0  0  0
   11.2909   10.5083    5.6218 N   0  0  0  0  0  0  0  0  0  0  0  0
   10.9816   11.7382    5.0942 C   0  0  0  0  0  0  0  0  0  0  0  0
   10.8995   12.7412    6.0564 N   0  0  0  0  0  0  0  0  0  0  0  0
  1  2  1  0  0  0  0
  1  6  1  0  0  0  0
  2  3  2  0  0  0  0
  3  4  1  0  0  0  0
  4  5  2  0  0  0  0
  4 10  1  0  0  0  0
  5  6  1  0  0  0  0
  5  8  1  0  0  0  0
  6  7  2  0  0  0  0
  8  9  1  0  0  0  0
  9 10  2  0  0  0  0
M  END
>  <CHROM.1>
11.38590948,11.08794756,7.44598309,0.42130205,-1.34930142,1.02571725

>  <Name>
1u8d_lig

>  <RI>
0

>  <Rbt.Current_Directory>
/home/itssahil/PROJECTS/Mol_Feturizer/New_Systems/rnas/1u8d

>  <Rbt.Executable>
rbdock ($Id: //depot/dev/client3/rdock/2013.1/src/exe/rbdock.cxx#4 $)

>  <Rbt.Library>
libRbt.so (2013.1, Build901 2013/11/27)

>  <Rbt.Parameter_File>
/export/apps/rDock/src/rDock_2013.1_src/data/scripts/dock_solv.prm

>  <Rbt.Receptor>
prm/pocket_docking_8.prm

>  <SCORE>
-26.1534

>  <SCORE.INTER>
-26.1534

>  <SCORE.INTER.CONST>
1

>  <SCORE.INTER.POLAR>
-1.93632

>  <SCORE.INTER.ROT>
0

>  <SCORE.INTER.SOLV>
11.6698

>  <SCORE.INTER.VDW>
-18.4712

>  <SCORE.INTER.norm>
-2.61534

>  <SCORE.INTRA>
0

>  <SCORE.INTRA.DIHEDRAL>
0

>  <SCORE.INTRA.DIHEDRAL.0>
0

>  <SCORE.INTRA.POLAR>
0

>  <SCORE.INTRA.POLAR.0>
0

>  <SCORE.INTRA.REPUL>
0

>  <SCORE.INTRA.REPUL.0>
0

>  <SCORE.INTRA.SOLV>
0

>  <SCORE.INTRA.SOLV.lig_0>
-13.7928

>  <SCORE.INTRA.VDW>
0

>  <SCORE.INTRA.VDW.0>
0

>  <SCORE.INTRA.norm>
0

>  <SCORE.RESTR>
0

>  <SCORE.RESTR.CAVITY>
0

>  <SCORE.RESTR.norm>
0

>  <SCORE.SYSTEM>
0

>  <SCORE.SYSTEM.CONST>
0

>  <SCORE.SYSTEM.DIHEDRAL>
0

>  <SCORE.SYSTEM.SOLV>
0

>  <SCORE.SYSTEM.norm>
0

>  <SCORE.heavy>
10

>  <SCORE.norm>
-2.61534

>  <RMSD>
0.223

$$$$
1u8d_lig
 OpenBabel11021811413D
libRbt.so/2013.1/901 2013/11/27
 10 11  0  0  0  0  0  0  0  0999 V2000
   11.7173   10.4788    9.2739 N   0  0  0  0  0  0  0  0  0  0  0  0
   11.4832   11.8481    9.4867 C   0  0  0  0  0  0  0  0  0  0  0  0
   11.2027   12.7238    8.4881 N   0  0  0  0  0  0  0  0  0  0  0  0
   11.1704   12.1377    7.2716 C   0  0  0  0  0  0  0  0  0  0  0  0
   11.4198   10.6598    6.9758 C   0  0  0  0  0  0  0  0  0  0  0  0
   11.7079    9.7956    8.0434 C   0  0  0  0  0  0  0  0  0  0  0  0
   11.9326    8.5930    8.0379 O   0  0  0  0  0  0  0  0  0  0  0  0
   11.2928   10.5025    5.6229 N   0  0  0  0  0  0  0  0  0  0  0  0
   10.9846   11.7320    5.0936 C   0  0  0  0  0  0  0  0  0  0  0  0
   10.9042   12.7365    6.0543 N   0  0  0  0  0  0  0  0  0  0  0  0
  1  2  1  0  0  0  0
  1  6  1  0  0  0  0
  2  3  2  0  0  0  0
  3  4  1  0  0  0  0
  4  5  2  0  0  0  0
  4 10  1  0  0  0  0
  5  6  1  0  0  0  0
  5  8  1  0  0  0  0
  6  7  2  0  0  0  0
  8  9  1  0  0  0  0
  9 10  2  0  0  0  0
M  END
>  <CHROM.1>
11.38962185,11.08478150,7.44610945,0.41616105,-1.34995442,1.01920850

>  <Name>
1u8d_lig

>  <RI>
0

>  <Rbt.Current_Directory>
/home/itssahil/PROJECTS/Mol_Feturizer/New_Systems/rnas/1u8d

>  <Rbt.Executable>
rbdock ($Id: //depot/dev/client3/rdock/2013.1/src/exe/rbdock.cxx#4 $)

>  <Rbt.Library>
libRbt.so (2013.1, Build901 2013/11/27)

>  <Rbt.Parameter_File>
/export/apps/rDock/src/rDock_2013.1_src/data/scripts/dock_solv.prm

>  <Rbt.Receptor>
prm/pocket_docking_8.prm

>  <SCORE>
-26.1533

>  <SCORE.INTER>
-26.1533

>  <SCORE.INTER.CONST>
1

>  <SCORE.INTER.POLAR>
-1.93632

>  <SCORE.INTER.ROT>
0

>  <SCORE.INTER.SOLV>
11.6683

>  <SCORE.INTER.VDW>
-18.4706

>  <SCORE.INTER.norm>
-2.61533

>  <SCORE.INTRA>
0

>  <SCORE.INTRA.DIHEDRAL>
0

>  <SCORE.INTRA.DIHEDRAL.0>
0

>  <SCORE.INTRA.POLAR>
0

>  <SCORE.INTRA.POLAR.0>
0

>  <SCORE.INTRA.REPUL>
0

>  <SCORE.INTRA.REPUL.0>
0

>  <SCORE.INTRA.SOLV>
0

>  <SCORE.INTRA.SOLV.lig_0>
-13.7928

>  <SCORE.INTRA.VDW>
0

>  <SCORE.INTRA.VDW.0>
0

>  <SCORE.INTRA.norm>
0

>  <SCORE.RESTR>
0

>  <SCORE.RESTR.CAVITY>
0

>  <SCORE.RESTR.norm>
0

>  <SCORE.SYSTEM>
0

>  <SCORE.SYSTEM.CONST>
0

>  <SCORE.SYSTEM.DIHEDRAL>
0

>  <SCORE.SYSTEM.SOLV>
0

>  <SCORE.SYSTEM.norm>
0

>  <SCORE.heavy>
10

>  <SCORE.norm>
-2.61533

>  <RMSD>
0.223

$$$$
1u8d_lig
 OpenBabel11021811413D
libRbt.so/2013.1/901 2013/11/27
 10 11  0  0  0  0  0  0  0  0999 V2000
   11.8853   10.5584    9.0891 N   0  0  0  0  0  0  0  0  0  0  0  0
   11.6149   11.9264    9.2634 C   0  0  0  0  0  0  0  0  0  0  0  0
   11.2311   12.7483    8.2535 N   0  0  0  0  0  0  0  0  0  0  0  0
   11.1350   12.1101    7.0669 C   0  0  0  0  0  0  0  0  0  0  0  0
   11.4189   10.6307    6.8132 C   0  0  0  0  0  0  0  0  0  0  0  0
   11.8147    9.8234    7.8908 C   0  0  0  0  0  0  0  0  0  0  0  0
   12.0842    8.6303    7.9171 O   0  0  0  0  0  0  0  0  0  0  0  0
   11.2024   10.4115    5.4804 N   0  0  0  0  0  0  0  0  0  0  0  0
   10.8107   11.6057    4.9262 C   0  0  0  0  0  0  0  0  0  0  0  0
   10.7604   12.6468    5.8492 N   0  0  0  0  0  0  0  0  0  0  0  0
  1  2  1  0  0  0  0
  1  6  1  0  0  0  0
  2  3  2  0  0  0  0
  3  4  1  0  0  0  0
  4  5  2  0  0  0  0
  4 10  1  0  0  0  0
  5  6  1  0  0  0  0
  5  8  1  0  0  0  0
  6  7  2  0  0  0  0
  8  9  1  0  0  0  0
  9 10  2  0  0  0  0
M  END
>  <CHROM.1>
11.40599726,11.07400865,7.26708477,0.27586354,-1.27746542,0.84204795

>  <Name>
1u8d_lig

>  <RI>
0

>  <Rbt.Current_Directory>
/home/itssahil/PROJECTS/Mol_Feturizer/New_Systems/rnas/1u8d

>  <Rbt.Executable>
rbdock ($Id: //depot/dev/client3/rdock/2013.1/src/exe/rbdock.cxx#4 $)

>  <Rbt.Library>
libRbt.so (2013.1, Build901 2013/11/27)

>  <Rbt.Parameter_File>
/export/apps/rDock/src/rDock_2013.1_src/data/scripts/dock_solv.prm

>  <Rbt.Receptor>
prm/pocket_docking_6.prm

>  <SCORE>
-26.102

>  <SCORE.INTER>
-26.102

>  <SCORE.INTER.CONST>
1

>  <SCORE.INTER.POLAR>
-1.93632

>  <SCORE.INTER.ROT>
0

>  <SCORE.INTER.SOLV>
11.4374

>  <SCORE.INTER.VDW>
-18.3594

>  <SCORE.INTER.norm>
-2.6102

>  <SCORE.INTRA>
0

>  <SCORE.INTRA.DIHEDRAL>
0

>  <SCORE.INTRA.DIHEDRAL.0>
0

>  <SCORE.INTRA.POLAR>
0

>  <SCORE.INTRA.POLAR.0>
0

>  <SCORE.INTRA.REPUL>
0

>  <SCORE.INTRA.REPUL.0>
0

>  <SCORE.INTRA.SOLV>
0

>  <SCORE.INTRA.SOLV.lig_0>
-13.7928

>  <SCORE.INTRA.VDW>
0

>  <SCORE.INTRA.VDW.0>
0

>  <SCORE.INTRA.norm>
0

>  <SCORE.RESTR>
0

>  <SCORE.RESTR.CAVITY>
0

>  <SCORE.RESTR.norm>
0

>  <SCORE.SYSTEM>
0

>  <SCORE.SYSTEM.CONST>
0

>  <SCORE.SYSTEM.DIHEDRAL>
0

>  <SCORE.SYSTEM.SOLV>
0

>  <SCORE.SYSTEM.norm>
0

>  <SCORE.heavy>
10

>  <SCORE.norm>
-2.6102

>  <RMSD>
0.224

$$$$
1u8d_lig
 OpenBabel11021811413D
libRbt.so/2013.1/901 2013/11/27
 10 11  0  0  0  0  0  0  0  0999 V2000
   11.7917   10.5766    9.1862 N   0  0  0  0  0  0  0  0  0  0  0  0
   11.5894   11.9541    9.3777 C   0  0  0  0  0  0  0  0  0  0  0  0
   11.2868   12.8133    8.3713 N   0  0  0  0  0  0  0  0  0  0  0  0
   11.1988   12.2023    7.1699 C   0  0  0  0  0  0  0  0  0  0  0  0
   11.4114   10.7143    6.8974 C   0  0  0  0  0  0  0  0  0  0  0  0
   11.7243    9.8677    7.9721 C   0  0  0  0  0  0  0  0  0  0  0  0
   11.9279    8.6614    7.9845 O   0  0  0  0  0  0  0  0  0  0  0  0
   11.2310   10.5307    5.5538 N   0  0  0  0  0  0  0  0  0  0  0  0
   10.9244   11.7541    5.0098 C   0  0  0  0  0  0  0  0  0  0  0  0
   10.8974   12.7800    5.9506 N   0  0  0  0  0  0  0  0  0  0  0  0
  1  2  1  0  0  0  0
  1  6  1  0  0  0  0
  2  3  2  0  0  0  0
  3  4  1  0  0  0  0
  4  5  2  0  0  0  0
  4 10  1  0  0  0  0
  5  6  1  0  0  0  0
  5  8  1  0  0  0  0
  6  7  2  0  0  0  0
  8  9  1  0  0  0  0
  9 10  2  0  0  0  0
M  END
>  <CHROM.1>
11.40617262,11.14958304,7.35910237,0.23489630,-1.34134871,0.82101018

>  <Name>
1u8d_lig

>  <RI>
0

>  <Rbt.Current_Directory>
/home/itssahil/PROJECTS/Mol_Feturizer/New_Systems/rnas/1u8d

>  <Rbt.Executable>
rbdock ($Id: //depot/dev/client3/rdock/2013.1/src/exe/rbdock.cxx#4 $)

>  <Rbt.Library>
libRbt.so (2013.1, Build901 2013/11/27)

>  <Rbt.Parameter_File>
/export/apps/rDock/src/rDock_2013.1_src/data/scripts/dock_solv.prm

>  <Rbt.Receptor>
prm/pocket_docking_8.prm

>  <SCORE>
-26.1088

>  <SCORE.INTER>
-26.1088

>  <SCORE.INTER.CONST>
1

>  <SCORE.INTER.POLAR>
-1.93632

>  <SCORE.INTER.ROT>
0

>  <SCORE.INTER.SOLV>
11.639

>  <SCORE.INTER.VDW>
-18.4311

>  <SCORE.INTER.norm>
-2.61088

>  <SCORE.INTRA>
0

>  <SCORE.INTRA.DIHEDRAL>
0

>  <SCORE.INTRA.DIHEDRAL.0>
0

>  <SCORE.INTRA.POLAR>
0

>  <SCORE.INTRA.POLAR.0>
0

>  <SCORE.INTRA.REPUL>
0

>  <SCORE.INTRA.REPUL.0>
0

>  <SCORE.INTRA.SOLV>
0

>  <SCORE.INTRA.SOLV.lig_0>
-13.7928

>  <SCORE.INTRA.VDW>
0

>  <SCORE.INTRA.VDW.0>
0

>  <SCORE.INTRA.norm>
0

>  <SCORE.RESTR>
0

>  <SCORE.RESTR.CAVITY>
0

>  <SCORE.RESTR.norm>
0

>  <SCORE.SYSTEM>
0

>  <SCORE.SYSTEM.CONST>
0

>  <SCORE.SYSTEM.DIHEDRAL>
0

>  <SCORE.SYSTEM.SOLV>
0

>  <SCORE.SYSTEM.norm>
0

>  <SCORE.heavy>
10

>  <SCORE.norm>
-2.61088

>  <RMSD>
0.224

$$$$
1u8d_lig
 OpenBabel11021811413D
libRbt.so/2013.1/901 2013/11/27
 10 11  0  0  0  0  0  0  0  0999 V2000
   11.8872   10.5547    9.0984 N   0  0  0  0  0  0  0  0  0  0  0  0
   11.6205   11.9244    9.2648 C   0  0  0  0  0  0  0  0  0  0  0  0
   11.2466   12.7432    8.2488 N   0  0  0  0  0  0  0  0  0  0  0  0
   11.1564   12.1002    7.0644 C   0  0  0  0  0  0  0  0  0  0  0  0
   11.4368   10.6187    6.8190 C   0  0  0  0  0  0  0  0  0  0  0  0
   11.8223    9.8147    7.9028 C   0  0  0  0  0  0  0  0  0  0  0  0
   12.0872    8.6208    7.9362 O   0  0  0  0  0  0  0  0  0  0  0  0
   11.2287   10.3945    5.4857 N   0  0  0  0  0  0  0  0  0  0  0  0
   10.8451   11.5876    4.9236 C   0  0  0  0  0  0  0  0  0  0  0  0
   10.7922   12.6329    5.8418 N   0  0  0  0  0  0  0  0  0  0  0  0
  1  2  1  0  0  0  0
  1  6  1  0  0  0  0
  2  3  2  0  0  0  0
  3  4  1  0  0  0  0
  4  5  2  0  0  0  0
  4 10  1  0  0  0  0
  5  6  1  0  0  0  0
  5  8  1  0  0  0  0
  6  7  2  0  0  0  0
  8  9  1  0  0  0  0
  9 10  2  0  0  0  0
M  END
>  <CHROM.1>
11.42232097,11.06403977,7.27088033,0.28566305,-1.28471942,0.84707381

>  <Name>
1u8d_lig

>  <RI>
0

>  <Rbt.Current_Directory>
/home/itssahil/PROJECTS/Mol_Feturizer/New_Systems/rnas/1u8d

>  <Rbt.Executable>
rbdock ($Id: //depot/dev/client3/rdock/2013.1/src/exe/rbdock.cxx#4 $)

>  <Rbt.Library>
libRbt.so (2013.1, Build901 2013/11/27)

>  <Rbt.Parameter_File>
/export/apps/rDock/src/rDock_2013.1_src/data/scripts/dock_solv.prm

>  <Rbt.Receptor>
prm/blind_docking_40.prm

>  <SCORE>
-26.1173

>  <SCORE.INTER>
-26.1173

>  <SCORE.INTER.CONST>
1

>  <SCORE.INTER.POLAR>
-1.93632

>  <SCORE.INTER.ROT>
0

>  <SCORE.INTER.SOLV>
11.452

>  <SCORE.INTER.VDW>
-18.3745

>  <SCORE.INTER.norm>
-2.61173

>  <SCORE.INTRA>
0

>  <SCORE.INTRA.DIHEDRAL>
0

>  <SCORE.INTRA.DIHEDRAL.0>
0

>  <SCORE.INTRA.POLAR>
0

>  <SCORE.INTRA.POLAR.0>
0

>  <SCORE.INTRA.REPUL>
0

>  <SCORE.INTRA.REPUL.0>
0

>  <SCORE.INTRA.SOLV>
0

>  <SCORE.INTRA.SOLV.lig_0>
-13.7928

>  <SCORE.INTRA.VDW>
0

>  <SCORE.INTRA.VDW.0>
0

>  <SCORE.INTRA.norm>
0

>  <SCORE.RESTR>
0

>  <SCORE.RESTR.CAVITY>
0

>  <SCORE.RESTR.norm>
0

>  <SCORE.SYSTEM>
0

>  <SCORE.SYSTEM.CONST>
0

>  <SCORE.SYSTEM.DIHEDRAL>
0

>  <SCORE.SYSTEM.SOLV>
0

>  <SCORE.SYSTEM.norm>
0

>  <SCORE.heavy>
10

>  <SCORE.norm>
-2.61173

>  <RMSD>
0.225

$$$$
1u8d_lig
 OpenBabel11021811413D
libRbt.so/2013.1/901 2013/11/27
 10 11  0  0  0  0  0  0  0  0999 V2000
   11.8109   10.5768    9.1539 N   0  0  0  0  0  0  0  0  0  0  0  0
   11.5939   11.9509    9.3535 C   0  0  0  0  0  0  0  0  0  0  0  0
   11.2750   12.8116    8.3534 N   0  0  0  0  0  0  0  0  0  0  0  0
   11.1865   12.2055    7.1495 C   0  0  0  0  0  0  0  0  0  0  0  0
   11.4146   10.7214    6.8682 C   0  0  0  0  0  0  0  0  0  0  0  0
   11.7441    9.8733    7.9367 C   0  0  0  0  0  0  0  0  0  0  0  0
   11.9617    8.6694    7.9418 O   0  0  0  0  0  0  0  0  0  0  0  0
   11.2279   10.5424    5.5249 N   0  0  0  0  0  0  0  0  0  0  0  0
   10.9037   11.7648    4.9889 C   0  0  0  0  0  0  0  0  0  0  0  0
   10.8708   12.7857    5.9350 N   0  0  0  0  0  0  0  0  0  0  0  0
  1  2  1  0  0  0  0
  1  6  1  0  0  0  0
  2  3  2  0  0  0  0
  3  4  1  0  0  0  0
  4  5  2  0  0  0  0
  4 10  1  0  0  0  0
  5  6  1  0  0  0  0
  5  8  1  0  0  0  0
  6  7  2  0  0  0  0
  8  9  1  0  0  0  0
  9 10  2  0  0  0  0
M  END
>  <CHROM.1>
11.40729864,11.15432516,7.33213564,0.24859522,-1.32855431,0.83929133

>  <Name>
1u8d_lig

>  <RI>
0

>  <Rbt.Current_Directory>
/home/itssahil/PROJECTS/Mol_Feturizer/New_Systems/rnas/1u8d

>  <Rbt.Executable>
rbdock ($Id: //depot/dev/client3/rdock/2013.1/src/exe/rbdock.cxx#4 $)

>  <Rbt.Library>
libRbt.so (2013.1, Build901 2013/11/27)

>  <Rbt.Parameter_File>
/export/apps/rDock/src/rDock_2013.1_src/data/scripts/dock_solv.prm

>  <Rbt.Receptor>
prm/pocket_docking_4.prm

>  <SCORE>
-26.0786

>  <SCORE.INTER>
-26.0786

>  <SCORE.INTER.CONST>
1

>  <SCORE.INTER.POLAR>
-1.93632

>  <SCORE.INTER.ROT>
0

>  <SCORE.INTER.SOLV>
11.5855

>  <SCORE.INTER.VDW>
-18.3932

>  <SCORE.INTER.norm>
-2.60786

>  <SCORE.INTRA>
0

>  <SCORE.INTRA.DIHEDRAL>
0

>  <SCORE.INTRA.DIHEDRAL.0>
0

>  <SCORE.INTRA.POLAR>
0

>  <SCORE.INTRA.POLAR.0>
0

>  <SCORE.INTRA.REPUL>
0

>  <SCORE.INTRA.REPUL.0>
0

>  <SCORE.INTRA.SOLV>
0

>  <SCORE.INTRA.SOLV.lig_0>
-13.7928

>  <SCORE.INTRA.VDW>
0

>  <SCORE.INTRA.VDW.0>
0

>  <SCORE.INTRA.norm>
0

>  <SCORE.RESTR>
0

>  <SCORE.RESTR.CAVITY>
0

>  <SCORE.RESTR.norm>
0

>  <SCORE.SYSTEM>
0

>  <SCORE.SYSTEM.CONST>
0

>  <SCORE.SYSTEM.DIHEDRAL>
0

>  <SCORE.SYSTEM.SOLV>
0

>  <SCORE.SYSTEM.norm>
0

>  <SCORE.heavy>
10

>  <SCORE.norm>
-2.60786

>  <RMSD>
0.225

$$$$
1u8d_lig
 OpenBabel11021811413D
libRbt.so/2013.1/901 2013/11/27
 10 11  0  0  0  0  0  0  0  0999 V2000
   11.7013   10.4697    9.2782 N   0  0  0  0  0  0  0  0  0  0  0  0
   11.4613   11.8377    9.4926 C   0  0  0  0  0  0  0  0  0  0  0  0
   11.1837   12.7145    8.4941 N   0  0  0  0  0  0  0  0  0  0  0  0
   11.1608   12.1310    7.2762 C   0  0  0  0  0  0  0  0  0  0  0  0
   11.4170   10.6546    6.9788 C   0  0  0  0  0  0  0  0  0  0  0  0
   11.7016    9.7890    8.0462 C   0  0  0  0  0  0  0  0  0  0  0  0
   11.9305    8.5872    8.0395 O   0  0  0  0  0  0  0  0  0  0  0  0
   11.2987   10.4998    5.6248 N   0  0  0  0  0  0  0  0  0  0  0  0
   10.9894   11.7293    5.0963 C   0  0  0  0  0  0  0  0  0  0  0  0
   10.8998   12.7315    6.0587 N   0  0  0  0  0  0  0  0  0  0  0  0
  1  2  1  0  0  0  0
  1  6  1  0  0  0  0
  2  3  2  0  0  0  0
  3  4  1  0  0  0  0
  4  5  2  0  0  0  0
  4 10  1  0  0  0  0
  5  6  1  0  0  0  0
  5  8  1  0  0  0  0
  6  7  2  0  0  0  0
  8  9  1  0  0  0  0
  9 10  2  0  0  0  0
M  END
>  <CHROM.1>
11.38254351,11.07846056,7.44982104,0.44774159,-1.35006744,1.05216667

>  <Name>
1u8d_lig

>  <RI>
0

>  <Rbt.Current_Directory>
/home/itssahil/PROJECTS/Mol_Feturizer/New_Systems/rnas/1u8d

>  <Rbt.Executable>
rbdock ($Id: //depot/dev/client3/rdock/2013.1/src/exe/rbdock.cxx#4 $)

>  <Rbt.Library>
libRbt.so (2013.1, Build901 2013/11/27)

>  <Rbt.Parameter_File>
/export/apps/rDock/src/rDock_2013.1_src/data/scripts/dock_solv.prm

>  <Rbt.Receptor>
prm/pocket_docking_6.prm

>  <SCORE>
-26.1274

>  <SCORE.INTER>
-26.1274

>  <SCORE.INTER.CONST>
1

>  <SCORE.INTER.POLAR>
-1.93632

>  <SCORE.INTER.ROT>
0

>  <SCORE.INTER.SOLV>
11.6795

>  <SCORE.INTER.VDW>
-18.457

>  <SCORE.INTER.norm>
-2.61274

>  <SCORE.INTRA>
0

>  <SCORE.INTRA.DIHEDRAL>
0

>  <SCORE.INTRA.DIHEDRAL.0>
0

>  <SCORE.INTRA.POLAR>
0

>  <SCORE.INTRA.POLAR.0>
0

>  <SCORE.INTRA.REPUL>
0

>  <SCORE.INTRA.REPUL.0>
0

>  <SCORE.INTRA.SOLV>
0

>  <SCORE.INTRA.SOLV.lig_0>
-13.7928

>  <SCORE.INTRA.VDW>
0

>  <SCORE.INTRA.VDW.0>
0

>  <SCORE.INTRA.norm>
0

>  <SCORE.RESTR>
0

>  <SCORE.RESTR.CAVITY>
0

>  <SCORE.RESTR.norm>
0

>  <SCORE.SYSTEM>
0

>  <SCORE.SYSTEM.CONST>
0

>  <SCORE.SYSTEM.DIHEDRAL>
0

>  <SCORE.SYSTEM.SOLV>
0

>  <SCORE.SYSTEM.norm>
0

>  <SCORE.heavy>
10

>  <SCORE.norm>
-2.61274

>  <RMSD>
0.225

$$$$
1u8d_lig
 OpenBabel11021811413D
libRbt.so/2013.1/901 2013/11/27
 10 11  0  0  0  0  0  0  0  0999 V2000
   11.7119   10.4763    9.2735 N   0  0  0  0  0  0  0  0  0  0  0  0
   11.4776   11.8451    9.4886 C   0  0  0  0  0  0  0  0  0  0  0  0
   11.1993   12.7229    8.4912 N   0  0  0  0  0  0  0  0  0  0  0  0
   11.1695   12.1392    7.2734 C   0  0  0  0  0  0  0  0  0  0  0  0
   11.4193   10.6619    6.9752 C   0  0  0  0  0  0  0  0  0  0  0  0
   11.7049    9.7955    8.0416 C   0  0  0  0  0  0  0  0  0  0  0  0
   11.9295    8.5929    8.0342 O   0  0  0  0  0  0  0  0  0  0  0  0
   11.2951   10.5074    5.6217 N   0  0  0  0  0  0  0  0  0  0  0  0
   10.9881   11.7379    5.0943 C   0  0  0  0  0  0  0  0  0  0  0  0
   10.9059   12.7406    6.0568 N   0  0  0  0  0  0  0  0  0  0  0  0
  1  2  1  0  0  0  0
  1  6  1  0  0  0  0
  2  3  2  0  0  0  0
  3  4  1  0  0  0  0
  4  5  2  0  0  0  0
  4 10  1  0  0  0  0
  5  6  1  0  0  0  0
  5  8  1  0  0  0  0
  6  7  2  0  0  0  0
  8  9  1  0  0  0  0
  9 10  2  0  0  0  0
M  END
>  <CHROM.1>
11.38815137,11.08594955,7.44628493,0.42392641,-1.35117396,1.02879777

>  <Name>
1u8d_lig

>  <RI>
0

>  <Rbt.Current_Directory>
/home/itssahil/PROJECTS/Mol_Feturizer/New_Systems/rnas/1u8d

>  <Rbt.Executable>
rbdock ($Id: //depot/dev/client3/rdock/2013.1/src/exe/rbdock.cxx#4 $)

>  <Rbt.Library>
libRbt.so (2013.1, Build901 2013/11/27)

>  <Rbt.Parameter_File>
/export/apps/rDock/src/rDock_2013.1_src/data/scripts/dock_solv.prm

>  <Rbt.Receptor>
prm/blind_docking_100.prm

>  <SCORE>
-26.1474

>  <SCORE.INTER>
-26.1474

>  <SCORE.INTER.CONST>
1

>  <SCORE.INTER.POLAR>
-1.93632

>  <SCORE.INTER.ROT>
0

>  <SCORE.INTER.SOLV>
11.6726

>  <SCORE.INTER.VDW>
-18.4681

>  <SCORE.INTER.norm>
-2.61474

>  <SCORE.INTRA>
0

>  <SCORE.INTRA.DIHEDRAL>
0

>  <SCORE.INTRA.DIHEDRAL.0>
0

>  <SCORE.INTRA.POLAR>
0

>  <SCORE.INTRA.POLAR.0>
0

>  <SCORE.INTRA.REPUL>
0

>  <SCORE.INTRA.REPUL.0>
0

>  <SCORE.INTRA.SOLV>
0

>  <SCORE.INTRA.SOLV.lig_0>
-13.7928

>  <SCORE.INTRA.VDW>
0

>  <SCORE.INTRA.VDW.0>
0

>  <SCORE.INTRA.norm>
0

>  <SCORE.RESTR>
0

>  <SCORE.RESTR.CAVITY>
0

>  <SCORE.RESTR.norm>
0

>  <SCORE.SYSTEM>
0

>  <SCORE.SYSTEM.CONST>
0

>  <SCORE.SYSTEM.DIHEDRAL>
0

>  <SCORE.SYSTEM.SOLV>
0

>  <SCORE.SYSTEM.norm>
0

>  <SCORE.heavy>
10

>  <SCORE.norm>
-2.61474

>  <RMSD>
0.226

$$$$
1u8d_lig
 OpenBabel11021811413D
libRbt.so/2013.1/901 2013/11/27
 10 11  0  0  0  0  0  0  0  0999 V2000
   11.7289   10.5171    9.0943 N   0  0  0  0  0  0  0  0  0  0  0  0
   11.3766   11.8650    9.2787 C   0  0  0  0  0  0  0  0  0  0  0  0
   11.0012   12.6862    8.2651 N   0  0  0  0  0  0  0  0  0  0  0  0
   11.0004   12.0685    7.0639 C   0  0  0  0  0  0  0  0  0  0  0  0
   11.3762   10.6116    6.7988 C   0  0  0  0  0  0  0  0  0  0  0  0
   11.7593    9.8043    7.8810 C   0  0  0  0  0  0  0  0  0  0  0  0
   12.0909    8.6268    7.8999 O   0  0  0  0  0  0  0  0  0  0  0  0
   11.2402   10.4089    5.4528 N   0  0  0  0  0  0  0  0  0  0  0  0
   10.8136   11.5919    4.9004 C   0  0  0  0  0  0  0  0  0  0  0  0
   10.6602   12.6097    5.8381 N   0  0  0  0  0  0  0  0  0  0  0  0
  1  2  1  0  0  0  0
  1  6  1  0  0  0  0
  2  3  2  0  0  0  0
  3  4  1  0  0  0  0
  4  5  2  0  0  0  0
  4 10  1  0  0  0  0
  5  6  1  0  0  0  0
  5  8  1  0  0  0  0
  6  7  2  0  0  0  0
  8  9  1  0  0  0  0
  9 10  2  0  0  0  0
M  END
>  <CHROM.1>
11.31622937,11.04418288,7.25928900,0.52223822,-1.26256937,1.09678048

>  <Name>
1u8d_lig

>  <RI>
0

>  <Rbt.Current_Directory>
/home/itssahil/PROJECTS/Mol_Feturizer/New_Systems/rnas/1u8d

>  <Rbt.Executable>
rbdock ($Id: //depot/dev/client3/rdock/2013.1/src/exe/rbdock.cxx#4 $)

>  <Rbt.Library>
libRbt.so (2013.1, Build901 2013/11/27)

>  <Rbt.Parameter_File>
/export/apps/rDock/src/rDock_2013.1_src/data/scripts/dock_solv.prm

>  <Rbt.Receptor>
prm/blind_docking_20.prm

>  <SCORE>
-25.8126

>  <SCORE.INTER>
-25.8126

>  <SCORE.INTER.CONST>
1

>  <SCORE.INTER.POLAR>
-1.93632

>  <SCORE.INTER.ROT>
0

>  <SCORE.INTER.SOLV>
11.5489

>  <SCORE.INTER.VDW>
-18.2036

>  <SCORE.INTER.norm>
-2.58126

>  <SCORE.INTRA>
0

>  <SCORE.INTRA.DIHEDRAL>
0

>  <SCORE.INTRA.DIHEDRAL.0>
0

>  <SCORE.INTRA.POLAR>
0

>  <SCORE.INTRA.POLAR.0>
0

>  <SCORE.INTRA.REPUL>
0

>  <SCORE.INTRA.REPUL.0>
0

>  <SCORE.INTRA.SOLV>
0

>  <SCORE.INTRA.SOLV.lig_0>
-13.7928

>  <SCORE.INTRA.VDW>
0

>  <SCORE.INTRA.VDW.0>
0

>  <SCORE.INTRA.norm>
0

>  <SCORE.RESTR>
0

>  <SCORE.RESTR.CAVITY>
0

>  <SCORE.RESTR.norm>
0

>  <SCORE.SYSTEM>
0

>  <SCORE.SYSTEM.CONST>
0

>  <SCORE.SYSTEM.DIHEDRAL>
0

>  <SCORE.SYSTEM.SOLV>
0

>  <SCORE.SYSTEM.norm>
0

>  <SCORE.heavy>
10

>  <SCORE.norm>
-2.58126

>  <RMSD>
0.226

$$$$
1u8d_lig
 OpenBabel11021811413D
libRbt.so/2013.1/901 2013/11/27
 10 11  0  0  0  0  0  0  0  0999 V2000
   11.7308   10.5174    9.0924 N   0  0  0  0  0  0  0  0  0  0  0  0
   11.3737   11.8643    9.2754 C   0  0  0  0  0  0  0  0  0  0  0  0
   11.0040   12.6854    8.2596 N   0  0  0  0  0  0  0  0  0  0  0  0
   11.0140   12.0688    7.0579 C   0  0  0  0  0  0  0  0  0  0  0  0
   11.3956   10.6132    6.7944 C   0  0  0  0  0  0  0  0  0  0  0  0
   11.7725    9.8058    7.8788 C   0  0  0  0  0  0  0  0  0  0  0  0
   12.1069    8.6292    7.8992 O   0  0  0  0  0  0  0  0  0  0  0  0
   11.2705   10.4114    5.4472 N   0  0  0  0  0  0  0  0  0  0  0  0
   10.8451   11.5938    4.8926 C   0  0  0  0  0  0  0  0  0  0  0  0
   10.6819   12.6102    5.8300 N   0  0  0  0  0  0  0  0  0  0  0  0
  1  2  1  0  0  0  0
  1  6  1  0  0  0  0
  2  3  2  0  0  0  0
  3  4  1  0  0  0  0
  4  5  2  0  0  0  0
  4 10  1  0  0  0  0
  5  6  1  0  0  0  0
  5  8  1  0  0  0  0
  6  7  2  0  0  0  0
  8  9  1  0  0  0  0
  9 10  2  0  0  0  0
M  END
>  <CHROM.1>
11.33096835,11.04514446,7.25480099,0.54881152,-1.26366756,1.12301593

>  <Name>
1u8d_lig

>  <RI>
0

>  <Rbt.Current_Directory>
/home/itssahil/PROJECTS/Mol_Feturizer/New_Systems/rnas/1u8d

>  <Rbt.Executable>
rbdock ($Id: //depot/dev/client3/rdock/2013.1/src/exe/rbdock.cxx#4 $)

>  <Rbt.Library>
libRbt.so (2013.1, Build901 2013/11/27)

>  <Rbt.Parameter_File>
/export/apps/rDock/src/rDock_2013.1_src/data/scripts/dock_solv.prm

>  <Rbt.Receptor>
prm/blind_docking_20.prm

>  <SCORE>
-25.823

>  <SCORE.INTER>
-25.823

>  <SCORE.INTER.CONST>
1

>  <SCORE.INTER.POLAR>
-1.93632

>  <SCORE.INTER.ROT>
0

>  <SCORE.INTER.SOLV>
11.5497

>  <SCORE.INTER.VDW>
-18.2108

>  <SCORE.INTER.norm>
-2.5823

>  <SCORE.INTRA>
0

>  <SCORE.INTRA.DIHEDRAL>
0

>  <SCORE.INTRA.DIHEDRAL.0>
0

>  <SCORE.INTRA.POLAR>
0

>  <SCORE.INTRA.POLAR.0>
0

>  <SCORE.INTRA.REPUL>
0

>  <SCORE.INTRA.REPUL.0>
0

>  <SCORE.INTRA.SOLV>
0

>  <SCORE.INTRA.SOLV.lig_0>
-13.7928

>  <SCORE.INTRA.VDW>
0

>  <SCORE.INTRA.VDW.0>
0

>  <SCORE.INTRA.norm>
0

>  <SCORE.RESTR>
0

>  <SCORE.RESTR.CAVITY>
0

>  <SCORE.RESTR.norm>
0

>  <SCORE.SYSTEM>
0

>  <SCORE.SYSTEM.CONST>
0

>  <SCORE.SYSTEM.DIHEDRAL>
0

>  <SCORE.SYSTEM.SOLV>
0

>  <SCORE.SYSTEM.norm>
0

>  <SCORE.heavy>
10

>  <SCORE.norm>
-2.5823

>  <RMSD>
0.226

$$$$
1u8d_lig
 OpenBabel11021811413D
libRbt.so/2013.1/901 2013/11/27
 10 11  0  0  0  0  0  0  0  0999 V2000
   11.7361   10.5202    9.0906 N   0  0  0  0  0  0  0  0  0  0  0  0
   11.3780   11.8669    9.2721 C   0  0  0  0  0  0  0  0  0  0  0  0
   11.0051   12.6860    8.2558 N   0  0  0  0  0  0  0  0  0  0  0  0
   11.0129   12.0674    7.0551 C   0  0  0  0  0  0  0  0  0  0  0  0
   11.3954   10.6117    6.7932 C   0  0  0  0  0  0  0  0  0  0  0  0
   11.7757    9.8066    7.8780 C   0  0  0  0  0  0  0  0  0  0  0  0
   12.1114    8.6304    7.8997 O   0  0  0  0  0  0  0  0  0  0  0  0
   11.2674   10.4075    5.4467 N   0  0  0  0  0  0  0  0  0  0  0  0
   10.8395   11.5885    4.8911 C   0  0  0  0  0  0  0  0  0  0  0  0
   10.6773   12.6064    5.8271 N   0  0  0  0  0  0  0  0  0  0  0  0
  1  2  1  0  0  0  0
  1  6  1  0  0  0  0
  2  3  2  0  0  0  0
  3  4  1  0  0  0  0
  4  5  2  0  0  0  0
  4 10  1  0  0  0  0
  5  6  1  0  0  0  0
  5  8  1  0  0  0  0
  6  7  2  0  0  0  0
  8  9  1  0  0  0  0
  9 10  2  0  0  0  0
M  END
>  <CHROM.1>
11.33141773,11.04439683,7.25305066,0.54338814,-1.26170735,1.11616913

>  <Name>
1u8d_lig

>  <RI>
0

>  <Rbt.Current_Directory>
/home/itssahil/PROJECTS/Mol_Feturizer/New_Systems/rnas/1u8d

>  <Rbt.Executable>
rbdock ($Id: //depot/dev/client3/rdock/2013.1/src/exe/rbdock.cxx#4 $)

>  <Rbt.Library>
libRbt.so (2013.1, Build901 2013/11/27)

>  <Rbt.Parameter_File>
/export/apps/rDock/src/rDock_2013.1_src/data/scripts/dock_solv.prm

>  <Rbt.Receptor>
prm/blind_docking_20.prm

>  <SCORE>
-25.8195

>  <SCORE.INTER>
-25.8195

>  <SCORE.INTER.CONST>
1

>  <SCORE.INTER.POLAR>
-1.93632

>  <SCORE.INTER.ROT>
0

>  <SCORE.INTER.SOLV>
11.5414

>  <SCORE.INTER.VDW>
-18.2058

>  <SCORE.INTER.norm>
-2.58195

>  <SCORE.INTRA>
0

>  <SCORE.INTRA.DIHEDRAL>
0

>  <SCORE.INTRA.DIHEDRAL.0>
0

>  <SCORE.INTRA.POLAR>
0

>  <SCORE.INTRA.POLAR.0>
0

>  <SCORE.INTRA.REPUL>
0

>  <SCORE.INTRA.REPUL.0>
0

>  <SCORE.INTRA.SOLV>
0

>  <SCORE.INTRA.SOLV.lig_0>
-13.7928

>  <SCORE.INTRA.VDW>
0

>  <SCORE.INTRA.VDW.0>
0

>  <SCORE.INTRA.norm>
0

>  <SCORE.RESTR>
0

>  <SCORE.RESTR.CAVITY>
0

>  <SCORE.RESTR.norm>
0

>  <SCORE.SYSTEM>
0

>  <SCORE.SYSTEM.CONST>
0

>  <SCORE.SYSTEM.DIHEDRAL>
0

>  <SCORE.SYSTEM.SOLV>
0

>  <SCORE.SYSTEM.norm>
0

>  <SCORE.heavy>
10

>  <SCORE.norm>
-2.58195

>  <RMSD>
0.226

$$$$
1u8d_lig
 OpenBabel11021811413D
libRbt.so/2013.1/901 2013/11/27
 10 11  0  0  0  0  0  0  0  0999 V2000
   11.7232   10.5122    9.0974 N   0  0  0  0  0  0  0  0  0  0  0  0
   11.3631   11.8585    9.2785 C   0  0  0  0  0  0  0  0  0  0  0  0
   11.0058   12.6814    8.2597 N   0  0  0  0  0  0  0  0  0  0  0  0
   11.0313   12.0672    7.0570 C   0  0  0  0  0  0  0  0  0  0  0  0
   11.4170   10.6124    6.7955 C   0  0  0  0  0  0  0  0  0  0  0  0
   11.7806    9.8030    7.8829 C   0  0  0  0  0  0  0  0  0  0  0  0
   12.1154    8.6266    7.9053 O   0  0  0  0  0  0  0  0  0  0  0  0
   11.3090   10.4131    5.4465 N   0  0  0  0  0  0  0  0  0  0  0  0
   10.8901   11.5964    4.8888 C   0  0  0  0  0  0  0  0  0  0  0  0
   10.7145   12.6109    5.8261 N   0  0  0  0  0  0  0  0  0  0  0  0
  1  2  1  0  0  0  0
  1  6  1  0  0  0  0
  2  3  2  0  0  0  0
  3  4  1  0  0  0  0
  4  5  2  0  0  0  0
  4 10  1  0  0  0  0
  5  6  1  0  0  0  0
  5  8  1  0  0  0  0
  6  7  2  0  0  0  0
  8  9  1  0  0  0  0
  9 10  2  0  0  0  0
M  END
>  <CHROM.1>
11.34633455,11.04336644,7.25590677,0.58789662,-1.26844713,1.16228420

>  <Name>
1u8d_lig

>  <RI>
0

>  <Rbt.Current_Directory>
/home/itssahil/PROJECTS/Mol_Feturizer/New_Systems/rnas/1u8d

>  <Rbt.Executable>
rbdock ($Id: //depot/dev/client3/rdock/2013.1/src/exe/rbdock.cxx#4 $)

>  <Rbt.Library>
libRbt.so (2013.1, Build901 2013/11/27)

>  <Rbt.Parameter_File>
/export/apps/rDock/src/rDock_2013.1_src/data/scripts/dock_solv.prm

>  <Rbt.Receptor>
prm/blind_docking_20.prm

>  <SCORE>
-25.7834

>  <SCORE.INTER>
-25.7834

>  <SCORE.INTER.CONST>
1

>  <SCORE.INTER.POLAR>
-1.93624

>  <SCORE.INTER.ROT>
0

>  <SCORE.INTER.SOLV>
11.5666

>  <SCORE.INTER.VDW>
-18.1904

>  <SCORE.INTER.norm>
-2.57834

>  <SCORE.INTRA>
0

>  <SCORE.INTRA.DIHEDRAL>
0

>  <SCORE.INTRA.DIHEDRAL.0>
0

>  <SCORE.INTRA.POLAR>
0

>  <SCORE.INTRA.POLAR.0>
0

>  <SCORE.INTRA.REPUL>
0

>  <SCORE.INTRA.REPUL.0>
0

>  <SCORE.INTRA.SOLV>
0

>  <SCORE.INTRA.SOLV.lig_0>
-13.7928

>  <SCORE.INTRA.VDW>
0

>  <SCORE.INTRA.VDW.0>
0

>  <SCORE.INTRA.norm>
0

>  <SCORE.RESTR>
0

>  <SCORE.RESTR.CAVITY>
0

>  <SCORE.RESTR.norm>
0

>  <SCORE.SYSTEM>
0

>  <SCORE.SYSTEM.CONST>
0

>  <SCORE.SYSTEM.DIHEDRAL>
0

>  <SCORE.SYSTEM.SOLV>
0

>  <SCORE.SYSTEM.norm>
0

>  <SCORE.heavy>
10

>  <SCORE.norm>
-2.57834

>  <RMSD>
0.226

$$$$
1u8d_lig
 OpenBabel11021811413D
libRbt.so/2013.1/901 2013/11/27
 10 11  0  0  0  0  0  0  0  0999 V2000
   11.7189   10.5053    9.1020 N   0  0  0  0  0  0  0  0  0  0  0  0
   11.3691   11.8544    9.2823 C   0  0  0  0  0  0  0  0  0  0  0  0
   11.0074   12.6765    8.2644 N   0  0  0  0  0  0  0  0  0  0  0  0
   11.0176   12.0585    7.0634 C   0  0  0  0  0  0  0  0  0  0  0  0
   11.3915   10.6004    6.8028 C   0  0  0  0  0  0  0  0  0  0  0  0
   11.7602    9.7921    7.8892 C   0  0  0  0  0  0  0  0  0  0  0  0
   12.0878    8.6136    7.9120 O   0  0  0  0  0  0  0  0  0  0  0  0
   11.2695   10.3979    5.4554 N   0  0  0  0  0  0  0  0  0  0  0  0
   10.8528   11.5821    4.8982 C   0  0  0  0  0  0  0  0  0  0  0  0
   10.6925   12.6006    5.8339 N   0  0  0  0  0  0  0  0  0  0  0  0
  1  2  1  0  0  0  0
  1  6  1  0  0  0  0
  2  3  2  0  0  0  0
  3  4  1  0  0  0  0
  4  5  2  0  0  0  0
  4 10  1  0  0  0  0
  5  6  1  0  0  0  0
  5  8  1  0  0  0  0
  6  7  2  0  0  0  0
  8  9  1  0  0  0  0
  9 10  2  0  0  0  0
M  END
>  <CHROM.1>
11.32794633,11.03329264,7.26248229,0.54990349,-1.27029502,1.12296077

>  <Name>
1u8d_lig

>  <RI>
0

>  <Rbt.Current_Directory>
/home/itssahil/PROJECTS/Mol_Feturizer/New_Systems/rnas/1u8d

>  <Rbt.Executable>
rbdock ($Id: //depot/dev/client3/rdock/2013.1/src/exe/rbdock.cxx#4 $)

>  <Rbt.Library>
libRbt.so (2013.1, Build901 2013/11/27)

>  <Rbt.Parameter_File>
/export/apps/rDock/src/rDock_2013.1_src/data/scripts/dock_solv.prm

>  <Rbt.Receptor>
prm/blind_docking_20.prm

>  <SCORE>
-25.799

>  <SCORE.INTER>
-25.799

>  <SCORE.INTER.CONST>
1

>  <SCORE.INTER.POLAR>
-1.93632

>  <SCORE.INTER.ROT>
0

>  <SCORE.INTER.SOLV>
11.573

>  <SCORE.INTER.VDW>
-18.2026

>  <SCORE.INTER.norm>
-2.5799

>  <SCORE.INTRA>
0

>  <SCORE.INTRA.DIHEDRAL>
0

>  <SCORE.INTRA.DIHEDRAL.0>
0

>  <SCORE.INTRA.POLAR>
0

>  <SCORE.INTRA.POLAR.0>
0

>  <SCORE.INTRA.REPUL>
0

>  <SCORE.INTRA.REPUL.0>
0

>  <SCORE.INTRA.SOLV>
0

>  <SCORE.INTRA.SOLV.lig_0>
-13.7928

>  <SCORE.INTRA.VDW>
0

>  <SCORE.INTRA.VDW.0>
0

>  <SCORE.INTRA.norm>
0

>  <SCORE.RESTR>
0

>  <SCORE.RESTR.CAVITY>
0

>  <SCORE.RESTR.norm>
0

>  <SCORE.SYSTEM>
0

>  <SCORE.SYSTEM.CONST>
0

>  <SCORE.SYSTEM.DIHEDRAL>
0

>  <SCORE.SYSTEM.SOLV>
0

>  <SCORE.SYSTEM.norm>
0

>  <SCORE.heavy>
10

>  <SCORE.norm>
-2.5799

>  <RMSD>
0.228

$$$$
1u8d_lig
 OpenBabel11021811413D
libRbt.so/2013.1/901 2013/11/27
 10 11  0  0  0  0  0  0  0  0999 V2000
   11.7288   10.5168    9.0910 N   0  0  0  0  0  0  0  0  0  0  0  0
   11.3715   11.8639    9.2724 C   0  0  0  0  0  0  0  0  0  0  0  0
   11.0061   12.6851    8.2552 N   0  0  0  0  0  0  0  0  0  0  0  0
   11.0205   12.0684    7.0535 C   0  0  0  0  0  0  0  0  0  0  0  0
   11.4025   10.6127    6.7916 C   0  0  0  0  0  0  0  0  0  0  0  0
   11.7748    9.8052    7.8775 C   0  0  0  0  0  0  0  0  0  0  0  0
   12.1087    8.6284    7.8993 O   0  0  0  0  0  0  0  0  0  0  0  0
   11.2825   10.4108    5.4440 N   0  0  0  0  0  0  0  0  0  0  0  0
   10.8599   11.5934    4.8877 C   0  0  0  0  0  0  0  0  0  0  0  0
   10.6934   12.6100    5.8243 N   0  0  0  0  0  0  0  0  0  0  0  0
  1  2  1  0  0  0  0
  1  6  1  0  0  0  0
  2  3  2  0  0  0  0
  3  4  1  0  0  0  0
  4  5  2  0  0  0  0
  4 10  1  0  0  0  0
  5  6  1  0  0  0  0
  5  8  1  0  0  0  0
  6  7  2  0  0  0  0
  8  9  1  0  0  0  0
  9 10  2  0  0  0  0
M  END
>  <CHROM.1>
11.33627759,11.04467259,7.25175294,0.55985172,-1.26574200,1.13349448

>  <Name>
1u8d_lig

>  <RI>
0

>  <Rbt.Current_Directory>
/home/itssahil/PROJECTS/Mol_Feturizer/New_Systems/rnas/1u8d

>  <Rbt.Executable>
rbdock ($Id: //depot/dev/client3/rdock/2013.1/src/exe/rbdock.cxx#4 $)

>  <Rbt.Library>
libRbt.so (2013.1, Build901 2013/11/27)

>  <Rbt.Parameter_File>
/export/apps/rDock/src/rDock_2013.1_src/data/scripts/dock_solv.prm

>  <Rbt.Receptor>
prm/blind_docking_20.prm

>  <SCORE>
-25.8155

>  <SCORE.INTER>
-25.8155

>  <SCORE.INTER.CONST>
1

>  <SCORE.INTER.POLAR>
-1.93632

>  <SCORE.INTER.ROT>
0

>  <SCORE.INTER.SOLV>
11.5556

>  <SCORE.INTER.VDW>
-18.2078

>  <SCORE.INTER.norm>
-2.58155

>  <SCORE.INTRA>
0

>  <SCORE.INTRA.DIHEDRAL>
0

>  <SCORE.INTRA.DIHEDRAL.0>
0

>  <SCORE.INTRA.POLAR>
0

>  <SCORE.INTRA.POLAR.0>
0

>  <SCORE.INTRA.REPUL>
0

>  <SCORE.INTRA.REPUL.0>
0

>  <SCORE.INTRA.SOLV>
0

>  <SCORE.INTRA.SOLV.lig_0>
-13.7928

>  <SCORE.INTRA.VDW>
0

>  <SCORE.INTRA.VDW.0>
0

>  <SCORE.INTRA.norm>
0

>  <SCORE.RESTR>
0

>  <SCORE.RESTR.CAVITY>
0

>  <SCORE.RESTR.norm>
0

>  <SCORE.SYSTEM>
0

>  <SCORE.SYSTEM.CONST>
0

>  <SCORE.SYSTEM.DIHEDRAL>
0

>  <SCORE.SYSTEM.SOLV>
0

>  <SCORE.SYSTEM.norm>
0

>  <SCORE.heavy>
10

>  <SCORE.norm>
-2.58155

>  <RMSD>
0.228

$$$$
1u8d_lig
 OpenBabel11021811413D
libRbt.so/2013.1/901 2013/11/27
 10 11  0  0  0  0  0  0  0  0999 V2000
   11.7352   10.5175    9.0898 N   0  0  0  0  0  0  0  0  0  0  0  0
   11.3788   11.8647    9.2716 C   0  0  0  0  0  0  0  0  0  0  0  0
   11.0062   12.6843    8.2556 N   0  0  0  0  0  0  0  0  0  0  0  0
   11.0125   12.0657    7.0549 C   0  0  0  0  0  0  0  0  0  0  0  0
   11.3930   10.6097    6.7926 C   0  0  0  0  0  0  0  0  0  0  0  0
   11.7730    9.8040    7.8771 C   0  0  0  0  0  0  0  0  0  0  0  0
   12.1073    8.6273    7.8985 O   0  0  0  0  0  0  0  0  0  0  0  0
   11.2638   10.4057    5.4461 N   0  0  0  0  0  0  0  0  0  0  0  0
   10.8370   11.5873    4.8909 C   0  0  0  0  0  0  0  0  0  0  0  0
   10.6768   12.6053    5.8271 N   0  0  0  0  0  0  0  0  0  0  0  0
  1  2  1  0  0  0  0
  1  6  1  0  0  0  0
  2  3  2  0  0  0  0
  3  4  1  0  0  0  0
  4  5  2  0  0  0  0
  4 10  1  0  0  0  0
  5  6  1  0  0  0  0
  5  8  1  0  0  0  0
  6  7  2  0  0  0  0
  8  9  1  0  0  0  0
  9 10  2  0  0  0  0
M  END
>  <CHROM.1>
11.32986186,11.04236905,7.25250410,0.53959684,-1.26253268,1.11262309

>  <Name>
1u8d_lig

>  <RI>
0

>  <Rbt.Current_Directory>
/home/itssahil/PROJECTS/Mol_Feturizer/New_Systems/rnas/1u8d

>  <Rbt.Executable>
rbdock ($Id: //depot/dev/client3/rdock/2013.1/src/exe/rbdock.cxx#4 $)

>  <Rbt.Library>
libRbt.so (2013.1, Build901 2013/11/27)

>  <Rbt.Parameter_File>
/export/apps/rDock/src/rDock_2013.1_src/data/scripts/dock_solv.prm

>  <Rbt.Receptor>
prm/blind_docking_20.prm

>  <SCORE>
-25.8231

>  <SCORE.INTER>
-25.8231

>  <SCORE.INTER.CONST>
1

>  <SCORE.INTER.POLAR>
-1.93632

>  <SCORE.INTER.ROT>
0

>  <SCORE.INTER.SOLV>
11.5432

>  <SCORE.INTER.VDW>
-18.2088

>  <SCORE.INTER.norm>
-2.58231

>  <SCORE.INTRA>
0

>  <SCORE.INTRA.DIHEDRAL>
0

>  <SCORE.INTRA.DIHEDRAL.0>
0

>  <SCORE.INTRA.POLAR>
0

>  <SCORE.INTRA.POLAR.0>
0

>  <SCORE.INTRA.REPUL>
0

>  <SCORE.INTRA.REPUL.0>
0

>  <SCORE.INTRA.SOLV>
0

>  <SCORE.INTRA.SOLV.lig_0>
-13.7928

>  <SCORE.INTRA.VDW>
0

>  <SCORE.INTRA.VDW.0>
0

>  <SCORE.INTRA.norm>
0

>  <SCORE.RESTR>
0

>  <SCORE.RESTR.CAVITY>
0

>  <SCORE.RESTR.norm>
0

>  <SCORE.SYSTEM>
0

>  <SCORE.SYSTEM.CONST>
0

>  <SCORE.SYSTEM.DIHEDRAL>
0

>  <SCORE.SYSTEM.SOLV>
0

>  <SCORE.SYSTEM.norm>
0

>  <SCORE.heavy>
10

>  <SCORE.norm>
-2.58231

>  <RMSD>
0.228

$$$$
1u8d_lig
 OpenBabel11021811413D
libRbt.so/2013.1/901 2013/11/27
 10 11  0  0  0  0  0  0  0  0999 V2000
   11.8039   10.5751    9.1542 N   0  0  0  0  0  0  0  0  0  0  0  0
   11.5907   11.9499    9.3534 C   0  0  0  0  0  0  0  0  0  0  0  0
   11.2758   12.8114    8.3527 N   0  0  0  0  0  0  0  0  0  0  0  0
   11.1871   12.2054    7.1488 C   0  0  0  0  0  0  0  0  0  0  0  0
   11.4111   10.7206    6.8679 C   0  0  0  0  0  0  0  0  0  0  0  0
   11.7366    9.8716    7.9370 C   0  0  0  0  0  0  0  0  0  0  0  0
   11.9506    8.6671    7.9425 O   0  0  0  0  0  0  0  0  0  0  0  0
   11.2257   10.5420    5.5244 N   0  0  0  0  0  0  0  0  0  0  0  0
   10.9059   11.7653    4.9878 C   0  0  0  0  0  0  0  0  0  0  0  0
   10.8748   12.7864    5.9338 N   0  0  0  0  0  0  0  0  0  0  0  0
  1  2  1  0  0  0  0
  1  6  1  0  0  0  0
  2  3  2  0  0  0  0
  3  4  1  0  0  0  0
  4  5  2  0  0  0  0
  4 10  1  0  0  0  0
  5  6  1  0  0  0  0
  5  8  1  0  0  0  0
  6  7  2  0  0  0  0
  8  9  1  0  0  0  0
  9 10  2  0  0  0  0
M  END
>  <CHROM.1>
11.40445664,11.15362514,7.33181339,0.24437584,-1.33169313,0.83509303

>  <Name>
1u8d_lig

>  <RI>
0

>  <Rbt.Current_Directory>
/home/itssahil/PROJECTS/Mol_Feturizer/New_Systems/rnas/1u8d

>  <Rbt.Executable>
rbdock ($Id: //depot/dev/client3/rdock/2013.1/src/exe/rbdock.cxx#4 $)

>  <Rbt.Library>
libRbt.so (2013.1, Build901 2013/11/27)

>  <Rbt.Parameter_File>
/export/apps/rDock/src/rDock_2013.1_src/data/scripts/dock_solv.prm

>  <Rbt.Receptor>
prm/blind_docking_60.prm

>  <SCORE>
-26.079

>  <SCORE.INTER>
-26.079

>  <SCORE.INTER.CONST>
1

>  <SCORE.INTER.POLAR>
-1.93632

>  <SCORE.INTER.ROT>
0

>  <SCORE.INTER.SOLV>
11.5982

>  <SCORE.INTER.VDW>
-18.3977

>  <SCORE.INTER.norm>
-2.6079

>  <SCORE.INTRA>
0

>  <SCORE.INTRA.DIHEDRAL>
0

>  <SCORE.INTRA.DIHEDRAL.0>
0

>  <SCORE.INTRA.POLAR>
0

>  <SCORE.INTRA.POLAR.0>
0

>  <SCORE.INTRA.REPUL>
0

>  <SCORE.INTRA.REPUL.0>
0

>  <SCORE.INTRA.SOLV>
0

>  <SCORE.INTRA.SOLV.lig_0>
-13.7928

>  <SCORE.INTRA.VDW>
0

>  <SCORE.INTRA.VDW.0>
0

>  <SCORE.INTRA.norm>
0

>  <SCORE.RESTR>
0

>  <SCORE.RESTR.CAVITY>
0

>  <SCORE.RESTR.norm>
0

>  <SCORE.SYSTEM>
0

>  <SCORE.SYSTEM.CONST>
0

>  <SCORE.SYSTEM.DIHEDRAL>
0

>  <SCORE.SYSTEM.SOLV>
0

>  <SCORE.SYSTEM.norm>
0

>  <SCORE.heavy>
10

>  <SCORE.norm>
-2.6079

>  <RMSD>
0.228

$$$$
1u8d_lig
 OpenBabel11021811413D
libRbt.so/2013.1/901 2013/11/27
 10 11  0  0  0  0  0  0  0  0999 V2000
   11.8624   10.5547    9.1003 N   0  0  0  0  0  0  0  0  0  0  0  0
   11.6091   11.9271    9.2651 C   0  0  0  0  0  0  0  0  0  0  0  0
   11.2402   12.7477    8.2486 N   0  0  0  0  0  0  0  0  0  0  0  0
   11.1408   12.1036    7.0655 C   0  0  0  0  0  0  0  0  0  0  0  0
   11.4066   10.6191    6.8220 C   0  0  0  0  0  0  0  0  0  0  0  0
   11.7873    9.8133    7.9062 C   0  0  0  0  0  0  0  0  0  0  0  0
   12.0411    8.6170    7.9409 O   0  0  0  0  0  0  0  0  0  0  0  0
   11.1929   10.3946    5.4896 N   0  0  0  0  0  0  0  0  0  0  0  0
   10.8192   11.5903    4.9265 C   0  0  0  0  0  0  0  0  0  0  0  0
   10.7785   12.6377    5.8430 N   0  0  0  0  0  0  0  0  0  0  0  0
  1  2  1  0  0  0  0
  1  6  1  0  0  0  0
  2  3  2  0  0  0  0
  3  4  1  0  0  0  0
  4  5  2  0  0  0  0
  4 10  1  0  0  0  0
  5  6  1  0  0  0  0
  5  8  1  0  0  0  0
  6  7  2  0  0  0  0
  8  9  1  0  0  0  0
  9 10  2  0  0  0  0
M  END
>  <CHROM.1>
11.39752738,11.06529473,7.27315821,0.25601391,-1.28993912,0.81690275

>  <Name>
1u8d_lig

>  <RI>
0

>  <Rbt.Current_Directory>
/home/itssahil/PROJECTS/Mol_Feturizer/New_Systems/rnas/1u8d

>  <Rbt.Executable>
rbdock ($Id: //depot/dev/client3/rdock/2013.1/src/exe/rbdock.cxx#4 $)

>  <Rbt.Library>
libRbt.so (2013.1, Build901 2013/11/27)

>  <Rbt.Parameter_File>
/export/apps/rDock/src/rDock_2013.1_src/data/scripts/dock_solv.prm

>  <Rbt.Receptor>
prm/blind_docking_60.prm

>  <SCORE>
-26.0878

>  <SCORE.INTER>
-26.0878

>  <SCORE.INTER.CONST>
1

>  <SCORE.INTER.POLAR>
-1.93632

>  <SCORE.INTER.ROT>
0

>  <SCORE.INTER.SOLV>
11.4814

>  <SCORE.INTER.VDW>
-18.3646

>  <SCORE.INTER.norm>
-2.60878

>  <SCORE.INTRA>
0

>  <SCORE.INTRA.DIHEDRAL>
0

>  <SCORE.INTRA.DIHEDRAL.0>
0

>  <SCORE.INTRA.POLAR>
0

>  <SCORE.INTRA.POLAR.0>
0

>  <SCORE.INTRA.REPUL>
0

>  <SCORE.INTRA.REPUL.0>
0

>  <SCORE.INTRA.SOLV>
0

>  <SCORE.INTRA.SOLV.lig_0>
-13.7928

>  <SCORE.INTRA.VDW>
0

>  <SCORE.INTRA.VDW.0>
0

>  <SCORE.INTRA.norm>
0

>  <SCORE.RESTR>
0

>  <SCORE.RESTR.CAVITY>
0

>  <SCORE.RESTR.norm>
0

>  <SCORE.SYSTEM>
0

>  <SCORE.SYSTEM.CONST>
0

>  <SCORE.SYSTEM.DIHEDRAL>
0

>  <SCORE.SYSTEM.SOLV>
0

>  <SCORE.SYSTEM.norm>
0

>  <SCORE.heavy>
10

>  <SCORE.norm>
-2.60878

>  <RMSD>
0.228

$$$$
1u8d_lig
 OpenBabel11021811413D
libRbt.so/2013.1/901 2013/11/27
 10 11  0  0  0  0  0  0  0  0999 V2000
   11.8806   10.5326    9.0885 N   0  0  0  0  0  0  0  0  0  0  0  0
   11.5973   11.8972    9.2689 C   0  0  0  0  0  0  0  0  0  0  0  0
   11.2229   12.7240    8.2595 N   0  0  0  0  0  0  0  0  0  0  0  0
   11.1498   12.0943    7.0668 C   0  0  0  0  0  0  0  0  0  0  0  0
   11.4488   10.6190    6.8063 C   0  0  0  0  0  0  0  0  0  0  0  0
   11.8340    9.8064    7.8837 C   0  0  0  0  0  0  0  0  0  0  0  0
   12.1119    8.6152    7.9052 O   0  0  0  0  0  0  0  0  0  0  0  0
   11.2544   10.4085    5.4686 N   0  0  0  0  0  0  0  0  0  0  0  0
   10.8624   11.6040    4.9175 C   0  0  0  0  0  0  0  0  0  0  0  0
   10.7901   12.6376    5.8475 N   0  0  0  0  0  0  0  0  0  0  0  0
  1  2  1  0  0  0  0
  1  6  1  0  0  0  0
  2  3  2  0  0  0  0
  3  4  1  0  0  0  0
  4  5  2  0  0  0  0
  4 10  1  0  0  0  0
  5  6  1  0  0  0  0
  5  8  1  0  0  0  0
  6  7  2  0  0  0  0
  8  9  1  0  0  0  0
  9 10  2  0  0  0  0
M  END
>  <CHROM.1>
11.42552790,11.05871930,7.26326021,0.33372821,-1.28167966,0.90511136

>  <Name>
1u8d_lig

>  <RI>
0

>  <Rbt.Current_Directory>
/home/itssahil/PROJECTS/Mol_Feturizer/New_Systems/rnas/1u8d

>  <Rbt.Executable>
rbdock ($Id: //depot/dev/client3/rdock/2013.1/src/exe/rbdock.cxx#4 $)

>  <Rbt.Library>
libRbt.so (2013.1, Build901 2013/11/27)

>  <Rbt.Parameter_File>
/export/apps/rDock/src/rDock_2013.1_src/data/scripts/dock_solv.prm

>  <Rbt.Receptor>
prm/blind_docking_60.prm

>  <SCORE>
-26.0415

>  <SCORE.INTER>
-26.0415

>  <SCORE.INTER.CONST>
1

>  <SCORE.INTER.POLAR>
-1.93632

>  <SCORE.INTER.ROT>
0

>  <SCORE.INTER.SOLV>
11.4416

>  <SCORE.INTER.VDW>
-18.3205

>  <SCORE.INTER.norm>
-2.60415

>  <SCORE.INTRA>
0

>  <SCORE.INTRA.DIHEDRAL>
0

>  <SCORE.INTRA.DIHEDRAL.0>
0

>  <SCORE.INTRA.POLAR>
0

>  <SCORE.INTRA.POLAR.0>
0

>  <SCORE.INTRA.REPUL>
0

>  <SCORE.INTRA.REPUL.0>
0

>  <SCORE.INTRA.SOLV>
0

>  <SCORE.INTRA.SOLV.lig_0>
-13.7928

>  <SCORE.INTRA.VDW>
0

>  <SCORE.INTRA.VDW.0>
0

>  <SCORE.INTRA.norm>
0

>  <SCORE.RESTR>
0

>  <SCORE.RESTR.CAVITY>
0

>  <SCORE.RESTR.norm>
0

>  <SCORE.SYSTEM>
0

>  <SCORE.SYSTEM.CONST>
0

>  <SCORE.SYSTEM.DIHEDRAL>
0

>  <SCORE.SYSTEM.SOLV>
0

>  <SCORE.SYSTEM.norm>
0

>  <SCORE.heavy>
10

>  <SCORE.norm>
-2.60415

>  <RMSD>
0.228

$$$$
1u8d_lig
 OpenBabel11021811413D
libRbt.so/2013.1/901 2013/11/27
 10 11  0  0  0  0  0  0  0  0999 V2000
   11.7349   10.5181    9.0890 N   0  0  0  0  0  0  0  0  0  0  0  0
   11.3801   11.8657    9.2705 C   0  0  0  0  0  0  0  0  0  0  0  0
   11.0058   12.6847    8.2547 N   0  0  0  0  0  0  0  0  0  0  0  0
   11.0087   12.0652    7.0544 C   0  0  0  0  0  0  0  0  0  0  0  0
   11.3874   10.6085    6.7925 C   0  0  0  0  0  0  0  0  0  0  0  0
   11.7693    9.8035    7.8768 C   0  0  0  0  0  0  0  0  0  0  0  0
   12.1026    8.6266    7.8984 O   0  0  0  0  0  0  0  0  0  0  0  0
   11.2548   10.4035    5.4465 N   0  0  0  0  0  0  0  0  0  0  0  0
   10.8277   11.5850    4.8913 C   0  0  0  0  0  0  0  0  0  0  0  0
   10.6706   12.6040    5.8270 N   0  0  0  0  0  0  0  0  0  0  0  0
  1  2  1  0  0  0  0
  1  6  1  0  0  0  0
  2  3  2  0  0  0  0
  3  4  1  0  0  0  0
  4  5  2  0  0  0  0
  4 10  1  0  0  0  0
  5  6  1  0  0  0  0
  5  8  1  0  0  0  0
  6  7  2  0  0  0  0
  8  9  1  0  0  0  0
  9 10  2  0  0  0  0
M  END
>  <CHROM.1>
11.32569294,11.04170904,7.25219590,0.53141953,-1.26222182,1.10398514

>  <Name>
1u8d_lig

>  <RI>
0

>  <Rbt.Current_Directory>
/home/itssahil/PROJECTS/Mol_Feturizer/New_Systems/rnas/1u8d

>  <Rbt.Executable>
rbdock ($Id: //depot/dev/client3/rdock/2013.1/src/exe/rbdock.cxx#4 $)

>  <Rbt.Library>
libRbt.so (2013.1, Build901 2013/11/27)

>  <Rbt.Parameter_File>
/export/apps/rDock/src/rDock_2013.1_src/data/scripts/dock_solv.prm

>  <Rbt.Receptor>
prm/blind_docking_20.prm

>  <SCORE>
-25.823

>  <SCORE.INTER>
-25.823

>  <SCORE.INTER.CONST>
1

>  <SCORE.INTER.POLAR>
-1.93632

>  <SCORE.INTER.ROT>
0

>  <SCORE.INTER.SOLV>
11.5428

>  <SCORE.INTER.VDW>
-18.2085

>  <SCORE.INTER.norm>
-2.5823

>  <SCORE.INTRA>
0

>  <SCORE.INTRA.DIHEDRAL>
0

>  <SCORE.INTRA.DIHEDRAL.0>
0

>  <SCORE.INTRA.POLAR>
0

>  <SCORE.INTRA.POLAR.0>
0

>  <SCORE.INTRA.REPUL>
0

>  <SCORE.INTRA.REPUL.0>
0

>  <SCORE.INTRA.SOLV>
0

>  <SCORE.INTRA.SOLV.lig_0>
-13.7928

>  <SCORE.INTRA.VDW>
0

>  <SCORE.INTRA.VDW.0>
0

>  <SCORE.INTRA.norm>
0

>  <SCORE.RESTR>
0

>  <SCORE.RESTR.CAVITY>
0

>  <SCORE.RESTR.norm>
0

>  <SCORE.SYSTEM>
0

>  <SCORE.SYSTEM.CONST>
0

>  <SCORE.SYSTEM.DIHEDRAL>
0

>  <SCORE.SYSTEM.SOLV>
0

>  <SCORE.SYSTEM.norm>
0

>  <SCORE.heavy>
10

>  <SCORE.norm>
-2.5823

>  <RMSD>
0.229

$$$$
1u8d_lig
 OpenBabel11021811413D
libRbt.so/2013.1/901 2013/11/27
 10 11  0  0  0  0  0  0  0  0999 V2000
   11.7300   10.5154    9.0907 N   0  0  0  0  0  0  0  0  0  0  0  0
   11.3736   11.8627    9.2716 C   0  0  0  0  0  0  0  0  0  0  0  0
   11.0078   12.6835    8.2541 N   0  0  0  0  0  0  0  0  0  0  0  0
   11.0209   12.0660    7.0528 C   0  0  0  0  0  0  0  0  0  0  0  0
   11.4019   10.6098    6.7916 C   0  0  0  0  0  0  0  0  0  0  0  0
   11.7747    9.8029    7.8777 C   0  0  0  0  0  0  0  0  0  0  0  0
   12.1079    8.6260    7.9001 O   0  0  0  0  0  0  0  0  0  0  0  0
   11.2808   10.4071    5.4442 N   0  0  0  0  0  0  0  0  0  0  0  0
   10.8583   11.5895    4.8874 C   0  0  0  0  0  0  0  0  0  0  0  0
   10.6931   12.6068    5.8235 N   0  0  0  0  0  0  0  0  0  0  0  0
  1  2  1  0  0  0  0
  1  6  1  0  0  0  0
  2  3  2  0  0  0  0
  3  4  1  0  0  0  0
  4  5  2  0  0  0  0
  4 10  1  0  0  0  0
  5  6  1  0  0  0  0
  5  8  1  0  0  0  0
  6  7  2  0  0  0  0
  8  9  1  0  0  0  0
  9 10  2  0  0  0  0
M  END
>  <CHROM.1>
11.33631060,11.04217165,7.25148351,0.55667366,-1.26587126,1.12978174

>  <Name>
1u8d_lig

>  <RI>
0

>  <Rbt.Current_Directory>
/home/itssahil/PROJECTS/Mol_Feturizer/New_Systems/rnas/1u8d

>  <Rbt.Executable>
rbdock ($Id: //depot/dev/client3/rdock/2013.1/src/exe/rbdock.cxx#4 $)

>  <Rbt.Library>
libRbt.so (2013.1, Build901 2013/11/27)

>  <Rbt.Parameter_File>
/export/apps/rDock/src/rDock_2013.1_src/data/scripts/dock_solv.prm

>  <Rbt.Receptor>
prm/blind_docking_20.prm

>  <SCORE>
-25.8149

>  <SCORE.INTER>
-25.8151

>  <SCORE.INTER.CONST>
1

>  <SCORE.INTER.POLAR>
-1.93632

>  <SCORE.INTER.ROT>
0

>  <SCORE.INTER.SOLV>
11.5545

>  <SCORE.INTER.VDW>
-18.2072

>  <SCORE.INTER.norm>
-2.58151

>  <SCORE.INTRA>
0

>  <SCORE.INTRA.DIHEDRAL>
0

>  <SCORE.INTRA.DIHEDRAL.0>
0

>  <SCORE.INTRA.POLAR>
0

>  <SCORE.INTRA.POLAR.0>
0

>  <SCORE.INTRA.REPUL>
0

>  <SCORE.INTRA.REPUL.0>
0

>  <SCORE.INTRA.SOLV>
0

>  <SCORE.INTRA.SOLV.lig_0>
-13.7928

>  <SCORE.INTRA.VDW>
0

>  <SCORE.INTRA.VDW.0>
0

>  <SCORE.INTRA.norm>
0

>  <SCORE.RESTR>
0.000184537

>  <SCORE.RESTR.CAVITY>
0.000184537

>  <SCORE.RESTR.norm>
1.84537e-05

>  <SCORE.SYSTEM>
0

>  <SCORE.SYSTEM.CONST>
0

>  <SCORE.SYSTEM.DIHEDRAL>
0

>  <SCORE.SYSTEM.SOLV>
0

>  <SCORE.SYSTEM.norm>
0

>  <SCORE.heavy>
10

>  <SCORE.norm>
-2.58149

>  <RMSD>
0.229

$$$$
1u8d_lig
 OpenBabel11021811413D
libRbt.so/2013.1/901 2013/11/27
 10 11  0  0  0  0  0  0  0  0999 V2000
   11.8183   10.5180    9.0962 N   0  0  0  0  0  0  0  0  0  0  0  0
   11.5405   11.8837    9.2769 C   0  0  0  0  0  0  0  0  0  0  0  0
   11.1831   12.7153    8.2652 N   0  0  0  0  0  0  0  0  0  0  0  0
   11.1210   12.0891    7.0700 C   0  0  0  0  0  0  0  0  0  0  0  0
   11.4148   10.6128    6.8091 C   0  0  0  0  0  0  0  0  0  0  0  0
   11.7823    9.7952    7.8890 C   0  0  0  0  0  0  0  0  0  0  0  0
   12.0533    8.6024    7.9106 O   0  0  0  0  0  0  0  0  0  0  0  0
   11.2355   10.4069    5.4687 N   0  0  0  0  0  0  0  0  0  0  0  0
   10.8569   11.6061    4.9161 C   0  0  0  0  0  0  0  0  0  0  0  0
   10.7791   12.6376    5.8479 N   0  0  0  0  0  0  0  0  0  0  0  0
  1  2  1  0  0  0  0
  1  6  1  0  0  0  0
  2  3  2  0  0  0  0
  3  4  1  0  0  0  0
  4  5  2  0  0  0  0
  4 10  1  0  0  0  0
  5  6  1  0  0  0  0
  5  8  1  0  0  0  0
  6  7  2  0  0  0  0
  8  9  1  0  0  0  0
  9 10  2  0  0  0  0
M  END
>  <CHROM.1>
11.38843264,11.05145711,7.26700836,0.35598763,-1.29352228,0.92914092

>  <Name>
1u8d_lig

>  <RI>
0

>  <Rbt.Current_Directory>
/home/itssahil/PROJECTS/Mol_Feturizer/New_Systems/rnas/1u8d

>  <Rbt.Executable>
rbdock ($Id: //depot/dev/client3/rdock/2013.1/src/exe/rbdock.cxx#4 $)

>  <Rbt.Library>
libRbt.so (2013.1, Build901 2013/11/27)

>  <Rbt.Parameter_File>
/export/apps/rDock/src/rDock_2013.1_src/data/scripts/dock_solv.prm

>  <Rbt.Receptor>
prm/pocket_docking_8.prm

>  <SCORE>
-26.0516

>  <SCORE.INTER>
-26.0516

>  <SCORE.INTER.CONST>
1

>  <SCORE.INTER.POLAR>
-1.93629

>  <SCORE.INTER.ROT>
0

>  <SCORE.INTER.SOLV>
11.5196

>  <SCORE.INTER.VDW>
-18.3533

>  <SCORE.INTER.norm>
-2.60516

>  <SCORE.INTRA>
0

>  <SCORE.INTRA.DIHEDRAL>
0

>  <SCORE.INTRA.DIHEDRAL.0>
0

>  <SCORE.INTRA.POLAR>
0

>  <SCORE.INTRA.POLAR.0>
0

>  <SCORE.INTRA.REPUL>
0

>  <SCORE.INTRA.REPUL.0>
0

>  <SCORE.INTRA.SOLV>
0

>  <SCORE.INTRA.SOLV.lig_0>
-13.7928

>  <SCORE.INTRA.VDW>
0

>  <SCORE.INTRA.VDW.0>
0

>  <SCORE.INTRA.norm>
0

>  <SCORE.RESTR>
0

>  <SCORE.RESTR.CAVITY>
0

>  <SCORE.RESTR.norm>
0

>  <SCORE.SYSTEM>
0

>  <SCORE.SYSTEM.CONST>
0

>  <SCORE.SYSTEM.DIHEDRAL>
0

>  <SCORE.SYSTEM.SOLV>
0

>  <SCORE.SYSTEM.norm>
0

>  <SCORE.heavy>
10

>  <SCORE.norm>
-2.60516

>  <RMSD>
0.229

$$$$
1u8d_lig
 OpenBabel11021811413D
libRbt.so/2013.1/901 2013/11/27
 10 11  0  0  0  0  0  0  0  0999 V2000
   11.8011   10.5708    9.1604 N   0  0  0  0  0  0  0  0  0  0  0  0
   11.5846   11.9445    9.3631 C   0  0  0  0  0  0  0  0  0  0  0  0
   11.2787   12.8098    8.3630 N   0  0  0  0  0  0  0  0  0  0  0  0
   11.2025   12.2089    7.1558 C   0  0  0  0  0  0  0  0  0  0  0  0
   11.4308   10.7254    6.8709 C   0  0  0  0  0  0  0  0  0  0  0  0
   11.7466    9.8723    7.9396 C   0  0  0  0  0  0  0  0  0  0  0  0
   11.9617    8.6679    7.9422 O   0  0  0  0  0  0  0  0  0  0  0  0
   11.2588   10.5523    5.5249 N   0  0  0  0  0  0  0  0  0  0  0  0
   10.9431   11.7775    4.9903 C   0  0  0  0  0  0  0  0  0  0  0  0
   10.9016   12.7946    5.9402 N   0  0  0  0  0  0  0  0  0  0  0  0
  1  2  1  0  0  0  0
  1  6  1  0  0  0  0
  2  3  2  0  0  0  0
  3  4  1  0  0  0  0
  4  5  2  0  0  0  0
  4 10  1  0  0  0  0
  5  6  1  0  0  0  0
  5  8  1  0  0  0  0
  6  7  2  0  0  0  0
  8  9  1  0  0  0  0
  9 10  2  0  0  0  0
M  END
>  <CHROM.1>
11.41911374,11.15649714,7.33654361,0.27892192,-1.33744217,0.87285605

>  <Name>
1u8d_lig

>  <RI>
0

>  <Rbt.Current_Directory>
/home/itssahil/PROJECTS/Mol_Feturizer/New_Systems/rnas/1u8d

>  <Rbt.Executable>
rbdock ($Id: //depot/dev/client3/rdock/2013.1/src/exe/rbdock.cxx#4 $)

>  <Rbt.Library>
libRbt.so (2013.1, Build901 2013/11/27)

>  <Rbt.Parameter_File>
/export/apps/rDock/src/rDock_2013.1_src/data/scripts/dock_solv.prm

>  <Rbt.Receptor>
prm/blind_docking_40.prm

>  <SCORE>
-26.0672

>  <SCORE.INTER>
-26.0672

>  <SCORE.INTER.CONST>
1

>  <SCORE.INTER.POLAR>
-1.93632

>  <SCORE.INTER.ROT>
0

>  <SCORE.INTER.SOLV>
11.6065

>  <SCORE.INTER.VDW>
-18.3926

>  <SCORE.INTER.norm>
-2.60672

>  <SCORE.INTRA>
0

>  <SCORE.INTRA.DIHEDRAL>
0

>  <SCORE.INTRA.DIHEDRAL.0>
0

>  <SCORE.INTRA.POLAR>
0

>  <SCORE.INTRA.POLAR.0>
0

>  <SCORE.INTRA.REPUL>
0

>  <SCORE.INTRA.REPUL.0>
0

>  <SCORE.INTRA.SOLV>
0

>  <SCORE.INTRA.SOLV.lig_0>
-13.7928

>  <SCORE.INTRA.VDW>
0

>  <SCORE.INTRA.VDW.0>
0

>  <SCORE.INTRA.norm>
0

>  <SCORE.RESTR>
0

>  <SCORE.RESTR.CAVITY>
0

>  <SCORE.RESTR.norm>
0

>  <SCORE.SYSTEM>
0

>  <SCORE.SYSTEM.CONST>
0

>  <SCORE.SYSTEM.DIHEDRAL>
0

>  <SCORE.SYSTEM.SOLV>
0

>  <SCORE.SYSTEM.norm>
0

>  <SCORE.heavy>
10

>  <SCORE.norm>
-2.60672

>  <RMSD>
0.230

$$$$
1u8d_lig
 OpenBabel11021811413D
libRbt.so/2013.1/901 2013/11/27
 10 11  0  0  0  0  0  0  0  0999 V2000
   11.6407   10.4624    9.2862 N   0  0  0  0  0  0  0  0  0  0  0  0
   11.3707   11.8235    9.5085 C   0  0  0  0  0  0  0  0  0  0  0  0
   11.0985   12.7051    8.5128 N   0  0  0  0  0  0  0  0  0  0  0  0
   11.1128   12.1336    7.2890 C   0  0  0  0  0  0  0  0  0  0  0  0
   11.4029   10.6653    6.9830 C   0  0  0  0  0  0  0  0  0  0  0  0
   11.6804    9.7944    8.0479 C   0  0  0  0  0  0  0  0  0  0  0  0
   11.9317    8.5971    8.0346 O   0  0  0  0  0  0  0  0  0  0  0  0
   11.3168   10.5220    5.6253 N   0  0  0  0  0  0  0  0  0  0  0  0
   10.9962   11.7509    5.1022 C   0  0  0  0  0  0  0  0  0  0  0  0
   10.8671   12.7415    6.0720 N   0  0  0  0  0  0  0  0  0  0  0  0
  1  2  1  0  0  0  0
  1  6  1  0  0  0  0
  2  3  2  0  0  0  0
  3  4  1  0  0  0  0
  4  5  2  0  0  0  0
  4 10  1  0  0  0  0
  5  6  1  0  0  0  0
  5  8  1  0  0  0  0
  6  7  2  0  0  0  0
  8  9  1  0  0  0  0
  9 10  2  0  0  0  0
M  END
>  <CHROM.1>
11.35035051,11.08364272,7.45723909,0.57214382,-1.34290789,1.18336304

>  <Name>
1u8d_lig

>  <RI>
0

>  <Rbt.Current_Directory>
/home/itssahil/PROJECTS/Mol_Feturizer/New_Systems/rnas/1u8d

>  <Rbt.Executable>
rbdock ($Id: //depot/dev/client3/rdock/2013.1/src/exe/rbdock.cxx#4 $)

>  <Rbt.Library>
libRbt.so (2013.1, Build901 2013/11/27)

>  <Rbt.Parameter_File>
/export/apps/rDock/src/rDock_2013.1_src/data/scripts/dock_solv.prm

>  <Rbt.Receptor>
prm/blind_docking_80.prm

>  <SCORE>
-25.9842

>  <SCORE.INTER>
-25.9842

>  <SCORE.INTER.CONST>
1

>  <SCORE.INTER.POLAR>
-1.93632

>  <SCORE.INTER.ROT>
0

>  <SCORE.INTER.SOLV>
11.7176

>  <SCORE.INTER.VDW>
-18.3742

>  <SCORE.INTER.norm>
-2.59842

>  <SCORE.INTRA>
0

>  <SCORE.INTRA.DIHEDRAL>
0

>  <SCORE.INTRA.DIHEDRAL.0>
0

>  <SCORE.INTRA.POLAR>
0

>  <SCORE.INTRA.POLAR.0>
0

>  <SCORE.INTRA.REPUL>
0

>  <SCORE.INTRA.REPUL.0>
0

>  <SCORE.INTRA.SOLV>
0

>  <SCORE.INTRA.SOLV.lig_0>
-13.7928

>  <SCORE.INTRA.VDW>
0

>  <SCORE.INTRA.VDW.0>
0

>  <SCORE.INTRA.norm>
0

>  <SCORE.RESTR>
0

>  <SCORE.RESTR.CAVITY>
0

>  <SCORE.RESTR.norm>
0

>  <SCORE.SYSTEM>
0

>  <SCORE.SYSTEM.CONST>
0

>  <SCORE.SYSTEM.DIHEDRAL>
0

>  <SCORE.SYSTEM.SOLV>
0

>  <SCORE.SYSTEM.norm>
0

>  <SCORE.heavy>
10

>  <SCORE.norm>
-2.59842

>  <RMSD>
0.230

$$$$
1u8d_lig
 OpenBabel11021811413D
libRbt.so/2013.1/901 2013/11/27
 10 11  0  0  0  0  0  0  0  0999 V2000
   11.8566   10.5367    9.0810 N   0  0  0  0  0  0  0  0  0  0  0  0
   11.5773   11.9020    9.2631 C   0  0  0  0  0  0  0  0  0  0  0  0
   11.2020   12.7302    8.2552 N   0  0  0  0  0  0  0  0  0  0  0  0
   11.1237   12.1014    7.0624 C   0  0  0  0  0  0  0  0  0  0  0  0
   11.4180   10.6254    6.8002 C   0  0  0  0  0  0  0  0  0  0  0  0
   11.8044    9.8112    7.8760 C   0  0  0  0  0  0  0  0  0  0  0  0
   12.0794    8.6193    7.8960 O   0  0  0  0  0  0  0  0  0  0  0  0
   11.2191   10.4161    5.4630 N   0  0  0  0  0  0  0  0  0  0  0  0
   10.8285   11.6129    4.9137 C   0  0  0  0  0  0  0  0  0  0  0  0
   10.7616   12.6462    5.8445 N   0  0  0  0  0  0  0  0  0  0  0  0
  1  2  1  0  0  0  0
  1  6  1  0  0  0  0
  2  3  2  0  0  0  0
  3  4  1  0  0  0  0
  4  5  2  0  0  0  0
  4 10  1  0  0  0  0
  5  6  1  0  0  0  0
  5  8  1  0  0  0  0
  6  7  2  0  0  0  0
  8  9  1  0  0  0  0
  9 10  2  0  0  0  0
M  END
>  <CHROM.1>
11.39730397,11.06494551,7.25747871,0.31979152,-1.28178562,0.89228357

>  <Name>
1u8d_lig

>  <RI>
0

>  <Rbt.Current_Directory>
/home/itssahil/PROJECTS/Mol_Feturizer/New_Systems/rnas/1u8d

>  <Rbt.Executable>
rbdock ($Id: //depot/dev/client3/rdock/2013.1/src/exe/rbdock.cxx#4 $)

>  <Rbt.Library>
libRbt.so (2013.1, Build901 2013/11/27)

>  <Rbt.Parameter_File>
/export/apps/rDock/src/rDock_2013.1_src/data/scripts/dock_solv.prm

>  <Rbt.Receptor>
prm/pocket_docking_3.prm

>  <SCORE>
-26.109

>  <SCORE.INTER>
-26.109

>  <SCORE.INTER.CONST>
1

>  <SCORE.INTER.POLAR>
-1.93632

>  <SCORE.INTER.ROT>
0

>  <SCORE.INTER.SOLV>
11.462

>  <SCORE.INTER.VDW>
-18.3723

>  <SCORE.INTER.norm>
-2.6109

>  <SCORE.INTRA>
0

>  <SCORE.INTRA.DIHEDRAL>
0

>  <SCORE.INTRA.DIHEDRAL.0>
0

>  <SCORE.INTRA.POLAR>
0

>  <SCORE.INTRA.POLAR.0>
0

>  <SCORE.INTRA.REPUL>
0

>  <SCORE.INTRA.REPUL.0>
0

>  <SCORE.INTRA.SOLV>
0

>  <SCORE.INTRA.SOLV.lig_0>
-13.7928

>  <SCORE.INTRA.VDW>
0

>  <SCORE.INTRA.VDW.0>
0

>  <SCORE.INTRA.norm>
0

>  <SCORE.RESTR>
0

>  <SCORE.RESTR.CAVITY>
0

>  <SCORE.RESTR.norm>
0

>  <SCORE.SYSTEM>
0

>  <SCORE.SYSTEM.CONST>
0

>  <SCORE.SYSTEM.DIHEDRAL>
0

>  <SCORE.SYSTEM.SOLV>
0

>  <SCORE.SYSTEM.norm>
0

>  <SCORE.heavy>
10

>  <SCORE.norm>
-2.6109

>  <RMSD>
0.230

$$$$
1u8d_lig
 OpenBabel11021811413D
libRbt.so/2013.1/901 2013/11/27
 10 11  0  0  0  0  0  0  0  0999 V2000
   11.8895   10.5331    9.0972 N   0  0  0  0  0  0  0  0  0  0  0  0
   11.6256   11.9024    9.2713 C   0  0  0  0  0  0  0  0  0  0  0  0
   11.2468   12.7263    8.2611 N   0  0  0  0  0  0  0  0  0  0  0  0
   11.1489   12.0887    7.0744 C   0  0  0  0  0  0  0  0  0  0  0  0
   11.4259   10.6079    6.8208 C   0  0  0  0  0  0  0  0  0  0  0  0
   11.8167    9.7986    7.8987 C   0  0  0  0  0  0  0  0  0  0  0  0
   12.0803    8.6042    7.9253 O   0  0  0  0  0  0  0  0  0  0  0  0
   11.2098   10.3899    5.4877 N   0  0  0  0  0  0  0  0  0  0  0  0
   10.8245   11.5860    4.9332 C   0  0  0  0  0  0  0  0  0  0  0  0
   10.7783   12.6273    5.8563 N   0  0  0  0  0  0  0  0  0  0  0  0
  1  2  1  0  0  0  0
  1  6  1  0  0  0  0
  2  3  2  0  0  0  0
  3  4  1  0  0  0  0
  4  5  2  0  0  0  0
  4 10  1  0  0  0  0
  5  6  1  0  0  0  0
  5  8  1  0  0  0  0
  6  7  2  0  0  0  0
  8  9  1  0  0  0  0
  9 10  2  0  0  0  0
M  END
>  <CHROM.1>
11.41467143,11.05124057,7.27471992,0.26734198,-1.28178908,0.83396943

>  <Name>
1u8d_lig

>  <RI>
0

>  <Rbt.Current_Directory>
/home/itssahil/PROJECTS/Mol_Feturizer/New_Systems/rnas/1u8d

>  <Rbt.Executable>
rbdock ($Id: //depot/dev/client3/rdock/2013.1/src/exe/rbdock.cxx#4 $)

>  <Rbt.Library>
libRbt.so (2013.1, Build901 2013/11/27)

>  <Rbt.Parameter_File>
/export/apps/rDock/src/rDock_2013.1_src/data/scripts/dock_solv.prm

>  <Rbt.Receptor>
prm/pocket_docking_4.prm

>  <SCORE>
-26.1169

>  <SCORE.INTER>
-26.1169

>  <SCORE.INTER.CONST>
1

>  <SCORE.INTER.POLAR>
-1.93632

>  <SCORE.INTER.ROT>
0

>  <SCORE.INTER.SOLV>
11.4391

>  <SCORE.INTER.VDW>
-18.3699

>  <SCORE.INTER.norm>
-2.61169

>  <SCORE.INTRA>
0

>  <SCORE.INTRA.DIHEDRAL>
0

>  <SCORE.INTRA.DIHEDRAL.0>
0

>  <SCORE.INTRA.POLAR>
0

>  <SCORE.INTRA.POLAR.0>
0

>  <SCORE.INTRA.REPUL>
0

>  <SCORE.INTRA.REPUL.0>
0

>  <SCORE.INTRA.SOLV>
0

>  <SCORE.INTRA.SOLV.lig_0>
-13.7928

>  <SCORE.INTRA.VDW>
0

>  <SCORE.INTRA.VDW.0>
0

>  <SCORE.INTRA.norm>
0

>  <SCORE.RESTR>
0

>  <SCORE.RESTR.CAVITY>
0

>  <SCORE.RESTR.norm>
0

>  <SCORE.SYSTEM>
0

>  <SCORE.SYSTEM.CONST>
0

>  <SCORE.SYSTEM.DIHEDRAL>
0

>  <SCORE.SYSTEM.SOLV>
0

>  <SCORE.SYSTEM.norm>
0

>  <SCORE.heavy>
10

>  <SCORE.norm>
-2.61169

>  <RMSD>
0.230

$$$$
1u8d_lig
 OpenBabel11021811413D
libRbt.so/2013.1/901 2013/11/27
 10 11  0  0  0  0  0  0  0  0999 V2000
   11.8935   10.5281    9.0943 N   0  0  0  0  0  0  0  0  0  0  0  0
   11.6258   11.8959    9.2738 C   0  0  0  0  0  0  0  0  0  0  0  0
   11.2443   12.7226    8.2669 N   0  0  0  0  0  0  0  0  0  0  0  0
   11.1475   12.0893    7.0778 C   0  0  0  0  0  0  0  0  0  0  0  0
   11.4286   10.6103    6.8184 C   0  0  0  0  0  0  0  0  0  0  0  0
   11.8221    9.7980    7.8930 C   0  0  0  0  0  0  0  0  0  0  0  0
   12.0891    8.6042    7.9148 O   0  0  0  0  0  0  0  0  0  0  0  0
   11.2124   10.3968    5.4846 N   0  0  0  0  0  0  0  0  0  0  0  0
   10.8236   11.5940    4.9349 C   0  0  0  0  0  0  0  0  0  0  0  0
   10.7749   12.6316    5.8620 N   0  0  0  0  0  0  0  0  0  0  0  0
  1  2  1  0  0  0  0
  1  6  1  0  0  0  0
  2  3  2  0  0  0  0
  3  4  1  0  0  0  0
  4  5  2  0  0  0  0
  4 10  1  0  0  0  0
  5  6  1  0  0  0  0
  5  8  1  0  0  0  0
  6  7  2  0  0  0  0
  8  9  1  0  0  0  0
  9 10  2  0  0  0  0
M  END
>  <CHROM.1>
11.41631579,11.05185713,7.27403463,0.27268510,-1.27941213,0.84294576

>  <Name>
1u8d_lig

>  <RI>
0

>  <Rbt.Current_Directory>
/home/itssahil/PROJECTS/Mol_Feturizer/New_Systems/rnas/1u8d

>  <Rbt.Executable>
rbdock ($Id: //depot/dev/client3/rdock/2013.1/src/exe/rbdock.cxx#4 $)

>  <Rbt.Library>
libRbt.so (2013.1, Build901 2013/11/27)

>  <Rbt.Parameter_File>
/export/apps/rDock/src/rDock_2013.1_src/data/scripts/dock_solv.prm

>  <Rbt.Receptor>
prm/pocket_docking_4.prm

>  <SCORE>
-26.1026

>  <SCORE.INTER>
-26.1026

>  <SCORE.INTER.CONST>
1

>  <SCORE.INTER.POLAR>
-1.93632

>  <SCORE.INTER.ROT>
0

>  <SCORE.INTER.SOLV>
11.429

>  <SCORE.INTER.VDW>
-18.357

>  <SCORE.INTER.norm>
-2.61026

>  <SCORE.INTRA>
0

>  <SCORE.INTRA.DIHEDRAL>
0

>  <SCORE.INTRA.DIHEDRAL.0>
0

>  <SCORE.INTRA.POLAR>
0

>  <SCORE.INTRA.POLAR.0>
0

>  <SCORE.INTRA.REPUL>
0

>  <SCORE.INTRA.REPUL.0>
0

>  <SCORE.INTRA.SOLV>
0

>  <SCORE.INTRA.SOLV.lig_0>
-13.7928

>  <SCORE.INTRA.VDW>
0

>  <SCORE.INTRA.VDW.0>
0

>  <SCORE.INTRA.norm>
0

>  <SCORE.RESTR>
0

>  <SCORE.RESTR.CAVITY>
0

>  <SCORE.RESTR.norm>
0

>  <SCORE.SYSTEM>
0

>  <SCORE.SYSTEM.CONST>
0

>  <SCORE.SYSTEM.DIHEDRAL>
0

>  <SCORE.SYSTEM.SOLV>
0

>  <SCORE.SYSTEM.norm>
0

>  <SCORE.heavy>
10

>  <SCORE.norm>
-2.61026

>  <RMSD>
0.230

$$$$
1u8d_lig
 OpenBabel11021811413D
libRbt.so/2013.1/901 2013/11/27
 10 11  0  0  0  0  0  0  0  0999 V2000
   11.7342   10.5194    9.0870 N   0  0  0  0  0  0  0  0  0  0  0  0
   11.3816   11.8676    9.2688 C   0  0  0  0  0  0  0  0  0  0  0  0
   11.0059   12.6867    8.2536 N   0  0  0  0  0  0  0  0  0  0  0  0
   11.0051   12.0667    7.0536 C   0  0  0  0  0  0  0  0  0  0  0  0
   11.3813   10.6095    6.7913 C   0  0  0  0  0  0  0  0  0  0  0  0
   11.7647    9.8043    7.8750 C   0  0  0  0  0  0  0  0  0  0  0  0
   12.0965    8.6270    7.8962 O   0  0  0  0  0  0  0  0  0  0  0  0
   11.2452   10.4042    5.4458 N   0  0  0  0  0  0  0  0  0  0  0  0
   10.8183   11.5860    4.8911 C   0  0  0  0  0  0  0  0  0  0  0  0
   10.6648   12.6055    5.8268 N   0  0  0  0  0  0  0  0  0  0  0  0
  1  2  1  0  0  0  0
  1  6  1  0  0  0  0
  2  3  2  0  0  0  0
  3  4  1  0  0  0  0
  4  5  2  0  0  0  0
  4 10  1  0  0  0  0
  5  6  1  0  0  0  0
  5  8  1  0  0  0  0
  6  7  2  0  0  0  0
  8  9  1  0  0  0  0
  9 10  2  0  0  0  0
M  END
>  <CHROM.1>
11.32125265,11.04291510,7.25100188,0.52236383,-1.26231585,1.09498406

>  <Name>
1u8d_lig

>  <RI>
0

>  <Rbt.Current_Directory>
/home/itssahil/PROJECTS/Mol_Feturizer/New_Systems/rnas/1u8d

>  <Rbt.Executable>
rbdock ($Id: //depot/dev/client3/rdock/2013.1/src/exe/rbdock.cxx#4 $)

>  <Rbt.Library>
libRbt.so (2013.1, Build901 2013/11/27)

>  <Rbt.Parameter_File>
/export/apps/rDock/src/rDock_2013.1_src/data/scripts/dock_solv.prm

>  <Rbt.Receptor>
prm/blind_docking_20.prm

>  <SCORE>
-25.829

>  <SCORE.INTER>
-25.829

>  <SCORE.INTER.CONST>
1

>  <SCORE.INTER.POLAR>
-1.93108

>  <SCORE.INTER.ROT>
0

>  <SCORE.INTER.SOLV>
11.543

>  <SCORE.INTER.VDW>
-18.2301

>  <SCORE.INTER.norm>
-2.5829

>  <SCORE.INTRA>
0

>  <SCORE.INTRA.DIHEDRAL>
0

>  <SCORE.INTRA.DIHEDRAL.0>
0

>  <SCORE.INTRA.POLAR>
0

>  <SCORE.INTRA.POLAR.0>
0

>  <SCORE.INTRA.REPUL>
0

>  <SCORE.INTRA.REPUL.0>
0

>  <SCORE.INTRA.SOLV>
0

>  <SCORE.INTRA.SOLV.lig_0>
-13.7928

>  <SCORE.INTRA.VDW>
0

>  <SCORE.INTRA.VDW.0>
0

>  <SCORE.INTRA.norm>
0

>  <SCORE.RESTR>
1.89393e-05

>  <SCORE.RESTR.CAVITY>
1.89393e-05

>  <SCORE.RESTR.norm>
1.89393e-06

>  <SCORE.SYSTEM>
0

>  <SCORE.SYSTEM.CONST>
0

>  <SCORE.SYSTEM.DIHEDRAL>
0

>  <SCORE.SYSTEM.SOLV>
0

>  <SCORE.SYSTEM.norm>
0

>  <SCORE.heavy>
10

>  <SCORE.norm>
-2.5829

>  <RMSD>
0.231

$$$$
1u8d_lig
 OpenBabel11021811413D
libRbt.so/2013.1/901 2013/11/27
 10 11  0  0  0  0  0  0  0  0999 V2000
   11.8557   10.5309    9.0857 N   0  0  0  0  0  0  0  0  0  0  0  0
   11.5850   11.8977    9.2690 C   0  0  0  0  0  0  0  0  0  0  0  0
   11.2093   12.7280    8.2629 N   0  0  0  0  0  0  0  0  0  0  0  0
   11.1214   12.0994    7.0706 C   0  0  0  0  0  0  0  0  0  0  0  0
   11.4061   10.6218    6.8071 C   0  0  0  0  0  0  0  0  0  0  0  0
   11.7933    9.8056    7.8811 C   0  0  0  0  0  0  0  0  0  0  0  0
   12.0616    8.6121    7.8999 O   0  0  0  0  0  0  0  0  0  0  0  0
   11.1992   10.4135    5.4710 N   0  0  0  0  0  0  0  0  0  0  0  0
   10.8126   11.6124    4.9235 C   0  0  0  0  0  0  0  0  0  0  0  0
   10.7563   12.6462    5.8545 N   0  0  0  0  0  0  0  0  0  0  0  0
  1  2  1  0  0  0  0
  1  6  1  0  0  0  0
  2  3  2  0  0  0  0
  3  4  1  0  0  0  0
  4  5  2  0  0  0  0
  4 10  1  0  0  0  0
  5  6  1  0  0  0  0
  5  8  1  0  0  0  0
  6  7  2  0  0  0  0
  8  9  1  0  0  0  0
  9 10  2  0  0  0  0
M  END
>  <CHROM.1>
11.39015006,11.06149937,7.26443711,0.29340747,-1.28290559,0.86685533

>  <Name>
1u8d_lig

>  <RI>
0

>  <Rbt.Current_Directory>
/home/itssahil/PROJECTS/Mol_Feturizer/New_Systems/rnas/1u8d

>  <Rbt.Executable>
rbdock ($Id: //depot/dev/client3/rdock/2013.1/src/exe/rbdock.cxx#4 $)

>  <Rbt.Library>
libRbt.so (2013.1, Build901 2013/11/27)

>  <Rbt.Parameter_File>
/export/apps/rDock/src/rDock_2013.1_src/data/scripts/dock_solv.prm

>  <Rbt.Receptor>
prm/pocket_docking_3.prm

>  <SCORE>
-26.1065

>  <SCORE.INTER>
-26.1065

>  <SCORE.INTER.CONST>
1

>  <SCORE.INTER.POLAR>
-1.93632

>  <SCORE.INTER.ROT>
0

>  <SCORE.INTER.SOLV>
11.4659

>  <SCORE.INTER.VDW>
-18.3719

>  <SCORE.INTER.norm>
-2.61065

>  <SCORE.INTRA>
0

>  <SCORE.INTRA.DIHEDRAL>
0

>  <SCORE.INTRA.DIHEDRAL.0>
0

>  <SCORE.INTRA.POLAR>
0

>  <SCORE.INTRA.POLAR.0>
0

>  <SCORE.INTRA.REPUL>
0

>  <SCORE.INTRA.REPUL.0>
0

>  <SCORE.INTRA.SOLV>
0

>  <SCORE.INTRA.SOLV.lig_0>
-13.7928

>  <SCORE.INTRA.VDW>
0

>  <SCORE.INTRA.VDW.0>
0

>  <SCORE.INTRA.norm>
0

>  <SCORE.RESTR>
0

>  <SCORE.RESTR.CAVITY>
0

>  <SCORE.RESTR.norm>
0

>  <SCORE.SYSTEM>
0

>  <SCORE.SYSTEM.CONST>
0

>  <SCORE.SYSTEM.DIHEDRAL>
0

>  <SCORE.SYSTEM.SOLV>
0

>  <SCORE.SYSTEM.norm>
0

>  <SCORE.heavy>
10

>  <SCORE.norm>
-2.61065

>  <RMSD>
0.231

$$$$
1u8d_lig
 OpenBabel11021811413D
libRbt.so/2013.1/901 2013/11/27
 10 11  0  0  0  0  0  0  0  0999 V2000
   11.8271   10.5219    9.0912 N   0  0  0  0  0  0  0  0  0  0  0  0
   11.5515   11.8880    9.2717 C   0  0  0  0  0  0  0  0  0  0  0  0
   11.1900   12.7188    8.2608 N   0  0  0  0  0  0  0  0  0  0  0  0
   11.1215   12.0914    7.0666 C   0  0  0  0  0  0  0  0  0  0  0  0
   11.4126   10.6145    6.8060 C   0  0  0  0  0  0  0  0  0  0  0  0
   11.7845    9.7978    7.8850 C   0  0  0  0  0  0  0  0  0  0  0  0
   12.0543    8.6047    7.9066 O   0  0  0  0  0  0  0  0  0  0  0  0
   11.2267   10.4074    5.4667 N   0  0  0  0  0  0  0  0  0  0  0  0
   10.8466   11.6063    4.9145 C   0  0  0  0  0  0  0  0  0  0  0  0
   10.7744   12.6389    5.8456 N   0  0  0  0  0  0  0  0  0  0  0  0
  1  2  1  0  0  0  0
  1  6  1  0  0  0  0
  2  3  2  0  0  0  0
  3  4  1  0  0  0  0
  4  5  2  0  0  0  0
  4 10  1  0  0  0  0
  5  6  1  0  0  0  0
  5  8  1  0  0  0  0
  6  7  2  0  0  0  0
  8  9  1  0  0  0  0
  9 10  2  0  0  0  0
M  END
>  <CHROM.1>
11.38890377,11.05371030,7.26349154,0.33978411,-1.29141461,0.91246249

>  <Name>
1u8d_lig

>  <RI>
0

>  <Rbt.Current_Directory>
/home/itssahil/PROJECTS/Mol_Feturizer/New_Systems/rnas/1u8d

>  <Rbt.Executable>
rbdock ($Id: //depot/dev/client3/rdock/2013.1/src/exe/rbdock.cxx#4 $)

>  <Rbt.Library>
libRbt.so (2013.1, Build901 2013/11/27)

>  <Rbt.Parameter_File>
/export/apps/rDock/src/rDock_2013.1_src/data/scripts/dock_solv.prm

>  <Rbt.Receptor>
prm/pocket_docking_3.prm

>  <SCORE>
-26.0923

>  <SCORE.INTER>
-26.0923

>  <SCORE.INTER.CONST>
1

>  <SCORE.INTER.POLAR>
-1.93632

>  <SCORE.INTER.ROT>
0

>  <SCORE.INTER.SOLV>
11.5072

>  <SCORE.INTER.VDW>
-18.3762

>  <SCORE.INTER.norm>
-2.60923

>  <SCORE.INTRA>
0

>  <SCORE.INTRA.DIHEDRAL>
0

>  <SCORE.INTRA.DIHEDRAL.0>
0

>  <SCORE.INTRA.POLAR>
0

>  <SCORE.INTRA.POLAR.0>
0

>  <SCORE.INTRA.REPUL>
0

>  <SCORE.INTRA.REPUL.0>
0

>  <SCORE.INTRA.SOLV>
0

>  <SCORE.INTRA.SOLV.lig_0>
-13.7928

>  <SCORE.INTRA.VDW>
0

>  <SCORE.INTRA.VDW.0>
0

>  <SCORE.INTRA.norm>
0

>  <SCORE.RESTR>
0

>  <SCORE.RESTR.CAVITY>
0

>  <SCORE.RESTR.norm>
0

>  <SCORE.SYSTEM>
0

>  <SCORE.SYSTEM.CONST>
0

>  <SCORE.SYSTEM.DIHEDRAL>
0

>  <SCORE.SYSTEM.SOLV>
0

>  <SCORE.SYSTEM.norm>
0

>  <SCORE.heavy>
10

>  <SCORE.norm>
-2.60923

>  <RMSD>
0.231

$$$$
1u8d_lig
 OpenBabel11021811413D
libRbt.so/2013.1/901 2013/11/27
 10 11  0  0  0  0  0  0  0  0999 V2000
   11.8605   10.5308    9.0840 N   0  0  0  0  0  0  0  0  0  0  0  0
   11.5904   11.8978    9.2670 C   0  0  0  0  0  0  0  0  0  0  0  0
   11.2148   12.7279    8.2608 N   0  0  0  0  0  0  0  0  0  0  0  0
   11.1264   12.0991    7.0687 C   0  0  0  0  0  0  0  0  0  0  0  0
   11.4105   10.6214    6.8054 C   0  0  0  0  0  0  0  0  0  0  0  0
   11.7976    9.8052    7.8795 C   0  0  0  0  0  0  0  0  0  0  0  0
   12.0655    8.6117    7.8985 O   0  0  0  0  0  0  0  0  0  0  0  0
   11.2032   10.4128    5.4695 N   0  0  0  0  0  0  0  0  0  0  0  0
   10.8169   11.6117    4.9218 C   0  0  0  0  0  0  0  0  0  0  0  0
   10.7612   12.6457    5.8525 N   0  0  0  0  0  0  0  0  0  0  0  0
  1  2  1  0  0  0  0
  1  6  1  0  0  0  0
  2  3  2  0  0  0  0
  3  4  1  0  0  0  0
  4  5  2  0  0  0  0
  4 10  1  0  0  0  0
  5  6  1  0  0  0  0
  5  8  1  0  0  0  0
  6  7  2  0  0  0  0
  8  9  1  0  0  0  0
  9 10  2  0  0  0  0
M  END
>  <CHROM.1>
11.39481106,11.06115214,7.26267944,0.29201342,-1.28305191,0.86529602

>  <Name>
1u8d_lig

>  <RI>
0

>  <Rbt.Current_Directory>
/home/itssahil/PROJECTS/Mol_Feturizer/New_Systems/rnas/1u8d

>  <Rbt.Executable>
rbdock ($Id: //depot/dev/client3/rdock/2013.1/src/exe/rbdock.cxx#4 $)

>  <Rbt.Library>
libRbt.so (2013.1, Build901 2013/11/27)

>  <Rbt.Parameter_File>
/export/apps/rDock/src/rDock_2013.1_src/data/scripts/dock_solv.prm

>  <Rbt.Receptor>
prm/pocket_docking_7.prm

>  <SCORE>
-26.1051

>  <SCORE.INTER>
-26.1051

>  <SCORE.INTER.CONST>
1

>  <SCORE.INTER.POLAR>
-1.93632

>  <SCORE.INTER.ROT>
0

>  <SCORE.INTER.SOLV>
11.4613

>  <SCORE.INTER.VDW>
-18.3694

>  <SCORE.INTER.norm>
-2.61051

>  <SCORE.INTRA>
0

>  <SCORE.INTRA.DIHEDRAL>
0

>  <SCORE.INTRA.DIHEDRAL.0>
0

>  <SCORE.INTRA.POLAR>
0

>  <SCORE.INTRA.POLAR.0>
0

>  <SCORE.INTRA.REPUL>
0

>  <SCORE.INTRA.REPUL.0>
0

>  <SCORE.INTRA.SOLV>
0

>  <SCORE.INTRA.SOLV.lig_0>
-13.7928

>  <SCORE.INTRA.VDW>
0

>  <SCORE.INTRA.VDW.0>
0

>  <SCORE.INTRA.norm>
0

>  <SCORE.RESTR>
0

>  <SCORE.RESTR.CAVITY>
0

>  <SCORE.RESTR.norm>
0

>  <SCORE.SYSTEM>
0

>  <SCORE.SYSTEM.CONST>
0

>  <SCORE.SYSTEM.DIHEDRAL>
0

>  <SCORE.SYSTEM.SOLV>
0

>  <SCORE.SYSTEM.norm>
0

>  <SCORE.heavy>
10

>  <SCORE.norm>
-2.61051

>  <RMSD>
0.232

$$$$
1u8d_lig
 OpenBabel11021811413D
libRbt.so/2013.1/901 2013/11/27
 10 11  0  0  0  0  0  0  0  0999 V2000
   11.9000   10.5425    9.0941 N   0  0  0  0  0  0  0  0  0  0  0  0
   11.6417   11.9133    9.2657 C   0  0  0  0  0  0  0  0  0  0  0  0
   11.2617   12.7358    8.2550 N   0  0  0  0  0  0  0  0  0  0  0  0
   11.1563   12.0954    7.0704 C   0  0  0  0  0  0  0  0  0  0  0  0
   11.4269   10.6130    6.8195 C   0  0  0  0  0  0  0  0  0  0  0  0
   11.8193    9.8051    7.8980 C   0  0  0  0  0  0  0  0  0  0  0  0
   12.0787    8.6098    7.9265 O   0  0  0  0  0  0  0  0  0  0  0  0
   11.2043   10.3923    5.4880 N   0  0  0  0  0  0  0  0  0  0  0  0
   10.8210   11.5883    4.9319 C   0  0  0  0  0  0  0  0  0  0  0  0
   10.7825   12.6322    5.8525 N   0  0  0  0  0  0  0  0  0  0  0  0
  1  2  1  0  0  0  0
  1  6  1  0  0  0  0
  2  3  2  0  0  0  0
  3  4  1  0  0  0  0
  4  5  2  0  0  0  0
  4 10  1  0  0  0  0
  5  6  1  0  0  0  0
  5  8  1  0  0  0  0
  6  7  2  0  0  0  0
  8  9  1  0  0  0  0
  9 10  2  0  0  0  0
M  END
>  <CHROM.1>
11.41920491,11.05756429,7.27232750,0.24766748,-1.28157083,0.81246430

>  <Name>
1u8d_lig

>  <RI>
0

>  <Rbt.Current_Directory>
/home/itssahil/PROJECTS/Mol_Feturizer/New_Systems/rnas/1u8d

>  <Rbt.Executable>
rbdock ($Id: //depot/dev/client3/rdock/2013.1/src/exe/rbdock.cxx#4 $)

>  <Rbt.Library>
libRbt.so (2013.1, Build901 2013/11/27)

>  <Rbt.Parameter_File>
/export/apps/rDock/src/rDock_2013.1_src/data/scripts/dock_solv.prm

>  <Rbt.Receptor>
prm/blind_docking_100.prm

>  <SCORE>
-26.0929

>  <SCORE.INTER>
-26.0929

>  <SCORE.INTER.CONST>
1

>  <SCORE.INTER.POLAR>
-1.93632

>  <SCORE.INTER.ROT>
0

>  <SCORE.INTER.SOLV>
11.4343

>  <SCORE.INTER.VDW>
-18.3523

>  <SCORE.INTER.norm>
-2.60929

>  <SCORE.INTRA>
0

>  <SCORE.INTRA.DIHEDRAL>
0

>  <SCORE.INTRA.DIHEDRAL.0>
0

>  <SCORE.INTRA.POLAR>
0

>  <SCORE.INTRA.POLAR.0>
0

>  <SCORE.INTRA.REPUL>
0

>  <SCORE.INTRA.REPUL.0>
0

>  <SCORE.INTRA.SOLV>
0

>  <SCORE.INTRA.SOLV.lig_0>
-13.7928

>  <SCORE.INTRA.VDW>
0

>  <SCORE.INTRA.VDW.0>
0

>  <SCORE.INTRA.norm>
0

>  <SCORE.RESTR>
0

>  <SCORE.RESTR.CAVITY>
0

>  <SCORE.RESTR.norm>
0

>  <SCORE.SYSTEM>
0

>  <SCORE.SYSTEM.CONST>
0

>  <SCORE.SYSTEM.DIHEDRAL>
0

>  <SCORE.SYSTEM.SOLV>
0

>  <SCORE.SYSTEM.norm>
0

>  <SCORE.heavy>
10

>  <SCORE.norm>
-2.60929

>  <RMSD>
0.233

$$$$
1u8d_lig
 OpenBabel11021811413D
libRbt.so/2013.1/901 2013/11/27
 10 11  0  0  0  0  0  0  0  0999 V2000
   11.7310   10.5136    9.0884 N   0  0  0  0  0  0  0  0  0  0  0  0
   11.3788   11.8622    9.2680 C   0  0  0  0  0  0  0  0  0  0  0  0
   11.0099   12.6815    8.2506 N   0  0  0  0  0  0  0  0  0  0  0  0
   11.0154   12.0613    7.0507 C   0  0  0  0  0  0  0  0  0  0  0  0
   11.3916   10.6037    6.7908 C   0  0  0  0  0  0  0  0  0  0  0  0
   11.7679    9.7983    7.8768 C   0  0  0  0  0  0  0  0  0  0  0  0
   12.0984    8.6206    7.9001 O   0  0  0  0  0  0  0  0  0  0  0  0
   11.2632   10.3983    5.4445 N   0  0  0  0  0  0  0  0  0  0  0  0
   10.8407   11.5804    4.8872 C   0  0  0  0  0  0  0  0  0  0  0  0
   10.6827   12.6002    5.8218 N   0  0  0  0  0  0  0  0  0  0  0  0
  1  2  1  0  0  0  0
  1  6  1  0  0  0  0
  2  3  2  0  0  0  0
  3  4  1  0  0  0  0
  4  5  2  0  0  0  0
  4 10  1  0  0  0  0
  5  6  1  0  0  0  0
  5  8  1  0  0  0  0
  6  7  2  0  0  0  0
  8  9  1  0  0  0  0
  9 10  2  0  0  0  0
M  END
>  <CHROM.1>
11.32935473,11.03719865,7.25002071,0.53809004,-1.26584364,1.10981946

>  <Name>
1u8d_lig

>  <RI>
0

>  <Rbt.Current_Directory>
/home/itssahil/PROJECTS/Mol_Feturizer/New_Systems/rnas/1u8d

>  <Rbt.Executable>
rbdock ($Id: //depot/dev/client3/rdock/2013.1/src/exe/rbdock.cxx#4 $)

>  <Rbt.Library>
libRbt.so (2013.1, Build901 2013/11/27)

>  <Rbt.Parameter_File>
/export/apps/rDock/src/rDock_2013.1_src/data/scripts/dock_solv.prm

>  <Rbt.Receptor>
prm/blind_docking_20.prm

>  <SCORE>
-25.848

>  <SCORE.INTER>
-25.848

>  <SCORE.INTER.CONST>
1

>  <SCORE.INTER.POLAR>
-1.93632

>  <SCORE.INTER.ROT>
0

>  <SCORE.INTER.SOLV>
11.5527

>  <SCORE.INTER.VDW>
-18.2285

>  <SCORE.INTER.norm>
-2.5848

>  <SCORE.INTRA>
0

>  <SCORE.INTRA.DIHEDRAL>
0

>  <SCORE.INTRA.DIHEDRAL.0>
0

>  <SCORE.INTRA.POLAR>
0

>  <SCORE.INTRA.POLAR.0>
0

>  <SCORE.INTRA.REPUL>
0

>  <SCORE.INTRA.REPUL.0>
0

>  <SCORE.INTRA.SOLV>
0

>  <SCORE.INTRA.SOLV.lig_0>
-13.7928

>  <SCORE.INTRA.VDW>
0

>  <SCORE.INTRA.VDW.0>
0

>  <SCORE.INTRA.norm>
0

>  <SCORE.RESTR>
0

>  <SCORE.RESTR.CAVITY>
0

>  <SCORE.RESTR.norm>
0

>  <SCORE.SYSTEM>
0

>  <SCORE.SYSTEM.CONST>
0

>  <SCORE.SYSTEM.DIHEDRAL>
0

>  <SCORE.SYSTEM.SOLV>
0

>  <SCORE.SYSTEM.norm>
0

>  <SCORE.heavy>
10

>  <SCORE.norm>
-2.5848

>  <RMSD>
0.233

$$$$
1u8d_lig
 OpenBabel11021811413D
libRbt.so/2013.1/901 2013/11/27
 10 11  0  0  0  0  0  0  0  0999 V2000
   11.6705   10.4956    9.1162 N   0  0  0  0  0  0  0  0  0  0  0  0
   11.3328   11.8475    9.2988 C   0  0  0  0  0  0  0  0  0  0  0  0
   10.9991   12.6801    8.2799 N   0  0  0  0  0  0  0  0  0  0  0  0
   11.0242   12.0695    7.0753 C   0  0  0  0  0  0  0  0  0  0  0  0
   11.3863   10.6089    6.8121 C   0  0  0  0  0  0  0  0  0  0  0  0
   11.7258    9.7896    7.8998 C   0  0  0  0  0  0  0  0  0  0  0  0
   12.0395    8.6073    7.9209 O   0  0  0  0  0  0  0  0  0  0  0  0
   11.2865   10.4162    5.4614 N   0  0  0  0  0  0  0  0  0  0  0  0
   10.8936   11.6086    4.9044 C   0  0  0  0  0  0  0  0  0  0  0  0
   10.7278   12.6229    5.8436 N   0  0  0  0  0  0  0  0  0  0  0  0
  1  2  1  0  0  0  0
  1  6  1  0  0  0  0
  2  3  2  0  0  0  0
  3  4  1  0  0  0  0
  4  5  2  0  0  0  0
  4 10  1  0  0  0  0
  5  6  1  0  0  0  0
  5  8  1  0  0  0  0
  6  7  2  0  0  0  0
  8  9  1  0  0  0  0
  9 10  2  0  0  0  0
M  END
>  <CHROM.1>
11.31923004,11.03956496,7.27334456,0.59127507,-1.28823400,1.16895479

>  <Name>
1u8d_lig

>  <RI>
0

>  <Rbt.Current_Directory>
/home/itssahil/PROJECTS/Mol_Feturizer/New_Systems/rnas/1u8d

>  <Rbt.Executable>
rbdock ($Id: //depot/dev/client3/rdock/2013.1/src/exe/rbdock.cxx#4 $)

>  <Rbt.Library>
libRbt.so (2013.1, Build901 2013/11/27)

>  <Rbt.Parameter_File>
/export/apps/rDock/src/rDock_2013.1_src/data/scripts/dock_solv.prm

>  <Rbt.Receptor>
prm/blind_docking_20.prm

>  <SCORE>
-25.7661

>  <SCORE.INTER>
-25.7668

>  <SCORE.INTER.CONST>
1

>  <SCORE.INTER.POLAR>
-1.93632

>  <SCORE.INTER.ROT>
0

>  <SCORE.INTER.SOLV>
11.6444

>  <SCORE.INTER.VDW>
-18.2049

>  <SCORE.INTER.norm>
-2.57668

>  <SCORE.INTRA>
0

>  <SCORE.INTRA.DIHEDRAL>
0

>  <SCORE.INTRA.DIHEDRAL.0>
0

>  <SCORE.INTRA.POLAR>
0

>  <SCORE.INTRA.POLAR.0>
0

>  <SCORE.INTRA.REPUL>
0

>  <SCORE.INTRA.REPUL.0>
0

>  <SCORE.INTRA.SOLV>
0

>  <SCORE.INTRA.SOLV.lig_0>
-13.7928

>  <SCORE.INTRA.VDW>
0

>  <SCORE.INTRA.VDW.0>
0

>  <SCORE.INTRA.norm>
0

>  <SCORE.RESTR>
0.000626062

>  <SCORE.RESTR.CAVITY>
0.000626062

>  <SCORE.RESTR.norm>
6.26062e-05

>  <SCORE.SYSTEM>
0

>  <SCORE.SYSTEM.CONST>
0

>  <SCORE.SYSTEM.DIHEDRAL>
0

>  <SCORE.SYSTEM.SOLV>
0

>  <SCORE.SYSTEM.norm>
0

>  <SCORE.heavy>
10

>  <SCORE.norm>
-2.57661

>  <RMSD>
0.234

$$$$
1u8d_lig
 OpenBabel11021811413D
libRbt.so/2013.1/901 2013/11/27
 10 11  0  0  0  0  0  0  0  0999 V2000
   11.8472   10.5352    9.0793 N   0  0  0  0  0  0  0  0  0  0  0  0
   11.5715   11.9014    9.2592 C   0  0  0  0  0  0  0  0  0  0  0  0
   11.2017   12.7299    8.2495 N   0  0  0  0  0  0  0  0  0  0  0  0
   11.1250   12.1001    7.0570 C   0  0  0  0  0  0  0  0  0  0  0  0
   11.4157   10.6231    6.7970 C   0  0  0  0  0  0  0  0  0  0  0  0
   11.7965    9.8088    7.8748 C   0  0  0  0  0  0  0  0  0  0  0  0
   12.0678    8.6160    7.8967 O   0  0  0  0  0  0  0  0  0  0  0  0
   11.2201   10.4132    5.4595 N   0  0  0  0  0  0  0  0  0  0  0  0
   10.8347   11.6106    4.9079 C   0  0  0  0  0  0  0  0  0  0  0  0
   10.7682   12.6449    5.8376 N   0  0  0  0  0  0  0  0  0  0  0  0
  1  2  1  0  0  0  0
  1  6  1  0  0  0  0
  2  3  2  0  0  0  0
  3  4  1  0  0  0  0
  4  5  2  0  0  0  0
  4 10  1  0  0  0  0
  5  6  1  0  0  0  0
  5  8  1  0  0  0  0
  6  7  2  0  0  0  0
  8  9  1  0  0  0  0
  9 10  2  0  0  0  0
M  END
>  <CHROM.1>
11.39494765,11.06308968,7.25386328,0.32123135,-1.28597667,0.89273752

>  <Name>
1u8d_lig

>  <RI>
0

>  <Rbt.Current_Directory>
/home/itssahil/PROJECTS/Mol_Feturizer/New_Systems/rnas/1u8d

>  <Rbt.Executable>
rbdock ($Id: //depot/dev/client3/rdock/2013.1/src/exe/rbdock.cxx#4 $)

>  <Rbt.Library>
libRbt.so (2013.1, Build901 2013/11/27)

>  <Rbt.Parameter_File>
/export/apps/rDock/src/rDock_2013.1_src/data/scripts/dock_solv.prm

>  <Rbt.Receptor>
prm/pocket_docking_3.prm

>  <SCORE>
-26.1133

>  <SCORE.INTER>
-26.1133

>  <SCORE.INTER.CONST>
1

>  <SCORE.INTER.POLAR>
-1.93632

>  <SCORE.INTER.ROT>
0

>  <SCORE.INTER.SOLV>
11.4775

>  <SCORE.INTER.VDW>
-18.3803

>  <SCORE.INTER.norm>
-2.61133

>  <SCORE.INTRA>
0

>  <SCORE.INTRA.DIHEDRAL>
0

>  <SCORE.INTRA.DIHEDRAL.0>
0

>  <SCORE.INTRA.POLAR>
0

>  <SCORE.INTRA.POLAR.0>
0

>  <SCORE.INTRA.REPUL>
0

>  <SCORE.INTRA.REPUL.0>
0

>  <SCORE.INTRA.SOLV>
0

>  <SCORE.INTRA.SOLV.lig_0>
-13.7928

>  <SCORE.INTRA.VDW>
0

>  <SCORE.INTRA.VDW.0>
0

>  <SCORE.INTRA.norm>
0

>  <SCORE.RESTR>
0

>  <SCORE.RESTR.CAVITY>
0

>  <SCORE.RESTR.norm>
0

>  <SCORE.SYSTEM>
0

>  <SCORE.SYSTEM.CONST>
0

>  <SCORE.SYSTEM.DIHEDRAL>
0

>  <SCORE.SYSTEM.SOLV>
0

>  <SCORE.SYSTEM.norm>
0

>  <SCORE.heavy>
10

>  <SCORE.norm>
-2.61133

>  <RMSD>
0.234

$$$$
1u8d_lig
 OpenBabel11021811413D
libRbt.so/2013.1/901 2013/11/27
 10 11  0  0  0  0  0  0  0  0999 V2000
   11.8672   10.5344    9.0827 N   0  0  0  0  0  0  0  0  0  0  0  0
   11.6016   11.9023    9.2651 C   0  0  0  0  0  0  0  0  0  0  0  0
   11.2230   12.7321    8.2597 N   0  0  0  0  0  0  0  0  0  0  0  0
   11.1270   12.1018    7.0689 C   0  0  0  0  0  0  0  0  0  0  0  0
   11.4059   10.6229    6.8064 C   0  0  0  0  0  0  0  0  0  0  0  0
   11.7964    9.8073    7.8796 C   0  0  0  0  0  0  0  0  0  0  0  0
   12.0612    8.6131    7.8990 O   0  0  0  0  0  0  0  0  0  0  0  0
   11.1914   10.4130    5.4717 N   0  0  0  0  0  0  0  0  0  0  0  0
   10.8055   11.6122    4.9243 C   0  0  0  0  0  0  0  0  0  0  0  0
   10.7571   12.6476    5.8538 N   0  0  0  0  0  0  0  0  0  0  0  0
  1  2  1  0  0  0  0
  1  6  1  0  0  0  0
  2  3  2  0  0  0  0
  3  4  1  0  0  0  0
  4  5  2  0  0  0  0
  4 10  1  0  0  0  0
  5  6  1  0  0  0  0
  5  8  1  0  0  0  0
  6  7  2  0  0  0  0
  8  9  1  0  0  0  0
  9 10  2  0  0  0  0
M  END
>  <CHROM.1>
11.39369635,11.06339656,7.26303762,0.27261915,-1.28171339,0.84528468

>  <Name>
1u8d_lig

>  <RI>
0

>  <Rbt.Current_Directory>
/home/itssahil/PROJECTS/Mol_Feturizer/New_Systems/rnas/1u8d

>  <Rbt.Executable>
rbdock ($Id: //depot/dev/client3/rdock/2013.1/src/exe/rbdock.cxx#4 $)

>  <Rbt.Library>
libRbt.so (2013.1, Build901 2013/11/27)

>  <Rbt.Parameter_File>
/export/apps/rDock/src/rDock_2013.1_src/data/scripts/dock_solv.prm

>  <Rbt.Receptor>
prm/pocket_docking_6.prm

>  <SCORE>
-26.0915

>  <SCORE.INTER>
-26.0915

>  <SCORE.INTER.CONST>
1

>  <SCORE.INTER.POLAR>
-1.93632

>  <SCORE.INTER.ROT>
0

>  <SCORE.INTER.SOLV>
11.4539

>  <SCORE.INTER.VDW>
-18.3579

>  <SCORE.INTER.norm>
-2.60915

>  <SCORE.INTRA>
0

>  <SCORE.INTRA.DIHEDRAL>
0

>  <SCORE.INTRA.DIHEDRAL.0>
0

>  <SCORE.INTRA.POLAR>
0

>  <SCORE.INTRA.POLAR.0>
0

>  <SCORE.INTRA.REPUL>
0

>  <SCORE.INTRA.REPUL.0>
0

>  <SCORE.INTRA.SOLV>
0

>  <SCORE.INTRA.SOLV.lig_0>
-13.7928

>  <SCORE.INTRA.VDW>
0

>  <SCORE.INTRA.VDW.0>
0

>  <SCORE.INTRA.norm>
0

>  <SCORE.RESTR>
0

>  <SCORE.RESTR.CAVITY>
0

>  <SCORE.RESTR.norm>
0

>  <SCORE.SYSTEM>
0

>  <SCORE.SYSTEM.CONST>
0

>  <SCORE.SYSTEM.DIHEDRAL>
0

>  <SCORE.SYSTEM.SOLV>
0

>  <SCORE.SYSTEM.norm>
0

>  <SCORE.heavy>
10

>  <SCORE.norm>
-2.60915

>  <RMSD>
0.234

$$$$
1u8d_lig
 OpenBabel11021811413D
libRbt.so/2013.1/901 2013/11/27
 10 11  0  0  0  0  0  0  0  0999 V2000
   11.6755   10.4949    9.1139 N   0  0  0  0  0  0  0  0  0  0  0  0
   11.3389   11.8472    9.2953 C   0  0  0  0  0  0  0  0  0  0  0  0
   11.0017   12.6781    8.2761 N   0  0  0  0  0  0  0  0  0  0  0  0
   11.0222   12.0654    7.0726 C   0  0  0  0  0  0  0  0  0  0  0  0
   11.3829   10.6042    6.8106 C   0  0  0  0  0  0  0  0  0  0  0  0
   11.7262    9.7868    7.8985 C   0  0  0  0  0  0  0  0  0  0  0  0
   12.0396    8.6044    7.9206 O   0  0  0  0  0  0  0  0  0  0  0  0
   11.2782   10.4091    5.4607 N   0  0  0  0  0  0  0  0  0  0  0  0
   10.8835   11.6006    4.9029 C   0  0  0  0  0  0  0  0  0  0  0  0
   10.7215   12.6167    5.8410 N   0  0  0  0  0  0  0  0  0  0  0  0
  1  2  1  0  0  0  0
  1  6  1  0  0  0  0
  2  3  2  0  0  0  0
  3  4  1  0  0  0  0
  4  5  2  0  0  0  0
  4 10  1  0  0  0  0
  5  6  1  0  0  0  0
  5  8  1  0  0  0  0
  6  7  2  0  0  0  0
  8  9  1  0  0  0  0
  9 10  2  0  0  0  0
M  END
>  <CHROM.1>
11.31766206,11.03569883,7.27134468,0.57889366,-1.28704674,1.15527452

>  <Name>
1u8d_lig

>  <RI>
0

>  <Rbt.Current_Directory>
/home/itssahil/PROJECTS/Mol_Feturizer/New_Systems/rnas/1u8d

>  <Rbt.Executable>
rbdock ($Id: //depot/dev/client3/rdock/2013.1/src/exe/rbdock.cxx#4 $)

>  <Rbt.Library>
libRbt.so (2013.1, Build901 2013/11/27)

>  <Rbt.Parameter_File>
/export/apps/rDock/src/rDock_2013.1_src/data/scripts/dock_solv.prm

>  <Rbt.Receptor>
prm/blind_docking_20.prm

>  <SCORE>
-25.7742

>  <SCORE.INTER>
-25.7742

>  <SCORE.INTER.CONST>
1

>  <SCORE.INTER.POLAR>
-1.93632

>  <SCORE.INTER.ROT>
0

>  <SCORE.INTER.SOLV>
11.6381

>  <SCORE.INTER.VDW>
-18.2078

>  <SCORE.INTER.norm>
-2.57742

>  <SCORE.INTRA>
0

>  <SCORE.INTRA.DIHEDRAL>
0

>  <SCORE.INTRA.DIHEDRAL.0>
0

>  <SCORE.INTRA.POLAR>
0

>  <SCORE.INTRA.POLAR.0>
0

>  <SCORE.INTRA.REPUL>
0

>  <SCORE.INTRA.REPUL.0>
0

>  <SCORE.INTRA.SOLV>
0

>  <SCORE.INTRA.SOLV.lig_0>
-13.7928

>  <SCORE.INTRA.VDW>
0

>  <SCORE.INTRA.VDW.0>
0

>  <SCORE.INTRA.norm>
0

>  <SCORE.RESTR>
0

>  <SCORE.RESTR.CAVITY>
0

>  <SCORE.RESTR.norm>
0

>  <SCORE.SYSTEM>
0

>  <SCORE.SYSTEM.CONST>
0

>  <SCORE.SYSTEM.DIHEDRAL>
0

>  <SCORE.SYSTEM.SOLV>
0

>  <SCORE.SYSTEM.norm>
0

>  <SCORE.heavy>
10

>  <SCORE.norm>
-2.57742

>  <RMSD>
0.235

$$$$
1u8d_lig
 OpenBabel11021811413D
libRbt.so/2013.1/901 2013/11/27
 10 11  0  0  0  0  0  0  0  0999 V2000
   11.8426   10.5458    9.0829 N   0  0  0  0  0  0  0  0  0  0  0  0
   11.5765   11.9143    9.2594 C   0  0  0  0  0  0  0  0  0  0  0  0
   11.2180   12.7441    8.2466 N   0  0  0  0  0  0  0  0  0  0  0  0
   11.1425   12.1131    7.0547 C   0  0  0  0  0  0  0  0  0  0  0  0
   11.4232   10.6335    6.7984 C   0  0  0  0  0  0  0  0  0  0  0  0
   11.7923    9.8179    7.8792 C   0  0  0  0  0  0  0  0  0  0  0  0
   12.0544    8.6232    7.9042 O   0  0  0  0  0  0  0  0  0  0  0  0
   11.2326   10.4231    5.4602 N   0  0  0  0  0  0  0  0  0  0  0  0
   10.8592   11.6226    4.9049 C   0  0  0  0  0  0  0  0  0  0  0  0
   10.7960   12.6588    5.8327 N   0  0  0  0  0  0  0  0  0  0  0  0
  1  2  1  0  0  0  0
  1  6  1  0  0  0  0
  2  3  2  0  0  0  0
  3  4  1  0  0  0  0
  4  5  2  0  0  0  0
  4 10  1  0  0  0  0
  5  6  1  0  0  0  0
  5  8  1  0  0  0  0
  6  7  2  0  0  0  0
  8  9  1  0  0  0  0
  9 10  2  0  0  0  0
M  END
>  <CHROM.1>
11.40349625,11.07436456,7.25444511,0.31792906,-1.29507487,0.88807938

>  <Name>
1u8d_lig

>  <RI>
0

>  <Rbt.Current_Directory>
/home/itssahil/PROJECTS/Mol_Feturizer/New_Systems/rnas/1u8d

>  <Rbt.Executable>
rbdock ($Id: //depot/dev/client3/rdock/2013.1/src/exe/rbdock.cxx#4 $)

>  <Rbt.Library>
libRbt.so (2013.1, Build901 2013/11/27)

>  <Rbt.Parameter_File>
/export/apps/rDock/src/rDock_2013.1_src/data/scripts/dock_solv.prm

>  <Rbt.Receptor>
prm/blind_docking_80.prm

>  <SCORE>
-26.0795

>  <SCORE.INTER>
-26.0795

>  <SCORE.INTER.CONST>
1

>  <SCORE.INTER.POLAR>
-1.93632

>  <SCORE.INTER.ROT>
0

>  <SCORE.INTER.SOLV>
11.4994

>  <SCORE.INTER.VDW>
-18.3651

>  <SCORE.INTER.norm>
-2.60795

>  <SCORE.INTRA>
0

>  <SCORE.INTRA.DIHEDRAL>
0

>  <SCORE.INTRA.DIHEDRAL.0>
0

>  <SCORE.INTRA.POLAR>
0

>  <SCORE.INTRA.POLAR.0>
0

>  <SCORE.INTRA.REPUL>
0

>  <SCORE.INTRA.REPUL.0>
0

>  <SCORE.INTRA.SOLV>
0

>  <SCORE.INTRA.SOLV.lig_0>
-13.7928

>  <SCORE.INTRA.VDW>
0

>  <SCORE.INTRA.VDW.0>
0

>  <SCORE.INTRA.norm>
0

>  <SCORE.RESTR>
0

>  <SCORE.RESTR.CAVITY>
0

>  <SCORE.RESTR.norm>
0

>  <SCORE.SYSTEM>
0

>  <SCORE.SYSTEM.CONST>
0

>  <SCORE.SYSTEM.DIHEDRAL>
0

>  <SCORE.SYSTEM.SOLV>
0

>  <SCORE.SYSTEM.norm>
0

>  <SCORE.heavy>
10

>  <SCORE.norm>
-2.60795

>  <RMSD>
0.235

$$$$
1u8d_lig
 OpenBabel11021811413D
libRbt.so/2013.1/901 2013/11/27
 10 11  0  0  0  0  0  0  0  0999 V2000
   11.8578   10.5594    9.0845 N   0  0  0  0  0  0  0  0  0  0  0  0
   11.6014   11.9304    9.2562 C   0  0  0  0  0  0  0  0  0  0  0  0
   11.2357   12.7564    8.2430 N   0  0  0  0  0  0  0  0  0  0  0  0
   11.1426   12.1191    7.0557 C   0  0  0  0  0  0  0  0  0  0  0  0
   11.4119   10.6365    6.8046 C   0  0  0  0  0  0  0  0  0  0  0  0
   11.7892    9.8250    7.8857 C   0  0  0  0  0  0  0  0  0  0  0  0
   12.0449    8.6289    7.9145 O   0  0  0  0  0  0  0  0  0  0  0  0
   11.2044   10.4195    5.4700 N   0  0  0  0  0  0  0  0  0  0  0  0
   10.8311   11.6179    4.9123 C   0  0  0  0  0  0  0  0  0  0  0  0
   10.7847   12.6598    5.8347 N   0  0  0  0  0  0  0  0  0  0  0  0
  1  2  1  0  0  0  0
  1  6  1  0  0  0  0
  2  3  2  0  0  0  0
  3  4  1  0  0  0  0
  4  5  2  0  0  0  0
  4 10  1  0  0  0  0
  5  6  1  0  0  0  0
  5  8  1  0  0  0  0
  6  7  2  0  0  0  0
  8  9  1  0  0  0  0
  9 10  2  0  0  0  0
M  END
>  <CHROM.1>
11.40008687,11.08002471,7.25831869,0.27179956,-1.29167438,0.83796695

>  <Name>
1u8d_lig

>  <RI>
0

>  <Rbt.Current_Directory>
/home/itssahil/PROJECTS/Mol_Feturizer/New_Systems/rnas/1u8d

>  <Rbt.Executable>
rbdock ($Id: //depot/dev/client3/rdock/2013.1/src/exe/rbdock.cxx#4 $)

>  <Rbt.Library>
libRbt.so (2013.1, Build901 2013/11/27)

>  <Rbt.Parameter_File>
/export/apps/rDock/src/rDock_2013.1_src/data/scripts/dock_solv.prm

>  <Rbt.Receptor>
prm/pocket_docking_4.prm

>  <SCORE>
-26.0916

>  <SCORE.INTER>
-26.0916

>  <SCORE.INTER.CONST>
1

>  <SCORE.INTER.POLAR>
-1.93632

>  <SCORE.INTER.ROT>
0

>  <SCORE.INTER.SOLV>
11.4835

>  <SCORE.INTER.VDW>
-18.3679

>  <SCORE.INTER.norm>
-2.60916

>  <SCORE.INTRA>
0

>  <SCORE.INTRA.DIHEDRAL>
0

>  <SCORE.INTRA.DIHEDRAL.0>
0

>  <SCORE.INTRA.POLAR>
0

>  <SCORE.INTRA.POLAR.0>
0

>  <SCORE.INTRA.REPUL>
0

>  <SCORE.INTRA.REPUL.0>
0

>  <SCORE.INTRA.SOLV>
0

>  <SCORE.INTRA.SOLV.lig_0>
-13.7928

>  <SCORE.INTRA.VDW>
0

>  <SCORE.INTRA.VDW.0>
0

>  <SCORE.INTRA.norm>
0

>  <SCORE.RESTR>
0

>  <SCORE.RESTR.CAVITY>
0

>  <SCORE.RESTR.norm>
0

>  <SCORE.SYSTEM>
0

>  <SCORE.SYSTEM.CONST>
0

>  <SCORE.SYSTEM.DIHEDRAL>
0

>  <SCORE.SYSTEM.SOLV>
0

>  <SCORE.SYSTEM.norm>
0

>  <SCORE.heavy>
10

>  <SCORE.norm>
-2.60916

>  <RMSD>
0.235

$$$$
1u8d_lig
 OpenBabel11021811413D
libRbt.so/2013.1/901 2013/11/27
 10 11  0  0  0  0  0  0  0  0999 V2000
   11.8492   10.5281    9.0831 N   0  0  0  0  0  0  0  0  0  0  0  0
   11.5782   11.8951    9.2641 C   0  0  0  0  0  0  0  0  0  0  0  0
   11.2092   12.7252    8.2554 N   0  0  0  0  0  0  0  0  0  0  0  0
   11.1283   12.0962    7.0628 C   0  0  0  0  0  0  0  0  0  0  0  0
   11.4138   10.6183    6.8017 C   0  0  0  0  0  0  0  0  0  0  0  0
   11.7939    9.8023    7.8784 C   0  0  0  0  0  0  0  0  0  0  0  0
   12.0614    8.6087    7.8993 O   0  0  0  0  0  0  0  0  0  0  0  0
   11.2150   10.4096    5.4644 N   0  0  0  0  0  0  0  0  0  0  0  0
   10.8325   11.6085    4.9141 C   0  0  0  0  0  0  0  0  0  0  0  0
   10.7710   12.6427    5.8442 N   0  0  0  0  0  0  0  0  0  0  0  0
  1  2  1  0  0  0  0
  1  6  1  0  0  0  0
  2  3  2  0  0  0  0
  3  4  1  0  0  0  0
  4  5  2  0  0  0  0
  4 10  1  0  0  0  0
  5  6  1  0  0  0  0
  5  8  1  0  0  0  0
  6  7  2  0  0  0  0
  8  9  1  0  0  0  0
  9 10  2  0  0  0  0
M  END
>  <CHROM.1>
11.39524303,11.05820785,7.25872297,0.30893608,-1.28731340,0.88134810

>  <Name>
1u8d_lig

>  <RI>
0

>  <Rbt.Current_Directory>
/home/itssahil/PROJECTS/Mol_Feturizer/New_Systems/rnas/1u8d

>  <Rbt.Executable>
rbdock ($Id: //depot/dev/client3/rdock/2013.1/src/exe/rbdock.cxx#4 $)

>  <Rbt.Library>
libRbt.so (2013.1, Build901 2013/11/27)

>  <Rbt.Parameter_File>
/export/apps/rDock/src/rDock_2013.1_src/data/scripts/dock_solv.prm

>  <Rbt.Receptor>
prm/pocket_docking_6.prm

>  <SCORE>
-26.1132

>  <SCORE.INTER>
-26.1132

>  <SCORE.INTER.CONST>
1

>  <SCORE.INTER.POLAR>
-1.93632

>  <SCORE.INTER.ROT>
0

>  <SCORE.INTER.SOLV>
11.4785

>  <SCORE.INTER.VDW>
-18.3806

>  <SCORE.INTER.norm>
-2.61132

>  <SCORE.INTRA>
0

>  <SCORE.INTRA.DIHEDRAL>
0

>  <SCORE.INTRA.DIHEDRAL.0>
0

>  <SCORE.INTRA.POLAR>
0

>  <SCORE.INTRA.POLAR.0>
0

>  <SCORE.INTRA.REPUL>
0

>  <SCORE.INTRA.REPUL.0>
0

>  <SCORE.INTRA.SOLV>
0

>  <SCORE.INTRA.SOLV.lig_0>
-13.7928

>  <SCORE.INTRA.VDW>
0

>  <SCORE.INTRA.VDW.0>
0

>  <SCORE.INTRA.norm>
0

>  <SCORE.RESTR>
0

>  <SCORE.RESTR.CAVITY>
0

>  <SCORE.RESTR.norm>
0

>  <SCORE.SYSTEM>
0

>  <SCORE.SYSTEM.CONST>
0

>  <SCORE.SYSTEM.DIHEDRAL>
0

>  <SCORE.SYSTEM.SOLV>
0

>  <SCORE.SYSTEM.norm>
0

>  <SCORE.heavy>
10

>  <SCORE.norm>
-2.61132

>  <RMSD>
0.235

$$$$
1u8d_lig
 OpenBabel11021811413D
libRbt.so/2013.1/901 2013/11/27
 10 11  0  0  0  0  0  0  0  0999 V2000
   11.6831   10.5084    9.0984 N   0  0  0  0  0  0  0  0  0  0  0  0
   11.3394   11.8586    9.2825 C   0  0  0  0  0  0  0  0  0  0  0  0
   10.9988   12.6900    8.2649 N   0  0  0  0  0  0  0  0  0  0  0  0
   11.0234   12.0801    7.0600 C   0  0  0  0  0  0  0  0  0  0  0  0
   11.3918   10.6213    6.7951 C   0  0  0  0  0  0  0  0  0  0  0  0
   11.7384    9.8032    7.8815 C   0  0  0  0  0  0  0  0  0  0  0  0
   12.0579    8.6224    7.9013 O   0  0  0  0  0  0  0  0  0  0  0  0
   11.2892   10.4286    5.4447 N   0  0  0  0  0  0  0  0  0  0  0  0
   10.8889   11.6194    4.8893 C   0  0  0  0  0  0  0  0  0  0  0  0
   10.7209   12.6325    5.8294 N   0  0  0  0  0  0  0  0  0  0  0  0
  1  2  1  0  0  0  0
  1  6  1  0  0  0  0
  2  3  2  0  0  0  0
  3  4  1  0  0  0  0
  4  5  2  0  0  0  0
  4 10  1  0  0  0  0
  5  6  1  0  0  0  0
  5  8  1  0  0  0  0
  6  7  2  0  0  0  0
  8  9  1  0  0  0  0
  9 10  2  0  0  0  0
M  END
>  <CHROM.1>
11.32398327,11.05145669,7.25678237,0.58875547,-1.28265484,1.16694211

>  <Name>
1u8d_lig

>  <RI>
0

>  <Rbt.Current_Directory>
/home/itssahil/PROJECTS/Mol_Feturizer/New_Systems/rnas/1u8d

>  <Rbt.Executable>
rbdock ($Id: //depot/dev/client3/rdock/2013.1/src/exe/rbdock.cxx#4 $)

>  <Rbt.Library>
libRbt.so (2013.1, Build901 2013/11/27)

>  <Rbt.Parameter_File>
/export/apps/rDock/src/rDock_2013.1_src/data/scripts/dock_solv.prm

>  <Rbt.Receptor>
prm/blind_docking_20.prm

>  <SCORE>
-25.7595

>  <SCORE.INTER>
-25.7599

>  <SCORE.INTER.CONST>
1

>  <SCORE.INTER.POLAR>
-1.93632

>  <SCORE.INTER.ROT>
0

>  <SCORE.INTER.SOLV>
11.6245

>  <SCORE.INTER.VDW>
-18.1937

>  <SCORE.INTER.norm>
-2.57599

>  <SCORE.INTRA>
0

>  <SCORE.INTRA.DIHEDRAL>
0

>  <SCORE.INTRA.DIHEDRAL.0>
0

>  <SCORE.INTRA.POLAR>
0

>  <SCORE.INTRA.POLAR.0>
0

>  <SCORE.INTRA.REPUL>
0

>  <SCORE.INTRA.REPUL.0>
0

>  <SCORE.INTRA.SOLV>
0

>  <SCORE.INTRA.SOLV.lig_0>
-13.7928

>  <SCORE.INTRA.VDW>
0

>  <SCORE.INTRA.VDW.0>
0

>  <SCORE.INTRA.norm>
0

>  <SCORE.RESTR>
0.000416764

>  <SCORE.RESTR.CAVITY>
0.000416764

>  <SCORE.RESTR.norm>
4.16764e-05

>  <SCORE.SYSTEM>
0

>  <SCORE.SYSTEM.CONST>
0

>  <SCORE.SYSTEM.DIHEDRAL>
0

>  <SCORE.SYSTEM.SOLV>
0

>  <SCORE.SYSTEM.norm>
0

>  <SCORE.heavy>
10

>  <SCORE.norm>
-2.57595

>  <RMSD>
0.236

$$$$
1u8d_lig
 OpenBabel11021811413D
libRbt.so/2013.1/901 2013/11/27
 10 11  0  0  0  0  0  0  0  0999 V2000
   11.8897   10.5735    9.0787 N   0  0  0  0  0  0  0  0  0  0  0  0
   11.6117   11.9417    9.2389 C   0  0  0  0  0  0  0  0  0  0  0  0
   11.2390   12.7545    8.2175 N   0  0  0  0  0  0  0  0  0  0  0  0
   11.1619   12.1071    7.0346 C   0  0  0  0  0  0  0  0  0  0  0  0
   11.4550   10.6269    6.7960 C   0  0  0  0  0  0  0  0  0  0  0  0
   11.8387    9.8293    7.8852 C   0  0  0  0  0  0  0  0  0  0  0  0
   12.1123    8.6375    7.9243 O   0  0  0  0  0  0  0  0  0  0  0  0
   11.2580   10.3969    5.4620 N   0  0  0  0  0  0  0  0  0  0  0  0
   10.8697   11.5853    4.8934 C   0  0  0  0  0  0  0  0  0  0  0  0
   10.8025   12.6331    5.8077 N   0  0  0  0  0  0  0  0  0  0  0  0
  1  2  1  0  0  0  0
  1  6  1  0  0  0  0
  2  3  2  0  0  0  0
  3  4  1  0  0  0  0
  4  5  2  0  0  0  0
  4 10  1  0  0  0  0
  5  6  1  0  0  0  0
  5  8  1  0  0  0  0
  6  7  2  0  0  0  0
  8  9  1  0  0  0  0
  9 10  2  0  0  0  0
M  END
>  <CHROM.1>
11.43404155,11.07355158,7.24635210,0.32176534,-1.28369680,0.87847951

>  <Name>
1u8d_lig

>  <RI>
0

>  <Rbt.Current_Directory>
/home/itssahil/PROJECTS/Mol_Feturizer/New_Systems/rnas/1u8d

>  <Rbt.Executable>
rbdock ($Id: //depot/dev/client3/rdock/2013.1/src/exe/rbdock.cxx#4 $)

>  <Rbt.Library>
libRbt.so (2013.1, Build901 2013/11/27)

>  <Rbt.Parameter_File>
/export/apps/rDock/src/rDock_2013.1_src/data/scripts/dock_solv.prm

>  <Rbt.Receptor>
prm/blind_docking_40.prm

>  <SCORE>
-26.0755

>  <SCORE.INTER>
-26.0755

>  <SCORE.INTER.CONST>
1

>  <SCORE.INTER.POLAR>
-1.93632

>  <SCORE.INTER.ROT>
0

>  <SCORE.INTER.SOLV>
11.4479

>  <SCORE.INTER.VDW>
-18.3453

>  <SCORE.INTER.norm>
-2.60755

>  <SCORE.INTRA>
0

>  <SCORE.INTRA.DIHEDRAL>
0

>  <SCORE.INTRA.DIHEDRAL.0>
0

>  <SCORE.INTRA.POLAR>
0

>  <SCORE.INTRA.POLAR.0>
0

>  <SCORE.INTRA.REPUL>
0

>  <SCORE.INTRA.REPUL.0>
0

>  <SCORE.INTRA.SOLV>
0

>  <SCORE.INTRA.SOLV.lig_0>
-13.7928

>  <SCORE.INTRA.VDW>
0

>  <SCORE.INTRA.VDW.0>
0

>  <SCORE.INTRA.norm>
0

>  <SCORE.RESTR>
0

>  <SCORE.RESTR.CAVITY>
0

>  <SCORE.RESTR.norm>
0

>  <SCORE.SYSTEM>
0

>  <SCORE.SYSTEM.CONST>
0

>  <SCORE.SYSTEM.DIHEDRAL>
0

>  <SCORE.SYSTEM.SOLV>
0

>  <SCORE.SYSTEM.norm>
0

>  <SCORE.heavy>
10

>  <SCORE.norm>
-2.60755

>  <RMSD>
0.236

$$$$
1u8d_lig
 OpenBabel11021811413D
libRbt.so/2013.1/901 2013/11/27
 10 11  0  0  0  0  0  0  0  0999 V2000
   11.8475   10.5226    9.0897 N   0  0  0  0  0  0  0  0  0  0  0  0
   11.5830   11.8913    9.2682 C   0  0  0  0  0  0  0  0  0  0  0  0
   11.2175   12.7212    8.2581 N   0  0  0  0  0  0  0  0  0  0  0  0
   11.1333   12.0904    7.0667 C   0  0  0  0  0  0  0  0  0  0  0  0
   11.4117   10.6107    6.8082 C   0  0  0  0  0  0  0  0  0  0  0  0
   11.7883    9.7949    7.8863 C   0  0  0  0  0  0  0  0  0  0  0  0
   12.0502    8.6001    7.9093 O   0  0  0  0  0  0  0  0  0  0  0  0
   11.2116   10.4004    5.4714 N   0  0  0  0  0  0  0  0  0  0  0  0
   10.8345   11.6001    4.9190 C   0  0  0  0  0  0  0  0  0  0  0  0
   10.7782   12.6363    5.8473 N   0  0  0  0  0  0  0  0  0  0  0  0
  1  2  1  0  0  0  0
  1  6  1  0  0  0  0
  2  3  2  0  0  0  0
  3  4  1  0  0  0  0
  4  5  2  0  0  0  0
  4 10  1  0  0  0  0
  5  6  1  0  0  0  0
  5  8  1  0  0  0  0
  6  7  2  0  0  0  0
  8  9  1  0  0  0  0
  9 10  2  0  0  0  0
M  END
>  <CHROM.1>
11.39544028,11.05151632,7.26447164,0.29718311,-1.29072552,0.86821504

>  <Name>
1u8d_lig

>  <RI>
0

>  <Rbt.Current_Directory>
/home/itssahil/PROJECTS/Mol_Feturizer/New_Systems/rnas/1u8d

>  <Rbt.Executable>
rbdock ($Id: //depot/dev/client3/rdock/2013.1/src/exe/rbdock.cxx#4 $)

>  <Rbt.Library>
libRbt.so (2013.1, Build901 2013/11/27)

>  <Rbt.Parameter_File>
/export/apps/rDock/src/rDock_2013.1_src/data/scripts/dock_solv.prm

>  <Rbt.Receptor>
prm/blind_docking_80.prm

>  <SCORE>
-26.1035

>  <SCORE.INTER>
-26.1035

>  <SCORE.INTER.CONST>
1

>  <SCORE.INTER.POLAR>
-1.93632

>  <SCORE.INTER.ROT>
0

>  <SCORE.INTER.SOLV>
11.4879

>  <SCORE.INTER.VDW>
-18.3772

>  <SCORE.INTER.norm>
-2.61035

>  <SCORE.INTRA>
0

>  <SCORE.INTRA.DIHEDRAL>
0

>  <SCORE.INTRA.DIHEDRAL.0>
0

>  <SCORE.INTRA.POLAR>
0

>  <SCORE.INTRA.POLAR.0>
0

>  <SCORE.INTRA.REPUL>
0

>  <SCORE.INTRA.REPUL.0>
0

>  <SCORE.INTRA.SOLV>
0

>  <SCORE.INTRA.SOLV.lig_0>
-13.7928

>  <SCORE.INTRA.VDW>
0

>  <SCORE.INTRA.VDW.0>
0

>  <SCORE.INTRA.norm>
0

>  <SCORE.RESTR>
0

>  <SCORE.RESTR.CAVITY>
0

>  <SCORE.RESTR.norm>
0

>  <SCORE.SYSTEM>
0

>  <SCORE.SYSTEM.CONST>
0

>  <SCORE.SYSTEM.DIHEDRAL>
0

>  <SCORE.SYSTEM.SOLV>
0

>  <SCORE.SYSTEM.norm>
0

>  <SCORE.heavy>
10

>  <SCORE.norm>
-2.61035

>  <RMSD>
0.236

$$$$
1u8d_lig
 OpenBabel11021811413D
libRbt.so/2013.1/901 2013/11/27
 10 11  0  0  0  0  0  0  0  0999 V2000
   11.8438   10.5369    9.0768 N   0  0  0  0  0  0  0  0  0  0  0  0
   11.5674   11.9031    9.2556 C   0  0  0  0  0  0  0  0  0  0  0  0
   11.1991   12.7310    8.2449 N   0  0  0  0  0  0  0  0  0  0  0  0
   11.1246   12.1007    7.0526 C   0  0  0  0  0  0  0  0  0  0  0  0
   11.4161   10.6236    6.7938 C   0  0  0  0  0  0  0  0  0  0  0  0
   11.7953    9.8098    7.8726 C   0  0  0  0  0  0  0  0  0  0  0  0
   12.0668    8.6172    7.8955 O   0  0  0  0  0  0  0  0  0  0  0  0
   11.2228   10.4130    5.4561 N   0  0  0  0  0  0  0  0  0  0  0  0
   10.8381   11.6100    4.9033 C   0  0  0  0  0  0  0  0  0  0  0  0
   10.7697   12.6448    5.8323 N   0  0  0  0  0  0  0  0  0  0  0  0
  1  2  1  0  0  0  0
  1  6  1  0  0  0  0
  2  3  2  0  0  0  0
  3  4  1  0  0  0  0
  4  5  2  0  0  0  0
  4 10  1  0  0  0  0
  5  6  1  0  0  0  0
  5  8  1  0  0  0  0
  6  7  2  0  0  0  0
  8  9  1  0  0  0  0
  9 10  2  0  0  0  0
M  END
>  <CHROM.1>
11.39447434,11.06378219,7.25039221,0.32653402,-1.28684233,0.89735743

>  <Name>
1u8d_lig

>  <RI>
0

>  <Rbt.Current_Directory>
/home/itssahil/PROJECTS/Mol_Feturizer/New_Systems/rnas/1u8d

>  <Rbt.Executable>
rbdock ($Id: //depot/dev/client3/rdock/2013.1/src/exe/rbdock.cxx#4 $)

>  <Rbt.Library>
libRbt.so (2013.1, Build901 2013/11/27)

>  <Rbt.Parameter_File>
/export/apps/rDock/src/rDock_2013.1_src/data/scripts/dock_solv.prm

>  <Rbt.Receptor>
prm/pocket_docking_3.prm

>  <SCORE>
-26.1131

>  <SCORE.INTER>
-26.1131

>  <SCORE.INTER.CONST>
1

>  <SCORE.INTER.POLAR>
-1.93632

>  <SCORE.INTER.ROT>
0

>  <SCORE.INTER.SOLV>
11.482

>  <SCORE.INTER.VDW>
-18.3817

>  <SCORE.INTER.norm>
-2.61131

>  <SCORE.INTRA>
0

>  <SCORE.INTRA.DIHEDRAL>
0

>  <SCORE.INTRA.DIHEDRAL.0>
0

>  <SCORE.INTRA.POLAR>
0

>  <SCORE.INTRA.POLAR.0>
0

>  <SCORE.INTRA.REPUL>
0

>  <SCORE.INTRA.REPUL.0>
0

>  <SCORE.INTRA.SOLV>
0

>  <SCORE.INTRA.SOLV.lig_0>
-13.7928

>  <SCORE.INTRA.VDW>
0

>  <SCORE.INTRA.VDW.0>
0

>  <SCORE.INTRA.norm>
0

>  <SCORE.RESTR>
0

>  <SCORE.RESTR.CAVITY>
0

>  <SCORE.RESTR.norm>
0

>  <SCORE.SYSTEM>
0

>  <SCORE.SYSTEM.CONST>
0

>  <SCORE.SYSTEM.DIHEDRAL>
0

>  <SCORE.SYSTEM.SOLV>
0

>  <SCORE.SYSTEM.norm>
0

>  <SCORE.heavy>
10

>  <SCORE.norm>
-2.61131

>  <RMSD>
0.236

$$$$
1u8d_lig
 OpenBabel11021811413D
libRbt.so/2013.1/901 2013/11/27
 10 11  0  0  0  0  0  0  0  0999 V2000
   11.8474   10.5316    9.0799 N   0  0  0  0  0  0  0  0  0  0  0  0
   11.5749   11.8984    9.2603 C   0  0  0  0  0  0  0  0  0  0  0  0
   11.2059   12.7278    8.2510 N   0  0  0  0  0  0  0  0  0  0  0  0
   11.1266   12.0983    7.0585 C   0  0  0  0  0  0  0  0  0  0  0  0
   11.4137   10.6206    6.7981 C   0  0  0  0  0  0  0  0  0  0  0  0
   11.7937    9.8054    7.8754 C   0  0  0  0  0  0  0  0  0  0  0  0
   12.0624    8.6120    7.8969 O   0  0  0  0  0  0  0  0  0  0  0  0
   11.2163   10.4113    5.4608 N   0  0  0  0  0  0  0  0  0  0  0  0
   10.8330   11.6096    4.9097 C   0  0  0  0  0  0  0  0  0  0  0  0
   10.7698   12.6440    5.8395 N   0  0  0  0  0  0  0  0  0  0  0  0
  1  2  1  0  0  0  0
  1  6  1  0  0  0  0
  2  3  2  0  0  0  0
  3  4  1  0  0  0  0
  4  5  2  0  0  0  0
  4 10  1  0  0  0  0
  5  6  1  0  0  0  0
  5  8  1  0  0  0  0
  6  7  2  0  0  0  0
  8  9  1  0  0  0  0
  9 10  2  0  0  0  0
M  END
>  <CHROM.1>
11.39439587,11.06064458,7.25501657,0.31339984,-1.28707818,0.88530761

>  <Name>
1u8d_lig

>  <RI>
0

>  <Rbt.Current_Directory>
/home/itssahil/PROJECTS/Mol_Feturizer/New_Systems/rnas/1u8d

>  <Rbt.Executable>
rbdock ($Id: //depot/dev/client3/rdock/2013.1/src/exe/rbdock.cxx#4 $)

>  <Rbt.Library>
libRbt.so (2013.1, Build901 2013/11/27)

>  <Rbt.Parameter_File>
/export/apps/rDock/src/rDock_2013.1_src/data/scripts/dock_solv.prm

>  <Rbt.Receptor>
prm/pocket_docking_5.prm

>  <SCORE>
-26.1142

>  <SCORE.INTER>
-26.1142

>  <SCORE.INTER.CONST>
1

>  <SCORE.INTER.POLAR>
-1.93632

>  <SCORE.INTER.ROT>
0

>  <SCORE.INTER.SOLV>
11.4793

>  <SCORE.INTER.VDW>
-18.3815

>  <SCORE.INTER.norm>
-2.61142

>  <SCORE.INTRA>
0

>  <SCORE.INTRA.DIHEDRAL>
0

>  <SCORE.INTRA.DIHEDRAL.0>
0

>  <SCORE.INTRA.POLAR>
0

>  <SCORE.INTRA.POLAR.0>
0

>  <SCORE.INTRA.REPUL>
0

>  <SCORE.INTRA.REPUL.0>
0

>  <SCORE.INTRA.SOLV>
0

>  <SCORE.INTRA.SOLV.lig_0>
-13.7928

>  <SCORE.INTRA.VDW>
0

>  <SCORE.INTRA.VDW.0>
0

>  <SCORE.INTRA.norm>
0

>  <SCORE.RESTR>
0

>  <SCORE.RESTR.CAVITY>
0

>  <SCORE.RESTR.norm>
0

>  <SCORE.SYSTEM>
0

>  <SCORE.SYSTEM.CONST>
0

>  <SCORE.SYSTEM.DIHEDRAL>
0

>  <SCORE.SYSTEM.SOLV>
0

>  <SCORE.SYSTEM.norm>
0

>  <SCORE.heavy>
10

>  <SCORE.norm>
-2.61142

>  <RMSD>
0.236

$$$$
1u8d_lig
 OpenBabel11021811413D
libRbt.so/2013.1/901 2013/11/27
 10 11  0  0  0  0  0  0  0  0999 V2000
   11.8642   10.5307    9.0815 N   0  0  0  0  0  0  0  0  0  0  0  0
   11.5976   11.8986    9.2630 C   0  0  0  0  0  0  0  0  0  0  0  0
   11.2227   12.7284    8.2562 N   0  0  0  0  0  0  0  0  0  0  0  0
   11.1313   12.0982    7.0650 C   0  0  0  0  0  0  0  0  0  0  0  0
   11.4115   10.6194    6.8034 C   0  0  0  0  0  0  0  0  0  0  0  0
   11.7981    9.8038    7.8781 C   0  0  0  0  0  0  0  0  0  0  0  0
   12.0631    8.6096    7.8983 O   0  0  0  0  0  0  0  0  0  0  0  0
   11.2021   10.4096    5.4679 N   0  0  0  0  0  0  0  0  0  0  0  0
   10.8180   11.6087    4.9192 C   0  0  0  0  0  0  0  0  0  0  0  0
   10.7659   12.6441    5.8486 N   0  0  0  0  0  0  0  0  0  0  0  0
  1  2  1  0  0  0  0
  1  6  1  0  0  0  0
  2  3  2  0  0  0  0
  3  4  1  0  0  0  0
  4  5  2  0  0  0  0
  4 10  1  0  0  0  0
  5  6  1  0  0  0  0
  5  8  1  0  0  0  0
  6  7  2  0  0  0  0
  8  9  1  0  0  0  0
  9 10  2  0  0  0  0
M  END
>  <CHROM.1>
11.39748964,11.05981959,7.26006253,0.28308250,-1.28405291,0.85540775

>  <Name>
1u8d_lig

>  <RI>
0

>  <Rbt.Current_Directory>
/home/itssahil/PROJECTS/Mol_Feturizer/New_Systems/rnas/1u8d

>  <Rbt.Executable>
rbdock ($Id: //depot/dev/client3/rdock/2013.1/src/exe/rbdock.cxx#4 $)

>  <Rbt.Library>
libRbt.so (2013.1, Build901 2013/11/27)

>  <Rbt.Parameter_File>
/export/apps/rDock/src/rDock_2013.1_src/data/scripts/dock_solv.prm

>  <Rbt.Receptor>
prm/pocket_docking_8.prm

>  <SCORE>
-26.0984

>  <SCORE.INTER>
-26.0984

>  <SCORE.INTER.CONST>
1

>  <SCORE.INTER.POLAR>
-1.93632

>  <SCORE.INTER.ROT>
0

>  <SCORE.INTER.SOLV>
11.4596

>  <SCORE.INTER.VDW>
-18.3644

>  <SCORE.INTER.norm>
-2.60984

>  <SCORE.INTRA>
0

>  <SCORE.INTRA.DIHEDRAL>
0

>  <SCORE.INTRA.DIHEDRAL.0>
0

>  <SCORE.INTRA.POLAR>
0

>  <SCORE.INTRA.POLAR.0>
0

>  <SCORE.INTRA.REPUL>
0

>  <SCORE.INTRA.REPUL.0>
0

>  <SCORE.INTRA.SOLV>
0

>  <SCORE.INTRA.SOLV.lig_0>
-13.7928

>  <SCORE.INTRA.VDW>
0

>  <SCORE.INTRA.VDW.0>
0

>  <SCORE.INTRA.norm>
0

>  <SCORE.RESTR>
0

>  <SCORE.RESTR.CAVITY>
0

>  <SCORE.RESTR.norm>
0

>  <SCORE.SYSTEM>
0

>  <SCORE.SYSTEM.CONST>
0

>  <SCORE.SYSTEM.DIHEDRAL>
0

>  <SCORE.SYSTEM.SOLV>
0

>  <SCORE.SYSTEM.norm>
0

>  <SCORE.heavy>
10

>  <SCORE.norm>
-2.60984

>  <RMSD>
0.236

$$$$
1u8d_lig
 OpenBabel11021811413D
libRbt.so/2013.1/901 2013/11/27
 10 11  0  0  0  0  0  0  0  0999 V2000
   11.8433   10.5401    9.0811 N   0  0  0  0  0  0  0  0  0  0  0  0
   11.5750   11.9081    9.2592 C   0  0  0  0  0  0  0  0  0  0  0  0
   11.2166   12.7387    8.2472 N   0  0  0  0  0  0  0  0  0  0  0  0
   11.1433   12.1093    7.0543 C   0  0  0  0  0  0  0  0  0  0  0  0
   11.4263   10.6304    6.7963 C   0  0  0  0  0  0  0  0  0  0  0  0
   11.7954    9.8138    7.8764 C   0  0  0  0  0  0  0  0  0  0  0  0
   12.0591    8.6194    7.9001 O   0  0  0  0  0  0  0  0  0  0  0  0
   11.2376   10.4215    5.4576 N   0  0  0  0  0  0  0  0  0  0  0  0
   10.8631   11.6212    4.9035 C   0  0  0  0  0  0  0  0  0  0  0  0
   10.7974   12.6561    5.8327 N   0  0  0  0  0  0  0  0  0  0  0  0
  1  2  1  0  0  0  0
  1  6  1  0  0  0  0
  2  3  2  0  0  0  0
  3  4  1  0  0  0  0
  4  5  2  0  0  0  0
  4 10  1  0  0  0  0
  5  6  1  0  0  0  0
  5  8  1  0  0  0  0
  6  7  2  0  0  0  0
  8  9  1  0  0  0  0
  9 10  2  0  0  0  0
M  END
>  <CHROM.1>
11.40552295,11.07057646,7.25292395,0.32441642,-1.29470408,0.89567273

>  <Name>
1u8d_lig

>  <RI>
0

>  <Rbt.Current_Directory>
/home/itssahil/PROJECTS/Mol_Feturizer/New_Systems/rnas/1u8d

>  <Rbt.Executable>
rbdock ($Id: //depot/dev/client3/rdock/2013.1/src/exe/rbdock.cxx#4 $)

>  <Rbt.Library>
libRbt.so (2013.1, Build901 2013/11/27)

>  <Rbt.Parameter_File>
/export/apps/rDock/src/rDock_2013.1_src/data/scripts/dock_solv.prm

>  <Rbt.Receptor>
prm/blind_docking_80.prm

>  <SCORE>
-26.0798

>  <SCORE.INTER>
-26.0798

>  <SCORE.INTER.CONST>
1

>  <SCORE.INTER.POLAR>
-1.93632

>  <SCORE.INTER.ROT>
0

>  <SCORE.INTER.SOLV>
11.4974

>  <SCORE.INTER.VDW>
-18.3646

>  <SCORE.INTER.norm>
-2.60798

>  <SCORE.INTRA>
0

>  <SCORE.INTRA.DIHEDRAL>
0

>  <SCORE.INTRA.DIHEDRAL.0>
0

>  <SCORE.INTRA.POLAR>
0

>  <SCORE.INTRA.POLAR.0>
0

>  <SCORE.INTRA.REPUL>
0

>  <SCORE.INTRA.REPUL.0>
0

>  <SCORE.INTRA.SOLV>
0

>  <SCORE.INTRA.SOLV.lig_0>
-13.7928

>  <SCORE.INTRA.VDW>
0

>  <SCORE.INTRA.VDW.0>
0

>  <SCORE.INTRA.norm>
0

>  <SCORE.RESTR>
0

>  <SCORE.RESTR.CAVITY>
0

>  <SCORE.RESTR.norm>
0

>  <SCORE.SYSTEM>
0

>  <SCORE.SYSTEM.CONST>
0

>  <SCORE.SYSTEM.DIHEDRAL>
0

>  <SCORE.SYSTEM.SOLV>
0

>  <SCORE.SYSTEM.norm>
0

>  <SCORE.heavy>
10

>  <SCORE.norm>
-2.60798

>  <RMSD>
0.237

$$$$
1u8d_lig
 OpenBabel11021811413D
libRbt.so/2013.1/901 2013/11/27
 10 11  0  0  0  0  0  0  0  0999 V2000
   11.6712   10.4936    9.1127 N   0  0  0  0  0  0  0  0  0  0  0  0
   11.3353   11.8463    9.2925 C   0  0  0  0  0  0  0  0  0  0  0  0
   11.0032   12.6773    8.2717 N   0  0  0  0  0  0  0  0  0  0  0  0
   11.0281   12.0643    7.0684 C   0  0  0  0  0  0  0  0  0  0  0  0
   11.3883   10.6027    6.8082 C   0  0  0  0  0  0  0  0  0  0  0  0
   11.7262    9.7851    7.8977 C   0  0  0  0  0  0  0  0  0  0  0  0
   12.0383    8.6024    7.9214 O   0  0  0  0  0  0  0  0  0  0  0  0
   11.2891   10.4074    5.4579 N   0  0  0  0  0  0  0  0  0  0  0  0
   10.8980   11.5993    4.8983 C   0  0  0  0  0  0  0  0  0  0  0  0
   10.7332   12.6157    5.8354 N   0  0  0  0  0  0  0  0  0  0  0  0
  1  2  1  0  0  0  0
  1  6  1  0  0  0  0
  2  3  2  0  0  0  0
  3  4  1  0  0  0  0
  4  5  2  0  0  0  0
  4 10  1  0  0  0  0
  5  6  1  0  0  0  0
  5  8  1  0  0  0  0
  6  7  2  0  0  0  0
  8  9  1  0  0  0  0
  9 10  2  0  0  0  0
M  END
>  <CHROM.1>
11.32165635,11.03436957,7.26861048,0.59111663,-1.28968154,1.16680373

>  <Name>
1u8d_lig

>  <RI>
0

>  <Rbt.Current_Directory>
/home/itssahil/PROJECTS/Mol_Feturizer/New_Systems/rnas/1u8d

>  <Rbt.Executable>
rbdock ($Id: //depot/dev/client3/rdock/2013.1/src/exe/rbdock.cxx#4 $)

>  <Rbt.Library>
libRbt.so (2013.1, Build901 2013/11/27)

>  <Rbt.Parameter_File>
/export/apps/rDock/src/rDock_2013.1_src/data/scripts/dock_solv.prm

>  <Rbt.Receptor>
prm/blind_docking_20.prm

>  <SCORE>
-25.7581

>  <SCORE.INTER>
-25.7581

>  <SCORE.INTER.CONST>
1

>  <SCORE.INTER.POLAR>
-1.93632

>  <SCORE.INTER.ROT>
0

>  <SCORE.INTER.SOLV>
11.6461

>  <SCORE.INTER.VDW>
-18.1997

>  <SCORE.INTER.norm>
-2.57581

>  <SCORE.INTRA>
0

>  <SCORE.INTRA.DIHEDRAL>
0

>  <SCORE.INTRA.DIHEDRAL.0>
0

>  <SCORE.INTRA.POLAR>
0

>  <SCORE.INTRA.POLAR.0>
0

>  <SCORE.INTRA.REPUL>
0

>  <SCORE.INTRA.REPUL.0>
0

>  <SCORE.INTRA.SOLV>
0

>  <SCORE.INTRA.SOLV.lig_0>
-13.7928

>  <SCORE.INTRA.VDW>
0

>  <SCORE.INTRA.VDW.0>
0

>  <SCORE.INTRA.norm>
0

>  <SCORE.RESTR>
0

>  <SCORE.RESTR.CAVITY>
0

>  <SCORE.RESTR.norm>
0

>  <SCORE.SYSTEM>
0

>  <SCORE.SYSTEM.CONST>
0

>  <SCORE.SYSTEM.DIHEDRAL>
0

>  <SCORE.SYSTEM.SOLV>
0

>  <SCORE.SYSTEM.norm>
0

>  <SCORE.heavy>
10

>  <SCORE.norm>
-2.57581

>  <RMSD>
0.238

$$$$
1u8d_lig
 OpenBabel11021811413D
libRbt.so/2013.1/901 2013/11/27
 10 11  0  0  0  0  0  0  0  0999 V2000
   11.7003   10.5111    9.0889 N   0  0  0  0  0  0  0  0  0  0  0  0
   11.3583   11.8622    9.2700 C   0  0  0  0  0  0  0  0  0  0  0  0
   11.0055   12.6881    8.2521 N   0  0  0  0  0  0  0  0  0  0  0  0
   11.0162   12.0719    7.0502 C   0  0  0  0  0  0  0  0  0  0  0  0
   11.3818   10.6118    6.7887 C   0  0  0  0  0  0  0  0  0  0  0  0
   11.7415    9.7996    7.8752 C   0  0  0  0  0  0  0  0  0  0  0  0
   12.0615    8.6189    7.8974 O   0  0  0  0  0  0  0  0  0  0  0  0
   11.2634   10.4120    5.4406 N   0  0  0  0  0  0  0  0  0  0  0  0
   10.8563   11.5997    4.8836 C   0  0  0  0  0  0  0  0  0  0  0  0
   10.6990   12.6178    5.8203 N   0  0  0  0  0  0  0  0  0  0  0  0
  1  2  1  0  0  0  0
  1  6  1  0  0  0  0
  2  3  2  0  0  0  0
  3  4  1  0  0  0  0
  4  5  2  0  0  0  0
  4 10  1  0  0  0  0
  5  6  1  0  0  0  0
  5  8  1  0  0  0  0
  6  7  2  0  0  0  0
  8  9  1  0  0  0  0
  9 10  2  0  0  0  0
M  END
>  <CHROM.1>
11.31933789,11.04437275,7.24882237,0.55177429,-1.27756953,1.12625298

>  <Name>
1u8d_lig

>  <RI>
0

>  <Rbt.Current_Directory>
/home/itssahil/PROJECTS/Mol_Feturizer/New_Systems/rnas/1u8d

>  <Rbt.Executable>
rbdock ($Id: //depot/dev/client3/rdock/2013.1/src/exe/rbdock.cxx#4 $)

>  <Rbt.Library>
libRbt.so (2013.1, Build901 2013/11/27)

>  <Rbt.Parameter_File>
/export/apps/rDock/src/rDock_2013.1_src/data/scripts/dock_solv.prm

>  <Rbt.Receptor>
prm/blind_docking_20.prm

>  <SCORE>
-25.7819

>  <SCORE.INTER>
-25.7819

>  <SCORE.INTER.CONST>
1

>  <SCORE.INTER.POLAR>
-1.93632

>  <SCORE.INTER.ROT>
0

>  <SCORE.INTER.SOLV>
11.5995

>  <SCORE.INTER.VDW>
-18.2001

>  <SCORE.INTER.norm>
-2.57819

>  <SCORE.INTRA>
0

>  <SCORE.INTRA.DIHEDRAL>
0

>  <SCORE.INTRA.DIHEDRAL.0>
0

>  <SCORE.INTRA.POLAR>
0

>  <SCORE.INTRA.POLAR.0>
0

>  <SCORE.INTRA.REPUL>
0

>  <SCORE.INTRA.REPUL.0>
0

>  <SCORE.INTRA.SOLV>
0

>  <SCORE.INTRA.SOLV.lig_0>
-13.7928

>  <SCORE.INTRA.VDW>
0

>  <SCORE.INTRA.VDW.0>
0

>  <SCORE.INTRA.norm>
0

>  <SCORE.RESTR>
0

>  <SCORE.RESTR.CAVITY>
0

>  <SCORE.RESTR.norm>
0

>  <SCORE.SYSTEM>
0

>  <SCORE.SYSTEM.CONST>
0

>  <SCORE.SYSTEM.DIHEDRAL>
0

>  <SCORE.SYSTEM.SOLV>
0

>  <SCORE.SYSTEM.norm>
0

>  <SCORE.heavy>
10

>  <SCORE.norm>
-2.57819

>  <RMSD>
0.240

$$$$
1u8d_lig
 OpenBabel11021811413D
libRbt.so/2013.1/901 2013/11/27
 10 11  0  0  0  0  0  0  0  0999 V2000
   11.8670   10.5201    9.0820 N   0  0  0  0  0  0  0  0  0  0  0  0
   11.5838   11.8857    9.2552 C   0  0  0  0  0  0  0  0  0  0  0  0
   11.2239   12.7104    8.2388 N   0  0  0  0  0  0  0  0  0  0  0  0
   11.1651   12.0776    7.0469 C   0  0  0  0  0  0  0  0  0  0  0  0
   11.4648   10.6010    6.7942 C   0  0  0  0  0  0  0  0  0  0  0  0
   11.8347    9.7907    7.8787 C   0  0  0  0  0  0  0  0  0  0  0  0
   12.1102    8.5990    7.9069 O   0  0  0  0  0  0  0  0  0  0  0  0
   11.2873   10.3873    5.4547 N   0  0  0  0  0  0  0  0  0  0  0  0
   10.9046   11.5820    4.8954 C   0  0  0  0  0  0  0  0  0  0  0  0
   10.8221   12.6182    5.8217 N   0  0  0  0  0  0  0  0  0  0  0  0
  1  2  1  0  0  0  0
  1  6  1  0  0  0  0
  2  3  2  0  0  0  0
  3  4  1  0  0  0  0
  4  5  2  0  0  0  0
  4 10  1  0  0  0  0
  5  6  1  0  0  0  0
  5  8  1  0  0  0  0
  6  7  2  0  0  0  0
  8  9  1  0  0  0  0
  9 10  2  0  0  0  0
M  END
>  <CHROM.1>
11.43644574,11.04202231,7.24968102,0.36648733,-1.29086274,0.93387209

>  <Name>
1u8d_lig

>  <RI>
0

>  <Rbt.Current_Directory>
/home/itssahil/PROJECTS/Mol_Feturizer/New_Systems/rnas/1u8d

>  <Rbt.Executable>
rbdock ($Id: //depot/dev/client3/rdock/2013.1/src/exe/rbdock.cxx#4 $)

>  <Rbt.Library>
libRbt.so (2013.1, Build901 2013/11/27)

>  <Rbt.Parameter_File>
/export/apps/rDock/src/rDock_2013.1_src/data/scripts/dock_solv.prm

>  <Rbt.Receptor>
prm/pocket_docking_4.prm

>  <SCORE>
-26.0676

>  <SCORE.INTER>
-26.0676

>  <SCORE.INTER.CONST>
1

>  <SCORE.INTER.POLAR>
-1.93632

>  <SCORE.INTER.ROT>
0

>  <SCORE.INTER.SOLV>
11.4708

>  <SCORE.INTER.VDW>
-18.3476

>  <SCORE.INTER.norm>
-2.60676

>  <SCORE.INTRA>
0

>  <SCORE.INTRA.DIHEDRAL>
0

>  <SCORE.INTRA.DIHEDRAL.0>
0

>  <SCORE.INTRA.POLAR>
0

>  <SCORE.INTRA.POLAR.0>
0

>  <SCORE.INTRA.REPUL>
0

>  <SCORE.INTRA.REPUL.0>
0

>  <SCORE.INTRA.SOLV>
0

>  <SCORE.INTRA.SOLV.lig_0>
-13.7928

>  <SCORE.INTRA.VDW>
0

>  <SCORE.INTRA.VDW.0>
0

>  <SCORE.INTRA.norm>
0

>  <SCORE.RESTR>
0

>  <SCORE.RESTR.CAVITY>
0

>  <SCORE.RESTR.norm>
0

>  <SCORE.SYSTEM>
0

>  <SCORE.SYSTEM.CONST>
0

>  <SCORE.SYSTEM.DIHEDRAL>
0

>  <SCORE.SYSTEM.SOLV>
0

>  <SCORE.SYSTEM.norm>
0

>  <SCORE.heavy>
10

>  <SCORE.norm>
-2.60676

>  <RMSD>
0.245

$$$$
1u8d_lig
 OpenBabel11021811413D
libRbt.so/2013.1/901 2013/11/27
 10 11  0  0  0  0  0  0  0  0999 V2000
   11.9238   10.5631    9.0682 N   0  0  0  0  0  0  0  0  0  0  0  0
   11.6554   11.9323    9.2364 C   0  0  0  0  0  0  0  0  0  0  0  0
   11.2693   12.7495    8.2236 N   0  0  0  0  0  0  0  0  0  0  0  0
   11.1688   12.1055    7.0406 C   0  0  0  0  0  0  0  0  0  0  0  0
   11.4504   10.6245    6.7934 C   0  0  0  0  0  0  0  0  0  0  0  0
   11.8487    9.8222    7.8738 C   0  0  0  0  0  0  0  0  0  0  0  0
   12.1170    8.6290    7.9052 O   0  0  0  0  0  0  0  0  0  0  0  0
   11.2295   10.3989    5.4624 N   0  0  0  0  0  0  0  0  0  0  0  0
   10.8374   11.5907    4.9034 C   0  0  0  0  0  0  0  0  0  0  0  0
   10.7910   12.6365    5.8214 N   0  0  0  0  0  0  0  0  0  0  0  0
  1  2  1  0  0  0  0
  1  6  1  0  0  0  0
  2  3  2  0  0  0  0
  3  4  1  0  0  0  0
  4  5  2  0  0  0  0
  4 10  1  0  0  0  0
  5  6  1  0  0  0  0
  5  8  1  0  0  0  0
  6  7  2  0  0  0  0
  8  9  1  0  0  0  0
  9 10  2  0  0  0  0
M  END
>  <CHROM.1>
11.43934723,11.07010217,7.24508766,0.26548655,-1.27616508,0.82710440

>  <Name>
1u8d_lig

>  <RI>
0

>  <Rbt.Current_Directory>
/home/itssahil/PROJECTS/Mol_Feturizer/New_Systems/rnas/1u8d

>  <Rbt.Executable>
rbdock ($Id: //depot/dev/client3/rdock/2013.1/src/exe/rbdock.cxx#4 $)

>  <Rbt.Library>
libRbt.so (2013.1, Build901 2013/11/27)

>  <Rbt.Parameter_File>
/export/apps/rDock/src/rDock_2013.1_src/data/scripts/dock_solv.prm

>  <Rbt.Receptor>
prm/pocket_docking_3.prm

>  <SCORE>
-26.0841

>  <SCORE.INTER>
-26.0841

>  <SCORE.INTER.CONST>
1

>  <SCORE.INTER.POLAR>
-1.93632

>  <SCORE.INTER.ROT>
0

>  <SCORE.INTER.SOLV>
11.4051

>  <SCORE.INTER.VDW>
-18.3367

>  <SCORE.INTER.norm>
-2.60841

>  <SCORE.INTRA>
0

>  <SCORE.INTRA.DIHEDRAL>
0

>  <SCORE.INTRA.DIHEDRAL.0>
0

>  <SCORE.INTRA.POLAR>
0

>  <SCORE.INTRA.POLAR.0>
0

>  <SCORE.INTRA.REPUL>
0

>  <SCORE.INTRA.REPUL.0>
0

>  <SCORE.INTRA.SOLV>
0

>  <SCORE.INTRA.SOLV.lig_0>
-13.7928

>  <SCORE.INTRA.VDW>
0

>  <SCORE.INTRA.VDW.0>
0

>  <SCORE.INTRA.norm>
0

>  <SCORE.RESTR>
0

>  <SCORE.RESTR.CAVITY>
0

>  <SCORE.RESTR.norm>
0

>  <SCORE.SYSTEM>
0

>  <SCORE.SYSTEM.CONST>
0

>  <SCORE.SYSTEM.DIHEDRAL>
0

>  <SCORE.SYSTEM.SOLV>
0

>  <SCORE.SYSTEM.norm>
0

>  <SCORE.heavy>
10

>  <SCORE.norm>
-2.60841

>  <RMSD>
0.246

$$$$
1u8d_lig
 OpenBabel11021811413D
libRbt.so/2013.1/901 2013/11/27
 10 11  0  0  0  0  0  0  0  0999 V2000
   11.8458   10.5587    9.0770 N   0  0  0  0  0  0  0  0  0  0  0  0
   11.5992   11.9317    9.2476 C   0  0  0  0  0  0  0  0  0  0  0  0
   11.2449   12.7605    8.2326 N   0  0  0  0  0  0  0  0  0  0  0  0
   11.1529   12.1240    7.0448 C   0  0  0  0  0  0  0  0  0  0  0  0
   11.4121   10.6394    6.7949 C   0  0  0  0  0  0  0  0  0  0  0  0
   11.7776    9.8249    7.8778 C   0  0  0  0  0  0  0  0  0  0  0  0
   12.0238    8.6269    7.9078 O   0  0  0  0  0  0  0  0  0  0  0  0
   11.2096   10.4241    5.4593 N   0  0  0  0  0  0  0  0  0  0  0  0
   10.8485   11.6254    4.8998 C   0  0  0  0  0  0  0  0  0  0  0  0
   10.8054   12.6675    5.8221 N   0  0  0  0  0  0  0  0  0  0  0  0
  1  2  1  0  0  0  0
  1  6  1  0  0  0  0
  2  3  2  0  0  0  0
  3  4  1  0  0  0  0
  4  5  2  0  0  0  0
  4 10  1  0  0  0  0
  5  6  1  0  0  0  0
  5  8  1  0  0  0  0
  6  7  2  0  0  0  0
  8  9  1  0  0  0  0
  9 10  2  0  0  0  0
M  END
>  <CHROM.1>
11.40136758,11.08297396,7.24863320,0.26656291,-1.30080615,0.83300445

>  <Name>
1u8d_lig

>  <RI>
0

>  <Rbt.Current_Directory>
/home/itssahil/PROJECTS/Mol_Feturizer/New_Systems/rnas/1u8d

>  <Rbt.Executable>
rbdock ($Id: //depot/dev/client3/rdock/2013.1/src/exe/rbdock.cxx#4 $)

>  <Rbt.Library>
libRbt.so (2013.1, Build901 2013/11/27)

>  <Rbt.Parameter_File>
/export/apps/rDock/src/rDock_2013.1_src/data/scripts/dock_solv.prm

>  <Rbt.Receptor>
prm/pocket_docking_3.prm

>  <SCORE>
-26.0745

>  <SCORE.INTER>
-26.0745

>  <SCORE.INTER.CONST>
1

>  <SCORE.INTER.POLAR>
-1.93632

>  <SCORE.INTER.ROT>
0

>  <SCORE.INTER.SOLV>
11.5082

>  <SCORE.INTER.VDW>
-18.3647

>  <SCORE.INTER.norm>
-2.60745

>  <SCORE.INTRA>
0

>  <SCORE.INTRA.DIHEDRAL>
0

>  <SCORE.INTRA.DIHEDRAL.0>
0

>  <SCORE.INTRA.POLAR>
0

>  <SCORE.INTRA.POLAR.0>
0

>  <SCORE.INTRA.REPUL>
0

>  <SCORE.INTRA.REPUL.0>
0

>  <SCORE.INTRA.SOLV>
0

>  <SCORE.INTRA.SOLV.lig_0>
-13.7928

>  <SCORE.INTRA.VDW>
0

>  <SCORE.INTRA.VDW.0>
0

>  <SCORE.INTRA.norm>
0

>  <SCORE.RESTR>
0

>  <SCORE.RESTR.CAVITY>
0

>  <SCORE.RESTR.norm>
0

>  <SCORE.SYSTEM>
0

>  <SCORE.SYSTEM.CONST>
0

>  <SCORE.SYSTEM.DIHEDRAL>
0

>  <SCORE.SYSTEM.SOLV>
0

>  <SCORE.SYSTEM.norm>
0

>  <SCORE.heavy>
10

>  <SCORE.norm>
-2.60745

>  <RMSD>
0.247

$$$$
1u8d_lig
 OpenBabel11021811413D
libRbt.so/2013.1/901 2013/11/27
 10 11  0  0  0  0  0  0  0  0999 V2000
   11.7952   10.5065    9.0949 N   0  0  0  0  0  0  0  0  0  0  0  0
   11.5432   11.8781    9.2685 C   0  0  0  0  0  0  0  0  0  0  0  0
   11.2032   12.7113    8.2522 N   0  0  0  0  0  0  0  0  0  0  0  0
   11.1310   12.0806    7.0600 C   0  0  0  0  0  0  0  0  0  0  0  0
   11.3970   10.5978    6.8067 C   0  0  0  0  0  0  0  0  0  0  0  0
   11.7472    9.7786    7.8911 C   0  0  0  0  0  0  0  0  0  0  0  0
   11.9954    8.5809    7.9189 O   0  0  0  0  0  0  0  0  0  0  0  0
   11.2158   10.3888    5.4670 N   0  0  0  0  0  0  0  0  0  0  0  0
   10.8610   11.5922    4.9080 C   0  0  0  0  0  0  0  0  0  0  0  0
   10.8015   12.6296    5.8347 N   0  0  0  0  0  0  0  0  0  0  0  0
  1  2  1  0  0  0  0
  1  6  1  0  0  0  0
  2  3  2  0  0  0  0
  3  4  1  0  0  0  0
  4  5  2  0  0  0  0
  4 10  1  0  0  0  0
  5  6  1  0  0  0  0
  5  8  1  0  0  0  0
  6  7  2  0  0  0  0
  8  9  1  0  0  0  0
  9 10  2  0  0  0  0
M  END
>  <CHROM.1>
11.37830551,11.03905873,7.26242112,0.31649427,-1.30949963,0.88621381

>  <Name>
1u8d_lig

>  <RI>
0

>  <Rbt.Current_Directory>
/home/itssahil/PROJECTS/Mol_Feturizer/New_Systems/rnas/1u8d

>  <Rbt.Executable>
rbdock ($Id: //depot/dev/client3/rdock/2013.1/src/exe/rbdock.cxx#4 $)

>  <Rbt.Library>
libRbt.so (2013.1, Build901 2013/11/27)

>  <Rbt.Parameter_File>
/export/apps/rDock/src/rDock_2013.1_src/data/scripts/dock_solv.prm

>  <Rbt.Receptor>
prm/pocket_docking_7.prm

>  <SCORE>
-26.0436

>  <SCORE.INTER>
-26.0436

>  <SCORE.INTER.CONST>
1

>  <SCORE.INTER.POLAR>
-1.93632

>  <SCORE.INTER.ROT>
0

>  <SCORE.INTER.SOLV>
11.5683

>  <SCORE.INTER.VDW>
-18.3641

>  <SCORE.INTER.norm>
-2.60436

>  <SCORE.INTRA>
0

>  <SCORE.INTRA.DIHEDRAL>
0

>  <SCORE.INTRA.DIHEDRAL.0>
0

>  <SCORE.INTRA.POLAR>
0

>  <SCORE.INTRA.POLAR.0>
0

>  <SCORE.INTRA.REPUL>
0

>  <SCORE.INTRA.REPUL.0>
0

>  <SCORE.INTRA.SOLV>
0

>  <SCORE.INTRA.SOLV.lig_0>
-13.7928

>  <SCORE.INTRA.VDW>
0

>  <SCORE.INTRA.VDW.0>
0

>  <SCORE.INTRA.norm>
0

>  <SCORE.RESTR>
0

>  <SCORE.RESTR.CAVITY>
0

>  <SCORE.RESTR.norm>
0

>  <SCORE.SYSTEM>
0

>  <SCORE.SYSTEM.CONST>
0

>  <SCORE.SYSTEM.DIHEDRAL>
0

>  <SCORE.SYSTEM.SOLV>
0

>  <SCORE.SYSTEM.norm>
0

>  <SCORE.heavy>
10

>  <SCORE.norm>
-2.60436

>  <RMSD>
0.249

$$$$
1u8d_lig
 OpenBabel11021811413D
libRbt.so/2013.1/901 2013/11/27
 10 11  0  0  0  0  0  0  0  0999 V2000
   11.8678   10.5512    9.0761 N   0  0  0  0  0  0  0  0  0  0  0  0
   11.6268   11.9250    9.2484 C   0  0  0  0  0  0  0  0  0  0  0  0
   11.2631   12.7540    8.2369 N   0  0  0  0  0  0  0  0  0  0  0  0
   11.1556   12.1168    7.0508 C   0  0  0  0  0  0  0  0  0  0  0  0
   11.4079   10.6313    6.7991 C   0  0  0  0  0  0  0  0  0  0  0  0
   11.7838    9.8167    7.8784 C   0  0  0  0  0  0  0  0  0  0  0  0
   12.0272    8.6181    7.9065 O   0  0  0  0  0  0  0  0  0  0  0  0
   11.1895   10.4155    5.4661 N   0  0  0  0  0  0  0  0  0  0  0  0
   10.8250   11.6173    4.9098 C   0  0  0  0  0  0  0  0  0  0  0  0
   10.7954   12.6602    5.8317 N   0  0  0  0  0  0  0  0  0  0  0  0
  1  2  1  0  0  0  0
  1  6  1  0  0  0  0
  2  3  2  0  0  0  0
  3  4  1  0  0  0  0
  4  5  2  0  0  0  0
  4 10  1  0  0  0  0
  5  6  1  0  0  0  0
  5  8  1  0  0  0  0
  6  7  2  0  0  0  0
  8  9  1  0  0  0  0
  9 10  2  0  0  0  0
M  END
>  <CHROM.1>
11.40364659,11.07524155,7.25255386,0.22855011,-1.29478495,0.79560767

>  <Name>
1u8d_lig

>  <RI>
0

>  <Rbt.Current_Directory>
/home/itssahil/PROJECTS/Mol_Feturizer/New_Systems/rnas/1u8d

>  <Rbt.Executable>
rbdock ($Id: //depot/dev/client3/rdock/2013.1/src/exe/rbdock.cxx#4 $)

>  <Rbt.Library>
libRbt.so (2013.1, Build901 2013/11/27)

>  <Rbt.Parameter_File>
/export/apps/rDock/src/rDock_2013.1_src/data/scripts/dock_solv.prm

>  <Rbt.Receptor>
prm/pocket_docking_8.prm

>  <SCORE>
-26.0766

>  <SCORE.INTER>
-26.0766

>  <SCORE.INTER.CONST>
1

>  <SCORE.INTER.POLAR>
-1.93632

>  <SCORE.INTER.ROT>
0

>  <SCORE.INTER.SOLV>
11.4813

>  <SCORE.INTER.VDW>
-18.3571

>  <SCORE.INTER.norm>
-2.60766

>  <SCORE.INTRA>
0

>  <SCORE.INTRA.DIHEDRAL>
0

>  <SCORE.INTRA.DIHEDRAL.0>
0

>  <SCORE.INTRA.POLAR>
0

>  <SCORE.INTRA.POLAR.0>
0

>  <SCORE.INTRA.REPUL>
0

>  <SCORE.INTRA.REPUL.0>
0

>  <SCORE.INTRA.SOLV>
0

>  <SCORE.INTRA.SOLV.lig_0>
-13.7928

>  <SCORE.INTRA.VDW>
0

>  <SCORE.INTRA.VDW.0>
0

>  <SCORE.INTRA.norm>
0

>  <SCORE.RESTR>
0

>  <SCORE.RESTR.CAVITY>
0

>  <SCORE.RESTR.norm>
0

>  <SCORE.SYSTEM>
0

>  <SCORE.SYSTEM.CONST>
0

>  <SCORE.SYSTEM.DIHEDRAL>
0

>  <SCORE.SYSTEM.SOLV>
0

>  <SCORE.SYSTEM.norm>
0

>  <SCORE.heavy>
10

>  <SCORE.norm>
-2.60766

>  <RMSD>
0.249

$$$$
1u8d_lig
 OpenBabel11021811413D
libRbt.so/2013.1/901 2013/11/27
 10 11  0  0  0  0  0  0  0  0999 V2000
   11.9072   10.5459    9.0869 N   0  0  0  0  0  0  0  0  0  0  0  0
   11.6633   11.9204    9.2490 C   0  0  0  0  0  0  0  0  0  0  0  0
   11.2937   12.7402    8.2321 N   0  0  0  0  0  0  0  0  0  0  0  0
   11.1835   12.0931    7.0516 C   0  0  0  0  0  0  0  0  0  0  0  0
   11.4386   10.6062    6.8111 C   0  0  0  0  0  0  0  0  0  0  0  0
   11.8206    9.8014    7.8956 C   0  0  0  0  0  0  0  0  0  0  0  0
   12.0671    8.6036    7.9325 O   0  0  0  0  0  0  0  0  0  0  0  0
   11.2158   10.3790    5.4807 N   0  0  0  0  0  0  0  0  0  0  0  0
   10.8462   11.5753    4.9160 C   0  0  0  0  0  0  0  0  0  0  0  0
   10.8174   12.6257    5.8295 N   0  0  0  0  0  0  0  0  0  0  0  0
  1  2  1  0  0  0  0
  1  6  1  0  0  0  0
  2  3  2  0  0  0  0
  3  4  1  0  0  0  0
  4  5  2  0  0  0  0
  4 10  1  0  0  0  0
  5  6  1  0  0  0  0
  5  8  1  0  0  0  0
  6  7  2  0  0  0  0
  8  9  1  0  0  0  0
  9 10  2  0  0  0  0
M  END
>  <CHROM.1>
11.43490472,11.05383221,7.26092253,0.22536777,-1.29038424,0.78439923

>  <Name>
1u8d_lig

>  <RI>
0

>  <Rbt.Current_Directory>
/home/itssahil/PROJECTS/Mol_Feturizer/New_Systems/rnas/1u8d

>  <Rbt.Executable>
rbdock ($Id: //depot/dev/client3/rdock/2013.1/src/exe/rbdock.cxx#4 $)

>  <Rbt.Library>
libRbt.so (2013.1, Build901 2013/11/27)

>  <Rbt.Parameter_File>
/export/apps/rDock/src/rDock_2013.1_src/data/scripts/dock_solv.prm

>  <Rbt.Receptor>
prm/pocket_docking_6.prm

>  <SCORE>
-26.0629

>  <SCORE.INTER>
-26.0629

>  <SCORE.INTER.CONST>
1

>  <SCORE.INTER.POLAR>
-1.93632

>  <SCORE.INTER.ROT>
0

>  <SCORE.INTER.SOLV>
11.451

>  <SCORE.INTER.VDW>
-18.3379

>  <SCORE.INTER.norm>
-2.60629

>  <SCORE.INTRA>
0

>  <SCORE.INTRA.DIHEDRAL>
0

>  <SCORE.INTRA.DIHEDRAL.0>
0

>  <SCORE.INTRA.POLAR>
0

>  <SCORE.INTRA.POLAR.0>
0

>  <SCORE.INTRA.REPUL>
0

>  <SCORE.INTRA.REPUL.0>
0

>  <SCORE.INTRA.SOLV>
0

>  <SCORE.INTRA.SOLV.lig_0>
-13.7928

>  <SCORE.INTRA.VDW>
0

>  <SCORE.INTRA.VDW.0>
0

>  <SCORE.INTRA.norm>
0

>  <SCORE.RESTR>
0

>  <SCORE.RESTR.CAVITY>
0

>  <SCORE.RESTR.norm>
0

>  <SCORE.SYSTEM>
0

>  <SCORE.SYSTEM.CONST>
0

>  <SCORE.SYSTEM.DIHEDRAL>
0

>  <SCORE.SYSTEM.SOLV>
0

>  <SCORE.SYSTEM.norm>
0

>  <SCORE.heavy>
10

>  <SCORE.norm>
-2.60629

>  <RMSD>
0.250

$$$$
1u8d_lig
 OpenBabel11021811413D
libRbt.so/2013.1/901 2013/11/27
 10 11  0  0  0  0  0  0  0  0999 V2000
   11.8205   10.5255    9.0735 N   0  0  0  0  0  0  0  0  0  0  0  0
   11.5622   11.8955    9.2513 C   0  0  0  0  0  0  0  0  0  0  0  0
   11.2040   12.7272    8.2400 N   0  0  0  0  0  0  0  0  0  0  0  0
   11.1203   12.0968    7.0484 C   0  0  0  0  0  0  0  0  0  0  0  0
   11.3922   10.6157    6.7907 C   0  0  0  0  0  0  0  0  0  0  0  0
   11.7615    9.7981    7.8700 C   0  0  0  0  0  0  0  0  0  0  0  0
   12.0174    8.6020    7.8938 O   0  0  0  0  0  0  0  0  0  0  0  0
   11.1952   10.4064    5.4533 N   0  0  0  0  0  0  0  0  0  0  0  0
   10.8257   11.6079    4.8997 C   0  0  0  0  0  0  0  0  0  0  0  0
   10.7717   12.6444    5.8278 N   0  0  0  0  0  0  0  0  0  0  0  0
  1  2  1  0  0  0  0
  1  6  1  0  0  0  0
  2  3  2  0  0  0  0
  3  4  1  0  0  0  0
  4  5  2  0  0  0  0
  4 10  1  0  0  0  0
  5  6  1  0  0  0  0
  5  8  1  0  0  0  0
  6  7  2  0  0  0  0
  8  9  1  0  0  0  0
  9 10  2  0  0  0  0
M  END
>  <CHROM.1>
11.37670870,11.05660368,7.24693205,0.29413718,-1.29648254,0.86527841

>  <Name>
1u8d_lig

>  <RI>
0

>  <Rbt.Current_Directory>
/home/itssahil/PROJECTS/Mol_Feturizer/New_Systems/rnas/1u8d

>  <Rbt.Executable>
rbdock ($Id: //depot/dev/client3/rdock/2013.1/src/exe/rbdock.cxx#4 $)

>  <Rbt.Library>
libRbt.so (2013.1, Build901 2013/11/27)

>  <Rbt.Parameter_File>
/export/apps/rDock/src/rDock_2013.1_src/data/scripts/dock_solv.prm

>  <Rbt.Receptor>
prm/pocket_docking_7.prm

>  <SCORE>
-26.0932

>  <SCORE.INTER>
-26.0932

>  <SCORE.INTER.CONST>
1

>  <SCORE.INTER.POLAR>
-1.93632

>  <SCORE.INTER.ROT>
0

>  <SCORE.INTER.SOLV>
11.5192

>  <SCORE.INTER.VDW>
-18.3808

>  <SCORE.INTER.norm>
-2.60932

>  <SCORE.INTRA>
0

>  <SCORE.INTRA.DIHEDRAL>
0

>  <SCORE.INTRA.DIHEDRAL.0>
0

>  <SCORE.INTRA.POLAR>
0

>  <SCORE.INTRA.POLAR.0>
0

>  <SCORE.INTRA.REPUL>
0

>  <SCORE.INTRA.REPUL.0>
0

>  <SCORE.INTRA.SOLV>
0

>  <SCORE.INTRA.SOLV.lig_0>
-13.7928

>  <SCORE.INTRA.VDW>
0

>  <SCORE.INTRA.VDW.0>
0

>  <SCORE.INTRA.norm>
0

>  <SCORE.RESTR>
0

>  <SCORE.RESTR.CAVITY>
0

>  <SCORE.RESTR.norm>
0

>  <SCORE.SYSTEM>
0

>  <SCORE.SYSTEM.CONST>
0

>  <SCORE.SYSTEM.DIHEDRAL>
0

>  <SCORE.SYSTEM.SOLV>
0

>  <SCORE.SYSTEM.norm>
0

>  <SCORE.heavy>
10

>  <SCORE.norm>
-2.60932

>  <RMSD>
0.250

$$$$
1u8d_lig
 OpenBabel11021811413D
libRbt.so/2013.1/901 2013/11/27
 10 11  0  0  0  0  0  0  0  0999 V2000
   11.8658   10.5504    9.0854 N   0  0  0  0  0  0  0  0  0  0  0  0
   11.6250   11.9251    9.2508 C   0  0  0  0  0  0  0  0  0  0  0  0
   11.2750   12.7517    8.2325 N   0  0  0  0  0  0  0  0  0  0  0  0
   11.1809   12.1112    7.0470 C   0  0  0  0  0  0  0  0  0  0  0  0
   11.4338   10.6246    6.8028 C   0  0  0  0  0  0  0  0  0  0  0  0
   11.7952    9.8125    7.8889 C   0  0  0  0  0  0  0  0  0  0  0  0
   12.0363    8.6136    7.9234 O   0  0  0  0  0  0  0  0  0  0  0  0
   11.2313   10.4052    5.4678 N   0  0  0  0  0  0  0  0  0  0  0  0
   10.8756   11.6060    4.9037 C   0  0  0  0  0  0  0  0  0  0  0  0
   10.8365   12.6517    5.8221 N   0  0  0  0  0  0  0  0  0  0  0  0
  1  2  1  0  0  0  0
  1  6  1  0  0  0  0
  2  3  2  0  0  0  0
  3  4  1  0  0  0  0
  4  5  2  0  0  0  0
  4 10  1  0  0  0  0
  5  6  1  0  0  0  0
  5  8  1  0  0  0  0
  6  7  2  0  0  0  0
  8  9  1  0  0  0  0
  9 10  2  0  0  0  0
M  END
>  <CHROM.1>
11.42475206,11.06985233,7.25483504,0.25722658,-1.30438075,0.82033294

>  <Name>
1u8d_lig

>  <RI>
0

>  <Rbt.Current_Directory>
/home/itssahil/PROJECTS/Mol_Feturizer/New_Systems/rnas/1u8d

>  <Rbt.Executable>
rbdock ($Id: //depot/dev/client3/rdock/2013.1/src/exe/rbdock.cxx#4 $)

>  <Rbt.Library>
libRbt.so (2013.1, Build901 2013/11/27)

>  <Rbt.Parameter_File>
/export/apps/rDock/src/rDock_2013.1_src/data/scripts/dock_solv.prm

>  <Rbt.Receptor>
prm/pocket_docking_7.prm

>  <SCORE>
-26.1136

>  <SCORE.INTER>
-26.1136

>  <SCORE.INTER.CONST>
1

>  <SCORE.INTER.POLAR>
-1.93632

>  <SCORE.INTER.ROT>
0

>  <SCORE.INTER.SOLV>
11.5039

>  <SCORE.INTER.VDW>
-18.3893

>  <SCORE.INTER.norm>
-2.61136

>  <SCORE.INTRA>
0

>  <SCORE.INTRA.DIHEDRAL>
0

>  <SCORE.INTRA.DIHEDRAL.0>
0

>  <SCORE.INTRA.POLAR>
0

>  <SCORE.INTRA.POLAR.0>
0

>  <SCORE.INTRA.REPUL>
0

>  <SCORE.INTRA.REPUL.0>
0

>  <SCORE.INTRA.SOLV>
0

>  <SCORE.INTRA.SOLV.lig_0>
-13.7928

>  <SCORE.INTRA.VDW>
0

>  <SCORE.INTRA.VDW.0>
0

>  <SCORE.INTRA.norm>
0

>  <SCORE.RESTR>
0

>  <SCORE.RESTR.CAVITY>
0

>  <SCORE.RESTR.norm>
0

>  <SCORE.SYSTEM>
0

>  <SCORE.SYSTEM.CONST>
0

>  <SCORE.SYSTEM.DIHEDRAL>
0

>  <SCORE.SYSTEM.SOLV>
0

>  <SCORE.SYSTEM.norm>
0

>  <SCORE.heavy>
10

>  <SCORE.norm>
-2.61136

>  <RMSD>
0.250

$$$$
1u8d_lig
 OpenBabel11021811413D
libRbt.so/2013.1/901 2013/11/27
 10 11  0  0  0  0  0  0  0  0999 V2000
   11.8391   10.5259    9.0747 N   0  0  0  0  0  0  0  0  0  0  0  0
   11.5741   11.8957    9.2432 C   0  0  0  0  0  0  0  0  0  0  0  0
   11.2220   12.7211    8.2246 N   0  0  0  0  0  0  0  0  0  0  0  0
   11.1515   12.0844    7.0354 C   0  0  0  0  0  0  0  0  0  0  0  0
   11.4313   10.6031    6.7877 C   0  0  0  0  0  0  0  0  0  0  0  0
   11.7937    9.7923    7.8743 C   0  0  0  0  0  0  0  0  0  0  0  0
   12.0539    8.5973    7.9065 O   0  0  0  0  0  0  0  0  0  0  0  0
   11.2471   10.3864    5.4496 N   0  0  0  0  0  0  0  0  0  0  0  0
   10.8783   11.5838    4.8866 C   0  0  0  0  0  0  0  0  0  0  0  0
   10.8119   12.6246    5.8090 N   0  0  0  0  0  0  0  0  0  0  0  0
  1  2  1  0  0  0  0
  1  6  1  0  0  0  0
  2  3  2  0  0  0  0
  3  4  1  0  0  0  0
  4  5  2  0  0  0  0
  4 10  1  0  0  0  0
  5  6  1  0  0  0  0
  5  8  1  0  0  0  0
  6  7  2  0  0  0  0
  8  9  1  0  0  0  0
  9 10  2  0  0  0  0
M  END
>  <CHROM.1>
11.40994017,11.04621797,7.24150032,0.32896750,-1.29938442,0.89381823

>  <Name>
1u8d_lig

>  <RI>
0

>  <Rbt.Current_Directory>
/home/itssahil/PROJECTS/Mol_Feturizer/New_Systems/rnas/1u8d

>  <Rbt.Executable>
rbdock ($Id: //depot/dev/client3/rdock/2013.1/src/exe/rbdock.cxx#4 $)

>  <Rbt.Library>
libRbt.so (2013.1, Build901 2013/11/27)

>  <Rbt.Parameter_File>
/export/apps/rDock/src/rDock_2013.1_src/data/scripts/dock_solv.prm

>  <Rbt.Receptor>
prm/blind_docking_80.prm

>  <SCORE>
-26.0918

>  <SCORE.INTER>
-26.0918

>  <SCORE.INTER.CONST>
1

>  <SCORE.INTER.POLAR>
-1.93632

>  <SCORE.INTER.ROT>
0

>  <SCORE.INTER.SOLV>
11.5114

>  <SCORE.INTER.VDW>
-18.3773

>  <SCORE.INTER.norm>
-2.60918

>  <SCORE.INTRA>
0

>  <SCORE.INTRA.DIHEDRAL>
0

>  <SCORE.INTRA.DIHEDRAL.0>
0

>  <SCORE.INTRA.POLAR>
0

>  <SCORE.INTRA.POLAR.0>
0

>  <SCORE.INTRA.REPUL>
0

>  <SCORE.INTRA.REPUL.0>
0

>  <SCORE.INTRA.SOLV>
0

>  <SCORE.INTRA.SOLV.lig_0>
-13.7928

>  <SCORE.INTRA.VDW>
0

>  <SCORE.INTRA.VDW.0>
0

>  <SCORE.INTRA.norm>
0

>  <SCORE.RESTR>
0

>  <SCORE.RESTR.CAVITY>
0

>  <SCORE.RESTR.norm>
0

>  <SCORE.SYSTEM>
0

>  <SCORE.SYSTEM.CONST>
0

>  <SCORE.SYSTEM.DIHEDRAL>
0

>  <SCORE.SYSTEM.SOLV>
0

>  <SCORE.SYSTEM.norm>
0

>  <SCORE.heavy>
10

>  <SCORE.norm>
-2.60918

>  <RMSD>
0.254

$$$$
1u8d_lig
 OpenBabel11021811413D
libRbt.so/2013.1/901 2013/11/27
 10 11  0  0  0  0  0  0  0  0999 V2000
   11.8560   10.5346    9.0764 N   0  0  0  0  0  0  0  0  0  0  0  0
   11.6019   11.9068    9.2424 C   0  0  0  0  0  0  0  0  0  0  0  0
   11.2451   12.7307    8.2243 N   0  0  0  0  0  0  0  0  0  0  0  0
   11.1584   12.0901    7.0383 C   0  0  0  0  0  0  0  0  0  0  0  0
   11.4257   10.6061    6.7934 C   0  0  0  0  0  0  0  0  0  0  0  0
   11.7936    9.7968    7.8794 C   0  0  0  0  0  0  0  0  0  0  0  0
   12.0460    8.6002    7.9134 O   0  0  0  0  0  0  0  0  0  0  0  0
   11.2266   10.3856    5.4581 N   0  0  0  0  0  0  0  0  0  0  0  0
   10.8602   11.5834    4.8943 C   0  0  0  0  0  0  0  0  0  0  0  0
   10.8101   12.6280    5.8134 N   0  0  0  0  0  0  0  0  0  0  0  0
  1  2  1  0  0  0  0
  1  6  1  0  0  0  0
  2  3  2  0  0  0  0
  3  4  1  0  0  0  0
  4  5  2  0  0  0  0
  4 10  1  0  0  0  0
  5  6  1  0  0  0  0
  5  8  1  0  0  0  0
  6  7  2  0  0  0  0
  8  9  1  0  0  0  0
  9 10  2  0  0  0  0
M  END
>  <CHROM.1>
11.41190471,11.05096613,7.24572270,0.28412188,-1.29806153,0.84687862

>  <Name>
1u8d_lig

>  <RI>
0

>  <Rbt.Current_Directory>
/home/itssahil/PROJECTS/Mol_Feturizer/New_Systems/rnas/1u8d

>  <Rbt.Executable>
rbdock ($Id: //depot/dev/client3/rdock/2013.1/src/exe/rbdock.cxx#4 $)

>  <Rbt.Library>
libRbt.so (2013.1, Build901 2013/11/27)

>  <Rbt.Parameter_File>
/export/apps/rDock/src/rDock_2013.1_src/data/scripts/dock_solv.prm

>  <Rbt.Receptor>
prm/pocket_docking_3.prm

>  <SCORE>
-26.0848

>  <SCORE.INTER>
-26.0848

>  <SCORE.INTER.CONST>
1

>  <SCORE.INTER.POLAR>
-1.93632

>  <SCORE.INTER.ROT>
0

>  <SCORE.INTER.SOLV>
11.4955

>  <SCORE.INTER.VDW>
-18.3673

>  <SCORE.INTER.norm>
-2.60848

>  <SCORE.INTRA>
0

>  <SCORE.INTRA.DIHEDRAL>
0

>  <SCORE.INTRA.DIHEDRAL.0>
0

>  <SCORE.INTRA.POLAR>
0

>  <SCORE.INTRA.POLAR.0>
0

>  <SCORE.INTRA.REPUL>
0

>  <SCORE.INTRA.REPUL.0>
0

>  <SCORE.INTRA.SOLV>
0

>  <SCORE.INTRA.SOLV.lig_0>
-13.7928

>  <SCORE.INTRA.VDW>
0

>  <SCORE.INTRA.VDW.0>
0

>  <SCORE.INTRA.norm>
0

>  <SCORE.RESTR>
0

>  <SCORE.RESTR.CAVITY>
0

>  <SCORE.RESTR.norm>
0

>  <SCORE.SYSTEM>
0

>  <SCORE.SYSTEM.CONST>
0

>  <SCORE.SYSTEM.DIHEDRAL>
0

>  <SCORE.SYSTEM.SOLV>
0

>  <SCORE.SYSTEM.norm>
0

>  <SCORE.heavy>
10

>  <SCORE.norm>
-2.60848

>  <RMSD>
0.254

$$$$
1u8d_lig
 OpenBabel11021811413D
libRbt.so/2013.1/901 2013/11/27
 10 11  0  0  0  0  0  0  0  0999 V2000
   11.8342   10.5279    9.0734 N   0  0  0  0  0  0  0  0  0  0  0  0
   11.5863   11.9000    9.2490 C   0  0  0  0  0  0  0  0  0  0  0  0
   11.2255   12.7311    8.2382 N   0  0  0  0  0  0  0  0  0  0  0  0
   11.1281   12.0977    7.0492 C   0  0  0  0  0  0  0  0  0  0  0  0
   11.3882   10.6141    6.7938 C   0  0  0  0  0  0  0  0  0  0  0  0
   11.7608    9.7973    7.8726 C   0  0  0  0  0  0  0  0  0  0  0  0
   12.0090    8.5996    7.8980 O   0  0  0  0  0  0  0  0  0  0  0  0
   11.1791   10.4022    5.4587 N   0  0  0  0  0  0  0  0  0  0  0  0
   10.8131   11.6044    4.9044 C   0  0  0  0  0  0  0  0  0  0  0  0
   10.7733   12.6440    5.8298 N   0  0  0  0  0  0  0  0  0  0  0  0
  1  2  1  0  0  0  0
  1  6  1  0  0  0  0
  2  3  2  0  0  0  0
  3  4  1  0  0  0  0
  4  5  2  0  0  0  0
  4 10  1  0  0  0  0
  5  6  1  0  0  0  0
  5  8  1  0  0  0  0
  6  7  2  0  0  0  0
  8  9  1  0  0  0  0
  9 10  2  0  0  0  0
M  END
>  <CHROM.1>
11.37926462,11.05647500,7.24879602,0.25592593,-1.29608305,0.82549698

>  <Name>
1u8d_lig

>  <RI>
0

>  <Rbt.Current_Directory>
/home/itssahil/PROJECTS/Mol_Feturizer/New_Systems/rnas/1u8d

>  <Rbt.Executable>
rbdock ($Id: //depot/dev/client3/rdock/2013.1/src/exe/rbdock.cxx#4 $)

>  <Rbt.Library>
libRbt.so (2013.1, Build901 2013/11/27)

>  <Rbt.Parameter_File>
/export/apps/rDock/src/rDock_2013.1_src/data/scripts/dock_solv.prm

>  <Rbt.Receptor>
prm/pocket_docking_5.prm

>  <SCORE>
-26.0706

>  <SCORE.INTER>
-26.0706

>  <SCORE.INTER.CONST>
1

>  <SCORE.INTER.POLAR>
-1.93632

>  <SCORE.INTER.ROT>
0

>  <SCORE.INTER.SOLV>
11.5069

>  <SCORE.INTER.VDW>
-18.3617

>  <SCORE.INTER.norm>
-2.60706

>  <SCORE.INTRA>
0

>  <SCORE.INTRA.DIHEDRAL>
0

>  <SCORE.INTRA.DIHEDRAL.0>
0

>  <SCORE.INTRA.POLAR>
0

>  <SCORE.INTRA.POLAR.0>
0

>  <SCORE.INTRA.REPUL>
0

>  <SCORE.INTRA.REPUL.0>
0

>  <SCORE.INTRA.SOLV>
0

>  <SCORE.INTRA.SOLV.lig_0>
-13.7928

>  <SCORE.INTRA.VDW>
0

>  <SCORE.INTRA.VDW.0>
0

>  <SCORE.INTRA.norm>
0

>  <SCORE.RESTR>
0

>  <SCORE.RESTR.CAVITY>
0

>  <SCORE.RESTR.norm>
0

>  <SCORE.SYSTEM>
0

>  <SCORE.SYSTEM.CONST>
0

>  <SCORE.SYSTEM.DIHEDRAL>
0

>  <SCORE.SYSTEM.SOLV>
0

>  <SCORE.SYSTEM.norm>
0

>  <SCORE.heavy>
10

>  <SCORE.norm>
-2.60706

>  <RMSD>
0.254

$$$$
1u8d_lig
 OpenBabel11021811413D
libRbt.so/2013.1/901 2013/11/27
 10 11  0  0  0  0  0  0  0  0999 V2000
   11.8737   10.5331    9.0627 N   0  0  0  0  0  0  0  0  0  0  0  0
   11.6119   11.9030    9.2354 C   0  0  0  0  0  0  0  0  0  0  0  0
   11.2438   12.7284    8.2225 N   0  0  0  0  0  0  0  0  0  0  0  0
   11.1542   12.0917    7.0346 C   0  0  0  0  0  0  0  0  0  0  0  0
   11.4295   10.6104    6.7825 C   0  0  0  0  0  0  0  0  0  0  0  0
   11.8090    9.7994    7.8632 C   0  0  0  0  0  0  0  0  0  0  0  0
   12.0693    8.6044    7.8913 O   0  0  0  0  0  0  0  0  0  0  0  0
   11.2240   10.3937    5.4475 N   0  0  0  0  0  0  0  0  0  0  0  0
   10.8466   11.5912    4.8905 C   0  0  0  0  0  0  0  0  0  0  0  0
   10.7953   12.6320    5.8138 N   0  0  0  0  0  0  0  0  0  0  0  0
  1  2  1  0  0  0  0
  1  6  1  0  0  0  0
  2  3  2  0  0  0  0
  3  4  1  0  0  0  0
  4  5  2  0  0  0  0
  4 10  1  0  0  0  0
  5  6  1  0  0  0  0
  5  8  1  0  0  0  0
  6  7  2  0  0  0  0
  8  9  1  0  0  0  0
  9 10  2  0  0  0  0
M  END
>  <CHROM.1>
11.41557984,11.05348859,7.23659585,0.28355002,-1.28935972,0.85011373

>  <Name>
1u8d_lig

>  <RI>
0

>  <Rbt.Current_Directory>
/home/itssahil/PROJECTS/Mol_Feturizer/New_Systems/rnas/1u8d

>  <Rbt.Executable>
rbdock ($Id: //depot/dev/client3/rdock/2013.1/src/exe/rbdock.cxx#4 $)

>  <Rbt.Library>
libRbt.so (2013.1, Build901 2013/11/27)

>  <Rbt.Parameter_File>
/export/apps/rDock/src/rDock_2013.1_src/data/scripts/dock_solv.prm

>  <Rbt.Receptor>
prm/blind_docking_40.prm

>  <SCORE>
-26.0902

>  <SCORE.INTER>
-26.0902

>  <SCORE.INTER.CONST>
1

>  <SCORE.INTER.POLAR>
-1.93632

>  <SCORE.INTER.ROT>
0

>  <SCORE.INTER.SOLV>
11.4609

>  <SCORE.INTER.VDW>
-18.3594

>  <SCORE.INTER.norm>
-2.60902

>  <SCORE.INTRA>
0

>  <SCORE.INTRA.DIHEDRAL>
0

>  <SCORE.INTRA.DIHEDRAL.0>
0

>  <SCORE.INTRA.POLAR>
0

>  <SCORE.INTRA.POLAR.0>
0

>  <SCORE.INTRA.REPUL>
0

>  <SCORE.INTRA.REPUL.0>
0

>  <SCORE.INTRA.SOLV>
0

>  <SCORE.INTRA.SOLV.lig_0>
-13.7928

>  <SCORE.INTRA.VDW>
0

>  <SCORE.INTRA.VDW.0>
0

>  <SCORE.INTRA.norm>
0

>  <SCORE.RESTR>
0

>  <SCORE.RESTR.CAVITY>
0

>  <SCORE.RESTR.norm>
0

>  <SCORE.SYSTEM>
0

>  <SCORE.SYSTEM.CONST>
0

>  <SCORE.SYSTEM.DIHEDRAL>
0

>  <SCORE.SYSTEM.SOLV>
0

>  <SCORE.SYSTEM.norm>
0

>  <SCORE.heavy>
10

>  <SCORE.norm>
-2.60902

>  <RMSD>
0.257

$$$$
1u8d_lig
 OpenBabel11021811413D
libRbt.so/2013.1/901 2013/11/27
 10 11  0  0  0  0  0  0  0  0999 V2000
   11.8328   10.5410    9.0708 N   0  0  0  0  0  0  0  0  0  0  0  0
   11.6024   11.9167    9.2419 C   0  0  0  0  0  0  0  0  0  0  0  0
   11.2634   12.7511    8.2262 N   0  0  0  0  0  0  0  0  0  0  0  0
   11.1692   12.1171    7.0372 C   0  0  0  0  0  0  0  0  0  0  0  0
   11.4110   10.6296    6.7868 C   0  0  0  0  0  0  0  0  0  0  0  0
   11.7612    9.8095    7.8705 C   0  0  0  0  0  0  0  0  0  0  0  0
   11.9924    8.6085    7.9002 O   0  0  0  0  0  0  0  0  0  0  0  0
   11.2124   10.4184    5.4499 N   0  0  0  0  0  0  0  0  0  0  0  0
   10.8689   11.6248    4.8902 C   0  0  0  0  0  0  0  0  0  0  0  0
   10.8343   12.6663    5.8135 N   0  0  0  0  0  0  0  0  0  0  0  0
  1  2  1  0  0  0  0
  1  6  1  0  0  0  0
  2  3  2  0  0  0  0
  3  4  1  0  0  0  0
  4  5  2  0  0  0  0
  4 10  1  0  0  0  0
  5  6  1  0  0  0  0
  5  8  1  0  0  0  0
  6  7  2  0  0  0  0
  8  9  1  0  0  0  0
  9 10  2  0  0  0  0
M  END
>  <CHROM.1>
11.40368312,11.07281810,7.24098046,0.24773992,-1.31318968,0.81601256

>  <Name>
1u8d_lig

>  <RI>
0

>  <Rbt.Current_Directory>
/home/itssahil/PROJECTS/Mol_Feturizer/New_Systems/rnas/1u8d

>  <Rbt.Executable>
rbdock ($Id: //depot/dev/client3/rdock/2013.1/src/exe/rbdock.cxx#4 $)

>  <Rbt.Library>
libRbt.so (2013.1, Build901 2013/11/27)

>  <Rbt.Parameter_File>
/export/apps/rDock/src/rDock_2013.1_src/data/scripts/dock_solv.prm

>  <Rbt.Receptor>
prm/blind_docking_100.prm

>  <SCORE>
-26.1039

>  <SCORE.INTER>
-26.1039

>  <SCORE.INTER.CONST>
1

>  <SCORE.INTER.POLAR>
-1.93632

>  <SCORE.INTER.ROT>
0

>  <SCORE.INTER.SOLV>
11.5406

>  <SCORE.INTER.VDW>
-18.3951

>  <SCORE.INTER.norm>
-2.61039

>  <SCORE.INTRA>
0

>  <SCORE.INTRA.DIHEDRAL>
0

>  <SCORE.INTRA.DIHEDRAL.0>
0

>  <SCORE.INTRA.POLAR>
0

>  <SCORE.INTRA.POLAR.0>
0

>  <SCORE.INTRA.REPUL>
0

>  <SCORE.INTRA.REPUL.0>
0

>  <SCORE.INTRA.SOLV>
0

>  <SCORE.INTRA.SOLV.lig_0>
-13.7928

>  <SCORE.INTRA.VDW>
0

>  <SCORE.INTRA.VDW.0>
0

>  <SCORE.INTRA.norm>
0

>  <SCORE.RESTR>
0

>  <SCORE.RESTR.CAVITY>
0

>  <SCORE.RESTR.norm>
0

>  <SCORE.SYSTEM>
0

>  <SCORE.SYSTEM.CONST>
0

>  <SCORE.SYSTEM.DIHEDRAL>
0

>  <SCORE.SYSTEM.SOLV>
0

>  <SCORE.SYSTEM.norm>
0

>  <SCORE.heavy>
10

>  <SCORE.norm>
-2.61039

>  <RMSD>
0.265

$$$$
1u8d_lig
 OpenBabel11021811413D
libRbt.so/2013.1/901 2013/11/27
 10 11  0  0  0  0  0  0  0  0999 V2000
   11.8374   10.5305    9.0709 N   0  0  0  0  0  0  0  0  0  0  0  0
   11.6082   11.9061    9.2445 C   0  0  0  0  0  0  0  0  0  0  0  0
   11.2679   12.7422    8.2307 N   0  0  0  0  0  0  0  0  0  0  0  0
   11.1712   12.1102    7.0409 C   0  0  0  0  0  0  0  0  0  0  0  0
   11.4117   10.6229    6.7877 C   0  0  0  0  0  0  0  0  0  0  0  0
   11.7633    9.8009    7.8695 C   0  0  0  0  0  0  0  0  0  0  0  0
   11.9938    8.5997    7.8969 O   0  0  0  0  0  0  0  0  0  0  0  0
   11.2106   10.4139    5.4509 N   0  0  0  0  0  0  0  0  0  0  0  0
   10.8668   11.6213    4.8936 C   0  0  0  0  0  0  0  0  0  0  0  0
   10.8346   12.6614    5.8186 N   0  0  0  0  0  0  0  0  0  0  0  0
  1  2  1  0  0  0  0
  1  6  1  0  0  0  0
  2  3  2  0  0  0  0
  3  4  1  0  0  0  0
  4  5  2  0  0  0  0
  4 10  1  0  0  0  0
  5  6  1  0  0  0  0
  5  8  1  0  0  0  0
  6  7  2  0  0  0  0
  8  9  1  0  0  0  0
  9 10  2  0  0  0  0
M  END
>  <CHROM.1>
11.40545134,11.06542279,7.24258826,0.24099615,-1.31243503,0.81103479

>  <Name>
1u8d_lig

>  <RI>
0

>  <Rbt.Current_Directory>
/home/itssahil/PROJECTS/Mol_Feturizer/New_Systems/rnas/1u8d

>  <Rbt.Executable>
rbdock ($Id: //depot/dev/client3/rdock/2013.1/src/exe/rbdock.cxx#4 $)

>  <Rbt.Library>
libRbt.so (2013.1, Build901 2013/11/27)

>  <Rbt.Parameter_File>
/export/apps/rDock/src/rDock_2013.1_src/data/scripts/dock_solv.prm

>  <Rbt.Receptor>
prm/pocket_docking_6.prm

>  <SCORE>
-26.1015

>  <SCORE.INTER>
-26.1015

>  <SCORE.INTER.CONST>
1

>  <SCORE.INTER.POLAR>
-1.93632

>  <SCORE.INTER.ROT>
0

>  <SCORE.INTER.SOLV>
11.5347

>  <SCORE.INTER.VDW>
-18.3915

>  <SCORE.INTER.norm>
-2.61015

>  <SCORE.INTRA>
0

>  <SCORE.INTRA.DIHEDRAL>
0

>  <SCORE.INTRA.DIHEDRAL.0>
0

>  <SCORE.INTRA.POLAR>
0

>  <SCORE.INTRA.POLAR.0>
0

>  <SCORE.INTRA.REPUL>
0

>  <SCORE.INTRA.REPUL.0>
0

>  <SCORE.INTRA.SOLV>
0

>  <SCORE.INTRA.SOLV.lig_0>
-13.7928

>  <SCORE.INTRA.VDW>
0

>  <SCORE.INTRA.VDW.0>
0

>  <SCORE.INTRA.norm>
0

>  <SCORE.RESTR>
0

>  <SCORE.RESTR.CAVITY>
0

>  <SCORE.RESTR.norm>
0

>  <SCORE.SYSTEM>
0

>  <SCORE.SYSTEM.CONST>
0

>  <SCORE.SYSTEM.DIHEDRAL>
0

>  <SCORE.SYSTEM.SOLV>
0

>  <SCORE.SYSTEM.norm>
0

>  <SCORE.heavy>
10

>  <SCORE.norm>
-2.61015

>  <RMSD>
0.267

$$$$
1u8d_lig
 OpenBabel11021811413D
libRbt.so/2013.1/901 2013/11/27
 10 11  0  0  0  0  0  0  0  0999 V2000
   11.8359   10.5247    9.0585 N   0  0  0  0  0  0  0  0  0  0  0  0
   11.5978   11.8993    9.2283 C   0  0  0  0  0  0  0  0  0  0  0  0
   11.2454   12.7291    8.2135 N   0  0  0  0  0  0  0  0  0  0  0  0
   11.1461   12.0919    7.0266 C   0  0  0  0  0  0  0  0  0  0  0  0
   11.3959   10.6055    6.7776 C   0  0  0  0  0  0  0  0  0  0  0  0
   11.7599    9.7901    7.8603 C   0  0  0  0  0  0  0  0  0  0  0  0
   11.9992    8.5907    7.8909 O   0  0  0  0  0  0  0  0  0  0  0  0
   11.1883   10.3899    5.4428 N   0  0  0  0  0  0  0  0  0  0  0  0
   10.8324   11.5927    4.8831 C   0  0  0  0  0  0  0  0  0  0  0  0
   10.7982   12.6360    5.8044 N   0  0  0  0  0  0  0  0  0  0  0  0
  1  2  1  0  0  0  0
  1  6  1  0  0  0  0
  2  3  2  0  0  0  0
  3  4  1  0  0  0  0
  4  5  2  0  0  0  0
  4 10  1  0  0  0  0
  5  6  1  0  0  0  0
  5  8  1  0  0  0  0
  6  7  2  0  0  0  0
  8  9  1  0  0  0  0
  9 10  2  0  0  0  0
M  END
>  <CHROM.1>
11.38911379,11.04959677,7.23085303,0.24344687,-1.30306121,0.80964197

>  <Name>
1u8d_lig

>  <RI>
0

>  <Rbt.Current_Directory>
/home/itssahil/PROJECTS/Mol_Feturizer/New_Systems/rnas/1u8d

>  <Rbt.Executable>
rbdock ($Id: //depot/dev/client3/rdock/2013.1/src/exe/rbdock.cxx#4 $)

>  <Rbt.Library>
libRbt.so (2013.1, Build901 2013/11/27)

>  <Rbt.Parameter_File>
/export/apps/rDock/src/rDock_2013.1_src/data/scripts/dock_solv.prm

>  <Rbt.Receptor>
prm/pocket_docking_3.prm

>  <SCORE>
-26.0841

>  <SCORE.INTER>
-26.0841

>  <SCORE.INTER.CONST>
1

>  <SCORE.INTER.POLAR>
-1.93632

>  <SCORE.INTER.ROT>
0

>  <SCORE.INTER.SOLV>
11.517

>  <SCORE.INTER.VDW>
-18.374

>  <SCORE.INTER.norm>
-2.60841

>  <SCORE.INTRA>
0

>  <SCORE.INTRA.DIHEDRAL>
0

>  <SCORE.INTRA.DIHEDRAL.0>
0

>  <SCORE.INTRA.POLAR>
0

>  <SCORE.INTRA.POLAR.0>
0

>  <SCORE.INTRA.REPUL>
0

>  <SCORE.INTRA.REPUL.0>
0

>  <SCORE.INTRA.SOLV>
0

>  <SCORE.INTRA.SOLV.lig_0>
-13.7928

>  <SCORE.INTRA.VDW>
0

>  <SCORE.INTRA.VDW.0>
0

>  <SCORE.INTRA.norm>
0

>  <SCORE.RESTR>
0

>  <SCORE.RESTR.CAVITY>
0

>  <SCORE.RESTR.norm>
0

>  <SCORE.SYSTEM>
0

>  <SCORE.SYSTEM.CONST>
0

>  <SCORE.SYSTEM.DIHEDRAL>
0

>  <SCORE.SYSTEM.SOLV>
0

>  <SCORE.SYSTEM.norm>
0

>  <SCORE.heavy>
10

>  <SCORE.norm>
-2.60841

>  <RMSD>
0.273

$$$$
1u8d_lig
 OpenBabel11021811413D
libRbt.so/2013.1/901 2013/11/27
 10 11  0  0  0  0  0  0  0  0999 V2000
   11.7920   10.5106    9.0775 N   0  0  0  0  0  0  0  0  0  0  0  0
   11.5668   11.8874    9.2472 C   0  0  0  0  0  0  0  0  0  0  0  0
   11.2433   12.7242    8.2285 N   0  0  0  0  0  0  0  0  0  0  0  0
   11.1589   12.0916    7.0380 C   0  0  0  0  0  0  0  0  0  0  0  0
   11.3959   10.6031    6.7890 C   0  0  0  0  0  0  0  0  0  0  0  0
   11.7300    9.7804    7.8758 C   0  0  0  0  0  0  0  0  0  0  0  0
   11.9547    8.5782    7.9071 O   0  0  0  0  0  0  0  0  0  0  0  0
   11.2109   10.3939    5.4499 N   0  0  0  0  0  0  0  0  0  0  0  0
   10.8797   11.6024    4.8874 C   0  0  0  0  0  0  0  0  0  0  0  0
   10.8403   12.6434    5.8111 N   0  0  0  0  0  0  0  0  0  0  0  0
  1  2  1  0  0  0  0
  1  6  1  0  0  0  0
  2  3  2  0  0  0  0
  3  4  1  0  0  0  0
  4  5  2  0  0  0  0
  4 10  1  0  0  0  0
  5  6  1  0  0  0  0
  5  8  1  0  0  0  0
  6  7  2  0  0  0  0
  8  9  1  0  0  0  0
  9 10  2  0  0  0  0
M  END
>  <CHROM.1>
11.38581717,11.04600265,7.24347617,0.26619713,-1.32440527,0.83466177

>  <Name>
1u8d_lig

>  <RI>
0

>  <Rbt.Current_Directory>
/home/itssahil/PROJECTS/Mol_Feturizer/New_Systems/rnas/1u8d

>  <Rbt.Executable>
rbdock ($Id: //depot/dev/client3/rdock/2013.1/src/exe/rbdock.cxx#4 $)

>  <Rbt.Library>
libRbt.so (2013.1, Build901 2013/11/27)

>  <Rbt.Parameter_File>
/export/apps/rDock/src/rDock_2013.1_src/data/scripts/dock_solv.prm

>  <Rbt.Receptor>
prm/blind_docking_60.prm

>  <SCORE>
-26.0526

>  <SCORE.INTER>
-26.0526

>  <SCORE.INTER.CONST>
1

>  <SCORE.INTER.POLAR>
-1.93632

>  <SCORE.INTER.ROT>
0

>  <SCORE.INTER.SOLV>
11.5976

>  <SCORE.INTER.VDW>
-18.3798

>  <SCORE.INTER.norm>
-2.60526

>  <SCORE.INTRA>
0

>  <SCORE.INTRA.DIHEDRAL>
0

>  <SCORE.INTRA.DIHEDRAL.0>
0

>  <SCORE.INTRA.POLAR>
0

>  <SCORE.INTRA.POLAR.0>
0

>  <SCORE.INTRA.REPUL>
0

>  <SCORE.INTRA.REPUL.0>
0

>  <SCORE.INTRA.SOLV>
0

>  <SCORE.INTRA.SOLV.lig_0>
-13.7928

>  <SCORE.INTRA.VDW>
0

>  <SCORE.INTRA.VDW.0>
0

>  <SCORE.INTRA.norm>
0

>  <SCORE.RESTR>
0

>  <SCORE.RESTR.CAVITY>
0

>  <SCORE.RESTR.norm>
0

>  <SCORE.SYSTEM>
0

>  <SCORE.SYSTEM.CONST>
0

>  <SCORE.SYSTEM.DIHEDRAL>
0

>  <SCORE.SYSTEM.SOLV>
0

>  <SCORE.SYSTEM.norm>
0

>  <SCORE.heavy>
10

>  <SCORE.norm>
-2.60526

>  <RMSD>
0.275

$$$$
1u8d_lig
 OpenBabel11021811413D
libRbt.so/2013.1/901 2013/11/27
 10 11  0  0  0  0  0  0  0  0999 V2000
   11.8102   10.5211    9.0653 N   0  0  0  0  0  0  0  0  0  0  0  0
   11.5819   11.8971    9.2370 C   0  0  0  0  0  0  0  0  0  0  0  0
   11.2486   12.7333    8.2209 N   0  0  0  0  0  0  0  0  0  0  0  0
   11.1579   12.1009    7.0309 C   0  0  0  0  0  0  0  0  0  0  0  0
   11.3978   10.6132    6.7797 C   0  0  0  0  0  0  0  0  0  0  0  0
   11.7420    9.7911    7.8638 C   0  0  0  0  0  0  0  0  0  0  0  0
   11.9707    8.5896    7.8931 O   0  0  0  0  0  0  0  0  0  0  0  0
   11.2041   10.4039    5.4418 N   0  0  0  0  0  0  0  0  0  0  0  0
   10.8652   11.6115    4.8821 C   0  0  0  0  0  0  0  0  0  0  0  0
   10.8290   12.6521    5.8065 N   0  0  0  0  0  0  0  0  0  0  0  0
  1  2  1  0  0  0  0
  1  6  1  0  0  0  0
  2  3  2  0  0  0  0
  3  4  1  0  0  0  0
  4  5  2  0  0  0  0
  4 10  1  0  0  0  0
  5  6  1  0  0  0  0
  5  8  1  0  0  0  0
  6  7  2  0  0  0  0
  8  9  1  0  0  0  0
  9 10  2  0  0  0  0
M  END
>  <CHROM.1>
11.38951035,11.05586537,7.23435528,0.25391177,-1.31737895,0.82312510

>  <Name>
1u8d_lig

>  <RI>
0

>  <Rbt.Current_Directory>
/home/itssahil/PROJECTS/Mol_Feturizer/New_Systems/rnas/1u8d

>  <Rbt.Executable>
rbdock ($Id: //depot/dev/client3/rdock/2013.1/src/exe/rbdock.cxx#4 $)

>  <Rbt.Library>
libRbt.so (2013.1, Build901 2013/11/27)

>  <Rbt.Parameter_File>
/export/apps/rDock/src/rDock_2013.1_src/data/scripts/dock_solv.prm

>  <Rbt.Receptor>
prm/pocket_docking_8.prm

>  <SCORE>
-26.1069

>  <SCORE.INTER>
-26.1069

>  <SCORE.INTER.CONST>
1

>  <SCORE.INTER.POLAR>
-1.93632

>  <SCORE.INTER.ROT>
0

>  <SCORE.INTER.SOLV>
11.5654

>  <SCORE.INTER.VDW>
-18.4054

>  <SCORE.INTER.norm>
-2.61069

>  <SCORE.INTRA>
0

>  <SCORE.INTRA.DIHEDRAL>
0

>  <SCORE.INTRA.DIHEDRAL.0>
0

>  <SCORE.INTRA.POLAR>
0

>  <SCORE.INTRA.POLAR.0>
0

>  <SCORE.INTRA.REPUL>
0

>  <SCORE.INTRA.REPUL.0>
0

>  <SCORE.INTRA.SOLV>
0

>  <SCORE.INTRA.SOLV.lig_0>
-13.7928

>  <SCORE.INTRA.VDW>
0

>  <SCORE.INTRA.VDW.0>
0

>  <SCORE.INTRA.norm>
0

>  <SCORE.RESTR>
0

>  <SCORE.RESTR.CAVITY>
0

>  <SCORE.RESTR.norm>
0

>  <SCORE.SYSTEM>
0

>  <SCORE.SYSTEM.CONST>
0

>  <SCORE.SYSTEM.DIHEDRAL>
0

>  <SCORE.SYSTEM.SOLV>
0

>  <SCORE.SYSTEM.norm>
0

>  <SCORE.heavy>
10

>  <SCORE.norm>
-2.61069

>  <RMSD>
0.275

$$$$
1u8d_lig
 OpenBabel11021811413D
libRbt.so/2013.1/901 2013/11/27
 10 11  0  0  0  0  0  0  0  0999 V2000
   12.5638   10.3361    9.1603 N   0  0  0  0  0  0  0  0  0  0  0  0
   12.0791   11.5040    9.7735 C   0  0  0  0  0  0  0  0  0  0  0  0
   11.3289   12.4327    9.1274 N   0  0  0  0  0  0  0  0  0  0  0  0
   11.0974   12.1124    7.8358 C   0  0  0  0  0  0  0  0  0  0  0  0
   11.5991   10.8638    7.1126 C   0  0  0  0  0  0  0  0  0  0  0  0
   12.3729    9.9345    7.8249 C   0  0  0  0  0  0  0  0  0  0  0  0
   12.8674    8.8792    7.4528 O   0  0  0  0  0  0  0  0  0  0  0  0
   11.1389   10.9423    5.8267 N   0  0  0  0  0  0  0  0  0  0  0  0
   10.4103   12.1019    5.7215 C   0  0  0  0  0  0  0  0  0  0  0  0
   10.3653   12.8293    6.9078 N   0  0  0  0  0  0  0  0  0  0  0  0
  1  2  1  0  0  0  0
  1  6  1  0  0  0  0
  2  3  2  0  0  0  0
  3  4  1  0  0  0  0
  4  5  2  0  0  0  0
  4 10  1  0  0  0  0
  5  6  1  0  0  0  0
  5  8  1  0  0  0  0
  6  7  2  0  0  0  0
  8  9  1  0  0  0  0
  9 10  2  0  0  0  0
M  END
>  <CHROM.1>
11.60159844,11.16022026,7.67366565,0.21032519,-0.97963459,1.06720216

>  <Name>
1u8d_lig

>  <RI>
0

>  <Rbt.Current_Directory>
/home/itssahil/PROJECTS/Mol_Feturizer/New_Systems/rnas/1u8d

>  <Rbt.Executable>
rbdock ($Id: //depot/dev/client3/rdock/2013.1/src/exe/rbdock.cxx#4 $)

>  <Rbt.Library>
libRbt.so (2013.1, Build901 2013/11/27)

>  <Rbt.Parameter_File>
/export/apps/rDock/src/rDock_2013.1_src/data/scripts/dock_solv.prm

>  <Rbt.Receptor>
prm/pocket_docking_8.prm

>  <SCORE>
-23.1203

>  <SCORE.INTER>
-23.1203

>  <SCORE.INTER.CONST>
1

>  <SCORE.INTER.POLAR>
-1.74441

>  <SCORE.INTER.ROT>
0

>  <SCORE.INTER.SOLV>
9.87397

>  <SCORE.INTER.VDW>
-16.4901

>  <SCORE.INTER.norm>
-2.31203

>  <SCORE.INTRA>
0

>  <SCORE.INTRA.DIHEDRAL>
0

>  <SCORE.INTRA.DIHEDRAL.0>
0

>  <SCORE.INTRA.POLAR>
0

>  <SCORE.INTRA.POLAR.0>
0

>  <SCORE.INTRA.REPUL>
0

>  <SCORE.INTRA.REPUL.0>
0

>  <SCORE.INTRA.SOLV>
0

>  <SCORE.INTRA.SOLV.lig_0>
-13.7928

>  <SCORE.INTRA.VDW>
0

>  <SCORE.INTRA.VDW.0>
0

>  <SCORE.INTRA.norm>
0

>  <SCORE.RESTR>
0

>  <SCORE.RESTR.CAVITY>
0

>  <SCORE.RESTR.norm>
0

>  <SCORE.SYSTEM>
0

>  <SCORE.SYSTEM.CONST>
0

>  <SCORE.SYSTEM.DIHEDRAL>
0

>  <SCORE.SYSTEM.SOLV>
0

>  <SCORE.SYSTEM.norm>
0

>  <SCORE.heavy>
10

>  <SCORE.norm>
-2.31203

>  <RMSD>
0.768

$$$$
1u8d_lig
 OpenBabel11021811413D
libRbt.so/2013.1/901 2013/11/27
 10 11  0  0  0  0  0  0  0  0999 V2000
   12.5652   10.3378    9.1677 N   0  0  0  0  0  0  0  0  0  0  0  0
   12.0762   11.5045    9.7798 C   0  0  0  0  0  0  0  0  0  0  0  0
   11.3234   12.4304    9.1326 N   0  0  0  0  0  0  0  0  0  0  0  0
   11.0937   12.1084    7.8411 C   0  0  0  0  0  0  0  0  0  0  0  0
   11.6000   10.8610    7.1190 C   0  0  0  0  0  0  0  0  0  0  0  0
   12.3763    9.9348    7.8324 C   0  0  0  0  0  0  0  0  0  0  0  0
   12.8745    8.8808    7.4613 O   0  0  0  0  0  0  0  0  0  0  0  0
   11.1402   10.9372    5.8329 N   0  0  0  0  0  0  0  0  0  0  0  0
   10.4079   12.0943    5.7264 C   0  0  0  0  0  0  0  0  0  0  0  0
   10.3598   12.8224    6.9122 N   0  0  0  0  0  0  0  0  0  0  0  0
  1  2  1  0  0  0  0
  1  6  1  0  0  0  0
  2  3  2  0  0  0  0
  3  4  1  0  0  0  0
  4  5  2  0  0  0  0
  4 10  1  0  0  0  0
  5  6  1  0  0  0  0
  5  8  1  0  0  0  0
  6  7  2  0  0  0  0
  8  9  1  0  0  0  0
  9 10  2  0  0  0  0
M  END
>  <CHROM.1>
11.60111649,11.15781507,7.67991294,0.21406618,-0.97703724,1.06964177

>  <Name>
1u8d_lig

>  <RI>
0

>  <Rbt.Current_Directory>
/home/itssahil/PROJECTS/Mol_Feturizer/New_Systems/rnas/1u8d

>  <Rbt.Executable>
rbdock ($Id: //depot/dev/client3/rdock/2013.1/src/exe/rbdock.cxx#4 $)

>  <Rbt.Library>
libRbt.so (2013.1, Build901 2013/11/27)

>  <Rbt.Parameter_File>
/export/apps/rDock/src/rDock_2013.1_src/data/scripts/dock_solv.prm

>  <Rbt.Receptor>
prm/pocket_docking_7.prm

>  <SCORE>
-23.1187

>  <SCORE.INTER>
-23.1187

>  <SCORE.INTER.CONST>
1

>  <SCORE.INTER.POLAR>
-1.74599

>  <SCORE.INTER.ROT>
0

>  <SCORE.INTER.SOLV>
9.87071

>  <SCORE.INTER.VDW>
-16.4828

>  <SCORE.INTER.norm>
-2.31187

>  <SCORE.INTRA>
0

>  <SCORE.INTRA.DIHEDRAL>
0

>  <SCORE.INTRA.DIHEDRAL.0>
0

>  <SCORE.INTRA.POLAR>
0

>  <SCORE.INTRA.POLAR.0>
0

>  <SCORE.INTRA.REPUL>
0

>  <SCORE.INTRA.REPUL.0>
0

>  <SCORE.INTRA.SOLV>
0

>  <SCORE.INTRA.SOLV.lig_0>
-13.7928

>  <SCORE.INTRA.VDW>
0

>  <SCORE.INTRA.VDW.0>
0

>  <SCORE.INTRA.norm>
0

>  <SCORE.RESTR>
0

>  <SCORE.RESTR.CAVITY>
0

>  <SCORE.RESTR.norm>
0

>  <SCORE.SYSTEM>
0

>  <SCORE.SYSTEM.CONST>
0

>  <SCORE.SYSTEM.DIHEDRAL>
0

>  <SCORE.SYSTEM.SOLV>
0

>  <SCORE.SYSTEM.norm>
0

>  <SCORE.heavy>
10

>  <SCORE.norm>
-2.31187

>  <RMSD>
0.769

$$$$
1u8d_lig
 OpenBabel11021811413D
libRbt.so/2013.1/901 2013/11/27
 10 11  0  0  0  0  0  0  0  0999 V2000
   12.5671   10.3388    9.1628 N   0  0  0  0  0  0  0  0  0  0  0  0
   12.0695   11.4996    9.7791 C   0  0  0  0  0  0  0  0  0  0  0  0
   11.3135   12.4244    9.1342 N   0  0  0  0  0  0  0  0  0  0  0  0
   11.0898   12.1076    7.8403 C   0  0  0  0  0  0  0  0  0  0  0  0
   11.6054   10.8668    7.1136 C   0  0  0  0  0  0  0  0  0  0  0  0
   12.3849    9.9414    7.8249 C   0  0  0  0  0  0  0  0  0  0  0  0
   12.8903    8.8922    7.4500 O   0  0  0  0  0  0  0  0  0  0  0  0
   11.1494   10.9468    5.8264 N   0  0  0  0  0  0  0  0  0  0  0  0
   10.4108   12.1002    5.7234 C   0  0  0  0  0  0  0  0  0  0  0  0
   10.3547   12.8220    6.9127 N   0  0  0  0  0  0  0  0  0  0  0  0
  1  2  1  0  0  0  0
  1  6  1  0  0  0  0
  2  3  2  0  0  0  0
  3  4  1  0  0  0  0
  4  5  2  0  0  0  0
  4 10  1  0  0  0  0
  5  6  1  0  0  0  0
  5  8  1  0  0  0  0
  6  7  2  0  0  0  0
  8  9  1  0  0  0  0
  9 10  2  0  0  0  0
M  END
>  <CHROM.1>
11.60311518,11.16077728,7.67601625,0.22395538,-0.97351380,1.08286001

>  <Name>
1u8d_lig

>  <RI>
0

>  <Rbt.Current_Directory>
/home/itssahil/PROJECTS/Mol_Feturizer/New_Systems/rnas/1u8d

>  <Rbt.Executable>
rbdock ($Id: //depot/dev/client3/rdock/2013.1/src/exe/rbdock.cxx#4 $)

>  <Rbt.Library>
libRbt.so (2013.1, Build901 2013/11/27)

>  <Rbt.Parameter_File>
/export/apps/rDock/src/rDock_2013.1_src/data/scripts/dock_solv.prm

>  <Rbt.Receptor>
prm/pocket_docking_7.prm

>  <SCORE>
-23.0935

>  <SCORE.INTER>
-23.0935

>  <SCORE.INTER.CONST>
1

>  <SCORE.INTER.POLAR>
-1.74629

>  <SCORE.INTER.ROT>
0

>  <SCORE.INTER.SOLV>
9.86371

>  <SCORE.INTER.VDW>
-16.4626

>  <SCORE.INTER.norm>
-2.30935

>  <SCORE.INTRA>
0

>  <SCORE.INTRA.DIHEDRAL>
0

>  <SCORE.INTRA.DIHEDRAL.0>
0

>  <SCORE.INTRA.POLAR>
0

>  <SCORE.INTRA.POLAR.0>
0

>  <SCORE.INTRA.REPUL>
0

>  <SCORE.INTRA.REPUL.0>
0

>  <SCORE.INTRA.SOLV>
0

>  <SCORE.INTRA.SOLV.lig_0>
-13.7928

>  <SCORE.INTRA.VDW>
0

>  <SCORE.INTRA.VDW.0>
0

>  <SCORE.INTRA.norm>
0

>  <SCORE.RESTR>
0

>  <SCORE.RESTR.CAVITY>
0

>  <SCORE.RESTR.norm>
0

>  <SCORE.SYSTEM>
0

>  <SCORE.SYSTEM.CONST>
0

>  <SCORE.SYSTEM.DIHEDRAL>
0

>  <SCORE.SYSTEM.SOLV>
0

>  <SCORE.SYSTEM.norm>
0

>  <SCORE.heavy>
10

>  <SCORE.norm>
-2.30935

>  <RMSD>
0.772

$$$$
1u8d_lig
 OpenBabel11021811413D
libRbt.so/2013.1/901 2013/11/27
 10 11  0  0  0  0  0  0  0  0999 V2000
   12.5830   10.3514    9.1660 N   0  0  0  0  0  0  0  0  0  0  0  0
   12.0485   11.4914    9.7904 C   0  0  0  0  0  0  0  0  0  0  0  0
   11.2889   12.4122    9.1440 N   0  0  0  0  0  0  0  0  0  0  0  0
   11.1008   12.1137    7.8402 C   0  0  0  0  0  0  0  0  0  0  0  0
   11.6575   10.8960    7.1046 C   0  0  0  0  0  0  0  0  0  0  0  0
   12.4390    9.9739    7.8177 C   0  0  0  0  0  0  0  0  0  0  0  0
   12.9736    8.9414    7.4368 O   0  0  0  0  0  0  0  0  0  0  0  0
   11.2291   10.9894    5.8088 N   0  0  0  0  0  0  0  0  0  0  0  0
   10.4700   12.1298    5.7085 C   0  0  0  0  0  0  0  0  0  0  0  0
   10.3728   12.8296    6.9082 N   0  0  0  0  0  0  0  0  0  0  0  0
  1  2  1  0  0  0  0
  1  6  1  0  0  0  0
  2  3  2  0  0  0  0
  3  4  1  0  0  0  0
  4  5  2  0  0  0  0
  4 10  1  0  0  0  0
  5  6  1  0  0  0  0
  5  8  1  0  0  0  0
  6  7  2  0  0  0  0
  8  9  1  0  0  0  0
  9 10  2  0  0  0  0
M  END
>  <CHROM.1>
11.63656777,11.18006364,7.67168486,0.27547453,-0.96581119,1.14252089

>  <Name>
1u8d_lig

>  <RI>
0

>  <Rbt.Current_Directory>
/home/itssahil/PROJECTS/Mol_Feturizer/New_Systems/rnas/1u8d

>  <Rbt.Executable>
rbdock ($Id: //depot/dev/client3/rdock/2013.1/src/exe/rbdock.cxx#4 $)

>  <Rbt.Library>
libRbt.so (2013.1, Build901 2013/11/27)

>  <Rbt.Parameter_File>
/export/apps/rDock/src/rDock_2013.1_src/data/scripts/dock_solv.prm

>  <Rbt.Receptor>
prm/pocket_docking_5.prm

>  <SCORE>
-23.0394

>  <SCORE.INTER>
-23.0394

>  <SCORE.INTER.CONST>
1

>  <SCORE.INTER.POLAR>
-1.74568

>  <SCORE.INTER.ROT>
0

>  <SCORE.INTER.SOLV>
9.87203

>  <SCORE.INTER.VDW>
-16.4313

>  <SCORE.INTER.norm>
-2.30394

>  <SCORE.INTRA>
0

>  <SCORE.INTRA.DIHEDRAL>
0

>  <SCORE.INTRA.DIHEDRAL.0>
0

>  <SCORE.INTRA.POLAR>
0

>  <SCORE.INTRA.POLAR.0>
0

>  <SCORE.INTRA.REPUL>
0

>  <SCORE.INTRA.REPUL.0>
0

>  <SCORE.INTRA.SOLV>
0

>  <SCORE.INTRA.SOLV.lig_0>
-13.7928

>  <SCORE.INTRA.VDW>
0

>  <SCORE.INTRA.VDW.0>
0

>  <SCORE.INTRA.norm>
0

>  <SCORE.RESTR>
0

>  <SCORE.RESTR.CAVITY>
0

>  <SCORE.RESTR.norm>
0

>  <SCORE.SYSTEM>
0

>  <SCORE.SYSTEM.CONST>
0

>  <SCORE.SYSTEM.DIHEDRAL>
0

>  <SCORE.SYSTEM.SOLV>
0

>  <SCORE.SYSTEM.norm>
0

>  <SCORE.heavy>
10

>  <SCORE.norm>
-2.30394

>  <RMSD>
0.786

$$$$
1u8d_lig
 OpenBabel11021811413D
libRbt.so/2013.1/901 2013/11/27
 10 11  0  0  0  0  0  0  0  0999 V2000
   12.7055   10.4549    9.2730 N   0  0  0  0  0  0  0  0  0  0  0  0
   12.1008   11.5709    9.8762 C   0  0  0  0  0  0  0  0  0  0  0  0
   11.2942   12.4364    9.2106 N   0  0  0  0  0  0  0  0  0  0  0  0
   11.1342   12.1083    7.9101 C   0  0  0  0  0  0  0  0  0  0  0  0
   11.7665   10.9143    7.1971 C   0  0  0  0  0  0  0  0  0  0  0  0
   12.5944   10.0498    7.9297 C   0  0  0  0  0  0  0  0  0  0  0  0
   13.1911    9.0447    7.5683 O   0  0  0  0  0  0  0  0  0  0  0  0
   11.3438   10.9637    5.8970 N   0  0  0  0  0  0  0  0  0  0  0  0
   10.5207   12.0563    5.7739 C   0  0  0  0  0  0  0  0  0  0  0  0
   10.3734   12.7669    6.9622 N   0  0  0  0  0  0  0  0  0  0  0  0
  1  2  1  0  0  0  0
  1  6  1  0  0  0  0
  2  3  2  0  0  0  0
  3  4  1  0  0  0  0
  4  5  2  0  0  0  0
  4 10  1  0  0  0  0
  5  6  1  0  0  0  0
  5  8  1  0  0  0  0
  6  7  2  0  0  0  0
  8  9  1  0  0  0  0
  9 10  2  0  0  0  0
M  END
>  <CHROM.1>
11.72458306,11.20505130,7.75962171,0.32704933,-0.91567457,1.16925402

>  <Name>
1u8d_lig

>  <RI>
0

>  <Rbt.Current_Directory>
/home/itssahil/PROJECTS/Mol_Feturizer/New_Systems/rnas/1u8d

>  <Rbt.Executable>
rbdock ($Id: //depot/dev/client3/rdock/2013.1/src/exe/rbdock.cxx#4 $)

>  <Rbt.Library>
libRbt.so (2013.1, Build901 2013/11/27)

>  <Rbt.Parameter_File>
/export/apps/rDock/src/rDock_2013.1_src/data/scripts/dock_solv.prm

>  <Rbt.Receptor>
prm/pocket_docking_6.prm

>  <SCORE>
-23.039

>  <SCORE.INTER>
-23.039

>  <SCORE.INTER.CONST>
1

>  <SCORE.INTER.POLAR>
-1.78589

>  <SCORE.INTER.ROT>
0

>  <SCORE.INTER.SOLV>
9.93718

>  <SCORE.INTER.VDW>
-16.3187

>  <SCORE.INTER.norm>
-2.3039

>  <SCORE.INTRA>
0

>  <SCORE.INTRA.DIHEDRAL>
0

>  <SCORE.INTRA.DIHEDRAL.0>
0

>  <SCORE.INTRA.POLAR>
0

>  <SCORE.INTRA.POLAR.0>
0

>  <SCORE.INTRA.REPUL>
0

>  <SCORE.INTRA.REPUL.0>
0

>  <SCORE.INTRA.SOLV>
0

>  <SCORE.INTRA.SOLV.lig_0>
-13.7928

>  <SCORE.INTRA.VDW>
0

>  <SCORE.INTRA.VDW.0>
0

>  <SCORE.INTRA.norm>
0

>  <SCORE.RESTR>
0

>  <SCORE.RESTR.CAVITY>
0

>  <SCORE.RESTR.norm>
0

>  <SCORE.SYSTEM>
0

>  <SCORE.SYSTEM.CONST>
0

>  <SCORE.SYSTEM.DIHEDRAL>
0

>  <SCORE.SYSTEM.SOLV>
0

>  <SCORE.SYSTEM.norm>
0

>  <SCORE.heavy>
10

>  <SCORE.norm>
-2.3039

>  <RMSD>
0.842

$$$$
1u8d_lig
 OpenBabel11021811413D
libRbt.so/2013.1/901 2013/11/27
 10 11  0  0  0  0  0  0  0  0999 V2000
   12.7375   10.4550    9.1199 N   0  0  0  0  0  0  0  0  0  0  0  0
   12.1451   11.5542    9.7648 C   0  0  0  0  0  0  0  0  0  0  0  0
   11.3081   12.4244    9.1444 N   0  0  0  0  0  0  0  0  0  0  0  0
   11.1048   12.1188    7.8445 C   0  0  0  0  0  0  0  0  0  0  0  0
   11.7214   10.9439    7.0873 C   0  0  0  0  0  0  0  0  0  0  0  0
   12.5822   10.0737    7.7739 C   0  0  0  0  0  0  0  0  0  0  0  0
   13.1741    9.0809    7.3730 O   0  0  0  0  0  0  0  0  0  0  0  0
   11.2524   11.0132    5.8042 N   0  0  0  0  0  0  0  0  0  0  0  0
   10.4163   12.1004    5.7307 C   0  0  0  0  0  0  0  0  0  0  0  0
   10.3052   12.7876    6.9365 N   0  0  0  0  0  0  0  0  0  0  0  0
  1  2  1  0  0  0  0
  1  6  1  0  0  0  0
  2  3  2  0  0  0  0
  3  4  1  0  0  0  0
  4  5  2  0  0  0  0
  4 10  1  0  0  0  0
  5  6  1  0  0  0  0
  5  8  1  0  0  0  0
  6  7  2  0  0  0  0
  8  9  1  0  0  0  0
  9 10  2  0  0  0  0
M  END
>  <CHROM.1>
11.69709125,11.22384019,7.65636011,0.28012845,-0.89344069,1.15089039

>  <Name>
1u8d_lig

>  <RI>
0

>  <Rbt.Current_Directory>
/home/itssahil/PROJECTS/Mol_Feturizer/New_Systems/rnas/1u8d

>  <Rbt.Executable>
rbdock ($Id: //depot/dev/client3/rdock/2013.1/src/exe/rbdock.cxx#4 $)

>  <Rbt.Library>
libRbt.so (2013.1, Build901 2013/11/27)

>  <Rbt.Parameter_File>
/export/apps/rDock/src/rDock_2013.1_src/data/scripts/dock_solv.prm

>  <Rbt.Receptor>
prm/blind_docking_40.prm

>  <SCORE>
-23.0025

>  <SCORE.INTER>
-23.0025

>  <SCORE.INTER.CONST>
1

>  <SCORE.INTER.POLAR>
-1.75414

>  <SCORE.INTER.ROT>
0

>  <SCORE.INTER.SOLV>
9.83354

>  <SCORE.INTER.VDW>
-16.3657

>  <SCORE.INTER.norm>
-2.30025

>  <SCORE.INTRA>
0

>  <SCORE.INTRA.DIHEDRAL>
0

>  <SCORE.INTRA.DIHEDRAL.0>
0

>  <SCORE.INTRA.POLAR>
0

>  <SCORE.INTRA.POLAR.0>
0

>  <SCORE.INTRA.REPUL>
0

>  <SCORE.INTRA.REPUL.0>
0

>  <SCORE.INTRA.SOLV>
0

>  <SCORE.INTRA.SOLV.lig_0>
-13.7928

>  <SCORE.INTRA.VDW>
0

>  <SCORE.INTRA.VDW.0>
0

>  <SCORE.INTRA.norm>
0

>  <SCORE.RESTR>
0

>  <SCORE.RESTR.CAVITY>
0

>  <SCORE.RESTR.norm>
0

>  <SCORE.SYSTEM>
0

>  <SCORE.SYSTEM.CONST>
0

>  <SCORE.SYSTEM.DIHEDRAL>
0

>  <SCORE.SYSTEM.SOLV>
0

>  <SCORE.SYSTEM.norm>
0

>  <SCORE.heavy>
10

>  <SCORE.norm>
-2.30025

>  <RMSD>
0.856

$$$$
1u8d_lig
 OpenBabel11021811413D
libRbt.so/2013.1/901 2013/11/27
 10 11  0  0  0  0  0  0  0  0999 V2000
   12.7299   11.1689    9.3134 N   0  0  0  0  0  0  0  0  0  0  0  0
   11.7024   12.0303    9.7345 C   0  0  0  0  0  0  0  0  0  0  0  0
   10.7407   12.5101    8.9053 N   0  0  0  0  0  0  0  0  0  0  0  0
   10.8764   12.0692    7.6358 C   0  0  0  0  0  0  0  0  0  0  0  0
   11.9708   11.1383    7.1167 C   0  0  0  0  0  0  0  0  0  0  0  0
   12.9432   10.6710    8.0143 C   0  0  0  0  0  0  0  0  0  0  0  0
   13.8930    9.9246    7.8203 O   0  0  0  0  0  0  0  0  0  0  0  0
   11.7317   10.9557    5.7823 N   0  0  0  0  0  0  0  0  0  0  0  0
   10.6047   11.6740    5.4650 C   0  0  0  0  0  0  0  0  0  0  0  0
   10.0659   12.3553    6.5530 N   0  0  0  0  0  0  0  0  0  0  0  0
  1  2  1  0  0  0  0
  1  6  1  0  0  0  0
  2  3  2  0  0  0  0
  3  4  1  0  0  0  0
  4  5  2  0  0  0  0
  4 10  1  0  0  0  0
  5  6  1  0  0  0  0
  5  8  1  0  0  0  0
  6  7  2  0  0  0  0
  8  9  1  0  0  0  0
  9 10  2  0  0  0  0
M  END
>  <CHROM.1>
11.75739110,11.42815302,7.63934810,0.64505202,-0.61081692,1.30829088

>  <Name>
1u8d_lig

>  <RI>
0

>  <Rbt.Current_Directory>
/home/itssahil/PROJECTS/Mol_Feturizer/New_Systems/rnas/1u8d

>  <Rbt.Executable>
rbdock ($Id: //depot/dev/client3/rdock/2013.1/src/exe/rbdock.cxx#4 $)

>  <Rbt.Library>
libRbt.so (2013.1, Build901 2013/11/27)

>  <Rbt.Parameter_File>
/export/apps/rDock/src/rDock_2013.1_src/data/scripts/dock_solv.prm

>  <Rbt.Receptor>
prm/blind_docking_80.prm

>  <SCORE>
-22.256

>  <SCORE.INTER>
-22.256

>  <SCORE.INTER.CONST>
1

>  <SCORE.INTER.POLAR>
-1.70908

>  <SCORE.INTER.ROT>
0

>  <SCORE.INTER.SOLV>
10.2678

>  <SCORE.INTER.VDW>
-16.163

>  <SCORE.INTER.norm>
-2.2256

>  <SCORE.INTRA>
0

>  <SCORE.INTRA.DIHEDRAL>
0

>  <SCORE.INTRA.DIHEDRAL.0>
0

>  <SCORE.INTRA.POLAR>
0

>  <SCORE.INTRA.POLAR.0>
0

>  <SCORE.INTRA.REPUL>
0

>  <SCORE.INTRA.REPUL.0>
0

>  <SCORE.INTRA.SOLV>
0

>  <SCORE.INTRA.SOLV.lig_0>
-13.7928

>  <SCORE.INTRA.VDW>
0

>  <SCORE.INTRA.VDW.0>
0

>  <SCORE.INTRA.norm>
0

>  <SCORE.RESTR>
0

>  <SCORE.RESTR.CAVITY>
0

>  <SCORE.RESTR.norm>
0

>  <SCORE.SYSTEM>
0

>  <SCORE.SYSTEM.CONST>
0

>  <SCORE.SYSTEM.DIHEDRAL>
0

>  <SCORE.SYSTEM.SOLV>
0

>  <SCORE.SYSTEM.norm>
0

>  <SCORE.heavy>
10

>  <SCORE.norm>
-2.2256

>  <RMSD>
0.968

$$$$
1u8d_lig
 OpenBabel11021811413D
libRbt.so/2013.1/901 2013/11/27
 10 11  0  0  0  0  0  0  0  0999 V2000
   12.9168   11.1394    9.6720 N   0  0  0  0  0  0  0  0  0  0  0  0
   11.9421   12.0223   10.1674 C   0  0  0  0  0  0  0  0  0  0  0  0
   10.9812   12.5876    9.3929 N   0  0  0  0  0  0  0  0  0  0  0  0
   11.0616   12.2087    8.0989 C   0  0  0  0  0  0  0  0  0  0  0  0
   12.0973   11.2587    7.5002 C   0  0  0  0  0  0  0  0  0  0  0  0
   13.0714   10.7018    8.3432 C   0  0  0  0  0  0  0  0  0  0  0  0
   13.9801    9.9251    8.0829 O   0  0  0  0  0  0  0  0  0  0  0  0
   11.8136   11.1577    6.1658 N   0  0  0  0  0  0  0  0  0  0  0  0
   10.7127   11.9412    5.9196 C   0  0  0  0  0  0  0  0  0  0  0  0
   10.2358   12.5875    7.0569 N   0  0  0  0  0  0  0  0  0  0  0  0
  1  2  1  0  0  0  0
  1  6  1  0  0  0  0
  2  3  2  0  0  0  0
  3  4  1  0  0  0  0
  4  5  2  0  0  0  0
  4 10  1  0  0  0  0
  5  6  1  0  0  0  0
  5  8  1  0  0  0  0
  6  7  2  0  0  0  0
  8  9  1  0  0  0  0
  9 10  2  0  0  0  0
M  END
>  <CHROM.1>
11.91189373,11.52978759,8.04322047,0.59690976,-0.64767452,1.33218677

>  <Name>
1u8d_lig

>  <RI>
0

>  <Rbt.Current_Directory>
/home/itssahil/PROJECTS/Mol_Feturizer/New_Systems/rnas/1u8d

>  <Rbt.Executable>
rbdock ($Id: //depot/dev/client3/rdock/2013.1/src/exe/rbdock.cxx#4 $)

>  <Rbt.Library>
libRbt.so (2013.1, Build901 2013/11/27)

>  <Rbt.Parameter_File>
/export/apps/rDock/src/rDock_2013.1_src/data/scripts/dock_solv.prm

>  <Rbt.Receptor>
prm/pocket_docking_8.prm

>  <SCORE>
-23.146

>  <SCORE.INTER>
-23.146

>  <SCORE.INTER.CONST>
1

>  <SCORE.INTER.POLAR>
-2.40368

>  <SCORE.INTER.ROT>
0

>  <SCORE.INTER.SOLV>
10.3207

>  <SCORE.INTER.VDW>
-14.4587

>  <SCORE.INTER.norm>
-2.3146

>  <SCORE.INTRA>
0

>  <SCORE.INTRA.DIHEDRAL>
0

>  <SCORE.INTRA.DIHEDRAL.0>
0

>  <SCORE.INTRA.POLAR>
0

>  <SCORE.INTRA.POLAR.0>
0

>  <SCORE.INTRA.REPUL>
0

>  <SCORE.INTRA.REPUL.0>
0

>  <SCORE.INTRA.SOLV>
0

>  <SCORE.INTRA.SOLV.lig_0>
-13.7928

>  <SCORE.INTRA.VDW>
0

>  <SCORE.INTRA.VDW.0>
0

>  <SCORE.INTRA.norm>
0

>  <SCORE.RESTR>
0

>  <SCORE.RESTR.CAVITY>
0

>  <SCORE.RESTR.norm>
0

>  <SCORE.SYSTEM>
0

>  <SCORE.SYSTEM.CONST>
0

>  <SCORE.SYSTEM.DIHEDRAL>
0

>  <SCORE.SYSTEM.SOLV>
0

>  <SCORE.SYSTEM.norm>
0

>  <SCORE.heavy>
10

>  <SCORE.norm>
-2.3146

>  <RMSD>
1.208

$$$$
1u8d_lig
 OpenBabel11021811413D
libRbt.so/2013.1/901 2013/11/27
 10 11  0  0  0  0  0  0  0  0999 V2000
   12.9199   11.1549    9.6530 N   0  0  0  0  0  0  0  0  0  0  0  0
   11.9359   12.0286   10.1465 C   0  0  0  0  0  0  0  0  0  0  0  0
   10.9767   12.5921    9.3686 N   0  0  0  0  0  0  0  0  0  0  0  0
   11.0687   12.2212    8.0730 C   0  0  0  0  0  0  0  0  0  0  0  0
   12.1149   11.2814    7.4762 C   0  0  0  0  0  0  0  0  0  0  0  0
   13.0867   10.7260    8.3229 C   0  0  0  0  0  0  0  0  0  0  0  0
   14.0023    9.9569    8.0645 O   0  0  0  0  0  0  0  0  0  0  0  0
   11.8412   11.1863    6.1393 N   0  0  0  0  0  0  0  0  0  0  0  0
   10.7369   11.9641    5.8898 C   0  0  0  0  0  0  0  0  0  0  0  0
   10.2478   12.6006    7.0274 N   0  0  0  0  0  0  0  0  0  0  0  0
  1  2  1  0  0  0  0
  1  6  1  0  0  0  0
  2  3  2  0  0  0  0
  3  4  1  0  0  0  0
  4  5  2  0  0  0  0
  4 10  1  0  0  0  0
  5  6  1  0  0  0  0
  5  8  1  0  0  0  0
  6  7  2  0  0  0  0
  8  9  1  0  0  0  0
  9 10  2  0  0  0  0
M  END
>  <CHROM.1>
11.92384317,11.54816215,8.01944268,0.60737713,-0.64291059,1.34425360

>  <Name>
1u8d_lig

>  <RI>
0

>  <Rbt.Current_Directory>
/home/itssahil/PROJECTS/Mol_Feturizer/New_Systems/rnas/1u8d

>  <Rbt.Executable>
rbdock ($Id: //depot/dev/client3/rdock/2013.1/src/exe/rbdock.cxx#4 $)

>  <Rbt.Library>
libRbt.so (2013.1, Build901 2013/11/27)

>  <Rbt.Parameter_File>
/export/apps/rDock/src/rDock_2013.1_src/data/scripts/dock_solv.prm

>  <Rbt.Receptor>
prm/pocket_docking_8.prm

>  <SCORE>
-23.1617

>  <SCORE.INTER>
-23.1617

>  <SCORE.INTER.CONST>
1

>  <SCORE.INTER.POLAR>
-2.40366

>  <SCORE.INTER.ROT>
0

>  <SCORE.INTER.SOLV>
10.3224

>  <SCORE.INTER.VDW>
-14.4697

>  <SCORE.INTER.norm>
-2.31617

>  <SCORE.INTRA>
0

>  <SCORE.INTRA.DIHEDRAL>
0

>  <SCORE.INTRA.DIHEDRAL.0>
0

>  <SCORE.INTRA.POLAR>
0

>  <SCORE.INTRA.POLAR.0>
0

>  <SCORE.INTRA.REPUL>
0

>  <SCORE.INTRA.REPUL.0>
0

>  <SCORE.INTRA.SOLV>
0

>  <SCORE.INTRA.SOLV.lig_0>
-13.7928

>  <SCORE.INTRA.VDW>
0

>  <SCORE.INTRA.VDW.0>
0

>  <SCORE.INTRA.norm>
0

>  <SCORE.RESTR>
0

>  <SCORE.RESTR.CAVITY>
0

>  <SCORE.RESTR.norm>
0

>  <SCORE.SYSTEM>
0

>  <SCORE.SYSTEM.CONST>
0

>  <SCORE.SYSTEM.DIHEDRAL>
0

>  <SCORE.SYSTEM.SOLV>
0

>  <SCORE.SYSTEM.norm>
0

>  <SCORE.heavy>
10

>  <SCORE.norm>
-2.31617

>  <RMSD>
1.210

$$$$
1u8d_lig
 OpenBabel11021811413D
libRbt.so/2013.1/901 2013/11/27
 10 11  0  0  0  0  0  0  0  0999 V2000
   12.9283   11.1604    9.6611 N   0  0  0  0  0  0  0  0  0  0  0  0
   11.9394   12.0257   10.1595 C   0  0  0  0  0  0  0  0  0  0  0  0
   10.9656   12.5729    9.3883 N   0  0  0  0  0  0  0  0  0  0  0  0
   11.0481   12.1947    8.0942 C   0  0  0  0  0  0  0  0  0  0  0  0
   12.0988   11.2633    7.4923 C   0  0  0  0  0  0  0  0  0  0  0  0
   13.0860   10.7248    8.3320 C   0  0  0  0  0  0  0  0  0  0  0  0
   14.0078    9.9647    8.0688 O   0  0  0  0  0  0  0  0  0  0  0  0
   11.8121   11.1563    6.1590 N   0  0  0  0  0  0  0  0  0  0  0  0
   10.6962   11.9195    5.9164 C   0  0  0  0  0  0  0  0  0  0  0  0
   10.2118   12.5577    7.0550 N   0  0  0  0  0  0  0  0  0  0  0  0
  1  2  1  0  0  0  0
  1  6  1  0  0  0  0
  2  3  2  0  0  0  0
  3  4  1  0  0  0  0
  4  5  2  0  0  0  0
  4 10  1  0  0  0  0
  5  6  1  0  0  0  0
  5  8  1  0  0  0  0
  6  7  2  0  0  0  0
  8  9  1  0  0  0  0
  9 10  2  0  0  0  0
M  END
>  <CHROM.1>
11.91046534,11.53134348,8.03579912,0.59783846,-0.62909770,1.33212108

>  <Name>
1u8d_lig

>  <RI>
0

>  <Rbt.Current_Directory>
/home/itssahil/PROJECTS/Mol_Feturizer/New_Systems/rnas/1u8d

>  <Rbt.Executable>
rbdock ($Id: //depot/dev/client3/rdock/2013.1/src/exe/rbdock.cxx#4 $)

>  <Rbt.Library>
libRbt.so (2013.1, Build901 2013/11/27)

>  <Rbt.Parameter_File>
/export/apps/rDock/src/rDock_2013.1_src/data/scripts/dock_solv.prm

>  <Rbt.Receptor>
prm/pocket_docking_4.prm

>  <SCORE>
-23.1403

>  <SCORE.INTER>
-23.1403

>  <SCORE.INTER.CONST>
1

>  <SCORE.INTER.POLAR>
-2.3866

>  <SCORE.INTER.ROT>
0

>  <SCORE.INTER.SOLV>
10.3079

>  <SCORE.INTER.VDW>
-14.5075

>  <SCORE.INTER.norm>
-2.31403

>  <SCORE.INTRA>
0

>  <SCORE.INTRA.DIHEDRAL>
0

>  <SCORE.INTRA.DIHEDRAL.0>
0

>  <SCORE.INTRA.POLAR>
0

>  <SCORE.INTRA.POLAR.0>
0

>  <SCORE.INTRA.REPUL>
0

>  <SCORE.INTRA.REPUL.0>
0

>  <SCORE.INTRA.SOLV>
0

>  <SCORE.INTRA.SOLV.lig_0>
-13.7928

>  <SCORE.INTRA.VDW>
0

>  <SCORE.INTRA.VDW.0>
0

>  <SCORE.INTRA.norm>
0

>  <SCORE.RESTR>
0

>  <SCORE.RESTR.CAVITY>
0

>  <SCORE.RESTR.norm>
0

>  <SCORE.SYSTEM>
0

>  <SCORE.SYSTEM.CONST>
0

>  <SCORE.SYSTEM.DIHEDRAL>
0

>  <SCORE.SYSTEM.SOLV>
0

>  <SCORE.SYSTEM.norm>
0

>  <SCORE.heavy>
10

>  <SCORE.norm>
-2.31403

>  <RMSD>
1.218

$$$$
1u8d_lig
 OpenBabel11021811413D
libRbt.so/2013.1/901 2013/11/27
 10 11  0  0  0  0  0  0  0  0999 V2000
   12.9504   11.1845    9.6627 N   0  0  0  0  0  0  0  0  0  0  0  0
   11.9714   12.0611   10.1609 C   0  0  0  0  0  0  0  0  0  0  0  0
   10.9998   12.6140    9.3907 N   0  0  0  0  0  0  0  0  0  0  0  0
   11.0741   12.2293    8.0981 C   0  0  0  0  0  0  0  0  0  0  0  0
   12.1140   11.2856    7.4964 C   0  0  0  0  0  0  0  0  0  0  0  0
   13.0992   10.7417    8.3350 C   0  0  0  0  0  0  0  0  0  0  0  0
   14.0129    9.9719    8.0717 O   0  0  0  0  0  0  0  0  0  0  0  0
   11.8214   11.1755    6.1647 N   0  0  0  0  0  0  0  0  0  0  0  0
   10.7117   11.9479    5.9228 C   0  0  0  0  0  0  0  0  0  0  0  0
   10.2374   12.5956    7.0604 N   0  0  0  0  0  0  0  0  0  0  0  0
  1  2  1  0  0  0  0
  1  6  1  0  0  0  0
  2  3  2  0  0  0  0
  3  4  1  0  0  0  0
  4  5  2  0  0  0  0
  4 10  1  0  0  0  0
  5  6  1  0  0  0  0
  5  8  1  0  0  0  0
  6  7  2  0  0  0  0
  8  9  1  0  0  0  0
  9 10  2  0  0  0  0
M  END
>  <CHROM.1>
11.93008848,11.55778085,8.03944713,0.59067498,-0.63720893,1.32350869

>  <Name>
1u8d_lig

>  <RI>
0

>  <Rbt.Current_Directory>
/home/itssahil/PROJECTS/Mol_Feturizer/New_Systems/rnas/1u8d

>  <Rbt.Executable>
rbdock ($Id: //depot/dev/client3/rdock/2013.1/src/exe/rbdock.cxx#4 $)

>  <Rbt.Library>
libRbt.so (2013.1, Build901 2013/11/27)

>  <Rbt.Parameter_File>
/export/apps/rDock/src/rDock_2013.1_src/data/scripts/dock_solv.prm

>  <Rbt.Receptor>
prm/pocket_docking_5.prm

>  <SCORE>
-23.1556

>  <SCORE.INTER>
-23.1556

>  <SCORE.INTER.CONST>
1

>  <SCORE.INTER.POLAR>
-2.44973

>  <SCORE.INTER.ROT>
0

>  <SCORE.INTER.SOLV>
10.3174

>  <SCORE.INTER.VDW>
-14.3105

>  <SCORE.INTER.norm>
-2.31556

>  <SCORE.INTRA>
0

>  <SCORE.INTRA.DIHEDRAL>
0

>  <SCORE.INTRA.DIHEDRAL.0>
0

>  <SCORE.INTRA.POLAR>
0

>  <SCORE.INTRA.POLAR.0>
0

>  <SCORE.INTRA.REPUL>
0

>  <SCORE.INTRA.REPUL.0>
0

>  <SCORE.INTRA.SOLV>
0

>  <SCORE.INTRA.SOLV.lig_0>
-13.7928

>  <SCORE.INTRA.VDW>
0

>  <SCORE.INTRA.VDW.0>
0

>  <SCORE.INTRA.norm>
0

>  <SCORE.RESTR>
0

>  <SCORE.RESTR.CAVITY>
0

>  <SCORE.RESTR.norm>
0

>  <SCORE.SYSTEM>
0

>  <SCORE.SYSTEM.CONST>
0

>  <SCORE.SYSTEM.DIHEDRAL>
0

>  <SCORE.SYSTEM.SOLV>
0

>  <SCORE.SYSTEM.norm>
0

>  <SCORE.heavy>
10

>  <SCORE.norm>
-2.31556

>  <RMSD>
1.231

$$$$
1u8d_lig
 OpenBabel11021811413D
libRbt.so/2013.1/901 2013/11/27
 10 11  0  0  0  0  0  0  0  0999 V2000
   12.9967   11.1951    9.6803 N   0  0  0  0  0  0  0  0  0  0  0  0
   12.0183   12.0748   10.1740 C   0  0  0  0  0  0  0  0  0  0  0  0
   11.0444   12.6209    9.4019 N   0  0  0  0  0  0  0  0  0  0  0  0
   11.1159   12.2263    8.1121 C   0  0  0  0  0  0  0  0  0  0  0  0
   12.1549   11.2787    7.5153 C   0  0  0  0  0  0  0  0  0  0  0  0
   13.1426   10.7420    8.3557 C   0  0  0  0  0  0  0  0  0  0  0  0
   14.0563    9.9709    8.0962 O   0  0  0  0  0  0  0  0  0  0  0  0
   11.8592   11.1579    6.1852 N   0  0  0  0  0  0  0  0  0  0  0  0
   10.7484   11.9276    5.9400 C   0  0  0  0  0  0  0  0  0  0  0  0
   10.2763   12.5838    7.0736 N   0  0  0  0  0  0  0  0  0  0  0  0
  1  2  1  0  0  0  0
  1  6  1  0  0  0  0
  2  3  2  0  0  0  0
  3  4  1  0  0  0  0
  4  5  2  0  0  0  0
  4 10  1  0  0  0  0
  5  6  1  0  0  0  0
  5  8  1  0  0  0  0
  6  7  2  0  0  0  0
  8  9  1  0  0  0  0
  9 10  2  0  0  0  0
M  END
>  <CHROM.1>
11.97216759,11.55491683,8.05665290,0.58798743,-0.63587049,1.31411868

>  <Name>
1u8d_lig

>  <RI>
0

>  <Rbt.Current_Directory>
/home/itssahil/PROJECTS/Mol_Feturizer/New_Systems/rnas/1u8d

>  <Rbt.Executable>
rbdock ($Id: //depot/dev/client3/rdock/2013.1/src/exe/rbdock.cxx#4 $)

>  <Rbt.Library>
libRbt.so (2013.1, Build901 2013/11/27)

>  <Rbt.Parameter_File>
/export/apps/rDock/src/rDock_2013.1_src/data/scripts/dock_solv.prm

>  <Rbt.Receptor>
prm/pocket_docking_7.prm

>  <SCORE>
-23.0979

>  <SCORE.INTER>
-23.0979

>  <SCORE.INTER.CONST>
1

>  <SCORE.INTER.POLAR>
-2.46704

>  <SCORE.INTER.ROT>
0

>  <SCORE.INTER.SOLV>
10.3462

>  <SCORE.INTER.VDW>
-14.2238

>  <SCORE.INTER.norm>
-2.30979

>  <SCORE.INTRA>
0

>  <SCORE.INTRA.DIHEDRAL>
0

>  <SCORE.INTRA.DIHEDRAL.0>
0

>  <SCORE.INTRA.POLAR>
0

>  <SCORE.INTRA.POLAR.0>
0

>  <SCORE.INTRA.REPUL>
0

>  <SCORE.INTRA.REPUL.0>
0

>  <SCORE.INTRA.SOLV>
0

>  <SCORE.INTRA.SOLV.lig_0>
-13.7928

>  <SCORE.INTRA.VDW>
0

>  <SCORE.INTRA.VDW.0>
0

>  <SCORE.INTRA.norm>
0

>  <SCORE.RESTR>
0

>  <SCORE.RESTR.CAVITY>
0

>  <SCORE.RESTR.norm>
0

>  <SCORE.SYSTEM>
0

>  <SCORE.SYSTEM.CONST>
0

>  <SCORE.SYSTEM.DIHEDRAL>
0

>  <SCORE.SYSTEM.SOLV>
0

>  <SCORE.SYSTEM.norm>
0

>  <SCORE.heavy>
10

>  <SCORE.norm>
-2.30979

>  <RMSD>
1.256

$$$$
1u8d_lig
 OpenBabel11021811413D
libRbt.so/2013.1/901 2013/11/27
 10 11  0  0  0  0  0  0  0  0999 V2000
   13.0328   11.2227    9.6858 N   0  0  0  0  0  0  0  0  0  0  0  0
   12.0568   12.1044   10.1807 C   0  0  0  0  0  0  0  0  0  0  0  0
   11.0710   12.6367    9.4142 N   0  0  0  0  0  0  0  0  0  0  0  0
   11.1280   12.2263    8.1286 C   0  0  0  0  0  0  0  0  0  0  0  0
   12.1637   11.2756    7.5307 C   0  0  0  0  0  0  0  0  0  0  0  0
   13.1641   10.7537    8.3652 C   0  0  0  0  0  0  0  0  0  0  0  0
   14.0778    9.9832    8.1039 O   0  0  0  0  0  0  0  0  0  0  0  0
   11.8519   11.1370    6.2060 N   0  0  0  0  0  0  0  0  0  0  0  0
   10.7347   11.8989    5.9651 C   0  0  0  0  0  0  0  0  0  0  0  0
   10.2740   12.5672    7.0964 N   0  0  0  0  0  0  0  0  0  0  0  0
  1  2  1  0  0  0  0
  1  6  1  0  0  0  0
  2  3  2  0  0  0  0
  3  4  1  0  0  0  0
  4  5  2  0  0  0  0
  4 10  1  0  0  0  0
  5  6  1  0  0  0  0
  5  8  1  0  0  0  0
  6  7  2  0  0  0  0
  8  9  1  0  0  0  0
  9 10  2  0  0  0  0
M  END
>  <CHROM.1>
11.98649560,11.55785955,8.07077705,0.57439835,-0.62845300,1.29358443

>  <Name>
1u8d_lig

>  <RI>
0

>  <Rbt.Current_Directory>
/home/itssahil/PROJECTS/Mol_Feturizer/New_Systems/rnas/1u8d

>  <Rbt.Executable>
rbdock ($Id: //depot/dev/client3/rdock/2013.1/src/exe/rbdock.cxx#4 $)

>  <Rbt.Library>
libRbt.so (2013.1, Build901 2013/11/27)

>  <Rbt.Parameter_File>
/export/apps/rDock/src/rDock_2013.1_src/data/scripts/dock_solv.prm

>  <Rbt.Receptor>
prm/blind_docking_40.prm

>  <SCORE>
-23.1439

>  <SCORE.INTER>
-23.1439

>  <SCORE.INTER.CONST>
1

>  <SCORE.INTER.POLAR>
-2.48646

>  <SCORE.INTER.ROT>
0

>  <SCORE.INTER.SOLV>
10.3438

>  <SCORE.INTER.VDW>
-14.189

>  <SCORE.INTER.norm>
-2.31439

>  <SCORE.INTRA>
0

>  <SCORE.INTRA.DIHEDRAL>
0

>  <SCORE.INTRA.DIHEDRAL.0>
0

>  <SCORE.INTRA.POLAR>
0

>  <SCORE.INTRA.POLAR.0>
0

>  <SCORE.INTRA.REPUL>
0

>  <SCORE.INTRA.REPUL.0>
0

>  <SCORE.INTRA.SOLV>
0

>  <SCORE.INTRA.SOLV.lig_0>
-13.7928

>  <SCORE.INTRA.VDW>
0

>  <SCORE.INTRA.VDW.0>
0

>  <SCORE.INTRA.norm>
0

>  <SCORE.RESTR>
0

>  <SCORE.RESTR.CAVITY>
0

>  <SCORE.RESTR.norm>
0

>  <SCORE.SYSTEM>
0

>  <SCORE.SYSTEM.CONST>
0

>  <SCORE.SYSTEM.DIHEDRAL>
0

>  <SCORE.SYSTEM.SOLV>
0

>  <SCORE.SYSTEM.norm>
0

>  <SCORE.heavy>
10

>  <SCORE.norm>
-2.31439

>  <RMSD>
1.276

$$$$
1u8d_lig
 OpenBabel11021811413D
libRbt.so/2013.1/901 2013/11/27
 10 11  0  0  0  0  0  0  0  0999 V2000
   13.0395   11.2328    9.6816 N   0  0  0  0  0  0  0  0  0  0  0  0
   12.0640   12.1156   10.1757 C   0  0  0  0  0  0  0  0  0  0  0  0
   11.0745   12.6426    9.4102 N   0  0  0  0  0  0  0  0  0  0  0  0
   11.1274   12.2258    8.1265 C   0  0  0  0  0  0  0  0  0  0  0  0
   12.1623   11.2737    7.5295 C   0  0  0  0  0  0  0  0  0  0  0  0
   13.1665   10.7574    8.3629 C   0  0  0  0  0  0  0  0  0  0  0  0
   14.0804    9.9869    8.1021 O   0  0  0  0  0  0  0  0  0  0  0  0
   11.8457   11.1279    6.2067 N   0  0  0  0  0  0  0  0  0  0  0  0
   10.7266   11.8869    5.9662 C   0  0  0  0  0  0  0  0  0  0  0  0
   10.2690   12.5602    7.0958 N   0  0  0  0  0  0  0  0  0  0  0  0
  1  2  1  0  0  0  0
  1  6  1  0  0  0  0
  2  3  2  0  0  0  0
  3  4  1  0  0  0  0
  4  5  2  0  0  0  0
  4 10  1  0  0  0  0
  5  6  1  0  0  0  0
  5  8  1  0  0  0  0
  6  7  2  0  0  0  0
  8  9  1  0  0  0  0
  9 10  2  0  0  0  0
M  END
>  <CHROM.1>
11.98664843,11.55833146,8.06884854,0.57050244,-0.62599231,1.28627944

>  <Name>
1u8d_lig

>  <RI>
0

>  <Rbt.Current_Directory>
/home/itssahil/PROJECTS/Mol_Feturizer/New_Systems/rnas/1u8d

>  <Rbt.Executable>
rbdock ($Id: //depot/dev/client3/rdock/2013.1/src/exe/rbdock.cxx#4 $)

>  <Rbt.Library>
libRbt.so (2013.1, Build901 2013/11/27)

>  <Rbt.Parameter_File>
/export/apps/rDock/src/rDock_2013.1_src/data/scripts/dock_solv.prm

>  <Rbt.Receptor>
prm/pocket_docking_4.prm

>  <SCORE>
-23.1692

>  <SCORE.INTER>
-23.1692

>  <SCORE.INTER.CONST>
1

>  <SCORE.INTER.POLAR>
-2.47834

>  <SCORE.INTER.ROT>
0

>  <SCORE.INTER.SOLV>
10.3393

>  <SCORE.INTER.VDW>
-14.2314

>  <SCORE.INTER.norm>
-2.31692

>  <SCORE.INTRA>
0

>  <SCORE.INTRA.DIHEDRAL>
0

>  <SCORE.INTRA.DIHEDRAL.0>
0

>  <SCORE.INTRA.POLAR>
0

>  <SCORE.INTRA.POLAR.0>
0

>  <SCORE.INTRA.REPUL>
0

>  <SCORE.INTRA.REPUL.0>
0

>  <SCORE.INTRA.SOLV>
0

>  <SCORE.INTRA.SOLV.lig_0>
-13.7928

>  <SCORE.INTRA.VDW>
0

>  <SCORE.INTRA.VDW.0>
0

>  <SCORE.INTRA.norm>
0

>  <SCORE.RESTR>
0

>  <SCORE.RESTR.CAVITY>
0

>  <SCORE.RESTR.norm>
0

>  <SCORE.SYSTEM>
0

>  <SCORE.SYSTEM.CONST>
0

>  <SCORE.SYSTEM.DIHEDRAL>
0

>  <SCORE.SYSTEM.SOLV>
0

>  <SCORE.SYSTEM.norm>
0

>  <SCORE.heavy>
10

>  <SCORE.norm>
-2.31692

>  <RMSD>
1.277

$$$$
1u8d_lig
 OpenBabel11021811413D
libRbt.so/2013.1/901 2013/11/27
 10 11  0  0  0  0  0  0  0  0999 V2000
   13.0411   11.2563    9.6752 N   0  0  0  0  0  0  0  0  0  0  0  0
   12.0534   12.1201   10.1782 C   0  0  0  0  0  0  0  0  0  0  0  0
   11.0550   12.6389    9.4187 N   0  0  0  0  0  0  0  0  0  0  0  0
   11.1122   12.2340    8.1314 C   0  0  0  0  0  0  0  0  0  0  0  0
   12.1601   11.3025    7.5248 C   0  0  0  0  0  0  0  0  0  0  0  0
   13.1732   10.7941    8.3523 C   0  0  0  0  0  0  0  0  0  0  0  0
   14.0980   10.0396    8.0836 O   0  0  0  0  0  0  0  0  0  0  0  0
   11.8438   11.1634    6.2012 N   0  0  0  0  0  0  0  0  0  0  0  0
   10.7131   11.9078    5.9688 C   0  0  0  0  0  0  0  0  0  0  0  0
   10.2473   12.5645    7.1047 N   0  0  0  0  0  0  0  0  0  0  0  0
  1  2  1  0  0  0  0
  1  6  1  0  0  0  0
  2  3  2  0  0  0  0
  3  4  1  0  0  0  0
  4  5  2  0  0  0  0
  4 10  1  0  0  0  0
  5  6  1  0  0  0  0
  5  8  1  0  0  0  0
  6  7  2  0  0  0  0
  8  9  1  0  0  0  0
  9 10  2  0  0  0  0
M  END
>  <CHROM.1>
11.98113529,11.57991486,8.06674896,0.57380214,-0.61130025,1.29679872

>  <Name>
1u8d_lig

>  <RI>
0

>  <Rbt.Current_Directory>
/home/itssahil/PROJECTS/Mol_Feturizer/New_Systems/rnas/1u8d

>  <Rbt.Executable>
rbdock ($Id: //depot/dev/client3/rdock/2013.1/src/exe/rbdock.cxx#4 $)

>  <Rbt.Library>
libRbt.so (2013.1, Build901 2013/11/27)

>  <Rbt.Parameter_File>
/export/apps/rDock/src/rDock_2013.1_src/data/scripts/dock_solv.prm

>  <Rbt.Receptor>
prm/blind_docking_100.prm

>  <SCORE>
-23.1441

>  <SCORE.INTER>
-23.1441

>  <SCORE.INTER.CONST>
1

>  <SCORE.INTER.POLAR>
-2.52815

>  <SCORE.INTER.ROT>
0

>  <SCORE.INTER.SOLV>
10.3355

>  <SCORE.INTER.VDW>
-14.0474

>  <SCORE.INTER.norm>
-2.31441

>  <SCORE.INTRA>
0

>  <SCORE.INTRA.DIHEDRAL>
0

>  <SCORE.INTRA.DIHEDRAL.0>
0

>  <SCORE.INTRA.POLAR>
0

>  <SCORE.INTRA.POLAR.0>
0

>  <SCORE.INTRA.REPUL>
0

>  <SCORE.INTRA.REPUL.0>
0

>  <SCORE.INTRA.SOLV>
0

>  <SCORE.INTRA.SOLV.lig_0>
-13.7928

>  <SCORE.INTRA.VDW>
0

>  <SCORE.INTRA.VDW.0>
0

>  <SCORE.INTRA.norm>
0

>  <SCORE.RESTR>
0

>  <SCORE.RESTR.CAVITY>
0

>  <SCORE.RESTR.norm>
0

>  <SCORE.SYSTEM>
0

>  <SCORE.SYSTEM.CONST>
0

>  <SCORE.SYSTEM.DIHEDRAL>
0

>  <SCORE.SYSTEM.SOLV>
0

>  <SCORE.SYSTEM.norm>
0

>  <SCORE.heavy>
10

>  <SCORE.norm>
-2.31441

>  <RMSD>
1.294

$$$$
1u8d_lig
 OpenBabel11021811413D
libRbt.so/2013.1/901 2013/11/27
 10 11  0  0  0  0  0  0  0  0999 V2000
   12.3427    9.7490    9.0089 N   0  0  0  0  0  0  0  0  0  0  0  0
   12.8293    9.1276    7.8461 C   0  0  0  0  0  0  0  0  0  0  0  0
   12.5588    9.5700    6.5916 N   0  0  0  0  0  0  0  0  0  0  0  0
   11.7757   10.6706    6.5820 C   0  0  0  0  0  0  0  0  0  0  0  0
   11.2132   11.3876    7.8081 C   0  0  0  0  0  0  0  0  0  0  0  0
   11.5208   10.8892    9.0835 C   0  0  0  0  0  0  0  0  0  0  0  0
   11.1878   11.3017   10.1861 O   0  0  0  0  0  0  0  0  0  0  0  0
   10.4768   12.4426    7.3434 N   0  0  0  0  0  0  0  0  0  0  0  0
   10.5563   12.4266    5.9722 C   0  0  0  0  0  0  0  0  0  0  0  0
   11.3269   11.3761    5.4812 N   0  0  0  0  0  0  0  0  0  0  0  0
  1  2  1  0  0  0  0
  1  6  1  0  0  0  0
  2  3  2  0  0  0  0
  3  4  1  0  0  0  0
  4  5  2  0  0  0  0
  4 10  1  0  0  0  0
  5  6  1  0  0  0  0
  5  8  1  0  0  0  0
  6  7  2  0  0  0  0
  8  9  1  0  0  0  0
  9 10  2  0  0  0  0
M  END
>  <CHROM.1>
11.57471715,10.89791967,7.62845744,-1.10214465,0.95047299,-1.51455185

>  <Name>
1u8d_lig

>  <RI>
0

>  <Rbt.Current_Directory>
/home/itssahil/PROJECTS/Mol_Feturizer/New_Systems/rnas/1u8d

>  <Rbt.Executable>
rbdock ($Id: //depot/dev/client3/rdock/2013.1/src/exe/rbdock.cxx#4 $)

>  <Rbt.Library>
libRbt.so (2013.1, Build901 2013/11/27)

>  <Rbt.Parameter_File>
/export/apps/rDock/src/rDock_2013.1_src/data/scripts/dock_solv.prm

>  <Rbt.Receptor>
prm/blind_docking_40.prm

>  <SCORE>
-19.1296

>  <SCORE.INTER>
-19.1296

>  <SCORE.INTER.CONST>
1

>  <SCORE.INTER.POLAR>
-1.51774

>  <SCORE.INTER.ROT>
0

>  <SCORE.INTER.SOLV>
10.3066

>  <SCORE.INTER.VDW>
-14.7294

>  <SCORE.INTER.norm>
-1.91296

>  <SCORE.INTRA>
0

>  <SCORE.INTRA.DIHEDRAL>
0

>  <SCORE.INTRA.DIHEDRAL.0>
0

>  <SCORE.INTRA.POLAR>
0

>  <SCORE.INTRA.POLAR.0>
0

>  <SCORE.INTRA.REPUL>
0

>  <SCORE.INTRA.REPUL.0>
0

>  <SCORE.INTRA.SOLV>
0

>  <SCORE.INTRA.SOLV.lig_0>
-13.7928

>  <SCORE.INTRA.VDW>
0

>  <SCORE.INTRA.VDW.0>
0

>  <SCORE.INTRA.norm>
0

>  <SCORE.RESTR>
0

>  <SCORE.RESTR.CAVITY>
0

>  <SCORE.RESTR.norm>
0

>  <SCORE.SYSTEM>
0

>  <SCORE.SYSTEM.CONST>
0

>  <SCORE.SYSTEM.DIHEDRAL>
0

>  <SCORE.SYSTEM.SOLV>
0

>  <SCORE.SYSTEM.norm>
0

>  <SCORE.heavy>
10

>  <SCORE.norm>
-1.91296

>  <RMSD>
2.441

$$$$
1u8d_lig
 OpenBabel11021811413D
libRbt.so/2013.1/901 2013/11/27
 10 11  0  0  0  0  0  0  0  0999 V2000
   12.3407    9.7482    9.0060 N   0  0  0  0  0  0  0  0  0  0  0  0
   12.8275    9.1258    7.8438 C   0  0  0  0  0  0  0  0  0  0  0  0
   12.5601    9.5693    6.5890 N   0  0  0  0  0  0  0  0  0  0  0  0
   11.7800   10.6719    6.5786 C   0  0  0  0  0  0  0  0  0  0  0  0
   11.2174   11.3901    7.8040 C   0  0  0  0  0  0  0  0  0  0  0  0
   11.5218   10.8905    9.0797 C   0  0  0  0  0  0  0  0  0  0  0  0
   11.1882   11.3037   10.1819 O   0  0  0  0  0  0  0  0  0  0  0  0
   10.4846   12.4472    7.3384 N   0  0  0  0  0  0  0  0  0  0  0  0
   10.5662   12.4313    5.9674 C   0  0  0  0  0  0  0  0  0  0  0  0
   11.3347   11.3789    5.4772 N   0  0  0  0  0  0  0  0  0  0  0  0
  1  2  1  0  0  0  0
  1  6  1  0  0  0  0
  2  3  2  0  0  0  0
  3  4  1  0  0  0  0
  4  5  2  0  0  0  0
  4 10  1  0  0  0  0
  5  6  1  0  0  0  0
  5  8  1  0  0  0  0
  6  7  2  0  0  0  0
  8  9  1  0  0  0  0
  9 10  2  0  0  0  0
M  END
>  <CHROM.1>
11.57794135,10.89953128,7.62478075,-1.10503944,0.95306109,-1.51192605

>  <Name>
1u8d_lig

>  <RI>
0

>  <Rbt.Current_Directory>
/home/itssahil/PROJECTS/Mol_Feturizer/New_Systems/rnas/1u8d

>  <Rbt.Executable>
rbdock ($Id: //depot/dev/client3/rdock/2013.1/src/exe/rbdock.cxx#4 $)

>  <Rbt.Library>
libRbt.so (2013.1, Build901 2013/11/27)

>  <Rbt.Parameter_File>
/export/apps/rDock/src/rDock_2013.1_src/data/scripts/dock_solv.prm

>  <Rbt.Receptor>
prm/blind_docking_40.prm

>  <SCORE>
-19.1283

>  <SCORE.INTER>
-19.1283

>  <SCORE.INTER.CONST>
1

>  <SCORE.INTER.POLAR>
-1.51817

>  <SCORE.INTER.ROT>
0

>  <SCORE.INTER.SOLV>
10.3087

>  <SCORE.INTER.VDW>
-14.7279

>  <SCORE.INTER.norm>
-1.91283

>  <SCORE.INTRA>
0

>  <SCORE.INTRA.DIHEDRAL>
0

>  <SCORE.INTRA.DIHEDRAL.0>
0

>  <SCORE.INTRA.POLAR>
0

>  <SCORE.INTRA.POLAR.0>
0

>  <SCORE.INTRA.REPUL>
0

>  <SCORE.INTRA.REPUL.0>
0

>  <SCORE.INTRA.SOLV>
0

>  <SCORE.INTRA.SOLV.lig_0>
-13.7928

>  <SCORE.INTRA.VDW>
0

>  <SCORE.INTRA.VDW.0>
0

>  <SCORE.INTRA.norm>
0

>  <SCORE.RESTR>
0

>  <SCORE.RESTR.CAVITY>
0

>  <SCORE.RESTR.norm>
0

>  <SCORE.SYSTEM>
0

>  <SCORE.SYSTEM.CONST>
0

>  <SCORE.SYSTEM.DIHEDRAL>
0

>  <SCORE.SYSTEM.SOLV>
0

>  <SCORE.SYSTEM.norm>
0

>  <SCORE.heavy>
10

>  <SCORE.norm>
-1.91283

>  <RMSD>
2.441

$$$$
1u8d_lig
 OpenBabel11021811413D
libRbt.so/2013.1/901 2013/11/27
 10 11  0  0  0  0  0  0  0  0999 V2000
   12.3398    9.7537    9.0089 N   0  0  0  0  0  0  0  0  0  0  0  0
   12.8253    9.1292    7.8473 C   0  0  0  0  0  0  0  0  0  0  0  0
   12.5550    9.5693    6.5919 N   0  0  0  0  0  0  0  0  0  0  0  0
   11.7734   10.6708    6.5803 C   0  0  0  0  0  0  0  0  0  0  0  0
   11.2121   11.3912    7.8050 C   0  0  0  0  0  0  0  0  0  0  0  0
   11.5195   10.8951    9.0813 C   0  0  0  0  0  0  0  0  0  0  0  0
   11.1874   11.3104   10.1831 O   0  0  0  0  0  0  0  0  0  0  0  0
   10.4770   12.4462    7.3382 N   0  0  0  0  0  0  0  0  0  0  0  0
   10.5561   12.4272    5.9671 C   0  0  0  0  0  0  0  0  0  0  0  0
   11.3251   11.3746    5.4780 N   0  0  0  0  0  0  0  0  0  0  0  0
  1  2  1  0  0  0  0
  1  6  1  0  0  0  0
  2  3  2  0  0  0  0
  3  4  1  0  0  0  0
  4  5  2  0  0  0  0
  4 10  1  0  0  0  0
  5  6  1  0  0  0  0
  5  8  1  0  0  0  0
  6  7  2  0  0  0  0
  8  9  1  0  0  0  0
  9 10  2  0  0  0  0
M  END
>  <CHROM.1>
11.57296776,10.90070095,7.62625550,-1.10172723,0.95182142,-1.51702665

>  <Name>
1u8d_lig

>  <RI>
0

>  <Rbt.Current_Directory>
/home/itssahil/PROJECTS/Mol_Feturizer/New_Systems/rnas/1u8d

>  <Rbt.Executable>
rbdock ($Id: //depot/dev/client3/rdock/2013.1/src/exe/rbdock.cxx#4 $)

>  <Rbt.Library>
libRbt.so (2013.1, Build901 2013/11/27)

>  <Rbt.Parameter_File>
/export/apps/rDock/src/rDock_2013.1_src/data/scripts/dock_solv.prm

>  <Rbt.Receptor>
prm/blind_docking_80.prm

>  <SCORE>
-19.1299

>  <SCORE.INTER>
-19.1299

>  <SCORE.INTER.CONST>
1

>  <SCORE.INTER.POLAR>
-1.50903

>  <SCORE.INTER.ROT>
0

>  <SCORE.INTER.SOLV>
10.3044

>  <SCORE.INTER.VDW>
-14.758

>  <SCORE.INTER.norm>
-1.91299

>  <SCORE.INTRA>
0

>  <SCORE.INTRA.DIHEDRAL>
0

>  <SCORE.INTRA.DIHEDRAL.0>
0

>  <SCORE.INTRA.POLAR>
0

>  <SCORE.INTRA.POLAR.0>
0

>  <SCORE.INTRA.REPUL>
0

>  <SCORE.INTRA.REPUL.0>
0

>  <SCORE.INTRA.SOLV>
0

>  <SCORE.INTRA.SOLV.lig_0>
-13.7928

>  <SCORE.INTRA.VDW>
0

>  <SCORE.INTRA.VDW.0>
0

>  <SCORE.INTRA.norm>
0

>  <SCORE.RESTR>
0

>  <SCORE.RESTR.CAVITY>
0

>  <SCORE.RESTR.norm>
0

>  <SCORE.SYSTEM>
0

>  <SCORE.SYSTEM.CONST>
0

>  <SCORE.SYSTEM.DIHEDRAL>
0

>  <SCORE.SYSTEM.SOLV>
0

>  <SCORE.SYSTEM.norm>
0

>  <SCORE.heavy>
10

>  <SCORE.norm>
-1.91299

>  <RMSD>
2.441

$$$$
1u8d_lig
 OpenBabel11021811413D
libRbt.so/2013.1/901 2013/11/27
 10 11  0  0  0  0  0  0  0  0999 V2000
   12.2099    9.6380    8.8103 N   0  0  0  0  0  0  0  0  0  0  0  0
   11.9776    8.8243    7.6884 C   0  0  0  0  0  0  0  0  0  0  0  0
   11.5267    9.2993    6.4994 N   0  0  0  0  0  0  0  0  0  0  0  0
   11.3287   10.6354    6.5106 C   0  0  0  0  0  0  0  0  0  0  0  0
   11.5581   11.5710    7.6963 C   0  0  0  0  0  0  0  0  0  0  0  0
   12.0234   11.0300    8.9047 C   0  0  0  0  0  0  0  0  0  0  0  0
   12.2773   11.5858    9.9646 O   0  0  0  0  0  0  0  0  0  0  0  0
   11.2315   12.8301    7.2727 N   0  0  0  0  0  0  0  0  0  0  0  0
   10.8438   12.7337    5.9586 C   0  0  0  0  0  0  0  0  0  0  0  0
   10.8889   11.4310    5.4691 N   0  0  0  0  0  0  0  0  0  0  0  0
  1  2  1  0  0  0  0
  1  6  1  0  0  0  0
  2  3  2  0  0  0  0
  3  4  1  0  0  0  0
  4  5  2  0  0  0  0
  4 10  1  0  0  0  0
  5  6  1  0  0  0  0
  5  8  1  0  0  0  0
  6  7  2  0  0  0  0
  8  9  1  0  0  0  0
  9 10  2  0  0  0  0
M  END
>  <CHROM.1>
11.59720194,10.96442904,7.51395343,0.05807596,1.23465071,-2.69211155

>  <Name>
1u8d_lig

>  <RI>
0

>  <Rbt.Current_Directory>
/home/itssahil/PROJECTS/Mol_Feturizer/New_Systems/rnas/1u8d

>  <Rbt.Executable>
rbdock ($Id: //depot/dev/client3/rdock/2013.1/src/exe/rbdock.cxx#4 $)

>  <Rbt.Library>
libRbt.so (2013.1, Build901 2013/11/27)

>  <Rbt.Parameter_File>
/export/apps/rDock/src/rDock_2013.1_src/data/scripts/dock_solv.prm

>  <Rbt.Receptor>
prm/blind_docking_60.prm

>  <SCORE>
-18.8514

>  <SCORE.INTER>
-18.8514

>  <SCORE.INTER.CONST>
1

>  <SCORE.INTER.POLAR>
-1.59088

>  <SCORE.INTER.ROT>
0

>  <SCORE.INTER.SOLV>
11.0349

>  <SCORE.INTER.VDW>
-14.543

>  <SCORE.INTER.norm>
-1.88514

>  <SCORE.INTRA>
0

>  <SCORE.INTRA.DIHEDRAL>
0

>  <SCORE.INTRA.DIHEDRAL.0>
0

>  <SCORE.INTRA.POLAR>
0

>  <SCORE.INTRA.POLAR.0>
0

>  <SCORE.INTRA.REPUL>
0

>  <SCORE.INTRA.REPUL.0>
0

>  <SCORE.INTRA.SOLV>
0

>  <SCORE.INTRA.SOLV.lig_0>
-13.7928

>  <SCORE.INTRA.VDW>
0

>  <SCORE.INTRA.VDW.0>
0

>  <SCORE.INTRA.norm>
0

>  <SCORE.RESTR>
0

>  <SCORE.RESTR.CAVITY>
0

>  <SCORE.RESTR.norm>
0

>  <SCORE.SYSTEM>
0

>  <SCORE.SYSTEM.CONST>
0

>  <SCORE.SYSTEM.DIHEDRAL>
0

>  <SCORE.SYSTEM.SOLV>
0

>  <SCORE.SYSTEM.norm>
0

>  <SCORE.heavy>
10

>  <SCORE.norm>
-1.88514

>  <RMSD>
2.459

$$$$
1u8d_lig
 OpenBabel11021811413D
libRbt.so/2013.1/901 2013/11/27
 10 11  0  0  0  0  0  0  0  0999 V2000
   12.1925    9.6309    8.8148 N   0  0  0  0  0  0  0  0  0  0  0  0
   11.9761    8.8192    7.6881 C   0  0  0  0  0  0  0  0  0  0  0  0
   11.5383    9.2959    6.4949 N   0  0  0  0  0  0  0  0  0  0  0  0
   11.3365   10.6314    6.5069 C   0  0  0  0  0  0  0  0  0  0  0  0
   11.5489   11.5648    7.6975 C   0  0  0  0  0  0  0  0  0  0  0  0
   12.0010   11.0220    8.9102 C   0  0  0  0  0  0  0  0  0  0  0  0
   12.2405   11.5760    9.9744 O   0  0  0  0  0  0  0  0  0  0  0  0
   11.2239   12.8240    7.2731 N   0  0  0  0  0  0  0  0  0  0  0  0
   10.8525   12.7297    5.9541 C   0  0  0  0  0  0  0  0  0  0  0  0
   10.9071   11.4283    5.4620 N   0  0  0  0  0  0  0  0  0  0  0  0
  1  2  1  0  0  0  0
  1  6  1  0  0  0  0
  2  3  2  0  0  0  0
  3  4  1  0  0  0  0
  4  5  2  0  0  0  0
  4 10  1  0  0  0  0
  5  6  1  0  0  0  0
  5  8  1  0  0  0  0
  6  7  2  0  0  0  0
  8  9  1  0  0  0  0
  9 10  2  0  0  0  0
M  END
>  <CHROM.1>
11.59187987,10.95873022,7.51423481,0.03380532,1.24427768,-2.66674779

>  <Name>
1u8d_lig

>  <RI>
0

>  <Rbt.Current_Directory>
/home/itssahil/PROJECTS/Mol_Feturizer/New_Systems/rnas/1u8d

>  <Rbt.Executable>
rbdock ($Id: //depot/dev/client3/rdock/2013.1/src/exe/rbdock.cxx#4 $)

>  <Rbt.Library>
libRbt.so (2013.1, Build901 2013/11/27)

>  <Rbt.Parameter_File>
/export/apps/rDock/src/rDock_2013.1_src/data/scripts/dock_solv.prm

>  <Rbt.Receptor>
prm/blind_docking_40.prm

>  <SCORE>
-18.8811

>  <SCORE.INTER>
-18.8811

>  <SCORE.INTER.CONST>
1

>  <SCORE.INTER.POLAR>
-1.61081

>  <SCORE.INTER.ROT>
0

>  <SCORE.INTER.SOLV>
11.0416

>  <SCORE.INTER.VDW>
-14.4986

>  <SCORE.INTER.norm>
-1.88811

>  <SCORE.INTRA>
0

>  <SCORE.INTRA.DIHEDRAL>
0

>  <SCORE.INTRA.DIHEDRAL.0>
0

>  <SCORE.INTRA.POLAR>
0

>  <SCORE.INTRA.POLAR.0>
0

>  <SCORE.INTRA.REPUL>
0

>  <SCORE.INTRA.REPUL.0>
0

>  <SCORE.INTRA.SOLV>
0

>  <SCORE.INTRA.SOLV.lig_0>
-13.7928

>  <SCORE.INTRA.VDW>
0

>  <SCORE.INTRA.VDW.0>
0

>  <SCORE.INTRA.norm>
0

>  <SCORE.RESTR>
0

>  <SCORE.RESTR.CAVITY>
0

>  <SCORE.RESTR.norm>
0

>  <SCORE.SYSTEM>
0

>  <SCORE.SYSTEM.CONST>
0

>  <SCORE.SYSTEM.DIHEDRAL>
0

>  <SCORE.SYSTEM.SOLV>
0

>  <SCORE.SYSTEM.norm>
0

>  <SCORE.heavy>
10

>  <SCORE.norm>
-1.88811

>  <RMSD>
2.460

$$$$
1u8d_lig
 OpenBabel11021811413D
libRbt.so/2013.1/901 2013/11/27
 10 11  0  0  0  0  0  0  0  0999 V2000
   12.1955    9.6370    8.8188 N   0  0  0  0  0  0  0  0  0  0  0  0
   11.9800    8.8223    7.6942 C   0  0  0  0  0  0  0  0  0  0  0  0
   11.5412    9.2955    6.4999 N   0  0  0  0  0  0  0  0  0  0  0  0
   11.3371   10.6307    6.5088 C   0  0  0  0  0  0  0  0  0  0  0  0
   11.5483   11.5672    7.6971 C   0  0  0  0  0  0  0  0  0  0  0  0
   12.0017   11.0281    8.9110 C   0  0  0  0  0  0  0  0  0  0  0  0
   12.2406   11.5850    9.9738 O   0  0  0  0  0  0  0  0  0  0  0  0
   11.2212   12.8249    7.2698 N   0  0  0  0  0  0  0  0  0  0  0  0
   10.8495   12.7268    5.9512 C   0  0  0  0  0  0  0  0  0  0  0  0
   10.9062   11.4244    5.4622 N   0  0  0  0  0  0  0  0  0  0  0  0
  1  2  1  0  0  0  0
  1  6  1  0  0  0  0
  2  3  2  0  0  0  0
  3  4  1  0  0  0  0
  4  5  2  0  0  0  0
  4 10  1  0  0  0  0
  5  6  1  0  0  0  0
  5  8  1  0  0  0  0
  6  7  2  0  0  0  0
  8  9  1  0  0  0  0
  9 10  2  0  0  0  0
M  END
>  <CHROM.1>
11.59228920,10.96079586,7.51530578,0.02967240,1.24327372,-2.66520146

>  <Name>
1u8d_lig

>  <RI>
0

>  <Rbt.Current_Directory>
/home/itssahil/PROJECTS/Mol_Feturizer/New_Systems/rnas/1u8d

>  <Rbt.Executable>
rbdock ($Id: //depot/dev/client3/rdock/2013.1/src/exe/rbdock.cxx#4 $)

>  <Rbt.Library>
libRbt.so (2013.1, Build901 2013/11/27)

>  <Rbt.Parameter_File>
/export/apps/rDock/src/rDock_2013.1_src/data/scripts/dock_solv.prm

>  <Rbt.Receptor>
prm/blind_docking_40.prm

>  <SCORE>
-18.8784

>  <SCORE.INTER>
-18.8784

>  <SCORE.INTER.CONST>
1

>  <SCORE.INTER.POLAR>
-1.59848

>  <SCORE.INTER.ROT>
0

>  <SCORE.INTER.SOLV>
11.034

>  <SCORE.INTER.VDW>
-14.5353

>  <SCORE.INTER.norm>
-1.88784

>  <SCORE.INTRA>
0

>  <SCORE.INTRA.DIHEDRAL>
0

>  <SCORE.INTRA.DIHEDRAL.0>
0

>  <SCORE.INTRA.POLAR>
0

>  <SCORE.INTRA.POLAR.0>
0

>  <SCORE.INTRA.REPUL>
0

>  <SCORE.INTRA.REPUL.0>
0

>  <SCORE.INTRA.SOLV>
0

>  <SCORE.INTRA.SOLV.lig_0>
-13.7928

>  <SCORE.INTRA.VDW>
0

>  <SCORE.INTRA.VDW.0>
0

>  <SCORE.INTRA.norm>
0

>  <SCORE.RESTR>
0

>  <SCORE.RESTR.CAVITY>
0

>  <SCORE.RESTR.norm>
0

>  <SCORE.SYSTEM>
0

>  <SCORE.SYSTEM.CONST>
0

>  <SCORE.SYSTEM.DIHEDRAL>
0

>  <SCORE.SYSTEM.SOLV>
0

>  <SCORE.SYSTEM.norm>
0

>  <SCORE.heavy>
10

>  <SCORE.norm>
-1.88784

>  <RMSD>
2.460

$$$$
1u8d_lig
 OpenBabel11021811413D
libRbt.so/2013.1/901 2013/11/27
 10 11  0  0  0  0  0  0  0  0999 V2000
   12.2001    9.6386    8.8210 N   0  0  0  0  0  0  0  0  0  0  0  0
   11.9828    8.8230    7.6974 C   0  0  0  0  0  0  0  0  0  0  0  0
   11.5418    9.2951    6.5035 N   0  0  0  0  0  0  0  0  0  0  0  0
   11.3375   10.6303    6.5118 C   0  0  0  0  0  0  0  0  0  0  0  0
   11.5507   11.5678    7.6990 C   0  0  0  0  0  0  0  0  0  0  0  0
   12.0063   11.0297    8.9124 C   0  0  0  0  0  0  0  0  0  0  0  0
   12.2470   11.5874    9.9744 O   0  0  0  0  0  0  0  0  0  0  0  0
   11.2226   12.8250    7.2712 N   0  0  0  0  0  0  0  0  0  0  0  0
   10.8486   12.7259    5.9533 C   0  0  0  0  0  0  0  0  0  0  0  0
   10.9046   11.4231    5.4653 N   0  0  0  0  0  0  0  0  0  0  0  0
  1  2  1  0  0  0  0
  1  6  1  0  0  0  0
  2  3  2  0  0  0  0
  3  4  1  0  0  0  0
  4  5  2  0  0  0  0
  4 10  1  0  0  0  0
  5  6  1  0  0  0  0
  5  8  1  0  0  0  0
  6  7  2  0  0  0  0
  8  9  1  0  0  0  0
  9 10  2  0  0  0  0
M  END
>  <CHROM.1>
11.59442870,10.96123062,7.51751271,0.03180001,1.24162712,-2.66800660

>  <Name>
1u8d_lig

>  <RI>
0

>  <Rbt.Current_Directory>
/home/itssahil/PROJECTS/Mol_Feturizer/New_Systems/rnas/1u8d

>  <Rbt.Executable>
rbdock ($Id: //depot/dev/client3/rdock/2013.1/src/exe/rbdock.cxx#4 $)

>  <Rbt.Library>
libRbt.so (2013.1, Build901 2013/11/27)

>  <Rbt.Parameter_File>
/export/apps/rDock/src/rDock_2013.1_src/data/scripts/dock_solv.prm

>  <Rbt.Receptor>
prm/blind_docking_40.prm

>  <SCORE>
-18.8821

>  <SCORE.INTER>
-18.8821

>  <SCORE.INTER.CONST>
1

>  <SCORE.INTER.POLAR>
-1.59746

>  <SCORE.INTER.ROT>
0

>  <SCORE.INTER.SOLV>
11.0306

>  <SCORE.INTER.VDW>
-14.5401

>  <SCORE.INTER.norm>
-1.88821

>  <SCORE.INTRA>
0

>  <SCORE.INTRA.DIHEDRAL>
0

>  <SCORE.INTRA.DIHEDRAL.0>
0

>  <SCORE.INTRA.POLAR>
0

>  <SCORE.INTRA.POLAR.0>
0

>  <SCORE.INTRA.REPUL>
0

>  <SCORE.INTRA.REPUL.0>
0

>  <SCORE.INTRA.SOLV>
0

>  <SCORE.INTRA.SOLV.lig_0>
-13.7928

>  <SCORE.INTRA.VDW>
0

>  <SCORE.INTRA.VDW.0>
0

>  <SCORE.INTRA.norm>
0

>  <SCORE.RESTR>
0

>  <SCORE.RESTR.CAVITY>
0

>  <SCORE.RESTR.norm>
0

>  <SCORE.SYSTEM>
0

>  <SCORE.SYSTEM.CONST>
0

>  <SCORE.SYSTEM.DIHEDRAL>
0

>  <SCORE.SYSTEM.SOLV>
0

>  <SCORE.SYSTEM.norm>
0

>  <SCORE.heavy>
10

>  <SCORE.norm>
-1.88821

>  <RMSD>
2.460

$$$$
1u8d_lig
 OpenBabel11021811413D
libRbt.so/2013.1/901 2013/11/27
 10 11  0  0  0  0  0  0  0  0999 V2000
   11.7768   10.1749    8.9955 N   0  0  0  0  0  0  0  0  0  0  0  0
   11.9243    9.2416    7.9552 C   0  0  0  0  0  0  0  0  0  0  0  0
   11.7650    9.5514    6.6432 N   0  0  0  0  0  0  0  0  0  0  0  0
   11.4529   10.8507    6.4463 C   0  0  0  0  0  0  0  0  0  0  0  0
   11.2747   11.9099    7.5326 C   0  0  0  0  0  0  0  0  0  0  0  0
   11.4486   11.5383    8.8747 C   0  0  0  0  0  0  0  0  0  0  0  0
   11.3613   12.2134    9.8912 O   0  0  0  0  0  0  0  0  0  0  0  0
   10.9615   13.0788    6.8947 N   0  0  0  0  0  0  0  0  0  0  0  0
   10.9471   12.8194    5.5459 C   0  0  0  0  0  0  0  0  0  0  0  0
   11.2365   11.4921    5.2409 N   0  0  0  0  0  0  0  0  0  0  0  0
  1  2  1  0  0  0  0
  1  6  1  0  0  0  0
  2  3  2  0  0  0  0
  3  4  1  0  0  0  0
  4  5  2  0  0  0  0
  4 10  1  0  0  0  0
  5  6  1  0  0  0  0
  5  8  1  0  0  0  0
  6  7  2  0  0  0  0
  8  9  1  0  0  0  0
  9 10  2  0  0  0  0
M  END
>  <CHROM.1>
11.41479616,11.29809037,7.43897399,-0.93596766,1.33515442,-1.83772087

>  <Name>
1u8d_lig

>  <RI>
0

>  <Rbt.Current_Directory>
/home/itssahil/PROJECTS/Mol_Feturizer/New_Systems/rnas/1u8d

>  <Rbt.Executable>
rbdock ($Id: //depot/dev/client3/rdock/2013.1/src/exe/rbdock.cxx#4 $)

>  <Rbt.Library>
libRbt.so (2013.1, Build901 2013/11/27)

>  <Rbt.Parameter_File>
/export/apps/rDock/src/rDock_2013.1_src/data/scripts/dock_solv.prm

>  <Rbt.Receptor>
prm/blind_docking_60.prm

>  <SCORE>
-17.9221

>  <SCORE.INTER>
-17.9221

>  <SCORE.INTER.CONST>
1

>  <SCORE.INTER.POLAR>
-0.708761

>  <SCORE.INTER.ROT>
0

>  <SCORE.INTER.SOLV>
11.4998

>  <SCORE.INTER.VDW>
-17.0188

>  <SCORE.INTER.norm>
-1.79221

>  <SCORE.INTRA>
0

>  <SCORE.INTRA.DIHEDRAL>
0

>  <SCORE.INTRA.DIHEDRAL.0>
0

>  <SCORE.INTRA.POLAR>
0

>  <SCORE.INTRA.POLAR.0>
0

>  <SCORE.INTRA.REPUL>
0

>  <SCORE.INTRA.REPUL.0>
0

>  <SCORE.INTRA.SOLV>
0

>  <SCORE.INTRA.SOLV.lig_0>
-13.7928

>  <SCORE.INTRA.VDW>
0

>  <SCORE.INTRA.VDW.0>
0

>  <SCORE.INTRA.norm>
0

>  <SCORE.RESTR>
0

>  <SCORE.RESTR.CAVITY>
0

>  <SCORE.RESTR.norm>
0

>  <SCORE.SYSTEM>
0

>  <SCORE.SYSTEM.CONST>
0

>  <SCORE.SYSTEM.DIHEDRAL>
0

>  <SCORE.SYSTEM.SOLV>
0

>  <SCORE.SYSTEM.norm>
0

>  <SCORE.heavy>
10

>  <SCORE.norm>
-1.79221

>  <RMSD>
2.460

$$$$
1u8d_lig
 OpenBabel11021811413D
libRbt.so/2013.1/901 2013/11/27
 10 11  0  0  0  0  0  0  0  0999 V2000
   12.2040    9.6396    8.8171 N   0  0  0  0  0  0  0  0  0  0  0  0
   11.9836    8.8261    7.6925 C   0  0  0  0  0  0  0  0  0  0  0  0
   11.5424    9.3010    6.4998 N   0  0  0  0  0  0  0  0  0  0  0  0
   11.3412   10.6366    6.5102 C   0  0  0  0  0  0  0  0  0  0  0  0
   11.5578   11.5719    7.6985 C   0  0  0  0  0  0  0  0  0  0  0  0
   12.0135   11.0310    8.9107 C   0  0  0  0  0  0  0  0  0  0  0  0
   12.2567   11.5866    9.9732 O   0  0  0  0  0  0  0  0  0  0  0  0
   11.2322   12.8305    7.2730 N   0  0  0  0  0  0  0  0  0  0  0  0
   10.8565   12.7341    5.9553 C   0  0  0  0  0  0  0  0  0  0  0  0
   10.9090   11.4319    5.4653 N   0  0  0  0  0  0  0  0  0  0  0  0
  1  2  1  0  0  0  0
  1  6  1  0  0  0  0
  2  3  2  0  0  0  0
  3  4  1  0  0  0  0
  4  5  2  0  0  0  0
  4 10  1  0  0  0  0
  5  6  1  0  0  0  0
  5  8  1  0  0  0  0
  6  7  2  0  0  0  0
  8  9  1  0  0  0  0
  9 10  2  0  0  0  0
M  END
>  <CHROM.1>
11.59997705,10.96548460,7.51616418,0.03968606,1.24169832,-2.67402531

>  <Name>
1u8d_lig

>  <RI>
0

>  <Rbt.Current_Directory>
/home/itssahil/PROJECTS/Mol_Feturizer/New_Systems/rnas/1u8d

>  <Rbt.Executable>
rbdock ($Id: //depot/dev/client3/rdock/2013.1/src/exe/rbdock.cxx#4 $)

>  <Rbt.Library>
libRbt.so (2013.1, Build901 2013/11/27)

>  <Rbt.Parameter_File>
/export/apps/rDock/src/rDock_2013.1_src/data/scripts/dock_solv.prm

>  <Rbt.Receptor>
prm/pocket_docking_3.prm

>  <SCORE>
-18.8867

>  <SCORE.INTER>
-18.8867

>  <SCORE.INTER.CONST>
1

>  <SCORE.INTER.POLAR>
-1.59137

>  <SCORE.INTER.ROT>
0

>  <SCORE.INTER.SOLV>
11.0361

>  <SCORE.INTER.VDW>
-14.5652

>  <SCORE.INTER.norm>
-1.88867

>  <SCORE.INTRA>
0

>  <SCORE.INTRA.DIHEDRAL>
0

>  <SCORE.INTRA.DIHEDRAL.0>
0

>  <SCORE.INTRA.POLAR>
0

>  <SCORE.INTRA.POLAR.0>
0

>  <SCORE.INTRA.REPUL>
0

>  <SCORE.INTRA.REPUL.0>
0

>  <SCORE.INTRA.SOLV>
0

>  <SCORE.INTRA.SOLV.lig_0>
-13.7928

>  <SCORE.INTRA.VDW>
0

>  <SCORE.INTRA.VDW.0>
0

>  <SCORE.INTRA.norm>
0

>  <SCORE.RESTR>
0

>  <SCORE.RESTR.CAVITY>
0

>  <SCORE.RESTR.norm>
0

>  <SCORE.SYSTEM>
0

>  <SCORE.SYSTEM.CONST>
0

>  <SCORE.SYSTEM.DIHEDRAL>
0

>  <SCORE.SYSTEM.SOLV>
0

>  <SCORE.SYSTEM.norm>
0

>  <SCORE.heavy>
10

>  <SCORE.norm>
-1.88867

>  <RMSD>
2.460

$$$$
1u8d_lig
 OpenBabel11021811413D
libRbt.so/2013.1/901 2013/11/27
 10 11  0  0  0  0  0  0  0  0999 V2000
   12.1981    9.6400    8.8211 N   0  0  0  0  0  0  0  0  0  0  0  0
   11.9766    8.8253    7.6975 C   0  0  0  0  0  0  0  0  0  0  0  0
   11.5364    9.2993    6.5041 N   0  0  0  0  0  0  0  0  0  0  0  0
   11.3373   10.6353    6.5127 C   0  0  0  0  0  0  0  0  0  0  0  0
   11.5552   11.5718    7.6998 C   0  0  0  0  0  0  0  0  0  0  0  0
   12.0097   11.0318    8.9128 C   0  0  0  0  0  0  0  0  0  0  0  0
   12.2535   11.5885    9.9746 O   0  0  0  0  0  0  0  0  0  0  0  0
   11.2316   12.8304    7.2725 N   0  0  0  0  0  0  0  0  0  0  0  0
   10.8561   12.7328    5.9549 C   0  0  0  0  0  0  0  0  0  0  0  0
   10.9066   11.4299    5.4667 N   0  0  0  0  0  0  0  0  0  0  0  0
  1  2  1  0  0  0  0
  1  6  1  0  0  0  0
  2  3  2  0  0  0  0
  3  4  1  0  0  0  0
  4  5  2  0  0  0  0
  4 10  1  0  0  0  0
  5  6  1  0  0  0  0
  5  8  1  0  0  0  0
  6  7  2  0  0  0  0
  8  9  1  0  0  0  0
  9 10  2  0  0  0  0
M  END
>  <CHROM.1>
11.59637803,10.96511648,7.51826641,0.04371072,1.24260334,-2.67915693

>  <Name>
1u8d_lig

>  <RI>
0

>  <Rbt.Current_Directory>
/home/itssahil/PROJECTS/Mol_Feturizer/New_Systems/rnas/1u8d

>  <Rbt.Executable>
rbdock ($Id: //depot/dev/client3/rdock/2013.1/src/exe/rbdock.cxx#4 $)

>  <Rbt.Library>
libRbt.so (2013.1, Build901 2013/11/27)

>  <Rbt.Parameter_File>
/export/apps/rDock/src/rDock_2013.1_src/data/scripts/dock_solv.prm

>  <Rbt.Receptor>
prm/pocket_docking_5.prm

>  <SCORE>
-18.8849

>  <SCORE.INTER>
-18.8849

>  <SCORE.INTER.CONST>
1

>  <SCORE.INTER.POLAR>
-1.59233

>  <SCORE.INTER.ROT>
0

>  <SCORE.INTER.SOLV>
11.043

>  <SCORE.INTER.VDW>
-14.5632

>  <SCORE.INTER.norm>
-1.88849

>  <SCORE.INTRA>
0

>  <SCORE.INTRA.DIHEDRAL>
0

>  <SCORE.INTRA.DIHEDRAL.0>
0

>  <SCORE.INTRA.POLAR>
0

>  <SCORE.INTRA.POLAR.0>
0

>  <SCORE.INTRA.REPUL>
0

>  <SCORE.INTRA.REPUL.0>
0

>  <SCORE.INTRA.SOLV>
0

>  <SCORE.INTRA.SOLV.lig_0>
-13.7928

>  <SCORE.INTRA.VDW>
0

>  <SCORE.INTRA.VDW.0>
0

>  <SCORE.INTRA.norm>
0

>  <SCORE.RESTR>
0

>  <SCORE.RESTR.CAVITY>
0

>  <SCORE.RESTR.norm>
0

>  <SCORE.SYSTEM>
0

>  <SCORE.SYSTEM.CONST>
0

>  <SCORE.SYSTEM.DIHEDRAL>
0

>  <SCORE.SYSTEM.SOLV>
0

>  <SCORE.SYSTEM.norm>
0

>  <SCORE.heavy>
10

>  <SCORE.norm>
-1.88849

>  <RMSD>
2.460

$$$$
1u8d_lig
 OpenBabel11021811413D
libRbt.so/2013.1/901 2013/11/27
 10 11  0  0  0  0  0  0  0  0999 V2000
   12.0933   10.7954    8.9789 N   0  0  0  0  0  0  0  0  0  0  0  0
   12.5427    9.6667    8.2726 C   0  0  0  0  0  0  0  0  0  0  0  0
   12.3225    9.4765    6.9467 N   0  0  0  0  0  0  0  0  0  0  0  0
   11.6290   10.4881    6.3808 C   0  0  0  0  0  0  0  0  0  0  0  0
   11.1106   11.7357    7.0940 C   0  0  0  0  0  0  0  0  0  0  0  0
   11.3632   11.8842    8.4665 C   0  0  0  0  0  0  0  0  0  0  0  0
   11.0511   12.7913    9.2259 O   0  0  0  0  0  0  0  0  0  0  0  0
   10.4653   12.4881    6.1513 N   0  0  0  0  0  0  0  0  0  0  0  0
   10.5591   11.8178    4.9561 C   0  0  0  0  0  0  0  0  0  0  0  0
   11.2500   10.6132    5.0572 N   0  0  0  0  0  0  0  0  0  0  0  0
  1  2  1  0  0  0  0
  1  6  1  0  0  0  0
  2  3  2  0  0  0  0
  3  4  1  0  0  0  0
  4  5  2  0  0  0  0
  4 10  1  0  0  0  0
  5  6  1  0  0  0  0
  5  8  1  0  0  0  0
  6  7  2  0  0  0  0
  8  9  1  0  0  0  0
  9 10  2  0  0  0  0
M  END
>  <CHROM.1>
11.43443149,11.19745707,7.18455613,-1.13309510,1.02854996,-1.98310898

>  <Name>
1u8d_lig

>  <RI>
0

>  <Rbt.Current_Directory>
/home/itssahil/PROJECTS/Mol_Feturizer/New_Systems/rnas/1u8d

>  <Rbt.Executable>
rbdock ($Id: //depot/dev/client3/rdock/2013.1/src/exe/rbdock.cxx#4 $)

>  <Rbt.Library>
libRbt.so (2013.1, Build901 2013/11/27)

>  <Rbt.Parameter_File>
/export/apps/rDock/src/rDock_2013.1_src/data/scripts/dock_solv.prm

>  <Rbt.Receptor>
prm/pocket_docking_7.prm

>  <SCORE>
-20.949

>  <SCORE.INTER>
-20.949

>  <SCORE.INTER.CONST>
1

>  <SCORE.INTER.POLAR>
-1.0198

>  <SCORE.INTER.ROT>
0

>  <SCORE.INTER.SOLV>
10.1181

>  <SCORE.INTER.VDW>
-17.5393

>  <SCORE.INTER.norm>
-2.0949

>  <SCORE.INTRA>
0

>  <SCORE.INTRA.DIHEDRAL>
0

>  <SCORE.INTRA.DIHEDRAL.0>
0

>  <SCORE.INTRA.POLAR>
0

>  <SCORE.INTRA.POLAR.0>
0

>  <SCORE.INTRA.REPUL>
0

>  <SCORE.INTRA.REPUL.0>
0

>  <SCORE.INTRA.SOLV>
0

>  <SCORE.INTRA.SOLV.lig_0>
-13.7928

>  <SCORE.INTRA.VDW>
0

>  <SCORE.INTRA.VDW.0>
0

>  <SCORE.INTRA.norm>
0

>  <SCORE.RESTR>
0

>  <SCORE.RESTR.CAVITY>
0

>  <SCORE.RESTR.norm>
0

>  <SCORE.SYSTEM>
0

>  <SCORE.SYSTEM.CONST>
0

>  <SCORE.SYSTEM.DIHEDRAL>
0

>  <SCORE.SYSTEM.SOLV>
0

>  <SCORE.SYSTEM.norm>
0

>  <SCORE.heavy>
10

>  <SCORE.norm>
-2.0949

>  <RMSD>
2.483

$$$$
1u8d_lig
 OpenBabel11021811413D
libRbt.so/2013.1/901 2013/11/27
 10 11  0  0  0  0  0  0  0  0999 V2000
   12.0916   10.7979    8.9790 N   0  0  0  0  0  0  0  0  0  0  0  0
   12.5329    9.6644    8.2750 C   0  0  0  0  0  0  0  0  0  0  0  0
   12.3124    9.4737    6.9492 N   0  0  0  0  0  0  0  0  0  0  0  0
   11.6271   10.4896    6.3810 C   0  0  0  0  0  0  0  0  0  0  0  0
   11.1178   11.7423    7.0916 C   0  0  0  0  0  0  0  0  0  0  0  0
   11.3703   11.8914    8.4641 C   0  0  0  0  0  0  0  0  0  0  0  0
   11.0646   12.8021    9.2216 O   0  0  0  0  0  0  0  0  0  0  0  0
   10.4790   12.4981    6.1471 N   0  0  0  0  0  0  0  0  0  0  0  0
   10.5687   11.8250    4.9531 C   0  0  0  0  0  0  0  0  0  0  0  0
   11.2502   10.6153    5.0569 N   0  0  0  0  0  0  0  0  0  0  0  0
  1  2  1  0  0  0  0
  1  6  1  0  0  0  0
  2  3  2  0  0  0  0
  3  4  1  0  0  0  0
  4  5  2  0  0  0  0
  4 10  1  0  0  0  0
  5  6  1  0  0  0  0
  5  8  1  0  0  0  0
  6  7  2  0  0  0  0
  8  9  1  0  0  0  0
  9 10  2  0  0  0  0
M  END
>  <CHROM.1>
11.43738239,11.20181310,7.18337362,-1.12855565,1.03592912,-1.98873980

>  <Name>
1u8d_lig

>  <RI>
0

>  <Rbt.Current_Directory>
/home/itssahil/PROJECTS/Mol_Feturizer/New_Systems/rnas/1u8d

>  <Rbt.Executable>
rbdock ($Id: //depot/dev/client3/rdock/2013.1/src/exe/rbdock.cxx#4 $)

>  <Rbt.Library>
libRbt.so (2013.1, Build901 2013/11/27)

>  <Rbt.Parameter_File>
/export/apps/rDock/src/rDock_2013.1_src/data/scripts/dock_solv.prm

>  <Rbt.Receptor>
prm/blind_docking_40.prm

>  <SCORE>
-20.9232

>  <SCORE.INTER>
-20.9232

>  <SCORE.INTER.CONST>
1

>  <SCORE.INTER.POLAR>
-1.0198

>  <SCORE.INTER.ROT>
0

>  <SCORE.INTER.SOLV>
10.1452

>  <SCORE.INTER.VDW>
-17.5312

>  <SCORE.INTER.norm>
-2.09232

>  <SCORE.INTRA>
0

>  <SCORE.INTRA.DIHEDRAL>
0

>  <SCORE.INTRA.DIHEDRAL.0>
0

>  <SCORE.INTRA.POLAR>
0

>  <SCORE.INTRA.POLAR.0>
0

>  <SCORE.INTRA.REPUL>
0

>  <SCORE.INTRA.REPUL.0>
0

>  <SCORE.INTRA.SOLV>
0

>  <SCORE.INTRA.SOLV.lig_0>
-13.7928

>  <SCORE.INTRA.VDW>
0

>  <SCORE.INTRA.VDW.0>
0

>  <SCORE.INTRA.norm>
0

>  <SCORE.RESTR>
0

>  <SCORE.RESTR.CAVITY>
0

>  <SCORE.RESTR.norm>
0

>  <SCORE.SYSTEM>
0

>  <SCORE.SYSTEM.CONST>
0

>  <SCORE.SYSTEM.DIHEDRAL>
0

>  <SCORE.SYSTEM.SOLV>
0

>  <SCORE.SYSTEM.norm>
0

>  <SCORE.heavy>
10

>  <SCORE.norm>
-2.09232

>  <RMSD>
2.484

$$$$
1u8d_lig
 OpenBabel11021811413D
libRbt.so/2013.1/901 2013/11/27
 10 11  0  0  0  0  0  0  0  0999 V2000
   12.1005   10.7794    8.9273 N   0  0  0  0  0  0  0  0  0  0  0  0
   12.5365    9.6529    8.2090 C   0  0  0  0  0  0  0  0  0  0  0  0
   12.3223    9.4838    6.8793 N   0  0  0  0  0  0  0  0  0  0  0  0
   11.6489   10.5138    6.3223 C   0  0  0  0  0  0  0  0  0  0  0  0
   11.1459   11.7601    7.0485 C   0  0  0  0  0  0  0  0  0  0  0  0
   11.3914   11.8865    8.4245 C   0  0  0  0  0  0  0  0  0  0  0  0
   11.0888   12.7884    9.1938 O   0  0  0  0  0  0  0  0  0  0  0  0
   10.5191   12.5352    6.1117 N   0  0  0  0  0  0  0  0  0  0  0  0
   10.6103   11.8792    4.9084 C   0  0  0  0  0  0  0  0  0  0  0  0
   11.2810   10.6624    4.9980 N   0  0  0  0  0  0  0  0  0  0  0  0
  1  2  1  0  0  0  0
  1  6  1  0  0  0  0
  2  3  2  0  0  0  0
  3  4  1  0  0  0  0
  4  5  2  0  0  0  0
  4 10  1  0  0  0  0
  5  6  1  0  0  0  0
  5  8  1  0  0  0  0
  6  7  2  0  0  0  0
  8  9  1  0  0  0  0
  9 10  2  0  0  0  0
M  END
>  <CHROM.1>
11.46036445,11.21559134,7.13410394,-1.13268333,1.04598755,-1.97025714

>  <Name>
1u8d_lig

>  <RI>
0

>  <Rbt.Current_Directory>
/home/itssahil/PROJECTS/Mol_Feturizer/New_Systems/rnas/1u8d

>  <Rbt.Executable>
rbdock ($Id: //depot/dev/client3/rdock/2013.1/src/exe/rbdock.cxx#4 $)

>  <Rbt.Library>
libRbt.so (2013.1, Build901 2013/11/27)

>  <Rbt.Parameter_File>
/export/apps/rDock/src/rDock_2013.1_src/data/scripts/dock_solv.prm

>  <Rbt.Receptor>
prm/pocket_docking_7.prm

>  <SCORE>
-20.8744

>  <SCORE.INTER>
-20.8744

>  <SCORE.INTER.CONST>
1

>  <SCORE.INTER.POLAR>
-1.0198

>  <SCORE.INTER.ROT>
0

>  <SCORE.INTER.SOLV>
10.2113

>  <SCORE.INTER.VDW>
-17.5207

>  <SCORE.INTER.norm>
-2.08744

>  <SCORE.INTRA>
0

>  <SCORE.INTRA.DIHEDRAL>
0

>  <SCORE.INTRA.DIHEDRAL.0>
0

>  <SCORE.INTRA.POLAR>
0

>  <SCORE.INTRA.POLAR.0>
0

>  <SCORE.INTRA.REPUL>
0

>  <SCORE.INTRA.REPUL.0>
0

>  <SCORE.INTRA.SOLV>
0

>  <SCORE.INTRA.SOLV.lig_0>
-13.7928

>  <SCORE.INTRA.VDW>
0

>  <SCORE.INTRA.VDW.0>
0

>  <SCORE.INTRA.norm>
0

>  <SCORE.RESTR>
0

>  <SCORE.RESTR.CAVITY>
0

>  <SCORE.RESTR.norm>
0

>  <SCORE.SYSTEM>
0

>  <SCORE.SYSTEM.CONST>
0

>  <SCORE.SYSTEM.DIHEDRAL>
0

>  <SCORE.SYSTEM.SOLV>
0

>  <SCORE.SYSTEM.norm>
0

>  <SCORE.heavy>
10

>  <SCORE.norm>
-2.08744

>  <RMSD>
2.488

$$$$
1u8d_lig
 OpenBabel11021811413D
libRbt.so/2013.1/901 2013/11/27
 10 11  0  0  0  0  0  0  0  0999 V2000
   12.0387   10.7940    8.9668 N   0  0  0  0  0  0  0  0  0  0  0  0
   12.4006    9.6228    8.2797 C   0  0  0  0  0  0  0  0  0  0  0  0
   12.1682    9.4290    6.9563 N   0  0  0  0  0  0  0  0  0  0  0  0
   11.5555   10.4818    6.3727 C   0  0  0  0  0  0  0  0  0  0  0  0
   11.1341   11.7770    7.0647 C   0  0  0  0  0  0  0  0  0  0  0  0
   11.3955   11.9276    8.4353 C   0  0  0  0  0  0  0  0  0  0  0  0
   11.1533   12.8680    9.1794 O   0  0  0  0  0  0  0  0  0  0  0  0
   10.5501   12.5618    6.1086 N   0  0  0  0  0  0  0  0  0  0  0  0
   10.5935   11.8672    4.9244 C   0  0  0  0  0  0  0  0  0  0  0  0
   11.1892   10.6147    5.0464 N   0  0  0  0  0  0  0  0  0  0  0  0
  1  2  1  0  0  0  0
  1  6  1  0  0  0  0
  2  3  2  0  0  0  0
  3  4  1  0  0  0  0
  4  5  2  0  0  0  0
  4 10  1  0  0  0  0
  5  6  1  0  0  0  0
  5  8  1  0  0  0  0
  6  7  2  0  0  0  0
  8  9  1  0  0  0  0
  9 10  2  0  0  0  0
M  END
>  <CHROM.1>
11.41528051,11.21689049,7.16463968,-1.06771282,1.09904682,-2.05626066

>  <Name>
1u8d_lig

>  <RI>
0

>  <Rbt.Current_Directory>
/home/itssahil/PROJECTS/Mol_Feturizer/New_Systems/rnas/1u8d

>  <Rbt.Executable>
rbdock ($Id: //depot/dev/client3/rdock/2013.1/src/exe/rbdock.cxx#4 $)

>  <Rbt.Library>
libRbt.so (2013.1, Build901 2013/11/27)

>  <Rbt.Parameter_File>
/export/apps/rDock/src/rDock_2013.1_src/data/scripts/dock_solv.prm

>  <Rbt.Receptor>
prm/blind_docking_60.prm

>  <SCORE>
-20.8631

>  <SCORE.INTER>
-20.8631

>  <SCORE.INTER.CONST>
1

>  <SCORE.INTER.POLAR>
-1.01964

>  <SCORE.INTER.ROT>
0

>  <SCORE.INTER.SOLV>
10.4248

>  <SCORE.INTER.VDW>
-17.5848

>  <SCORE.INTER.norm>
-2.08631

>  <SCORE.INTRA>
0

>  <SCORE.INTRA.DIHEDRAL>
0

>  <SCORE.INTRA.DIHEDRAL.0>
0

>  <SCORE.INTRA.POLAR>
0

>  <SCORE.INTRA.POLAR.0>
0

>  <SCORE.INTRA.REPUL>
0

>  <SCORE.INTRA.REPUL.0>
0

>  <SCORE.INTRA.SOLV>
0

>  <SCORE.INTRA.SOLV.lig_0>
-13.7928

>  <SCORE.INTRA.VDW>
0

>  <SCORE.INTRA.VDW.0>
0

>  <SCORE.INTRA.norm>
0

>  <SCORE.RESTR>
0

>  <SCORE.RESTR.CAVITY>
0

>  <SCORE.RESTR.norm>
0

>  <SCORE.SYSTEM>
0

>  <SCORE.SYSTEM.CONST>
0

>  <SCORE.SYSTEM.DIHEDRAL>
0

>  <SCORE.SYSTEM.SOLV>
0

>  <SCORE.SYSTEM.norm>
0

>  <SCORE.heavy>
10

>  <SCORE.norm>
-2.08631

>  <RMSD>
2.489

$$$$
1u8d_lig
 OpenBabel11021811413D
libRbt.so/2013.1/901 2013/11/27
 10 11  0  0  0  0  0  0  0  0999 V2000
   12.0097   10.7709    8.9516 N   0  0  0  0  0  0  0  0  0  0  0  0
   12.3662    9.6022    8.2573 C   0  0  0  0  0  0  0  0  0  0  0  0
   12.1595    9.4293    6.9268 N   0  0  0  0  0  0  0  0  0  0  0  0
   11.5781   10.5000    6.3438 C   0  0  0  0  0  0  0  0  0  0  0  0
   11.1641   11.7936    7.0432 C   0  0  0  0  0  0  0  0  0  0  0  0
   11.3980   11.9222    8.4210 C   0  0  0  0  0  0  0  0  0  0  0  0
   11.1560   12.8574    9.1719 O   0  0  0  0  0  0  0  0  0  0  0  0
   10.6148   12.6005    6.0849 N   0  0  0  0  0  0  0  0  0  0  0  0
   10.6721   11.9202    4.8931 C   0  0  0  0  0  0  0  0  0  0  0  0
   11.2432   10.6560    5.0116 N   0  0  0  0  0  0  0  0  0  0  0  0
  1  2  1  0  0  0  0
  1  6  1  0  0  0  0
  2  3  2  0  0  0  0
  3  4  1  0  0  0  0
  4  5  2  0  0  0  0
  4 10  1  0  0  0  0
  5  6  1  0  0  0  0
  5  8  1  0  0  0  0
  6  7  2  0  0  0  0
  8  9  1  0  0  0  0
  9 10  2  0  0  0  0
M  END
>  <CHROM.1>
11.43329085,11.22739464,7.14196286,-1.09381722,1.12447545,-2.02006717

>  <Name>
1u8d_lig

>  <RI>
0

>  <Rbt.Current_Directory>
/home/itssahil/PROJECTS/Mol_Feturizer/New_Systems/rnas/1u8d

>  <Rbt.Executable>
rbdock ($Id: //depot/dev/client3/rdock/2013.1/src/exe/rbdock.cxx#4 $)

>  <Rbt.Library>
libRbt.so (2013.1, Build901 2013/11/27)

>  <Rbt.Parameter_File>
/export/apps/rDock/src/rDock_2013.1_src/data/scripts/dock_solv.prm

>  <Rbt.Receptor>
prm/blind_docking_100.prm

>  <SCORE>
-20.8308

>  <SCORE.INTER>
-20.8308

>  <SCORE.INTER.CONST>
1

>  <SCORE.INTER.POLAR>
-1.0198

>  <SCORE.INTER.ROT>
0

>  <SCORE.INTER.SOLV>
10.5493

>  <SCORE.INTER.VDW>
-17.6043

>  <SCORE.INTER.norm>
-2.08308

>  <SCORE.INTRA>
0

>  <SCORE.INTRA.DIHEDRAL>
0

>  <SCORE.INTRA.DIHEDRAL.0>
0

>  <SCORE.INTRA.POLAR>
0

>  <SCORE.INTRA.POLAR.0>
0

>  <SCORE.INTRA.REPUL>
0

>  <SCORE.INTRA.REPUL.0>
0

>  <SCORE.INTRA.SOLV>
0

>  <SCORE.INTRA.SOLV.lig_0>
-13.7928

>  <SCORE.INTRA.VDW>
0

>  <SCORE.INTRA.VDW.0>
0

>  <SCORE.INTRA.norm>
0

>  <SCORE.RESTR>
0

>  <SCORE.RESTR.CAVITY>
0

>  <SCORE.RESTR.norm>
0

>  <SCORE.SYSTEM>
0

>  <SCORE.SYSTEM.CONST>
0

>  <SCORE.SYSTEM.DIHEDRAL>
0

>  <SCORE.SYSTEM.SOLV>
0

>  <SCORE.SYSTEM.norm>
0

>  <SCORE.heavy>
10

>  <SCORE.norm>
-2.08308

>  <RMSD>
2.490

$$$$
1u8d_lig
 OpenBabel11021811413D
libRbt.so/2013.1/901 2013/11/27
 10 11  0  0  0  0  0  0  0  0999 V2000
   11.7606   10.7190    8.9463 N   0  0  0  0  0  0  0  0  0  0  0  0
   11.9821    9.5099    8.2652 C   0  0  0  0  0  0  0  0  0  0  0  0
   11.8248    9.3661    6.9245 N   0  0  0  0  0  0  0  0  0  0  0  0
   11.4360   10.5084    6.3175 C   0  0  0  0  0  0  0  0  0  0  0  0
   11.1754   11.8493    7.0014 C   0  0  0  0  0  0  0  0  0  0  0  0
   11.3506   11.9454    8.3906 C   0  0  0  0  0  0  0  0  0  0  0  0
   11.2055   12.9070    9.1329 O   0  0  0  0  0  0  0  0  0  0  0  0
   10.8006   12.7253    6.0198 N   0  0  0  0  0  0  0  0  0  0  0  0
   10.8237   12.0416    4.8287 C   0  0  0  0  0  0  0  0  0  0  0  0
   11.1995   10.7085    4.9702 N   0  0  0  0  0  0  0  0  0  0  0  0
  1  2  1  0  0  0  0
  1  6  1  0  0  0  0
  2  3  2  0  0  0  0
  3  4  1  0  0  0  0
  4  5  2  0  0  0  0
  4 10  1  0  0  0  0
  5  6  1  0  0  0  0
  5  8  1  0  0  0  0
  6  7  2  0  0  0  0
  8  9  1  0  0  0  0
  9 10  2  0  0  0  0
M  END
>  <CHROM.1>
11.35453079,11.25045597,7.11108031,-1.04578994,1.27790960,-2.06288554

>  <Name>
1u8d_lig

>  <RI>
0

>  <Rbt.Current_Directory>
/home/itssahil/PROJECTS/Mol_Feturizer/New_Systems/rnas/1u8d

>  <Rbt.Executable>
rbdock ($Id: //depot/dev/client3/rdock/2013.1/src/exe/rbdock.cxx#4 $)

>  <Rbt.Library>
libRbt.so (2013.1, Build901 2013/11/27)

>  <Rbt.Parameter_File>
/export/apps/rDock/src/rDock_2013.1_src/data/scripts/dock_solv.prm

>  <Rbt.Receptor>
prm/pocket_docking_7.prm

>  <SCORE>
-20.9608

>  <SCORE.INTER>
-20.9608

>  <SCORE.INTER.CONST>
1

>  <SCORE.INTER.POLAR>
-1.0198

>  <SCORE.INTER.ROT>
0

>  <SCORE.INTER.SOLV>
11.2094

>  <SCORE.INTER.VDW>
-17.911

>  <SCORE.INTER.norm>
-2.09608

>  <SCORE.INTRA>
0

>  <SCORE.INTRA.DIHEDRAL>
0

>  <SCORE.INTRA.DIHEDRAL.0>
0

>  <SCORE.INTRA.POLAR>
0

>  <SCORE.INTRA.POLAR.0>
0

>  <SCORE.INTRA.REPUL>
0

>  <SCORE.INTRA.REPUL.0>
0

>  <SCORE.INTRA.SOLV>
0

>  <SCORE.INTRA.SOLV.lig_0>
-13.7928

>  <SCORE.INTRA.VDW>
0

>  <SCORE.INTRA.VDW.0>
0

>  <SCORE.INTRA.norm>
0

>  <SCORE.RESTR>
0

>  <SCORE.RESTR.CAVITY>
0

>  <SCORE.RESTR.norm>
0

>  <SCORE.SYSTEM>
0

>  <SCORE.SYSTEM.CONST>
0

>  <SCORE.SYSTEM.DIHEDRAL>
0

>  <SCORE.SYSTEM.SOLV>
0

>  <SCORE.SYSTEM.norm>
0

>  <SCORE.heavy>
10

>  <SCORE.norm>
-2.09608

>  <RMSD>
2.494

$$$$
1u8d_lig
 OpenBabel11021811413D
libRbt.so/2013.1/901 2013/11/27
 10 11  0  0  0  0  0  0  0  0999 V2000
   12.0467   10.8242    8.9475 N   0  0  0  0  0  0  0  0  0  0  0  0
   12.3835    9.6334    8.2815 C   0  0  0  0  0  0  0  0  0  0  0  0
   12.1388    9.4176    6.9638 N   0  0  0  0  0  0  0  0  0  0  0  0
   11.5407   10.4693    6.3633 C   0  0  0  0  0  0  0  0  0  0  0  0
   11.1466   11.7851    7.0320 C   0  0  0  0  0  0  0  0  0  0  0  0
   11.4199   11.9582    8.3976 C   0  0  0  0  0  0  0  0  0  0  0  0
   11.1992   12.9173    9.1243 O   0  0  0  0  0  0  0  0  0  0  0  0
   10.5699   12.5609    6.0641 N   0  0  0  0  0  0  0  0  0  0  0  0
   10.5932   11.8423    4.8938 C   0  0  0  0  0  0  0  0  0  0  0  0
   11.1678   10.5822    5.0369 N   0  0  0  0  0  0  0  0  0  0  0  0
  1  2  1  0  0  0  0
  1  6  1  0  0  0  0
  2  3  2  0  0  0  0
  3  4  1  0  0  0  0
  4  5  2  0  0  0  0
  4 10  1  0  0  0  0
  5  6  1  0  0  0  0
  5  8  1  0  0  0  0
  6  7  2  0  0  0  0
  8  9  1  0  0  0  0
  9 10  2  0  0  0  0
M  END
>  <CHROM.1>
11.41865574,11.22221671,7.14122927,-1.03589187,1.11113739,-2.10457389

>  <Name>
1u8d_lig

>  <RI>
0

>  <Rbt.Current_Directory>
/home/itssahil/PROJECTS/Mol_Feturizer/New_Systems/rnas/1u8d

>  <Rbt.Executable>
rbdock ($Id: //depot/dev/client3/rdock/2013.1/src/exe/rbdock.cxx#4 $)

>  <Rbt.Library>
libRbt.so (2013.1, Build901 2013/11/27)

>  <Rbt.Parameter_File>
/export/apps/rDock/src/rDock_2013.1_src/data/scripts/dock_solv.prm

>  <Rbt.Receptor>
prm/blind_docking_40.prm

>  <SCORE>
-20.8394

>  <SCORE.INTER>
-20.8394

>  <SCORE.INTER.CONST>
1

>  <SCORE.INTER.POLAR>
-1.0198

>  <SCORE.INTER.ROT>
0

>  <SCORE.INTER.SOLV>
10.4627

>  <SCORE.INTER.VDW>
-17.5811

>  <SCORE.INTER.norm>
-2.08394

>  <SCORE.INTRA>
0

>  <SCORE.INTRA.DIHEDRAL>
0

>  <SCORE.INTRA.DIHEDRAL.0>
0

>  <SCORE.INTRA.POLAR>
0

>  <SCORE.INTRA.POLAR.0>
0

>  <SCORE.INTRA.REPUL>
0

>  <SCORE.INTRA.REPUL.0>
0

>  <SCORE.INTRA.SOLV>
0

>  <SCORE.INTRA.SOLV.lig_0>
-13.7928

>  <SCORE.INTRA.VDW>
0

>  <SCORE.INTRA.VDW.0>
0

>  <SCORE.INTRA.norm>
0

>  <SCORE.RESTR>
0

>  <SCORE.RESTR.CAVITY>
0

>  <SCORE.RESTR.norm>
0

>  <SCORE.SYSTEM>
0

>  <SCORE.SYSTEM.CONST>
0

>  <SCORE.SYSTEM.DIHEDRAL>
0

>  <SCORE.SYSTEM.SOLV>
0

>  <SCORE.SYSTEM.norm>
0

>  <SCORE.heavy>
10

>  <SCORE.norm>
-2.08394

>  <RMSD>
2.495

$$$$
1u8d_lig
 OpenBabel11021811413D
libRbt.so/2013.1/901 2013/11/27
 10 11  0  0  0  0  0  0  0  0999 V2000
   11.7870   10.7136    8.9277 N   0  0  0  0  0  0  0  0  0  0  0  0
   12.0056    9.5066    8.2419 C   0  0  0  0  0  0  0  0  0  0  0  0
   11.8417    9.3667    6.9016 N   0  0  0  0  0  0  0  0  0  0  0  0
   11.4492   10.5106    6.3000 C   0  0  0  0  0  0  0  0  0  0  0  0
   11.1914   11.8494    6.9892 C   0  0  0  0  0  0  0  0  0  0  0  0
   11.3736   11.9415    8.3777 C   0  0  0  0  0  0  0  0  0  0  0  0
   11.2317   12.9008    9.1237 O   0  0  0  0  0  0  0  0  0  0  0  0
   10.8112   12.7281    6.0122 N   0  0  0  0  0  0  0  0  0  0  0  0
   10.8286   12.0480    4.8189 C   0  0  0  0  0  0  0  0  0  0  0  0
   11.2058   10.7147    4.9545 N   0  0  0  0  0  0  0  0  0  0  0  0
  1  2  1  0  0  0  0
  1  6  1  0  0  0  0
  2  3  2  0  0  0  0
  3  4  1  0  0  0  0
  4  5  2  0  0  0  0
  4 10  1  0  0  0  0
  5  6  1  0  0  0  0
  5  8  1  0  0  0  0
  6  7  2  0  0  0  0
  8  9  1  0  0  0  0
  9 10  2  0  0  0  0
M  END
>  <CHROM.1>
11.37135555,11.25030472,7.09618492,-1.03131801,1.27504830,-2.07374724

>  <Name>
1u8d_lig

>  <RI>
0

>  <Rbt.Current_Directory>
/home/itssahil/PROJECTS/Mol_Feturizer/New_Systems/rnas/1u8d

>  <Rbt.Executable>
rbdock ($Id: //depot/dev/client3/rdock/2013.1/src/exe/rbdock.cxx#4 $)

>  <Rbt.Library>
libRbt.so (2013.1, Build901 2013/11/27)

>  <Rbt.Parameter_File>
/export/apps/rDock/src/rDock_2013.1_src/data/scripts/dock_solv.prm

>  <Rbt.Receptor>
prm/blind_docking_80.prm

>  <SCORE>
-20.9447

>  <SCORE.INTER>
-20.9447

>  <SCORE.INTER.CONST>
1

>  <SCORE.INTER.POLAR>
-1.01974

>  <SCORE.INTER.ROT>
0

>  <SCORE.INTER.SOLV>
11.1989

>  <SCORE.INTER.VDW>
-17.897

>  <SCORE.INTER.norm>
-2.09447

>  <SCORE.INTRA>
0

>  <SCORE.INTRA.DIHEDRAL>
0

>  <SCORE.INTRA.DIHEDRAL.0>
0

>  <SCORE.INTRA.POLAR>
0

>  <SCORE.INTRA.POLAR.0>
0

>  <SCORE.INTRA.REPUL>
0

>  <SCORE.INTRA.REPUL.0>
0

>  <SCORE.INTRA.SOLV>
0

>  <SCORE.INTRA.SOLV.lig_0>
-13.7928

>  <SCORE.INTRA.VDW>
0

>  <SCORE.INTRA.VDW.0>
0

>  <SCORE.INTRA.norm>
0

>  <SCORE.RESTR>
0

>  <SCORE.RESTR.CAVITY>
0

>  <SCORE.RESTR.norm>
0

>  <SCORE.SYSTEM>
0

>  <SCORE.SYSTEM.CONST>
0

>  <SCORE.SYSTEM.DIHEDRAL>
0

>  <SCORE.SYSTEM.SOLV>
0

>  <SCORE.SYSTEM.norm>
0

>  <SCORE.heavy>
10

>  <SCORE.norm>
-2.09447

>  <RMSD>
2.495

$$$$
1u8d_lig
 OpenBabel11021811413D
libRbt.so/2013.1/901 2013/11/27
 10 11  0  0  0  0  0  0  0  0999 V2000
   11.4450    9.8722    6.1892 N   0  0  0  0  0  0  0  0  0  0  0  0
   11.1210   11.1327    5.6591 C   0  0  0  0  0  0  0  0  0  0  0  0
   11.0338   12.2606    6.4094 N   0  0  0  0  0  0  0  0  0  0  0  0
   11.2940   12.0412    7.7166 C   0  0  0  0  0  0  0  0  0  0  0  0
   11.6466   10.6977    8.3526 C   0  0  0  0  0  0  0  0  0  0  0  0
   11.7224    9.5607    7.5335 C   0  0  0  0  0  0  0  0  0  0  0  0
   11.9893    8.4028    7.8248 O   0  0  0  0  0  0  0  0  0  0  0  0
   11.8250   10.9299    9.6889 N   0  0  0  0  0  0  0  0  0  0  0  0
   11.6241   12.2717    9.9030 C   0  0  0  0  0  0  0  0  0  0  0  0
   11.3026   12.9689    8.7415 N   0  0  0  0  0  0  0  0  0  0  0  0
  1  2  1  0  0  0  0
  1  6  1  0  0  0  0
  2  3  2  0  0  0  0
  3  4  1  0  0  0  0
  4  5  2  0  0  0  0
  4 10  1  0  0  0  0
  5  6  1  0  0  0  0
  5  8  1  0  0  0  0
  6  7  2  0  0  0  0
  8  9  1  0  0  0  0
  9 10  2  0  0  0  0
M  END
>  <CHROM.1>
11.50711720,10.97591861,7.79956636,1.43843109,1.32678877,-2.30669300

>  <Name>
1u8d_lig

>  <RI>
0

>  <Rbt.Current_Directory>
/home/itssahil/PROJECTS/Mol_Feturizer/New_Systems/rnas/1u8d

>  <Rbt.Executable>
rbdock ($Id: //depot/dev/client3/rdock/2013.1/src/exe/rbdock.cxx#4 $)

>  <Rbt.Library>
libRbt.so (2013.1, Build901 2013/11/27)

>  <Rbt.Parameter_File>
/export/apps/rDock/src/rDock_2013.1_src/data/scripts/dock_solv.prm

>  <Rbt.Receptor>
prm/blind_docking_40.prm

>  <SCORE>
-24.2447

>  <SCORE.INTER>
-24.2447

>  <SCORE.INTER.CONST>
1

>  <SCORE.INTER.POLAR>
-1.9363

>  <SCORE.INTER.ROT>
0

>  <SCORE.INTER.SOLV>
10.781

>  <SCORE.INTER.VDW>
-16.9025

>  <SCORE.INTER.norm>
-2.42447

>  <SCORE.INTRA>
0

>  <SCORE.INTRA.DIHEDRAL>
0

>  <SCORE.INTRA.DIHEDRAL.0>
0

>  <SCORE.INTRA.POLAR>
0

>  <SCORE.INTRA.POLAR.0>
0

>  <SCORE.INTRA.REPUL>
0

>  <SCORE.INTRA.REPUL.0>
0

>  <SCORE.INTRA.SOLV>
0

>  <SCORE.INTRA.SOLV.lig_0>
-13.7928

>  <SCORE.INTRA.VDW>
0

>  <SCORE.INTRA.VDW.0>
0

>  <SCORE.INTRA.norm>
0

>  <SCORE.RESTR>
0

>  <SCORE.RESTR.CAVITY>
0

>  <SCORE.RESTR.norm>
0

>  <SCORE.SYSTEM>
0

>  <SCORE.SYSTEM.CONST>
0

>  <SCORE.SYSTEM.DIHEDRAL>
0

>  <SCORE.SYSTEM.SOLV>
0

>  <SCORE.SYSTEM.norm>
0

>  <SCORE.heavy>
10

>  <SCORE.norm>
-2.42447

>  <RMSD>
2.866

$$$$
1u8d_lig
 OpenBabel11021811413D
libRbt.so/2013.1/901 2013/11/27
 10 11  0  0  0  0  0  0  0  0999 V2000
   11.4650    9.8762    6.1834 N   0  0  0  0  0  0  0  0  0  0  0  0
   11.1304   11.1354    5.6565 C   0  0  0  0  0  0  0  0  0  0  0  0
   11.0347   12.2607    6.4096 N   0  0  0  0  0  0  0  0  0  0  0  0
   11.2976   12.0403    7.7160 C   0  0  0  0  0  0  0  0  0  0  0  0
   11.6615   10.6983    8.3487 C   0  0  0  0  0  0  0  0  0  0  0  0
   11.7459    9.5638    7.5268 C   0  0  0  0  0  0  0  0  0  0  0  0
   12.0224    8.4075    7.8151 O   0  0  0  0  0  0  0  0  0  0  0  0
   11.8390   10.9287    9.6853 N   0  0  0  0  0  0  0  0  0  0  0  0
   11.6274   12.2683    9.9027 C   0  0  0  0  0  0  0  0  0  0  0  0
   11.2995   12.9657    8.7431 N   0  0  0  0  0  0  0  0  0  0  0  0
  1  2  1  0  0  0  0
  1  6  1  0  0  0  0
  2  3  2  0  0  0  0
  3  4  1  0  0  0  0
  4  5  2  0  0  0  0
  4 10  1  0  0  0  0
  5  6  1  0  0  0  0
  5  8  1  0  0  0  0
  6  7  2  0  0  0  0
  8  9  1  0  0  0  0
  9 10  2  0  0  0  0
M  END
>  <CHROM.1>
11.51938827,10.97664960,7.79634726,1.41878366,1.32024302,-2.28529123

>  <Name>
1u8d_lig

>  <RI>
0

>  <Rbt.Current_Directory>
/home/itssahil/PROJECTS/Mol_Feturizer/New_Systems/rnas/1u8d

>  <Rbt.Executable>
rbdock ($Id: //depot/dev/client3/rdock/2013.1/src/exe/rbdock.cxx#4 $)

>  <Rbt.Library>
libRbt.so (2013.1, Build901 2013/11/27)

>  <Rbt.Parameter_File>
/export/apps/rDock/src/rDock_2013.1_src/data/scripts/dock_solv.prm

>  <Rbt.Receptor>
prm/blind_docking_80.prm

>  <SCORE>
-24.2402

>  <SCORE.INTER>
-24.2402

>  <SCORE.INTER.CONST>
1

>  <SCORE.INTER.POLAR>
-1.93632

>  <SCORE.INTER.ROT>
0

>  <SCORE.INTER.SOLV>
10.7538

>  <SCORE.INTER.VDW>
-16.8904

>  <SCORE.INTER.norm>
-2.42402

>  <SCORE.INTRA>
0

>  <SCORE.INTRA.DIHEDRAL>
0

>  <SCORE.INTRA.DIHEDRAL.0>
0

>  <SCORE.INTRA.POLAR>
0

>  <SCORE.INTRA.POLAR.0>
0

>  <SCORE.INTRA.REPUL>
0

>  <SCORE.INTRA.REPUL.0>
0

>  <SCORE.INTRA.SOLV>
0

>  <SCORE.INTRA.SOLV.lig_0>
-13.7928

>  <SCORE.INTRA.VDW>
0

>  <SCORE.INTRA.VDW.0>
0

>  <SCORE.INTRA.norm>
0

>  <SCORE.RESTR>
0

>  <SCORE.RESTR.CAVITY>
0

>  <SCORE.RESTR.norm>
0

>  <SCORE.SYSTEM>
0

>  <SCORE.SYSTEM.CONST>
0

>  <SCORE.SYSTEM.DIHEDRAL>
0

>  <SCORE.SYSTEM.SOLV>
0

>  <SCORE.SYSTEM.norm>
0

>  <SCORE.heavy>
10

>  <SCORE.norm>
-2.42402

>  <RMSD>
2.866

$$$$
1u8d_lig
 OpenBabel11021811413D
libRbt.so/2013.1/901 2013/11/27
 10 11  0  0  0  0  0  0  0  0999 V2000
   11.4397    9.8696    6.1993 N   0  0  0  0  0  0  0  0  0  0  0  0
   11.1207   11.1297    5.6650 C   0  0  0  0  0  0  0  0  0  0  0  0
   11.0382   12.2603    6.4117 N   0  0  0  0  0  0  0  0  0  0  0  0
   11.2977   12.0441    7.7195 C   0  0  0  0  0  0  0  0  0  0  0  0
   11.6451   10.7014    8.3599 C   0  0  0  0  0  0  0  0  0  0  0  0
   11.7161    9.5613    7.5445 C   0  0  0  0  0  0  0  0  0  0  0  0
   11.9785    8.4034    7.8395 O   0  0  0  0  0  0  0  0  0  0  0  0
   11.8246   10.9372    9.6954 N   0  0  0  0  0  0  0  0  0  0  0  0
   11.6291   12.2805    9.9051 C   0  0  0  0  0  0  0  0  0  0  0  0
   11.3103   12.9752    8.7414 N   0  0  0  0  0  0  0  0  0  0  0  0
  1  2  1  0  0  0  0
  1  6  1  0  0  0  0
  2  3  2  0  0  0  0
  3  4  1  0  0  0  0
  4  5  2  0  0  0  0
  4 10  1  0  0  0  0
  5  6  1  0  0  0  0
  5  8  1  0  0  0  0
  6  7  2  0  0  0  0
  8  9  1  0  0  0  0
  9 10  2  0  0  0  0
M  END
>  <CHROM.1>
11.50659972,10.97831180,7.80597708,1.45024878,1.32960850,-2.32144147

>  <Name>
1u8d_lig

>  <RI>
0

>  <Rbt.Current_Directory>
/home/itssahil/PROJECTS/Mol_Feturizer/New_Systems/rnas/1u8d

>  <Rbt.Executable>
rbdock ($Id: //depot/dev/client3/rdock/2013.1/src/exe/rbdock.cxx#4 $)

>  <Rbt.Library>
libRbt.so (2013.1, Build901 2013/11/27)

>  <Rbt.Parameter_File>
/export/apps/rDock/src/rDock_2013.1_src/data/scripts/dock_solv.prm

>  <Rbt.Receptor>
prm/pocket_docking_5.prm

>  <SCORE>
-24.2398

>  <SCORE.INTER>
-24.2398

>  <SCORE.INTER.CONST>
1

>  <SCORE.INTER.POLAR>
-1.93632

>  <SCORE.INTER.ROT>
0

>  <SCORE.INTER.SOLV>
10.7907

>  <SCORE.INTER.VDW>
-16.9024

>  <SCORE.INTER.norm>
-2.42398

>  <SCORE.INTRA>
0

>  <SCORE.INTRA.DIHEDRAL>
0

>  <SCORE.INTRA.DIHEDRAL.0>
0

>  <SCORE.INTRA.POLAR>
0

>  <SCORE.INTRA.POLAR.0>
0

>  <SCORE.INTRA.REPUL>
0

>  <SCORE.INTRA.REPUL.0>
0

>  <SCORE.INTRA.SOLV>
0

>  <SCORE.INTRA.SOLV.lig_0>
-13.7928

>  <SCORE.INTRA.VDW>
0

>  <SCORE.INTRA.VDW.0>
0

>  <SCORE.INTRA.norm>
0

>  <SCORE.RESTR>
0

>  <SCORE.RESTR.CAVITY>
0

>  <SCORE.RESTR.norm>
0

>  <SCORE.SYSTEM>
0

>  <SCORE.SYSTEM.CONST>
0

>  <SCORE.SYSTEM.DIHEDRAL>
0

>  <SCORE.SYSTEM.SOLV>
0

>  <SCORE.SYSTEM.norm>
0

>  <SCORE.heavy>
10

>  <SCORE.norm>
-2.42398

>  <RMSD>
2.866

$$$$
1u8d_lig
 OpenBabel11021811413D
libRbt.so/2013.1/901 2013/11/27
 10 11  0  0  0  0  0  0  0  0999 V2000
   11.4847    9.8807    6.1835 N   0  0  0  0  0  0  0  0  0  0  0  0
   11.1547   11.1418    5.6585 C   0  0  0  0  0  0  0  0  0  0  0  0
   11.0518   12.2642    6.4151 N   0  0  0  0  0  0  0  0  0  0  0  0
   11.3027   12.0387    7.7230 C   0  0  0  0  0  0  0  0  0  0  0  0
   11.6612   10.6942    8.3536 C   0  0  0  0  0  0  0  0  0  0  0  0
   11.7534    9.5630    7.5281 C   0  0  0  0  0  0  0  0  0  0  0  0
   12.0275    8.4056    7.8144 O   0  0  0  0  0  0  0  0  0  0  0  0
   11.8263   10.9194    9.6928 N   0  0  0  0  0  0  0  0  0  0  0  0
   11.6124   12.2581    9.9135 C   0  0  0  0  0  0  0  0  0  0  0  0
   11.2949   12.9599    8.7537 N   0  0  0  0  0  0  0  0  0  0  0  0
  1  2  1  0  0  0  0
  1  6  1  0  0  0  0
  2  3  2  0  0  0  0
  3  4  1  0  0  0  0
  4  5  2  0  0  0  0
  4 10  1  0  0  0  0
  5  6  1  0  0  0  0
  5  8  1  0  0  0  0
  6  7  2  0  0  0  0
  8  9  1  0  0  0  0
  9 10  2  0  0  0  0
M  END
>  <CHROM.1>
11.52403573,10.97471246,7.80114100,1.38943089,1.32596934,-2.25286388

>  <Name>
1u8d_lig

>  <RI>
0

>  <Rbt.Current_Directory>
/home/itssahil/PROJECTS/Mol_Feturizer/New_Systems/rnas/1u8d

>  <Rbt.Executable>
rbdock ($Id: //depot/dev/client3/rdock/2013.1/src/exe/rbdock.cxx#4 $)

>  <Rbt.Library>
libRbt.so (2013.1, Build901 2013/11/27)

>  <Rbt.Parameter_File>
/export/apps/rDock/src/rDock_2013.1_src/data/scripts/dock_solv.prm

>  <Rbt.Receptor>
prm/pocket_docking_7.prm

>  <SCORE>
-24.2214

>  <SCORE.INTER>
-24.2214

>  <SCORE.INTER.CONST>
1

>  <SCORE.INTER.POLAR>
-1.93632

>  <SCORE.INTER.ROT>
0

>  <SCORE.INTER.SOLV>
10.7638

>  <SCORE.INTER.VDW>
-16.8811

>  <SCORE.INTER.norm>
-2.42214

>  <SCORE.INTRA>
0

>  <SCORE.INTRA.DIHEDRAL>
0

>  <SCORE.INTRA.DIHEDRAL.0>
0

>  <SCORE.INTRA.POLAR>
0

>  <SCORE.INTRA.POLAR.0>
0

>  <SCORE.INTRA.REPUL>
0

>  <SCORE.INTRA.REPUL.0>
0

>  <SCORE.INTRA.SOLV>
0

>  <SCORE.INTRA.SOLV.lig_0>
-13.7928

>  <SCORE.INTRA.VDW>
0

>  <SCORE.INTRA.VDW.0>
0

>  <SCORE.INTRA.norm>
0

>  <SCORE.RESTR>
0

>  <SCORE.RESTR.CAVITY>
0

>  <SCORE.RESTR.norm>
0

>  <SCORE.SYSTEM>
0

>  <SCORE.SYSTEM.CONST>
0

>  <SCORE.SYSTEM.DIHEDRAL>
0

>  <SCORE.SYSTEM.SOLV>
0

>  <SCORE.SYSTEM.norm>
0

>  <SCORE.heavy>
10

>  <SCORE.norm>
-2.42214

>  <RMSD>
2.867

$$$$
1u8d_lig
 OpenBabel11021811413D
libRbt.so/2013.1/901 2013/11/27
 10 11  0  0  0  0  0  0  0  0999 V2000
   11.4496    9.9037    6.1877 N   0  0  0  0  0  0  0  0  0  0  0  0
   11.1174   11.1669    5.6690 C   0  0  0  0  0  0  0  0  0  0  0  0
   11.0314   12.2890    6.4281 N   0  0  0  0  0  0  0  0  0  0  0  0
   11.3015   12.0610    7.7318 C   0  0  0  0  0  0  0  0  0  0  0  0
   11.6633   10.7143    8.3556 C   0  0  0  0  0  0  0  0  0  0  0  0
   11.7374    9.5835    7.5277 C   0  0  0  0  0  0  0  0  0  0  0  0
   12.0105    8.4245    7.8087 O   0  0  0  0  0  0  0  0  0  0  0  0
   11.8501   10.9374    9.6923 N   0  0  0  0  0  0  0  0  0  0  0  0
   11.6459   12.2768    9.9175 C   0  0  0  0  0  0  0  0  0  0  0  0
   11.3139   12.9813    8.7634 N   0  0  0  0  0  0  0  0  0  0  0  0
  1  2  1  0  0  0  0
  1  6  1  0  0  0  0
  2  3  2  0  0  0  0
  3  4  1  0  0  0  0
  4  5  2  0  0  0  0
  4 10  1  0  0  0  0
  5  6  1  0  0  0  0
  5  8  1  0  0  0  0
  6  7  2  0  0  0  0
  8  9  1  0  0  0  0
  9 10  2  0  0  0  0
M  END
>  <CHROM.1>
11.51895044,10.99598501,7.80556518,1.44946251,1.31946091,-2.31011972

>  <Name>
1u8d_lig

>  <RI>
0

>  <Rbt.Current_Directory>
/home/itssahil/PROJECTS/Mol_Feturizer/New_Systems/rnas/1u8d

>  <Rbt.Executable>
rbdock ($Id: //depot/dev/client3/rdock/2013.1/src/exe/rbdock.cxx#4 $)

>  <Rbt.Library>
libRbt.so (2013.1, Build901 2013/11/27)

>  <Rbt.Parameter_File>
/export/apps/rDock/src/rDock_2013.1_src/data/scripts/dock_solv.prm

>  <Rbt.Receptor>
prm/blind_docking_60.prm

>  <SCORE>
-24.1956

>  <SCORE.INTER>
-24.1956

>  <SCORE.INTER.CONST>
1

>  <SCORE.INTER.POLAR>
-1.93632

>  <SCORE.INTER.ROT>
0

>  <SCORE.INTER.SOLV>
10.7545

>  <SCORE.INTER.VDW>
-16.8608

>  <SCORE.INTER.norm>
-2.41956

>  <SCORE.INTRA>
0

>  <SCORE.INTRA.DIHEDRAL>
0

>  <SCORE.INTRA.DIHEDRAL.0>
0

>  <SCORE.INTRA.POLAR>
0

>  <SCORE.INTRA.POLAR.0>
0

>  <SCORE.INTRA.REPUL>
0

>  <SCORE.INTRA.REPUL.0>
0

>  <SCORE.INTRA.SOLV>
0

>  <SCORE.INTRA.SOLV.lig_0>
-13.7928

>  <SCORE.INTRA.VDW>
0

>  <SCORE.INTRA.VDW.0>
0

>  <SCORE.INTRA.norm>
0

>  <SCORE.RESTR>
0

>  <SCORE.RESTR.CAVITY>
0

>  <SCORE.RESTR.norm>
0

>  <SCORE.SYSTEM>
0

>  <SCORE.SYSTEM.CONST>
0

>  <SCORE.SYSTEM.DIHEDRAL>
0

>  <SCORE.SYSTEM.SOLV>
0

>  <SCORE.SYSTEM.norm>
0

>  <SCORE.heavy>
10

>  <SCORE.norm>
-2.41956

>  <RMSD>
2.868

$$$$
1u8d_lig
 OpenBabel11021811413D
libRbt.so/2013.1/901 2013/11/27
 10 11  0  0  0  0  0  0  0  0999 V2000
   11.4332    9.9096    6.2003 N   0  0  0  0  0  0  0  0  0  0  0  0
   11.0927   11.1731    5.6879 C   0  0  0  0  0  0  0  0  0  0  0  0
   11.0094   12.2928    6.4509 N   0  0  0  0  0  0  0  0  0  0  0  0
   11.2910   12.0621    7.7516 C   0  0  0  0  0  0  0  0  0  0  0  0
   11.6623   10.7149    8.3686 C   0  0  0  0  0  0  0  0  0  0  0  0
   11.7332    9.5866    7.5370 C   0  0  0  0  0  0  0  0  0  0  0  0
   12.0124    8.4277    7.8125 O   0  0  0  0  0  0  0  0  0  0  0  0
   11.8595   10.9349    9.7043 N   0  0  0  0  0  0  0  0  0  0  0  0
   11.6529   12.2731    9.9349 C   0  0  0  0  0  0  0  0  0  0  0  0
   11.3090   12.9796    8.7856 N   0  0  0  0  0  0  0  0  0  0  0  0
  1  2  1  0  0  0  0
  1  6  1  0  0  0  0
  2  3  2  0  0  0  0
  3  4  1  0  0  0  0
  4  5  2  0  0  0  0
  4 10  1  0  0  0  0
  5  6  1  0  0  0  0
  5  8  1  0  0  0  0
  6  7  2  0  0  0  0
  8  9  1  0  0  0  0
  9 10  2  0  0  0  0
M  END
>  <CHROM.1>
11.51252904,10.99759828,7.82060284,1.46497381,1.31143213,-2.32237162

>  <Name>
1u8d_lig

>  <RI>
0

>  <Rbt.Current_Directory>
/home/itssahil/PROJECTS/Mol_Feturizer/New_Systems/rnas/1u8d

>  <Rbt.Executable>
rbdock ($Id: //depot/dev/client3/rdock/2013.1/src/exe/rbdock.cxx#4 $)

>  <Rbt.Library>
libRbt.so (2013.1, Build901 2013/11/27)

>  <Rbt.Parameter_File>
/export/apps/rDock/src/rDock_2013.1_src/data/scripts/dock_solv.prm

>  <Rbt.Receptor>
prm/blind_docking_100.prm

>  <SCORE>
-24.2286

>  <SCORE.INTER>
-24.2286

>  <SCORE.INTER.CONST>
1

>  <SCORE.INTER.POLAR>
-1.93632

>  <SCORE.INTER.ROT>
0

>  <SCORE.INTER.SOLV>
10.7375

>  <SCORE.INTER.VDW>
-16.8772

>  <SCORE.INTER.norm>
-2.42286

>  <SCORE.INTRA>
0

>  <SCORE.INTRA.DIHEDRAL>
0

>  <SCORE.INTRA.DIHEDRAL.0>
0

>  <SCORE.INTRA.POLAR>
0

>  <SCORE.INTRA.POLAR.0>
0

>  <SCORE.INTRA.REPUL>
0

>  <SCORE.INTRA.REPUL.0>
0

>  <SCORE.INTRA.SOLV>
0

>  <SCORE.INTRA.SOLV.lig_0>
-13.7928

>  <SCORE.INTRA.VDW>
0

>  <SCORE.INTRA.VDW.0>
0

>  <SCORE.INTRA.norm>
0

>  <SCORE.RESTR>
0

>  <SCORE.RESTR.CAVITY>
0

>  <SCORE.RESTR.norm>
0

>  <SCORE.SYSTEM>
0

>  <SCORE.SYSTEM.CONST>
0

>  <SCORE.SYSTEM.DIHEDRAL>
0

>  <SCORE.SYSTEM.SOLV>
0

>  <SCORE.SYSTEM.norm>
0

>  <SCORE.heavy>
10

>  <SCORE.norm>
-2.42286

>  <RMSD>
2.870

$$$$
1u8d_lig
 OpenBabel11021811413D
libRbt.so/2013.1/901 2013/11/27
 10 11  0  0  0  0  0  0  0  0999 V2000
   11.3902    9.9112    6.2107 N   0  0  0  0  0  0  0  0  0  0  0  0
   11.0383   11.1731    5.7021 C   0  0  0  0  0  0  0  0  0  0  0  0
   10.9702   12.2949    6.4635 N   0  0  0  0  0  0  0  0  0  0  0  0
   11.2791   12.0680    7.7587 C   0  0  0  0  0  0  0  0  0  0  0  0
   11.6641   10.7226    8.3716 C   0  0  0  0  0  0  0  0  0  0  0  0
   11.7183    9.5921    7.5417 C   0  0  0  0  0  0  0  0  0  0  0  0
   12.0039    8.4341    7.8145 O   0  0  0  0  0  0  0  0  0  0  0  0
   11.8890   10.9464    9.7022 N   0  0  0  0  0  0  0  0  0  0  0  0
   11.6864   12.2851    9.9334 C   0  0  0  0  0  0  0  0  0  0  0  0
   11.3182   12.9883    8.7895 N   0  0  0  0  0  0  0  0  0  0  0  0
  1  2  1  0  0  0  0
  1  6  1  0  0  0  0
  2  3  2  0  0  0  0
  3  4  1  0  0  0  0
  4  5  2  0  0  0  0
  4 10  1  0  0  0  0
  5  6  1  0  0  0  0
  5  8  1  0  0  0  0
  6  7  2  0  0  0  0
  8  9  1  0  0  0  0
  9 10  2  0  0  0  0
M  END
>  <CHROM.1>
11.50267986,11.00374522,7.82598056,1.51973483,1.29634007,-2.37795125

>  <Name>
1u8d_lig

>  <RI>
0

>  <Rbt.Current_Directory>
/home/itssahil/PROJECTS/Mol_Feturizer/New_Systems/rnas/1u8d

>  <Rbt.Executable>
rbdock ($Id: //depot/dev/client3/rdock/2013.1/src/exe/rbdock.cxx#4 $)

>  <Rbt.Library>
libRbt.so (2013.1, Build901 2013/11/27)

>  <Rbt.Parameter_File>
/export/apps/rDock/src/rDock_2013.1_src/data/scripts/dock_solv.prm

>  <Rbt.Receptor>
prm/blind_docking_40.prm

>  <SCORE>
-24.2032

>  <SCORE.INTER>
-24.2032

>  <SCORE.INTER.CONST>
1

>  <SCORE.INTER.POLAR>
-1.93632

>  <SCORE.INTER.ROT>
0

>  <SCORE.INTER.SOLV>
10.7194

>  <SCORE.INTER.VDW>
-16.8542

>  <SCORE.INTER.norm>
-2.42032

>  <SCORE.INTRA>
0

>  <SCORE.INTRA.DIHEDRAL>
0

>  <SCORE.INTRA.DIHEDRAL.0>
0

>  <SCORE.INTRA.POLAR>
0

>  <SCORE.INTRA.POLAR.0>
0

>  <SCORE.INTRA.REPUL>
0

>  <SCORE.INTRA.REPUL.0>
0

>  <SCORE.INTRA.SOLV>
0

>  <SCORE.INTRA.SOLV.lig_0>
-13.7928

>  <SCORE.INTRA.VDW>
0

>  <SCORE.INTRA.VDW.0>
0

>  <SCORE.INTRA.norm>
0

>  <SCORE.RESTR>
0

>  <SCORE.RESTR.CAVITY>
0

>  <SCORE.RESTR.norm>
0

>  <SCORE.SYSTEM>
0

>  <SCORE.SYSTEM.CONST>
0

>  <SCORE.SYSTEM.DIHEDRAL>
0

>  <SCORE.SYSTEM.SOLV>
0

>  <SCORE.SYSTEM.norm>
0

>  <SCORE.heavy>
10

>  <SCORE.norm>
-2.42032

>  <RMSD>
2.870

$$$$
1u8d_lig
 OpenBabel11021811413D
libRbt.so/2013.1/901 2013/11/27
 10 11  0  0  0  0  0  0  0  0999 V2000
   11.4336    9.9087    6.1973 N   0  0  0  0  0  0  0  0  0  0  0  0
   11.0948   11.1726    5.6846 C   0  0  0  0  0  0  0  0  0  0  0  0
   11.0110   12.2922    6.4477 N   0  0  0  0  0  0  0  0  0  0  0  0
   11.2901   12.0610    7.7489 C   0  0  0  0  0  0  0  0  0  0  0  0
   11.6595   10.7133    8.3662 C   0  0  0  0  0  0  0  0  0  0  0  0
   11.7310    9.5852    7.5344 C   0  0  0  0  0  0  0  0  0  0  0  0
   12.0089    8.4261    7.8101 O   0  0  0  0  0  0  0  0  0  0  0  0
   11.8545   10.9328    9.7023 N   0  0  0  0  0  0  0  0  0  0  0  0
   11.6484   12.2711    9.9329 C   0  0  0  0  0  0  0  0  0  0  0  0
   11.3070   12.9782    8.7831 N   0  0  0  0  0  0  0  0  0  0  0  0
  1  2  1  0  0  0  0
  1  6  1  0  0  0  0
  2  3  2  0  0  0  0
  3  4  1  0  0  0  0
  4  5  2  0  0  0  0
  4 10  1  0  0  0  0
  5  6  1  0  0  0  0
  5  8  1  0  0  0  0
  6  7  2  0  0  0  0
  8  9  1  0  0  0  0
  9 10  2  0  0  0  0
M  END
>  <CHROM.1>
11.51081802,10.99626811,7.81797255,1.46183273,1.31313524,-2.31906746

>  <Name>
1u8d_lig

>  <RI>
0

>  <Rbt.Current_Directory>
/home/itssahil/PROJECTS/Mol_Feturizer/New_Systems/rnas/1u8d

>  <Rbt.Executable>
rbdock ($Id: //depot/dev/client3/rdock/2013.1/src/exe/rbdock.cxx#4 $)

>  <Rbt.Library>
libRbt.so (2013.1, Build901 2013/11/27)

>  <Rbt.Parameter_File>
/export/apps/rDock/src/rDock_2013.1_src/data/scripts/dock_solv.prm

>  <Rbt.Receptor>
prm/blind_docking_80.prm

>  <SCORE>
-24.2314

>  <SCORE.INTER>
-24.2314

>  <SCORE.INTER.CONST>
1

>  <SCORE.INTER.POLAR>
-1.93632

>  <SCORE.INTER.ROT>
0

>  <SCORE.INTER.SOLV>
10.7427

>  <SCORE.INTER.VDW>
-16.8808

>  <SCORE.INTER.norm>
-2.42314

>  <SCORE.INTRA>
0

>  <SCORE.INTRA.DIHEDRAL>
0

>  <SCORE.INTRA.DIHEDRAL.0>
0

>  <SCORE.INTRA.POLAR>
0

>  <SCORE.INTRA.POLAR.0>
0

>  <SCORE.INTRA.REPUL>
0

>  <SCORE.INTRA.REPUL.0>
0

>  <SCORE.INTRA.SOLV>
0

>  <SCORE.INTRA.SOLV.lig_0>
-13.7928

>  <SCORE.INTRA.VDW>
0

>  <SCORE.INTRA.VDW.0>
0

>  <SCORE.INTRA.norm>
0

>  <SCORE.RESTR>
0

>  <SCORE.RESTR.CAVITY>
0

>  <SCORE.RESTR.norm>
0

>  <SCORE.SYSTEM>
0

>  <SCORE.SYSTEM.CONST>
0

>  <SCORE.SYSTEM.DIHEDRAL>
0

>  <SCORE.SYSTEM.SOLV>
0

>  <SCORE.SYSTEM.norm>
0

>  <SCORE.heavy>
10

>  <SCORE.norm>
-2.42314

>  <RMSD>
2.870

$$$$
1u8d_lig
 OpenBabel11021811413D
libRbt.so/2013.1/901 2013/11/27
 10 11  0  0  0  0  0  0  0  0999 V2000
   11.4448    9.9089    6.1937 N   0  0  0  0  0  0  0  0  0  0  0  0
   11.1121   11.1740    5.6801 C   0  0  0  0  0  0  0  0  0  0  0  0
   11.0243   12.2927    6.4440 N   0  0  0  0  0  0  0  0  0  0  0  0
   11.2932   12.0593    7.7470 C   0  0  0  0  0  0  0  0  0  0  0  0
   11.6556   10.7102    8.3653 C   0  0  0  0  0  0  0  0  0  0  0  0
   11.7316    9.5831    7.5326 C   0  0  0  0  0  0  0  0  0  0  0  0
   12.0054    8.4231    7.8089 O   0  0  0  0  0  0  0  0  0  0  0  0
   11.8408   10.9277    9.7031 N   0  0  0  0  0  0  0  0  0  0  0  0
   11.6352   12.2660    9.9340 C   0  0  0  0  0  0  0  0  0  0  0  0
   11.3038   12.9751    8.7825 N   0  0  0  0  0  0  0  0  0  0  0  0
  1  2  1  0  0  0  0
  1  6  1  0  0  0  0
  2  3  2  0  0  0  0
  3  4  1  0  0  0  0
  4  5  2  0  0  0  0
  4 10  1  0  0  0  0
  5  6  1  0  0  0  0
  5  8  1  0  0  0  0
  6  7  2  0  0  0  0
  8  9  1  0  0  0  0
  9 10  2  0  0  0  0
M  END
>  <CHROM.1>
11.51158225,10.99417100,7.81635717,1.44401506,1.31950325,-2.30050634

>  <Name>
1u8d_lig

>  <RI>
0

>  <Rbt.Current_Directory>
/home/itssahil/PROJECTS/Mol_Feturizer/New_Systems/rnas/1u8d

>  <Rbt.Executable>
rbdock ($Id: //depot/dev/client3/rdock/2013.1/src/exe/rbdock.cxx#4 $)

>  <Rbt.Library>
libRbt.so (2013.1, Build901 2013/11/27)

>  <Rbt.Parameter_File>
/export/apps/rDock/src/rDock_2013.1_src/data/scripts/dock_solv.prm

>  <Rbt.Receptor>
prm/pocket_docking_5.prm

>  <SCORE>
-24.232

>  <SCORE.INTER>
-24.232

>  <SCORE.INTER.CONST>
1

>  <SCORE.INTER.POLAR>
-1.93632

>  <SCORE.INTER.ROT>
0

>  <SCORE.INTER.SOLV>
10.7576

>  <SCORE.INTER.VDW>
-16.8861

>  <SCORE.INTER.norm>
-2.4232

>  <SCORE.INTRA>
0

>  <SCORE.INTRA.DIHEDRAL>
0

>  <SCORE.INTRA.DIHEDRAL.0>
0

>  <SCORE.INTRA.POLAR>
0

>  <SCORE.INTRA.POLAR.0>
0

>  <SCORE.INTRA.REPUL>
0

>  <SCORE.INTRA.REPUL.0>
0

>  <SCORE.INTRA.SOLV>
0

>  <SCORE.INTRA.SOLV.lig_0>
-13.7928

>  <SCORE.INTRA.VDW>
0

>  <SCORE.INTRA.VDW.0>
0

>  <SCORE.INTRA.norm>
0

>  <SCORE.RESTR>
0

>  <SCORE.RESTR.CAVITY>
0

>  <SCORE.RESTR.norm>
0

>  <SCORE.SYSTEM>
0

>  <SCORE.SYSTEM.CONST>
0

>  <SCORE.SYSTEM.DIHEDRAL>
0

>  <SCORE.SYSTEM.SOLV>
0

>  <SCORE.SYSTEM.norm>
0

>  <SCORE.heavy>
10

>  <SCORE.norm>
-2.4232

>  <RMSD>
2.870

$$$$
1u8d_lig
 OpenBabel11021811413D
libRbt.so/2013.1/901 2013/11/27
 10 11  0  0  0  0  0  0  0  0999 V2000
   11.4523    9.9083    6.1929 N   0  0  0  0  0  0  0  0  0  0  0  0
   11.1159   11.1724    5.6792 C   0  0  0  0  0  0  0  0  0  0  0  0
   11.0255   12.2910    6.4428 N   0  0  0  0  0  0  0  0  0  0  0  0
   11.2958   12.0587    7.7457 C   0  0  0  0  0  0  0  0  0  0  0  0
   11.6621   10.7107    8.3642 C   0  0  0  0  0  0  0  0  0  0  0  0
   11.7407    9.5836    7.5317 C   0  0  0  0  0  0  0  0  0  0  0  0
   12.0178    8.4245    7.8081 O   0  0  0  0  0  0  0  0  0  0  0  0
   11.8475   10.9290    9.7018 N   0  0  0  0  0  0  0  0  0  0  0  0
   11.6385   12.2668    9.9324 C   0  0  0  0  0  0  0  0  0  0  0  0
   11.3045   12.9748    8.7810 N   0  0  0  0  0  0  0  0  0  0  0  0
  1  2  1  0  0  0  0
  1  6  1  0  0  0  0
  2  3  2  0  0  0  0
  3  4  1  0  0  0  0
  4  5  2  0  0  0  0
  4 10  1  0  0  0  0
  5  6  1  0  0  0  0
  5  8  1  0  0  0  0
  6  7  2  0  0  0  0
  8  9  1  0  0  0  0
  9 10  2  0  0  0  0
M  END
>  <CHROM.1>
11.51704502,10.99415708,7.81523350,1.43859565,1.31711552,-2.29552453

>  <Name>
1u8d_lig

>  <RI>
0

>  <Rbt.Current_Directory>
/home/itssahil/PROJECTS/Mol_Feturizer/New_Systems/rnas/1u8d

>  <Rbt.Executable>
rbdock ($Id: //depot/dev/client3/rdock/2013.1/src/exe/rbdock.cxx#4 $)

>  <Rbt.Library>
libRbt.so (2013.1, Build901 2013/11/27)

>  <Rbt.Parameter_File>
/export/apps/rDock/src/rDock_2013.1_src/data/scripts/dock_solv.prm

>  <Rbt.Receptor>
prm/pocket_docking_6.prm

>  <SCORE>
-24.2296

>  <SCORE.INTER>
-24.2296

>  <SCORE.INTER.CONST>
1

>  <SCORE.INTER.POLAR>
-1.93632

>  <SCORE.INTER.ROT>
0

>  <SCORE.INTER.SOLV>
10.7477

>  <SCORE.INTER.VDW>
-16.8812

>  <SCORE.INTER.norm>
-2.42296

>  <SCORE.INTRA>
0

>  <SCORE.INTRA.DIHEDRAL>
0

>  <SCORE.INTRA.DIHEDRAL.0>
0

>  <SCORE.INTRA.POLAR>
0

>  <SCORE.INTRA.POLAR.0>
0

>  <SCORE.INTRA.REPUL>
0

>  <SCORE.INTRA.REPUL.0>
0

>  <SCORE.INTRA.SOLV>
0

>  <SCORE.INTRA.SOLV.lig_0>
-13.7928

>  <SCORE.INTRA.VDW>
0

>  <SCORE.INTRA.VDW.0>
0

>  <SCORE.INTRA.norm>
0

>  <SCORE.RESTR>
0

>  <SCORE.RESTR.CAVITY>
0

>  <SCORE.RESTR.norm>
0

>  <SCORE.SYSTEM>
0

>  <SCORE.SYSTEM.CONST>
0

>  <SCORE.SYSTEM.DIHEDRAL>
0

>  <SCORE.SYSTEM.SOLV>
0

>  <SCORE.SYSTEM.norm>
0

>  <SCORE.heavy>
10

>  <SCORE.norm>
-2.42296

>  <RMSD>
2.870

$$$$
1u8d_lig
 OpenBabel11021811413D
libRbt.so/2013.1/901 2013/11/27
 10 11  0  0  0  0  0  0  0  0999 V2000
   11.3994    9.9138    6.2120 N   0  0  0  0  0  0  0  0  0  0  0  0
   11.0456   11.1763    5.7063 C   0  0  0  0  0  0  0  0  0  0  0  0
   10.9713   12.2953    6.4713 N   0  0  0  0  0  0  0  0  0  0  0  0
   11.2760   12.0649    7.7669 C   0  0  0  0  0  0  0  0  0  0  0  0
   11.6628   10.7186    8.3766 C   0  0  0  0  0  0  0  0  0  0  0  0
   11.7235    9.5910    7.5431 C   0  0  0  0  0  0  0  0  0  0  0  0
   12.0116    8.4331    7.8130 O   0  0  0  0  0  0  0  0  0  0  0  0
   11.8820   10.9385    9.7088 N   0  0  0  0  0  0  0  0  0  0  0  0
   11.6745   12.2758    9.9438 C   0  0  0  0  0  0  0  0  0  0  0  0
   11.3085   12.9818    8.8010 N   0  0  0  0  0  0  0  0  0  0  0  0
  1  2  1  0  0  0  0
  1  6  1  0  0  0  0
  2  3  2  0  0  0  0
  3  4  1  0  0  0  0
  4  5  2  0  0  0  0
  4 10  1  0  0  0  0
  5  6  1  0  0  0  0
  5  8  1  0  0  0  0
  6  7  2  0  0  0  0
  8  9  1  0  0  0  0
  9 10  2  0  0  0  0
M  END
>  <CHROM.1>
11.50258138,11.00109014,7.83134987,1.50215129,1.29690501,-2.35760851

>  <Name>
1u8d_lig

>  <RI>
0

>  <Rbt.Current_Directory>
/home/itssahil/PROJECTS/Mol_Feturizer/New_Systems/rnas/1u8d

>  <Rbt.Executable>
rbdock ($Id: //depot/dev/client3/rdock/2013.1/src/exe/rbdock.cxx#4 $)

>  <Rbt.Library>
libRbt.so (2013.1, Build901 2013/11/27)

>  <Rbt.Parameter_File>
/export/apps/rDock/src/rDock_2013.1_src/data/scripts/dock_solv.prm

>  <Rbt.Receptor>
prm/blind_docking_60.prm

>  <SCORE>
-24.2145

>  <SCORE.INTER>
-24.2145

>  <SCORE.INTER.CONST>
1

>  <SCORE.INTER.POLAR>
-1.93632

>  <SCORE.INTER.ROT>
0

>  <SCORE.INTER.SOLV>
10.7174

>  <SCORE.INTER.VDW>
-16.861

>  <SCORE.INTER.norm>
-2.42145

>  <SCORE.INTRA>
0

>  <SCORE.INTRA.DIHEDRAL>
0

>  <SCORE.INTRA.DIHEDRAL.0>
0

>  <SCORE.INTRA.POLAR>
0

>  <SCORE.INTRA.POLAR.0>
0

>  <SCORE.INTRA.REPUL>
0

>  <SCORE.INTRA.REPUL.0>
0

>  <SCORE.INTRA.SOLV>
0

>  <SCORE.INTRA.SOLV.lig_0>
-13.7928

>  <SCORE.INTRA.VDW>
0

>  <SCORE.INTRA.VDW.0>
0

>  <SCORE.INTRA.norm>
0

>  <SCORE.RESTR>
0

>  <SCORE.RESTR.CAVITY>
0

>  <SCORE.RESTR.norm>
0

>  <SCORE.SYSTEM>
0

>  <SCORE.SYSTEM.CONST>
0

>  <SCORE.SYSTEM.DIHEDRAL>
0

>  <SCORE.SYSTEM.SOLV>
0

>  <SCORE.SYSTEM.norm>
0

>  <SCORE.heavy>
10

>  <SCORE.norm>
-2.42145

>  <RMSD>
2.871

$$$$
1u8d_lig
 OpenBabel11021811413D
libRbt.so/2013.1/901 2013/11/27
 10 11  0  0  0  0  0  0  0  0999 V2000
   11.4386    9.9087    6.1952 N   0  0  0  0  0  0  0  0  0  0  0  0
   11.1342   11.1794    5.6778 C   0  0  0  0  0  0  0  0  0  0  0  0
   11.0511   12.2985    6.4415 N   0  0  0  0  0  0  0  0  0  0  0  0
   11.2946   12.0597    7.7485 C   0  0  0  0  0  0  0  0  0  0  0  0
   11.6254   10.7045    8.3711 C   0  0  0  0  0  0  0  0  0  0  0  0
   11.6978    9.5771    7.5383 C   0  0  0  0  0  0  0  0  0  0  0  0
   11.9489    8.4128    7.8176 O   0  0  0  0  0  0  0  0  0  0  0  0
   11.7916   10.9177    9.7120 N   0  0  0  0  0  0  0  0  0  0  0  0
   11.6031   12.2588    9.9411 C   0  0  0  0  0  0  0  0  0  0  0  0
   11.3021   12.9742    8.7852 N   0  0  0  0  0  0  0  0  0  0  0  0
  1  2  1  0  0  0  0
  1  6  1  0  0  0  0
  2  3  2  0  0  0  0
  3  4  1  0  0  0  0
  4  5  2  0  0  0  0
  4 10  1  0  0  0  0
  5  6  1  0  0  0  0
  5  8  1  0  0  0  0
  6  7  2  0  0  0  0
  8  9  1  0  0  0  0
  9 10  2  0  0  0  0
M  END
>  <CHROM.1>
11.49507919,10.99119524,7.82012950,1.43488650,1.34225888,-2.29050912

>  <Name>
1u8d_lig

>  <RI>
0

>  <Rbt.Current_Directory>
/home/itssahil/PROJECTS/Mol_Feturizer/New_Systems/rnas/1u8d

>  <Rbt.Executable>
rbdock ($Id: //depot/dev/client3/rdock/2013.1/src/exe/rbdock.cxx#4 $)

>  <Rbt.Library>
libRbt.so (2013.1, Build901 2013/11/27)

>  <Rbt.Parameter_File>
/export/apps/rDock/src/rDock_2013.1_src/data/scripts/dock_solv.prm

>  <Rbt.Receptor>
prm/blind_docking_60.prm

>  <SCORE>
-24.1979

>  <SCORE.INTER>
-24.1979

>  <SCORE.INTER.CONST>
1

>  <SCORE.INTER.POLAR>
-1.93604

>  <SCORE.INTER.ROT>
0

>  <SCORE.INTER.SOLV>
10.8294

>  <SCORE.INTER.VDW>
-16.8882

>  <SCORE.INTER.norm>
-2.41979

>  <SCORE.INTRA>
0

>  <SCORE.INTRA.DIHEDRAL>
0

>  <SCORE.INTRA.DIHEDRAL.0>
0

>  <SCORE.INTRA.POLAR>
0

>  <SCORE.INTRA.POLAR.0>
0

>  <SCORE.INTRA.REPUL>
0

>  <SCORE.INTRA.REPUL.0>
0

>  <SCORE.INTRA.SOLV>
0

>  <SCORE.INTRA.SOLV.lig_0>
-13.7928

>  <SCORE.INTRA.VDW>
0

>  <SCORE.INTRA.VDW.0>
0

>  <SCORE.INTRA.norm>
0

>  <SCORE.RESTR>
0

>  <SCORE.RESTR.CAVITY>
0

>  <SCORE.RESTR.norm>
0

>  <SCORE.SYSTEM>
0

>  <SCORE.SYSTEM.CONST>
0

>  <SCORE.SYSTEM.DIHEDRAL>
0

>  <SCORE.SYSTEM.SOLV>
0

>  <SCORE.SYSTEM.norm>
0

>  <SCORE.heavy>
10

>  <SCORE.norm>
-2.41979

>  <RMSD>
2.871

$$$$
1u8d_lig
 OpenBabel11021811413D
libRbt.so/2013.1/901 2013/11/27
 10 11  0  0  0  0  0  0  0  0999 V2000
   11.4191    9.9128    6.2010 N   0  0  0  0  0  0  0  0  0  0  0  0
   11.0863   11.1789    5.6899 C   0  0  0  0  0  0  0  0  0  0  0  0
   11.0088   12.2981    6.4541 N   0  0  0  0  0  0  0  0  0  0  0  0
   11.2880   12.0642    7.7548 C   0  0  0  0  0  0  0  0  0  0  0  0
   11.6510   10.7141    8.3705 C   0  0  0  0  0  0  0  0  0  0  0  0
   11.7161    9.5864    7.5376 C   0  0  0  0  0  0  0  0  0  0  0  0
   11.9884    8.4257    7.8119 O   0  0  0  0  0  0  0  0  0  0  0  0
   11.8483   10.9313    9.7066 N   0  0  0  0  0  0  0  0  0  0  0  0
   11.6491   12.2704    9.9387 C   0  0  0  0  0  0  0  0  0  0  0  0
   11.3104   12.9803    8.7899 N   0  0  0  0  0  0  0  0  0  0  0  0
  1  2  1  0  0  0  0
  1  6  1  0  0  0  0
  2  3  2  0  0  0  0
  3  4  1  0  0  0  0
  4  5  2  0  0  0  0
  4 10  1  0  0  0  0
  5  6  1  0  0  0  0
  5  8  1  0  0  0  0
  6  7  2  0  0  0  0
  8  9  1  0  0  0  0
  9 10  2  0  0  0  0
M  END
>  <CHROM.1>
11.50330163,10.99835205,7.82270015,1.47806621,1.31623537,-2.33380233

>  <Name>
1u8d_lig

>  <RI>
0

>  <Rbt.Current_Directory>
/home/itssahil/PROJECTS/Mol_Feturizer/New_Systems/rnas/1u8d

>  <Rbt.Executable>
rbdock ($Id: //depot/dev/client3/rdock/2013.1/src/exe/rbdock.cxx#4 $)

>  <Rbt.Library>
libRbt.so (2013.1, Build901 2013/11/27)

>  <Rbt.Parameter_File>
/export/apps/rDock/src/rDock_2013.1_src/data/scripts/dock_solv.prm

>  <Rbt.Receptor>
prm/pocket_docking_5.prm

>  <SCORE>
-24.223

>  <SCORE.INTER>
-24.223

>  <SCORE.INTER.CONST>
1

>  <SCORE.INTER.POLAR>
-1.93632

>  <SCORE.INTER.ROT>
0

>  <SCORE.INTER.SOLV>
10.7574

>  <SCORE.INTER.VDW>
-16.88

>  <SCORE.INTER.norm>
-2.4223

>  <SCORE.INTRA>
0

>  <SCORE.INTRA.DIHEDRAL>
0

>  <SCORE.INTRA.DIHEDRAL.0>
0

>  <SCORE.INTRA.POLAR>
0

>  <SCORE.INTRA.POLAR.0>
0

>  <SCORE.INTRA.REPUL>
0

>  <SCORE.INTRA.REPUL.0>
0

>  <SCORE.INTRA.SOLV>
0

>  <SCORE.INTRA.SOLV.lig_0>
-13.7928

>  <SCORE.INTRA.VDW>
0

>  <SCORE.INTRA.VDW.0>
0

>  <SCORE.INTRA.norm>
0

>  <SCORE.RESTR>
0

>  <SCORE.RESTR.CAVITY>
0

>  <SCORE.RESTR.norm>
0

>  <SCORE.SYSTEM>
0

>  <SCORE.SYSTEM.CONST>
0

>  <SCORE.SYSTEM.DIHEDRAL>
0

>  <SCORE.SYSTEM.SOLV>
0

>  <SCORE.SYSTEM.norm>
0

>  <SCORE.heavy>
10

>  <SCORE.norm>
-2.4223

>  <RMSD>
2.871

$$$$
1u8d_lig
 OpenBabel11021811413D
libRbt.so/2013.1/901 2013/11/27
 10 11  0  0  0  0  0  0  0  0999 V2000
   11.4114    9.9184    6.2132 N   0  0  0  0  0  0  0  0  0  0  0  0
   11.0573   11.1818    5.7097 C   0  0  0  0  0  0  0  0  0  0  0  0
   10.9775   12.2983    6.4776 N   0  0  0  0  0  0  0  0  0  0  0  0
   11.2770   12.0648    7.7738 C   0  0  0  0  0  0  0  0  0  0  0  0
   11.6638   10.7175    8.3813 C   0  0  0  0  0  0  0  0  0  0  0  0
   11.7304    9.5925    7.5448 C   0  0  0  0  0  0  0  0  0  0  0  0
   12.0196    8.4343    7.8126 O   0  0  0  0  0  0  0  0  0  0  0  0
   11.8769   10.9340    9.7151 N   0  0  0  0  0  0  0  0  0  0  0  0
   11.6657   12.2702    9.9531 C   0  0  0  0  0  0  0  0  0  0  0  0
   11.3032   12.9787    8.8107 N   0  0  0  0  0  0  0  0  0  0  0  0
  1  2  1  0  0  0  0
  1  6  1  0  0  0  0
  2  3  2  0  0  0  0
  3  4  1  0  0  0  0
  4  5  2  0  0  0  0
  4 10  1  0  0  0  0
  5  6  1  0  0  0  0
  5  8  1  0  0  0  0
  6  7  2  0  0  0  0
  8  9  1  0  0  0  0
  9 10  2  0  0  0  0
M  END
>  <CHROM.1>
11.50540963,11.00125399,7.83617788,1.48553692,1.29853258,-2.33871256

>  <Name>
1u8d_lig

>  <RI>
0

>  <Rbt.Current_Directory>
/home/itssahil/PROJECTS/Mol_Feturizer/New_Systems/rnas/1u8d

>  <Rbt.Executable>
rbdock ($Id: //depot/dev/client3/rdock/2013.1/src/exe/rbdock.cxx#4 $)

>  <Rbt.Library>
libRbt.so (2013.1, Build901 2013/11/27)

>  <Rbt.Parameter_File>
/export/apps/rDock/src/rDock_2013.1_src/data/scripts/dock_solv.prm

>  <Rbt.Receptor>
prm/pocket_docking_6.prm

>  <SCORE>
-24.2309

>  <SCORE.INTER>
-24.2309

>  <SCORE.INTER.CONST>
1

>  <SCORE.INTER.POLAR>
-1.93632

>  <SCORE.INTER.ROT>
0

>  <SCORE.INTER.SOLV>
10.7165

>  <SCORE.INTER.VDW>
-16.8717

>  <SCORE.INTER.norm>
-2.42309

>  <SCORE.INTRA>
0

>  <SCORE.INTRA.DIHEDRAL>
0

>  <SCORE.INTRA.DIHEDRAL.0>
0

>  <SCORE.INTRA.POLAR>
0

>  <SCORE.INTRA.POLAR.0>
0

>  <SCORE.INTRA.REPUL>
0

>  <SCORE.INTRA.REPUL.0>
0

>  <SCORE.INTRA.SOLV>
0

>  <SCORE.INTRA.SOLV.lig_0>
-13.7928

>  <SCORE.INTRA.VDW>
0

>  <SCORE.INTRA.VDW.0>
0

>  <SCORE.INTRA.norm>
0

>  <SCORE.RESTR>
0

>  <SCORE.RESTR.CAVITY>
0

>  <SCORE.RESTR.norm>
0

>  <SCORE.SYSTEM>
0

>  <SCORE.SYSTEM.CONST>
0

>  <SCORE.SYSTEM.DIHEDRAL>
0

>  <SCORE.SYSTEM.SOLV>
0

>  <SCORE.SYSTEM.norm>
0

>  <SCORE.heavy>
10

>  <SCORE.norm>
-2.42309

>  <RMSD>
2.872

$$$$
1u8d_lig
 OpenBabel11021811413D
libRbt.so/2013.1/901 2013/11/27
 10 11  0  0  0  0  0  0  0  0999 V2000
   11.4284    9.9213    6.2085 N   0  0  0  0  0  0  0  0  0  0  0  0
   11.0907   11.1896    5.7059 C   0  0  0  0  0  0  0  0  0  0  0  0
   11.0030   12.3021    6.4787 N   0  0  0  0  0  0  0  0  0  0  0  0
   11.2771   12.0594    7.7789 C   0  0  0  0  0  0  0  0  0  0  0  0
   11.6450   10.7064    8.3855 C   0  0  0  0  0  0  0  0  0  0  0  0
   11.7208    9.5859    7.5438 C   0  0  0  0  0  0  0  0  0  0  0  0
   11.9985    8.4246    7.8101 O   0  0  0  0  0  0  0  0  0  0  0  0
   11.8345   10.9140    9.7242 N   0  0  0  0  0  0  0  0  0  0  0  0
   11.6265   12.2500    9.9661 C   0  0  0  0  0  0  0  0  0  0  0  0
   11.2892   12.9672    8.8214 N   0  0  0  0  0  0  0  0  0  0  0  0
  1  2  1  0  0  0  0
  1  6  1  0  0  0  0
  2  3  2  0  0  0  0
  3  4  1  0  0  0  0
  4  5  2  0  0  0  0
  4 10  1  0  0  0  0
  5  6  1  0  0  0  0
  5  8  1  0  0  0  0
  6  7  2  0  0  0  0
  8  9  1  0  0  0  0
  9 10  2  0  0  0  0
M  END
>  <CHROM.1>
11.49834460,10.99423433,7.83921980,1.44817592,1.31526077,-2.29681953

>  <Name>
1u8d_lig

>  <RI>
0

>  <Rbt.Current_Directory>
/home/itssahil/PROJECTS/Mol_Feturizer/New_Systems/rnas/1u8d

>  <Rbt.Executable>
rbdock ($Id: //depot/dev/client3/rdock/2013.1/src/exe/rbdock.cxx#4 $)

>  <Rbt.Library>
libRbt.so (2013.1, Build901 2013/11/27)

>  <Rbt.Parameter_File>
/export/apps/rDock/src/rDock_2013.1_src/data/scripts/dock_solv.prm

>  <Rbt.Receptor>
prm/blind_docking_100.prm

>  <SCORE>
-24.24

>  <SCORE.INTER>
-24.24

>  <SCORE.INTER.CONST>
1

>  <SCORE.INTER.POLAR>
-1.93632

>  <SCORE.INTER.ROT>
0

>  <SCORE.INTER.SOLV>
10.7548

>  <SCORE.INTER.VDW>
-16.8905

>  <SCORE.INTER.norm>
-2.424

>  <SCORE.INTRA>
0

>  <SCORE.INTRA.DIHEDRAL>
0

>  <SCORE.INTRA.DIHEDRAL.0>
0

>  <SCORE.INTRA.POLAR>
0

>  <SCORE.INTRA.POLAR.0>
0

>  <SCORE.INTRA.REPUL>
0

>  <SCORE.INTRA.REPUL.0>
0

>  <SCORE.INTRA.SOLV>
0

>  <SCORE.INTRA.SOLV.lig_0>
-13.7928

>  <SCORE.INTRA.VDW>
0

>  <SCORE.INTRA.VDW.0>
0

>  <SCORE.INTRA.norm>
0

>  <SCORE.RESTR>
0

>  <SCORE.RESTR.CAVITY>
0

>  <SCORE.RESTR.norm>
0

>  <SCORE.SYSTEM>
0

>  <SCORE.SYSTEM.CONST>
0

>  <SCORE.SYSTEM.DIHEDRAL>
0

>  <SCORE.SYSTEM.SOLV>
0

>  <SCORE.SYSTEM.norm>
0

>  <SCORE.heavy>
10

>  <SCORE.norm>
-2.424

>  <RMSD>
2.874

$$$$
1u8d_lig
 OpenBabel11021811413D
libRbt.so/2013.1/901 2013/11/27
 10 11  0  0  0  0  0  0  0  0999 V2000
   11.4338    9.9313    6.2099 N   0  0  0  0  0  0  0  0  0  0  0  0
   11.1053   11.2008    5.7044 C   0  0  0  0  0  0  0  0  0  0  0  0
   11.0235   12.3153    6.4750 N   0  0  0  0  0  0  0  0  0  0  0  0
   11.2936   12.0732    7.7761 C   0  0  0  0  0  0  0  0  0  0  0  0
   11.6516   10.7190    8.3859 C   0  0  0  0  0  0  0  0  0  0  0  0
   11.7215    9.5965    7.5464 C   0  0  0  0  0  0  0  0  0  0  0  0
   11.9911    8.4338    7.8154 O   0  0  0  0  0  0  0  0  0  0  0  0
   11.8400   10.9279    9.7246 N   0  0  0  0  0  0  0  0  0  0  0  0
   11.6402   12.2656    9.9636 C   0  0  0  0  0  0  0  0  0  0  0  0
   11.3097   12.9829    8.8170 N   0  0  0  0  0  0  0  0  0  0  0  0
  1  2  1  0  0  0  0
  1  6  1  0  0  0  0
  2  3  2  0  0  0  0
  3  4  1  0  0  0  0
  4  5  2  0  0  0  0
  4 10  1  0  0  0  0
  5  6  1  0  0  0  0
  5  8  1  0  0  0  0
  6  7  2  0  0  0  0
  8  9  1  0  0  0  0
  9 10  2  0  0  0  0
M  END
>  <CHROM.1>
11.50776636,11.00677241,7.83882177,1.46022844,1.32136113,-2.31034738

>  <Name>
1u8d_lig

>  <RI>
0

>  <Rbt.Current_Directory>
/home/itssahil/PROJECTS/Mol_Feturizer/New_Systems/rnas/1u8d

>  <Rbt.Executable>
rbdock ($Id: //depot/dev/client3/rdock/2013.1/src/exe/rbdock.cxx#4 $)

>  <Rbt.Library>
libRbt.so (2013.1, Build901 2013/11/27)

>  <Rbt.Parameter_File>
/export/apps/rDock/src/rDock_2013.1_src/data/scripts/dock_solv.prm

>  <Rbt.Receptor>
prm/blind_docking_60.prm

>  <SCORE>
-24.2477

>  <SCORE.INTER>
-24.2477

>  <SCORE.INTER.CONST>
1

>  <SCORE.INTER.POLAR>
-1.93632

>  <SCORE.INTER.ROT>
0

>  <SCORE.INTER.SOLV>
10.7644

>  <SCORE.INTER.VDW>
-16.8989

>  <SCORE.INTER.norm>
-2.42477

>  <SCORE.INTRA>
0

>  <SCORE.INTRA.DIHEDRAL>
0

>  <SCORE.INTRA.DIHEDRAL.0>
0

>  <SCORE.INTRA.POLAR>
0

>  <SCORE.INTRA.POLAR.0>
0

>  <SCORE.INTRA.REPUL>
0

>  <SCORE.INTRA.REPUL.0>
0

>  <SCORE.INTRA.SOLV>
0

>  <SCORE.INTRA.SOLV.lig_0>
-13.7928

>  <SCORE.INTRA.VDW>
0

>  <SCORE.INTRA.VDW.0>
0

>  <SCORE.INTRA.norm>
0

>  <SCORE.RESTR>
0

>  <SCORE.RESTR.CAVITY>
0

>  <SCORE.RESTR.norm>
0

>  <SCORE.SYSTEM>
0

>  <SCORE.SYSTEM.CONST>
0

>  <SCORE.SYSTEM.DIHEDRAL>
0

>  <SCORE.SYSTEM.SOLV>
0

>  <SCORE.SYSTEM.norm>
0

>  <SCORE.heavy>
10

>  <SCORE.norm>
-2.42477

>  <RMSD>
2.874

$$$$
1u8d_lig
 OpenBabel11021811413D
libRbt.so/2013.1/901 2013/11/27
 10 11  0  0  0  0  0  0  0  0999 V2000
   11.4550    9.9250    6.2051 N   0  0  0  0  0  0  0  0  0  0  0  0
   11.1189   11.1929    5.7005 C   0  0  0  0  0  0  0  0  0  0  0  0
   11.0236   12.3050    6.4731 N   0  0  0  0  0  0  0  0  0  0  0  0
   11.2885   12.0622    7.7751 C   0  0  0  0  0  0  0  0  0  0  0  0
   11.6542   10.7096    8.3840 C   0  0  0  0  0  0  0  0  0  0  0  0
   11.7380    9.5896    7.5425 C   0  0  0  0  0  0  0  0  0  0  0  0
   12.0157    8.4286    7.8104 O   0  0  0  0  0  0  0  0  0  0  0  0
   11.8334   10.9170    9.7242 N   0  0  0  0  0  0  0  0  0  0  0  0
   11.6213   12.2525    9.9650 C   0  0  0  0  0  0  0  0  0  0  0  0
   11.2913   12.9696    8.8181 N   0  0  0  0  0  0  0  0  0  0  0  0
  1  2  1  0  0  0  0
  1  6  1  0  0  0  0
  2  3  2  0  0  0  0
  3  4  1  0  0  0  0
  4  5  2  0  0  0  0
  4 10  1  0  0  0  0
  5  6  1  0  0  0  0
  5  8  1  0  0  0  0
  6  7  2  0  0  0  0
  8  9  1  0  0  0  0
  9 10  2  0  0  0  0
M  END
>  <CHROM.1>
11.51105164,10.99741486,7.83674735,1.42146523,1.31885521,-2.27057787

>  <Name>
1u8d_lig

>  <RI>
0

>  <Rbt.Current_Directory>
/home/itssahil/PROJECTS/Mol_Feturizer/New_Systems/rnas/1u8d

>  <Rbt.Executable>
rbdock ($Id: //depot/dev/client3/rdock/2013.1/src/exe/rbdock.cxx#4 $)

>  <Rbt.Library>
libRbt.so (2013.1, Build901 2013/11/27)

>  <Rbt.Parameter_File>
/export/apps/rDock/src/rDock_2013.1_src/data/scripts/dock_solv.prm

>  <Rbt.Receptor>
prm/blind_docking_60.prm

>  <SCORE>
-24.2538

>  <SCORE.INTER>
-24.2538

>  <SCORE.INTER.CONST>
1

>  <SCORE.INTER.POLAR>
-1.93628

>  <SCORE.INTER.ROT>
0

>  <SCORE.INTER.SOLV>
10.7514

>  <SCORE.INTER.VDW>
-16.8987

>  <SCORE.INTER.norm>
-2.42538

>  <SCORE.INTRA>
0

>  <SCORE.INTRA.DIHEDRAL>
0

>  <SCORE.INTRA.DIHEDRAL.0>
0

>  <SCORE.INTRA.POLAR>
0

>  <SCORE.INTRA.POLAR.0>
0

>  <SCORE.INTRA.REPUL>
0

>  <SCORE.INTRA.REPUL.0>
0

>  <SCORE.INTRA.SOLV>
0

>  <SCORE.INTRA.SOLV.lig_0>
-13.7928

>  <SCORE.INTRA.VDW>
0

>  <SCORE.INTRA.VDW.0>
0

>  <SCORE.INTRA.norm>
0

>  <SCORE.RESTR>
0

>  <SCORE.RESTR.CAVITY>
0

>  <SCORE.RESTR.norm>
0

>  <SCORE.SYSTEM>
0

>  <SCORE.SYSTEM.CONST>
0

>  <SCORE.SYSTEM.DIHEDRAL>
0

>  <SCORE.SYSTEM.SOLV>
0

>  <SCORE.SYSTEM.norm>
0

>  <SCORE.heavy>
10

>  <SCORE.norm>
-2.42538

>  <RMSD>
2.874

$$$$
1u8d_lig
 OpenBabel11021811413D
libRbt.so/2013.1/901 2013/11/27
 10 11  0  0  0  0  0  0  0  0999 V2000
   11.4354    9.9318    6.2099 N   0  0  0  0  0  0  0  0  0  0  0  0
   11.1072   11.2013    5.7043 C   0  0  0  0  0  0  0  0  0  0  0  0
   11.0244   12.3157    6.4751 N   0  0  0  0  0  0  0  0  0  0  0  0
   11.2933   12.0733    7.7764 C   0  0  0  0  0  0  0  0  0  0  0  0
   11.6509   10.7191    8.3862 C   0  0  0  0  0  0  0  0  0  0  0  0
   11.7219    9.5967    7.5466 C   0  0  0  0  0  0  0  0  0  0  0  0
   11.9915    8.4341    7.8155 O   0  0  0  0  0  0  0  0  0  0  0  0
   11.8380   10.9276    9.7252 N   0  0  0  0  0  0  0  0  0  0  0  0
   11.6377   12.2653    9.9643 C   0  0  0  0  0  0  0  0  0  0  0  0
   11.3082   12.9827    8.8175 N   0  0  0  0  0  0  0  0  0  0  0  0
  1  2  1  0  0  0  0
  1  6  1  0  0  0  0
  2  3  2  0  0  0  0
  3  4  1  0  0  0  0
  4  5  2  0  0  0  0
  4 10  1  0  0  0  0
  5  6  1  0  0  0  0
  5  8  1  0  0  0  0
  6  7  2  0  0  0  0
  8  9  1  0  0  0  0
  9 10  2  0  0  0  0
M  END
>  <CHROM.1>
11.50760836,11.00691078,7.83908275,1.45680092,1.32187466,-2.30680590

>  <Name>
1u8d_lig

>  <RI>
0

>  <Rbt.Current_Directory>
/home/itssahil/PROJECTS/Mol_Feturizer/New_Systems/rnas/1u8d

>  <Rbt.Executable>
rbdock ($Id: //depot/dev/client3/rdock/2013.1/src/exe/rbdock.cxx#4 $)

>  <Rbt.Library>
libRbt.so (2013.1, Build901 2013/11/27)

>  <Rbt.Parameter_File>
/export/apps/rDock/src/rDock_2013.1_src/data/scripts/dock_solv.prm

>  <Rbt.Receptor>
prm/blind_docking_80.prm

>  <SCORE>
-24.2488

>  <SCORE.INTER>
-24.2488

>  <SCORE.INTER.CONST>
1

>  <SCORE.INTER.POLAR>
-1.93632

>  <SCORE.INTER.ROT>
0

>  <SCORE.INTER.SOLV>
10.7653

>  <SCORE.INTER.VDW>
-16.8999

>  <SCORE.INTER.norm>
-2.42488

>  <SCORE.INTRA>
0

>  <SCORE.INTRA.DIHEDRAL>
0

>  <SCORE.INTRA.DIHEDRAL.0>
0

>  <SCORE.INTRA.POLAR>
0

>  <SCORE.INTRA.POLAR.0>
0

>  <SCORE.INTRA.REPUL>
0

>  <SCORE.INTRA.REPUL.0>
0

>  <SCORE.INTRA.SOLV>
0

>  <SCORE.INTRA.SOLV.lig_0>
-13.7928

>  <SCORE.INTRA.VDW>
0

>  <SCORE.INTRA.VDW.0>
0

>  <SCORE.INTRA.norm>
0

>  <SCORE.RESTR>
0

>  <SCORE.RESTR.CAVITY>
0

>  <SCORE.RESTR.norm>
0

>  <SCORE.SYSTEM>
0

>  <SCORE.SYSTEM.CONST>
0

>  <SCORE.SYSTEM.DIHEDRAL>
0

>  <SCORE.SYSTEM.SOLV>
0

>  <SCORE.SYSTEM.norm>
0

>  <SCORE.heavy>
10

>  <SCORE.norm>
-2.42488

>  <RMSD>
2.874

$$$$
1u8d_lig
 OpenBabel11021811413D
libRbt.so/2013.1/901 2013/11/27
 10 11  0  0  0  0  0  0  0  0999 V2000
   11.4444    9.9234    6.2073 N   0  0  0  0  0  0  0  0  0  0  0  0
   11.1056   11.1911    5.7041 C   0  0  0  0  0  0  0  0  0  0  0  0
   11.0126   12.3031    6.4771 N   0  0  0  0  0  0  0  0  0  0  0  0
   11.2826   12.0604    7.7781 C   0  0  0  0  0  0  0  0  0  0  0  0
   11.6515   10.7080    8.3854 C   0  0  0  0  0  0  0  0  0  0  0  0
   11.7328    9.5881    7.5435 C   0  0  0  0  0  0  0  0  0  0  0  0
   12.0122    8.4272    7.8102 O   0  0  0  0  0  0  0  0  0  0  0  0
   11.8357   10.9154    9.7249 N   0  0  0  0  0  0  0  0  0  0  0  0
   11.6237   12.2508    9.9667 C   0  0  0  0  0  0  0  0  0  0  0  0
   11.2889   12.9677    8.8211 N   0  0  0  0  0  0  0  0  0  0  0  0
  1  2  1  0  0  0  0
  1  6  1  0  0  0  0
  2  3  2  0  0  0  0
  3  4  1  0  0  0  0
  4  5  2  0  0  0  0
  4 10  1  0  0  0  0
  5  6  1  0  0  0  0
  5  8  1  0  0  0  0
  6  7  2  0  0  0  0
  8  9  1  0  0  0  0
  9 10  2  0  0  0  0
M  END
>  <CHROM.1>
11.50607192,10.99572391,7.83874272,1.43160917,1.31588757,-2.28032394

>  <Name>
1u8d_lig

>  <RI>
0

>  <Rbt.Current_Directory>
/home/itssahil/PROJECTS/Mol_Feturizer/New_Systems/rnas/1u8d

>  <Rbt.Executable>
rbdock ($Id: //depot/dev/client3/rdock/2013.1/src/exe/rbdock.cxx#4 $)

>  <Rbt.Library>
libRbt.so (2013.1, Build901 2013/11/27)

>  <Rbt.Parameter_File>
/export/apps/rDock/src/rDock_2013.1_src/data/scripts/dock_solv.prm

>  <Rbt.Receptor>
prm/pocket_docking_4.prm

>  <SCORE>
-24.2488

>  <SCORE.INTER>
-24.2488

>  <SCORE.INTER.CONST>
1

>  <SCORE.INTER.POLAR>
-1.93632

>  <SCORE.INTER.ROT>
0

>  <SCORE.INTER.SOLV>
10.7483

>  <SCORE.INTER.VDW>
-16.8942

>  <SCORE.INTER.norm>
-2.42488

>  <SCORE.INTRA>
0

>  <SCORE.INTRA.DIHEDRAL>
0

>  <SCORE.INTRA.DIHEDRAL.0>
0

>  <SCORE.INTRA.POLAR>
0

>  <SCORE.INTRA.POLAR.0>
0

>  <SCORE.INTRA.REPUL>
0

>  <SCORE.INTRA.REPUL.0>
0

>  <SCORE.INTRA.SOLV>
0

>  <SCORE.INTRA.SOLV.lig_0>
-13.7928

>  <SCORE.INTRA.VDW>
0

>  <SCORE.INTRA.VDW.0>
0

>  <SCORE.INTRA.norm>
0

>  <SCORE.RESTR>
0

>  <SCORE.RESTR.CAVITY>
0

>  <SCORE.RESTR.norm>
0

>  <SCORE.SYSTEM>
0

>  <SCORE.SYSTEM.CONST>
0

>  <SCORE.SYSTEM.DIHEDRAL>
0

>  <SCORE.SYSTEM.SOLV>
0

>  <SCORE.SYSTEM.norm>
0

>  <SCORE.heavy>
10

>  <SCORE.norm>
-2.42488

>  <RMSD>
2.874

$$$$
1u8d_lig
 OpenBabel11021811413D
libRbt.so/2013.1/901 2013/11/27
 10 11  0  0  0  0  0  0  0  0999 V2000
   11.3888    9.9010    6.2140 N   0  0  0  0  0  0  0  0  0  0  0  0
   11.0423   11.1683    5.7150 C   0  0  0  0  0  0  0  0  0  0  0  0
   10.9915   12.2868    6.4824 N   0  0  0  0  0  0  0  0  0  0  0  0
   11.3117   12.0511    7.7733 C   0  0  0  0  0  0  0  0  0  0  0  0
   11.6915   10.6996    8.3757 C   0  0  0  0  0  0  0  0  0  0  0  0
   11.7277    9.5727    7.5400 C   0  0  0  0  0  0  0  0  0  0  0  0
   12.0063    8.4111    7.8043 O   0  0  0  0  0  0  0  0  0  0  0  0
   11.9319   10.9150    9.7051 N   0  0  0  0  0  0  0  0  0  0  0  0
   11.7430   12.2542    9.9447 C   0  0  0  0  0  0  0  0  0  0  0  0
   11.3691   12.9660    8.8081 N   0  0  0  0  0  0  0  0  0  0  0  0
  1  2  1  0  0  0  0
  1  6  1  0  0  0  0
  2  3  2  0  0  0  0
  3  4  1  0  0  0  0
  4  5  2  0  0  0  0
  4 10  1  0  0  0  0
  5  6  1  0  0  0  0
  5  8  1  0  0  0  0
  6  7  2  0  0  0  0
  8  9  1  0  0  0  0
  9 10  2  0  0  0  0
M  END
>  <CHROM.1>
11.52695900,10.98469267,7.83319901,1.56805785,1.29448887,-2.41963429

>  <Name>
1u8d_lig

>  <RI>
0

>  <Rbt.Current_Directory>
/home/itssahil/PROJECTS/Mol_Feturizer/New_Systems/rnas/1u8d

>  <Rbt.Executable>
rbdock ($Id: //depot/dev/client3/rdock/2013.1/src/exe/rbdock.cxx#4 $)

>  <Rbt.Library>
libRbt.so (2013.1, Build901 2013/11/27)

>  <Rbt.Parameter_File>
/export/apps/rDock/src/rDock_2013.1_src/data/scripts/dock_solv.prm

>  <Rbt.Receptor>
prm/blind_docking_100.prm

>  <SCORE>
-24.1522

>  <SCORE.INTER>
-24.1522

>  <SCORE.INTER.CONST>
1

>  <SCORE.INTER.POLAR>
-1.93632

>  <SCORE.INTER.ROT>
0

>  <SCORE.INTER.SOLV>
10.7166

>  <SCORE.INTER.VDW>
-16.8193

>  <SCORE.INTER.norm>
-2.41522

>  <SCORE.INTRA>
0

>  <SCORE.INTRA.DIHEDRAL>
0

>  <SCORE.INTRA.DIHEDRAL.0>
0

>  <SCORE.INTRA.POLAR>
0

>  <SCORE.INTRA.POLAR.0>
0

>  <SCORE.INTRA.REPUL>
0

>  <SCORE.INTRA.REPUL.0>
0

>  <SCORE.INTRA.SOLV>
0

>  <SCORE.INTRA.SOLV.lig_0>
-13.7928

>  <SCORE.INTRA.VDW>
0

>  <SCORE.INTRA.VDW.0>
0

>  <SCORE.INTRA.norm>
0

>  <SCORE.RESTR>
0

>  <SCORE.RESTR.CAVITY>
0

>  <SCORE.RESTR.norm>
0

>  <SCORE.SYSTEM>
0

>  <SCORE.SYSTEM.CONST>
0

>  <SCORE.SYSTEM.DIHEDRAL>
0

>  <SCORE.SYSTEM.SOLV>
0

>  <SCORE.SYSTEM.norm>
0

>  <SCORE.heavy>
10

>  <SCORE.norm>
-2.41522

>  <RMSD>
2.875

$$$$
1u8d_lig
 OpenBabel11021811413D
libRbt.so/2013.1/901 2013/11/27
 10 11  0  0  0  0  0  0  0  0999 V2000
   11.4787    9.9200    6.1929 N   0  0  0  0  0  0  0  0  0  0  0  0
   11.1802   11.1957    5.6845 C   0  0  0  0  0  0  0  0  0  0  0  0
   11.0758   12.3051    6.4597 N   0  0  0  0  0  0  0  0  0  0  0  0
   11.2921   12.0513    7.7686 C   0  0  0  0  0  0  0  0  0  0  0  0
   11.6153   10.6900    8.3818 C   0  0  0  0  0  0  0  0  0  0  0  0
   11.7103    9.5731    7.5372 C   0  0  0  0  0  0  0  0  0  0  0  0
   11.9604    8.4065    7.8078 O   0  0  0  0  0  0  0  0  0  0  0  0
   11.7516   10.8875    9.7285 N   0  0  0  0  0  0  0  0  0  0  0  0
   11.5524   12.2249    9.9697 C   0  0  0  0  0  0  0  0  0  0  0  0
   11.2733   12.9531    8.8163 N   0  0  0  0  0  0  0  0  0  0  0  0
  1  2  1  0  0  0  0
  1  6  1  0  0  0  0
  2  3  2  0  0  0  0
  3  4  1  0  0  0  0
  4  5  2  0  0  0  0
  4 10  1  0  0  0  0
  5  6  1  0  0  0  0
  5  8  1  0  0  0  0
  6  7  2  0  0  0  0
  8  9  1  0  0  0  0
  9 10  2  0  0  0  0
M  END
>  <CHROM.1>
11.49557942,10.98285495,7.83168676,1.34691669,1.35241858,-2.19257228

>  <Name>
1u8d_lig

>  <RI>
0

>  <Rbt.Current_Directory>
/home/itssahil/PROJECTS/Mol_Feturizer/New_Systems/rnas/1u8d

>  <Rbt.Executable>
rbdock ($Id: //depot/dev/client3/rdock/2013.1/src/exe/rbdock.cxx#4 $)

>  <Rbt.Library>
libRbt.so (2013.1, Build901 2013/11/27)

>  <Rbt.Parameter_File>
/export/apps/rDock/src/rDock_2013.1_src/data/scripts/dock_solv.prm

>  <Rbt.Receptor>
prm/pocket_docking_4.prm

>  <SCORE>
-24.1844

>  <SCORE.INTER>
-24.1844

>  <SCORE.INTER.CONST>
1

>  <SCORE.INTER.POLAR>
-1.93632

>  <SCORE.INTER.ROT>
0

>  <SCORE.INTER.SOLV>
10.8481

>  <SCORE.INTER.VDW>
-16.8846

>  <SCORE.INTER.norm>
-2.41844

>  <SCORE.INTRA>
0

>  <SCORE.INTRA.DIHEDRAL>
0

>  <SCORE.INTRA.DIHEDRAL.0>
0

>  <SCORE.INTRA.POLAR>
0

>  <SCORE.INTRA.POLAR.0>
0

>  <SCORE.INTRA.REPUL>
0

>  <SCORE.INTRA.REPUL.0>
0

>  <SCORE.INTRA.SOLV>
0

>  <SCORE.INTRA.SOLV.lig_0>
-13.7928

>  <SCORE.INTRA.VDW>
0

>  <SCORE.INTRA.VDW.0>
0

>  <SCORE.INTRA.norm>
0

>  <SCORE.RESTR>
0

>  <SCORE.RESTR.CAVITY>
0

>  <SCORE.RESTR.norm>
0

>  <SCORE.SYSTEM>
0

>  <SCORE.SYSTEM.CONST>
0

>  <SCORE.SYSTEM.DIHEDRAL>
0

>  <SCORE.SYSTEM.SOLV>
0

>  <SCORE.SYSTEM.norm>
0

>  <SCORE.heavy>
10

>  <SCORE.norm>
-2.41844

>  <RMSD>
2.875

$$$$
1u8d_lig
 OpenBabel11021811413D
libRbt.so/2013.1/901 2013/11/27
 10 11  0  0  0  0  0  0  0  0999 V2000
   11.4351    9.9374    6.2128 N   0  0  0  0  0  0  0  0  0  0  0  0
   11.1351   11.2124    5.7036 C   0  0  0  0  0  0  0  0  0  0  0  0
   11.0558   12.3269    6.4746 N   0  0  0  0  0  0  0  0  0  0  0  0
   11.2985   12.0787    7.7799 C   0  0  0  0  0  0  0  0  0  0  0  0
   11.6248   10.7184    8.3937 C   0  0  0  0  0  0  0  0  0  0  0  0
   11.6933    9.5962    7.5537 C   0  0  0  0  0  0  0  0  0  0  0  0
   11.9405    8.4292    7.8254 O   0  0  0  0  0  0  0  0  0  0  0  0
   11.7918   10.9223    9.7360 N   0  0  0  0  0  0  0  0  0  0  0  0
   11.6078   12.2626    9.9738 C   0  0  0  0  0  0  0  0  0  0  0  0
   11.3092   12.9865    8.8226 N   0  0  0  0  0  0  0  0  0  0  0  0
  1  2  1  0  0  0  0
  1  6  1  0  0  0  0
  2  3  2  0  0  0  0
  3  4  1  0  0  0  0
  4  5  2  0  0  0  0
  4 10  1  0  0  0  0
  5  6  1  0  0  0  0
  5  8  1  0  0  0  0
  6  7  2  0  0  0  0
  8  9  1  0  0  0  0
  9 10  2  0  0  0  0
M  END
>  <CHROM.1>
11.49540934,11.00911036,7.84466037,1.44503101,1.34475054,-2.29391531

>  <Name>
1u8d_lig

>  <RI>
0

>  <Rbt.Current_Directory>
/home/itssahil/PROJECTS/Mol_Feturizer/New_Systems/rnas/1u8d

>  <Rbt.Executable>
rbdock ($Id: //depot/dev/client3/rdock/2013.1/src/exe/rbdock.cxx#4 $)

>  <Rbt.Library>
libRbt.so (2013.1, Build901 2013/11/27)

>  <Rbt.Parameter_File>
/export/apps/rDock/src/rDock_2013.1_src/data/scripts/dock_solv.prm

>  <Rbt.Receptor>
prm/blind_docking_80.prm

>  <SCORE>
-24.215

>  <SCORE.INTER>
-24.215

>  <SCORE.INTER.CONST>
1

>  <SCORE.INTER.POLAR>
-1.93632

>  <SCORE.INTER.ROT>
0

>  <SCORE.INTER.SOLV>
10.8306

>  <SCORE.INTER.VDW>
-16.8991

>  <SCORE.INTER.norm>
-2.4215

>  <SCORE.INTRA>
0

>  <SCORE.INTRA.DIHEDRAL>
0

>  <SCORE.INTRA.DIHEDRAL.0>
0

>  <SCORE.INTRA.POLAR>
0

>  <SCORE.INTRA.POLAR.0>
0

>  <SCORE.INTRA.REPUL>
0

>  <SCORE.INTRA.REPUL.0>
0

>  <SCORE.INTRA.SOLV>
0

>  <SCORE.INTRA.SOLV.lig_0>
-13.7928

>  <SCORE.INTRA.VDW>
0

>  <SCORE.INTRA.VDW.0>
0

>  <SCORE.INTRA.norm>
0

>  <SCORE.RESTR>
0

>  <SCORE.RESTR.CAVITY>
0

>  <SCORE.RESTR.norm>
0

>  <SCORE.SYSTEM>
0

>  <SCORE.SYSTEM.CONST>
0

>  <SCORE.SYSTEM.DIHEDRAL>
0

>  <SCORE.SYSTEM.SOLV>
0

>  <SCORE.SYSTEM.norm>
0

>  <SCORE.heavy>
10

>  <SCORE.norm>
-2.4215

>  <RMSD>
2.876

$$$$
1u8d_lig
 OpenBabel11021811413D
libRbt.so/2013.1/901 2013/11/27
 10 11  0  0  0  0  0  0  0  0999 V2000
   11.3991    9.9348    6.2203 N   0  0  0  0  0  0  0  0  0  0  0  0
   11.0684   11.2050    5.7182 C   0  0  0  0  0  0  0  0  0  0  0  0
   10.9999   12.3202    6.4892 N   0  0  0  0  0  0  0  0  0  0  0  0
   11.2859   12.0779    7.7868 C   0  0  0  0  0  0  0  0  0  0  0  0
   11.6472   10.7229    8.3928 C   0  0  0  0  0  0  0  0  0  0  0  0
   11.7028    9.5997    7.5532 C   0  0  0  0  0  0  0  0  0  0  0  0
   11.9720    8.4363    7.8194 O   0  0  0  0  0  0  0  0  0  0  0  0
   11.8533   10.9319    9.7289 N   0  0  0  0  0  0  0  0  0  0  0  0
   11.6610   12.2704    9.9697 C   0  0  0  0  0  0  0  0  0  0  0  0
   11.3182   12.9881    8.8269 N   0  0  0  0  0  0  0  0  0  0  0  0
  1  2  1  0  0  0  0
  1  6  1  0  0  0  0
  2  3  2  0  0  0  0
  3  4  1  0  0  0  0
  4  5  2  0  0  0  0
  4 10  1  0  0  0  0
  5  6  1  0  0  0  0
  5  8  1  0  0  0  0
  6  7  2  0  0  0  0
  8  9  1  0  0  0  0
  9 10  2  0  0  0  0
M  END
>  <CHROM.1>
11.49734480,11.01084440,7.84745685,1.50612519,1.31491039,-2.35534808

>  <Name>
1u8d_lig

>  <RI>
0

>  <Rbt.Current_Directory>
/home/itssahil/PROJECTS/Mol_Feturizer/New_Systems/rnas/1u8d

>  <Rbt.Executable>
rbdock ($Id: //depot/dev/client3/rdock/2013.1/src/exe/rbdock.cxx#4 $)

>  <Rbt.Library>
libRbt.so (2013.1, Build901 2013/11/27)

>  <Rbt.Parameter_File>
/export/apps/rDock/src/rDock_2013.1_src/data/scripts/dock_solv.prm

>  <Rbt.Receptor>
prm/blind_docking_80.prm

>  <SCORE>
-24.2309

>  <SCORE.INTER>
-24.2309

>  <SCORE.INTER.CONST>
1

>  <SCORE.INTER.POLAR>
-1.93632

>  <SCORE.INTER.ROT>
0

>  <SCORE.INTER.SOLV>
10.7642

>  <SCORE.INTER.VDW>
-16.8876

>  <SCORE.INTER.norm>
-2.42309

>  <SCORE.INTRA>
0

>  <SCORE.INTRA.DIHEDRAL>
0

>  <SCORE.INTRA.DIHEDRAL.0>
0

>  <SCORE.INTRA.POLAR>
0

>  <SCORE.INTRA.POLAR.0>
0

>  <SCORE.INTRA.REPUL>
0

>  <SCORE.INTRA.REPUL.0>
0

>  <SCORE.INTRA.SOLV>
0

>  <SCORE.INTRA.SOLV.lig_0>
-13.7928

>  <SCORE.INTRA.VDW>
0

>  <SCORE.INTRA.VDW.0>
0

>  <SCORE.INTRA.norm>
0

>  <SCORE.RESTR>
0

>  <SCORE.RESTR.CAVITY>
0

>  <SCORE.RESTR.norm>
0

>  <SCORE.SYSTEM>
0

>  <SCORE.SYSTEM.CONST>
0

>  <SCORE.SYSTEM.DIHEDRAL>
0

>  <SCORE.SYSTEM.SOLV>
0

>  <SCORE.SYSTEM.norm>
0

>  <SCORE.heavy>
10

>  <SCORE.norm>
-2.42309

>  <RMSD>
2.876

$$$$
1u8d_lig
 OpenBabel11021811413D
libRbt.so/2013.1/901 2013/11/27
 10 11  0  0  0  0  0  0  0  0999 V2000
   11.5630   12.5350    8.4182 N   0  0  0  0  0  0  0  0  0  0  0  0
   10.7919   12.4041    7.2506 C   0  0  0  0  0  0  0  0  0  0  0  0
   10.7254   11.2610    6.5216 N   0  0  0  0  0  0  0  0  0  0  0  0
   11.4763   10.2650    7.0399 C   0  0  0  0  0  0  0  0  0  0  0  0
   12.3370   10.3466    8.2995 C   0  0  0  0  0  0  0  0  0  0  0  0
   12.3733   11.5521    9.0170 C   0  0  0  0  0  0  0  0  0  0  0  0
   12.9809   11.8357   10.0403 O   0  0  0  0  0  0  0  0  0  0  0  0
   12.9244    9.1209    8.4545 N   0  0  0  0  0  0  0  0  0  0  0  0
   12.4906    8.3242    7.4231 C   0  0  0  0  0  0  0  0  0  0  0  0
   11.6213    8.9787    6.5546 N   0  0  0  0  0  0  0  0  0  0  0  0
  1  2  1  0  0  0  0
  1  6  1  0  0  0  0
  2  3  2  0  0  0  0
  3  4  1  0  0  0  0
  4  5  2  0  0  0  0
  4 10  1  0  0  0  0
  5  6  1  0  0  0  0
  5  8  1  0  0  0  0
  6  7  2  0  0  0  0
  8  9  1  0  0  0  0
  9 10  2  0  0  0  0
M  END
>  <CHROM.1>
11.94230959,10.68154102,7.93236835,1.61213257,-0.89230840,0.50169325

>  <Name>
1u8d_lig

>  <RI>
0

>  <Rbt.Current_Directory>
/home/itssahil/PROJECTS/Mol_Feturizer/New_Systems/rnas/1u8d

>  <Rbt.Executable>
rbdock ($Id: //depot/dev/client3/rdock/2013.1/src/exe/rbdock.cxx#4 $)

>  <Rbt.Library>
libRbt.so (2013.1, Build901 2013/11/27)

>  <Rbt.Parameter_File>
/export/apps/rDock/src/rDock_2013.1_src/data/scripts/dock_solv.prm

>  <Rbt.Receptor>
prm/blind_docking_80.prm

>  <SCORE>
-11.8293

>  <SCORE.INTER>
-11.8293

>  <SCORE.INTER.CONST>
1

>  <SCORE.INTER.POLAR>
-1.86375

>  <SCORE.INTER.ROT>
0

>  <SCORE.INTER.SOLV>
9.73336

>  <SCORE.INTER.VDW>
-8.51811

>  <SCORE.INTER.norm>
-1.18293

>  <SCORE.INTRA>
0

>  <SCORE.INTRA.DIHEDRAL>
0

>  <SCORE.INTRA.DIHEDRAL.0>
0

>  <SCORE.INTRA.POLAR>
0

>  <SCORE.INTRA.POLAR.0>
0

>  <SCORE.INTRA.REPUL>
0

>  <SCORE.INTRA.REPUL.0>
0

>  <SCORE.INTRA.SOLV>
0

>  <SCORE.INTRA.SOLV.lig_0>
-13.7928

>  <SCORE.INTRA.VDW>
0

>  <SCORE.INTRA.VDW.0>
0

>  <SCORE.INTRA.norm>
0

>  <SCORE.RESTR>
0

>  <SCORE.RESTR.CAVITY>
0

>  <SCORE.RESTR.norm>
0

>  <SCORE.SYSTEM>
0

>  <SCORE.SYSTEM.CONST>
0

>  <SCORE.SYSTEM.DIHEDRAL>
0

>  <SCORE.SYSTEM.SOLV>
0

>  <SCORE.SYSTEM.norm>
0

>  <SCORE.heavy>
10

>  <SCORE.norm>
-1.18293

>  <RMSD>
2.917

$$$$
1u8d_lig
 OpenBabel11021811413D
libRbt.so/2013.1/901 2013/11/27
 10 11  0  0  0  0  0  0  0  0999 V2000
   11.0770   10.6091    5.9674 N   0  0  0  0  0  0  0  0  0  0  0  0
   10.5321   11.9045    5.9553 C   0  0  0  0  0  0  0  0  0  0  0  0
   10.5711   12.7431    7.0220 N   0  0  0  0  0  0  0  0  0  0  0  0
   11.1910   12.2003    8.0923 C   0  0  0  0  0  0  0  0  0  0  0  0
   11.7981   10.8005    8.1687 C   0  0  0  0  0  0  0  0  0  0  0  0
   11.7301    9.9711    7.0386 C   0  0  0  0  0  0  0  0  0  0  0  0
   12.1482    8.8328    6.8771 O   0  0  0  0  0  0  0  0  0  0  0  0
   12.3150   10.6641    9.4279 N   0  0  0  0  0  0  0  0  0  0  0  0
   12.0842   11.8416   10.0963 C   0  0  0  0  0  0  0  0  0  0  0  0
   11.4108   12.7854    9.3254 N   0  0  0  0  0  0  0  0  0  0  0  0
  1  2  1  0  0  0  0
  1  6  1  0  0  0  0
  2  3  2  0  0  0  0
  3  4  1  0  0  0  0
  4  5  2  0  0  0  0
  4 10  1  0  0  0  0
  5  6  1  0  0  0  0
  5  8  1  0  0  0  0
  6  7  2  0  0  0  0
  8  9  1  0  0  0  0
  9 10  2  0  0  0  0
M  END
>  <CHROM.1>
11.49431389,11.20107822,7.78140879,1.75944786,1.06471497,-2.29561269

>  <Name>
1u8d_lig

>  <RI>
0

>  <Rbt.Current_Directory>
/home/itssahil/PROJECTS/Mol_Feturizer/New_Systems/rnas/1u8d

>  <Rbt.Executable>
rbdock ($Id: //depot/dev/client3/rdock/2013.1/src/exe/rbdock.cxx#4 $)

>  <Rbt.Library>
libRbt.so (2013.1, Build901 2013/11/27)

>  <Rbt.Parameter_File>
/export/apps/rDock/src/rDock_2013.1_src/data/scripts/dock_solv.prm

>  <Rbt.Receptor>
prm/blind_docking_80.prm

>  <SCORE>
-21.2263

>  <SCORE.INTER>
-21.2263

>  <SCORE.INTER.CONST>
1

>  <SCORE.INTER.POLAR>
-1.77454

>  <SCORE.INTER.ROT>
0

>  <SCORE.INTER.SOLV>
10.365

>  <SCORE.INTER.VDW>
-15.2908

>  <SCORE.INTER.norm>
-2.12263

>  <SCORE.INTRA>
0

>  <SCORE.INTRA.DIHEDRAL>
0

>  <SCORE.INTRA.DIHEDRAL.0>
0

>  <SCORE.INTRA.POLAR>
0

>  <SCORE.INTRA.POLAR.0>
0

>  <SCORE.INTRA.REPUL>
0

>  <SCORE.INTRA.REPUL.0>
0

>  <SCORE.INTRA.SOLV>
0

>  <SCORE.INTRA.SOLV.lig_0>
-13.7928

>  <SCORE.INTRA.VDW>
0

>  <SCORE.INTRA.VDW.0>
0

>  <SCORE.INTRA.norm>
0

>  <SCORE.RESTR>
0

>  <SCORE.RESTR.CAVITY>
0

>  <SCORE.RESTR.norm>
0

>  <SCORE.SYSTEM>
0

>  <SCORE.SYSTEM.CONST>
0

>  <SCORE.SYSTEM.DIHEDRAL>
0

>  <SCORE.SYSTEM.SOLV>
0

>  <SCORE.SYSTEM.norm>
0

>  <SCORE.heavy>
10

>  <SCORE.norm>
-2.12263

>  <RMSD>
2.926

$$$$
1u8d_lig
 OpenBabel11021811413D
libRbt.so/2013.1/901 2013/11/27
 10 11  0  0  0  0  0  0  0  0999 V2000
   11.5062   10.7422    5.9363 N   0  0  0  0  0  0  0  0  0  0  0  0
   10.7114   11.9002    5.9856 C   0  0  0  0  0  0  0  0  0  0  0  0
   10.5816   12.6725    7.0944 N   0  0  0  0  0  0  0  0  0  0  0  0
   11.2992   12.2103    8.1413 C   0  0  0  0  0  0  0  0  0  0  0  0
   12.1759   10.9593    8.1514 C   0  0  0  0  0  0  0  0  0  0  0  0
   12.2754   10.1936    6.9795 C   0  0  0  0  0  0  0  0  0  0  0  0
   12.9142    9.1727    6.7637 O   0  0  0  0  0  0  0  0  0  0  0  0
   12.7108   10.8641    9.4069 N   0  0  0  0  0  0  0  0  0  0  0  0
   12.2481   11.9344   10.1327 C   0  0  0  0  0  0  0  0  0  0  0  0
   11.3976   12.7623    9.4049 N   0  0  0  0  0  0  0  0  0  0  0  0
  1  2  1  0  0  0  0
  1  6  1  0  0  0  0
  2  3  2  0  0  0  0
  3  4  1  0  0  0  0
  4  5  2  0  0  0  0
  4 10  1  0  0  0  0
  5  6  1  0  0  0  0
  5  8  1  0  0  0  0
  6  7  2  0  0  0  0
  8  9  1  0  0  0  0
  9 10  2  0  0  0  0
M  END
>  <CHROM.1>
11.79730070,11.31027048,7.78234183,1.54395021,0.89993757,-2.06308714

>  <Name>
1u8d_lig

>  <RI>
0

>  <Rbt.Current_Directory>
/home/itssahil/PROJECTS/Mol_Feturizer/New_Systems/rnas/1u8d

>  <Rbt.Executable>
rbdock ($Id: //depot/dev/client3/rdock/2013.1/src/exe/rbdock.cxx#4 $)

>  <Rbt.Library>
libRbt.so (2013.1, Build901 2013/11/27)

>  <Rbt.Parameter_File>
/export/apps/rDock/src/rDock_2013.1_src/data/scripts/dock_solv.prm

>  <Rbt.Receptor>
prm/blind_docking_40.prm

>  <SCORE>
-21.2051

>  <SCORE.INTER>
-21.2051

>  <SCORE.INTER.CONST>
1

>  <SCORE.INTER.POLAR>
-1.80239

>  <SCORE.INTER.ROT>
0

>  <SCORE.INTER.SOLV>
10.0534

>  <SCORE.INTER.VDW>
-15.0799

>  <SCORE.INTER.norm>
-2.12051

>  <SCORE.INTRA>
0

>  <SCORE.INTRA.DIHEDRAL>
0

>  <SCORE.INTRA.DIHEDRAL.0>
0

>  <SCORE.INTRA.POLAR>
0

>  <SCORE.INTRA.POLAR.0>
0

>  <SCORE.INTRA.REPUL>
0

>  <SCORE.INTRA.REPUL.0>
0

>  <SCORE.INTRA.SOLV>
0

>  <SCORE.INTRA.SOLV.lig_0>
-13.7928

>  <SCORE.INTRA.VDW>
0

>  <SCORE.INTRA.VDW.0>
0

>  <SCORE.INTRA.norm>
0

>  <SCORE.RESTR>
0

>  <SCORE.RESTR.CAVITY>
0

>  <SCORE.RESTR.norm>
0

>  <SCORE.SYSTEM>
0

>  <SCORE.SYSTEM.CONST>
0

>  <SCORE.SYSTEM.DIHEDRAL>
0

>  <SCORE.SYSTEM.SOLV>
0

>  <SCORE.SYSTEM.norm>
0

>  <SCORE.heavy>
10

>  <SCORE.norm>
-2.12051

>  <RMSD>
2.977

$$$$
1u8d_lig
 OpenBabel11021811413D
libRbt.so/2013.1/901 2013/11/27
 10 11  0  0  0  0  0  0  0  0999 V2000
   11.5042   12.5042    8.8980 N   0  0  0  0  0  0  0  0  0  0  0  0
   12.3677   12.0117    9.8914 C   0  0  0  0  0  0  0  0  0  0  0  0
   12.9176   10.7710    9.8574 N   0  0  0  0  0  0  0  0  0  0  0  0
   12.5481   10.0643    8.7673 C   0  0  0  0  0  0  0  0  0  0  0  0
   11.6121   10.5412    7.6582 C   0  0  0  0  0  0  0  0  0  0  0  0
   11.0680   11.8322    7.7408 C   0  0  0  0  0  0  0  0  0  0  0  0
   10.3116   12.4131    6.9746 O   0  0  0  0  0  0  0  0  0  0  0  0
   11.5108    9.5141    6.7603 N   0  0  0  0  0  0  0  0  0  0  0  0
   12.2978    8.4869    7.2207 C   0  0  0  0  0  0  0  0  0  0  0  0
   12.9343    8.7822    8.4234 N   0  0  0  0  0  0  0  0  0  0  0  0
  1  2  1  0  0  0  0
  1  6  1  0  0  0  0
  2  3  2  0  0  0  0
  3  4  1  0  0  0  0
  4  5  2  0  0  0  0
  4 10  1  0  0  0  0
  5  6  1  0  0  0  0
  5  8  1  0  0  0  0
  6  7  2  0  0  0  0
  8  9  1  0  0  0  0
  9 10  2  0  0  0  0
M  END
>  <CHROM.1>
11.88458763,10.71880735,8.20306619,-2.16282798,0.90042050,-2.51454012

>  <Name>
1u8d_lig

>  <RI>
0

>  <Rbt.Current_Directory>
/home/itssahil/PROJECTS/Mol_Feturizer/New_Systems/rnas/1u8d

>  <Rbt.Executable>
rbdock ($Id: //depot/dev/client3/rdock/2013.1/src/exe/rbdock.cxx#4 $)

>  <Rbt.Library>
libRbt.so (2013.1, Build901 2013/11/27)

>  <Rbt.Parameter_File>
/export/apps/rDock/src/rDock_2013.1_src/data/scripts/dock_solv.prm

>  <Rbt.Receptor>
prm/pocket_docking_5.prm

>  <SCORE>
-18.2831

>  <SCORE.INTER>
-18.2831

>  <SCORE.INTER.CONST>
1

>  <SCORE.INTER.POLAR>
-1.93613

>  <SCORE.INTER.ROT>
0

>  <SCORE.INTER.SOLV>
10.8117

>  <SCORE.INTER.VDW>
-12.9389

>  <SCORE.INTER.norm>
-1.82831

>  <SCORE.INTRA>
0

>  <SCORE.INTRA.DIHEDRAL>
0

>  <SCORE.INTRA.DIHEDRAL.0>
0

>  <SCORE.INTRA.POLAR>
0

>  <SCORE.INTRA.POLAR.0>
0

>  <SCORE.INTRA.REPUL>
0

>  <SCORE.INTRA.REPUL.0>
0

>  <SCORE.INTRA.SOLV>
0

>  <SCORE.INTRA.SOLV.lig_0>
-13.7928

>  <SCORE.INTRA.VDW>
0

>  <SCORE.INTRA.VDW.0>
0

>  <SCORE.INTRA.norm>
0

>  <SCORE.RESTR>
0

>  <SCORE.RESTR.CAVITY>
0

>  <SCORE.RESTR.norm>
0

>  <SCORE.SYSTEM>
0

>  <SCORE.SYSTEM.CONST>
0

>  <SCORE.SYSTEM.DIHEDRAL>
0

>  <SCORE.SYSTEM.SOLV>
0

>  <SCORE.SYSTEM.norm>
0

>  <SCORE.heavy>
10

>  <SCORE.norm>
-1.82831

>  <RMSD>
3.024

$$$$
1u8d_lig
 OpenBabel11021811413D
libRbt.so/2013.1/901 2013/11/27
 10 11  0  0  0  0  0  0  0  0999 V2000
   11.5161   12.5157    8.9047 N   0  0  0  0  0  0  0  0  0  0  0  0
   12.3800   12.0205    9.8963 C   0  0  0  0  0  0  0  0  0  0  0  0
   12.9268   10.7785    9.8609 N   0  0  0  0  0  0  0  0  0  0  0  0
   12.5537   10.0732    8.7710 C   0  0  0  0  0  0  0  0  0  0  0  0
   11.6171   10.5530    7.6636 C   0  0  0  0  0  0  0  0  0  0  0  0
   11.0763   11.8453    7.7478 C   0  0  0  0  0  0  0  0  0  0  0  0
   10.3200   12.4285    6.9831 O   0  0  0  0  0  0  0  0  0  0  0  0
   11.5117    9.5267    6.7654 N   0  0  0  0  0  0  0  0  0  0  0  0
   12.2970    8.4973    7.2240 C   0  0  0  0  0  0  0  0  0  0  0  0
   12.9362    8.7904    8.4257 N   0  0  0  0  0  0  0  0  0  0  0  0
  1  2  1  0  0  0  0
  1  6  1  0  0  0  0
  2  3  2  0  0  0  0
  3  4  1  0  0  0  0
  4  5  2  0  0  0  0
  4 10  1  0  0  0  0
  5  6  1  0  0  0  0
  5  8  1  0  0  0  0
  6  7  2  0  0  0  0
  8  9  1  0  0  0  0
  9 10  2  0  0  0  0
M  END
>  <CHROM.1>
11.89088178,10.72969471,8.20814647,-2.15806300,0.90052751,-2.51776382

>  <Name>
1u8d_lig

>  <RI>
0

>  <Rbt.Current_Directory>
/home/itssahil/PROJECTS/Mol_Feturizer/New_Systems/rnas/1u8d

>  <Rbt.Executable>
rbdock ($Id: //depot/dev/client3/rdock/2013.1/src/exe/rbdock.cxx#4 $)

>  <Rbt.Library>
libRbt.so (2013.1, Build901 2013/11/27)

>  <Rbt.Parameter_File>
/export/apps/rDock/src/rDock_2013.1_src/data/scripts/dock_solv.prm

>  <Rbt.Receptor>
prm/blind_docking_100.prm

>  <SCORE>
-18.2916

>  <SCORE.INTER>
-18.2916

>  <SCORE.INTER.CONST>
1

>  <SCORE.INTER.POLAR>
-1.93632

>  <SCORE.INTER.ROT>
0

>  <SCORE.INTER.SOLV>
10.8204

>  <SCORE.INTER.VDW>
-12.9468

>  <SCORE.INTER.norm>
-1.82916

>  <SCORE.INTRA>
0

>  <SCORE.INTRA.DIHEDRAL>
0

>  <SCORE.INTRA.DIHEDRAL.0>
0

>  <SCORE.INTRA.POLAR>
0

>  <SCORE.INTRA.POLAR.0>
0

>  <SCORE.INTRA.REPUL>
0

>  <SCORE.INTRA.REPUL.0>
0

>  <SCORE.INTRA.SOLV>
0

>  <SCORE.INTRA.SOLV.lig_0>
-13.7928

>  <SCORE.INTRA.VDW>
0

>  <SCORE.INTRA.VDW.0>
0

>  <SCORE.INTRA.norm>
0

>  <SCORE.RESTR>
0

>  <SCORE.RESTR.CAVITY>
0

>  <SCORE.RESTR.norm>
0

>  <SCORE.SYSTEM>
0

>  <SCORE.SYSTEM.CONST>
0

>  <SCORE.SYSTEM.DIHEDRAL>
0

>  <SCORE.SYSTEM.SOLV>
0

>  <SCORE.SYSTEM.norm>
0

>  <SCORE.heavy>
10

>  <SCORE.norm>
-1.82916

>  <RMSD>
3.025

$$$$
1u8d_lig
 OpenBabel11021811413D
libRbt.so/2013.1/901 2013/11/27
 10 11  0  0  0  0  0  0  0  0999 V2000
   11.4287   12.4499    8.7596 N   0  0  0  0  0  0  0  0  0  0  0  0
   12.2713   12.0077    9.7937 C   0  0  0  0  0  0  0  0  0  0  0  0
   12.8443   10.7773    9.8181 N   0  0  0  0  0  0  0  0  0  0  0  0
   12.5198   10.0273    8.7426 C   0  0  0  0  0  0  0  0  0  0  0  0
   11.6084   10.4486    7.5912 C   0  0  0  0  0  0  0  0  0  0  0  0
   11.0390   11.7311    7.6139 C   0  0  0  0  0  0  0  0  0  0  0  0
   10.2950   12.2714    6.8068 O   0  0  0  0  0  0  0  0  0  0  0  0
   11.5522    9.3902    6.7265 N   0  0  0  0  0  0  0  0  0  0  0  0
   12.3437    8.3942    7.2444 C   0  0  0  0  0  0  0  0  0  0  0  0
   12.9390    8.7419    8.4540 N   0  0  0  0  0  0  0  0  0  0  0  0
  1  2  1  0  0  0  0
  1  6  1  0  0  0  0
  2  3  2  0  0  0  0
  3  4  1  0  0  0  0
  4  5  2  0  0  0  0
  4 10  1  0  0  0  0
  5  6  1  0  0  0  0
  5  8  1  0  0  0  0
  6  7  2  0  0  0  0
  8  9  1  0  0  0  0
  9 10  2  0  0  0  0
M  END
>  <CHROM.1>
11.86151799,10.64968017,8.13737186,-2.21500735,0.91303140,-2.50742707

>  <Name>
1u8d_lig

>  <RI>
0

>  <Rbt.Current_Directory>
/home/itssahil/PROJECTS/Mol_Feturizer/New_Systems/rnas/1u8d

>  <Rbt.Executable>
rbdock ($Id: //depot/dev/client3/rdock/2013.1/src/exe/rbdock.cxx#4 $)

>  <Rbt.Library>
libRbt.so (2013.1, Build901 2013/11/27)

>  <Rbt.Parameter_File>
/export/apps/rDock/src/rDock_2013.1_src/data/scripts/dock_solv.prm

>  <Rbt.Receptor>
prm/pocket_docking_7.prm

>  <SCORE>
-18.2767

>  <SCORE.INTER>
-18.2767

>  <SCORE.INTER.CONST>
1

>  <SCORE.INTER.POLAR>
-1.93524

>  <SCORE.INTER.ROT>
0

>  <SCORE.INTER.SOLV>
10.6529

>  <SCORE.INTER.VDW>
-12.8846

>  <SCORE.INTER.norm>
-1.82767

>  <SCORE.INTRA>
0

>  <SCORE.INTRA.DIHEDRAL>
0

>  <SCORE.INTRA.DIHEDRAL.0>
0

>  <SCORE.INTRA.POLAR>
0

>  <SCORE.INTRA.POLAR.0>
0

>  <SCORE.INTRA.REPUL>
0

>  <SCORE.INTRA.REPUL.0>
0

>  <SCORE.INTRA.SOLV>
0

>  <SCORE.INTRA.SOLV.lig_0>
-13.7928

>  <SCORE.INTRA.VDW>
0

>  <SCORE.INTRA.VDW.0>
0

>  <SCORE.INTRA.norm>
0

>  <SCORE.RESTR>
0

>  <SCORE.RESTR.CAVITY>
0

>  <SCORE.RESTR.norm>
0

>  <SCORE.SYSTEM>
0

>  <SCORE.SYSTEM.CONST>
0

>  <SCORE.SYSTEM.DIHEDRAL>
0

>  <SCORE.SYSTEM.SOLV>
0

>  <SCORE.SYSTEM.norm>
0

>  <SCORE.heavy>
10

>  <SCORE.norm>
-1.82767

>  <RMSD>
3.025

$$$$
1u8d_lig
 OpenBabel11021811413D
libRbt.so/2013.1/901 2013/11/27
 10 11  0  0  0  0  0  0  0  0999 V2000
   11.5060   12.5125    8.9347 N   0  0  0  0  0  0  0  0  0  0  0  0
   12.3856   12.0148    9.9112 C   0  0  0  0  0  0  0  0  0  0  0  0
   12.9302   10.7722    9.8649 N   0  0  0  0  0  0  0  0  0  0  0  0
   12.5382   10.0689    8.7804 C   0  0  0  0  0  0  0  0  0  0  0  0
   11.5839   10.5514    7.6894 C   0  0  0  0  0  0  0  0  0  0  0  0
   11.0462   11.8443    7.7844 C   0  0  0  0  0  0  0  0  0  0  0  0
   10.2781   12.4295    7.0332 O   0  0  0  0  0  0  0  0  0  0  0  0
   11.4624    9.5265    6.7915 N   0  0  0  0  0  0  0  0  0  0  0  0
   12.2539    8.4956    7.2356 C   0  0  0  0  0  0  0  0  0  0  0  0
   12.9133    8.7861    8.4270 N   0  0  0  0  0  0  0  0  0  0  0  0
  1  2  1  0  0  0  0
  1  6  1  0  0  0  0
  2  3  2  0  0  0  0
  3  4  1  0  0  0  0
  4  5  2  0  0  0  0
  4 10  1  0  0  0  0
  5  6  1  0  0  0  0
  5  8  1  0  0  0  0
  6  7  2  0  0  0  0
  8  9  1  0  0  0  0
  9 10  2  0  0  0  0
M  END
>  <CHROM.1>
11.86693869,10.72701527,8.22952885,-2.14109110,0.88770996,-2.52956435

>  <Name>
1u8d_lig

>  <RI>
0

>  <Rbt.Current_Directory>
/home/itssahil/PROJECTS/Mol_Feturizer/New_Systems/rnas/1u8d

>  <Rbt.Executable>
rbdock ($Id: //depot/dev/client3/rdock/2013.1/src/exe/rbdock.cxx#4 $)

>  <Rbt.Library>
libRbt.so (2013.1, Build901 2013/11/27)

>  <Rbt.Parameter_File>
/export/apps/rDock/src/rDock_2013.1_src/data/scripts/dock_solv.prm

>  <Rbt.Receptor>
prm/blind_docking_40.prm

>  <SCORE>
-18.2895

>  <SCORE.INTER>
-18.2895

>  <SCORE.INTER.CONST>
1

>  <SCORE.INTER.POLAR>
-1.93565

>  <SCORE.INTER.ROT>
0

>  <SCORE.INTER.SOLV>
10.8835

>  <SCORE.INTER.VDW>
-12.9686

>  <SCORE.INTER.norm>
-1.82895

>  <SCORE.INTRA>
0

>  <SCORE.INTRA.DIHEDRAL>
0

>  <SCORE.INTRA.DIHEDRAL.0>
0

>  <SCORE.INTRA.POLAR>
0

>  <SCORE.INTRA.POLAR.0>
0

>  <SCORE.INTRA.REPUL>
0

>  <SCORE.INTRA.REPUL.0>
0

>  <SCORE.INTRA.SOLV>
0

>  <SCORE.INTRA.SOLV.lig_0>
-13.7928

>  <SCORE.INTRA.VDW>
0

>  <SCORE.INTRA.VDW.0>
0

>  <SCORE.INTRA.norm>
0

>  <SCORE.RESTR>
0

>  <SCORE.RESTR.CAVITY>
0

>  <SCORE.RESTR.norm>
0

>  <SCORE.SYSTEM>
0

>  <SCORE.SYSTEM.CONST>
0

>  <SCORE.SYSTEM.DIHEDRAL>
0

>  <SCORE.SYSTEM.SOLV>
0

>  <SCORE.SYSTEM.norm>
0

>  <SCORE.heavy>
10

>  <SCORE.norm>
-1.82895

>  <RMSD>
3.026

$$$$
1u8d_lig
 OpenBabel11021811413D
libRbt.so/2013.1/901 2013/11/27
 10 11  0  0  0  0  0  0  0  0999 V2000
   11.4622   12.4613    8.8143 N   0  0  0  0  0  0  0  0  0  0  0  0
   12.3200   11.9985    9.8267 C   0  0  0  0  0  0  0  0  0  0  0  0
   12.8795   10.7617    9.8266 N   0  0  0  0  0  0  0  0  0  0  0  0
   12.5255   10.0271    8.7498 C   0  0  0  0  0  0  0  0  0  0  0  0
   11.5965   10.4710    7.6212 C   0  0  0  0  0  0  0  0  0  0  0  0
   11.0420   11.7594    7.6689 C   0  0  0  0  0  0  0  0  0  0  0  0
   10.2885   12.3166    6.8825 O   0  0  0  0  0  0  0  0  0  0  0  0
   11.5114    9.4228    6.7465 N   0  0  0  0  0  0  0  0  0  0  0  0
   12.3017    8.4126    7.2379 C   0  0  0  0  0  0  0  0  0  0  0  0
   12.9246    8.7405    8.4392 N   0  0  0  0  0  0  0  0  0  0  0  0
  1  2  1  0  0  0  0
  1  6  1  0  0  0  0
  2  3  2  0  0  0  0
  3  4  1  0  0  0  0
  4  5  2  0  0  0  0
  4 10  1  0  0  0  0
  5  6  1  0  0  0  0
  5  8  1  0  0  0  0
  6  7  2  0  0  0  0
  8  9  1  0  0  0  0
  9 10  2  0  0  0  0
M  END
>  <CHROM.1>
11.86249006,10.66332524,8.16439186,-2.18158533,0.90357352,-2.52294122

>  <Name>
1u8d_lig

>  <RI>
0

>  <Rbt.Current_Directory>
/home/itssahil/PROJECTS/Mol_Feturizer/New_Systems/rnas/1u8d

>  <Rbt.Executable>
rbdock ($Id: //depot/dev/client3/rdock/2013.1/src/exe/rbdock.cxx#4 $)

>  <Rbt.Library>
libRbt.so (2013.1, Build901 2013/11/27)

>  <Rbt.Parameter_File>
/export/apps/rDock/src/rDock_2013.1_src/data/scripts/dock_solv.prm

>  <Rbt.Receptor>
prm/blind_docking_60.prm

>  <SCORE>
-18.2604

>  <SCORE.INTER>
-18.2604

>  <SCORE.INTER.CONST>
1

>  <SCORE.INTER.POLAR>
-1.93612

>  <SCORE.INTER.ROT>
0

>  <SCORE.INTER.SOLV>
10.7474

>  <SCORE.INTER.VDW>
-12.9023

>  <SCORE.INTER.norm>
-1.82604

>  <SCORE.INTRA>
0

>  <SCORE.INTRA.DIHEDRAL>
0

>  <SCORE.INTRA.DIHEDRAL.0>
0

>  <SCORE.INTRA.POLAR>
0

>  <SCORE.INTRA.POLAR.0>
0

>  <SCORE.INTRA.REPUL>
0

>  <SCORE.INTRA.REPUL.0>
0

>  <SCORE.INTRA.SOLV>
0

>  <SCORE.INTRA.SOLV.lig_0>
-13.7928

>  <SCORE.INTRA.VDW>
0

>  <SCORE.INTRA.VDW.0>
0

>  <SCORE.INTRA.norm>
0

>  <SCORE.RESTR>
0

>  <SCORE.RESTR.CAVITY>
0

>  <SCORE.RESTR.norm>
0

>  <SCORE.SYSTEM>
0

>  <SCORE.SYSTEM.CONST>
0

>  <SCORE.SYSTEM.DIHEDRAL>
0

>  <SCORE.SYSTEM.SOLV>
0

>  <SCORE.SYSTEM.norm>
0

>  <SCORE.heavy>
10

>  <SCORE.norm>
-1.82604

>  <RMSD>
3.026

$$$$
1u8d_lig
 OpenBabel11021811413D
libRbt.so/2013.1/901 2013/11/27
 10 11  0  0  0  0  0  0  0  0999 V2000
   11.5307   12.5385    8.9600 N   0  0  0  0  0  0  0  0  0  0  0  0
   12.3983   12.0284    9.9409 C   0  0  0  0  0  0  0  0  0  0  0  0
   12.9420   10.7858    9.8865 N   0  0  0  0  0  0  0  0  0  0  0  0
   12.5620   10.0957    8.7893 C   0  0  0  0  0  0  0  0  0  0  0  0
   11.6211   10.5920    7.6929 C   0  0  0  0  0  0  0  0  0  0  0  0
   11.0837   11.8843    7.7967 C   0  0  0  0  0  0  0  0  0  0  0  0
   10.3251   12.4791    7.0434 O   0  0  0  0  0  0  0  0  0  0  0  0
   11.5090    9.5778    6.7818 N   0  0  0  0  0  0  0  0  0  0  0  0
   12.2941    8.5408    7.2231 C   0  0  0  0  0  0  0  0  0  0  0  0
   12.9398    8.8166    8.4254 N   0  0  0  0  0  0  0  0  0  0  0  0
  1  2  1  0  0  0  0
  1  6  1  0  0  0  0
  2  3  2  0  0  0  0
  3  4  1  0  0  0  0
  4  5  2  0  0  0  0
  4 10  1  0  0  0  0
  5  6  1  0  0  0  0
  5  8  1  0  0  0  0
  6  7  2  0  0  0  0
  8  9  1  0  0  0  0
  9 10  2  0  0  0  0
M  END
>  <CHROM.1>
11.89795970,10.76094801,8.23836644,-2.15047627,0.89790335,-2.51060305

>  <Name>
1u8d_lig

>  <RI>
0

>  <Rbt.Current_Directory>
/home/itssahil/PROJECTS/Mol_Feturizer/New_Systems/rnas/1u8d

>  <Rbt.Executable>
rbdock ($Id: //depot/dev/client3/rdock/2013.1/src/exe/rbdock.cxx#4 $)

>  <Rbt.Library>
libRbt.so (2013.1, Build901 2013/11/27)

>  <Rbt.Parameter_File>
/export/apps/rDock/src/rDock_2013.1_src/data/scripts/dock_solv.prm

>  <Rbt.Receptor>
prm/blind_docking_80.prm

>  <SCORE>
-18.2646

>  <SCORE.INTER>
-18.2646

>  <SCORE.INTER.CONST>
1

>  <SCORE.INTER.POLAR>
-1.93629

>  <SCORE.INTER.ROT>
0

>  <SCORE.INTER.SOLV>
10.8642

>  <SCORE.INTER.VDW>
-12.9435

>  <SCORE.INTER.norm>
-1.82646

>  <SCORE.INTRA>
0

>  <SCORE.INTRA.DIHEDRAL>
0

>  <SCORE.INTRA.DIHEDRAL.0>
0

>  <SCORE.INTRA.POLAR>
0

>  <SCORE.INTRA.POLAR.0>
0

>  <SCORE.INTRA.REPUL>
0

>  <SCORE.INTRA.REPUL.0>
0

>  <SCORE.INTRA.SOLV>
0

>  <SCORE.INTRA.SOLV.lig_0>
-13.7928

>  <SCORE.INTRA.VDW>
0

>  <SCORE.INTRA.VDW.0>
0

>  <SCORE.INTRA.norm>
0

>  <SCORE.RESTR>
0

>  <SCORE.RESTR.CAVITY>
0

>  <SCORE.RESTR.norm>
0

>  <SCORE.SYSTEM>
0

>  <SCORE.SYSTEM.CONST>
0

>  <SCORE.SYSTEM.DIHEDRAL>
0

>  <SCORE.SYSTEM.SOLV>
0

>  <SCORE.SYSTEM.norm>
0

>  <SCORE.heavy>
10

>  <SCORE.norm>
-1.82646

>  <RMSD>
3.026

$$$$
1u8d_lig
 OpenBabel11021811413D
libRbt.so/2013.1/901 2013/11/27
 10 11  0  0  0  0  0  0  0  0999 V2000
   11.5157   12.5106    8.8846 N   0  0  0  0  0  0  0  0  0  0  0  0
   12.3747   12.0204    9.8829 C   0  0  0  0  0  0  0  0  0  0  0  0
   12.9228   10.7788    9.8555 N   0  0  0  0  0  0  0  0  0  0  0  0
   12.5563   10.0687    8.7665 C   0  0  0  0  0  0  0  0  0  0  0  0
   11.6252   10.5430    7.6521 C   0  0  0  0  0  0  0  0  0  0  0  0
   11.0828   11.8351    7.7281 C   0  0  0  0  0  0  0  0  0  0  0  0
   10.3301   12.4144    6.9569 O   0  0  0  0  0  0  0  0  0  0  0  0
   11.5258    9.5129    6.7575 N   0  0  0  0  0  0  0  0  0  0  0  0
   12.3096    8.4862    7.2247 C   0  0  0  0  0  0  0  0  0  0  0  0
   12.9419    8.7848    8.4286 N   0  0  0  0  0  0  0  0  0  0  0  0
  1  2  1  0  0  0  0
  1  6  1  0  0  0  0
  2  3  2  0  0  0  0
  3  4  1  0  0  0  0
  4  5  2  0  0  0  0
  4 10  1  0  0  0  0
  5  6  1  0  0  0  0
  5  8  1  0  0  0  0
  6  7  2  0  0  0  0
  8  9  1  0  0  0  0
  9 10  2  0  0  0  0
M  END
>  <CHROM.1>
11.89594564,10.72218470,8.19742217,-2.16444549,0.90437529,-2.51684647

>  <Name>
1u8d_lig

>  <RI>
0

>  <Rbt.Current_Directory>
/home/itssahil/PROJECTS/Mol_Feturizer/New_Systems/rnas/1u8d

>  <Rbt.Executable>
rbdock ($Id: //depot/dev/client3/rdock/2013.1/src/exe/rbdock.cxx#4 $)

>  <Rbt.Library>
libRbt.so (2013.1, Build901 2013/11/27)

>  <Rbt.Parameter_File>
/export/apps/rDock/src/rDock_2013.1_src/data/scripts/dock_solv.prm

>  <Rbt.Receptor>
prm/pocket_docking_4.prm

>  <SCORE>
-18.2939

>  <SCORE.INTER>
-18.2939

>  <SCORE.INTER.CONST>
1

>  <SCORE.INTER.POLAR>
-1.93632

>  <SCORE.INTER.ROT>
0

>  <SCORE.INTER.SOLV>
10.7966

>  <SCORE.INTER.VDW>
-12.9404

>  <SCORE.INTER.norm>
-1.82939

>  <SCORE.INTRA>
0

>  <SCORE.INTRA.DIHEDRAL>
0

>  <SCORE.INTRA.DIHEDRAL.0>
0

>  <SCORE.INTRA.POLAR>
0

>  <SCORE.INTRA.POLAR.0>
0

>  <SCORE.INTRA.REPUL>
0

>  <SCORE.INTRA.REPUL.0>
0

>  <SCORE.INTRA.SOLV>
0

>  <SCORE.INTRA.SOLV.lig_0>
-13.7928

>  <SCORE.INTRA.VDW>
0

>  <SCORE.INTRA.VDW.0>
0

>  <SCORE.INTRA.norm>
0

>  <SCORE.RESTR>
0

>  <SCORE.RESTR.CAVITY>
0

>  <SCORE.RESTR.norm>
0

>  <SCORE.SYSTEM>
0

>  <SCORE.SYSTEM.CONST>
0

>  <SCORE.SYSTEM.DIHEDRAL>
0

>  <SCORE.SYSTEM.SOLV>
0

>  <SCORE.SYSTEM.norm>
0

>  <SCORE.heavy>
10

>  <SCORE.norm>
-1.82939

>  <RMSD>
3.026

$$$$
1u8d_lig
 OpenBabel11021811413D
libRbt.so/2013.1/901 2013/11/27
 10 11  0  0  0  0  0  0  0  0999 V2000
   11.5133   12.5115    8.8981 N   0  0  0  0  0  0  0  0  0  0  0  0
   12.3725   12.0186    9.8949 C   0  0  0  0  0  0  0  0  0  0  0  0
   12.9210   10.7773    9.8638 N   0  0  0  0  0  0  0  0  0  0  0  0
   12.5545   10.0702    8.7729 C   0  0  0  0  0  0  0  0  0  0  0  0
   11.6231   10.5475    7.6600 C   0  0  0  0  0  0  0  0  0  0  0  0
   11.0804   11.8392    7.7398 C   0  0  0  0  0  0  0  0  0  0  0  0
   10.3274   12.4205    6.9704 O   0  0  0  0  0  0  0  0  0  0  0  0
   11.5237    9.5199    6.7625 N   0  0  0  0  0  0  0  0  0  0  0  0
   12.3078    8.4921    7.2266 C   0  0  0  0  0  0  0  0  0  0  0  0
   12.9403    8.7874    8.4313 N   0  0  0  0  0  0  0  0  0  0  0  0
  1  2  1  0  0  0  0
  1  6  1  0  0  0  0
  2  3  2  0  0  0  0
  3  4  1  0  0  0  0
  4  5  2  0  0  0  0
  4 10  1  0  0  0  0
  5  6  1  0  0  0  0
  5  8  1  0  0  0  0
  6  7  2  0  0  0  0
  8  9  1  0  0  0  0
  9 10  2  0  0  0  0
M  END
>  <CHROM.1>
11.89385399,10.72516012,8.20577560,-2.16459883,0.90408158,-2.51386669

>  <Name>
1u8d_lig

>  <RI>
0

>  <Rbt.Current_Directory>
/home/itssahil/PROJECTS/Mol_Feturizer/New_Systems/rnas/1u8d

>  <Rbt.Executable>
rbdock ($Id: //depot/dev/client3/rdock/2013.1/src/exe/rbdock.cxx#4 $)

>  <Rbt.Library>
libRbt.so (2013.1, Build901 2013/11/27)

>  <Rbt.Parameter_File>
/export/apps/rDock/src/rDock_2013.1_src/data/scripts/dock_solv.prm

>  <Rbt.Receptor>
prm/pocket_docking_8.prm

>  <SCORE>
-18.2933

>  <SCORE.INTER>
-18.2933

>  <SCORE.INTER.CONST>
1

>  <SCORE.INTER.POLAR>
-1.93632

>  <SCORE.INTER.ROT>
0

>  <SCORE.INTER.SOLV>
10.8056

>  <SCORE.INTER.VDW>
-12.943

>  <SCORE.INTER.norm>
-1.82933

>  <SCORE.INTRA>
0

>  <SCORE.INTRA.DIHEDRAL>
0

>  <SCORE.INTRA.DIHEDRAL.0>
0

>  <SCORE.INTRA.POLAR>
0

>  <SCORE.INTRA.POLAR.0>
0

>  <SCORE.INTRA.REPUL>
0

>  <SCORE.INTRA.REPUL.0>
0

>  <SCORE.INTRA.SOLV>
0

>  <SCORE.INTRA.SOLV.lig_0>
-13.7928

>  <SCORE.INTRA.VDW>
0

>  <SCORE.INTRA.VDW.0>
0

>  <SCORE.INTRA.norm>
0

>  <SCORE.RESTR>
0

>  <SCORE.RESTR.CAVITY>
0

>  <SCORE.RESTR.norm>
0

>  <SCORE.SYSTEM>
0

>  <SCORE.SYSTEM.CONST>
0

>  <SCORE.SYSTEM.DIHEDRAL>
0

>  <SCORE.SYSTEM.SOLV>
0

>  <SCORE.SYSTEM.norm>
0

>  <SCORE.heavy>
10

>  <SCORE.norm>
-1.82933

>  <RMSD>
3.026

$$$$
1u8d_lig
 OpenBabel11021811413D
libRbt.so/2013.1/901 2013/11/27
 10 11  0  0  0  0  0  0  0  0999 V2000
   11.5149   12.5121    8.8885 N   0  0  0  0  0  0  0  0  0  0  0  0
   12.3708   12.0226    9.8899 C   0  0  0  0  0  0  0  0  0  0  0  0
   12.9203   10.7815    9.8642 N   0  0  0  0  0  0  0  0  0  0  0  0
   12.5583   10.0711    8.7739 C   0  0  0  0  0  0  0  0  0  0  0  0
   11.6307   10.5447    7.6563 C   0  0  0  0  0  0  0  0  0  0  0  0
   11.0867   11.8363    7.7305 C   0  0  0  0  0  0  0  0  0  0  0  0
   10.3362   12.4149    6.9567 O   0  0  0  0  0  0  0  0  0  0  0  0
   11.5353    9.5146    6.7613 N   0  0  0  0  0  0  0  0  0  0  0  0
   12.3184    8.4886    7.2311 C   0  0  0  0  0  0  0  0  0  0  0  0
   12.9462    8.7877    8.4373 N   0  0  0  0  0  0  0  0  0  0  0  0
  1  2  1  0  0  0  0
  1  6  1  0  0  0  0
  2  3  2  0  0  0  0
  3  4  1  0  0  0  0
  4  5  2  0  0  0  0
  4 10  1  0  0  0  0
  5  6  1  0  0  0  0
  5  8  1  0  0  0  0
  6  7  2  0  0  0  0
  8  9  1  0  0  0  0
  9 10  2  0  0  0  0
M  END
>  <CHROM.1>
11.89927474,10.72407822,8.20256442,-2.16902966,0.90664669,-2.51315607

>  <Name>
1u8d_lig

>  <RI>
0

>  <Rbt.Current_Directory>
/home/itssahil/PROJECTS/Mol_Feturizer/New_Systems/rnas/1u8d

>  <Rbt.Executable>
rbdock ($Id: //depot/dev/client3/rdock/2013.1/src/exe/rbdock.cxx#4 $)

>  <Rbt.Library>
libRbt.so (2013.1, Build901 2013/11/27)

>  <Rbt.Parameter_File>
/export/apps/rDock/src/rDock_2013.1_src/data/scripts/dock_solv.prm

>  <Rbt.Receptor>
prm/pocket_docking_5.prm

>  <SCORE>
-18.2885

>  <SCORE.INTER>
-18.2885

>  <SCORE.INTER.CONST>
1

>  <SCORE.INTER.POLAR>
-1.93588

>  <SCORE.INTER.ROT>
0

>  <SCORE.INTER.SOLV>
10.7918

>  <SCORE.INTER.VDW>
-12.9366

>  <SCORE.INTER.norm>
-1.82885

>  <SCORE.INTRA>
0

>  <SCORE.INTRA.DIHEDRAL>
0

>  <SCORE.INTRA.DIHEDRAL.0>
0

>  <SCORE.INTRA.POLAR>
0

>  <SCORE.INTRA.POLAR.0>
0

>  <SCORE.INTRA.REPUL>
0

>  <SCORE.INTRA.REPUL.0>
0

>  <SCORE.INTRA.SOLV>
0

>  <SCORE.INTRA.SOLV.lig_0>
-13.7928

>  <SCORE.INTRA.VDW>
0

>  <SCORE.INTRA.VDW.0>
0

>  <SCORE.INTRA.norm>
0

>  <SCORE.RESTR>
0

>  <SCORE.RESTR.CAVITY>
0

>  <SCORE.RESTR.norm>
0

>  <SCORE.SYSTEM>
0

>  <SCORE.SYSTEM.CONST>
0

>  <SCORE.SYSTEM.DIHEDRAL>
0

>  <SCORE.SYSTEM.SOLV>
0

>  <SCORE.SYSTEM.norm>
0

>  <SCORE.heavy>
10

>  <SCORE.norm>
-1.82885

>  <RMSD>
3.027

$$$$
1u8d_lig
 OpenBabel11021811413D
libRbt.so/2013.1/901 2013/11/27
 10 11  0  0  0  0  0  0  0  0999 V2000
   11.4595   12.4639    8.8044 N   0  0  0  0  0  0  0  0  0  0  0  0
   12.3144   12.0060    9.8216 C   0  0  0  0  0  0  0  0  0  0  0  0
   12.8753   10.7699    9.8281 N   0  0  0  0  0  0  0  0  0  0  0  0
   12.5260   10.0307    8.7529 C   0  0  0  0  0  0  0  0  0  0  0  0
   11.6002   10.4692    7.6195 C   0  0  0  0  0  0  0  0  0  0  0  0
   11.0440   11.7570    7.6604 C   0  0  0  0  0  0  0  0  0  0  0  0
   10.2925   12.3103    6.8692 O   0  0  0  0  0  0  0  0  0  0  0  0
   11.5193    9.4174    6.7485 N   0  0  0  0  0  0  0  0  0  0  0  0
   12.3092    8.4101    7.2465 C   0  0  0  0  0  0  0  0  0  0  0  0
   12.9276    8.7434    8.4487 N   0  0  0  0  0  0  0  0  0  0  0  0
  1  2  1  0  0  0  0
  1  6  1  0  0  0  0
  2  3  2  0  0  0  0
  3  4  1  0  0  0  0
  4  5  2  0  0  0  0
  4 10  1  0  0  0  0
  5  6  1  0  0  0  0
  5  8  1  0  0  0  0
  6  7  2  0  0  0  0
  8  9  1  0  0  0  0
  9 10  2  0  0  0  0
M  END
>  <CHROM.1>
11.86414181,10.66385624,8.16283768,-2.18636033,0.90564116,-2.52305130

>  <Name>
1u8d_lig

>  <RI>
0

>  <Rbt.Current_Directory>
/home/itssahil/PROJECTS/Mol_Feturizer/New_Systems/rnas/1u8d

>  <Rbt.Executable>
rbdock ($Id: //depot/dev/client3/rdock/2013.1/src/exe/rbdock.cxx#4 $)

>  <Rbt.Library>
libRbt.so (2013.1, Build901 2013/11/27)

>  <Rbt.Parameter_File>
/export/apps/rDock/src/rDock_2013.1_src/data/scripts/dock_solv.prm

>  <Rbt.Receptor>
prm/pocket_docking_6.prm

>  <SCORE>
-18.2556

>  <SCORE.INTER>
-18.2556

>  <SCORE.INTER.CONST>
1

>  <SCORE.INTER.POLAR>
-1.93608

>  <SCORE.INTER.ROT>
0

>  <SCORE.INTER.SOLV>
10.7345

>  <SCORE.INTER.VDW>
-12.895

>  <SCORE.INTER.norm>
-1.82556

>  <SCORE.INTRA>
0

>  <SCORE.INTRA.DIHEDRAL>
0

>  <SCORE.INTRA.DIHEDRAL.0>
0

>  <SCORE.INTRA.POLAR>
0

>  <SCORE.INTRA.POLAR.0>
0

>  <SCORE.INTRA.REPUL>
0

>  <SCORE.INTRA.REPUL.0>
0

>  <SCORE.INTRA.SOLV>
0

>  <SCORE.INTRA.SOLV.lig_0>
-13.7928

>  <SCORE.INTRA.VDW>
0

>  <SCORE.INTRA.VDW.0>
0

>  <SCORE.INTRA.norm>
0

>  <SCORE.RESTR>
0

>  <SCORE.RESTR.CAVITY>
0

>  <SCORE.RESTR.norm>
0

>  <SCORE.SYSTEM>
0

>  <SCORE.SYSTEM.CONST>
0

>  <SCORE.SYSTEM.DIHEDRAL>
0

>  <SCORE.SYSTEM.SOLV>
0

>  <SCORE.SYSTEM.norm>
0

>  <SCORE.heavy>
10

>  <SCORE.norm>
-1.82556

>  <RMSD>
3.027

$$$$
1u8d_lig
 OpenBabel11021811413D
libRbt.so/2013.1/901 2013/11/27
 10 11  0  0  0  0  0  0  0  0999 V2000
   11.5121   12.5085    8.8823 N   0  0  0  0  0  0  0  0  0  0  0  0
   12.3669   12.0211    9.8857 C   0  0  0  0  0  0  0  0  0  0  0  0
   12.9168   10.7802    9.8631 N   0  0  0  0  0  0  0  0  0  0  0  0
   12.5566   10.0677    8.7736 C   0  0  0  0  0  0  0  0  0  0  0  0
   11.6303   10.5388    7.6539 C   0  0  0  0  0  0  0  0  0  0  0  0
   11.0858   11.8304    7.7249 C   0  0  0  0  0  0  0  0  0  0  0  0
   10.3361   12.4073    6.9491 O   0  0  0  0  0  0  0  0  0  0  0  0
   11.5365    9.5070    6.7606 N   0  0  0  0  0  0  0  0  0  0  0  0
   12.3194    8.4822    7.2334 C   0  0  0  0  0  0  0  0  0  0  0  0
   12.9454    8.7837    8.4399 N   0  0  0  0  0  0  0  0  0  0  0  0
  1  2  1  0  0  0  0
  1  6  1  0  0  0  0
  2  3  2  0  0  0  0
  3  4  1  0  0  0  0
  4  5  2  0  0  0  0
  4 10  1  0  0  0  0
  5  6  1  0  0  0  0
  5  8  1  0  0  0  0
  6  7  2  0  0  0  0
  8  9  1  0  0  0  0
  9 10  2  0  0  0  0
M  END
>  <CHROM.1>
11.89809680,10.71932792,8.20015365,-2.17078785,0.90753347,-2.51362060

>  <Name>
1u8d_lig

>  <RI>
0

>  <Rbt.Current_Directory>
/home/itssahil/PROJECTS/Mol_Feturizer/New_Systems/rnas/1u8d

>  <Rbt.Executable>
rbdock ($Id: //depot/dev/client3/rdock/2013.1/src/exe/rbdock.cxx#4 $)

>  <Rbt.Library>
libRbt.so (2013.1, Build901 2013/11/27)

>  <Rbt.Parameter_File>
/export/apps/rDock/src/rDock_2013.1_src/data/scripts/dock_solv.prm

>  <Rbt.Receptor>
prm/pocket_docking_4.prm

>  <SCORE>
-18.2956

>  <SCORE.INTER>
-18.2956

>  <SCORE.INTER.CONST>
1

>  <SCORE.INTER.POLAR>
-1.93632

>  <SCORE.INTER.ROT>
0

>  <SCORE.INTER.SOLV>
10.7864

>  <SCORE.INTER.VDW>
-12.9381

>  <SCORE.INTER.norm>
-1.82956

>  <SCORE.INTRA>
0

>  <SCORE.INTRA.DIHEDRAL>
0

>  <SCORE.INTRA.DIHEDRAL.0>
0

>  <SCORE.INTRA.POLAR>
0

>  <SCORE.INTRA.POLAR.0>
0

>  <SCORE.INTRA.REPUL>
0

>  <SCORE.INTRA.REPUL.0>
0

>  <SCORE.INTRA.SOLV>
0

>  <SCORE.INTRA.SOLV.lig_0>
-13.7928

>  <SCORE.INTRA.VDW>
0

>  <SCORE.INTRA.VDW.0>
0

>  <SCORE.INTRA.norm>
0

>  <SCORE.RESTR>
0

>  <SCORE.RESTR.CAVITY>
0

>  <SCORE.RESTR.norm>
0

>  <SCORE.SYSTEM>
0

>  <SCORE.SYSTEM.CONST>
0

>  <SCORE.SYSTEM.DIHEDRAL>
0

>  <SCORE.SYSTEM.SOLV>
0

>  <SCORE.SYSTEM.norm>
0

>  <SCORE.heavy>
10

>  <SCORE.norm>
-1.82956

>  <RMSD>
3.028

$$$$
1u8d_lig
 OpenBabel11021811413D
libRbt.so/2013.1/901 2013/11/27
 10 11  0  0  0  0  0  0  0  0999 V2000
   11.3870   12.3968    8.6905 N   0  0  0  0  0  0  0  0  0  0  0  0
   12.2285   11.9791    9.7356 C   0  0  0  0  0  0  0  0  0  0  0  0
   12.8085   10.7527    9.7853 N   0  0  0  0  0  0  0  0  0  0  0  0
   12.4921    9.9806    8.7231 C   0  0  0  0  0  0  0  0  0  0  0  0
   11.5824   10.3748    7.5609 C   0  0  0  0  0  0  0  0  0  0  0  0
   11.0054   11.6541    7.5573 C   0  0  0  0  0  0  0  0  0  0  0  0
   10.2612   12.1746    6.7376 O   0  0  0  0  0  0  0  0  0  0  0  0
   11.5352    9.2998    6.7162 N   0  0  0  0  0  0  0  0  0  0  0  0
   12.3307    8.3185    7.2555 C   0  0  0  0  0  0  0  0  0  0  0  0
   12.9198    8.6925    8.4604 N   0  0  0  0  0  0  0  0  0  0  0  0
  1  2  1  0  0  0  0
  1  6  1  0  0  0  0
  2  3  2  0  0  0  0
  3  4  1  0  0  0  0
  4  5  2  0  0  0  0
  4 10  1  0  0  0  0
  5  6  1  0  0  0  0
  5  8  1  0  0  0  0
  6  7  2  0  0  0  0
  8  9  1  0  0  0  0
  9 10  2  0  0  0  0
M  END
>  <CHROM.1>
11.83235126,10.58760035,8.10397887,-2.22601088,0.91240505,-2.51766804

>  <Name>
1u8d_lig

>  <RI>
0

>  <Rbt.Current_Directory>
/home/itssahil/PROJECTS/Mol_Feturizer/New_Systems/rnas/1u8d

>  <Rbt.Executable>
rbdock ($Id: //depot/dev/client3/rdock/2013.1/src/exe/rbdock.cxx#4 $)

>  <Rbt.Library>
libRbt.so (2013.1, Build901 2013/11/27)

>  <Rbt.Parameter_File>
/export/apps/rDock/src/rDock_2013.1_src/data/scripts/dock_solv.prm

>  <Rbt.Receptor>
prm/blind_docking_100.prm

>  <SCORE>
-18.2749

>  <SCORE.INTER>
-18.2749

>  <SCORE.INTER.CONST>
1

>  <SCORE.INTER.POLAR>
-1.93628

>  <SCORE.INTER.ROT>
0

>  <SCORE.INTER.SOLV>
10.6119

>  <SCORE.INTER.VDW>
-12.8663

>  <SCORE.INTER.norm>
-1.82749

>  <SCORE.INTRA>
0

>  <SCORE.INTRA.DIHEDRAL>
0

>  <SCORE.INTRA.DIHEDRAL.0>
0

>  <SCORE.INTRA.POLAR>
0

>  <SCORE.INTRA.POLAR.0>
0

>  <SCORE.INTRA.REPUL>
0

>  <SCORE.INTRA.REPUL.0>
0

>  <SCORE.INTRA.SOLV>
0

>  <SCORE.INTRA.SOLV.lig_0>
-13.7928

>  <SCORE.INTRA.VDW>
0

>  <SCORE.INTRA.VDW.0>
0

>  <SCORE.INTRA.norm>
0

>  <SCORE.RESTR>
0

>  <SCORE.RESTR.CAVITY>
0

>  <SCORE.RESTR.norm>
0

>  <SCORE.SYSTEM>
0

>  <SCORE.SYSTEM.CONST>
0

>  <SCORE.SYSTEM.DIHEDRAL>
0

>  <SCORE.SYSTEM.SOLV>
0

>  <SCORE.SYSTEM.norm>
0

>  <SCORE.heavy>
10

>  <SCORE.norm>
-1.82749

>  <RMSD>
3.029

$$$$
1u8d_lig
 OpenBabel11021811413D
libRbt.so/2013.1/901 2013/11/27
 10 11  0  0  0  0  0  0  0  0999 V2000
   11.4460   12.4466    8.7354 N   0  0  0  0  0  0  0  0  0  0  0  0
   12.2788   12.0079    9.7790 C   0  0  0  0  0  0  0  0  0  0  0  0
   12.8483   10.7762    9.8149 N   0  0  0  0  0  0  0  0  0  0  0  0
   12.5310   10.0211    8.7409 C   0  0  0  0  0  0  0  0  0  0  0  0
   11.6304   10.4385    7.5796 C   0  0  0  0  0  0  0  0  0  0  0  0
   11.0641   11.7225    7.5904 C   0  0  0  0  0  0  0  0  0  0  0  0
   10.3284   12.2602    6.7741 O   0  0  0  0  0  0  0  0  0  0  0  0
   11.5787    9.3755    6.7201 N   0  0  0  0  0  0  0  0  0  0  0  0
   12.3633    8.3804    7.2501 C   0  0  0  0  0  0  0  0  0  0  0  0
   12.9493    8.7332    8.4628 N   0  0  0  0  0  0  0  0  0  0  0  0
  1  2  1  0  0  0  0
  1  6  1  0  0  0  0
  2  3  2  0  0  0  0
  3  4  1  0  0  0  0
  4  5  2  0  0  0  0
  4 10  1  0  0  0  0
  5  6  1  0  0  0  0
  5  8  1  0  0  0  0
  6  7  2  0  0  0  0
  8  9  1  0  0  0  0
  9 10  2  0  0  0  0
M  END
>  <CHROM.1>
11.87943073,10.64190394,8.12669850,-2.21984287,0.92134915,-2.50905424

>  <Name>
1u8d_lig

>  <RI>
0

>  <Rbt.Current_Directory>
/home/itssahil/PROJECTS/Mol_Feturizer/New_Systems/rnas/1u8d

>  <Rbt.Executable>
rbdock ($Id: //depot/dev/client3/rdock/2013.1/src/exe/rbdock.cxx#4 $)

>  <Rbt.Library>
libRbt.so (2013.1, Build901 2013/11/27)

>  <Rbt.Parameter_File>
/export/apps/rDock/src/rDock_2013.1_src/data/scripts/dock_solv.prm

>  <Rbt.Receptor>
prm/pocket_docking_7.prm

>  <SCORE>
-18.302

>  <SCORE.INTER>
-18.302

>  <SCORE.INTER.CONST>
1

>  <SCORE.INTER.POLAR>
-1.93624

>  <SCORE.INTER.ROT>
0

>  <SCORE.INTER.SOLV>
10.6133

>  <SCORE.INTER.VDW>
-12.885

>  <SCORE.INTER.norm>
-1.8302

>  <SCORE.INTRA>
0

>  <SCORE.INTRA.DIHEDRAL>
0

>  <SCORE.INTRA.DIHEDRAL.0>
0

>  <SCORE.INTRA.POLAR>
0

>  <SCORE.INTRA.POLAR.0>
0

>  <SCORE.INTRA.REPUL>
0

>  <SCORE.INTRA.REPUL.0>
0

>  <SCORE.INTRA.SOLV>
0

>  <SCORE.INTRA.SOLV.lig_0>
-13.7928

>  <SCORE.INTRA.VDW>
0

>  <SCORE.INTRA.VDW.0>
0

>  <SCORE.INTRA.norm>
0

>  <SCORE.RESTR>
0

>  <SCORE.RESTR.CAVITY>
0

>  <SCORE.RESTR.norm>
0

>  <SCORE.SYSTEM>
0

>  <SCORE.SYSTEM.CONST>
0

>  <SCORE.SYSTEM.DIHEDRAL>
0

>  <SCORE.SYSTEM.SOLV>
0

>  <SCORE.SYSTEM.norm>
0

>  <SCORE.heavy>
10

>  <SCORE.norm>
-1.8302

>  <RMSD>
3.029

$$$$
1u8d_lig
 OpenBabel11021811413D
libRbt.so/2013.1/901 2013/11/27
 10 11  0  0  0  0  0  0  0  0999 V2000
   11.3701   12.3907    8.7056 N   0  0  0  0  0  0  0  0  0  0  0  0
   12.2094   11.9731    9.7526 C   0  0  0  0  0  0  0  0  0  0  0  0
   12.7938   10.7488    9.8007 N   0  0  0  0  0  0  0  0  0  0  0  0
   12.4843    9.9787    8.7351 C   0  0  0  0  0  0  0  0  0  0  0  0
   11.5773   10.3729    7.5707 C   0  0  0  0  0  0  0  0  0  0  0  0
   10.9955   11.6500    7.5688 C   0  0  0  0  0  0  0  0  0  0  0  0
   10.2524   12.1701    6.7479 O   0  0  0  0  0  0  0  0  0  0  0  0
   11.5373    9.3003    6.7227 N   0  0  0  0  0  0  0  0  0  0  0  0
   12.3346    8.3204    7.2620 C   0  0  0  0  0  0  0  0  0  0  0  0
   12.9178    8.6930    8.4701 N   0  0  0  0  0  0  0  0  0  0  0  0
  1  2  1  0  0  0  0
  1  6  1  0  0  0  0
  2  3  2  0  0  0  0
  3  4  1  0  0  0  0
  4  5  2  0  0  0  0
  4 10  1  0  0  0  0
  5  6  1  0  0  0  0
  5  8  1  0  0  0  0
  6  7  2  0  0  0  0
  8  9  1  0  0  0  0
  9 10  2  0  0  0  0
M  END
>  <CHROM.1>
11.82450707,10.58503174,8.11535265,-2.23454011,0.91313249,-2.50794876

>  <Name>
1u8d_lig

>  <RI>
0

>  <Rbt.Current_Directory>
/home/itssahil/PROJECTS/Mol_Feturizer/New_Systems/rnas/1u8d

>  <Rbt.Executable>
rbdock ($Id: //depot/dev/client3/rdock/2013.1/src/exe/rbdock.cxx#4 $)

>  <Rbt.Library>
libRbt.so (2013.1, Build901 2013/11/27)

>  <Rbt.Parameter_File>
/export/apps/rDock/src/rDock_2013.1_src/data/scripts/dock_solv.prm

>  <Rbt.Receptor>
prm/blind_docking_80.prm

>  <SCORE>
-18.2964

>  <SCORE.INTER>
-18.2964

>  <SCORE.INTER.CONST>
1

>  <SCORE.INTER.POLAR>
-1.93607

>  <SCORE.INTER.ROT>
0

>  <SCORE.INTER.SOLV>
10.621

>  <SCORE.INTER.VDW>
-12.8844

>  <SCORE.INTER.norm>
-1.82964

>  <SCORE.INTRA>
0

>  <SCORE.INTRA.DIHEDRAL>
0

>  <SCORE.INTRA.DIHEDRAL.0>
0

>  <SCORE.INTRA.POLAR>
0

>  <SCORE.INTRA.POLAR.0>
0

>  <SCORE.INTRA.REPUL>
0

>  <SCORE.INTRA.REPUL.0>
0

>  <SCORE.INTRA.SOLV>
0

>  <SCORE.INTRA.SOLV.lig_0>
-13.7928

>  <SCORE.INTRA.VDW>
0

>  <SCORE.INTRA.VDW.0>
0

>  <SCORE.INTRA.norm>
0

>  <SCORE.RESTR>
0

>  <SCORE.RESTR.CAVITY>
0

>  <SCORE.RESTR.norm>
0

>  <SCORE.SYSTEM>
0

>  <SCORE.SYSTEM.CONST>
0

>  <SCORE.SYSTEM.DIHEDRAL>
0

>  <SCORE.SYSTEM.SOLV>
0

>  <SCORE.SYSTEM.norm>
0

>  <SCORE.heavy>
10

>  <SCORE.norm>
-1.82964

>  <RMSD>
3.030

$$$$
1u8d_lig
 OpenBabel11021811413D
libRbt.so/2013.1/901 2013/11/27
 10 11  0  0  0  0  0  0  0  0999 V2000
   11.2013   12.4499    7.9066 N   0  0  0  0  0  0  0  0  0  0  0  0
   11.2101   12.0419    9.2514 C   0  0  0  0  0  0  0  0  0  0  0  0
   11.7266   10.8589    9.6715 N   0  0  0  0  0  0  0  0  0  0  0  0
   12.2321   10.1198    8.6604 C   0  0  0  0  0  0  0  0  0  0  0  0
   12.2484   10.5053    7.1822 C   0  0  0  0  0  0  0  0  0  0  0  0
   11.7000   11.7390    6.7989 C   0  0  0  0  0  0  0  0  0  0  0  0
   11.6123   12.2452    5.6886 O   0  0  0  0  0  0  0  0  0  0  0  0
   12.8462    9.4728    6.5129 N   0  0  0  0  0  0  0  0  0  0  0  0
   13.1924    8.5251    7.4449 C   0  0  0  0  0  0  0  0  0  0  0  0
   12.8379    8.8799    8.7437 N   0  0  0  0  0  0  0  0  0  0  0  0
  1  2  1  0  0  0  0
  1  6  1  0  0  0  0
  2  3  2  0  0  0  0
  3  4  1  0  0  0  0
  4  5  2  0  0  0  0
  4 10  1  0  0  0  0
  5  6  1  0  0  0  0
  5  8  1  0  0  0  0
  6  7  2  0  0  0  0
  8  9  1  0  0  0  0
  9 10  2  0  0  0  0
M  END
>  <CHROM.1>
12.07291995,10.70822489,7.75732954,2.69826536,1.09911305,-1.29257364

>  <Name>
1u8d_lig

>  <RI>
0

>  <Rbt.Current_Directory>
/home/itssahil/PROJECTS/Mol_Feturizer/New_Systems/rnas/1u8d

>  <Rbt.Executable>
rbdock ($Id: //depot/dev/client3/rdock/2013.1/src/exe/rbdock.cxx#4 $)

>  <Rbt.Library>
libRbt.so (2013.1, Build901 2013/11/27)

>  <Rbt.Parameter_File>
/export/apps/rDock/src/rDock_2013.1_src/data/scripts/dock_solv.prm

>  <Rbt.Receptor>
prm/blind_docking_40.prm

>  <SCORE>
-17.3233

>  <SCORE.INTER>
-17.407

>  <SCORE.INTER.CONST>
1

>  <SCORE.INTER.POLAR>
-1.93614

>  <SCORE.INTER.ROT>
0

>  <SCORE.INTER.SOLV>
10.2609

>  <SCORE.INTER.VDW>
-12.1712

>  <SCORE.INTER.norm>
-1.7407

>  <SCORE.INTRA>
0

>  <SCORE.INTRA.DIHEDRAL>
0

>  <SCORE.INTRA.DIHEDRAL.0>
0

>  <SCORE.INTRA.POLAR>
0

>  <SCORE.INTRA.POLAR.0>
0

>  <SCORE.INTRA.REPUL>
0

>  <SCORE.INTRA.REPUL.0>
0

>  <SCORE.INTRA.SOLV>
0

>  <SCORE.INTRA.SOLV.lig_0>
-13.7928

>  <SCORE.INTRA.VDW>
0

>  <SCORE.INTRA.VDW.0>
0

>  <SCORE.INTRA.norm>
0

>  <SCORE.RESTR>
0.0836849

>  <SCORE.RESTR.CAVITY>
0.0836849

>  <SCORE.RESTR.norm>
0.00836849

>  <SCORE.SYSTEM>
0

>  <SCORE.SYSTEM.CONST>
0

>  <SCORE.SYSTEM.DIHEDRAL>
0

>  <SCORE.SYSTEM.SOLV>
0

>  <SCORE.SYSTEM.norm>
0

>  <SCORE.heavy>
10

>  <SCORE.norm>
-1.73233

>  <RMSD>
3.071

$$$$
1u8d_lig
 OpenBabel11021811413D
libRbt.so/2013.1/901 2013/11/27
 10 11  0  0  0  0  0  0  0  0999 V2000
   11.2672   12.8534    7.4325 N   0  0  0  0  0  0  0  0  0  0  0  0
   10.9203   12.4910    6.1197 C   0  0  0  0  0  0  0  0  0  0  0  0
   10.9607   11.2144    5.6600 N   0  0  0  0  0  0  0  0  0  0  0  0
   11.3667   10.3324    6.5989 C   0  0  0  0  0  0  0  0  0  0  0  0
   11.7604   10.6640    8.0373 C   0  0  0  0  0  0  0  0  0  0  0  0
   11.7033   12.0000    8.4633 C   0  0  0  0  0  0  0  0  0  0  0  0
   11.9643   12.4848    9.5558 O   0  0  0  0  0  0  0  0  0  0  0  0
   12.1066    9.4821    8.6328 N   0  0  0  0  0  0  0  0  0  0  0  0
   11.9475    8.4889    7.6975 C   0  0  0  0  0  0  0  0  0  0  0  0
   11.5058    8.9635    6.4653 N   0  0  0  0  0  0  0  0  0  0  0  0
  1  2  1  0  0  0  0
  1  6  1  0  0  0  0
  2  3  2  0  0  0  0
  3  4  1  0  0  0  0
  4  5  2  0  0  0  0
  4 10  1  0  0  0  0
  5  6  1  0  0  0  0
  5  8  1  0  0  0  0
  6  7  2  0  0  0  0
  8  9  1  0  0  0  0
  9 10  2  0  0  0  0
M  END
>  <CHROM.1>
11.55546893,10.92252996,7.49514743,1.77880198,-1.24840063,0.42485498

>  <Name>
1u8d_lig

>  <RI>
0

>  <Rbt.Current_Directory>
/home/itssahil/PROJECTS/Mol_Feturizer/New_Systems/rnas/1u8d

>  <Rbt.Executable>
rbdock ($Id: //depot/dev/client3/rdock/2013.1/src/exe/rbdock.cxx#4 $)

>  <Rbt.Library>
libRbt.so (2013.1, Build901 2013/11/27)

>  <Rbt.Parameter_File>
/export/apps/rDock/src/rDock_2013.1_src/data/scripts/dock_solv.prm

>  <Rbt.Receptor>
prm/blind_docking_100.prm

>  <SCORE>
-11.9909

>  <SCORE.INTER>
-11.9909

>  <SCORE.INTER.CONST>
1

>  <SCORE.INTER.POLAR>
-1.84807

>  <SCORE.INTER.ROT>
0

>  <SCORE.INTER.SOLV>
10.9355

>  <SCORE.INTER.VDW>
-9.07889

>  <SCORE.INTER.norm>
-1.19909

>  <SCORE.INTRA>
0

>  <SCORE.INTRA.DIHEDRAL>
0

>  <SCORE.INTRA.DIHEDRAL.0>
0

>  <SCORE.INTRA.POLAR>
0

>  <SCORE.INTRA.POLAR.0>
0

>  <SCORE.INTRA.REPUL>
0

>  <SCORE.INTRA.REPUL.0>
0

>  <SCORE.INTRA.SOLV>
0

>  <SCORE.INTRA.SOLV.lig_0>
-13.7928

>  <SCORE.INTRA.VDW>
0

>  <SCORE.INTRA.VDW.0>
0

>  <SCORE.INTRA.norm>
0

>  <SCORE.RESTR>
0

>  <SCORE.RESTR.CAVITY>
0

>  <SCORE.RESTR.norm>
0

>  <SCORE.SYSTEM>
0

>  <SCORE.SYSTEM.CONST>
0

>  <SCORE.SYSTEM.DIHEDRAL>
0

>  <SCORE.SYSTEM.SOLV>
0

>  <SCORE.SYSTEM.norm>
0

>  <SCORE.heavy>
10

>  <SCORE.norm>
-1.19909

>  <RMSD>
3.131

$$$$
1u8d_lig
 OpenBabel11021811413D
libRbt.so/2013.1/901 2013/11/27
 10 11  0  0  0  0  0  0  0  0999 V2000
   10.7268   12.3711    7.5522 N   0  0  0  0  0  0  0  0  0  0  0  0
   10.9348   12.1107    6.1870 C   0  0  0  0  0  0  0  0  0  0  0  0
   11.6805   11.0736    5.7277 N   0  0  0  0  0  0  0  0  0  0  0  0
   12.1972   10.3195    6.7221 C   0  0  0  0  0  0  0  0  0  0  0  0
   12.0115   10.5529    8.2204 C   0  0  0  0  0  0  0  0  0  0  0  0
   11.2324   11.6406    8.6440 C   0  0  0  0  0  0  0  0  0  0  0  0
   10.9505   12.0072    9.7767 O   0  0  0  0  0  0  0  0  0  0  0  0
   12.7044    9.5629    8.8615 N   0  0  0  0  0  0  0  0  0  0  0  0
   13.2696    8.7659    7.8962 C   0  0  0  0  0  0  0  0  0  0  0  0
   12.9868    9.1912    6.6010 N   0  0  0  0  0  0  0  0  0  0  0  0
  1  2  1  0  0  0  0
  1  6  1  0  0  0  0
  2  3  2  0  0  0  0
  3  4  1  0  0  0  0
  4  5  2  0  0  0  0
  4 10  1  0  0  0  0
  5  6  1  0  0  0  0
  5  8  1  0  0  0  0
  6  7  2  0  0  0  0
  8  9  1  0  0  0  0
  9 10  2  0  0  0  0
M  END
>  <CHROM.1>
11.85486616,10.77935622,7.64858412,2.93734556,-0.95515084,1.59221967

>  <Name>
1u8d_lig

>  <RI>
0

>  <Rbt.Current_Directory>
/home/itssahil/PROJECTS/Mol_Feturizer/New_Systems/rnas/1u8d

>  <Rbt.Executable>
rbdock ($Id: //depot/dev/client3/rdock/2013.1/src/exe/rbdock.cxx#4 $)

>  <Rbt.Library>
libRbt.so (2013.1, Build901 2013/11/27)

>  <Rbt.Parameter_File>
/export/apps/rDock/src/rDock_2013.1_src/data/scripts/dock_solv.prm

>  <Rbt.Receptor>
prm/blind_docking_80.prm

>  <SCORE>
-15.4351

>  <SCORE.INTER>
-15.4351

>  <SCORE.INTER.CONST>
1

>  <SCORE.INTER.POLAR>
-1.72024

>  <SCORE.INTER.ROT>
0

>  <SCORE.INTER.SOLV>
10.2998

>  <SCORE.INTER.VDW>
-11.5892

>  <SCORE.INTER.norm>
-1.54351

>  <SCORE.INTRA>
0

>  <SCORE.INTRA.DIHEDRAL>
0

>  <SCORE.INTRA.DIHEDRAL.0>
0

>  <SCORE.INTRA.POLAR>
0

>  <SCORE.INTRA.POLAR.0>
0

>  <SCORE.INTRA.REPUL>
0

>  <SCORE.INTRA.REPUL.0>
0

>  <SCORE.INTRA.SOLV>
0

>  <SCORE.INTRA.SOLV.lig_0>
-13.7928

>  <SCORE.INTRA.VDW>
0

>  <SCORE.INTRA.VDW.0>
0

>  <SCORE.INTRA.norm>
0

>  <SCORE.RESTR>
0

>  <SCORE.RESTR.CAVITY>
0

>  <SCORE.RESTR.norm>
0

>  <SCORE.SYSTEM>
0

>  <SCORE.SYSTEM.CONST>
0

>  <SCORE.SYSTEM.DIHEDRAL>
0

>  <SCORE.SYSTEM.SOLV>
0

>  <SCORE.SYSTEM.norm>
0

>  <SCORE.heavy>
10

>  <SCORE.norm>
-1.54351

>  <RMSD>
3.263

$$$$
1u8d_lig
 OpenBabel11021811413D
libRbt.so/2013.1/901 2013/11/27
 10 11  0  0  0  0  0  0  0  0999 V2000
   11.6315   12.7616    7.0336 N   0  0  0  0  0  0  0  0  0  0  0  0
   10.9684   11.9778    7.9933 C   0  0  0  0  0  0  0  0  0  0  0  0
    9.6763   11.5797    7.8717 N   0  0  0  0  0  0  0  0  0  0  0  0
    9.0995   12.0151    6.7306 C   0  0  0  0  0  0  0  0  0  0  0  0
    9.7642   12.8710    5.6538 C   0  0  0  0  0  0  0  0  0  0  0  0
   11.1020   13.2580    5.8276 C   0  0  0  0  0  0  0  0  0  0  0  0
   11.8233   13.9282    5.1016 O   0  0  0  0  0  0  0  0  0  0  0  0
    8.8242   13.0811    4.6825 N   0  0  0  0  0  0  0  0  0  0  0  0
    7.6793   12.4294    5.0711 C   0  0  0  0  0  0  0  0  0  0  0  0
    7.8084   11.7799    6.2958 N   0  0  0  0  0  0  0  0  0  0  0  0
  1  2  1  0  0  0  0
  1  6  1  0  0  0  0
  2  3  2  0  0  0  0
  3  4  1  0  0  0  0
  4  5  2  0  0  0  0
  4 10  1  0  0  0  0
  5  6  1  0  0  0  0
  5  8  1  0  0  0  0
  6  7  2  0  0  0  0
  8  9  1  0  0  0  0
  9 10  2  0  0  0  0
M  END
>  <CHROM.1>
9.86805901,12.58722009,6.21186725,0.05658437,0.30776548,2.08696952

>  <Name>
1u8d_lig

>  <RI>
0

>  <Rbt.Current_Directory>
/home/itssahil/PROJECTS/Mol_Feturizer/New_Systems/rnas/1u8d

>  <Rbt.Executable>
rbdock ($Id: //depot/dev/client3/rdock/2013.1/src/exe/rbdock.cxx#4 $)

>  <Rbt.Library>
libRbt.so (2013.1, Build901 2013/11/27)

>  <Rbt.Parameter_File>
/export/apps/rDock/src/rDock_2013.1_src/data/scripts/dock_solv.prm

>  <Rbt.Receptor>
prm/pocket_docking_7.prm

>  <SCORE>
69.7992

>  <SCORE.INTER>
69.5545

>  <SCORE.INTER.CONST>
1

>  <SCORE.INTER.POLAR>
-0.231898

>  <SCORE.INTER.ROT>
0

>  <SCORE.INTER.SOLV>
14.3201

>  <SCORE.INTER.VDW>
38.7693

>  <SCORE.INTER.norm>
6.95545

>  <SCORE.INTRA>
0

>  <SCORE.INTRA.DIHEDRAL>
0

>  <SCORE.INTRA.DIHEDRAL.0>
0

>  <SCORE.INTRA.POLAR>
0

>  <SCORE.INTRA.POLAR.0>
0

>  <SCORE.INTRA.REPUL>
0

>  <SCORE.INTRA.REPUL.0>
0

>  <SCORE.INTRA.SOLV>
0

>  <SCORE.INTRA.SOLV.lig_0>
-13.7928

>  <SCORE.INTRA.VDW>
0

>  <SCORE.INTRA.VDW.0>
0

>  <SCORE.INTRA.norm>
0

>  <SCORE.RESTR>
0.244685

>  <SCORE.RESTR.CAVITY>
0.244685

>  <SCORE.RESTR.norm>
0.0244685

>  <SCORE.SYSTEM>
0

>  <SCORE.SYSTEM.CONST>
0

>  <SCORE.SYSTEM.DIHEDRAL>
0

>  <SCORE.SYSTEM.SOLV>
0

>  <SCORE.SYSTEM.norm>
0

>  <SCORE.heavy>
10

>  <SCORE.norm>
6.97992

>  <RMSD>
3.391

$$$$
1u8d_lig
 OpenBabel11021811413D
libRbt.so/2013.1/901 2013/11/27
 10 11  0  0  0  0  0  0  0  0999 V2000
   11.5248    9.3516    6.3521 N   0  0  0  0  0  0  0  0  0  0  0  0
   12.1203    8.5480    7.3394 C   0  0  0  0  0  0  0  0  0  0  0  0
   12.3758    8.9783    8.6012 N   0  0  0  0  0  0  0  0  0  0  0  0
   11.9946   10.2579    8.8053 C   0  0  0  0  0  0  0  0  0  0  0  0
   11.3482   11.1816    7.7743 C   0  0  0  0  0  0  0  0  0  0  0  0
   11.1065   10.6892    6.4825 C   0  0  0  0  0  0  0  0  0  0  0  0
   10.6021   11.2435    5.5155 O   0  0  0  0  0  0  0  0  0  0  0  0
   11.1327   12.3791    8.3994 N   0  0  0  0  0  0  0  0  0  0  0  0
   11.5755   12.2524    9.6934 C   0  0  0  0  0  0  0  0  0  0  0  0
   12.0999   10.9930    9.9714 N   0  0  0  0  0  0  0  0  0  0  0  0
  1  2  1  0  0  0  0
  1  6  1  0  0  0  0
  2  3  2  0  0  0  0
  3  4  1  0  0  0  0
  4  5  2  0  0  0  0
  4 10  1  0  0  0  0
  5  6  1  0  0  0  0
  5  8  1  0  0  0  0
  6  7  2  0  0  0  0
  8  9  1  0  0  0  0
  9 10  2  0  0  0  0
M  END
>  <CHROM.1>
11.57424954,10.59451134,7.85815612,-1.89785323,-1.13098380,0.83085147

>  <Name>
1u8d_lig

>  <RI>
0

>  <Rbt.Current_Directory>
/home/itssahil/PROJECTS/Mol_Feturizer/New_Systems/rnas/1u8d

>  <Rbt.Executable>
rbdock ($Id: //depot/dev/client3/rdock/2013.1/src/exe/rbdock.cxx#4 $)

>  <Rbt.Library>
libRbt.so (2013.1, Build901 2013/11/27)

>  <Rbt.Parameter_File>
/export/apps/rDock/src/rDock_2013.1_src/data/scripts/dock_solv.prm

>  <Rbt.Receptor>
prm/blind_docking_20.prm

>  <SCORE>
-15.0326

>  <SCORE.INTER>
-15.2064

>  <SCORE.INTER.CONST>
1

>  <SCORE.INTER.POLAR>
-1.93632

>  <SCORE.INTER.ROT>
0

>  <SCORE.INTER.SOLV>
10.9473

>  <SCORE.INTER.VDW>
-10.9323

>  <SCORE.INTER.norm>
-1.52064

>  <SCORE.INTRA>
0

>  <SCORE.INTRA.DIHEDRAL>
0

>  <SCORE.INTRA.DIHEDRAL.0>
0

>  <SCORE.INTRA.POLAR>
0

>  <SCORE.INTRA.POLAR.0>
0

>  <SCORE.INTRA.REPUL>
0

>  <SCORE.INTRA.REPUL.0>
0

>  <SCORE.INTRA.SOLV>
0

>  <SCORE.INTRA.SOLV.lig_0>
-13.7928

>  <SCORE.INTRA.VDW>
0

>  <SCORE.INTRA.VDW.0>
0

>  <SCORE.INTRA.norm>
0

>  <SCORE.RESTR>
0.173765

>  <SCORE.RESTR.CAVITY>
0.173765

>  <SCORE.RESTR.norm>
0.0173765

>  <SCORE.SYSTEM>
0

>  <SCORE.SYSTEM.CONST>
0

>  <SCORE.SYSTEM.DIHEDRAL>
0

>  <SCORE.SYSTEM.SOLV>
0

>  <SCORE.SYSTEM.norm>
0

>  <SCORE.heavy>
10

>  <SCORE.norm>
-1.50326

>  <RMSD>
3.542

$$$$
1u8d_lig
 OpenBabel11021811413D
libRbt.so/2013.1/901 2013/11/27
 10 11  0  0  0  0  0  0  0  0999 V2000
   11.6423    9.6763    6.5129 N   0  0  0  0  0  0  0  0  0  0  0  0
   12.4960    8.8561    7.2702 C   0  0  0  0  0  0  0  0  0  0  0  0
   12.9838    9.2052    8.4878 N   0  0  0  0  0  0  0  0  0  0  0  0
   12.5591   10.4218    8.8928 C   0  0  0  0  0  0  0  0  0  0  0  0
   11.6374   11.3599    8.1155 C   0  0  0  0  0  0  0  0  0  0  0  0
   11.1612   10.9528    6.8596 C   0  0  0  0  0  0  0  0  0  0  0  0
   10.4196   11.5328    6.0783 O   0  0  0  0  0  0  0  0  0  0  0  0
   11.4709   12.4768    8.8876 N   0  0  0  0  0  0  0  0  0  0  0  0
   12.1905   12.2887   10.0423 C   0  0  0  0  0  0  0  0  0  0  0  0
   12.8569   11.0668   10.0788 N   0  0  0  0  0  0  0  0  0  0  0  0
  1  2  1  0  0  0  0
  1  6  1  0  0  0  0
  2  3  2  0  0  0  0
  3  4  1  0  0  0  0
  4  5  2  0  0  0  0
  4 10  1  0  0  0  0
  5  6  1  0  0  0  0
  5  8  1  0  0  0  0
  6  7  2  0  0  0  0
  8  9  1  0  0  0  0
  9 10  2  0  0  0  0
M  END
>  <CHROM.1>
11.92018717,10.79227170,8.09176462,-2.07641586,-0.91912166,0.76876867

>  <Name>
1u8d_lig

>  <RI>
0

>  <Rbt.Current_Directory>
/home/itssahil/PROJECTS/Mol_Feturizer/New_Systems/rnas/1u8d

>  <Rbt.Executable>
rbdock ($Id: //depot/dev/client3/rdock/2013.1/src/exe/rbdock.cxx#4 $)

>  <Rbt.Library>
libRbt.so (2013.1, Build901 2013/11/27)

>  <Rbt.Parameter_File>
/export/apps/rDock/src/rDock_2013.1_src/data/scripts/dock_solv.prm

>  <Rbt.Receptor>
prm/blind_docking_100.prm

>  <SCORE>
-18.8352

>  <SCORE.INTER>
-18.8352

>  <SCORE.INTER.CONST>
1

>  <SCORE.INTER.POLAR>
-1.99071

>  <SCORE.INTER.ROT>
0

>  <SCORE.INTER.SOLV>
9.96322

>  <SCORE.INTER.VDW>
-12.8422

>  <SCORE.INTER.norm>
-1.88352

>  <SCORE.INTRA>
0

>  <SCORE.INTRA.DIHEDRAL>
0

>  <SCORE.INTRA.DIHEDRAL.0>
0

>  <SCORE.INTRA.POLAR>
0

>  <SCORE.INTRA.POLAR.0>
0

>  <SCORE.INTRA.REPUL>
0

>  <SCORE.INTRA.REPUL.0>
0

>  <SCORE.INTRA.SOLV>
0

>  <SCORE.INTRA.SOLV.lig_0>
-13.7928

>  <SCORE.INTRA.VDW>
0

>  <SCORE.INTRA.VDW.0>
0

>  <SCORE.INTRA.norm>
0

>  <SCORE.RESTR>
0

>  <SCORE.RESTR.CAVITY>
0

>  <SCORE.RESTR.norm>
0

>  <SCORE.SYSTEM>
0

>  <SCORE.SYSTEM.CONST>
0

>  <SCORE.SYSTEM.DIHEDRAL>
0

>  <SCORE.SYSTEM.SOLV>
0

>  <SCORE.SYSTEM.norm>
0

>  <SCORE.heavy>
10

>  <SCORE.norm>
-1.88352

>  <RMSD>
3.676

$$$$
1u8d_lig
 OpenBabel11021811413D
libRbt.so/2013.1/901 2013/11/27
 10 11  0  0  0  0  0  0  0  0999 V2000
    9.9937   11.6394    4.7390 N   0  0  0  0  0  0  0  0  0  0  0  0
   11.1442   10.8548    4.5501 C   0  0  0  0  0  0  0  0  0  0  0  0
   11.9748   10.4888    5.5595 N   0  0  0  0  0  0  0  0  0  0  0  0
   11.5754   10.9567    6.7619 C   0  0  0  0  0  0  0  0  0  0  0  0
   10.3407   11.8153    7.0305 C   0  0  0  0  0  0  0  0  0  0  0  0
    9.5147   12.1684    5.9522 C   0  0  0  0  0  0  0  0  0  0  0  0
    8.4884   12.8342    5.9379 O   0  0  0  0  0  0  0  0  0  0  0  0
   10.3193   12.0637    8.3756 N   0  0  0  0  0  0  0  0  0  0  0  0
   11.4071   11.4319    8.9272 C   0  0  0  0  0  0  0  0  0  0  0  0
   12.1834   10.7588    7.9876 N   0  0  0  0  0  0  0  0  0  0  0  0
  1  2  1  0  0  0  0
  1  6  1  0  0  0  0
  2  3  2  0  0  0  0
  3  4  1  0  0  0  0
  4  5  2  0  0  0  0
  4 10  1  0  0  0  0
  5  6  1  0  0  0  0
  5  8  1  0  0  0  0
  6  7  2  0  0  0  0
  8  9  1  0  0  0  0
  9 10  2  0  0  0  0
M  END
>  <CHROM.1>
10.66253172,11.51977987,6.57029990,-2.26079277,-0.57416582,1.40013144

>  <Name>
1u8d_lig

>  <RI>
0

>  <Rbt.Current_Directory>
/home/itssahil/PROJECTS/Mol_Feturizer/New_Systems/rnas/1u8d

>  <Rbt.Executable>
rbdock ($Id: //depot/dev/client3/rdock/2013.1/src/exe/rbdock.cxx#4 $)

>  <Rbt.Library>
libRbt.so (2013.1, Build901 2013/11/27)

>  <Rbt.Parameter_File>
/export/apps/rDock/src/rDock_2013.1_src/data/scripts/dock_solv.prm

>  <Rbt.Receptor>
prm/blind_docking_80.prm

>  <SCORE>
-18.4153

>  <SCORE.INTER>
-18.4153

>  <SCORE.INTER.CONST>
1

>  <SCORE.INTER.POLAR>
-2.09181

>  <SCORE.INTER.ROT>
0

>  <SCORE.INTER.SOLV>
11.4019

>  <SCORE.INTER.VDW>
-12.7048

>  <SCORE.INTER.norm>
-1.84153

>  <SCORE.INTRA>
0

>  <SCORE.INTRA.DIHEDRAL>
0

>  <SCORE.INTRA.DIHEDRAL.0>
0

>  <SCORE.INTRA.POLAR>
0

>  <SCORE.INTRA.POLAR.0>
0

>  <SCORE.INTRA.REPUL>
0

>  <SCORE.INTRA.REPUL.0>
0

>  <SCORE.INTRA.SOLV>
0

>  <SCORE.INTRA.SOLV.lig_0>
-13.7928

>  <SCORE.INTRA.VDW>
0

>  <SCORE.INTRA.VDW.0>
0

>  <SCORE.INTRA.norm>
0

>  <SCORE.RESTR>
0

>  <SCORE.RESTR.CAVITY>
0

>  <SCORE.RESTR.norm>
0

>  <SCORE.SYSTEM>
0

>  <SCORE.SYSTEM.CONST>
0

>  <SCORE.SYSTEM.DIHEDRAL>
0

>  <SCORE.SYSTEM.SOLV>
0

>  <SCORE.SYSTEM.norm>
0

>  <SCORE.heavy>
10

>  <SCORE.norm>
-1.84153

>  <RMSD>
3.948

$$$$
1u8d_lig
 OpenBabel11021811413D
libRbt.so/2013.1/901 2013/11/27
 10 11  0  0  0  0  0  0  0  0999 V2000
   11.0197   11.8619    4.6217 N   0  0  0  0  0  0  0  0  0  0  0  0
   10.9417   10.4634    4.7357 C   0  0  0  0  0  0  0  0  0  0  0  0
   11.0627    9.8003    5.9140 N   0  0  0  0  0  0  0  0  0  0  0  0
   11.2631   10.6281    6.9623 C   0  0  0  0  0  0  0  0  0  0  0  0
   11.3614   12.1515    6.9025 C   0  0  0  0  0  0  0  0  0  0  0  0
   11.2312   12.7893    5.6592 C   0  0  0  0  0  0  0  0  0  0  0  0
   11.2707   13.9805    5.3828 O   0  0  0  0  0  0  0  0  0  0  0  0
   11.5698   12.5829    8.1838 N   0  0  0  0  0  0  0  0  0  0  0  0
   11.5939   11.4726    8.9921 C   0  0  0  0  0  0  0  0  0  0  0  0
   11.4141   10.2824    8.2923 N   0  0  0  0  0  0  0  0  0  0  0  0
  1  2  1  0  0  0  0
  1  6  1  0  0  0  0
  2  3  2  0  0  0  0
  3  4  1  0  0  0  0
  4  5  2  0  0  0  0
  4 10  1  0  0  0  0
  5  6  1  0  0  0  0
  5  8  1  0  0  0  0
  6  7  2  0  0  0  0
  8  9  1  0  0  0  0
  9 10  2  0  0  0  0
M  END
>  <CHROM.1>
11.27232904,11.63461152,6.54518861,2.29463615,-1.41790642,-0.46375336

>  <Name>
1u8d_lig

>  <RI>
0

>  <Rbt.Current_Directory>
/home/itssahil/PROJECTS/Mol_Feturizer/New_Systems/rnas/1u8d

>  <Rbt.Executable>
rbdock ($Id: //depot/dev/client3/rdock/2013.1/src/exe/rbdock.cxx#4 $)

>  <Rbt.Library>
libRbt.so (2013.1, Build901 2013/11/27)

>  <Rbt.Parameter_File>
/export/apps/rDock/src/rDock_2013.1_src/data/scripts/dock_solv.prm

>  <Rbt.Receptor>
prm/blind_docking_60.prm

>  <SCORE>
-13.758

>  <SCORE.INTER>
-13.758

>  <SCORE.INTER.CONST>
1

>  <SCORE.INTER.POLAR>
-1.06711

>  <SCORE.INTER.ROT>
0

>  <SCORE.INTER.SOLV>
13.1854

>  <SCORE.INTER.VDW>
-13.6102

>  <SCORE.INTER.norm>
-1.3758

>  <SCORE.INTRA>
0

>  <SCORE.INTRA.DIHEDRAL>
0

>  <SCORE.INTRA.DIHEDRAL.0>
0

>  <SCORE.INTRA.POLAR>
0

>  <SCORE.INTRA.POLAR.0>
0

>  <SCORE.INTRA.REPUL>
0

>  <SCORE.INTRA.REPUL.0>
0

>  <SCORE.INTRA.SOLV>
0

>  <SCORE.INTRA.SOLV.lig_0>
-13.7928

>  <SCORE.INTRA.VDW>
0

>  <SCORE.INTRA.VDW.0>
0

>  <SCORE.INTRA.norm>
0

>  <SCORE.RESTR>
0

>  <SCORE.RESTR.CAVITY>
0

>  <SCORE.RESTR.norm>
0

>  <SCORE.SYSTEM>
0

>  <SCORE.SYSTEM.CONST>
0

>  <SCORE.SYSTEM.DIHEDRAL>
0

>  <SCORE.SYSTEM.SOLV>
0

>  <SCORE.SYSTEM.norm>
0

>  <SCORE.heavy>
10

>  <SCORE.norm>
-1.3758

>  <RMSD>
3.959

$$$$
1u8d_lig
 OpenBabel11021811413D
libRbt.so/2013.1/901 2013/11/27
 10 11  0  0  0  0  0  0  0  0999 V2000
   12.2432    8.5762    7.8151 N   0  0  0  0  0  0  0  0  0  0  0  0
   12.7914    9.8270    8.1471 C   0  0  0  0  0  0  0  0  0  0  0  0
   14.0479   10.2088    7.8034 N   0  0  0  0  0  0  0  0  0  0  0  0
   14.7114    9.2602    7.1074 C   0  0  0  0  0  0  0  0  0  0  0  0
   14.1733    7.8838    6.7205 C   0  0  0  0  0  0  0  0  0  0  0  0
   12.8680    7.5363    7.1014 C   0  0  0  0  0  0  0  0  0  0  0  0
   12.2415    6.5055    6.8972 O   0  0  0  0  0  0  0  0  0  0  0  0
   15.1709    7.2511    6.0308 N   0  0  0  0  0  0  0  0  0  0  0  0
   16.2357    8.1160    5.9630 C   0  0  0  0  0  0  0  0  0  0  0  0
   15.9952    9.3307    6.5996 N   0  0  0  0  0  0  0  0  0  0  0  0
  1  2  1  0  0  0  0
  1  6  1  0  0  0  0
  2  3  2  0  0  0  0
  3  4  1  0  0  0  0
  4  5  2  0  0  0  0
  4 10  1  0  0  0  0
  5  6  1  0  0  0  0
  5  8  1  0  0  0  0
  6  7  2  0  0  0  0
  8  9  1  0  0  0  0
  9 10  2  0  0  0  0
M  END
>  <CHROM.1>
14.01994496,8.42292587,7.01806819,3.11003510,-0.36047991,-2.72400270

>  <Name>
1u8d_lig

>  <RI>
0

>  <Rbt.Current_Directory>
/home/itssahil/PROJECTS/Mol_Feturizer/New_Systems/rnas/1u8d

>  <Rbt.Executable>
rbdock ($Id: //depot/dev/client3/rdock/2013.1/src/exe/rbdock.cxx#4 $)

>  <Rbt.Library>
libRbt.so (2013.1, Build901 2013/11/27)

>  <Rbt.Parameter_File>
/export/apps/rDock/src/rDock_2013.1_src/data/scripts/dock_solv.prm

>  <Rbt.Receptor>
prm/blind_docking_40.prm

>  <SCORE>
-13.6242

>  <SCORE.INTER>
-13.6242

>  <SCORE.INTER.CONST>
1

>  <SCORE.INTER.POLAR>
-0.964088

>  <SCORE.INTER.ROT>
0

>  <SCORE.INTER.SOLV>
9.6017

>  <SCORE.INTER.VDW>
-12.6697

>  <SCORE.INTER.norm>
-1.36242

>  <SCORE.INTRA>
0

>  <SCORE.INTRA.DIHEDRAL>
0

>  <SCORE.INTRA.DIHEDRAL.0>
0

>  <SCORE.INTRA.POLAR>
0

>  <SCORE.INTRA.POLAR.0>
0

>  <SCORE.INTRA.REPUL>
0

>  <SCORE.INTRA.REPUL.0>
0

>  <SCORE.INTRA.SOLV>
0

>  <SCORE.INTRA.SOLV.lig_0>
-13.7928

>  <SCORE.INTRA.VDW>
0

>  <SCORE.INTRA.VDW.0>
0

>  <SCORE.INTRA.norm>
0

>  <SCORE.RESTR>
0

>  <SCORE.RESTR.CAVITY>
0

>  <SCORE.RESTR.norm>
0

>  <SCORE.SYSTEM>
0

>  <SCORE.SYSTEM.CONST>
0

>  <SCORE.SYSTEM.DIHEDRAL>
0

>  <SCORE.SYSTEM.SOLV>
0

>  <SCORE.SYSTEM.norm>
0

>  <SCORE.heavy>
10

>  <SCORE.norm>
-1.36242

>  <RMSD>
4.357

$$$$
1u8d_lig
 OpenBabel11021811413D
libRbt.so/2013.1/901 2013/11/27
 10 11  0  0  0  0  0  0  0  0999 V2000
   12.2723    8.4808    7.7865 N   0  0  0  0  0  0  0  0  0  0  0  0
   12.7917    9.7423    8.1239 C   0  0  0  0  0  0  0  0  0  0  0  0
   14.0421   10.1510    7.7891 N   0  0  0  0  0  0  0  0  0  0  0  0
   14.7301    9.2176    7.0964 C   0  0  0  0  0  0  0  0  0  0  0  0
   14.2237    7.8308    6.7039 C   0  0  0  0  0  0  0  0  0  0  0  0
   12.9235    7.4553    7.0756 C   0  0  0  0  0  0  0  0  0  0  0  0
   12.3203    6.4118    6.8657 O   0  0  0  0  0  0  0  0  0  0  0  0
   15.2391    7.2202    6.0201 N   0  0  0  0  0  0  0  0  0  0  0  0
   16.2859    8.1075    5.9606 C   0  0  0  0  0  0  0  0  0  0  0  0
   16.0156    9.3159    6.5973 N   0  0  0  0  0  0  0  0  0  0  0  0
  1  2  1  0  0  0  0
  1  6  1  0  0  0  0
  2  3  2  0  0  0  0
  3  4  1  0  0  0  0
  4  5  2  0  0  0  0
  4 10  1  0  0  0  0
  5  6  1  0  0  0  0
  5  8  1  0  0  0  0
  6  7  2  0  0  0  0
  8  9  1  0  0  0  0
  9 10  2  0  0  0  0
M  END
>  <CHROM.1>
14.05711526,8.36610799,7.00121651,3.08653219,-0.36281592,-2.73087327

>  <Name>
1u8d_lig

>  <RI>
0

>  <Rbt.Current_Directory>
/home/itssahil/PROJECTS/Mol_Feturizer/New_Systems/rnas/1u8d

>  <Rbt.Executable>
rbdock ($Id: //depot/dev/client3/rdock/2013.1/src/exe/rbdock.cxx#4 $)

>  <Rbt.Library>
libRbt.so (2013.1, Build901 2013/11/27)

>  <Rbt.Parameter_File>
/export/apps/rDock/src/rDock_2013.1_src/data/scripts/dock_solv.prm

>  <Rbt.Receptor>
prm/blind_docking_80.prm

>  <SCORE>
-13.6095

>  <SCORE.INTER>
-13.6095

>  <SCORE.INTER.CONST>
1

>  <SCORE.INTER.POLAR>
-0.994906

>  <SCORE.INTER.ROT>
0

>  <SCORE.INTER.SOLV>
9.56909

>  <SCORE.INTER.VDW>
-12.5463

>  <SCORE.INTER.norm>
-1.36095

>  <SCORE.INTRA>
0

>  <SCORE.INTRA.DIHEDRAL>
0

>  <SCORE.INTRA.DIHEDRAL.0>
0

>  <SCORE.INTRA.POLAR>
0

>  <SCORE.INTRA.POLAR.0>
0

>  <SCORE.INTRA.REPUL>
0

>  <SCORE.INTRA.REPUL.0>
0

>  <SCORE.INTRA.SOLV>
0

>  <SCORE.INTRA.SOLV.lig_0>
-13.7928

>  <SCORE.INTRA.VDW>
0

>  <SCORE.INTRA.VDW.0>
0

>  <SCORE.INTRA.norm>
0

>  <SCORE.RESTR>
0

>  <SCORE.RESTR.CAVITY>
0

>  <SCORE.RESTR.norm>
0

>  <SCORE.SYSTEM>
0

>  <SCORE.SYSTEM.CONST>
0

>  <SCORE.SYSTEM.DIHEDRAL>
0

>  <SCORE.SYSTEM.SOLV>
0

>  <SCORE.SYSTEM.norm>
0

>  <SCORE.heavy>
10

>  <SCORE.norm>
-1.36095

>  <RMSD>
4.413

$$$$
1u8d_lig
 OpenBabel11021811413D
libRbt.so/2013.1/901 2013/11/27
 10 11  0  0  0  0  0  0  0  0999 V2000
   14.8155    7.1983    6.3654 N   0  0  0  0  0  0  0  0  0  0  0  0
   13.7339    6.5176    6.9499 C   0  0  0  0  0  0  0  0  0  0  0  0
   12.7874    7.1272    7.7083 N   0  0  0  0  0  0  0  0  0  0  0  0
   12.9957    8.4554    7.8377 C   0  0  0  0  0  0  0  0  0  0  0  0
   14.1514    9.2501    7.2322 C   0  0  0  0  0  0  0  0  0  0  0  0
   15.1052    8.5726    6.4571 C   0  0  0  0  0  0  0  0  0  0  0  0
   16.0947    9.0038    5.8810 O   0  0  0  0  0  0  0  0  0  0  0  0
   13.9768   10.5518    7.6149 N   0  0  0  0  0  0  0  0  0  0  0  0
   12.8332   10.6069    8.3737 C   0  0  0  0  0  0  0  0  0  0  0  0
   12.2193    9.3669    8.5288 N   0  0  0  0  0  0  0  0  0  0  0  0
  1  2  1  0  0  0  0
  1  6  1  0  0  0  0
  2  3  2  0  0  0  0
  3  4  1  0  0  0  0
  4  5  2  0  0  0  0
  4 10  1  0  0  0  0
  5  6  1  0  0  0  0
  5  8  1  0  0  0  0
  6  7  2  0  0  0  0
  8  9  1  0  0  0  0
  9 10  2  0  0  0  0
M  END
>  <CHROM.1>
13.90349942,8.66740255,7.27381236,0.70725994,-0.57763861,-2.94146624

>  <Name>
1u8d_lig

>  <RI>
0

>  <Rbt.Current_Directory>
/home/itssahil/PROJECTS/Mol_Feturizer/New_Systems/rnas/1u8d

>  <Rbt.Executable>
rbdock ($Id: //depot/dev/client3/rdock/2013.1/src/exe/rbdock.cxx#4 $)

>  <Rbt.Library>
libRbt.so (2013.1, Build901 2013/11/27)

>  <Rbt.Parameter_File>
/export/apps/rDock/src/rDock_2013.1_src/data/scripts/dock_solv.prm

>  <Rbt.Receptor>
prm/blind_docking_100.prm

>  <SCORE>
-15.1514

>  <SCORE.INTER>
-15.1514

>  <SCORE.INTER.CONST>
1

>  <SCORE.INTER.POLAR>
-1.55239

>  <SCORE.INTER.ROT>
0

>  <SCORE.INTER.SOLV>
9.20827

>  <SCORE.INTER.VDW>
-11.5957

>  <SCORE.INTER.norm>
-1.51514

>  <SCORE.INTRA>
0

>  <SCORE.INTRA.DIHEDRAL>
0

>  <SCORE.INTRA.DIHEDRAL.0>
0

>  <SCORE.INTRA.POLAR>
0

>  <SCORE.INTRA.POLAR.0>
0

>  <SCORE.INTRA.REPUL>
0

>  <SCORE.INTRA.REPUL.0>
0

>  <SCORE.INTRA.SOLV>
0

>  <SCORE.INTRA.SOLV.lig_0>
-13.7928

>  <SCORE.INTRA.VDW>
0

>  <SCORE.INTRA.VDW.0>
0

>  <SCORE.INTRA.norm>
0

>  <SCORE.RESTR>
0

>  <SCORE.RESTR.CAVITY>
0

>  <SCORE.RESTR.norm>
0

>  <SCORE.SYSTEM>
0

>  <SCORE.SYSTEM.CONST>
0

>  <SCORE.SYSTEM.DIHEDRAL>
0

>  <SCORE.SYSTEM.SOLV>
0

>  <SCORE.SYSTEM.norm>
0

>  <SCORE.heavy>
10

>  <SCORE.norm>
-1.51514

>  <RMSD>
4.636

$$$$
1u8d_lig
 OpenBabel11021811413D
libRbt.so/2013.1/901 2013/11/27
 10 11  0  0  0  0  0  0  0  0999 V2000
   15.7353    6.8835    6.4828 N   0  0  0  0  0  0  0  0  0  0  0  0
   15.0166    5.8699    7.1393 C   0  0  0  0  0  0  0  0  0  0  0  0
   13.7856    6.0553    7.6805 N   0  0  0  0  0  0  0  0  0  0  0  0
   13.3265    7.3152    7.5179 C   0  0  0  0  0  0  0  0  0  0  0  0
   14.0599    8.4590    6.8196 C   0  0  0  0  0  0  0  0  0  0  0  0
   15.3317    8.2163    6.2780 C   0  0  0  0  0  0  0  0  0  0  0  0
   16.0852    8.9727    5.6807 O   0  0  0  0  0  0  0  0  0  0  0  0
   13.2389    9.5512    6.8858 N   0  0  0  0  0  0  0  0  0  0  0  0
   12.0949    9.1659    7.5411 C   0  0  0  0  0  0  0  0  0  0  0  0
   12.1137    7.8308    7.9356 N   0  0  0  0  0  0  0  0  0  0  0  0
  1  2  1  0  0  0  0
  1  6  1  0  0  0  0
  2  3  2  0  0  0  0
  3  4  1  0  0  0  0
  4  5  2  0  0  0  0
  4 10  1  0  0  0  0
  5  6  1  0  0  0  0
  5  8  1  0  0  0  0
  6  7  2  0  0  0  0
  8  9  1  0  0  0  0
  9 10  2  0  0  0  0
M  END
>  <CHROM.1>
14.10918825,7.84619684,6.97706410,0.13843337,-0.43160494,2.84701630

>  <Name>
1u8d_lig

>  <RI>
0

>  <Rbt.Current_Directory>
/home/itssahil/PROJECTS/Mol_Feturizer/New_Systems/rnas/1u8d

>  <Rbt.Executable>
rbdock ($Id: //depot/dev/client3/rdock/2013.1/src/exe/rbdock.cxx#4 $)

>  <Rbt.Library>
libRbt.so (2013.1, Build901 2013/11/27)

>  <Rbt.Parameter_File>
/export/apps/rDock/src/rDock_2013.1_src/data/scripts/dock_solv.prm

>  <Rbt.Receptor>
prm/blind_docking_100.prm

>  <SCORE>
-16.2579

>  <SCORE.INTER>
-16.2579

>  <SCORE.INTER.CONST>
1

>  <SCORE.INTER.POLAR>
-0.916515

>  <SCORE.INTER.ROT>
0

>  <SCORE.INTER.SOLV>
8.23517

>  <SCORE.INTER.VDW>
-14.1286

>  <SCORE.INTER.norm>
-1.62579

>  <SCORE.INTRA>
0

>  <SCORE.INTRA.DIHEDRAL>
0

>  <SCORE.INTRA.DIHEDRAL.0>
0

>  <SCORE.INTRA.POLAR>
0

>  <SCORE.INTRA.POLAR.0>
0

>  <SCORE.INTRA.REPUL>
0

>  <SCORE.INTRA.REPUL.0>
0

>  <SCORE.INTRA.SOLV>
0

>  <SCORE.INTRA.SOLV.lig_0>
-13.7928

>  <SCORE.INTRA.VDW>
0

>  <SCORE.INTRA.VDW.0>
0

>  <SCORE.INTRA.norm>
0

>  <SCORE.RESTR>
0

>  <SCORE.RESTR.CAVITY>
0

>  <SCORE.RESTR.norm>
0

>  <SCORE.SYSTEM>
0

>  <SCORE.SYSTEM.CONST>
0

>  <SCORE.SYSTEM.DIHEDRAL>
0

>  <SCORE.SYSTEM.SOLV>
0

>  <SCORE.SYSTEM.norm>
0

>  <SCORE.heavy>
10

>  <SCORE.norm>
-1.62579

>  <RMSD>
5.238

$$$$
1u8d_lig
 OpenBabel11021811413D
libRbt.so/2013.1/901 2013/11/27
 10 11  0  0  0  0  0  0  0  0999 V2000
    2.5253   11.9251    0.4604 N   0  0  0  0  0  0  0  0  0  0  0  0
    2.7901   10.5453    0.4254 C   0  0  0  0  0  0  0  0  0  0  0  0
    2.6444    9.7276    1.4991 N   0  0  0  0  0  0  0  0  0  0  0  0
    2.2161   10.3813    2.6007 C   0  0  0  0  0  0  0  0  0  0  0  0
    1.9160   11.8757    2.7029 C   0  0  0  0  0  0  0  0  0  0  0  0
    2.0842   12.6787    1.5642 C   0  0  0  0  0  0  0  0  0  0  0  0
    1.9004   13.8796    1.4195 O   0  0  0  0  0  0  0  0  0  0  0  0
    1.5161   12.1096    3.9900 N   0  0  0  0  0  0  0  0  0  0  0  0
    1.5399   10.9066    4.6524 C   0  0  0  0  0  0  0  0  0  0  0  0
    1.9562    9.8481    3.8495 N   0  0  0  0  0  0  0  0  0  0  0  0
  1  2  1  0  0  0  0
  1  6  1  0  0  0  0
  2  3  2  0  0  0  0
  3  4  1  0  0  0  0
  4  5  2  0  0  0  0
  4 10  1  0  0  0  0
  5  6  1  0  0  0  0
  5  8  1  0  0  0  0
  6  7  2  0  0  0  0
  8  9  1  0  0  0  0
  9 10  2  0  0  0  0
M  END
>  <CHROM.1>
2.10658001,11.42305968,2.30100301,-1.09120900,-1.24871825,2.56183713

>  <Name>
1u8d_lig

>  <RI>
0

>  <Rbt.Current_Directory>
/home/itssahil/PROJECTS/Mol_Feturizer/New_Systems/rnas/1u8d

>  <Rbt.Executable>
rbdock ($Id: //depot/dev/client3/rdock/2013.1/src/exe/rbdock.cxx#4 $)

>  <Rbt.Library>
libRbt.so (2013.1, Build901 2013/11/27)

>  <Rbt.Parameter_File>
/export/apps/rDock/src/rDock_2013.1_src/data/scripts/dock_solv.prm

>  <Rbt.Receptor>
prm/blind_docking_40.prm

>  <SCORE>
-10.3556

>  <SCORE.INTER>
-10.3556

>  <SCORE.INTER.CONST>
1

>  <SCORE.INTER.POLAR>
0

>  <SCORE.INTER.ROT>
0

>  <SCORE.INTER.SOLV>
5.8874

>  <SCORE.INTER.VDW>
-12.4662

>  <SCORE.INTER.norm>
-1.03556

>  <SCORE.INTRA>
0

>  <SCORE.INTRA.DIHEDRAL>
0

>  <SCORE.INTRA.DIHEDRAL.0>
0

>  <SCORE.INTRA.POLAR>
0

>  <SCORE.INTRA.POLAR.0>
0

>  <SCORE.INTRA.REPUL>
0

>  <SCORE.INTRA.REPUL.0>
0

>  <SCORE.INTRA.SOLV>
0

>  <SCORE.INTRA.SOLV.lig_0>
-13.7928

>  <SCORE.INTRA.VDW>
0

>  <SCORE.INTRA.VDW.0>
0

>  <SCORE.INTRA.norm>
0

>  <SCORE.RESTR>
0

>  <SCORE.RESTR.CAVITY>
0

>  <SCORE.RESTR.norm>
0

>  <SCORE.SYSTEM>
0

>  <SCORE.SYSTEM.CONST>
0

>  <SCORE.SYSTEM.DIHEDRAL>
0

>  <SCORE.SYSTEM.SOLV>
0

>  <SCORE.SYSTEM.norm>
0

>  <SCORE.heavy>
10

>  <SCORE.norm>
-1.03556

>  <RMSD>
11.252

$$$$
1u8d_lig
 OpenBabel11021811413D
libRbt.so/2013.1/901 2013/11/27
 10 11  0  0  0  0  0  0  0  0999 V2000
   19.6064   19.1181    8.7155 N   0  0  0  0  0  0  0  0  0  0  0  0
   19.7234   18.4798    7.4690 C   0  0  0  0  0  0  0  0  0  0  0  0
   19.3152   19.0379    6.3008 N   0  0  0  0  0  0  0  0  0  0  0  0
   18.7883   20.2707    6.4656 C   0  0  0  0  0  0  0  0  0  0  0  0
   18.6302   21.0140    7.7908 C   0  0  0  0  0  0  0  0  0  0  0  0
   19.0665   20.3926    8.9711 C   0  0  0  0  0  0  0  0  0  0  0  0
   19.0425   20.7995   10.1246 O   0  0  0  0  0  0  0  0  0  0  0  0
   18.0519   22.2190    7.4994 N   0  0  0  0  0  0  0  0  0  0  0  0
   17.8629   22.2657    6.1398 C   0  0  0  0  0  0  0  0  0  0  0  0
   18.2925   21.1129    5.4878 N   0  0  0  0  0  0  0  0  0  0  0  0
  1  2  1  0  0  0  0
  1  6  1  0  0  0  0
  2  3  2  0  0  0  0
  3  4  1  0  0  0  0
  4  5  2  0  0  0  0
  4 10  1  0  0  0  0
  5  6  1  0  0  0  0
  5  8  1  0  0  0  0
  6  7  2  0  0  0  0
  8  9  1  0  0  0  0
  9 10  2  0  0  0  0
M  END
>  <CHROM.1>
18.84211530,20.47341386,7.53471634,-0.66346503,1.13528684,-1.85896931

>  <Name>
1u8d_lig

>  <RI>
0

>  <Rbt.Current_Directory>
/home/itssahil/PROJECTS/Mol_Feturizer/New_Systems/rnas/1u8d

>  <Rbt.Executable>
rbdock ($Id: //depot/dev/client3/rdock/2013.1/src/exe/rbdock.cxx#4 $)

>  <Rbt.Library>
libRbt.so (2013.1, Build901 2013/11/27)

>  <Rbt.Parameter_File>
/export/apps/rDock/src/rDock_2013.1_src/data/scripts/dock_solv.prm

>  <Rbt.Receptor>
prm/blind_docking_60.prm

>  <SCORE>
-15.1102

>  <SCORE.INTER>
-15.1102

>  <SCORE.INTER.CONST>
1

>  <SCORE.INTER.POLAR>
-1.6143

>  <SCORE.INTER.ROT>
0

>  <SCORE.INTER.SOLV>
5.23521

>  <SCORE.INTER.VDW>
-10.0375

>  <SCORE.INTER.norm>
-1.51102

>  <SCORE.INTRA>
0

>  <SCORE.INTRA.DIHEDRAL>
0

>  <SCORE.INTRA.DIHEDRAL.0>
0

>  <SCORE.INTRA.POLAR>
0

>  <SCORE.INTRA.POLAR.0>
0

>  <SCORE.INTRA.REPUL>
0

>  <SCORE.INTRA.REPUL.0>
0

>  <SCORE.INTRA.SOLV>
0

>  <SCORE.INTRA.SOLV.lig_0>
-13.7928

>  <SCORE.INTRA.VDW>
0

>  <SCORE.INTRA.VDW.0>
0

>  <SCORE.INTRA.norm>
0

>  <SCORE.RESTR>
0

>  <SCORE.RESTR.CAVITY>
0

>  <SCORE.RESTR.norm>
0

>  <SCORE.SYSTEM>
0

>  <SCORE.SYSTEM.CONST>
0

>  <SCORE.SYSTEM.DIHEDRAL>
0

>  <SCORE.SYSTEM.SOLV>
0

>  <SCORE.SYSTEM.norm>
0

>  <SCORE.heavy>
10

>  <SCORE.norm>
-1.51102

>  <RMSD>
12.170

$$$$
1u8d_lig
 OpenBabel11021811413D
libRbt.so/2013.1/901 2013/11/27
 10 11  0  0  0  0  0  0  0  0999 V2000
   18.6274   20.6587    5.8539 N   0  0  0  0  0  0  0  0  0  0  0  0
   17.6269   21.4972    6.3745 C   0  0  0  0  0  0  0  0  0  0  0  0
   17.4213   21.6815    7.7036 N   0  0  0  0  0  0  0  0  0  0  0  0
   18.2817   20.9759    8.4693 C   0  0  0  0  0  0  0  0  0  0  0  0
   19.3845   20.0469    7.9646 C   0  0  0  0  0  0  0  0  0  0  0  0
   19.5550   19.8889    6.5806 C   0  0  0  0  0  0  0  0  0  0  0  0
   20.3653   19.2102    5.9644 O   0  0  0  0  0  0  0  0  0  0  0  0
   20.0082   19.5392    9.0712 N   0  0  0  0  0  0  0  0  0  0  0  0
   19.3937   20.0810   10.1737 C   0  0  0  0  0  0  0  0  0  0  0  0
   18.3526   20.9468    9.8496 N   0  0  0  0  0  0  0  0  0  0  0  0
  1  2  1  0  0  0  0
  1  6  1  0  0  0  0
  2  3  2  0  0  0  0
  3  4  1  0  0  0  0
  4  5  2  0  0  0  0
  4 10  1  0  0  0  0
  5  6  1  0  0  0  0
  5  8  1  0  0  0  0
  6  7  2  0  0  0  0
  8  9  1  0  0  0  0
  9 10  2  0  0  0  0
M  END
>  <CHROM.1>
18.92148962,20.43586614,7.77205192,1.49846380,0.69524878,-1.58467929

>  <Name>
1u8d_lig

>  <RI>
0

>  <Rbt.Current_Directory>
/home/itssahil/PROJECTS/Mol_Feturizer/New_Systems/rnas/1u8d

>  <Rbt.Executable>
rbdock ($Id: //depot/dev/client3/rdock/2013.1/src/exe/rbdock.cxx#4 $)

>  <Rbt.Library>
libRbt.so (2013.1, Build901 2013/11/27)

>  <Rbt.Parameter_File>
/export/apps/rDock/src/rDock_2013.1_src/data/scripts/dock_solv.prm

>  <Rbt.Receptor>
prm/blind_docking_60.prm

>  <SCORE>
-13.9481

>  <SCORE.INTER>
-13.9481

>  <SCORE.INTER.CONST>
1

>  <SCORE.INTER.POLAR>
-1.76541

>  <SCORE.INTER.ROT>
0

>  <SCORE.INTER.SOLV>
5.43385

>  <SCORE.INTER.VDW>
-8.82535

>  <SCORE.INTER.norm>
-1.39481

>  <SCORE.INTRA>
0

>  <SCORE.INTRA.DIHEDRAL>
0

>  <SCORE.INTRA.DIHEDRAL.0>
0

>  <SCORE.INTRA.POLAR>
0

>  <SCORE.INTRA.POLAR.0>
0

>  <SCORE.INTRA.REPUL>
0

>  <SCORE.INTRA.REPUL.0>
0

>  <SCORE.INTRA.SOLV>
0

>  <SCORE.INTRA.SOLV.lig_0>
-13.7928

>  <SCORE.INTRA.VDW>
0

>  <SCORE.INTRA.VDW.0>
0

>  <SCORE.INTRA.norm>
0

>  <SCORE.RESTR>
0

>  <SCORE.RESTR.CAVITY>
0

>  <SCORE.RESTR.norm>
0

>  <SCORE.SYSTEM>
0

>  <SCORE.SYSTEM.CONST>
0

>  <SCORE.SYSTEM.DIHEDRAL>
0

>  <SCORE.SYSTEM.SOLV>
0

>  <SCORE.SYSTEM.norm>
0

>  <SCORE.heavy>
10

>  <SCORE.norm>
-1.39481

>  <RMSD>
12.336

$$$$
1u8d_lig
 OpenBabel11021811413D
libRbt.so/2013.1/901 2013/11/27
 10 11  0  0  0  0  0  0  0  0999 V2000
   20.7775   19.5914    7.4981 N   0  0  0  0  0  0  0  0  0  0  0  0
   19.7901   18.6057    7.3295 C   0  0  0  0  0  0  0  0  0  0  0  0
   18.5722   18.8517    6.7827 N   0  0  0  0  0  0  0  0  0  0  0  0
   18.4136   20.1423    6.4170 C   0  0  0  0  0  0  0  0  0  0  0  0
   19.4445   21.2582    6.5777 C   0  0  0  0  0  0  0  0  0  0  0  0
   20.6886   20.9524    7.1507 C   0  0  0  0  0  0  0  0  0  0  0  0
   21.6498   21.6776    7.3673 O   0  0  0  0  0  0  0  0  0  0  0  0
   18.8714   22.3974    6.0826 N   0  0  0  0  0  0  0  0  0  0  0  0
   17.6149   22.0653    5.6381 C   0  0  0  0  0  0  0  0  0  0  0  0
   17.3066   20.7203    5.8242 N   0  0  0  0  0  0  0  0  0  0  0  0
  1  2  1  0  0  0  0
  1  6  1  0  0  0  0
  2  3  2  0  0  0  0
  3  4  1  0  0  0  0
  4  5  2  0  0  0  0
  4 10  1  0  0  0  0
  5  6  1  0  0  0  0
  5  8  1  0  0  0  0
  6  7  2  0  0  0  0
  8  9  1  0  0  0  0
  9 10  2  0  0  0  0
M  END
>  <CHROM.1>
19.34760440,20.63909510,6.67774867,0.39456028,0.37646291,2.91318598

>  <Name>
1u8d_lig

>  <RI>
0

>  <Rbt.Current_Directory>
/home/itssahil/PROJECTS/Mol_Feturizer/New_Systems/rnas/1u8d

>  <Rbt.Executable>
rbdock ($Id: //depot/dev/client3/rdock/2013.1/src/exe/rbdock.cxx#4 $)

>  <Rbt.Library>
libRbt.so (2013.1, Build901 2013/11/27)

>  <Rbt.Parameter_File>
/export/apps/rDock/src/rDock_2013.1_src/data/scripts/dock_solv.prm

>  <Rbt.Receptor>
prm/blind_docking_40.prm

>  <SCORE>
-17.1782

>  <SCORE.INTER>
-17.1782

>  <SCORE.INTER.CONST>
1

>  <SCORE.INTER.POLAR>
-2.22238

>  <SCORE.INTER.ROT>
0

>  <SCORE.INTER.SOLV>
6.56998

>  <SCORE.INTER.VDW>
-9.8342

>  <SCORE.INTER.norm>
-1.71782

>  <SCORE.INTRA>
0

>  <SCORE.INTRA.DIHEDRAL>
0

>  <SCORE.INTRA.DIHEDRAL.0>
0

>  <SCORE.INTRA.POLAR>
0

>  <SCORE.INTRA.POLAR.0>
0

>  <SCORE.INTRA.REPUL>
0

>  <SCORE.INTRA.REPUL.0>
0

>  <SCORE.INTRA.SOLV>
0

>  <SCORE.INTRA.SOLV.lig_0>
-13.7928

>  <SCORE.INTRA.VDW>
0

>  <SCORE.INTRA.VDW.0>
0

>  <SCORE.INTRA.norm>
0

>  <SCORE.RESTR>
0

>  <SCORE.RESTR.CAVITY>
0

>  <SCORE.RESTR.norm>
0

>  <SCORE.SYSTEM>
0

>  <SCORE.SYSTEM.CONST>
0

>  <SCORE.SYSTEM.DIHEDRAL>
0

>  <SCORE.SYSTEM.SOLV>
0

>  <SCORE.SYSTEM.norm>
0

>  <SCORE.heavy>
10

>  <SCORE.norm>
-1.71782

>  <RMSD>
12.611

$$$$
1u8d_lig
 OpenBabel11021811413D
libRbt.so/2013.1/901 2013/11/27
 10 11  0  0  0  0  0  0  0  0999 V2000
   20.7781   19.5914    7.4992 N   0  0  0  0  0  0  0  0  0  0  0  0
   19.7905   18.6058    7.3314 C   0  0  0  0  0  0  0  0  0  0  0  0
   18.5712   18.8526    6.7881 N   0  0  0  0  0  0  0  0  0  0  0  0
   18.4114   20.1437    6.4250 C   0  0  0  0  0  0  0  0  0  0  0  0
   19.4425   21.2596    6.5850 C   0  0  0  0  0  0  0  0  0  0  0  0
   20.6881   20.9530    7.1543 C   0  0  0  0  0  0  0  0  0  0  0  0
   21.6497   21.6780    7.3697 O   0  0  0  0  0  0  0  0  0  0  0  0
   18.8680   22.3995    6.0933 N   0  0  0  0  0  0  0  0  0  0  0  0
   17.6105   22.0679    5.6514 C   0  0  0  0  0  0  0  0  0  0  0  0
   17.3028   20.7226    5.8360 N   0  0  0  0  0  0  0  0  0  0  0  0
  1  2  1  0  0  0  0
  1  6  1  0  0  0  0
  2  3  2  0  0  0  0
  3  4  1  0  0  0  0
  4  5  2  0  0  0  0
  4 10  1  0  0  0  0
  5  6  1  0  0  0  0
  5  8  1  0  0  0  0
  6  7  2  0  0  0  0
  8  9  1  0  0  0  0
  9 10  2  0  0  0  0
M  END
>  <CHROM.1>
19.34598259,20.64024075,6.68422598,0.39378513,0.37404065,2.91517285

>  <Name>
1u8d_lig

>  <RI>
0

>  <Rbt.Current_Directory>
/home/itssahil/PROJECTS/Mol_Feturizer/New_Systems/rnas/1u8d

>  <Rbt.Executable>
rbdock ($Id: //depot/dev/client3/rdock/2013.1/src/exe/rbdock.cxx#4 $)

>  <Rbt.Library>
libRbt.so (2013.1, Build901 2013/11/27)

>  <Rbt.Parameter_File>
/export/apps/rDock/src/rDock_2013.1_src/data/scripts/dock_solv.prm

>  <Rbt.Receptor>
prm/blind_docking_60.prm

>  <SCORE>
-17.1799

>  <SCORE.INTER>
-17.1799

>  <SCORE.INTER.CONST>
1

>  <SCORE.INTER.POLAR>
-2.2137

>  <SCORE.INTER.ROT>
0

>  <SCORE.INTER.SOLV>
6.551

>  <SCORE.INTER.VDW>
-9.85794

>  <SCORE.INTER.norm>
-1.71799

>  <SCORE.INTRA>
0

>  <SCORE.INTRA.DIHEDRAL>
0

>  <SCORE.INTRA.DIHEDRAL.0>
0

>  <SCORE.INTRA.POLAR>
0

>  <SCORE.INTRA.POLAR.0>
0

>  <SCORE.INTRA.REPUL>
0

>  <SCORE.INTRA.REPUL.0>
0

>  <SCORE.INTRA.SOLV>
0

>  <SCORE.INTRA.SOLV.lig_0>
-13.7928

>  <SCORE.INTRA.VDW>
0

>  <SCORE.INTRA.VDW.0>
0

>  <SCORE.INTRA.norm>
0

>  <SCORE.RESTR>
0

>  <SCORE.RESTR.CAVITY>
0

>  <SCORE.RESTR.norm>
0

>  <SCORE.SYSTEM>
0

>  <SCORE.SYSTEM.CONST>
0

>  <SCORE.SYSTEM.DIHEDRAL>
0

>  <SCORE.SYSTEM.SOLV>
0

>  <SCORE.SYSTEM.norm>
0

>  <SCORE.heavy>
10

>  <SCORE.norm>
-1.71799

>  <RMSD>
12.611

$$$$
1u8d_lig
 OpenBabel11021811413D
libRbt.so/2013.1/901 2013/11/27
 10 11  0  0  0  0  0  0  0  0999 V2000
   20.8011   19.3862    7.7401 N   0  0  0  0  0  0  0  0  0  0  0  0
   21.5047   20.5999    7.8233 C   0  0  0  0  0  0  0  0  0  0  0  0
   21.0290   21.7757    7.3398 N   0  0  0  0  0  0  0  0  0  0  0  0
   19.8086   21.6537    6.7740 C   0  0  0  0  0  0  0  0  0  0  0  0
   18.9973   20.3653    6.6493 C   0  0  0  0  0  0  0  0  0  0  0  0
   19.5344   19.1752    7.1639 C   0  0  0  0  0  0  0  0  0  0  0  0
   19.0637   18.0461    7.1780 O   0  0  0  0  0  0  0  0  0  0  0  0
   17.8324   20.6941    6.0118 N   0  0  0  0  0  0  0  0  0  0  0  0
   17.8700   22.0435    5.7580 C   0  0  0  0  0  0  0  0  0  0  0  0
   19.0418   22.6511    6.2008 N   0  0  0  0  0  0  0  0  0  0  0  0
  1  2  1  0  0  0  0
  1  6  1  0  0  0  0
  2  3  2  0  0  0  0
  3  4  1  0  0  0  0
  4  5  2  0  0  0  0
  4 10  1  0  0  0  0
  5  6  1  0  0  0  0
  5  8  1  0  0  0  0
  6  7  2  0  0  0  0
  8  9  1  0  0  0  0
  9 10  2  0  0  0  0
M  END
>  <CHROM.1>
19.54358747,20.60123456,6.86972185,-1.04719273,-0.44375573,-0.20751754

>  <Name>
1u8d_lig

>  <RI>
0

>  <Rbt.Current_Directory>
/home/itssahil/PROJECTS/Mol_Feturizer/New_Systems/rnas/1u8d

>  <Rbt.Executable>
rbdock ($Id: //depot/dev/client3/rdock/2013.1/src/exe/rbdock.cxx#4 $)

>  <Rbt.Library>
libRbt.so (2013.1, Build901 2013/11/27)

>  <Rbt.Parameter_File>
/export/apps/rDock/src/rDock_2013.1_src/data/scripts/dock_solv.prm

>  <Rbt.Receptor>
prm/blind_docking_80.prm

>  <SCORE>
-16.6958

>  <SCORE.INTER>
-16.6958

>  <SCORE.INTER.CONST>
1

>  <SCORE.INTER.POLAR>
-2.35957

>  <SCORE.INTER.ROT>
0

>  <SCORE.INTER.SOLV>
5.98542

>  <SCORE.INTER.VDW>
-8.86043

>  <SCORE.INTER.norm>
-1.66958

>  <SCORE.INTRA>
0

>  <SCORE.INTRA.DIHEDRAL>
0

>  <SCORE.INTRA.DIHEDRAL.0>
0

>  <SCORE.INTRA.POLAR>
0

>  <SCORE.INTRA.POLAR.0>
0

>  <SCORE.INTRA.REPUL>
0

>  <SCORE.INTRA.REPUL.0>
0

>  <SCORE.INTRA.SOLV>
0

>  <SCORE.INTRA.SOLV.lig_0>
-13.7928

>  <SCORE.INTRA.VDW>
0

>  <SCORE.INTRA.VDW.0>
0

>  <SCORE.INTRA.norm>
0

>  <SCORE.RESTR>
0

>  <SCORE.RESTR.CAVITY>
0

>  <SCORE.RESTR.norm>
0

>  <SCORE.SYSTEM>
0

>  <SCORE.SYSTEM.CONST>
0

>  <SCORE.SYSTEM.DIHEDRAL>
0

>  <SCORE.SYSTEM.SOLV>
0

>  <SCORE.SYSTEM.norm>
0

>  <SCORE.heavy>
10

>  <SCORE.norm>
-1.66958

>  <RMSD>
12.611

$$$$
1u8d_lig
 OpenBabel11021811413D
libRbt.so/2013.1/901 2013/11/27
 10 11  0  0  0  0  0  0  0  0999 V2000
   20.6423   19.3081    7.6360 N   0  0  0  0  0  0  0  0  0  0  0  0
   19.6013   18.4699    7.2015 C   0  0  0  0  0  0  0  0  0  0  0  0
   18.4978   18.9214    6.5526 N   0  0  0  0  0  0  0  0  0  0  0  0
   18.5098   20.2594    6.3680 C   0  0  0  0  0  0  0  0  0  0  0  0
   19.6066   21.2222    6.8195 C   0  0  0  0  0  0  0  0  0  0  0  0
   20.7270   20.7053    7.4884 C   0  0  0  0  0  0  0  0  0  0  0  0
   21.7117   21.2835    7.9276 O   0  0  0  0  0  0  0  0  0  0  0  0
   19.2138   22.4746    6.4344 N   0  0  0  0  0  0  0  0  0  0  0  0
   18.0052   22.3472    5.7944 C   0  0  0  0  0  0  0  0  0  0  0  0
   17.5523   21.0318    5.7373 N   0  0  0  0  0  0  0  0  0  0  0  0
  1  2  1  0  0  0  0
  1  6  1  0  0  0  0
  2  3  2  0  0  0  0
  3  4  1  0  0  0  0
  4  5  2  0  0  0  0
  4 10  1  0  0  0  0
  5  6  1  0  0  0  0
  5  8  1  0  0  0  0
  6  7  2  0  0  0  0
  8  9  1  0  0  0  0
  9 10  2  0  0  0  0
M  END
>  <CHROM.1>
19.44064831,20.60966682,6.81290608,0.53110536,0.48669535,3.00077852

>  <Name>
1u8d_lig

>  <RI>
0

>  <Rbt.Current_Directory>
/home/itssahil/PROJECTS/Mol_Feturizer/New_Systems/rnas/1u8d

>  <Rbt.Executable>
rbdock ($Id: //depot/dev/client3/rdock/2013.1/src/exe/rbdock.cxx#4 $)

>  <Rbt.Library>
libRbt.so (2013.1, Build901 2013/11/27)

>  <Rbt.Parameter_File>
/export/apps/rDock/src/rDock_2013.1_src/data/scripts/dock_solv.prm

>  <Rbt.Receptor>
prm/blind_docking_100.prm

>  <SCORE>
-15.7901

>  <SCORE.INTER>
-15.7901

>  <SCORE.INTER.CONST>
1

>  <SCORE.INTER.POLAR>
-1.93565

>  <SCORE.INTER.ROT>
0

>  <SCORE.INTER.SOLV>
6.22626

>  <SCORE.INTER.VDW>
-9.75

>  <SCORE.INTER.norm>
-1.57901

>  <SCORE.INTRA>
0

>  <SCORE.INTRA.DIHEDRAL>
0

>  <SCORE.INTRA.DIHEDRAL.0>
0

>  <SCORE.INTRA.POLAR>
0

>  <SCORE.INTRA.POLAR.0>
0

>  <SCORE.INTRA.REPUL>
0

>  <SCORE.INTRA.REPUL.0>
0

>  <SCORE.INTRA.SOLV>
0

>  <SCORE.INTRA.SOLV.lig_0>
-13.7928

>  <SCORE.INTRA.VDW>
0

>  <SCORE.INTRA.VDW.0>
0

>  <SCORE.INTRA.norm>
0

>  <SCORE.RESTR>
0

>  <SCORE.RESTR.CAVITY>
0

>  <SCORE.RESTR.norm>
0

>  <SCORE.SYSTEM>
0

>  <SCORE.SYSTEM.CONST>
0

>  <SCORE.SYSTEM.DIHEDRAL>
0

>  <SCORE.SYSTEM.SOLV>
0

>  <SCORE.SYSTEM.norm>
0

>  <SCORE.heavy>
10

>  <SCORE.norm>
-1.57901

>  <RMSD>
12.637

$$$$
1u8d_lig
 OpenBabel11021811413D
libRbt.so/2013.1/901 2013/11/27
 10 11  0  0  0  0  0  0  0  0999 V2000
   20.8219   19.3897    7.7336 N   0  0  0  0  0  0  0  0  0  0  0  0
   21.5470   20.5900    7.8260 C   0  0  0  0  0  0  0  0  0  0  0  0
   21.1009   21.7740    7.3342 N   0  0  0  0  0  0  0  0  0  0  0  0
   19.8869   21.6744    6.7505 C   0  0  0  0  0  0  0  0  0  0  0  0
   19.0532   20.4014    6.6151 C   0  0  0  0  0  0  0  0  0  0  0  0
   19.5601   19.2021    7.1389 C   0  0  0  0  0  0  0  0  0  0  0  0
   19.0679   18.0820    7.1472 O   0  0  0  0  0  0  0  0  0  0  0  0
   17.9044   20.7513    5.9601 N   0  0  0  0  0  0  0  0  0  0  0  0
   17.9713   22.0994    5.7054 C   0  0  0  0  0  0  0  0  0  0  0  0
   19.1478   22.6853    6.1650 N   0  0  0  0  0  0  0  0  0  0  0  0
  1  2  1  0  0  0  0
  1  6  1  0  0  0  0
  2  3  2  0  0  0  0
  3  4  1  0  0  0  0
  4  5  2  0  0  0  0
  4 10  1  0  0  0  0
  5  6  1  0  0  0  0
  5  8  1  0  0  0  0
  6  7  2  0  0  0  0
  8  9  1  0  0  0  0
  9 10  2  0  0  0  0
M  END
>  <CHROM.1>
19.60062121,20.62723027,6.84337571,-1.07122825,-0.45427176,-0.21913831

>  <Name>
1u8d_lig

>  <RI>
0

>  <Rbt.Current_Directory>
/home/itssahil/PROJECTS/Mol_Feturizer/New_Systems/rnas/1u8d

>  <Rbt.Executable>
rbdock ($Id: //depot/dev/client3/rdock/2013.1/src/exe/rbdock.cxx#4 $)

>  <Rbt.Library>
libRbt.so (2013.1, Build901 2013/11/27)

>  <Rbt.Parameter_File>
/export/apps/rDock/src/rDock_2013.1_src/data/scripts/dock_solv.prm

>  <Rbt.Receptor>
prm/blind_docking_40.prm

>  <SCORE>
-16.7181

>  <SCORE.INTER>
-16.7181

>  <SCORE.INTER.CONST>
1

>  <SCORE.INTER.POLAR>
-2.39586

>  <SCORE.INTER.ROT>
0

>  <SCORE.INTER.SOLV>
5.96223

>  <SCORE.INTER.VDW>
-8.7466

>  <SCORE.INTER.norm>
-1.67181

>  <SCORE.INTRA>
0

>  <SCORE.INTRA.DIHEDRAL>
0

>  <SCORE.INTRA.DIHEDRAL.0>
0

>  <SCORE.INTRA.POLAR>
0

>  <SCORE.INTRA.POLAR.0>
0

>  <SCORE.INTRA.REPUL>
0

>  <SCORE.INTRA.REPUL.0>
0

>  <SCORE.INTRA.SOLV>
0

>  <SCORE.INTRA.SOLV.lig_0>
-13.7928

>  <SCORE.INTRA.VDW>
0

>  <SCORE.INTRA.VDW.0>
0

>  <SCORE.INTRA.norm>
0

>  <SCORE.RESTR>
0

>  <SCORE.RESTR.CAVITY>
0

>  <SCORE.RESTR.norm>
0

>  <SCORE.SYSTEM>
0

>  <SCORE.SYSTEM.CONST>
0

>  <SCORE.SYSTEM.DIHEDRAL>
0

>  <SCORE.SYSTEM.SOLV>
0

>  <SCORE.SYSTEM.norm>
0

>  <SCORE.heavy>
10

>  <SCORE.norm>
-1.67181

>  <RMSD>
12.669

$$$$
1u8d_lig
 OpenBabel11021811413D
libRbt.so/2013.1/901 2013/11/27
 10 11  0  0  0  0  0  0  0  0999 V2000
   19.2509   22.4966    6.2426 N   0  0  0  0  0  0  0  0  0  0  0  0
   18.0253   22.0355    5.7325 C   0  0  0  0  0  0  0  0  0  0  0  0
   17.6271   20.7394    5.7983 N   0  0  0  0  0  0  0  0  0  0  0  0
   18.5327   19.9438    6.4076 C   0  0  0  0  0  0  0  0  0  0  0  0
   19.8804   20.3832    6.9772 C   0  0  0  0  0  0  0  0  0  0  0  0
   20.2465   21.7347    6.8825 C   0  0  0  0  0  0  0  0  0  0  0  0
   21.2603   22.2998    7.2693 O   0  0  0  0  0  0  0  0  0  0  0  0
   20.4723   19.2640    7.4952 N   0  0  0  0  0  0  0  0  0  0  0  0
   19.6085   18.2143    7.2987 C   0  0  0  0  0  0  0  0  0  0  0  0
   18.4351   18.5858    6.6478 N   0  0  0  0  0  0  0  0  0  0  0  0
  1  2  1  0  0  0  0
  1  6  1  0  0  0  0
  2  3  2  0  0  0  0
  3  4  1  0  0  0  0
  4  5  2  0  0  0  0
  4 10  1  0  0  0  0
  5  6  1  0  0  0  0
  5  8  1  0  0  0  0
  6  7  2  0  0  0  0
  8  9  1  0  0  0  0
  9 10  2  0  0  0  0
M  END
>  <CHROM.1>
19.36039145,20.59671664,6.68276121,1.36115567,-0.44825478,-0.20248092

>  <Name>
1u8d_lig

>  <RI>
0

>  <Rbt.Current_Directory>
/home/itssahil/PROJECTS/Mol_Feturizer/New_Systems/rnas/1u8d

>  <Rbt.Executable>
rbdock ($Id: //depot/dev/client3/rdock/2013.1/src/exe/rbdock.cxx#4 $)

>  <Rbt.Library>
libRbt.so (2013.1, Build901 2013/11/27)

>  <Rbt.Parameter_File>
/export/apps/rDock/src/rDock_2013.1_src/data/scripts/dock_solv.prm

>  <Rbt.Receptor>
prm/blind_docking_40.prm

>  <SCORE>
-16.7181

>  <SCORE.INTER>
-16.7181

>  <SCORE.INTER.CONST>
1

>  <SCORE.INTER.POLAR>
-2.34899

>  <SCORE.INTER.ROT>
0

>  <SCORE.INTER.SOLV>
6.99818

>  <SCORE.INTER.VDW>
-9.24818

>  <SCORE.INTER.norm>
-1.67181

>  <SCORE.INTRA>
0

>  <SCORE.INTRA.DIHEDRAL>
0

>  <SCORE.INTRA.DIHEDRAL.0>
0

>  <SCORE.INTRA.POLAR>
0

>  <SCORE.INTRA.POLAR.0>
0

>  <SCORE.INTRA.REPUL>
0

>  <SCORE.INTRA.REPUL.0>
0

>  <SCORE.INTRA.SOLV>
0

>  <SCORE.INTRA.SOLV.lig_0>
-13.7928

>  <SCORE.INTRA.VDW>
0

>  <SCORE.INTRA.VDW.0>
0

>  <SCORE.INTRA.norm>
0

>  <SCORE.RESTR>
0

>  <SCORE.RESTR.CAVITY>
0

>  <SCORE.RESTR.norm>
0

>  <SCORE.SYSTEM>
0

>  <SCORE.SYSTEM.CONST>
0

>  <SCORE.SYSTEM.DIHEDRAL>
0

>  <SCORE.SYSTEM.SOLV>
0

>  <SCORE.SYSTEM.norm>
0

>  <SCORE.heavy>
10

>  <SCORE.norm>
-1.67181

>  <RMSD>
12.722

$$$$
1u8d_lig
 OpenBabel11021811413D
libRbt.so/2013.1/901 2013/11/27
 10 11  0  0  0  0  0  0  0  0999 V2000
   19.2547   22.4920    6.2340 N   0  0  0  0  0  0  0  0  0  0  0  0
   18.0283   22.0303    5.7263 C   0  0  0  0  0  0  0  0  0  0  0  0
   17.6280   20.7352    5.7987 N   0  0  0  0  0  0  0  0  0  0  0  0
   18.5324   19.9412    6.4120 C   0  0  0  0  0  0  0  0  0  0  0  0
   19.8809   20.3813    6.9792 C   0  0  0  0  0  0  0  0  0  0  0  0
   20.2491   21.7317    6.8777 C   0  0  0  0  0  0  0  0  0  0  0  0
   21.2639   22.2971    7.2616 O   0  0  0  0  0  0  0  0  0  0  0  0
   20.4710   19.2638    7.5029 N   0  0  0  0  0  0  0  0  0  0  0  0
   19.6055   18.2145    7.3117 C   0  0  0  0  0  0  0  0  0  0  0  0
   18.4326   18.5847    6.6591 N   0  0  0  0  0  0  0  0  0  0  0  0
  1  2  1  0  0  0  0
  1  6  1  0  0  0  0
  2  3  2  0  0  0  0
  3  4  1  0  0  0  0
  4  5  2  0  0  0  0
  4 10  1  0  0  0  0
  5  6  1  0  0  0  0
  5  8  1  0  0  0  0
  6  7  2  0  0  0  0
  8  9  1  0  0  0  0
  9 10  2  0  0  0  0
M  END
>  <CHROM.1>
19.36113824,20.59418725,6.68375508,1.35940835,-0.44785204,-0.20831713

>  <Name>
1u8d_lig

>  <RI>
0

>  <Rbt.Current_Directory>
/home/itssahil/PROJECTS/Mol_Feturizer/New_Systems/rnas/1u8d

>  <Rbt.Executable>
rbdock ($Id: //depot/dev/client3/rdock/2013.1/src/exe/rbdock.cxx#4 $)

>  <Rbt.Library>
libRbt.so (2013.1, Build901 2013/11/27)

>  <Rbt.Parameter_File>
/export/apps/rDock/src/rDock_2013.1_src/data/scripts/dock_solv.prm

>  <Rbt.Receptor>
prm/blind_docking_60.prm

>  <SCORE>
-16.7133

>  <SCORE.INTER>
-16.7133

>  <SCORE.INTER.CONST>
1

>  <SCORE.INTER.POLAR>
-2.33926

>  <SCORE.INTER.ROT>
0

>  <SCORE.INTER.SOLV>
7.01024

>  <SCORE.INTER.VDW>
-9.28145

>  <SCORE.INTER.norm>
-1.67133

>  <SCORE.INTRA>
0

>  <SCORE.INTRA.DIHEDRAL>
0

>  <SCORE.INTRA.DIHEDRAL.0>
0

>  <SCORE.INTRA.POLAR>
0

>  <SCORE.INTRA.POLAR.0>
0

>  <SCORE.INTRA.REPUL>
0

>  <SCORE.INTRA.REPUL.0>
0

>  <SCORE.INTRA.SOLV>
0

>  <SCORE.INTRA.SOLV.lig_0>
-13.7928

>  <SCORE.INTRA.VDW>
0

>  <SCORE.INTRA.VDW.0>
0

>  <SCORE.INTRA.norm>
0

>  <SCORE.RESTR>
0

>  <SCORE.RESTR.CAVITY>
0

>  <SCORE.RESTR.norm>
0

>  <SCORE.SYSTEM>
0

>  <SCORE.SYSTEM.CONST>
0

>  <SCORE.SYSTEM.DIHEDRAL>
0

>  <SCORE.SYSTEM.SOLV>
0

>  <SCORE.SYSTEM.norm>
0

>  <SCORE.heavy>
10

>  <SCORE.norm>
-1.67133

>  <RMSD>
12.722

$$$$
1u8d_lig
 OpenBabel11021811413D
libRbt.so/2013.1/901 2013/11/27
 10 11  0  0  0  0  0  0  0  0999 V2000
   19.2529   22.4939    6.2354 N   0  0  0  0  0  0  0  0  0  0  0  0
   18.0282   22.0312    5.7246 C   0  0  0  0  0  0  0  0  0  0  0  0
   17.6297   20.7354    5.7941 N   0  0  0  0  0  0  0  0  0  0  0  0
   18.5341   19.9418    6.4079 C   0  0  0  0  0  0  0  0  0  0  0  0
   19.8807   20.3830    6.9785 C   0  0  0  0  0  0  0  0  0  0  0  0
   20.2472   21.7341    6.8798 C   0  0  0  0  0  0  0  0  0  0  0  0
   21.2603   22.3004    7.2666 O   0  0  0  0  0  0  0  0  0  0  0  0
   20.4715   19.2655    7.5015 N   0  0  0  0  0  0  0  0  0  0  0  0
   19.6079   18.2152    7.3070 C   0  0  0  0  0  0  0  0  0  0  0  0
   18.4358   18.5847    6.6526 N   0  0  0  0  0  0  0  0  0  0  0  0
  1  2  1  0  0  0  0
  1  6  1  0  0  0  0
  2  3  2  0  0  0  0
  3  4  1  0  0  0  0
  4  5  2  0  0  0  0
  4 10  1  0  0  0  0
  5  6  1  0  0  0  0
  5  8  1  0  0  0  0
  6  7  2  0  0  0  0
  8  9  1  0  0  0  0
  9 10  2  0  0  0  0
M  END
>  <CHROM.1>
19.36128023,20.59556446,6.68234844,1.36057547,-0.45007732,-0.20620563

>  <Name>
1u8d_lig

>  <RI>
0

>  <Rbt.Current_Directory>
/home/itssahil/PROJECTS/Mol_Feturizer/New_Systems/rnas/1u8d

>  <Rbt.Executable>
rbdock ($Id: //depot/dev/client3/rdock/2013.1/src/exe/rbdock.cxx#4 $)

>  <Rbt.Library>
libRbt.so (2013.1, Build901 2013/11/27)

>  <Rbt.Parameter_File>
/export/apps/rDock/src/rDock_2013.1_src/data/scripts/dock_solv.prm

>  <Rbt.Receptor>
prm/blind_docking_60.prm

>  <SCORE>
-16.718

>  <SCORE.INTER>
-16.718

>  <SCORE.INTER.CONST>
1

>  <SCORE.INTER.POLAR>
-2.3402

>  <SCORE.INTER.ROT>
0

>  <SCORE.INTER.SOLV>
7.00714

>  <SCORE.INTER.VDW>
-9.28034

>  <SCORE.INTER.norm>
-1.6718

>  <SCORE.INTRA>
0

>  <SCORE.INTRA.DIHEDRAL>
0

>  <SCORE.INTRA.DIHEDRAL.0>
0

>  <SCORE.INTRA.POLAR>
0

>  <SCORE.INTRA.POLAR.0>
0

>  <SCORE.INTRA.REPUL>
0

>  <SCORE.INTRA.REPUL.0>
0

>  <SCORE.INTRA.SOLV>
0

>  <SCORE.INTRA.SOLV.lig_0>
-13.7928

>  <SCORE.INTRA.VDW>
0

>  <SCORE.INTRA.VDW.0>
0

>  <SCORE.INTRA.norm>
0

>  <SCORE.RESTR>
0

>  <SCORE.RESTR.CAVITY>
0

>  <SCORE.RESTR.norm>
0

>  <SCORE.SYSTEM>
0

>  <SCORE.SYSTEM.CONST>
0

>  <SCORE.SYSTEM.DIHEDRAL>
0

>  <SCORE.SYSTEM.SOLV>
0

>  <SCORE.SYSTEM.norm>
0

>  <SCORE.heavy>
10

>  <SCORE.norm>
-1.6718

>  <RMSD>
12.723

$$$$
1u8d_lig
 OpenBabel11021811413D
libRbt.so/2013.1/901 2013/11/27
 10 11  0  0  0  0  0  0  0  0999 V2000
   20.0168   18.7392    8.1476 N   0  0  0  0  0  0  0  0  0  0  0  0
   20.8800   19.4666    8.9847 C   0  0  0  0  0  0  0  0  0  0  0  0
   21.0657   20.8076    8.8850 N   0  0  0  0  0  0  0  0  0  0  0  0
   20.3311   21.3659    7.8986 C   0  0  0  0  0  0  0  0  0  0  0  0
   19.3811   20.6304    6.9551 C   0  0  0  0  0  0  0  0  0  0  0  0
   19.2254   19.2430    7.0982 C   0  0  0  0  0  0  0  0  0  0  0  0
   18.5246   18.4648    6.4657 O   0  0  0  0  0  0  0  0  0  0  0  0
   18.8526   21.5725    6.1158 N   0  0  0  0  0  0  0  0  0  0  0  0
   19.3852   22.7868    6.4743 C   0  0  0  0  0  0  0  0  0  0  0  0
   20.2772   22.6999    7.5397 N   0  0  0  0  0  0  0  0  0  0  0  0
  1  2  1  0  0  0  0
  1  6  1  0  0  0  0
  2  3  2  0  0  0  0
  3  4  1  0  0  0  0
  4  5  2  0  0  0  0
  4 10  1  0  0  0  0
  5  6  1  0  0  0  0
  5  8  1  0  0  0  0
  6  7  2  0  0  0  0
  8  9  1  0  0  0  0
  9 10  2  0  0  0  0
M  END
>  <CHROM.1>
19.77673447,20.54552724,7.44392897,-1.65257070,-0.85050882,-0.22736982

>  <Name>
1u8d_lig

>  <RI>
0

>  <Rbt.Current_Directory>
/home/itssahil/PROJECTS/Mol_Feturizer/New_Systems/rnas/1u8d

>  <Rbt.Executable>
rbdock ($Id: //depot/dev/client3/rdock/2013.1/src/exe/rbdock.cxx#4 $)

>  <Rbt.Library>
libRbt.so (2013.1, Build901 2013/11/27)

>  <Rbt.Parameter_File>
/export/apps/rDock/src/rDock_2013.1_src/data/scripts/dock_solv.prm

>  <Rbt.Receptor>
prm/blind_docking_40.prm

>  <SCORE>
-13.0071

>  <SCORE.INTER>
-13.0071

>  <SCORE.INTER.CONST>
1

>  <SCORE.INTER.POLAR>
-1.5377

>  <SCORE.INTER.ROT>
0

>  <SCORE.INTER.SOLV>
5.53898

>  <SCORE.INTER.VDW>
-8.99206

>  <SCORE.INTER.norm>
-1.30071

>  <SCORE.INTRA>
0

>  <SCORE.INTRA.DIHEDRAL>
0

>  <SCORE.INTRA.DIHEDRAL.0>
0

>  <SCORE.INTRA.POLAR>
0

>  <SCORE.INTRA.POLAR.0>
0

>  <SCORE.INTRA.REPUL>
0

>  <SCORE.INTRA.REPUL.0>
0

>  <SCORE.INTRA.SOLV>
0

>  <SCORE.INTRA.SOLV.lig_0>
-13.7928

>  <SCORE.INTRA.VDW>
0

>  <SCORE.INTRA.VDW.0>
0

>  <SCORE.INTRA.norm>
0

>  <SCORE.RESTR>
0

>  <SCORE.RESTR.CAVITY>
0

>  <SCORE.RESTR.norm>
0

>  <SCORE.SYSTEM>
0

>  <SCORE.SYSTEM.CONST>
0

>  <SCORE.SYSTEM.DIHEDRAL>
0

>  <SCORE.SYSTEM.SOLV>
0

>  <SCORE.SYSTEM.norm>
0

>  <SCORE.heavy>
10

>  <SCORE.norm>
-1.30071

>  <RMSD>
12.769

$$$$
1u8d_lig
 OpenBabel11021811413D
libRbt.so/2013.1/901 2013/11/27
 10 11  0  0  0  0  0  0  0  0999 V2000
   20.2504   18.6505    7.9461 N   0  0  0  0  0  0  0  0  0  0  0  0
   21.2203   19.3509    8.6835 C   0  0  0  0  0  0  0  0  0  0  0  0
   21.3944   20.6948    8.6050 N   0  0  0  0  0  0  0  0  0  0  0  0
   20.5351   21.2847    7.7459 C   0  0  0  0  0  0  0  0  0  0  0  0
   19.4647   20.5796    6.9146 C   0  0  0  0  0  0  0  0  0  0  0  0
   19.3262   19.1878    7.0305 C   0  0  0  0  0  0  0  0  0  0  0  0
   18.5447   18.4300    6.4722 O   0  0  0  0  0  0  0  0  0  0  0  0
   18.8305   21.5485    6.1864 N   0  0  0  0  0  0  0  0  0  0  0  0
   19.4095   22.7510    6.5107 C   0  0  0  0  0  0  0  0  0  0  0  0
   20.4367   22.6299    7.4428 N   0  0  0  0  0  0  0  0  0  0  0  0
  1  2  1  0  0  0  0
  1  6  1  0  0  0  0
  2  3  2  0  0  0  0
  3  4  1  0  0  0  0
  4  5  2  0  0  0  0
  4 10  1  0  0  0  0
  5  6  1  0  0  0  0
  5  8  1  0  0  0  0
  6  7  2  0  0  0  0
  8  9  1  0  0  0  0
  9 10  2  0  0  0  0
M  END
>  <CHROM.1>
19.92240623,20.47903198,7.34259129,-1.61554109,-0.71797626,-0.16721412

>  <Name>
1u8d_lig

>  <RI>
0

>  <Rbt.Current_Directory>
/home/itssahil/PROJECTS/Mol_Feturizer/New_Systems/rnas/1u8d

>  <Rbt.Executable>
rbdock ($Id: //depot/dev/client3/rdock/2013.1/src/exe/rbdock.cxx#4 $)

>  <Rbt.Library>
libRbt.so (2013.1, Build901 2013/11/27)

>  <Rbt.Parameter_File>
/export/apps/rDock/src/rDock_2013.1_src/data/scripts/dock_solv.prm

>  <Rbt.Receptor>
prm/blind_docking_40.prm

>  <SCORE>
-12.9908

>  <SCORE.INTER>
-12.9908

>  <SCORE.INTER.CONST>
1

>  <SCORE.INTER.POLAR>
-1.54202

>  <SCORE.INTER.ROT>
0

>  <SCORE.INTER.SOLV>
5.67302

>  <SCORE.INTER.VDW>
-9.01149

>  <SCORE.INTER.norm>
-1.29908

>  <SCORE.INTRA>
0

>  <SCORE.INTRA.DIHEDRAL>
0

>  <SCORE.INTRA.DIHEDRAL.0>
0

>  <SCORE.INTRA.POLAR>
0

>  <SCORE.INTRA.POLAR.0>
0

>  <SCORE.INTRA.REPUL>
0

>  <SCORE.INTRA.REPUL.0>
0

>  <SCORE.INTRA.SOLV>
0

>  <SCORE.INTRA.SOLV.lig_0>
-13.7928

>  <SCORE.INTRA.VDW>
0

>  <SCORE.INTRA.VDW.0>
0

>  <SCORE.INTRA.norm>
0

>  <SCORE.RESTR>
0

>  <SCORE.RESTR.CAVITY>
0

>  <SCORE.RESTR.norm>
0

>  <SCORE.SYSTEM>
0

>  <SCORE.SYSTEM.CONST>
0

>  <SCORE.SYSTEM.DIHEDRAL>
0

>  <SCORE.SYSTEM.SOLV>
0

>  <SCORE.SYSTEM.norm>
0

>  <SCORE.heavy>
10

>  <SCORE.norm>
-1.29908

>  <RMSD>
12.831

$$$$
1u8d_lig
 OpenBabel11021811413D
libRbt.so/2013.1/901 2013/11/27
 10 11  0  0  0  0  0  0  0  0999 V2000
   18.7162   22.8678    6.2253 N   0  0  0  0  0  0  0  0  0  0  0  0
   17.7149   22.1941    5.5052 C   0  0  0  0  0  0  0  0  0  0  0  0
   17.5483   20.8472    5.5357 N   0  0  0  0  0  0  0  0  0  0  0  0
   18.4450   20.2267    6.3329 C   0  0  0  0  0  0  0  0  0  0  0  0
   19.5563   20.9010    7.1355 C   0  0  0  0  0  0  0  0  0  0  0  0
   19.6877   22.2966    7.0686 C   0  0  0  0  0  0  0  0  0  0  0  0
   20.4901   23.0346    7.6238 O   0  0  0  0  0  0  0  0  0  0  0  0
   20.2255   19.9058    7.7935 N   0  0  0  0  0  0  0  0  0  0  0  0
   19.6170   18.7178    7.4695 C   0  0  0  0  0  0  0  0  0  0  0  0
   18.5454   18.8729    6.5942 N   0  0  0  0  0  0  0  0  0  0  0  0
  1  2  1  0  0  0  0
  1  6  1  0  0  0  0
  2  3  2  0  0  0  0
  3  4  1  0  0  0  0
  4  5  2  0  0  0  0
  4 10  1  0  0  0  0
  5  6  1  0  0  0  0
  5  8  1  0  0  0  0
  6  7  2  0  0  0  0
  8  9  1  0  0  0  0
  9 10  2  0  0  0  0
M  END
>  <CHROM.1>
19.07388830,21.01778517,6.74004568,1.53440149,-0.67108580,-0.12509252

>  <Name>
1u8d_lig

>  <RI>
0

>  <Rbt.Current_Directory>
/home/itssahil/PROJECTS/Mol_Feturizer/New_Systems/rnas/1u8d

>  <Rbt.Executable>
rbdock ($Id: //depot/dev/client3/rdock/2013.1/src/exe/rbdock.cxx#4 $)

>  <Rbt.Library>
libRbt.so (2013.1, Build901 2013/11/27)

>  <Rbt.Parameter_File>
/export/apps/rDock/src/rDock_2013.1_src/data/scripts/dock_solv.prm

>  <Rbt.Receptor>
prm/blind_docking_60.prm

>  <SCORE>
-14.2008

>  <SCORE.INTER>
-14.2008

>  <SCORE.INTER.CONST>
1

>  <SCORE.INTER.POLAR>
-1.19696

>  <SCORE.INTER.ROT>
0

>  <SCORE.INTER.SOLV>
5.70296

>  <SCORE.INTER.VDW>
-10.9783

>  <SCORE.INTER.norm>
-1.42008

>  <SCORE.INTRA>
0

>  <SCORE.INTRA.DIHEDRAL>
0

>  <SCORE.INTRA.DIHEDRAL.0>
0

>  <SCORE.INTRA.POLAR>
0

>  <SCORE.INTRA.POLAR.0>
0

>  <SCORE.INTRA.REPUL>
0

>  <SCORE.INTRA.REPUL.0>
0

>  <SCORE.INTRA.SOLV>
0

>  <SCORE.INTRA.SOLV.lig_0>
-13.7928

>  <SCORE.INTRA.VDW>
0

>  <SCORE.INTRA.VDW.0>
0

>  <SCORE.INTRA.norm>
0

>  <SCORE.RESTR>
0

>  <SCORE.RESTR.CAVITY>
0

>  <SCORE.RESTR.norm>
0

>  <SCORE.SYSTEM>
0

>  <SCORE.SYSTEM.CONST>
0

>  <SCORE.SYSTEM.DIHEDRAL>
0

>  <SCORE.SYSTEM.SOLV>
0

>  <SCORE.SYSTEM.norm>
0

>  <SCORE.heavy>
10

>  <SCORE.norm>
-1.42008

>  <RMSD>
12.898

$$$$
1u8d_lig
 OpenBabel11021811413D
libRbt.so/2013.1/901 2013/11/27
 10 11  0  0  0  0  0  0  0  0999 V2000
   20.2671   22.7317    7.5519 N   0  0  0  0  0  0  0  0  0  0  0  0
   18.9956   22.7480    6.9536 C   0  0  0  0  0  0  0  0  0  0  0  0
   18.2986   21.6247    6.6456 N   0  0  0  0  0  0  0  0  0  0  0  0
   18.9564   20.4927    6.9779 C   0  0  0  0  0  0  0  0  0  0  0  0
   20.3380   20.4095    7.6244 C   0  0  0  0  0  0  0  0  0  0  0  0
   21.0186   21.6004    7.9216 C   0  0  0  0  0  0  0  0  0  0  0  0
   22.1157   21.7671    8.4366 O   0  0  0  0  0  0  0  0  0  0  0  0
   20.6196   19.0801    7.7810 N   0  0  0  0  0  0  0  0  0  0  0  0
   19.5431   18.3732    7.3034 C   0  0  0  0  0  0  0  0  0  0  0  0
   18.5271   19.1891    6.8127 N   0  0  0  0  0  0  0  0  0  0  0  0
  1  2  1  0  0  0  0
  1  6  1  0  0  0  0
  2  3  2  0  0  0  0
  3  4  1  0  0  0  0
  4  5  2  0  0  0  0
  4 10  1  0  0  0  0
  5  6  1  0  0  0  0
  5  8  1  0  0  0  0
  6  7  2  0  0  0  0
  8  9  1  0  0  0  0
  9 10  2  0  0  0  0
M  END
>  <CHROM.1>
19.89965765,20.81809437,7.41549026,1.08974714,-0.43763233,-0.02039506

>  <Name>
1u8d_lig

>  <RI>
0

>  <Rbt.Current_Directory>
/home/itssahil/PROJECTS/Mol_Feturizer/New_Systems/rnas/1u8d

>  <Rbt.Executable>
rbdock ($Id: //depot/dev/client3/rdock/2013.1/src/exe/rbdock.cxx#4 $)

>  <Rbt.Library>
libRbt.so (2013.1, Build901 2013/11/27)

>  <Rbt.Parameter_File>
/export/apps/rDock/src/rDock_2013.1_src/data/scripts/dock_solv.prm

>  <Rbt.Receptor>
prm/blind_docking_80.prm

>  <SCORE>
-12.002

>  <SCORE.INTER>
-12.002

>  <SCORE.INTER.CONST>
1

>  <SCORE.INTER.POLAR>
-1.75253

>  <SCORE.INTER.ROT>
0

>  <SCORE.INTER.SOLV>
4.33455

>  <SCORE.INTER.VDW>
-7.20441

>  <SCORE.INTER.norm>
-1.2002

>  <SCORE.INTRA>
0

>  <SCORE.INTRA.DIHEDRAL>
0

>  <SCORE.INTRA.DIHEDRAL.0>
0

>  <SCORE.INTRA.POLAR>
0

>  <SCORE.INTRA.POLAR.0>
0

>  <SCORE.INTRA.REPUL>
0

>  <SCORE.INTRA.REPUL.0>
0

>  <SCORE.INTRA.SOLV>
0

>  <SCORE.INTRA.SOLV.lig_0>
-13.7928

>  <SCORE.INTRA.VDW>
0

>  <SCORE.INTRA.VDW.0>
0

>  <SCORE.INTRA.norm>
0

>  <SCORE.RESTR>
0

>  <SCORE.RESTR.CAVITY>
0

>  <SCORE.RESTR.norm>
0

>  <SCORE.SYSTEM>
0

>  <SCORE.SYSTEM.CONST>
0

>  <SCORE.SYSTEM.DIHEDRAL>
0

>  <SCORE.SYSTEM.SOLV>
0

>  <SCORE.SYSTEM.norm>
0

>  <SCORE.heavy>
10

>  <SCORE.norm>
-1.2002

>  <RMSD>
13.116

$$$$
1u8d_lig
 OpenBabel11021811413D
libRbt.so/2013.1/901 2013/11/27
 10 11  0  0  0  0  0  0  0  0999 V2000
   19.7845   21.6115    6.4675 N   0  0  0  0  0  0  0  0  0  0  0  0
   19.2229   22.8665    6.7584 C   0  0  0  0  0  0  0  0  0  0  0  0
   19.6784   23.6801    7.7449 N   0  0  0  0  0  0  0  0  0  0  0  0
   20.7285   23.1554    8.4131 C   0  0  0  0  0  0  0  0  0  0  0  0
   21.3792   21.7989    8.1481 C   0  0  0  0  0  0  0  0  0  0  0  0
   20.8697   20.9942    7.1174 C   0  0  0  0  0  0  0  0  0  0  0  0
   21.2339   19.8912    6.7331 O   0  0  0  0  0  0  0  0  0  0  0  0
   22.3979   21.6681    9.0517 N   0  0  0  0  0  0  0  0  0  0  0  0
   22.4204   22.8107    9.8135 C   0  0  0  0  0  0  0  0  0  0  0  0
   21.4317   23.7245    9.4585 N   0  0  0  0  0  0  0  0  0  0  0  0
  1  2  1  0  0  0  0
  1  6  1  0  0  0  0
  2  3  2  0  0  0  0
  3  4  1  0  0  0  0
  4  5  2  0  0  0  0
  4 10  1  0  0  0  0
  5  6  1  0  0  0  0
  5  8  1  0  0  0  0
  6  7  2  0  0  0  0
  8  9  1  0  0  0  0
  9 10  2  0  0  0  0
M  END
>  <CHROM.1>
20.91736648,22.18698736,7.95105747,2.14312777,0.67954576,-2.55680713

>  <Name>
1u8d_lig

>  <RI>
0

>  <Rbt.Current_Directory>
/home/itssahil/PROJECTS/Mol_Feturizer/New_Systems/rnas/1u8d

>  <Rbt.Executable>
rbdock ($Id: //depot/dev/client3/rdock/2013.1/src/exe/rbdock.cxx#4 $)

>  <Rbt.Library>
libRbt.so (2013.1, Build901 2013/11/27)

>  <Rbt.Parameter_File>
/export/apps/rDock/src/rDock_2013.1_src/data/scripts/dock_solv.prm

>  <Rbt.Receptor>
prm/blind_docking_100.prm

>  <SCORE>
-10.5035

>  <SCORE.INTER>
-10.5035

>  <SCORE.INTER.CONST>
1

>  <SCORE.INTER.POLAR>
-1.86832

>  <SCORE.INTER.ROT>
0

>  <SCORE.INTER.SOLV>
3.39902

>  <SCORE.INTER.VDW>
-5.5076

>  <SCORE.INTER.norm>
-1.05035

>  <SCORE.INTRA>
0

>  <SCORE.INTRA.DIHEDRAL>
0

>  <SCORE.INTRA.DIHEDRAL.0>
0

>  <SCORE.INTRA.POLAR>
0

>  <SCORE.INTRA.POLAR.0>
0

>  <SCORE.INTRA.REPUL>
0

>  <SCORE.INTRA.REPUL.0>
0

>  <SCORE.INTRA.SOLV>
0

>  <SCORE.INTRA.SOLV.lig_0>
-13.7928

>  <SCORE.INTRA.VDW>
0

>  <SCORE.INTRA.VDW.0>
0

>  <SCORE.INTRA.norm>
0

>  <SCORE.RESTR>
0

>  <SCORE.RESTR.CAVITY>
0

>  <SCORE.RESTR.norm>
0

>  <SCORE.SYSTEM>
0

>  <SCORE.SYSTEM.CONST>
0

>  <SCORE.SYSTEM.DIHEDRAL>
0

>  <SCORE.SYSTEM.SOLV>
0

>  <SCORE.SYSTEM.norm>
0

>  <SCORE.heavy>
10

>  <SCORE.norm>
-1.05035

>  <RMSD>
14.874

$$$$
1u8d_lig
 OpenBabel11021811413D
libRbt.so/2013.1/901 2013/11/27
 10 11  0  0  0  0  0  0  0  0999 V2000
   32.7175   12.0316   13.2368 N   0  0  0  0  0  0  0  0  0  0  0  0
   34.0764   11.7877   13.4995 C   0  0  0  0  0  0  0  0  0  0  0  0
   34.5122   10.8550   14.3844 N   0  0  0  0  0  0  0  0  0  0  0  0
   33.5013   10.1870   14.9813 C   0  0  0  0  0  0  0  0  0  0  0  0
   32.0089   10.4085   14.7421 C   0  0  0  0  0  0  0  0  0  0  0  0
   31.6098   11.3864   13.8180 C   0  0  0  0  0  0  0  0  0  0  0  0
   30.4858   11.7234   13.4716 O   0  0  0  0  0  0  0  0  0  0  0  0
   31.3457    9.5266   15.5508 N   0  0  0  0  0  0  0  0  0  0  0  0
   32.2930    8.8027   16.2328 C   0  0  0  0  0  0  0  0  0  0  0  0
   33.5973    9.1733   15.9164 N   0  0  0  0  0  0  0  0  0  0  0  0
  1  2  1  0  0  0  0
  1  6  1  0  0  0  0
  2  3  2  0  0  0  0
  3  4  1  0  0  0  0
  4  5  2  0  0  0  0
  4 10  1  0  0  0  0
  5  6  1  0  0  0  0
  5  8  1  0  0  0  0
  6  7  2  0  0  0  0
  8  9  1  0  0  0  0
  9 10  2  0  0  0  0
M  END
>  <CHROM.1>
32.58553471,10.60617623,14.56579164,-1.77426844,0.01716286,2.39164687

>  <Name>
1u8d_lig

>  <RI>
0

>  <Rbt.Current_Directory>
/home/itssahil/PROJECTS/Mol_Feturizer/New_Systems/rnas/1u8d

>  <Rbt.Executable>
rbdock ($Id: //depot/dev/client3/rdock/2013.1/src/exe/rbdock.cxx#4 $)

>  <Rbt.Library>
libRbt.so (2013.1, Build901 2013/11/27)

>  <Rbt.Parameter_File>
/export/apps/rDock/src/rDock_2013.1_src/data/scripts/dock_solv.prm

>  <Rbt.Receptor>
prm/blind_docking_80.prm

>  <SCORE>
-9.35847

>  <SCORE.INTER>
-9.35847

>  <SCORE.INTER.CONST>
1

>  <SCORE.INTER.POLAR>
-0.751681

>  <SCORE.INTER.ROT>
0

>  <SCORE.INTER.SOLV>
4.17191

>  <SCORE.INTER.VDW>
-8.72401

>  <SCORE.INTER.norm>
-0.935847

>  <SCORE.INTRA>
0

>  <SCORE.INTRA.DIHEDRAL>
0

>  <SCORE.INTRA.DIHEDRAL.0>
0

>  <SCORE.INTRA.POLAR>
0

>  <SCORE.INTRA.POLAR.0>
0

>  <SCORE.INTRA.REPUL>
0

>  <SCORE.INTRA.REPUL.0>
0

>  <SCORE.INTRA.SOLV>
0

>  <SCORE.INTRA.SOLV.lig_0>
-13.7928

>  <SCORE.INTRA.VDW>
0

>  <SCORE.INTRA.VDW.0>
0

>  <SCORE.INTRA.norm>
0

>  <SCORE.RESTR>
0

>  <SCORE.RESTR.CAVITY>
0

>  <SCORE.RESTR.norm>
0

>  <SCORE.SYSTEM>
0

>  <SCORE.SYSTEM.CONST>
0

>  <SCORE.SYSTEM.DIHEDRAL>
0

>  <SCORE.SYSTEM.SOLV>
0

>  <SCORE.SYSTEM.norm>
0

>  <SCORE.heavy>
10

>  <SCORE.norm>
-0.935847

>  <RMSD>
22.687

$$$$
1u8d_lig
 OpenBabel11021811413D
libRbt.so/2013.1/901 2013/11/27
 10 11  0  0  0  0  0  0  0  0999 V2000
   32.0957   17.4370    9.0018 N   0  0  0  0  0  0  0  0  0  0  0  0
   32.6563   16.1657    9.2126 C   0  0  0  0  0  0  0  0  0  0  0  0
   33.9768   15.9598    9.4502 N   0  0  0  0  0  0  0  0  0  0  0  0
   34.6911   17.1060    9.4646 C   0  0  0  0  0  0  0  0  0  0  0  0
   34.1420   18.5136    9.2386 C   0  0  0  0  0  0  0  0  0  0  0  0
   32.7691   18.6729    8.9949 C   0  0  0  0  0  0  0  0  0  0  0  0
   32.1230   19.6924    8.7950 O   0  0  0  0  0  0  0  0  0  0  0  0
   35.2040   19.3704    9.3353 N   0  0  0  0  0  0  0  0  0  0  0  0
   36.3185   18.6142    9.6049 C   0  0  0  0  0  0  0  0  0  0  0  0
   36.0476   17.2510    9.6882 N   0  0  0  0  0  0  0  0  0  0  0  0
  1  2  1  0  0  0  0
  1  6  1  0  0  0  0
  2  3  2  0  0  0  0
  3  4  1  0  0  0  0
  4  5  2  0  0  0  0
  4 10  1  0  0  0  0
  5  6  1  0  0  0  0
  5  8  1  0  0  0  0
  6  7  2  0  0  0  0
  8  9  1  0  0  0  0
  9 10  2  0  0  0  0
M  END
>  <CHROM.1>
33.97335677,17.90267446,9.27155770,3.09694409,-0.16635293,-0.09337138

>  <Name>
1u8d_lig

>  <RI>
0

>  <Rbt.Current_Directory>
/home/itssahil/PROJECTS/Mol_Feturizer/New_Systems/rnas/1u8d

>  <Rbt.Executable>
rbdock ($Id: //depot/dev/client3/rdock/2013.1/src/exe/rbdock.cxx#4 $)

>  <Rbt.Library>
libRbt.so (2013.1, Build901 2013/11/27)

>  <Rbt.Parameter_File>
/export/apps/rDock/src/rDock_2013.1_src/data/scripts/dock_solv.prm

>  <Rbt.Receptor>
prm/blind_docking_80.prm

>  <SCORE>
-12.4228

>  <SCORE.INTER>
-12.4228

>  <SCORE.INTER.CONST>
1

>  <SCORE.INTER.POLAR>
-0.614646

>  <SCORE.INTER.ROT>
0

>  <SCORE.INTER.SOLV>
6.33709

>  <SCORE.INTER.VDW>
-11.9454

>  <SCORE.INTER.norm>
-1.24228

>  <SCORE.INTRA>
0

>  <SCORE.INTRA.DIHEDRAL>
0

>  <SCORE.INTRA.DIHEDRAL.0>
0

>  <SCORE.INTRA.POLAR>
0

>  <SCORE.INTRA.POLAR.0>
0

>  <SCORE.INTRA.REPUL>
0

>  <SCORE.INTRA.REPUL.0>
0

>  <SCORE.INTRA.SOLV>
0

>  <SCORE.INTRA.SOLV.lig_0>
-13.7928

>  <SCORE.INTRA.VDW>
0

>  <SCORE.INTRA.VDW.0>
0

>  <SCORE.INTRA.norm>
0

>  <SCORE.RESTR>
0

>  <SCORE.RESTR.CAVITY>
0

>  <SCORE.RESTR.norm>
0

>  <SCORE.SYSTEM>
0

>  <SCORE.SYSTEM.CONST>
0

>  <SCORE.SYSTEM.DIHEDRAL>
0

>  <SCORE.SYSTEM.SOLV>
0

>  <SCORE.SYSTEM.norm>
0

>  <SCORE.heavy>
10

>  <SCORE.norm>
-1.24228

>  <RMSD>
23.916

$$$$
1u8d_lig
 OpenBabel11021811413D
libRbt.so/2013.1/901 2013/11/27
 10 11  0  0  0  0  0  0  0  0999 V2000
   36.3560   19.8308    9.9695 N   0  0  0  0  0  0  0  0  0  0  0  0
   36.6354   18.4968   10.3121 C   0  0  0  0  0  0  0  0  0  0  0  0
   35.7628   17.4753   10.1173 N   0  0  0  0  0  0  0  0  0  0  0  0
   34.6014   17.8784    9.5577 C   0  0  0  0  0  0  0  0  0  0  0  0
   34.2374   19.3099    9.1677 C   0  0  0  0  0  0  0  0  0  0  0  0
   35.1741   20.3308    9.3915 C   0  0  0  0  0  0  0  0  0  0  0  0
   35.0973   21.5287    9.1551 O   0  0  0  0  0  0  0  0  0  0  0  0
   32.9748   19.2658    8.6432 N   0  0  0  0  0  0  0  0  0  0  0  0
   32.5626   17.9560    8.6747 C   0  0  0  0  0  0  0  0  0  0  0  0
   33.5133   17.0961    9.2182 N   0  0  0  0  0  0  0  0  0  0  0  0
  1  2  1  0  0  0  0
  1  6  1  0  0  0  0
  2  3  2  0  0  0  0
  3  4  1  0  0  0  0
  4  5  2  0  0  0  0
  4 10  1  0  0  0  0
  5  6  1  0  0  0  0
  5  8  1  0  0  0  0
  6  7  2  0  0  0  0
  8  9  1  0  0  0  0
  9 10  2  0  0  0  0
M  END
>  <CHROM.1>
34.69983161,18.95442656,9.41783536,-0.67859912,0.39535914,2.97703400

>  <Name>
1u8d_lig

>  <RI>
0

>  <Rbt.Current_Directory>
/home/itssahil/PROJECTS/Mol_Feturizer/New_Systems/rnas/1u8d

>  <Rbt.Executable>
rbdock ($Id: //depot/dev/client3/rdock/2013.1/src/exe/rbdock.cxx#4 $)

>  <Rbt.Library>
libRbt.so (2013.1, Build901 2013/11/27)

>  <Rbt.Parameter_File>
/export/apps/rDock/src/rDock_2013.1_src/data/scripts/dock_solv.prm

>  <Rbt.Receptor>
prm/blind_docking_100.prm

>  <SCORE>
-15.5963

>  <SCORE.INTER>
-15.5963

>  <SCORE.INTER.CONST>
1

>  <SCORE.INTER.POLAR>
-1.64664

>  <SCORE.INTER.ROT>
0

>  <SCORE.INTER.SOLV>
8.3571

>  <SCORE.INTER.VDW>
-11.2944

>  <SCORE.INTER.norm>
-1.55963

>  <SCORE.INTRA>
0

>  <SCORE.INTRA.DIHEDRAL>
0

>  <SCORE.INTRA.DIHEDRAL.0>
0

>  <SCORE.INTRA.POLAR>
0

>  <SCORE.INTRA.POLAR.0>
0

>  <SCORE.INTRA.REPUL>
0

>  <SCORE.INTRA.REPUL.0>
0

>  <SCORE.INTRA.SOLV>
0

>  <SCORE.INTRA.SOLV.lig_0>
-13.7928

>  <SCORE.INTRA.VDW>
0

>  <SCORE.INTRA.VDW.0>
0

>  <SCORE.INTRA.norm>
0

>  <SCORE.RESTR>
0

>  <SCORE.RESTR.CAVITY>
0

>  <SCORE.RESTR.norm>
0

>  <SCORE.SYSTEM>
0

>  <SCORE.SYSTEM.CONST>
0

>  <SCORE.SYSTEM.DIHEDRAL>
0

>  <SCORE.SYSTEM.SOLV>
0

>  <SCORE.SYSTEM.norm>
0

>  <SCORE.heavy>
10

>  <SCORE.norm>
-1.55963

>  <RMSD>
24.821

$$$$
1u8d_lig
 OpenBabel11021811413D
libRbt.so/2013.1/901 2013/11/27
 10 11  0  0  0  0  0  0  0  0999 V2000
   34.1600   17.2642    9.3413 N   0  0  0  0  0  0  0  0  0  0  0  0
   35.5133   16.8855    9.3585 C   0  0  0  0  0  0  0  0  0  0  0  0
   36.5354   17.7496    9.1319 N   0  0  0  0  0  0  0  0  0  0  0  0
   36.1123   19.0096    8.8914 C   0  0  0  0  0  0  0  0  0  0  0  0
   34.6598   19.4814    8.8549 C   0  0  0  0  0  0  0  0  0  0  0  0
   33.6392   18.5482    9.0941 C   0  0  0  0  0  0  0  0  0  0  0  0
   32.4261   18.7044    9.1187 O   0  0  0  0  0  0  0  0  0  0  0  0
   34.6880   20.8202    8.5754 N   0  0  0  0  0  0  0  0  0  0  0  0
   36.0062   21.1867    8.4540 C   0  0  0  0  0  0  0  0  0  0  0  0
   36.8882   20.1249    8.6364 N   0  0  0  0  0  0  0  0  0  0  0  0
  1  2  1  0  0  0  0
  1  6  1  0  0  0  0
  2  3  2  0  0  0  0
  3  4  1  0  0  0  0
  4  5  2  0  0  0  0
  4 10  1  0  0  0  0
  5  6  1  0  0  0  0
  5  8  1  0  0  0  0
  6  7  2  0  0  0  0
  8  9  1  0  0  0  0
  9 10  2  0  0  0  0
M  END
>  <CHROM.1>
35.02495895,18.97096314,8.94875917,-2.30111047,0.04210051,-0.20344745

>  <Name>
1u8d_lig

>  <RI>
0

>  <Rbt.Current_Directory>
/home/itssahil/PROJECTS/Mol_Feturizer/New_Systems/rnas/1u8d

>  <Rbt.Executable>
rbdock ($Id: //depot/dev/client3/rdock/2013.1/src/exe/rbdock.cxx#4 $)

>  <Rbt.Library>
libRbt.so (2013.1, Build901 2013/11/27)

>  <Rbt.Parameter_File>
/export/apps/rDock/src/rDock_2013.1_src/data/scripts/dock_solv.prm

>  <Rbt.Receptor>
prm/blind_docking_100.prm

>  <SCORE>
-11.7474

>  <SCORE.INTER>
-11.7474

>  <SCORE.INTER.CONST>
1

>  <SCORE.INTER.POLAR>
-0.321572

>  <SCORE.INTER.ROT>
0

>  <SCORE.INTER.SOLV>
8.05189

>  <SCORE.INTER.VDW>
-13.0437

>  <SCORE.INTER.norm>
-1.17474

>  <SCORE.INTRA>
0

>  <SCORE.INTRA.DIHEDRAL>
0

>  <SCORE.INTRA.DIHEDRAL.0>
0

>  <SCORE.INTRA.POLAR>
0

>  <SCORE.INTRA.POLAR.0>
0

>  <SCORE.INTRA.REPUL>
0

>  <SCORE.INTRA.REPUL.0>
0

>  <SCORE.INTRA.SOLV>
0

>  <SCORE.INTRA.SOLV.lig_0>
-13.7928

>  <SCORE.INTRA.VDW>
0

>  <SCORE.INTRA.VDW.0>
0

>  <SCORE.INTRA.norm>
0

>  <SCORE.RESTR>
0

>  <SCORE.RESTR.CAVITY>
0

>  <SCORE.RESTR.norm>
0

>  <SCORE.SYSTEM>
0

>  <SCORE.SYSTEM.CONST>
0

>  <SCORE.SYSTEM.DIHEDRAL>
0

>  <SCORE.SYSTEM.SOLV>
0

>  <SCORE.SYSTEM.norm>
0

>  <SCORE.heavy>
10

>  <SCORE.norm>
-1.17474

>  <RMSD>
25.143

$$$$
1u8d_lig
 OpenBabel11021811413D
libRbt.so/2013.1/901 2013/11/27
 10 11  0  0  0  0  0  0  0  0999 V2000
   34.6825   18.2838    9.9931 N   0  0  0  0  0  0  0  0  0  0  0  0
   36.0143   18.0964   10.4007 C   0  0  0  0  0  0  0  0  0  0  0  0
   37.0333   18.9119   10.0272 N   0  0  0  0  0  0  0  0  0  0  0  0
   36.6292   19.9214    9.2259 C   0  0  0  0  0  0  0  0  0  0  0  0
   35.2013   20.1752    8.7458 C   0  0  0  0  0  0  0  0  0  0  0  0
   34.1835   19.3017    9.1589 C   0  0  0  0  0  0  0  0  0  0  0  0
   32.9871   19.3178    8.9037 O   0  0  0  0  0  0  0  0  0  0  0  0
   35.2441   21.2921    7.9571 N   0  0  0  0  0  0  0  0  0  0  0  0
   36.5467   21.7273    7.9320 C   0  0  0  0  0  0  0  0  0  0  0  0
   37.4052   20.9277    8.6817 N   0  0  0  0  0  0  0  0  0  0  0  0
  1  2  1  0  0  0  0
  1  6  1  0  0  0  0
  2  3  2  0  0  0  0
  3  4  1  0  0  0  0
  4  5  2  0  0  0  0
  4 10  1  0  0  0  0
  5  6  1  0  0  0  0
  5  8  1  0  0  0  0
  6  7  2  0  0  0  0
  8  9  1  0  0  0  0
  9 10  2  0  0  0  0
M  END
>  <CHROM.1>
35.55522566,19.78653760,9.10135368,-2.31192318,-0.16814999,-0.61860414

>  <Name>
1u8d_lig

>  <RI>
0

>  <Rbt.Current_Directory>
/home/itssahil/PROJECTS/Mol_Feturizer/New_Systems/rnas/1u8d

>  <Rbt.Executable>
rbdock ($Id: //depot/dev/client3/rdock/2013.1/src/exe/rbdock.cxx#4 $)

>  <Rbt.Library>
libRbt.so (2013.1, Build901 2013/11/27)

>  <Rbt.Parameter_File>
/export/apps/rDock/src/rDock_2013.1_src/data/scripts/dock_solv.prm

>  <Rbt.Receptor>
prm/blind_docking_60.prm

>  <SCORE>
-9.62014

>  <SCORE.INTER>
-9.64609

>  <SCORE.INTER.CONST>
1

>  <SCORE.INTER.POLAR>
0

>  <SCORE.INTER.ROT>
0

>  <SCORE.INTER.SOLV>
8.09538

>  <SCORE.INTER.VDW>
-12.7292

>  <SCORE.INTER.norm>
-0.964609

>  <SCORE.INTRA>
0

>  <SCORE.INTRA.DIHEDRAL>
0

>  <SCORE.INTRA.DIHEDRAL.0>
0

>  <SCORE.INTRA.POLAR>
0

>  <SCORE.INTRA.POLAR.0>
0

>  <SCORE.INTRA.REPUL>
0

>  <SCORE.INTRA.REPUL.0>
0

>  <SCORE.INTRA.SOLV>
0

>  <SCORE.INTRA.SOLV.lig_0>
-13.7928

>  <SCORE.INTRA.VDW>
0

>  <SCORE.INTRA.VDW.0>
0

>  <SCORE.INTRA.norm>
0

>  <SCORE.RESTR>
0.025944

>  <SCORE.RESTR.CAVITY>
0.025944

>  <SCORE.RESTR.norm>
0.0025944

>  <SCORE.SYSTEM>
0

>  <SCORE.SYSTEM.CONST>
0

>  <SCORE.SYSTEM.DIHEDRAL>
0

>  <SCORE.SYSTEM.SOLV>
0

>  <SCORE.SYSTEM.norm>
0

>  <SCORE.heavy>
10

>  <SCORE.norm>
-0.962014

>  <RMSD>
25.883

$$$$
1u8d_lig
 OpenBabel11021811413D
libRbt.so/2013.1/901 2013/11/27
 10 11  0  0  0  0  0  0  0  0999 V2000
   34.7112   18.3055    9.9618 N   0  0  0  0  0  0  0  0  0  0  0  0
   36.0478   18.1211   10.3547 C   0  0  0  0  0  0  0  0  0  0  0  0
   37.0590   18.9453    9.9793 N   0  0  0  0  0  0  0  0  0  0  0  0
   36.6421   19.9603    9.1917 C   0  0  0  0  0  0  0  0  0  0  0  0
   35.2084   20.2114    8.7277 C   0  0  0  0  0  0  0  0  0  0  0  0
   34.1990   19.3288    9.1422 C   0  0  0  0  0  0  0  0  0  0  0  0
   33.0002   19.3412    8.8986 O   0  0  0  0  0  0  0  0  0  0  0  0
   35.2381   21.3360    7.9494 N   0  0  0  0  0  0  0  0  0  0  0  0
   36.5381   21.7781    7.9160 C   0  0  0  0  0  0  0  0  0  0  0  0
   37.4078   20.9758    8.6497 N   0  0  0  0  0  0  0  0  0  0  0  0
  1  2  1  0  0  0  0
  1  6  1  0  0  0  0
  2  3  2  0  0  0  0
  3  4  1  0  0  0  0
  4  5  2  0  0  0  0
  4 10  1  0  0  0  0
  5  6  1  0  0  0  0
  5  8  1  0  0  0  0
  6  7  2  0  0  0  0
  8  9  1  0  0  0  0
  9 10  2  0  0  0  0
M  END
>  <CHROM.1>
35.56771856,19.82117081,9.07614139,-2.30210110,-0.16320874,-0.60742246

>  <Name>
1u8d_lig

>  <RI>
0

>  <Rbt.Current_Directory>
/home/itssahil/PROJECTS/Mol_Feturizer/New_Systems/rnas/1u8d

>  <Rbt.Executable>
rbdock ($Id: //depot/dev/client3/rdock/2013.1/src/exe/rbdock.cxx#4 $)

>  <Rbt.Library>
libRbt.so (2013.1, Build901 2013/11/27)

>  <Rbt.Parameter_File>
/export/apps/rDock/src/rDock_2013.1_src/data/scripts/dock_solv.prm

>  <Rbt.Receptor>
prm/blind_docking_60.prm

>  <SCORE>
-9.60681

>  <SCORE.INTER>
-9.62298

>  <SCORE.INTER.CONST>
1

>  <SCORE.INTER.POLAR>
0

>  <SCORE.INTER.ROT>
0

>  <SCORE.INTER.SOLV>
8.05441

>  <SCORE.INTER.VDW>
-12.7001

>  <SCORE.INTER.norm>
-0.962298

>  <SCORE.INTRA>
0

>  <SCORE.INTRA.DIHEDRAL>
0

>  <SCORE.INTRA.DIHEDRAL.0>
0

>  <SCORE.INTRA.POLAR>
0

>  <SCORE.INTRA.POLAR.0>
0

>  <SCORE.INTRA.REPUL>
0

>  <SCORE.INTRA.REPUL.0>
0

>  <SCORE.INTRA.SOLV>
0

>  <SCORE.INTRA.SOLV.lig_0>
-13.7928

>  <SCORE.INTRA.VDW>
0

>  <SCORE.INTRA.VDW.0>
0

>  <SCORE.INTRA.norm>
0

>  <SCORE.RESTR>
0.0161731

>  <SCORE.RESTR.CAVITY>
0.0161731

>  <SCORE.RESTR.norm>
0.00161731

>  <SCORE.SYSTEM>
0

>  <SCORE.SYSTEM.CONST>
0

>  <SCORE.SYSTEM.DIHEDRAL>
0

>  <SCORE.SYSTEM.SOLV>
0

>  <SCORE.SYSTEM.norm>
0

>  <SCORE.heavy>
10

>  <SCORE.norm>
-0.960681

>  <RMSD>
25.904

$$$$
1u8d_lig
 OpenBabel11021811413D
libRbt.so/2013.1/901 2013/11/27
 10 11  0  0  0  0  0  0  0  0999 V2000
   36.5911   17.1391   10.4447 N   0  0  0  0  0  0  0  0  0  0  0  0
   36.5278   18.0752   11.4910 C   0  0  0  0  0  0  0  0  0  0  0  0
   36.3772   19.4097   11.2936 N   0  0  0  0  0  0  0  0  0  0  0  0
   36.2924   19.7393    9.9864 C   0  0  0  0  0  0  0  0  0  0  0  0
   36.3588   18.7714    8.8063 C   0  0  0  0  0  0  0  0  0  0  0  0
   36.5171   17.4009    9.0637 C   0  0  0  0  0  0  0  0  0  0  0  0
   36.5886   16.4613    8.2834 O   0  0  0  0  0  0  0  0  0  0  0  0
   36.2365   19.5256    7.6716 N   0  0  0  0  0  0  0  0  0  0  0  0
   36.0948   20.8348    8.0620 C   0  0  0  0  0  0  0  0  0  0  0  0
   36.1249   20.9999    9.4442 N   0  0  0  0  0  0  0  0  0  0  0  0
  1  2  1  0  0  0  0
  1  6  1  0  0  0  0
  2  3  2  0  0  0  0
  3  4  1  0  0  0  0
  4  5  2  0  0  0  0
  4 10  1  0  0  0  0
  5  6  1  0  0  0  0
  5  8  1  0  0  0  0
  6  7  2  0  0  0  0
  8  9  1  0  0  0  0
  9 10  2  0  0  0  0
M  END
>  <CHROM.1>
36.37421306,18.80017848,9.44012319,-0.04248433,-1.45484871,1.25689132

>  <Name>
1u8d_lig

>  <RI>
0

>  <Rbt.Current_Directory>
/home/itssahil/PROJECTS/Mol_Feturizer/New_Systems/rnas/1u8d

>  <Rbt.Executable>
rbdock ($Id: //depot/dev/client3/rdock/2013.1/src/exe/rbdock.cxx#4 $)

>  <Rbt.Library>
libRbt.so (2013.1, Build901 2013/11/27)

>  <Rbt.Parameter_File>
/export/apps/rDock/src/rDock_2013.1_src/data/scripts/dock_solv.prm

>  <Rbt.Receptor>
prm/blind_docking_100.prm

>  <SCORE>
-22.1239

>  <SCORE.INTER>
-22.1275

>  <SCORE.INTER.CONST>
1

>  <SCORE.INTER.POLAR>
-2.71524

>  <SCORE.INTER.ROT>
0

>  <SCORE.INTER.SOLV>
12.0734

>  <SCORE.INTER.VDW>
-13.3254

>  <SCORE.INTER.norm>
-2.21275

>  <SCORE.INTRA>
0

>  <SCORE.INTRA.DIHEDRAL>
0

>  <SCORE.INTRA.DIHEDRAL.0>
0

>  <SCORE.INTRA.POLAR>
0

>  <SCORE.INTRA.POLAR.0>
0

>  <SCORE.INTRA.REPUL>
0

>  <SCORE.INTRA.REPUL.0>
0

>  <SCORE.INTRA.SOLV>
0

>  <SCORE.INTRA.SOLV.lig_0>
-13.7928

>  <SCORE.INTRA.VDW>
0

>  <SCORE.INTRA.VDW.0>
0

>  <SCORE.INTRA.norm>
0

>  <SCORE.RESTR>
0.00363796

>  <SCORE.RESTR.CAVITY>
0.00363796

>  <SCORE.RESTR.norm>
0.000363796

>  <SCORE.SYSTEM>
0

>  <SCORE.SYSTEM.CONST>
0

>  <SCORE.SYSTEM.DIHEDRAL>
0

>  <SCORE.SYSTEM.SOLV>
0

>  <SCORE.SYSTEM.norm>
0

>  <SCORE.heavy>
10

>  <SCORE.norm>
-2.21239

>  <RMSD>
26.259

$$$$
1u8d_lig
 OpenBabel11021811413D
libRbt.so/2013.1/901 2013/11/27
 10 11  0  0  0  0  0  0  0  0999 V2000
   36.6410   17.0950   10.4466 N   0  0  0  0  0  0  0  0  0  0  0  0
   36.5927   18.0141   11.5087 C   0  0  0  0  0  0  0  0  0  0  0  0
   36.4216   19.3496   11.3359 N   0  0  0  0  0  0  0  0  0  0  0  0
   36.3005   19.6981   10.0366 C   0  0  0  0  0  0  0  0  0  0  0  0
   36.3488   18.7493    8.8402 C   0  0  0  0  0  0  0  0  0  0  0  0
   36.5296   17.3770    9.0721 C   0  0  0  0  0  0  0  0  0  0  0  0
   36.5926   16.4505    8.2757 O   0  0  0  0  0  0  0  0  0  0  0  0
   36.1895   19.5193    7.7208 N   0  0  0  0  0  0  0  0  0  0  0  0
   36.0422   20.8206    8.1350 C   0  0  0  0  0  0  0  0  0  0  0  0
   36.1048   20.9648    9.5184 N   0  0  0  0  0  0  0  0  0  0  0  0
  1  2  1  0  0  0  0
  1  6  1  0  0  0  0
  2  3  2  0  0  0  0
  3  4  1  0  0  0  0
  4  5  2  0  0  0  0
  4 10  1  0  0  0  0
  5  6  1  0  0  0  0
  5  8  1  0  0  0  0
  6  7  2  0  0  0  0
  8  9  1  0  0  0  0
  9 10  2  0  0  0  0
M  END
>  <CHROM.1>
36.37965919,18.76855934,9.47376644,-0.19053866,-1.43453875,1.12550891

>  <Name>
1u8d_lig

>  <RI>
0

>  <Rbt.Current_Directory>
/home/itssahil/PROJECTS/Mol_Feturizer/New_Systems/rnas/1u8d

>  <Rbt.Executable>
rbdock ($Id: //depot/dev/client3/rdock/2013.1/src/exe/rbdock.cxx#4 $)

>  <Rbt.Library>
libRbt.so (2013.1, Build901 2013/11/27)

>  <Rbt.Parameter_File>
/export/apps/rDock/src/rDock_2013.1_src/data/scripts/dock_solv.prm

>  <Rbt.Receptor>
prm/blind_docking_80.prm

>  <SCORE>
-22.1804

>  <SCORE.INTER>
-22.1928

>  <SCORE.INTER.CONST>
1

>  <SCORE.INTER.POLAR>
-2.77407

>  <SCORE.INTER.ROT>
0

>  <SCORE.INTER.SOLV>
12.1093

>  <SCORE.INTER.VDW>
-13.1847

>  <SCORE.INTER.norm>
-2.21928

>  <SCORE.INTRA>
0

>  <SCORE.INTRA.DIHEDRAL>
0

>  <SCORE.INTRA.DIHEDRAL.0>
0

>  <SCORE.INTRA.POLAR>
0

>  <SCORE.INTRA.POLAR.0>
0

>  <SCORE.INTRA.REPUL>
0

>  <SCORE.INTRA.REPUL.0>
0

>  <SCORE.INTRA.SOLV>
0

>  <SCORE.INTRA.SOLV.lig_0>
-13.7928

>  <SCORE.INTRA.VDW>
0

>  <SCORE.INTRA.VDW.0>
0

>  <SCORE.INTRA.norm>
0

>  <SCORE.RESTR>
0.0124368

>  <SCORE.RESTR.CAVITY>
0.0124368

>  <SCORE.RESTR.norm>
0.00124368

>  <SCORE.SYSTEM>
0

>  <SCORE.SYSTEM.CONST>
0

>  <SCORE.SYSTEM.DIHEDRAL>
0

>  <SCORE.SYSTEM.SOLV>
0

>  <SCORE.SYSTEM.norm>
0

>  <SCORE.heavy>
10

>  <SCORE.norm>
-2.21804

>  <RMSD>
26.259

$$$$
1u8d_lig
 OpenBabel11021811413D
libRbt.so/2013.1/901 2013/11/27
 10 11  0  0  0  0  0  0  0  0999 V2000
   36.6335   17.1060   10.4264 N   0  0  0  0  0  0  0  0  0  0  0  0
   36.5784   18.0189   11.4935 C   0  0  0  0  0  0  0  0  0  0  0  0
   36.4082   19.3553   11.3274 N   0  0  0  0  0  0  0  0  0  0  0  0
   36.2953   19.7114   10.0293 C   0  0  0  0  0  0  0  0  0  0  0  0
   36.3513   18.7695    8.8278 C   0  0  0  0  0  0  0  0  0  0  0  0
   36.5307   17.3959    9.0529 C   0  0  0  0  0  0  0  0  0  0  0  0
   36.5990   16.4740    8.2516 O   0  0  0  0  0  0  0  0  0  0  0  0
   36.1990   19.5460    7.7119 N   0  0  0  0  0  0  0  0  0  0  0  0
   36.0490   20.8448    8.1327 C   0  0  0  0  0  0  0  0  0  0  0  0
   36.1027   20.9810    9.5173 N   0  0  0  0  0  0  0  0  0  0  0  0
  1  2  1  0  0  0  0
  1  6  1  0  0  0  0
  2  3  2  0  0  0  0
  3  4  1  0  0  0  0
  4  5  2  0  0  0  0
  4 10  1  0  0  0  0
  5  6  1  0  0  0  0
  5  8  1  0  0  0  0
  6  7  2  0  0  0  0
  8  9  1  0  0  0  0
  9 10  2  0  0  0  0
M  END
>  <CHROM.1>
36.37815360,18.78509621,9.46168856,-0.14741170,-1.43703382,1.17403446

>  <Name>
1u8d_lig

>  <RI>
0

>  <Rbt.Current_Directory>
/home/itssahil/PROJECTS/Mol_Feturizer/New_Systems/rnas/1u8d

>  <Rbt.Executable>
rbdock ($Id: //depot/dev/client3/rdock/2013.1/src/exe/rbdock.cxx#4 $)

>  <Rbt.Library>
libRbt.so (2013.1, Build901 2013/11/27)

>  <Rbt.Parameter_File>
/export/apps/rDock/src/rDock_2013.1_src/data/scripts/dock_solv.prm

>  <Rbt.Receptor>
prm/blind_docking_80.prm

>  <SCORE>
-22.1446

>  <SCORE.INTER>
-22.1549

>  <SCORE.INTER.CONST>
1

>  <SCORE.INTER.POLAR>
-2.76324

>  <SCORE.INTER.ROT>
0

>  <SCORE.INTER.SOLV>
12.0948

>  <SCORE.INTER.VDW>
-13.1908

>  <SCORE.INTER.norm>
-2.21549

>  <SCORE.INTRA>
0

>  <SCORE.INTRA.DIHEDRAL>
0

>  <SCORE.INTRA.DIHEDRAL.0>
0

>  <SCORE.INTRA.POLAR>
0

>  <SCORE.INTRA.POLAR.0>
0

>  <SCORE.INTRA.REPUL>
0

>  <SCORE.INTRA.REPUL.0>
0

>  <SCORE.INTRA.SOLV>
0

>  <SCORE.INTRA.SOLV.lig_0>
-13.7928

>  <SCORE.INTRA.VDW>
0

>  <SCORE.INTRA.VDW.0>
0

>  <SCORE.INTRA.norm>
0

>  <SCORE.RESTR>
0.0103689

>  <SCORE.RESTR.CAVITY>
0.0103689

>  <SCORE.RESTR.norm>
0.00103689

>  <SCORE.SYSTEM>
0

>  <SCORE.SYSTEM.CONST>
0

>  <SCORE.SYSTEM.DIHEDRAL>
0

>  <SCORE.SYSTEM.SOLV>
0

>  <SCORE.SYSTEM.norm>
0

>  <SCORE.heavy>
10

>  <SCORE.norm>
-2.21446

>  <RMSD>
26.262

$$$$
1u8d_lig
 OpenBabel11021811413D
libRbt.so/2013.1/901 2013/11/27
 10 11  0  0  0  0  0  0  0  0999 V2000
   36.5871   17.1481   10.4483 N   0  0  0  0  0  0  0  0  0  0  0  0
   36.5182   18.0877   11.4911 C   0  0  0  0  0  0  0  0  0  0  0  0
   36.3698   19.4217   11.2882 N   0  0  0  0  0  0  0  0  0  0  0  0
   36.2932   19.7469    9.9794 C   0  0  0  0  0  0  0  0  0  0  0  0
   36.3659   18.7750    8.8031 C   0  0  0  0  0  0  0  0  0  0  0  0
   36.5216   17.4052    9.0661 C   0  0  0  0  0  0  0  0  0  0  0  0
   36.5970   16.4629    8.2894 O   0  0  0  0  0  0  0  0  0  0  0  0
   36.2510   19.5254    7.6651 N   0  0  0  0  0  0  0  0  0  0  0  0
   36.1081   20.8360    8.0502 C   0  0  0  0  0  0  0  0  0  0  0  0
   36.1300   21.0058    9.4320 N   0  0  0  0  0  0  0  0  0  0  0  0
  1  2  1  0  0  0  0
  1  6  1  0  0  0  0
  2  3  2  0  0  0  0
  3  4  1  0  0  0  0
  4  5  2  0  0  0  0
  4 10  1  0  0  0  0
  5  6  1  0  0  0  0
  5  8  1  0  0  0  0
  6  7  2  0  0  0  0
  8  9  1  0  0  0  0
  9 10  2  0  0  0  0
M  END
>  <CHROM.1>
36.37753901,18.80587023,9.43683860,0.00587914,-1.45732991,1.30154230

>  <Name>
1u8d_lig

>  <RI>
0

>  <Rbt.Current_Directory>
/home/itssahil/PROJECTS/Mol_Feturizer/New_Systems/rnas/1u8d

>  <Rbt.Executable>
rbdock ($Id: //depot/dev/client3/rdock/2013.1/src/exe/rbdock.cxx#4 $)

>  <Rbt.Library>
libRbt.so (2013.1, Build901 2013/11/27)

>  <Rbt.Parameter_File>
/export/apps/rDock/src/rDock_2013.1_src/data/scripts/dock_solv.prm

>  <Rbt.Receptor>
prm/blind_docking_100.prm

>  <SCORE>
-22.122

>  <SCORE.INTER>
-22.1329

>  <SCORE.INTER.CONST>
1

>  <SCORE.INTER.POLAR>
-2.70946

>  <SCORE.INTER.ROT>
0

>  <SCORE.INTER.SOLV>
12.0745

>  <SCORE.INTER.VDW>
-13.3486

>  <SCORE.INTER.norm>
-2.21329

>  <SCORE.INTRA>
0

>  <SCORE.INTRA.DIHEDRAL>
0

>  <SCORE.INTRA.DIHEDRAL.0>
0

>  <SCORE.INTRA.POLAR>
0

>  <SCORE.INTRA.POLAR.0>
0

>  <SCORE.INTRA.REPUL>
0

>  <SCORE.INTRA.REPUL.0>
0

>  <SCORE.INTRA.SOLV>
0

>  <SCORE.INTRA.SOLV.lig_0>
-13.7928

>  <SCORE.INTRA.VDW>
0

>  <SCORE.INTRA.VDW.0>
0

>  <SCORE.INTRA.norm>
0

>  <SCORE.RESTR>
0.0108803

>  <SCORE.RESTR.CAVITY>
0.0108803

>  <SCORE.RESTR.norm>
0.00108803

>  <SCORE.SYSTEM>
0

>  <SCORE.SYSTEM.CONST>
0

>  <SCORE.SYSTEM.DIHEDRAL>
0

>  <SCORE.SYSTEM.SOLV>
0

>  <SCORE.SYSTEM.norm>
0

>  <SCORE.heavy>
10

>  <SCORE.norm>
-2.2122

>  <RMSD>
26.263

$$$$
1u8d_lig
 OpenBabel11021811413D
libRbt.so/2013.1/901 2013/11/27
 10 11  0  0  0  0  0  0  0  0999 V2000
   36.6335   17.0998   10.4491 N   0  0  0  0  0  0  0  0  0  0  0  0
   36.5885   18.0208   11.5097 C   0  0  0  0  0  0  0  0  0  0  0  0
   36.4250   19.3569   11.3345 N   0  0  0  0  0  0  0  0  0  0  0  0
   36.3081   19.7040   10.0344 C   0  0  0  0  0  0  0  0  0  0  0  0
   36.3532   18.7531    8.8396 C   0  0  0  0  0  0  0  0  0  0  0  0
   36.5260   17.3802    9.0740 C   0  0  0  0  0  0  0  0  0  0  0  0
   36.5853   16.4520    8.2792 O   0  0  0  0  0  0  0  0  0  0  0  0
   36.2001   19.5221    7.7187 N   0  0  0  0  0  0  0  0  0  0  0  0
   36.0593   20.8249    8.1306 C   0  0  0  0  0  0  0  0  0  0  0  0
   36.1203   20.9709    9.5139 N   0  0  0  0  0  0  0  0  0  0  0  0
  1  2  1  0  0  0  0
  1  6  1  0  0  0  0
  2  3  2  0  0  0  0
  3  4  1  0  0  0  0
  4  5  2  0  0  0  0
  4 10  1  0  0  0  0
  5  6  1  0  0  0  0
  5  8  1  0  0  0  0
  6  7  2  0  0  0  0
  8  9  1  0  0  0  0
  9 10  2  0  0  0  0
M  END
>  <CHROM.1>
36.38309827,18.77315193,9.47321204,-0.19709614,-1.44026765,1.11741059

>  <Name>
1u8d_lig

>  <RI>
0

>  <Rbt.Current_Directory>
/home/itssahil/PROJECTS/Mol_Feturizer/New_Systems/rnas/1u8d

>  <Rbt.Executable>
rbdock ($Id: //depot/dev/client3/rdock/2013.1/src/exe/rbdock.cxx#4 $)

>  <Rbt.Library>
libRbt.so (2013.1, Build901 2013/11/27)

>  <Rbt.Parameter_File>
/export/apps/rDock/src/rDock_2013.1_src/data/scripts/dock_solv.prm

>  <Rbt.Receptor>
prm/blind_docking_100.prm

>  <SCORE>
-22.1499

>  <SCORE.INTER>
-22.1542

>  <SCORE.INTER.CONST>
1

>  <SCORE.INTER.POLAR>
-2.76376

>  <SCORE.INTER.ROT>
0

>  <SCORE.INTER.SOLV>
12.1061

>  <SCORE.INTER.VDW>
-13.1923

>  <SCORE.INTER.norm>
-2.21542

>  <SCORE.INTRA>
0

>  <SCORE.INTRA.DIHEDRAL>
0

>  <SCORE.INTRA.DIHEDRAL.0>
0

>  <SCORE.INTRA.POLAR>
0

>  <SCORE.INTRA.POLAR.0>
0

>  <SCORE.INTRA.REPUL>
0

>  <SCORE.INTRA.REPUL.0>
0

>  <SCORE.INTRA.SOLV>
0

>  <SCORE.INTRA.SOLV.lig_0>
-13.7928

>  <SCORE.INTRA.VDW>
0

>  <SCORE.INTRA.VDW.0>
0

>  <SCORE.INTRA.norm>
0

>  <SCORE.RESTR>
0.00433519

>  <SCORE.RESTR.CAVITY>
0.00433519

>  <SCORE.RESTR.norm>
0.000433519

>  <SCORE.SYSTEM>
0

>  <SCORE.SYSTEM.CONST>
0

>  <SCORE.SYSTEM.DIHEDRAL>
0

>  <SCORE.SYSTEM.SOLV>
0

>  <SCORE.SYSTEM.norm>
0

>  <SCORE.heavy>
10

>  <SCORE.norm>
-2.21499

>  <RMSD>
26.264

$$$$
1u8d_lig
 OpenBabel11021811413D
libRbt.so/2013.1/901 2013/11/27
 10 11  0  0  0  0  0  0  0  0999 V2000
   36.5939   17.1446   10.4523 N   0  0  0  0  0  0  0  0  0  0  0  0
   36.5312   18.0836   11.4960 C   0  0  0  0  0  0  0  0  0  0  0  0
   36.3819   19.4177   11.2948 N   0  0  0  0  0  0  0  0  0  0  0  0
   36.2977   19.7437    9.9867 C   0  0  0  0  0  0  0  0  0  0  0  0
   36.3634   18.7725    8.8093 C   0  0  0  0  0  0  0  0  0  0  0  0
   36.5203   17.4026    9.0705 C   0  0  0  0  0  0  0  0  0  0  0  0
   36.5911   16.4607    8.2929 O   0  0  0  0  0  0  0  0  0  0  0  0
   36.2420   19.5236    7.6725 N   0  0  0  0  0  0  0  0  0  0  0  0
   36.1015   20.8341    8.0593 C   0  0  0  0  0  0  0  0  0  0  0  0
   36.1315   21.0030    9.4410 N   0  0  0  0  0  0  0  0  0  0  0  0
  1  2  1  0  0  0  0
  1  6  1  0  0  0  0
  2  3  2  0  0  0  0
  3  4  1  0  0  0  0
  4  5  2  0  0  0  0
  4 10  1  0  0  0  0
  5  6  1  0  0  0  0
  5  8  1  0  0  0  0
  6  7  2  0  0  0  0
  8  9  1  0  0  0  0
  9 10  2  0  0  0  0
M  END
>  <CHROM.1>
36.37869358,18.80301320,9.44302954,-0.04357435,-1.45580476,1.25303460

>  <Name>
1u8d_lig

>  <RI>
0

>  <Rbt.Current_Directory>
/home/itssahil/PROJECTS/Mol_Feturizer/New_Systems/rnas/1u8d

>  <Rbt.Executable>
rbdock ($Id: //depot/dev/client3/rdock/2013.1/src/exe/rbdock.cxx#4 $)

>  <Rbt.Library>
libRbt.so (2013.1, Build901 2013/11/27)

>  <Rbt.Parameter_File>
/export/apps/rDock/src/rDock_2013.1_src/data/scripts/dock_solv.prm

>  <Rbt.Receptor>
prm/blind_docking_100.prm

>  <SCORE>
-22.1204

>  <SCORE.INTER>
-22.126

>  <SCORE.INTER.CONST>
1

>  <SCORE.INTER.POLAR>
-2.71239

>  <SCORE.INTER.ROT>
0

>  <SCORE.INTER.SOLV>
12.0813

>  <SCORE.INTER.VDW>
-13.3364

>  <SCORE.INTER.norm>
-2.2126

>  <SCORE.INTRA>
0

>  <SCORE.INTRA.DIHEDRAL>
0

>  <SCORE.INTRA.DIHEDRAL.0>
0

>  <SCORE.INTRA.POLAR>
0

>  <SCORE.INTRA.POLAR.0>
0

>  <SCORE.INTRA.REPUL>
0

>  <SCORE.INTRA.REPUL.0>
0

>  <SCORE.INTRA.SOLV>
0

>  <SCORE.INTRA.SOLV.lig_0>
-13.7928

>  <SCORE.INTRA.VDW>
0

>  <SCORE.INTRA.VDW.0>
0

>  <SCORE.INTRA.norm>
0

>  <SCORE.RESTR>
0.00561415

>  <SCORE.RESTR.CAVITY>
0.00561415

>  <SCORE.RESTR.norm>
0.000561415

>  <SCORE.SYSTEM>
0

>  <SCORE.SYSTEM.CONST>
0

>  <SCORE.SYSTEM.DIHEDRAL>
0

>  <SCORE.SYSTEM.SOLV>
0

>  <SCORE.SYSTEM.norm>
0

>  <SCORE.heavy>
10

>  <SCORE.norm>
-2.21204

>  <RMSD>
26.264

$$$$
1u8d_lig
 OpenBabel11021811413D
libRbt.so/2013.1/901 2013/11/27
 10 11  0  0  0  0  0  0  0  0999 V2000
   36.5994   17.1439   10.4395 N   0  0  0  0  0  0  0  0  0  0  0  0
   36.5221   18.0783   11.4863 C   0  0  0  0  0  0  0  0  0  0  0  0
   36.3638   19.4120   11.2893 N   0  0  0  0  0  0  0  0  0  0  0  0
   36.2861   19.7425    9.9819 C   0  0  0  0  0  0  0  0  0  0  0  0
   36.3676   18.7764    8.8013 C   0  0  0  0  0  0  0  0  0  0  0  0
   36.5335   17.4067    9.0583 C   0  0  0  0  0  0  0  0  0  0  0  0
   36.6170   16.4685    8.2775 O   0  0  0  0  0  0  0  0  0  0  0  0
   36.2483   19.5310    7.6665 N   0  0  0  0  0  0  0  0  0  0  0  0
   36.0948   20.8388    8.0573 C   0  0  0  0  0  0  0  0  0  0  0  0
   36.1139   21.0025    9.4398 N   0  0  0  0  0  0  0  0  0  0  0  0
  1  2  1  0  0  0  0
  1  6  1  0  0  0  0
  2  3  2  0  0  0  0
  3  4  1  0  0  0  0
  4  5  2  0  0  0  0
  4 10  1  0  0  0  0
  5  6  1  0  0  0  0
  5  8  1  0  0  0  0
  6  7  2  0  0  0  0
  8  9  1  0  0  0  0
  9 10  2  0  0  0  0
M  END
>  <CHROM.1>
36.37828454,18.80456435,9.43517135,0.03174087,-1.45021546,1.33170286

>  <Name>
1u8d_lig

>  <RI>
0

>  <Rbt.Current_Directory>
/home/itssahil/PROJECTS/Mol_Feturizer/New_Systems/rnas/1u8d

>  <Rbt.Executable>
rbdock ($Id: //depot/dev/client3/rdock/2013.1/src/exe/rbdock.cxx#4 $)

>  <Rbt.Library>
libRbt.so (2013.1, Build901 2013/11/27)

>  <Rbt.Parameter_File>
/export/apps/rDock/src/rDock_2013.1_src/data/scripts/dock_solv.prm

>  <Rbt.Receptor>
prm/blind_docking_80.prm

>  <SCORE>
-22.1614

>  <SCORE.INTER>
-22.1907

>  <SCORE.INTER.CONST>
1

>  <SCORE.INTER.POLAR>
-2.72002

>  <SCORE.INTER.ROT>
0

>  <SCORE.INTER.SOLV>
12.0833

>  <SCORE.INTER.VDW>
-13.3548

>  <SCORE.INTER.norm>
-2.21907

>  <SCORE.INTRA>
0

>  <SCORE.INTRA.DIHEDRAL>
0

>  <SCORE.INTRA.DIHEDRAL.0>
0

>  <SCORE.INTRA.POLAR>
0

>  <SCORE.INTRA.POLAR.0>
0

>  <SCORE.INTRA.REPUL>
0

>  <SCORE.INTRA.REPUL.0>
0

>  <SCORE.INTRA.SOLV>
0

>  <SCORE.INTRA.SOLV.lig_0>
-13.7928

>  <SCORE.INTRA.VDW>
0

>  <SCORE.INTRA.VDW.0>
0

>  <SCORE.INTRA.norm>
0

>  <SCORE.RESTR>
0.0292676

>  <SCORE.RESTR.CAVITY>
0.0292676

>  <SCORE.RESTR.norm>
0.00292676

>  <SCORE.SYSTEM>
0

>  <SCORE.SYSTEM.CONST>
0

>  <SCORE.SYSTEM.DIHEDRAL>
0

>  <SCORE.SYSTEM.SOLV>
0

>  <SCORE.SYSTEM.norm>
0

>  <SCORE.heavy>
10

>  <SCORE.norm>
-2.21614

>  <RMSD>
26.264

$$$$
1u8d_lig
 OpenBabel11021811413D
libRbt.so/2013.1/901 2013/11/27
 10 11  0  0  0  0  0  0  0  0999 V2000
   36.6421   17.0965   10.4447 N   0  0  0  0  0  0  0  0  0  0  0  0
   36.5882   18.0154   11.5067 C   0  0  0  0  0  0  0  0  0  0  0  0
   36.4176   19.3509   11.3333 N   0  0  0  0  0  0  0  0  0  0  0  0
   36.3030   19.6996   10.0334 C   0  0  0  0  0  0  0  0  0  0  0  0
   36.3576   18.7511    8.8372 C   0  0  0  0  0  0  0  0  0  0  0  0
   36.5375   17.3788    9.0697 C   0  0  0  0  0  0  0  0  0  0  0  0
   36.6049   16.4524    8.2734 O   0  0  0  0  0  0  0  0  0  0  0  0
   36.2038   19.5213    7.7171 N   0  0  0  0  0  0  0  0  0  0  0  0
   36.0541   20.8224    8.1308 C   0  0  0  0  0  0  0  0  0  0  0  0
   36.1096   20.9663    9.5146 N   0  0  0  0  0  0  0  0  0  0  0  0
  1  2  1  0  0  0  0
  1  6  1  0  0  0  0
  2  3  2  0  0  0  0
  3  4  1  0  0  0  0
  4  5  2  0  0  0  0
  4 10  1  0  0  0  0
  5  6  1  0  0  0  0
  5  8  1  0  0  0  0
  6  7  2  0  0  0  0
  8  9  1  0  0  0  0
  9 10  2  0  0  0  0
M  END
>  <CHROM.1>
36.38527243,18.77020879,9.47087551,-0.15574583,-1.43642022,1.16018428

>  <Name>
1u8d_lig

>  <RI>
0

>  <Rbt.Current_Directory>
/home/itssahil/PROJECTS/Mol_Feturizer/New_Systems/rnas/1u8d

>  <Rbt.Executable>
rbdock ($Id: //depot/dev/client3/rdock/2013.1/src/exe/rbdock.cxx#4 $)

>  <Rbt.Library>
libRbt.so (2013.1, Build901 2013/11/27)

>  <Rbt.Parameter_File>
/export/apps/rDock/src/rDock_2013.1_src/data/scripts/dock_solv.prm

>  <Rbt.Receptor>
prm/blind_docking_100.prm

>  <SCORE>
-22.2203

>  <SCORE.INTER>
-22.244

>  <SCORE.INTER.CONST>
1

>  <SCORE.INTER.POLAR>
-2.77187

>  <SCORE.INTER.ROT>
0

>  <SCORE.INTER.SOLV>
12.116

>  <SCORE.INTER.VDW>
-13.2285

>  <SCORE.INTER.norm>
-2.2244

>  <SCORE.INTRA>
0

>  <SCORE.INTRA.DIHEDRAL>
0

>  <SCORE.INTRA.DIHEDRAL.0>
0

>  <SCORE.INTRA.POLAR>
0

>  <SCORE.INTRA.POLAR.0>
0

>  <SCORE.INTRA.REPUL>
0

>  <SCORE.INTRA.REPUL.0>
0

>  <SCORE.INTRA.SOLV>
0

>  <SCORE.INTRA.SOLV.lig_0>
-13.7928

>  <SCORE.INTRA.VDW>
0

>  <SCORE.INTRA.VDW.0>
0

>  <SCORE.INTRA.norm>
0

>  <SCORE.RESTR>
0.0237549

>  <SCORE.RESTR.CAVITY>
0.0237549

>  <SCORE.RESTR.norm>
0.00237549

>  <SCORE.SYSTEM>
0

>  <SCORE.SYSTEM.CONST>
0

>  <SCORE.SYSTEM.DIHEDRAL>
0

>  <SCORE.SYSTEM.SOLV>
0

>  <SCORE.SYSTEM.norm>
0

>  <SCORE.heavy>
10

>  <SCORE.norm>
-2.22203

>  <RMSD>
26.265

$$$$
1u8d_lig
 OpenBabel11021811413D
libRbt.so/2013.1/901 2013/11/27
 10 11  0  0  0  0  0  0  0  0999 V2000
   36.6325   17.1017   10.4498 N   0  0  0  0  0  0  0  0  0  0  0  0
   36.5899   18.0235   11.5097 C   0  0  0  0  0  0  0  0  0  0  0  0
   36.4286   19.3598   11.3338 N   0  0  0  0  0  0  0  0  0  0  0  0
   36.3110   19.7062   10.0336 C   0  0  0  0  0  0  0  0  0  0  0  0
   36.3535   18.7544    8.8394 C   0  0  0  0  0  0  0  0  0  0  0  0
   36.5242   17.3814    9.0746 C   0  0  0  0  0  0  0  0  0  0  0  0
   36.5813   16.4526    8.2803 O   0  0  0  0  0  0  0  0  0  0  0  0
   36.2007   19.5230    7.7181 N   0  0  0  0  0  0  0  0  0  0  0  0
   36.0624   20.8262    8.1293 C   0  0  0  0  0  0  0  0  0  0  0  0
   36.1249   20.9731    9.5124 N   0  0  0  0  0  0  0  0  0  0  0  0
  1  2  1  0  0  0  0
  1  6  1  0  0  0  0
  2  3  2  0  0  0  0
  3  4  1  0  0  0  0
  4  5  2  0  0  0  0
  4 10  1  0  0  0  0
  5  6  1  0  0  0  0
  5  8  1  0  0  0  0
  6  7  2  0  0  0  0
  8  9  1  0  0  0  0
  9 10  2  0  0  0  0
M  END
>  <CHROM.1>
36.38400157,18.77485043,9.47296952,-0.20891360,-1.44135758,1.10502376

>  <Name>
1u8d_lig

>  <RI>
0

>  <Rbt.Current_Directory>
/home/itssahil/PROJECTS/Mol_Feturizer/New_Systems/rnas/1u8d

>  <Rbt.Executable>
rbdock ($Id: //depot/dev/client3/rdock/2013.1/src/exe/rbdock.cxx#4 $)

>  <Rbt.Library>
libRbt.so (2013.1, Build901 2013/11/27)

>  <Rbt.Parameter_File>
/export/apps/rDock/src/rDock_2013.1_src/data/scripts/dock_solv.prm

>  <Rbt.Receptor>
prm/blind_docking_100.prm

>  <SCORE>
-22.1307

>  <SCORE.INTER>
-22.1308

>  <SCORE.INTER.CONST>
1

>  <SCORE.INTER.POLAR>
-2.7564

>  <SCORE.INTER.ROT>
0

>  <SCORE.INTER.SOLV>
12.1065

>  <SCORE.INTER.VDW>
-13.2014

>  <SCORE.INTER.norm>
-2.21308

>  <SCORE.INTRA>
0

>  <SCORE.INTRA.DIHEDRAL>
0

>  <SCORE.INTRA.DIHEDRAL.0>
0

>  <SCORE.INTRA.POLAR>
0

>  <SCORE.INTRA.POLAR.0>
0

>  <SCORE.INTRA.REPUL>
0

>  <SCORE.INTRA.REPUL.0>
0

>  <SCORE.INTRA.SOLV>
0

>  <SCORE.INTRA.SOLV.lig_0>
-13.7928

>  <SCORE.INTRA.VDW>
0

>  <SCORE.INTRA.VDW.0>
0

>  <SCORE.INTRA.norm>
0

>  <SCORE.RESTR>
0.000106561

>  <SCORE.RESTR.CAVITY>
0.000106561

>  <SCORE.RESTR.norm>
1.06561e-05

>  <SCORE.SYSTEM>
0

>  <SCORE.SYSTEM.CONST>
0

>  <SCORE.SYSTEM.DIHEDRAL>
0

>  <SCORE.SYSTEM.SOLV>
0

>  <SCORE.SYSTEM.norm>
0

>  <SCORE.heavy>
10

>  <SCORE.norm>
-2.21307

>  <RMSD>
26.265

$$$$
1u8d_lig
 OpenBabel11021811413D
libRbt.so/2013.1/901 2013/11/27
 10 11  0  0  0  0  0  0  0  0999 V2000
   36.5930   17.1464   10.4250 N   0  0  0  0  0  0  0  0  0  0  0  0
   36.5194   18.0752   11.4771 C   0  0  0  0  0  0  0  0  0  0  0  0
   36.3657   19.4106   11.2875 N   0  0  0  0  0  0  0  0  0  0  0  0
   36.2889   19.7486    9.9820 C   0  0  0  0  0  0  0  0  0  0  0  0
   36.3665   18.7888    8.7960 C   0  0  0  0  0  0  0  0  0  0  0  0
   36.5276   17.4171    9.0454 C   0  0  0  0  0  0  0  0  0  0  0  0
   36.6076   16.4830    8.2593 O   0  0  0  0  0  0  0  0  0  0  0  0
   36.2495   19.5502    7.6656 N   0  0  0  0  0  0  0  0  0  0  0  0
   36.1008   20.8563    8.0637 C   0  0  0  0  0  0  0  0  0  0  0  0
   36.1209   21.0122    9.4471 N   0  0  0  0  0  0  0  0  0  0  0  0
  1  2  1  0  0  0  0
  1  6  1  0  0  0  0
  2  3  2  0  0  0  0
  3  4  1  0  0  0  0
  4  5  2  0  0  0  0
  4 10  1  0  0  0  0
  5  6  1  0  0  0  0
  5  8  1  0  0  0  0
  6  7  2  0  0  0  0
  8  9  1  0  0  0  0
  9 10  2  0  0  0  0
M  END
>  <CHROM.1>
36.37750185,18.81341410,9.43006932,0.02200087,-1.45358232,1.32761044

>  <Name>
1u8d_lig

>  <RI>
0

>  <Rbt.Current_Directory>
/home/itssahil/PROJECTS/Mol_Feturizer/New_Systems/rnas/1u8d

>  <Rbt.Executable>
rbdock ($Id: //depot/dev/client3/rdock/2013.1/src/exe/rbdock.cxx#4 $)

>  <Rbt.Library>
libRbt.so (2013.1, Build901 2013/11/27)

>  <Rbt.Parameter_File>
/export/apps/rDock/src/rDock_2013.1_src/data/scripts/dock_solv.prm

>  <Rbt.Receptor>
prm/blind_docking_100.prm

>  <SCORE>
-22.1197

>  <SCORE.INTER>
-22.1344

>  <SCORE.INTER.CONST>
1

>  <SCORE.INTER.POLAR>
-2.70773

>  <SCORE.INTER.ROT>
0

>  <SCORE.INTER.SOLV>
12.0709

>  <SCORE.INTER.VDW>
-13.3542

>  <SCORE.INTER.norm>
-2.21344

>  <SCORE.INTRA>
0

>  <SCORE.INTRA.DIHEDRAL>
0

>  <SCORE.INTRA.DIHEDRAL.0>
0

>  <SCORE.INTRA.POLAR>
0

>  <SCORE.INTRA.POLAR.0>
0

>  <SCORE.INTRA.REPUL>
0

>  <SCORE.INTRA.REPUL.0>
0

>  <SCORE.INTRA.SOLV>
0

>  <SCORE.INTRA.SOLV.lig_0>
-13.7928

>  <SCORE.INTRA.VDW>
0

>  <SCORE.INTRA.VDW.0>
0

>  <SCORE.INTRA.norm>
0

>  <SCORE.RESTR>
0.0146862

>  <SCORE.RESTR.CAVITY>
0.0146862

>  <SCORE.RESTR.norm>
0.00146862

>  <SCORE.SYSTEM>
0

>  <SCORE.SYSTEM.CONST>
0

>  <SCORE.SYSTEM.DIHEDRAL>
0

>  <SCORE.SYSTEM.SOLV>
0

>  <SCORE.SYSTEM.norm>
0

>  <SCORE.heavy>
10

>  <SCORE.norm>
-2.21197

>  <RMSD>
26.266

$$$$
1u8d_lig
 OpenBabel11021811413D
libRbt.so/2013.1/901 2013/11/27
 10 11  0  0  0  0  0  0  0  0999 V2000
   36.2244   18.9692    7.6764 N   0  0  0  0  0  0  0  0  0  0  0  0
   35.9939   20.2550    8.1946 C   0  0  0  0  0  0  0  0  0  0  0  0
   36.0031   20.5401    9.5218 N   0  0  0  0  0  0  0  0  0  0  0  0
   36.2595   19.4577   10.2880 C   0  0  0  0  0  0  0  0  0  0  0  0
   36.5131   18.0373    9.7861 C   0  0  0  0  0  0  0  0  0  0  0  0
   36.4912   17.7942    8.4040 C   0  0  0  0  0  0  0  0  0  0  0  0
   36.6702   16.7513    7.7899 O   0  0  0  0  0  0  0  0  0  0  0  0
   36.7235   17.2608   10.8925 N   0  0  0  0  0  0  0  0  0  0  0  0
   36.6301   18.0787   11.9920 C   0  0  0  0  0  0  0  0  0  0  0  0
   36.3515   19.4034   11.6663 N   0  0  0  0  0  0  0  0  0  0  0  0
  1  2  1  0  0  0  0
  1  6  1  0  0  0  0
  2  3  2  0  0  0  0
  3  4  1  0  0  0  0
  4  5  2  0  0  0  0
  4 10  1  0  0  0  0
  5  6  1  0  0  0  0
  5  8  1  0  0  0  0
  6  7  2  0  0  0  0
  8  9  1  0  0  0  0
  9 10  2  0  0  0  0
M  END
>  <CHROM.1>
36.38976978,18.62898378,9.59270558,1.74319301,1.36833287,-1.83091374

>  <Name>
1u8d_lig

>  <RI>
0

>  <Rbt.Current_Directory>
/home/itssahil/PROJECTS/Mol_Feturizer/New_Systems/rnas/1u8d

>  <Rbt.Executable>
rbdock ($Id: //depot/dev/client3/rdock/2013.1/src/exe/rbdock.cxx#4 $)

>  <Rbt.Library>
libRbt.so (2013.1, Build901 2013/11/27)

>  <Rbt.Parameter_File>
/export/apps/rDock/src/rDock_2013.1_src/data/scripts/dock_solv.prm

>  <Rbt.Receptor>
prm/blind_docking_100.prm

>  <SCORE>
-18.5231

>  <SCORE.INTER>
-18.7615

>  <SCORE.INTER.CONST>
1

>  <SCORE.INTER.POLAR>
-2.86236

>  <SCORE.INTER.ROT>
0

>  <SCORE.INTER.SOLV>
12.7388

>  <SCORE.INTER.VDW>
-10.8127

>  <SCORE.INTER.norm>
-1.87615

>  <SCORE.INTRA>
0

>  <SCORE.INTRA.DIHEDRAL>
0

>  <SCORE.INTRA.DIHEDRAL.0>
0

>  <SCORE.INTRA.POLAR>
0

>  <SCORE.INTRA.POLAR.0>
0

>  <SCORE.INTRA.REPUL>
0

>  <SCORE.INTRA.REPUL.0>
0

>  <SCORE.INTRA.SOLV>
0

>  <SCORE.INTRA.SOLV.lig_0>
-13.7928

>  <SCORE.INTRA.VDW>
0

>  <SCORE.INTRA.VDW.0>
0

>  <SCORE.INTRA.norm>
0

>  <SCORE.RESTR>
0.238369

>  <SCORE.RESTR.CAVITY>
0.238369

>  <SCORE.RESTR.norm>
0.0238369

>  <SCORE.SYSTEM>
0

>  <SCORE.SYSTEM.CONST>
0

>  <SCORE.SYSTEM.DIHEDRAL>
0

>  <SCORE.SYSTEM.SOLV>
0

>  <SCORE.SYSTEM.norm>
0

>  <SCORE.heavy>
10

>  <SCORE.norm>
-1.85231

>  <RMSD>
26.363

$$$$
1u8d_lig
 OpenBabel11021811413D
libRbt.so/2013.1/901 2013/11/27
 10 11  0  0  0  0  0  0  0  0999 V2000
   36.3139   17.3791   10.4018 N   0  0  0  0  0  0  0  0  0  0  0  0
   36.3818   16.8370    9.1070 C   0  0  0  0  0  0  0  0  0  0  0  0
   36.4388   17.5930    7.9809 N   0  0  0  0  0  0  0  0  0  0  0  0
   36.4259   18.9187    8.2391 C   0  0  0  0  0  0  0  0  0  0  0  0
   36.3491   19.5677    9.6200 C   0  0  0  0  0  0  0  0  0  0  0  0
   36.2901   18.7419   10.7532 C   0  0  0  0  0  0  0  0  0  0  0  0
   36.2301   19.0418   11.9377 O   0  0  0  0  0  0  0  0  0  0  0  0
   36.3579   20.9209    9.4196 N   0  0  0  0  0  0  0  0  0  0  0  0
   36.4423   21.1350    8.0655 C   0  0  0  0  0  0  0  0  0  0  0  0
   36.4839   19.9557    7.3267 N   0  0  0  0  0  0  0  0  0  0  0  0
  1  2  1  0  0  0  0
  1  6  1  0  0  0  0
  2  3  2  0  0  0  0
  3  4  1  0  0  0  0
  4  5  2  0  0  0  0
  4 10  1  0  0  0  0
  5  6  1  0  0  0  0
  5  8  1  0  0  0  0
  6  7  2  0  0  0  0
  8  9  1  0  0  0  0
  9 10  2  0  0  0  0
M  END
>  <CHROM.1>
36.36941272,19.00692179,9.32362039,-2.42681583,1.51638055,-0.00068581

>  <Name>
1u8d_lig

>  <RI>
0

>  <Rbt.Current_Directory>
/home/itssahil/PROJECTS/Mol_Feturizer/New_Systems/rnas/1u8d

>  <Rbt.Executable>
rbdock ($Id: //depot/dev/client3/rdock/2013.1/src/exe/rbdock.cxx#4 $)

>  <Rbt.Library>
libRbt.so (2013.1, Build901 2013/11/27)

>  <Rbt.Parameter_File>
/export/apps/rDock/src/rDock_2013.1_src/data/scripts/dock_solv.prm

>  <Rbt.Receptor>
prm/blind_docking_100.prm

>  <SCORE>
-20.3244

>  <SCORE.INTER>
-20.3244

>  <SCORE.INTER.CONST>
1

>  <SCORE.INTER.POLAR>
-1.87101

>  <SCORE.INTER.ROT>
0

>  <SCORE.INTER.SOLV>
11.6718

>  <SCORE.INTER.VDW>
-14.8035

>  <SCORE.INTER.norm>
-2.03244

>  <SCORE.INTRA>
0

>  <SCORE.INTRA.DIHEDRAL>
0

>  <SCORE.INTRA.DIHEDRAL.0>
0

>  <SCORE.INTRA.POLAR>
0

>  <SCORE.INTRA.POLAR.0>
0

>  <SCORE.INTRA.REPUL>
0

>  <SCORE.INTRA.REPUL.0>
0

>  <SCORE.INTRA.SOLV>
0

>  <SCORE.INTRA.SOLV.lig_0>
-13.7928

>  <SCORE.INTRA.VDW>
0

>  <SCORE.INTRA.VDW.0>
0

>  <SCORE.INTRA.norm>
0

>  <SCORE.RESTR>
0

>  <SCORE.RESTR.CAVITY>
0

>  <SCORE.RESTR.norm>
0

>  <SCORE.SYSTEM>
0

>  <SCORE.SYSTEM.CONST>
0

>  <SCORE.SYSTEM.DIHEDRAL>
0

>  <SCORE.SYSTEM.SOLV>
0

>  <SCORE.SYSTEM.norm>
0

>  <SCORE.heavy>
10

>  <SCORE.norm>
-2.03244

>  <RMSD>
26.378

$$$$
1u8d_lig
 OpenBabel11021811413D
libRbt.so/2013.1/901 2013/11/27
 10 11  0  0  0  0  0  0  0  0999 V2000
   36.3410   17.3834   10.4387 N   0  0  0  0  0  0  0  0  0  0  0  0
   36.4155   16.8287    9.1497 C   0  0  0  0  0  0  0  0  0  0  0  0
   36.4608   17.5734    8.0156 N   0  0  0  0  0  0  0  0  0  0  0  0
   36.4292   18.9015    8.2598 C   0  0  0  0  0  0  0  0  0  0  0  0
   36.3442   19.5639    9.6337 C   0  0  0  0  0  0  0  0  0  0  0  0
   36.2980   18.7494   10.7756 C   0  0  0  0  0  0  0  0  0  0  0  0
   36.2347   19.0609   11.9570 O   0  0  0  0  0  0  0  0  0  0  0  0
   36.3335   20.9149    9.4191 N   0  0  0  0  0  0  0  0  0  0  0  0
   36.4137   21.1158    8.0627 C   0  0  0  0  0  0  0  0  0  0  0  0
   36.4716   19.9294    7.3363 N   0  0  0  0  0  0  0  0  0  0  0  0
  1  2  1  0  0  0  0
  1  6  1  0  0  0  0
  2  3  2  0  0  0  0
  3  4  1  0  0  0  0
  4  5  2  0  0  0  0
  4 10  1  0  0  0  0
  5  6  1  0  0  0  0
  5  8  1  0  0  0  0
  6  7  2  0  0  0  0
  8  9  1  0  0  0  0
  9 10  2  0  0  0  0
M  END
>  <CHROM.1>
36.37233228,19.00034816,9.34330005,-2.16619772,1.51533362,-0.27150370

>  <Name>
1u8d_lig

>  <RI>
0

>  <Rbt.Current_Directory>
/home/itssahil/PROJECTS/Mol_Feturizer/New_Systems/rnas/1u8d

>  <Rbt.Executable>
rbdock ($Id: //depot/dev/client3/rdock/2013.1/src/exe/rbdock.cxx#4 $)

>  <Rbt.Library>
libRbt.so (2013.1, Build901 2013/11/27)

>  <Rbt.Parameter_File>
/export/apps/rDock/src/rDock_2013.1_src/data/scripts/dock_solv.prm

>  <Rbt.Receptor>
prm/blind_docking_100.prm

>  <SCORE>
-20.3292

>  <SCORE.INTER>
-20.3292

>  <SCORE.INTER.CONST>
1

>  <SCORE.INTER.POLAR>
-1.87593

>  <SCORE.INTER.ROT>
0

>  <SCORE.INTER.SOLV>
11.6783

>  <SCORE.INTER.VDW>
-14.7925

>  <SCORE.INTER.norm>
-2.03292

>  <SCORE.INTRA>
0

>  <SCORE.INTRA.DIHEDRAL>
0

>  <SCORE.INTRA.DIHEDRAL.0>
0

>  <SCORE.INTRA.POLAR>
0

>  <SCORE.INTRA.POLAR.0>
0

>  <SCORE.INTRA.REPUL>
0

>  <SCORE.INTRA.REPUL.0>
0

>  <SCORE.INTRA.SOLV>
0

>  <SCORE.INTRA.SOLV.lig_0>
-13.7928

>  <SCORE.INTRA.VDW>
0

>  <SCORE.INTRA.VDW.0>
0

>  <SCORE.INTRA.norm>
0

>  <SCORE.RESTR>
0

>  <SCORE.RESTR.CAVITY>
0

>  <SCORE.RESTR.norm>
0

>  <SCORE.SYSTEM>
0

>  <SCORE.SYSTEM.CONST>
0

>  <SCORE.SYSTEM.DIHEDRAL>
0

>  <SCORE.SYSTEM.SOLV>
0

>  <SCORE.SYSTEM.norm>
0

>  <SCORE.heavy>
10

>  <SCORE.norm>
-2.03292

>  <RMSD>
26.380

$$$$
1u8d_lig
 OpenBabel11021811413D
libRbt.so/2013.1/901 2013/11/27
 10 11  0  0  0  0  0  0  0  0999 V2000
   36.3480   17.3825   10.4374 N   0  0  0  0  0  0  0  0  0  0  0  0
   36.4233   16.8290    9.1478 C   0  0  0  0  0  0  0  0  0  0  0  0
   36.4654   17.5747    8.0143 N   0  0  0  0  0  0  0  0  0  0  0  0
   36.4299   18.9025    8.2596 C   0  0  0  0  0  0  0  0  0  0  0  0
   36.3440   19.5636    9.6341 C   0  0  0  0  0  0  0  0  0  0  0  0
   36.3012   18.7480   10.7754 C   0  0  0  0  0  0  0  0  0  0  0  0
   36.2378   19.0585   11.9571 O   0  0  0  0  0  0  0  0  0  0  0  0
   36.3290   20.9147    9.4205 N   0  0  0  0  0  0  0  0  0  0  0  0
   36.4076   21.1170    8.0643 C   0  0  0  0  0  0  0  0  0  0  0  0
   36.4684   19.9313    7.3369 N   0  0  0  0  0  0  0  0  0  0  0  0
  1  2  1  0  0  0  0
  1  6  1  0  0  0  0
  2  3  2  0  0  0  0
  3  4  1  0  0  0  0
  4  5  2  0  0  0  0
  4 10  1  0  0  0  0
  5  6  1  0  0  0  0
  5  8  1  0  0  0  0
  6  7  2  0  0  0  0
  8  9  1  0  0  0  0
  9 10  2  0  0  0  0
M  END
>  <CHROM.1>
36.37359249,19.00038320,9.34322518,-2.10971803,1.51518109,-0.32710411

>  <Name>
1u8d_lig

>  <RI>
0

>  <Rbt.Current_Directory>
/home/itssahil/PROJECTS/Mol_Feturizer/New_Systems/rnas/1u8d

>  <Rbt.Executable>
rbdock ($Id: //depot/dev/client3/rdock/2013.1/src/exe/rbdock.cxx#4 $)

>  <Rbt.Library>
libRbt.so (2013.1, Build901 2013/11/27)

>  <Rbt.Parameter_File>
/export/apps/rDock/src/rDock_2013.1_src/data/scripts/dock_solv.prm

>  <Rbt.Receptor>
prm/blind_docking_100.prm

>  <SCORE>
-20.3253

>  <SCORE.INTER>
-20.3253

>  <SCORE.INTER.CONST>
1

>  <SCORE.INTER.POLAR>
-1.87647

>  <SCORE.INTER.ROT>
0

>  <SCORE.INTER.SOLV>
11.6864

>  <SCORE.INTER.VDW>
-14.7907

>  <SCORE.INTER.norm>
-2.03253

>  <SCORE.INTRA>
0

>  <SCORE.INTRA.DIHEDRAL>
0

>  <SCORE.INTRA.DIHEDRAL.0>
0

>  <SCORE.INTRA.POLAR>
0

>  <SCORE.INTRA.POLAR.0>
0

>  <SCORE.INTRA.REPUL>
0

>  <SCORE.INTRA.REPUL.0>
0

>  <SCORE.INTRA.SOLV>
0

>  <SCORE.INTRA.SOLV.lig_0>
-13.7928

>  <SCORE.INTRA.VDW>
0

>  <SCORE.INTRA.VDW.0>
0

>  <SCORE.INTRA.norm>
0

>  <SCORE.RESTR>
0

>  <SCORE.RESTR.CAVITY>
0

>  <SCORE.RESTR.norm>
0

>  <SCORE.SYSTEM>
0

>  <SCORE.SYSTEM.CONST>
0

>  <SCORE.SYSTEM.DIHEDRAL>
0

>  <SCORE.SYSTEM.SOLV>
0

>  <SCORE.SYSTEM.norm>
0

>  <SCORE.heavy>
10

>  <SCORE.norm>
-2.03253

>  <RMSD>
26.381

$$$$
1u8d_lig
 OpenBabel11021811413D
libRbt.so/2013.1/901 2013/11/27
 10 11  0  0  0  0  0  0  0  0999 V2000
   36.3146   17.3998   10.4267 N   0  0  0  0  0  0  0  0  0  0  0  0
   36.3854   16.8461    9.1370 C   0  0  0  0  0  0  0  0  0  0  0  0
   36.4423   17.5919    8.0041 N   0  0  0  0  0  0  0  0  0  0  0  0
   36.4262   18.9199    8.2503 C   0  0  0  0  0  0  0  0  0  0  0  0
   36.3461   19.5813    9.6250 C   0  0  0  0  0  0  0  0  0  0  0  0
   36.2874   18.7656   10.7656 C   0  0  0  0  0  0  0  0  0  0  0  0
   36.2251   19.0762   11.9473 O   0  0  0  0  0  0  0  0  0  0  0  0
   36.3523   20.9326    9.4124 N   0  0  0  0  0  0  0  0  0  0  0  0
   36.4380   21.1346    8.0565 C   0  0  0  0  0  0  0  0  0  0  0  0
   36.4832   19.9486    7.3285 N   0  0  0  0  0  0  0  0  0  0  0  0
  1  2  1  0  0  0  0
  1  6  1  0  0  0  0
  2  3  2  0  0  0  0
  3  4  1  0  0  0  0
  4  5  2  0  0  0  0
  4 10  1  0  0  0  0
  5  6  1  0  0  0  0
  5  8  1  0  0  0  0
  6  7  2  0  0  0  0
  8  9  1  0  0  0  0
  9 10  2  0  0  0  0
M  END
>  <CHROM.1>
36.36802476,19.01783352,9.33382000,-2.38837734,1.51497635,-0.04814625

>  <Name>
1u8d_lig

>  <RI>
0

>  <Rbt.Current_Directory>
/home/itssahil/PROJECTS/Mol_Feturizer/New_Systems/rnas/1u8d

>  <Rbt.Executable>
rbdock ($Id: //depot/dev/client3/rdock/2013.1/src/exe/rbdock.cxx#4 $)

>  <Rbt.Library>
libRbt.so (2013.1, Build901 2013/11/27)

>  <Rbt.Parameter_File>
/export/apps/rDock/src/rDock_2013.1_src/data/scripts/dock_solv.prm

>  <Rbt.Receptor>
prm/blind_docking_100.prm

>  <SCORE>
-20.3319

>  <SCORE.INTER>
-20.3319

>  <SCORE.INTER.CONST>
1

>  <SCORE.INTER.POLAR>
-1.86436

>  <SCORE.INTER.ROT>
0

>  <SCORE.INTER.SOLV>
11.6479

>  <SCORE.INTER.VDW>
-14.8227

>  <SCORE.INTER.norm>
-2.03319

>  <SCORE.INTRA>
0

>  <SCORE.INTRA.DIHEDRAL>
0

>  <SCORE.INTRA.DIHEDRAL.0>
0

>  <SCORE.INTRA.POLAR>
0

>  <SCORE.INTRA.POLAR.0>
0

>  <SCORE.INTRA.REPUL>
0

>  <SCORE.INTRA.REPUL.0>
0

>  <SCORE.INTRA.SOLV>
0

>  <SCORE.INTRA.SOLV.lig_0>
-13.7928

>  <SCORE.INTRA.VDW>
0

>  <SCORE.INTRA.VDW.0>
0

>  <SCORE.INTRA.norm>
0

>  <SCORE.RESTR>
0

>  <SCORE.RESTR.CAVITY>
0

>  <SCORE.RESTR.norm>
0

>  <SCORE.SYSTEM>
0

>  <SCORE.SYSTEM.CONST>
0

>  <SCORE.SYSTEM.DIHEDRAL>
0

>  <SCORE.SYSTEM.SOLV>
0

>  <SCORE.SYSTEM.norm>
0

>  <SCORE.heavy>
10

>  <SCORE.norm>
-2.03319

>  <RMSD>
26.381

$$$$
1u8d_lig
 OpenBabel11021811413D
libRbt.so/2013.1/901 2013/11/27
 10 11  0  0  0  0  0  0  0  0999 V2000
   36.3270   17.3926   10.4321 N   0  0  0  0  0  0  0  0  0  0  0  0
   36.3999   16.8398    9.1421 C   0  0  0  0  0  0  0  0  0  0  0  0
   36.4519   17.5862    8.0095 N   0  0  0  0  0  0  0  0  0  0  0  0
   36.4286   18.9140    8.2561 C   0  0  0  0  0  0  0  0  0  0  0  0
   36.3459   19.5745    9.6311 C   0  0  0  0  0  0  0  0  0  0  0  0
   36.2925   18.7582   10.7715 C   0  0  0  0  0  0  0  0  0  0  0  0
   36.2294   19.0680   11.9533 O   0  0  0  0  0  0  0  0  0  0  0  0
   36.3444   20.9259    9.4190 N   0  0  0  0  0  0  0  0  0  0  0  0
   36.4281   21.1288    8.0631 C   0  0  0  0  0  0  0  0  0  0  0  0
   36.4792   19.9434    7.3346 N   0  0  0  0  0  0  0  0  0  0  0  0
  1  2  1  0  0  0  0
  1  6  1  0  0  0  0
  2  3  2  0  0  0  0
  3  4  1  0  0  0  0
  4  5  2  0  0  0  0
  4 10  1  0  0  0  0
  5  6  1  0  0  0  0
  5  8  1  0  0  0  0
  6  7  2  0  0  0  0
  8  9  1  0  0  0  0
  9 10  2  0  0  0  0
M  END
>  <CHROM.1>
36.37072304,19.01128412,9.33970880,-2.28826119,1.51517485,-0.14777407

>  <Name>
1u8d_lig

>  <RI>
0

>  <Rbt.Current_Directory>
/home/itssahil/PROJECTS/Mol_Feturizer/New_Systems/rnas/1u8d

>  <Rbt.Executable>
rbdock ($Id: //depot/dev/client3/rdock/2013.1/src/exe/rbdock.cxx#4 $)

>  <Rbt.Library>
libRbt.so (2013.1, Build901 2013/11/27)

>  <Rbt.Parameter_File>
/export/apps/rDock/src/rDock_2013.1_src/data/scripts/dock_solv.prm

>  <Rbt.Receptor>
prm/blind_docking_100.prm

>  <SCORE>
-20.3339

>  <SCORE.INTER>
-20.3339

>  <SCORE.INTER.CONST>
1

>  <SCORE.INTER.POLAR>
-1.86938

>  <SCORE.INTER.ROT>
0

>  <SCORE.INTER.SOLV>
11.6622

>  <SCORE.INTER.VDW>
-14.812

>  <SCORE.INTER.norm>
-2.03339

>  <SCORE.INTRA>
0

>  <SCORE.INTRA.DIHEDRAL>
0

>  <SCORE.INTRA.DIHEDRAL.0>
0

>  <SCORE.INTRA.POLAR>
0

>  <SCORE.INTRA.POLAR.0>
0

>  <SCORE.INTRA.REPUL>
0

>  <SCORE.INTRA.REPUL.0>
0

>  <SCORE.INTRA.SOLV>
0

>  <SCORE.INTRA.SOLV.lig_0>
-13.7928

>  <SCORE.INTRA.VDW>
0

>  <SCORE.INTRA.VDW.0>
0

>  <SCORE.INTRA.norm>
0

>  <SCORE.RESTR>
0

>  <SCORE.RESTR.CAVITY>
0

>  <SCORE.RESTR.norm>
0

>  <SCORE.SYSTEM>
0

>  <SCORE.SYSTEM.CONST>
0

>  <SCORE.SYSTEM.DIHEDRAL>
0

>  <SCORE.SYSTEM.SOLV>
0

>  <SCORE.SYSTEM.norm>
0

>  <SCORE.heavy>
10

>  <SCORE.norm>
-2.03339

>  <RMSD>
26.382

$$$$
1u8d_lig
 OpenBabel11021811413D
libRbt.so/2013.1/901 2013/11/27
 10 11  0  0  0  0  0  0  0  0999 V2000
   36.2509   18.9805    7.6476 N   0  0  0  0  0  0  0  0  0  0  0  0
   36.0589   20.2764    8.1563 C   0  0  0  0  0  0  0  0  0  0  0  0
   36.0759   20.5707    9.4813 N   0  0  0  0  0  0  0  0  0  0  0  0
   36.2993   19.4867   10.2556 C   0  0  0  0  0  0  0  0  0  0  0  0
   36.5104   18.0557    9.7642 C   0  0  0  0  0  0  0  0  0  0  0  0
   36.4819   17.8034    8.3839 C   0  0  0  0  0  0  0  0  0  0  0  0
   36.6298   16.7511    7.7775 O   0  0  0  0  0  0  0  0  0  0  0  0
   36.6968   17.2813   10.8763 N   0  0  0  0  0  0  0  0  0  0  0  0
   36.6275   18.1096   11.9698 C   0  0  0  0  0  0  0  0  0  0  0  0
   36.3889   19.4397   11.6343 N   0  0  0  0  0  0  0  0  0  0  0  0
  1  2  1  0  0  0  0
  1  6  1  0  0  0  0
  2  3  2  0  0  0  0
  3  4  1  0  0  0  0
  4  5  2  0  0  0  0
  4 10  1  0  0  0  0
  5  6  1  0  0  0  0
  5  8  1  0  0  0  0
  6  7  2  0  0  0  0
  8  9  1  0  0  0  0
  9 10  2  0  0  0  0
M  END
>  <CHROM.1>
36.40502684,18.64940745,9.56642285,1.78510022,1.39735831,-1.87935868

>  <Name>
1u8d_lig

>  <RI>
0

>  <Rbt.Current_Directory>
/home/itssahil/PROJECTS/Mol_Feturizer/New_Systems/rnas/1u8d

>  <Rbt.Executable>
rbdock ($Id: //depot/dev/client3/rdock/2013.1/src/exe/rbdock.cxx#4 $)

>  <Rbt.Library>
libRbt.so (2013.1, Build901 2013/11/27)

>  <Rbt.Parameter_File>
/export/apps/rDock/src/rDock_2013.1_src/data/scripts/dock_solv.prm

>  <Rbt.Receptor>
prm/blind_docking_60.prm

>  <SCORE>
-18.4697

>  <SCORE.INTER>
-18.6882

>  <SCORE.INTER.CONST>
1

>  <SCORE.INTER.POLAR>
-2.81056

>  <SCORE.INTER.ROT>
0

>  <SCORE.INTER.SOLV>
12.7268

>  <SCORE.INTER.VDW>
-10.9325

>  <SCORE.INTER.norm>
-1.86882

>  <SCORE.INTRA>
0

>  <SCORE.INTRA.DIHEDRAL>
0

>  <SCORE.INTRA.DIHEDRAL.0>
0

>  <SCORE.INTRA.POLAR>
0

>  <SCORE.INTRA.POLAR.0>
0

>  <SCORE.INTRA.REPUL>
0

>  <SCORE.INTRA.REPUL.0>
0

>  <SCORE.INTRA.SOLV>
0

>  <SCORE.INTRA.SOLV.lig_0>
-13.7928

>  <SCORE.INTRA.VDW>
0

>  <SCORE.INTRA.VDW.0>
0

>  <SCORE.INTRA.norm>
0

>  <SCORE.RESTR>
0.218453

>  <SCORE.RESTR.CAVITY>
0.218453

>  <SCORE.RESTR.norm>
0.0218453

>  <SCORE.SYSTEM>
0

>  <SCORE.SYSTEM.CONST>
0

>  <SCORE.SYSTEM.DIHEDRAL>
0

>  <SCORE.SYSTEM.SOLV>
0

>  <SCORE.SYSTEM.norm>
0

>  <SCORE.heavy>
10

>  <SCORE.norm>
-1.84697

>  <RMSD>
26.382

$$$$
1u8d_lig
 OpenBabel11021811413D
libRbt.so/2013.1/901 2013/11/27
 10 11  0  0  0  0  0  0  0  0999 V2000
   36.2448   19.0602    7.6340 N   0  0  0  0  0  0  0  0  0  0  0  0
   36.0394   20.3397    8.1778 C   0  0  0  0  0  0  0  0  0  0  0  0
   36.0524   20.5978    9.5104 N   0  0  0  0  0  0  0  0  0  0  0  0
   36.2861   19.4952   10.2549 C   0  0  0  0  0  0  0  0  0  0  0  0
   36.5120   18.0804    9.7247 C   0  0  0  0  0  0  0  0  0  0  0  0
   36.4871   17.8658    8.3380 C   0  0  0  0  0  0  0  0  0  0  0  0
   36.6460   16.8321    7.7032 O   0  0  0  0  0  0  0  0  0  0  0  0
   36.7052   17.2778   10.8154 N   0  0  0  0  0  0  0  0  0  0  0  0
   36.6268   18.0751   11.9311 C   0  0  0  0  0  0  0  0  0  0  0  0
   36.3751   19.4114   11.6319 N   0  0  0  0  0  0  0  0  0  0  0  0
  1  2  1  0  0  0  0
  1  6  1  0  0  0  0
  2  3  2  0  0  0  0
  3  4  1  0  0  0  0
  4  5  2  0  0  0  0
  4 10  1  0  0  0  0
  5  6  1  0  0  0  0
  5  8  1  0  0  0  0
  6  7  2  0  0  0  0
  8  9  1  0  0  0  0
  9 10  2  0  0  0  0
M  END
>  <CHROM.1>
36.40075477,18.67826203,9.54320363,1.76421421,1.38796631,-1.83139365

>  <Name>
1u8d_lig

>  <RI>
0

>  <Rbt.Current_Directory>
/home/itssahil/PROJECTS/Mol_Feturizer/New_Systems/rnas/1u8d

>  <Rbt.Executable>
rbdock ($Id: //depot/dev/client3/rdock/2013.1/src/exe/rbdock.cxx#4 $)

>  <Rbt.Library>
libRbt.so (2013.1, Build901 2013/11/27)

>  <Rbt.Parameter_File>
/export/apps/rDock/src/rDock_2013.1_src/data/scripts/dock_solv.prm

>  <Rbt.Receptor>
prm/blind_docking_80.prm

>  <SCORE>
-18.745

>  <SCORE.INTER>
-19.0371

>  <SCORE.INTER.CONST>
1

>  <SCORE.INTER.POLAR>
-2.83039

>  <SCORE.INTER.ROT>
0

>  <SCORE.INTER.SOLV>
12.729

>  <SCORE.INTER.VDW>
-11.0998

>  <SCORE.INTER.norm>
-1.90371

>  <SCORE.INTRA>
0

>  <SCORE.INTRA.DIHEDRAL>
0

>  <SCORE.INTRA.DIHEDRAL.0>
0

>  <SCORE.INTRA.POLAR>
0

>  <SCORE.INTRA.POLAR.0>
0

>  <SCORE.INTRA.REPUL>
0

>  <SCORE.INTRA.REPUL.0>
0

>  <SCORE.INTRA.SOLV>
0

>  <SCORE.INTRA.SOLV.lig_0>
-13.7928

>  <SCORE.INTRA.VDW>
0

>  <SCORE.INTRA.VDW.0>
0

>  <SCORE.INTRA.norm>
0

>  <SCORE.RESTR>
0.292047

>  <SCORE.RESTR.CAVITY>
0.292047

>  <SCORE.RESTR.norm>
0.0292047

>  <SCORE.SYSTEM>
0

>  <SCORE.SYSTEM.CONST>
0

>  <SCORE.SYSTEM.DIHEDRAL>
0

>  <SCORE.SYSTEM.SOLV>
0

>  <SCORE.SYSTEM.norm>
0

>  <SCORE.heavy>
10

>  <SCORE.norm>
-1.8745

>  <RMSD>
26.384

$$$$
1u8d_lig
 OpenBabel11021811413D
libRbt.so/2013.1/901 2013/11/27
 10 11  0  0  0  0  0  0  0  0999 V2000
   36.0892   18.6294    7.7289 N   0  0  0  0  0  0  0  0  0  0  0  0
   36.5551   17.3039    7.7601 C   0  0  0  0  0  0  0  0  0  0  0  0
   36.8949   16.6565    8.9038 N   0  0  0  0  0  0  0  0  0  0  0  0
   36.7348   17.4212   10.0057 C   0  0  0  0  0  0  0  0  0  0  0  0
   36.2381   18.8655   10.0365 C   0  0  0  0  0  0  0  0  0  0  0  0
   35.9011   19.4908    8.8261 C   0  0  0  0  0  0  0  0  0  0  0  0
   35.4837   20.6221    8.6194 O   0  0  0  0  0  0  0  0  0  0  0  0
   36.2331   19.2519   11.3487 N   0  0  0  0  0  0  0  0  0  0  0  0
   36.6652   18.1818   12.0935 C   0  0  0  0  0  0  0  0  0  0  0  0
   36.9761   17.0667   11.3199 N   0  0  0  0  0  0  0  0  0  0  0  0
  1  2  1  0  0  0  0
  1  6  1  0  0  0  0
  2  3  2  0  0  0  0
  3  4  1  0  0  0  0
  4  5  2  0  0  0  0
  4 10  1  0  0  0  0
  5  6  1  0  0  0  0
  5  8  1  0  0  0  0
  6  7  2  0  0  0  0
  8  9  1  0  0  0  0
  9 10  2  0  0  0  0
M  END
>  <CHROM.1>
36.36424792,18.38082411,9.64672747,-2.26534141,-1.22497146,1.29913032

>  <Name>
1u8d_lig

>  <RI>
0

>  <Rbt.Current_Directory>
/home/itssahil/PROJECTS/Mol_Feturizer/New_Systems/rnas/1u8d

>  <Rbt.Executable>
rbdock ($Id: //depot/dev/client3/rdock/2013.1/src/exe/rbdock.cxx#4 $)

>  <Rbt.Library>
libRbt.so (2013.1, Build901 2013/11/27)

>  <Rbt.Parameter_File>
/export/apps/rDock/src/rDock_2013.1_src/data/scripts/dock_solv.prm

>  <Rbt.Receptor>
prm/blind_docking_100.prm

>  <SCORE>
-3.06295

>  <SCORE.INTER>
-3.60153

>  <SCORE.INTER.CONST>
1

>  <SCORE.INTER.POLAR>
-2.20779

>  <SCORE.INTER.ROT>
0

>  <SCORE.INTER.SOLV>
12.9232

>  <SCORE.INTER.VDW>
-2.94943

>  <SCORE.INTER.norm>
-0.360153

>  <SCORE.INTRA>
0

>  <SCORE.INTRA.DIHEDRAL>
0

>  <SCORE.INTRA.DIHEDRAL.0>
0

>  <SCORE.INTRA.POLAR>
0

>  <SCORE.INTRA.POLAR.0>
0

>  <SCORE.INTRA.REPUL>
0

>  <SCORE.INTRA.REPUL.0>
0

>  <SCORE.INTRA.SOLV>
0

>  <SCORE.INTRA.SOLV.lig_0>
-13.7928

>  <SCORE.INTRA.VDW>
0

>  <SCORE.INTRA.VDW.0>
0

>  <SCORE.INTRA.norm>
0

>  <SCORE.RESTR>
0.538577

>  <SCORE.RESTR.CAVITY>
0.538577

>  <SCORE.RESTR.norm>
0.0538577

>  <SCORE.SYSTEM>
0

>  <SCORE.SYSTEM.CONST>
0

>  <SCORE.SYSTEM.DIHEDRAL>
0

>  <SCORE.SYSTEM.SOLV>
0

>  <SCORE.SYSTEM.norm>
0

>  <SCORE.heavy>
10

>  <SCORE.norm>
-0.306295

>  <RMSD>
26.389

$$$$
1u8d_lig
 OpenBabel11021811413D
libRbt.so/2013.1/901 2013/11/27
 10 11  0  0  0  0  0  0  0  0999 V2000
   36.0985   18.6944    7.7333 N   0  0  0  0  0  0  0  0  0  0  0  0
   36.5486   17.3630    7.7356 C   0  0  0  0  0  0  0  0  0  0  0  0
   36.8836   16.6879    8.8646 N   0  0  0  0  0  0  0  0  0  0  0  0
   36.7353   17.4313    9.9826 C   0  0  0  0  0  0  0  0  0  0  0  0
   36.2561   18.8805   10.0449 C   0  0  0  0  0  0  0  0  0  0  0  0
   35.9235   19.5349    8.8487 C   0  0  0  0  0  0  0  0  0  0  0  0
   35.5192   20.6751    8.6668 O   0  0  0  0  0  0  0  0  0  0  0  0
   36.2590   19.2394   11.3649 N   0  0  0  0  0  0  0  0  0  0  0  0
   36.6802   18.1489   12.0860 C   0  0  0  0  0  0  0  0  0  0  0  0
   36.9757   17.0466   11.2885 N   0  0  0  0  0  0  0  0  0  0  0  0
  1  2  1  0  0  0  0
  1  6  1  0  0  0  0
  2  3  2  0  0  0  0
  3  4  1  0  0  0  0
  4  5  2  0  0  0  0
  4 10  1  0  0  0  0
  5  6  1  0  0  0  0
  5  8  1  0  0  0  0
  6  7  2  0  0  0  0
  8  9  1  0  0  0  0
  9 10  2  0  0  0  0
M  END
>  <CHROM.1>
36.37541725,18.40254996,9.64475625,-2.28250459,-1.23577022,1.30381024

>  <Name>
1u8d_lig

>  <RI>
0

>  <Rbt.Current_Directory>
/home/itssahil/PROJECTS/Mol_Feturizer/New_Systems/rnas/1u8d

>  <Rbt.Executable>
rbdock ($Id: //depot/dev/client3/rdock/2013.1/src/exe/rbdock.cxx#4 $)

>  <Rbt.Library>
libRbt.so (2013.1, Build901 2013/11/27)

>  <Rbt.Parameter_File>
/export/apps/rDock/src/rDock_2013.1_src/data/scripts/dock_solv.prm

>  <Rbt.Receptor>
prm/blind_docking_60.prm

>  <SCORE>
-3.10621

>  <SCORE.INTER>
-3.43386

>  <SCORE.INTER.CONST>
1

>  <SCORE.INTER.POLAR>
-2.21141

>  <SCORE.INTER.ROT>
0

>  <SCORE.INTER.SOLV>
12.9005

>  <SCORE.INTER.VDW>
-2.81805

>  <SCORE.INTER.norm>
-0.343386

>  <SCORE.INTRA>
0

>  <SCORE.INTRA.DIHEDRAL>
0

>  <SCORE.INTRA.DIHEDRAL.0>
0

>  <SCORE.INTRA.POLAR>
0

>  <SCORE.INTRA.POLAR.0>
0

>  <SCORE.INTRA.REPUL>
0

>  <SCORE.INTRA.REPUL.0>
0

>  <SCORE.INTRA.SOLV>
0

>  <SCORE.INTRA.SOLV.lig_0>
-13.7928

>  <SCORE.INTRA.VDW>
0

>  <SCORE.INTRA.VDW.0>
0

>  <SCORE.INTRA.norm>
0

>  <SCORE.RESTR>
0.327642

>  <SCORE.RESTR.CAVITY>
0.327642

>  <SCORE.RESTR.norm>
0.0327642

>  <SCORE.SYSTEM>
0

>  <SCORE.SYSTEM.CONST>
0

>  <SCORE.SYSTEM.DIHEDRAL>
0

>  <SCORE.SYSTEM.SOLV>
0

>  <SCORE.SYSTEM.norm>
0

>  <SCORE.heavy>
10

>  <SCORE.norm>
-0.310621

>  <RMSD>
26.405

$$$$
1u8d_lig
 OpenBabel11021811413D
libRbt.so/2013.1/901 2013/11/27
 10 11  0  0  0  0  0  0  0  0999 V2000
   36.0995   18.6934    7.7350 N   0  0  0  0  0  0  0  0  0  0  0  0
   36.5465   17.3610    7.7370 C   0  0  0  0  0  0  0  0  0  0  0  0
   36.8803   16.6850    8.8659 N   0  0  0  0  0  0  0  0  0  0  0  0
   36.7342   17.4287    9.9840 C   0  0  0  0  0  0  0  0  0  0  0  0
   36.2583   18.8790   10.0464 C   0  0  0  0  0  0  0  0  0  0  0  0
   35.9269   19.5342    8.8504 C   0  0  0  0  0  0  0  0  0  0  0  0
   35.5251   20.6754    8.6688 O   0  0  0  0  0  0  0  0  0  0  0  0
   36.2625   19.2379   11.3665 N   0  0  0  0  0  0  0  0  0  0  0  0
   36.6814   18.1464   12.0874 C   0  0  0  0  0  0  0  0  0  0  0  0
   36.9741   17.0434   11.2898 N   0  0  0  0  0  0  0  0  0  0  0  0
  1  2  1  0  0  0  0
  1  6  1  0  0  0  0
  2  3  2  0  0  0  0
  3  4  1  0  0  0  0
  4  5  2  0  0  0  0
  4 10  1  0  0  0  0
  5  6  1  0  0  0  0
  5  8  1  0  0  0  0
  6  7  2  0  0  0  0
  8  9  1  0  0  0  0
  9 10  2  0  0  0  0
M  END
>  <CHROM.1>
36.37639577,18.40082392,9.64628222,-2.28544017,-1.23790912,1.30107945

>  <Name>
1u8d_lig

>  <RI>
0

>  <Rbt.Current_Directory>
/home/itssahil/PROJECTS/Mol_Feturizer/New_Systems/rnas/1u8d

>  <Rbt.Executable>
rbdock ($Id: //depot/dev/client3/rdock/2013.1/src/exe/rbdock.cxx#4 $)

>  <Rbt.Library>
libRbt.so (2013.1, Build901 2013/11/27)

>  <Rbt.Parameter_File>
/export/apps/rDock/src/rDock_2013.1_src/data/scripts/dock_solv.prm

>  <Rbt.Receptor>
prm/blind_docking_80.prm

>  <SCORE>
-3.1048

>  <SCORE.INTER>
-3.43303

>  <SCORE.INTER.CONST>
1

>  <SCORE.INTER.POLAR>
-2.21167

>  <SCORE.INTER.ROT>
0

>  <SCORE.INTER.SOLV>
12.8982

>  <SCORE.INTER.VDW>
-2.81586

>  <SCORE.INTER.norm>
-0.343303

>  <SCORE.INTRA>
0

>  <SCORE.INTRA.DIHEDRAL>
0

>  <SCORE.INTRA.DIHEDRAL.0>
0

>  <SCORE.INTRA.POLAR>
0

>  <SCORE.INTRA.POLAR.0>
0

>  <SCORE.INTRA.REPUL>
0

>  <SCORE.INTRA.REPUL.0>
0

>  <SCORE.INTRA.SOLV>
0

>  <SCORE.INTRA.SOLV.lig_0>
-13.7928

>  <SCORE.INTRA.VDW>
0

>  <SCORE.INTRA.VDW.0>
0

>  <SCORE.INTRA.norm>
0

>  <SCORE.RESTR>
0.32823

>  <SCORE.RESTR.CAVITY>
0.32823

>  <SCORE.RESTR.norm>
0.032823

>  <SCORE.SYSTEM>
0

>  <SCORE.SYSTEM.CONST>
0

>  <SCORE.SYSTEM.DIHEDRAL>
0

>  <SCORE.SYSTEM.SOLV>
0

>  <SCORE.SYSTEM.norm>
0

>  <SCORE.heavy>
10

>  <SCORE.norm>
-0.31048

>  <RMSD>
26.406

$$$$
