ligand
  PyMOL2.2          3D                             0

 49 52  0  0  0  0  0  0  0  0999 V2000
   26.2760   11.0860    0.8330 C   0  0  0  0  0  0  0  0  0  0  0  0
   27.4930   10.5860    0.3630 O   0  0  0  0  0  0  0  0  0  0  0  0
   25.2310    9.9150    0.9510 C   0  0  0  0  0  0  0  0  0  0  0  0
   25.7720    8.8580    1.9010 N   0  0  0  0  0  0  0  0  0  0  0  0
   34.1040    8.9550    0.5620 O   0  0  0  0  0  0  0  0  0  0  0  0
   24.9300    9.3190   -0.4440 C   0  0  0  0  0  0  0  0  0  0  0  0
   38.8280   10.7610    2.0630 N   0  0  0  0  0  0  0  0  0  0  0  0
   24.4040   10.4090   -1.3910 C   0  0  0  0  0  0  0  0  0  0  0  0
   25.4320   11.6100   -1.5340 C   0  0  0  0  0  0  0  0  0  0  0  0
   25.7400   12.1310   -0.1290 O   0  0  0  0  0  0  0  0  0  0  0  0
   24.8690   12.7350   -2.4500 C   0  0  0  0  0  0  0  0  0  0  0  0
   25.7400   13.8460   -2.5950 N   0  0  0  0  0  0  0  0  0  0  0  0
   31.7890   10.6780    0.9450 C   0  0  0  0  0  0  0  0  0  0  0  0
   33.1920   11.1860    0.9210 N   0  0  0  0  0  0  0  0  0  0  0  0
   31.1560   10.9790   -0.4990 C   0  0  0  0  0  0  0  0  0  0  0  0
   29.6750   10.4500   -0.5700 C   0  0  0  0  0  0  0  0  0  0  0  0
   29.0770   10.7380   -1.8820 N   0  0  0  0  0  0  0  0  0  0  0  0
   28.8130   11.1290    0.5130 C   0  0  0  0  0  0  0  0  0  0  0  0
   29.4130   10.8550    1.9510 C   0  0  0  0  0  0  0  0  0  0  0  0
   28.5190   11.5350    2.9090 O   0  0  0  0  0  0  0  0  0  0  0  0
   30.9050   11.4640    2.0180 C   0  0  0  0  0  0  0  0  0  0  0  0
   31.4120   11.2200    3.2920 O   0  0  0  0  0  0  0  0  0  0  0  0
   28.2680   11.1800    4.1230 C   0  0  0  0  0  0  0  0  0  0  0  0
   27.8020   12.3190    5.0770 C   0  0  0  0  0  0  0  0  0  0  0  0
   28.9300   12.8580    5.6910 O   0  0  0  0  0  0  0  0  0  0  0  0
   27.0080   11.5080    6.0150 C   0  0  0  0  0  0  0  0  0  0  0  0
   26.2450   10.4230    5.1940 C   0  0  0  0  0  0  0  0  0  0  0  0
   27.2560   10.1300    4.2610 O   0  0  0  0  0  0  0  0  0  0  0  0
   24.8570   10.7690    4.6530 C   0  0  0  0  0  0  0  0  0  0  0  0
   24.1750    9.5390    4.4960 O   0  0  0  0  0  0  0  0  0  0  0  0
   27.5630   10.7490    8.2820 C   0  0  0  0  0  0  0  0  0  0  0  0
   27.9790   10.9190    6.9930 O   0  0  0  0  0  0  0  0  0  0  0  0
   28.6320   10.1460    9.1450 C   0  0  0  0  0  0  0  0  0  0  0  0
   24.1830    8.0580    8.4720 N   0  0  0  0  0  0  0  0  0  0  0  0
   35.5910   12.2800    0.5050 O   0  0  0  0  0  0  0  0  0  0  0  0
   28.0680    9.9310   10.6030 C   0  0  0  0  0  0  0  0  0  0  0  0
   26.7780    9.0410   10.6540 C   0  0  0  0  0  0  0  0  0  0  0  0
   25.7620    9.6460    9.8250 C   0  0  0  0  0  0  0  0  0  0  0  0
   26.2800    9.8640    8.4160 O   0  0  0  0  0  0  0  0  0  0  0  0
   24.4460    8.7510    9.8120 C   0  0  0  0  0  0  0  0  0  0  0  0
   29.0130    8.8890    8.6340 N   0  0  0  0  0  0  0  0  0  0  0  0
   24.1400    8.5000   -0.3370 O   0  0  0  0  0  0  0  0  0  0  0  0
   36.2870   10.6170    1.8870 C   0  0  0  0  0  0  0  0  0  0  0  0
   27.0360    8.0060   10.2300 O   0  0  0  0  0  0  0  0  0  0  0  0
   27.7780   10.9590   11.0300 O   0  0  0  0  0  0  0  0  0  0  0  0
   34.2780   10.1720    0.7180 C   0  0  0  0  0  0  0  0  0  0  0  0
   37.5830   10.2050    1.6710 C   0  0  0  0  0  0  0  0  0  0  0  0
   35.7330   10.8750    0.7030 C   0  0  0  0  0  0  0  0  0  0  0  0
   23.1920   10.9260   -0.9000 F   0  0  0  0  0  0  0  0  0  0  0  0
  1  2  1  0  0  0  0
  1 10  1  0  0  0  0
  2 18  1  0  0  0  0
  1  3  1  0  0  0  0
  3  4  1  0  0  0  0
  5 46  2  0  0  0  0
  3  6  1  0  0  0  0
  6 42  1  0  0  0  0
  6  8  1  0  0  0  0
  8  9  1  0  0  0  0
  8 49  1  0  0  0  0
  9 10  1  0  0  0  0
  9 11  1  0  0  0  0
 11 12  1  0  0  0  0
 13 14  1  0  0  0  0
 13 15  1  0  0  0  0
 15 16  1  0  0  0  0
 16 17  1  0  0  0  0
 16 18  1  0  0  0  0
 18 19  1  0  0  0  0
 19 20  1  0  0  0  0
 19 21  1  0  0  0  0
 13 21  1  0  0  0  0
 21 22  1  0  0  0  0
 20 23  1  0  0  0  0
 23 24  1  0  0  0  0
 23 28  1  0  0  0  0
 24 25  1  0  0  0  0
 24 26  1  0  0  0  0
 26 27  1  0  0  0  0
 26 32  1  0  0  0  0
 27 28  1  0  0  0  0
 27 29  1  0  0  0  0
 29 30  1  0  0  0  0
 31 32  1  0  0  0  0
 31 33  1  0  0  0  0
 31 39  1  0  0  0  0
 33 36  1  0  0  0  0
 33 41  1  0  0  0  0
 36 37  1  0  0  0  0
 36 45  1  0  0  0  0
 37 38  1  0  0  0  0
 37 44  1  0  0  0  0
 38 39  1  0  0  0  0
 38 40  1  0  0  0  0
 34 40  1  0  0  0  0
 43 47  1  0  0  0  0
 43 48  1  0  0  0  0
 14 46  1  0  0  0  0
 46 48  1  0  0  0  0
  7 47  1  0  0  0  0
 35 48  1  0  0  0  0
M  END
$$$$
